# generated using pymatgen
data_Na14Zn5Sn3(PO4)12
_symmetry_space_group_name_H-M   'P 1'
_cell_length_a   18.08681073
_cell_length_b   9.03956302
_cell_length_c   22.01689967
_cell_angle_alpha   90.10444812
_cell_angle_beta   89.86658715
_cell_angle_gamma   120.10570458
_symmetry_Int_Tables_number   1
_chemical_formula_structural   Na14Zn5Sn3(PO4)12
_chemical_formula_sum   'Na42 Zn15 Sn9 P36 O144'
_cell_volume   3114.09135900
_cell_formula_units_Z   3
loop_
 _symmetry_equiv_pos_site_id
 _symmetry_equiv_pos_as_xyz
  1  'x, y, z'
loop_
 _atom_site_type_symbol
 _atom_site_label
 _atom_site_symmetry_multiplicity
 _atom_site_fract_x
 _atom_site_fract_y
 _atom_site_fract_z
 _atom_site_occupancy
  Na  Na0  1  0.18615381  0.36027625  0.24671334  1
  Na  Na1  1  0.68690653  0.36196376  0.24723448  1
  Na  Na2  1  0.99254342  0.62758311  0.24752521  1
  Na  Na3  1  0.49275969  0.62671294  0.24632904  1
  Na  Na4  1  0.31919557  0.62627285  0.74648769  1
  Na  Na5  1  0.81977278  0.62704342  0.74650633  1
  Na  Na6  1  0.18616521  0.01508251  0.74655186  1
  Na  Na7  1  0.68620363  0.01424046  0.74591818  1
  Na  Na8  1  0.15619432  0.34618475  0.57739653  1
  Na  Na9  1  0.65638442  0.34660508  0.57728063  1
  Na  Na10  1  0.01628668  0.68639049  0.57776495  1
  Na  Na11  1  0.51631075  0.68612258  0.57770297  1
  Na  Na12  1  0.32640060  0.96588931  0.57702048  1
  Na  Na13  1  0.82655883  0.96563764  0.57740549  1
  Na  Na14  1  0.15613694  0.96770707  0.07776543  1
  Na  Na15  1  0.65345600  0.96147168  0.08081465  1
  Na  Na16  1  0.32668124  0.68594304  0.07792287  1
  Na  Na17  1  0.01959358  0.34742685  0.08005837  1
  Na  Na18  1  0.51686666  0.34808716  0.07698529  1
  Na  Na19  1  0.48001417  0.66535655  0.91854801  1
  Na  Na20  1  0.98773164  0.67979165  0.91352226  1
  Na  Na21  1  0.35279128  0.04005027  0.91844028  1
  Na  Na22  1  0.16747823  0.29127433  0.91886601  1
  Na  Na23  1  0.66125759  0.29686693  0.91373761  1
  Na  Na24  1  0.48034700  0.29461296  0.41862294  1
  Na  Na25  1  0.98034688  0.29438290  0.41843847  1
  Na  Na26  1  0.16719735  0.03983000  0.41854270  1
  Na  Na27  1  0.66741502  0.03984448  0.41870747  1
  Na  Na28  1  0.35280708  0.66477186  0.41896897  1
  Na  Na29  1  0.85299446  0.66513924  0.41861498  1
  Na  Na30  1  0.99979686  0.00024521  0.49391237  1
  Na  Na31  1  0.49984798  0.00031319  0.49393804  1
  Na  Na32  1  0.98704092  0.99078024  0.99357706  1
  Na  Na33  1  0.49899721  0.99957894  0.99423909  1
  Na  Na34  1  0.34046427  0.33416450  0.83155775  1
  Na  Na35  1  0.84203438  0.32424103  0.82679539  1
  Na  Na36  1  0.33261529  0.31855604  0.33177284  1
  Na  Na37  1  0.83306823  0.31935514  0.33217360  1
  Na  Na38  1  0.17267017  0.67915905  0.16233275  1
  Na  Na39  1  0.67981725  0.68005919  0.15976909  1
  Na  Na40  1  0.16049996  0.65566694  0.66167499  1
  Na  Na41  1  0.66063440  0.65564664  0.66192917  1
  Zn  Zn0  1  0.99868787  0.00088741  0.34757828  1
  Zn  Zn1  1  0.49901538  0.00132369  0.34798538  1
  Zn  Zn2  1  0.99626809  0.00299275  0.84979294  1
  Zn  Zn3  1  0.49858280  0.00107103  0.84757290  1
  Zn  Zn4  1  0.33730078  0.33417389  0.68086103  1
  Zn  Zn5  1  0.83730592  0.33435124  0.68021489  1
  Zn  Zn6  1  0.33256590  0.32509565  0.18092911  1
  Zn  Zn7  1  0.83294158  0.32675889  0.18299720  1
  Zn  Zn8  1  0.33334867  0.33209690  0.98781482  1
  Zn  Zn9  1  0.33404257  0.33319536  0.48745279  1
  Zn  Zn10  1  0.83417852  0.33340491  0.48742920  1
  Zn  Zn11  1  0.16683625  0.66708120  0.01355972  1
  Zn  Zn12  1  0.67146727  0.66884969  0.01538968  1
  Zn  Zn13  1  0.16661644  0.66681880  0.51310444  1
  Zn  Zn14  1  0.66671329  0.66688660  0.51310480  1
  Sn  Sn0  1  0.99947468  0.00270419  0.65257412  1
  Sn  Sn1  1  0.50003367  0.00284775  0.65260836  1
  Sn  Sn2  1  0.99589451  0.99526130  0.15069460  1
  Sn  Sn3  1  0.49902054  0.00050851  0.15215643  1
  Sn  Sn4  1  0.83340519  0.33097476  0.98394130  1
  Sn  Sn5  1  0.16857520  0.67132556  0.31604386  1
  Sn  Sn6  1  0.66881895  0.67162228  0.31618659  1
  Sn  Sn7  1  0.16337329  0.66153996  0.81643364  1
  Sn  Sn8  1  0.66716156  0.66657937  0.81759172  1
  P  P0  1  0.14766296  0.99812176  0.25160318  1
  P  P1  1  0.64859972  0.99874074  0.25243916  1
  P  P2  1  0.35018367  0.70282163  0.25205661  1
  P  P3  1  0.85052920  0.70344547  0.25286406  1
  P  P4  1  0.00043936  0.29883798  0.25271542  1
  P  P5  1  0.50072690  0.29997838  0.25294283  1
  P  P6  1  0.14811032  0.29851261  0.75271265  1
  P  P7  1  0.64902146  0.30068031  0.75241931  1
  P  P8  1  0.00067060  0.70303997  0.75252049  1
  P  P9  1  0.50134100  0.70312759  0.75280498  1
  P  P10  1  0.34956440  0.99843952  0.75325696  1
  P  P11  1  0.85065799  0.99911974  0.75210167  1
  P  P12  1  0.48157961  0.33107354  0.58338573  1
  P  P13  1  0.98167530  0.33117233  0.58330170  1
  P  P14  1  0.18328671  0.03737457  0.58533507  1
  P  P15  1  0.68333209  0.03732812  0.58524572  1
  P  P16  1  0.33468273  0.63245348  0.58541979  1
  P  P17  1  0.83468018  0.63238466  0.58537269  1
  P  P18  1  0.48123984  0.63276466  0.08519725  1
  P  P19  1  0.98083493  0.63244511  0.08543762  1
  P  P20  1  0.33467631  0.03703428  0.08326043  1
  P  P21  1  0.83392303  0.03904885  0.08522725  1
  P  P22  1  0.18318852  0.32923237  0.08535751  1
  P  P23  1  0.68459060  0.33267999  0.08683304  1
  P  P24  1  0.31482493  0.66554043  0.91742476  1
  P  P25  1  0.81494768  0.66451070  0.91827001  1
  P  P26  1  0.01721641  0.36963784  0.92004231  1
  P  P27  1  0.51825179  0.37208923  0.91939253  1
  P  P28  1  0.16724719  0.96480144  0.91753206  1
  P  P29  1  0.66775708  0.96448224  0.91870139  1
  P  P30  1  0.31521568  0.96435421  0.41907469  1
  P  P31  1  0.81529994  0.96463048  0.41918517  1
  P  P32  1  0.16706888  0.36977129  0.41733857  1
  P  P33  1  0.66703413  0.36966797  0.41743509  1
  P  P34  1  0.01792176  0.66629134  0.41745600  1
  P  P35  1  0.51792873  0.66615286  0.41738318  1
  O  O0  1  0.10533512  0.02071114  0.30784435  1
  O  O1  1  0.60538106  0.02103207  0.30818615  1
  O  O2  1  0.40457328  0.78859592  0.30751575  1
  O  O3  1  0.90317815  0.78417298  0.30966547  1
  O  O4  1  0.49214416  0.19731613  0.30924500  1
  O  O5  1  0.99209560  0.19794775  0.30954015  1
  O  O6  1  0.10504796  0.18885837  0.80801998  1
  O  O7  1  0.60583516  0.19123764  0.80804682  1
  O  O8  1  0.48975383  0.78871343  0.80884450  1
  O  O9  1  0.99066837  0.78972007  0.80867043  1
  O  O10  1  0.40067257  0.01568185  0.80984294  1
  O  O11  1  0.90525673  0.01787980  0.80603885  1
  O  O12  1  0.38981553  0.96289303  0.69484848  1
  O  O13  1  0.88709977  0.96126554  0.69189006  1
  O  O14  1  0.09465709  0.22009989  0.69289655  1
  O  O15  1  0.59503460  0.22059261  0.69300736  1
  O  O16  1  0.01834591  0.81948782  0.69412779  1
  O  O17  1  0.51923715  0.82015105  0.69438159  1
  O  O18  1  0.39004905  0.81076030  0.19248829  1
  O  O19  1  0.89131705  0.81678817  0.19524796  1
  O  O20  1  0.01731022  0.21757998  0.19424332  1
  O  O21  1  0.51867889  0.22060031  0.19402647  1
  O  O22  1  0.08887041  0.96122416  0.19346910  1
  O  O23  1  0.59029020  0.96245268  0.19386448  1
  O  O24  1  0.43935826  0.36041016  0.63797781  1
  O  O25  1  0.93961614  0.36058872  0.63794018  1
  O  O26  1  0.23604579  0.11904451  0.64265261  1
  O  O27  1  0.73586190  0.11909173  0.64257076  1
  O  O28  1  0.32222866  0.52631859  0.64258737  1
  O  O29  1  0.82214987  0.52624037  0.64254852  1
  O  O30  1  0.43970705  0.52739662  0.14233585  1
  O  O31  1  0.93846689  0.52426197  0.14116594  1
  O  O32  1  0.32031693  0.12164158  0.13781986  1
  O  O33  1  0.81956031  0.12284443  0.13966612  1
  O  O34  1  0.23660169  0.35574342  0.14236534  1
  O  O35  1  0.73556382  0.34971468  0.14321643  1
  O  O36  1  0.22100464  0.29457794  0.02779757  1
  O  O37  1  0.72394619  0.29618543  0.02796835  1
  O  O38  1  0.42622061  0.55769021  0.02758912  1
  O  O39  1  0.92729785  0.55169960  0.02581395  1
  O  O40  1  0.35290883  0.14190633  0.02423722  1
  O  O41  1  0.85540355  0.15755001  0.02718693  1
  O  O42  1  0.22138401  0.14752524  0.52789779  1
  O  O43  1  0.72143236  0.14744937  0.52782801  1
  O  O44  1  0.35195514  0.55727363  0.52774315  1
  O  O45  1  0.85177571  0.55680858  0.52772643  1
  O  O46  1  0.42869552  0.29336143  0.52460223  1
  O  O47  1  0.92872521  0.29350835  0.52456717  1
  O  O48  1  0.27258728  0.69230654  0.97347910  1
  O  O49  1  0.77004616  0.68373372  0.97206849  1
  O  O50  1  0.06916214  0.45087536  0.97753279  1
  O  O51  1  0.57272167  0.45261097  0.97608557  1
  O  O52  1  0.15294498  0.85173747  0.97318327  1
  O  O53  1  0.65594606  0.85638541  0.97452049  1
  O  O54  1  0.27497601  0.85547136  0.47606777  1
  O  O55  1  0.77496747  0.85560008  0.47612837  1
  O  O56  1  0.15400082  0.45468239  0.47341742  1
  O  O57  1  0.65388683  0.45451711  0.47348349  1
  O  O58  1  0.07378150  0.69353153  0.47334270  1
  O  O59  1  0.57375752  0.69371243  0.47332996  1
  O  O60  1  0.05983203  0.63642835  0.35844466  1
  O  O61  1  0.55999969  0.63654714  0.35850028  1
  O  O62  1  0.25516094  0.87855802  0.36237820  1
  O  O63  1  0.75518175  0.87896312  0.36251325  1
  O  O64  1  0.18143013  0.48325761  0.35855308  1
  O  O65  1  0.68117783  0.48275843  0.35864820  1
  O  O66  1  0.05770524  0.49187804  0.86364023  1
  O  O67  1  0.56235835  0.49264758  0.86267829  1
  O  O68  1  0.18123477  0.87921570  0.85861107  1
  O  O69  1  0.68229520  0.88636357  0.85892423  1
  O  O70  1  0.25741582  0.63596939  0.85898415  1
  O  O71  1  0.76036027  0.62767064  0.85783369  1
  O  O72  1  0.00964138  0.82751333  0.41196506  1
  O  O73  1  0.50939868  0.82716500  0.41180002  1
  O  O74  1  0.40381881  0.98000862  0.41203966  1
  O  O75  1  0.90390624  0.98052058  0.41212615  1
  O  O76  1  0.08643354  0.19136044  0.41199357  1
  O  O77  1  0.58631865  0.19113808  0.41219406  1
  O  O78  1  0.01029828  0.19566241  0.91195877  1
  O  O79  1  0.50972030  0.19379854  0.91182944  1
  O  O80  1  0.08732453  0.98358300  0.91185068  1
  O  O81  1  0.58835433  0.98543109  0.91318245  1
  O  O82  1  0.40415122  0.82713330  0.91190890  1
  O  O83  1  0.90658342  0.81343786  0.91218471  1
  O  O84  1  0.48979440  0.16338184  0.58986407  1
  O  O85  1  0.99007294  0.16376578  0.58965368  1
  O  O86  1  0.09093788  0.01982123  0.58963918  1
  O  O87  1  0.59091501  0.01981723  0.58945092  1
  O  O88  1  0.41865001  0.81735363  0.59001973  1
  O  O89  1  0.91881487  0.81686906  0.58977634  1
  O  O90  1  0.49017188  0.81801942  0.08933993  1
  O  O91  1  0.99219429  0.81727849  0.08744740  1
  O  O92  1  0.41896003  0.02172076  0.08935381  1
  O  O93  1  0.91911663  0.03077824  0.08890362  1
  O  O94  1  0.09073678  0.16195736  0.09001837  1
  O  O95  1  0.59346022  0.16005884  0.08805639  1
  O  O96  1  0.33417274  0.14865917  0.74630286  1
  O  O97  1  0.83392682  0.14757878  0.74556249  1
  O  O98  1  0.23810864  0.32150771  0.74673337  1
  O  O99  1  0.73844626  0.32099823  0.74667862  1
  O  O100  1  0.42172334  0.52800429  0.74510102  1
  O  O101  1  0.92117751  0.52764525  0.74511700  1
  O  O102  1  0.33911316  0.52300500  0.24631337  1
  O  O103  1  0.83982276  0.52403303  0.24611077  1
  O  O104  1  0.42558501  0.33070924  0.24602602  1
  O  O105  1  0.92590490  0.33172519  0.24630312  1
  O  O106  1  0.23545112  0.15704337  0.24410937  1
  O  O107  1  0.73616916  0.15797477  0.24544302  1
  O  O108  1  0.32250498  0.50310108  0.91938283  1
  O  O109  1  0.82022370  0.49283099  0.92134261  1
  O  O110  1  0.42919383  0.35606621  0.92058897  1
  O  O111  1  0.92795845  0.36139459  0.92192534  1
  O  O112  1  0.24938745  0.14159629  0.91950704  1
  O  O113  1  0.74878057  0.14991079  0.92120119  1
  O  O114  1  0.32327595  0.14263645  0.42108063  1
  O  O115  1  0.82329784  0.14289363  0.42118436  1
  O  O116  1  0.24851938  0.35510941  0.41935609  1
  O  O117  1  0.74844152  0.35493223  0.41942291  1
  O  O118  1  0.42913278  0.50277587  0.41954440  1
  O  O119  1  0.92913581  0.50293436  0.41962940  1
  O  O120  1  0.17041208  0.48587772  0.08028014  1
  O  O121  1  0.66782770  0.48148699  0.08002651  1
  O  O122  1  0.07126615  0.65526804  0.07981530  1
  O  O123  1  0.57232984  0.65920761  0.08038335  1
  O  O124  1  0.25721216  0.85288502  0.07903596  1
  O  O125  1  0.75517910  0.86252656  0.07682555  1
  O  O126  1  0.16979499  0.85455805  0.58043636  1
  O  O127  1  0.66979207  0.85450920  0.58045505  1
  O  O128  1  0.25675342  0.65873401  0.58066634  1
  O  O129  1  0.75672200  0.65857102  0.58068237  1
  O  O130  1  0.07351771  0.48625854  0.57875980  1
  O  O131  1  0.57341117  0.48605882  0.57884835  1
  O  O132  1  0.15162423  0.82736045  0.25354787  1
  O  O133  1  0.65233233  0.82820204  0.25399489  1
  O  O134  1  0.25821123  0.68168699  0.25355002  1
  O  O135  1  0.75814631  0.68056959  0.25412353  1
  O  O136  1  0.08660701  0.48091077  0.25307140  1
  O  O137  1  0.58653262  0.48148246  0.25358868  1
  O  O138  1  0.15858234  0.48268605  0.75457589  1
  O  O139  1  0.65984806  0.48464173  0.75439929  1
  O  O140  1  0.08596491  0.69511739  0.75375435  1
  O  O141  1  0.58701963  0.69732756  0.75504369  1
  O  O142  1  0.25885967  0.82663728  0.75384556  1
  O  O143  1  0.75969118  0.82711088  0.75453051  1
loop_
_geom_bond_atom_site_label_1
_geom_bond_atom_site_label_2
_geom_bond_distance
_geom_bond_site_symmetry_2
Na0 O102 2.394795 1_555
Na0 O106 2.411643 1_555
Na0 O34 2.477855 1_555
Na0 O134 2.522553 1_555
Na0 O136 2.533462 1_555
Na0 O64 2.718590 1_555
Na0 O20 2.895445 1_555
Na0 O0 2.979069 1_555
Na1 O103 2.394020 1_555
Na1 O107 2.417329 1_555
Na1 O35 2.473664 1_555
Na1 O135 2.500896 1_555
Na1 O137 2.539409 1_555
Na1 O65 2.706055 1_555
Na1 O21 2.893767 1_555
Na1 O1 2.986652 1_555
Na2 O105 2.317788 1_555
Na2 O103 2.431774 1_555
Na2 O132 2.519080 1_655
Na2 O31 2.529581 1_555
Na2 O136 2.632814 1_655
Na2 O60 2.714211 1_655
Na2 O22 2.877505 1_655
Na2 O3 2.960718 1_555
Na3 O104 2.318284 1_555
Na3 O102 2.447045 1_555
Na3 O30 2.471350 1_555
Na3 O133 2.530492 1_555
Na3 O137 2.619426 1_555
Na3 O61 2.736952 1_555
Na3 O23 2.879132 1_555
Na3 O2 2.970618 1_555
Na4 O98 2.384821 1_555
Na4 O100 2.425075 1_555
Na4 O28 2.468592 1_555
Na4 O138 2.524117 1_555
Na4 O142 2.545305 1_555
Na4 O70 2.734135 1_555
Na4 O12 2.879253 1_555
Na4 O8 3.004247 1_555
Na5 O99 2.394769 1_555
Na5 O101 2.413505 1_555
Na5 O29 2.470251 1_555
Na5 O139 2.513386 1_555
Na5 O143 2.540149 1_555
Na5 O71 2.675138 1_555
Na5 O13 2.893484 1_555
Na5 O9 3.007026 1_555
Na6 O96 2.319808 1_555
Na6 O98 2.438156 1_555
Na6 O26 2.465281 1_555
Na6 O140 2.533187 1_545
Na6 O142 2.627768 1_545
Na6 O68 2.739266 1_545
Na6 O16 2.880368 1_545
Na6 O6 2.957483 1_555
Na7 O97 2.315345 1_555
Na7 O99 2.440035 1_555
Na7 O27 2.454949 1_555
Na7 O141 2.512011 1_545
Na7 O143 2.630950 1_545
Na7 O69 2.731166 1_545
Na7 O17 2.859873 1_545
Na7 O7 2.976564 1_555
Na8 O130 2.395704 1_555
Na8 O128 2.477976 1_555
Na8 O56 2.500403 1_555
Na8 O86 2.584096 1_555
Na8 O85 2.616698 1_455
Na8 O14 2.780146 1_555
Na8 O42 2.813147 1_555
Na8 O28 2.972499 1_555
Na9 O131 2.395814 1_555
Na9 O129 2.473341 1_555
Na9 O57 2.495790 1_555
Na9 O87 2.586984 1_555
Na9 O84 2.624884 1_555
Na9 O15 2.783924 1_555
Na9 O43 2.814668 1_555
Na9 O29 2.969560 1_555
Na10 O126 2.406124 1_555
Na10 O130 2.494737 1_555
Na10 O58 2.508639 1_555
Na10 O89 2.579103 1_455
Na10 O86 2.625295 1_565
Na10 O45 2.820170 1_455
Na10 O16 2.820775 1_555
Na10 O25 2.874111 1_455
Na11 O127 2.405868 1_555
Na11 O131 2.492362 1_555
Na11 O59 2.506571 1_555
Na11 O88 2.588345 1_555
Na11 O87 2.627198 1_565
Na11 O44 2.817872 1_555
Na11 O17 2.827523 1_555
Na11 O24 2.874331 1_555
Na12 O128 2.407087 1_555
Na12 O54 2.423182 1_555
Na12 O126 2.486181 1_555
Na12 O84 2.590370 1_565
Na12 O88 2.630532 1_555
Na12 O46 2.833022 1_565
Na12 O12 2.844551 1_555
Na13 O129 2.405922 1_555
Na13 O55 2.429536 1_555
Na13 O127 2.489002 1_555
Na13 O85 2.591360 1_565
Na13 O89 2.630883 1_555
Na13 O13 2.758732 1_555
Na13 O47 2.839096 1_565
Na14 O122 2.446628 1_555
Na14 O124 2.514767 1_555
Na14 O52 2.516992 1_554
Na14 O94 2.576002 1_565
Na14 O91 2.576831 1_455
Na14 O36 2.800994 1_565
Na14 O22 2.808497 1_555
Na14 O32 2.892876 1_565
Na15 O123 2.365740 1_555
Na15 O125 2.417137 1_555
Na15 O95 2.525431 1_565
Na15 O53 2.532899 1_554
Na15 O90 2.568094 1_555
Na15 O23 2.738121 1_555
Na15 O37 2.875752 1_565
Na15 O33 2.906438 1_565
Na16 O124 2.399700 1_555
Na16 O120 2.476638 1_555
Na16 O48 2.513125 1_554
Na16 O90 2.587135 1_555
Na16 O92 2.641772 1_565
Na16 O18 2.766733 1_555
Na16 O38 2.809514 1_555
Na16 O34 2.950079 1_555
Na17 O120 2.362745 1_555
Na17 O50 2.435332 1_554
Na17 O122 2.451158 1_555
Na17 O93 2.513094 1_455
Na17 O94 2.584870 1_555
Na17 O20 2.767896 1_555
Na17 O41 2.831153 1_455
Na17 O31 2.975629 1_455
Na18 O121 2.368805 1_555
Na18 O51 2.426522 1_554
Na18 O123 2.467950 1_555
Na18 O92 2.583293 1_555
Na18 O95 2.689381 1_555
Na18 O21 2.831714 1_555
Na18 O40 2.842526 1_555
Na19 O82 2.461171 1_555
Na19 O108 2.464863 1_555
Na19 O110 2.466953 1_555
Na19 O81 2.556869 1_555
Na19 O38 2.589428 1_556
Na19 O8 2.630411 1_555
Na20 O83 2.322435 1_555
Na20 O80 2.413499 1_655
Na20 O9 2.504864 1_555
Na20 O111 2.523162 1_555
Na20 O109 2.631893 1_555
Na20 O39 2.715879 1_556
Na20 O66 2.799417 1_655
Na20 O52 2.902063 1_655
Na21 O79 2.459759 1_555
Na21 O112 2.462301 1_555
Na21 O110 2.472230 1_555
Na21 O40 2.502745 1_556
Na21 O82 2.525859 1_545
Na21 O10 2.587488 1_555
Na22 O80 2.411651 1_545
Na22 O112 2.456967 1_555
Na22 O108 2.478432 1_555
Na22 O78 2.527593 1_555
Na22 O36 2.582966 1_556
Na22 O6 2.654047 1_555
Na23 O79 2.412587 1_555
Na23 O81 2.437287 1_545
Na23 O109 2.514839 1_555
Na23 O7 2.524672 1_555
Na23 O113 2.531650 1_555
Na23 O37 2.762467 1_556
Na23 O71 2.880255 1_555
Na23 O51 2.945340 1_555
Na24 O114 2.458717 1_555
Na24 O74 2.464764 1_545
Na24 O118 2.479438 1_555
Na24 O46 2.509317 1_555
Na24 O77 2.522981 1_555
Na24 O4 2.607007 1_555
Na25 O115 2.458601 1_555
Na25 O75 2.458603 1_545
Na25 O119 2.482761 1_555
Na25 O47 2.512792 1_555
Na25 O76 2.521895 1_655
Na25 O5 2.594111 1_555
Na26 O76 2.457615 1_555
Na26 O116 2.465927 1_555
Na26 O114 2.490905 1_555
Na26 O72 2.517813 1_545
Na26 O42 2.598148 1_555
Na26 O0 2.653124 1_555
Na26 O62 2.914899 1_545
Na26 O58 2.967837 1_545
Na27 O77 2.460996 1_555
Na27 O117 2.464344 1_555
Na27 O115 2.487096 1_555
Na27 O73 2.525129 1_545
Na27 O43 2.592626 1_555
Na27 O1 2.651173 1_555
Na27 O63 2.909613 1_545
Na27 O59 2.965266 1_545
Na28 O73 2.455460 1_555
Na28 O118 2.465452 1_555
Na28 O116 2.469154 1_555
Na28 O74 2.521537 1_555
Na28 O44 2.583255 1_555
Na28 O2 2.664370 1_555
Na29 O72 2.455621 1_655
Na29 O119 2.464336 1_555
Na29 O117 2.473838 1_555
Na29 O75 2.522559 1_555
Na29 O45 2.591745 1_555
Na29 O3 2.599050 1_555
Na30 O76 2.444469 1_655
Na30 O75 2.446502 1_545
Na30 O72 2.447879 1_645
Na30 O85 2.628106 1_555
Na30 O89 2.628789 1_545
Na30 O86 2.629238 1_655
Na31 O77 2.439761 1_555
Na31 O74 2.448528 1_545
Na31 O73 2.451428 1_545
Na31 O87 2.624822 1_555
Na31 O84 2.631011 1_555
Na31 O88 2.632254 1_545
Na32 O83 2.358015 1_555
Na32 O78 2.462361 1_665
Na32 O93 2.544760 1_566
Na32 O80 2.575772 1_655
Na32 O91 2.626644 1_556
Na32 O94 2.741475 1_666
Na33 O82 2.445406 1_555
Na33 O81 2.450787 1_555
Na33 O79 2.465848 1_565
Na33 O92 2.606927 1_566
Na33 O95 2.609439 1_566
Na33 O90 2.617507 1_556
Na34 O96 2.479173 1_555
Na34 O110 2.480229 1_555
Na34 O100 2.503866 1_555
Na34 O112 2.571776 1_555
Na34 O108 2.580789 1_555
Na34 O98 2.594418 1_555
Na35 O97 2.350820 1_555
Na35 O101 2.454259 1_555
Na35 O111 2.530567 1_555
Na35 O99 2.565675 1_555
Na35 O113 2.641519 1_555
Na35 O109 2.720122 1_555
Na36 O114 2.482744 1_555
Na36 O104 2.490851 1_555
Na36 O106 2.525225 1_555
Na36 O116 2.574743 1_555
Na36 O118 2.577324 1_555
Na36 O102 2.600651 1_555
Na37 O115 2.478562 1_555
Na37 O105 2.490773 1_555
Na37 O107 2.507312 1_555
Na37 O119 2.567455 1_555
Na37 O117 2.571811 1_555
Na37 O103 2.610271 1_555
Na38 O124 2.399188 1_555
Na38 O120 2.497029 1_555
Na38 O122 2.515529 1_555
Na38 O134 2.531093 1_555
Na38 O132 2.543817 1_555
Na38 O136 2.612625 1_555
Na39 O125 2.378515 1_555
Na39 O121 2.439526 1_555
Na39 O135 2.515909 1_555
Na39 O123 2.552838 1_555
Na39 O133 2.645211 1_555
Na39 O137 2.700862 1_555
Na40 O130 2.395628 1_555
Na40 O128 2.479909 1_555
Na40 O126 2.483333 1_555
Na40 O140 2.553709 1_555
Na40 O138 2.566479 1_555
Na40 O142 2.630340 1_555
Na41 O131 2.400382 1_555
Na41 O129 2.482031 1_555
Na41 O127 2.487636 1_555
Na41 O139 2.554197 1_555
Na41 O141 2.570089 1_555
Na41 O143 2.643605 1_555
O0 P0 1.520715 1_545
O0 Zn0 2.040603 1_455
O1 P1 1.520111 1_545
O1 Zn1 2.037036 1_555
O2 P2 1.515523 1_555
O2 Zn1 2.028578 1_565
O3 P3 1.519337 1_555
O3 Zn0 2.030869 1_565
O4 P5 1.510201 1_555
O4 Zn1 2.026997 1_555
O5 P4 1.511620 1_655
O5 Zn0 2.026756 1_555
O6 P6 1.515727 1_555
O6 Zn2 2.054442 1_455
O7 P7 1.521053 1_555
O7 Zn3 2.031670 1_555
O8 P9 1.524056 1_555
O8 Zn3 2.030923 1_565
O9 P8 1.520729 1_655
O9 Zn2 2.084451 1_565
O10 P10 1.513616 1_545
O10 Zn3 2.021242 1_555
O11 P11 1.500300 1_545
O11 Zn2 1.971259 1_555
O12 P10 1.586125 1_555
O12 Sn1 2.059042 1_565
O13 P11 1.590431 1_555
O13 Sn0 2.061525 1_565
O14 P6 1.576887 1_555
O14 Sn0 2.054401 1_455
O15 P7 1.575417 1_555
O15 Sn1 2.055649 1_555
O16 P8 1.590129 1_555
O16 Sn0 2.066536 1_465
O17 P9 1.593077 1_555
O17 Sn1 2.067955 1_565
O18 P2 1.576853 1_555
O18 Sn3 2.054544 1_565
O19 P3 1.563732 1_555
O19 Sn2 2.019534 1_555
O20 P4 1.584160 1_555
O20 Sn2 2.078915 1_445
O21 P5 1.590999 1_555
O21 Sn3 2.054181 1_555
O22 P0 1.590347 1_555
O22 Sn2 2.082542 1_455
O23 P1 1.593971 1_555
O23 Sn3 2.065080 1_565
O24 P12 1.515219 1_555
O24 Zn4 1.976999 1_555
O25 P13 1.514607 1_555
O25 Zn5 1.974660 1_555
O26 P14 1.530888 1_555
O26 Zn4 2.066829 1_555
O27 P15 1.529584 1_555
O27 Zn5 2.063807 1_555
O28 P16 1.530261 1_555
O28 Zn4 2.069456 1_555
O29 P17 1.530225 1_555
O29 Zn5 2.062768 1_555
O30 P18 1.528496 1_555
O30 Zn6 2.065028 1_555
O31 P19 1.515658 1_555
O31 Zn7 2.063465 1_555
O32 P20 1.513211 1_555
O32 Zn6 1.979449 1_555
O33 P21 1.506810 1_555
O33 Zn7 1.978278 1_555
O34 P22 1.529179 1_555
O34 Zn6 2.073733 1_555
O35 P23 1.508955 1_555
O35 Zn7 2.070429 1_555
O36 P22 1.543192 1_555
O36 Zn8 2.078500 1_554
O37 P23 1.588992 1_555
O37 Sn4 2.079801 1_554
O38 P18 1.544277 1_555
O38 Zn8 2.076289 1_554
O39 P19 1.577036 1_555
O39 Sn4 2.077567 1_554
O40 P20 1.544359 1_555
O40 Zn8 2.083393 1_554
O41 P21 1.586357 1_555
O41 Sn4 2.038492 1_554
O42 P14 1.541971 1_555
O42 Zn9 2.080385 1_555
O43 P15 1.541512 1_555
O43 Zn10 2.081677 1_555
O44 P16 1.542718 1_555
O44 Zn9 2.081161 1_555
O45 P17 1.542760 1_555
O45 Zn10 2.077668 1_555
O46 P12 1.543758 1_555
O46 Zn9 2.086983 1_555
O47 P13 1.543503 1_555
O47 Zn10 2.085470 1_555
O48 P24 1.531408 1_555
O48 Zn11 2.011086 1_556
O49 P25 1.493006 1_555
O49 Zn12 1.964366 1_556
O50 P26 1.527791 1_555
O50 Zn11 2.026564 1_556
O51 P27 1.530178 1_555
O51 Zn12 2.063557 1_556
O52 P28 1.533180 1_555
O52 Zn11 2.016638 1_556
O53 P29 1.518075 1_555
O53 Zn12 2.060698 1_556
O54 P30 1.534478 1_555
O54 Zn13 2.014678 1_555
O55 P31 1.534374 1_555
O55 Zn14 2.013298 1_555
O56 P32 1.531874 1_555
O56 Zn13 2.012138 1_555
O57 P33 1.531591 1_555
O57 Zn14 2.012015 1_555
O58 P34 1.533137 1_555
O58 Zn13 2.014544 1_555
O59 P35 1.533385 1_555
O59 Zn14 2.017176 1_555
O60 P34 1.592146 1_555
O60 Sn5 2.051698 1_555
O61 P35 1.590525 1_555
O61 Sn6 2.051518 1_555
O62 P30 1.580256 1_555
O62 Sn5 2.014910 1_555
O63 P31 1.580169 1_555
O63 Sn6 2.014099 1_555
O64 P32 1.590904 1_555
O64 Sn5 2.055123 1_555
O65 P33 1.589551 1_555
O65 Sn6 2.056279 1_555
O66 P26 1.577449 1_555
O66 Sn7 2.034971 1_555
O67 P27 1.584740 1_555
O67 Sn8 2.014356 1_555
O68 P28 1.592669 1_555
O68 Sn7 2.048302 1_555
O69 P29 1.575188 1_555
O69 Sn8 2.073464 1_555
O70 P24 1.591128 1_555
O70 Sn7 2.055936 1_555
O71 P25 1.590879 1_555
O71 Sn8 2.086396 1_555
O72 P34 1.542945 1_555
O72 Zn0 2.196797 1_465
O73 P35 1.543808 1_555
O73 Zn1 2.189445 1_565
O74 P30 1.543891 1_555
O74 Zn1 2.155801 1_565
O75 P31 1.543088 1_555
O75 Zn0 2.159941 1_565
O76 P32 1.543490 1_555
O76 Zn0 2.180579 1_455
O77 P33 1.544541 1_555
O77 Zn1 2.172434 1_555
O78 P26 1.523899 1_555
O78 Zn2 2.126176 1_455
O79 P27 1.548765 1_555
O79 Zn3 2.171976 1_555
O80 P28 1.543113 1_555
O80 Zn2 2.216122 1_465
O81 P29 1.544945 1_555
O81 Zn3 2.232692 1_565
O82 P24 1.546264 1_555
O82 Zn3 2.167616 1_565
O83 P25 1.529222 1_555
O83 Zn2 2.159660 1_565
O84 P12 1.602212 1_555
O84 Sn1 2.080054 1_555
O85 P13 1.601281 1_555
O85 Sn0 2.079555 1_555
O86 P14 1.599213 1_555
O86 Sn0 2.100922 1_455
O87 P15 1.600482 1_555
O87 Sn1 2.096715 1_555
O88 P16 1.601235 1_555
O88 Sn1 2.098136 1_565
O89 P17 1.600129 1_555
O89 Sn0 2.098637 1_565
O90 P18 1.602151 1_555
O90 Sn3 2.094631 1_565
O91 P19 1.578349 1_555
O91 Sn2 2.101504 1_555
O92 P20 1.604289 1_555
O92 Sn3 2.081907 1_555
O93 P21 1.581969 1_555
O93 Sn2 2.083253 1_545
O94 P22 1.598843 1_555
O94 Sn2 2.097950 1_445
O95 P23 1.603792 1_555
O95 Sn3 2.124683 1_555
O96 P10 1.524820 1_545
O96 Zn4 2.191955 1_555
O97 P11 1.523678 1_545
O97 Zn5 2.197537 1_555
O98 P6 1.539440 1_555
O98 Zn4 2.262210 1_555
O99 P7 1.538455 1_555
O99 Zn5 2.263841 1_555
O100 P9 1.523720 1_555
O100 Zn4 2.172333 1_555
O101 P8 1.523431 1_655
O101 Zn5 2.176705 1_555
O102 P2 1.539830 1_555
O102 Zn6 2.250733 1_555
O103 P3 1.540802 1_555
O103 Zn7 2.212591 1_555
O104 P5 1.525555 1_555
O104 Zn6 2.193760 1_555
O105 P4 1.526023 1_655
O105 Zn7 2.169515 1_555
O106 P0 1.524292 1_545
O106 Zn6 2.155795 1_555
O107 P1 1.522100 1_545
O107 Zn7 2.144550 1_555
O108 P24 1.543430 1_555
O108 Zn8 2.238752 1_555
O109 P25 1.603460 1_555
O109 Sn4 2.110891 1_555
O110 P27 1.543383 1_555
O110 Zn8 2.203453 1_555
O111 P26 1.578781 1_655
O111 Sn4 2.093640 1_555
O112 P28 1.543149 1_545
O112 Zn8 2.216101 1_555
O113 P29 1.579880 1_545
O113 Sn4 2.101940 1_555
O114 P30 1.544187 1_545
O114 Zn9 2.190028 1_555
O115 P31 1.544495 1_545
O115 Zn10 2.187216 1_555
O116 P32 1.544668 1_555
O116 Zn9 2.235861 1_555
O117 P33 1.544247 1_555
O117 Zn10 2.235853 1_555
O118 P35 1.543749 1_555
O118 Zn9 2.212417 1_555
O119 P34 1.543577 1_655
O119 Zn10 2.209633 1_555
O120 P22 1.549170 1_555
O120 Zn11 2.227243 1_555
O121 P23 1.527708 1_555
O121 Zn12 2.189657 1_555
O122 P19 1.547173 1_455
O122 Zn11 2.220562 1_555
O123 P18 1.544968 1_555
O123 Zn12 2.258782 1_555
O124 P20 1.550155 1_565
O124 Zn11 2.195230 1_555
O125 P21 1.526147 1_565
O125 Zn12 2.128106 1_555
O126 P14 1.548265 1_565
O126 Zn13 2.230328 1_555
O127 P15 1.547796 1_565
O127 Zn14 2.230449 1_555
O128 P16 1.546206 1_555
O128 Zn13 2.237649 1_555
O129 P17 1.546105 1_555
O129 Zn14 2.236981 1_555
O130 P13 1.548633 1_455
O130 Zn13 2.197517 1_555
O131 P12 1.548170 1_555
O131 Zn14 2.201106 1_555
O132 P0 1.581421 1_555
O132 Sn5 2.102289 1_555
O133 P1 1.576977 1_555
O133 Sn6 2.097519 1_555
O134 P2 1.576617 1_555
O134 Sn5 2.089991 1_555
O135 P3 1.577547 1_555
O135 Sn6 2.083995 1_555
O136 P4 1.601430 1_555
O136 Sn5 2.126929 1_555
O137 P5 1.595707 1_555
O137 Sn6 2.122120 1_555
O138 P6 1.578836 1_555
O138 Sn7 2.080437 1_555
O139 P7 1.574385 1_555
O139 Sn8 2.105307 1_555
O140 P8 1.580138 1_555
O140 Sn7 2.096086 1_555
O141 P9 1.577490 1_555
O141 Sn8 2.118880 1_555
O142 P10 1.596084 1_555
O142 Sn7 2.125926 1_555
O143 P11 1.600315 1_555
O143 Sn8 2.096307 1_555
