# generated using pymatgen
data_NaCaTiP(SO6)2
_symmetry_space_group_name_H-M   'P 1'
_cell_length_a   8.97017307
_cell_length_b   8.94499152
_cell_length_c   22.63922370
_cell_angle_alpha   89.42699433
_cell_angle_beta   90.00000000
_cell_angle_gamma   120.09316843
_symmetry_Int_Tables_number   1
_chemical_formula_structural   NaCaTiP(SO6)2
_chemical_formula_sum   'Na6 Ca6 Ti6 P6 S12 O72'
_cell_volume   1571.57608524
_cell_formula_units_Z   6
loop_
 _symmetry_equiv_pos_site_id
 _symmetry_equiv_pos_as_xyz
  1  'x, y, z'
loop_
 _atom_site_type_symbol
 _atom_site_label
 _atom_site_symmetry_multiplicity
 _atom_site_fract_x
 _atom_site_fract_y
 _atom_site_fract_z
 _atom_site_occupancy
  Na  Na0  1  0.98025128  0.98140491  0.49972507  1
  Na  Na1  1  0.00115363  0.98140491  -0.00027493  1
  Na  Na2  1  0.65063253  0.31610808  0.83368096  1
  Na  Na3  1  0.66547656  0.31610808  0.33368096  1
  Na  Na4  1  0.33436268  0.67990119  0.16866286  1
  Na  Na5  1  0.34553751  0.67990119  0.66866286  1
  Ca  Ca0  1  0.99820113  0.99769787  0.64433421  1
  Ca  Ca1  1  -0.00050326  0.99769787  0.14433421  1
  Ca  Ca2  1  0.66177371  0.33267441  0.97696727  1
  Ca  Ca3  1  0.67090171  0.33267441  0.47696727  1
  Ca  Ca4  1  0.33490268  0.67140301  0.31094036  1
  Ca  Ca5  1  0.33649933  0.67140301  0.81094036  1
  Ti  Ti0  1  0.01059357  0.00116943  0.35079402  1
  Ti  Ti1  1  0.99057586  0.00116943  0.85079402  1
  Ti  Ti2  1  0.67184990  0.33625000  0.68487385  1
  Ti  Ti3  1  0.66440110  0.33625000  0.18487385  1
  Ti  Ti4  1  0.31267440  0.67755100  0.01817399  1
  Ti  Ti5  1  0.36487560  0.67755100  0.51817399  1
  P  P0  1  0.30744936  0.02454878  0.24775369  1
  P  P1  1  0.71709942  0.02454878  0.74775369  1
  P  P2  1  0.65334594  0.61507364  0.58140766  1
  P  P3  1  0.96172869  0.61507364  0.08140766  1
  P  P4  1  0.30527886  0.95437733  0.91310338  1
  P  P5  1  0.64909747  0.95437733  0.41310338  1
  S  S0  1  0.71789338  0.69247812  0.25074428  1
  S  S1  1  0.97653850  0.28137653  0.24984495  1
  S  S2  1  0.30483803  0.28137653  0.74984495  1
  S  S3  1  0.97458473  0.69247812  0.75074428  1
  S  S4  1  0.97555109  0.36155838  0.58475986  1
  S  S5  1  0.38742261  0.02671433  0.58386631  1
  S  S6  1  0.63929272  0.02671433  0.08386631  1
  S  S7  1  0.38600829  0.36155838  0.08475986  1
  S  S8  1  0.63749339  0.69057559  0.91608705  1
  S  S9  1  0.04973766  0.36110897  0.91685992  1
  S  S10  1  0.31137031  0.36110897  0.41685992  1
  S  S11  1  0.05308120  0.69057559  0.41608705  1
  O  O0  1  0.20106885  0.03723674  0.30436402  1
  O  O1  1  0.82862320  0.78939438  0.30323392  1
  O  O2  1  0.96460361  0.17126010  0.30355512  1
  O  O3  1  0.20665649  0.17126010  0.80355512  1
  O  O4  1  0.96077118  0.78939438  0.80323392  1
  O  O5  1  0.83616789  0.03723674  0.80436402  1
  O  O6  1  0.80144231  0.00682226  0.69393278  1
  O  O7  1  0.21192736  0.20555534  0.69595254  1
  O  O8  1  0.00393184  0.79006660  0.69644016  1
  O  O9  1  0.78613475  0.79006660  0.19644016  1
  O  O10  1  -0.00637202  0.20555534  0.19595254  1
  O  O11  1  0.20537994  0.00682226  0.19393278  1
  O  O12  1  0.86789296  0.36403805  0.63792456  1
  O  O13  1  0.49491686  0.12024071  0.63758209  1
  O  O14  1  0.63340403  0.49616418  0.63765087  1
  O  O15  1  0.86276114  0.49616418  0.13765087  1
  O  O16  1  0.62532485  0.12024071  0.13758209  1
  O  O17  1  0.49614609  0.36403805  0.13792456  1
  O  O18  1  0.45983020  0.33912628  0.03118538  1
  O  O19  1  0.86639599  0.53608758  0.02607598  1
  O  O20  1  0.65900617  0.12225899  0.02994735  1
  O  O21  1  0.46325382  0.12225899  0.52994735  1
  O  O22  1  0.66969259  0.53608758  0.52607598  1
  O  O23  1  0.87929709  0.33912628  0.53118538  1
  O  O24  1  0.54720838  0.70685522  0.96934894  1
  O  O25  1  0.15722351  0.45826974  0.97029021  1
  O  O26  1  0.28911696  0.83288985  0.97178528  1
  O  O27  1  0.54377188  0.83288985  0.47178528  1
  O  O28  1  0.30104523  0.45826974  0.47029021  1
  O  O29  1  0.15964584  0.70685522  0.46934894  1
  O  O30  1  0.12430182  0.66661296  0.36203339  1
  O  O31  1  0.53805420  0.86789272  0.36135163  1
  O  O32  1  0.32784802  0.45501470  0.36285283  1
  O  O33  1  0.12716567  0.45501470  0.86285283  1
  O  O34  1  0.32983753  0.86789272  0.86135163  1
  O  O35  1  0.54231014  0.66661296  0.86203339  1
  O  O36  1  0.05345146  0.86160327  0.41113811  1
  O  O37  1  0.82173523  0.95079631  0.40947725  1
  O  O38  1  0.14173883  0.19071305  0.41593583  1
  O  O39  1  0.04897422  0.19071305  0.91593583  1
  O  O40  1  0.12906108  0.95079631  0.90947725  1
  O  O41  1  0.80815181  0.86160327  0.91113811  1
  O  O42  1  0.01227748  0.22106605  0.59114363  1
  O  O43  1  0.21086056  -0.00973785  0.59035902  1
  O  O44  1  0.79418871  0.80199863  0.58747212  1
  O  O45  1  0.00780992  0.80199863  0.08747212  1
  O  O46  1  0.77940159  -0.00973785  0.09035902  1
  O  O47  1  0.20878857  0.22106605  0.09114363  1
  O  O48  1  0.71565855  0.20131057  0.74414723  1
  O  O49  1  0.47411775  0.28265430  0.74836279  1
  O  O50  1  0.80216532  0.52572203  0.74768664  1
  O  O51  1  0.72355771  0.52572203  0.24768664  1
  O  O52  1  0.80853756  0.28265430  0.24836279  1
  O  O53  1  0.48565302  0.20131057  0.24414723  1
  O  O54  1  0.68078558  0.55412778  0.92167771  1
  O  O55  1  0.87240078  0.32415391  0.92223558  1
  O  O56  1  0.45112198  0.13831204  0.92144361  1
  O  O57  1  0.68719106  0.13831204  0.42144361  1
  O  O58  1  0.45175413  0.32415391  0.42223558  1
  O  O59  1  0.87334320  0.55412778  0.42167771  1
  O  O60  1  0.39278129  0.53181315  0.08515458  1
  O  O61  1  0.14292433  0.61672113  0.07630455  1
  O  O62  1  0.47010710  0.85617976  0.08128442  1
  O  O63  1  0.38607166  0.85617976  0.58128442  1
  O  O64  1  0.47379580  0.61672113  0.57630455  1
  O  O65  1  0.13903086  0.53181315  0.58515458  1
  O  O66  1  0.34721330  0.87926967  0.25421358  1
  O  O67  1  0.53900197  0.64770915  0.25829049  1
  O  O68  1  0.11906195  0.45782908  0.25558612  1
  O  O69  1  0.33876613  0.45782908  0.75558612  1
  O  O70  1  0.10870619  0.64770915  0.75829049  1
  O  O71  1  0.53205537  0.87926967  0.75421358  1
loop_
_geom_bond_atom_site_label_1
_geom_bond_atom_site_label_2
_geom_bond_distance
_geom_bond_site_symmetry_2
Na0 O37 2.427347 1_555
Na0 O36 2.519987 1_655
Na0 O38 2.532047 1_665
Na0 O44 2.560765 1_555
Na0 O43 2.886958 1_665
Na0 O42 2.903936 1_665
Na1 O40 2.427347 1_554
Na1 O41 2.519987 1_454
Na1 O39 2.532047 1_564
Na1 O45 2.560765 1_555
Na1 O46 2.886958 1_465
Na1 O47 2.903936 1_565
Na2 O49 2.421539 1_555
Na2 O48 2.479029 1_555
Na2 O50 2.554333 1_555
Na2 O56 2.600461 1_555
Na2 O55 2.800189 1_555
Na2 O54 2.842934 1_555
Na3 O52 2.421539 1_555
Na3 O53 2.479029 1_555
Na3 O51 2.554333 1_555
Na3 O57 2.600461 1_555
Na3 O58 2.800189 1_555
Na3 O59 2.842934 1_555
Na4 O62 2.427839 1_555
Na4 O60 2.519863 1_555
Na4 O61 2.586629 1_555
Na4 O66 2.609168 1_555
Na4 O68 2.760970 1_555
Na4 O67 2.843970 1_555
Na5 O63 2.427839 1_555
Na5 O65 2.519863 1_555
Na5 O64 2.586629 1_555
Na5 O71 2.609168 1_555
Na5 O69 2.760970 1_555
Na5 O70 2.843970 1_555
Ca0 O6 2.128117 1_565
Ca0 O8 2.212583 1_655
Ca0 O44 2.214286 1_555
Ca0 O7 2.228664 1_665
Ca0 O42 2.270906 1_665
Ca0 O43 2.294639 1_665
Ca1 O11 2.128117 1_565
Ca1 O9 2.212583 1_455
Ca1 O45 2.214286 1_555
Ca1 O10 2.228664 1_565
Ca1 O47 2.270906 1_565
Ca1 O46 2.294639 1_465
Ca2 O19 2.146419 1_556
Ca2 O20 2.211284 1_556
Ca2 O18 2.213064 1_556
Ca2 O56 2.218675 1_555
Ca2 O54 2.265273 1_555
Ca2 O55 2.292840 1_555
Ca3 O22 2.146419 1_555
Ca3 O21 2.211284 1_555
Ca3 O23 2.213064 1_555
Ca3 O57 2.218675 1_555
Ca3 O59 2.265273 1_555
Ca3 O58 2.292840 1_555
Ca4 O31 2.130885 1_555
Ca4 O30 2.196916 1_555
Ca4 O66 2.205690 1_555
Ca4 O32 2.227873 1_555
Ca4 O67 2.282912 1_555
Ca4 O68 2.303779 1_555
Ca5 O34 2.130885 1_555
Ca5 O35 2.196916 1_555
Ca5 O71 2.205690 1_555
Ca5 O33 2.227873 1_555
Ca5 O70 2.282912 1_555
Ca5 O69 2.303779 1_555
O0 P0 1.636315 1_555
O0 Ti0 1.889104 1_555
O1 S0 1.518992 1_555
O1 Ti0 2.086192 1_665
O2 S1 1.526602 1_555
O2 Ti0 2.055635 1_655
O3 S2 1.526602 1_555
O3 Ti1 2.055635 1_455
O4 S3 1.518992 1_555
O4 Ti1 2.086192 1_565
O5 P1 1.636315 1_555
O5 Ti1 1.889104 1_555
O6 P1 1.485383 1_555
O7 S2 1.446684 1_555
O8 S3 1.445969 1_455
O9 S0 1.445969 1_555
O10 S1 1.446684 1_455
O11 P0 1.485383 1_555
O12 S4 1.550412 1_555
O12 Ti2 1.959686 1_555
O13 S5 1.523125 1_555
O13 Ti2 2.089198 1_555
O14 P2 1.602107 1_555
O14 Ti2 1.942197 1_555
O15 P3 1.602107 1_555
O15 Ti3 1.942197 1_555
O16 S6 1.523125 1_555
O16 Ti3 2.089198 1_555
O17 S7 1.550412 1_555
O17 Ti3 1.959686 1_555
O18 S7 1.444981 1_555
O19 P3 1.487095 1_555
O20 S6 1.441990 1_555
O21 S5 1.441990 1_555
O22 P2 1.487095 1_555
O23 S4 1.444980 1_555
O24 S8 1.500950 1_555
O24 Ti4 2.271066 1_556
O25 S9 1.526056 1_555
O25 Ti4 2.065588 1_556
O26 P4 1.667341 1_555
O26 Ti4 1.828543 1_556
O27 P5 1.667341 1_555
O27 Ti5 1.828543 1_555
O28 S10 1.526056 1_555
O28 Ti5 2.065588 1_555
O29 S11 1.500950 1_555
O29 Ti5 2.271066 1_555
O30 S11 1.447128 1_555
O31 P5 1.486175 1_555
O32 S10 1.441291 1_555
O33 S9 1.441291 1_555
O34 P4 1.486175 1_555
O35 S8 1.447128 1_555
O36 S11 1.531161 1_555
O36 Ti0 2.004963 1_565
O37 P5 1.567066 1_555
O37 Ti0 2.015079 1_665
O38 S10 1.521117 1_555
O38 Ti0 2.117377 1_555
O39 S9 1.521121 1_555
O39 Ti1 2.117377 1_455
O40 P4 1.567057 1_555
O40 Ti1 2.015079 1_465
O41 S8 1.531166 1_555
O41 Ti1 2.004963 1_565
O42 S4 1.456113 1_455
O43 S5 1.455160 1_555
O44 P2 1.515562 1_555
O45 P3 1.515564 1_455
O46 S6 1.455151 1_555
O47 S7 1.456119 1_555
O48 P1 1.588938 1_555
O48 Ti2 1.963498 1_555
O49 S2 1.513139 1_555
O49 Ti2 2.138985 1_555
O50 S3 1.519998 1_555
O50 Ti2 2.079067 1_555
O51 S0 1.520002 1_555
O51 Ti3 2.079067 1_555
O52 S1 1.513130 1_555
O52 Ti3 2.138986 1_555
O53 P0 1.588943 1_555
O53 Ti3 1.963498 1_555
O54 S8 1.459016 1_555
O55 S9 1.458225 1_655
O56 P4 1.517185 1_545
O57 P5 1.517179 1_545
O58 S10 1.458242 1_555
O59 S11 1.459004 1_655
O60 S7 1.493508 1_555
O60 Ti4 2.327029 1_555
O61 P3 1.622126 1_455
O61 Ti4 1.871203 1_555
O62 S6 1.521109 1_565
O62 Ti4 2.090840 1_555
O63 S5 1.521101 1_565
O63 Ti5 2.090840 1_555
O64 P2 1.622144 1_555
O64 Ti5 1.871203 1_555
O65 S4 1.493499 1_455
O65 Ti5 2.327029 1_555
O66 P0 1.516047 1_565
O67 S0 1.455605 1_555
O68 S1 1.457099 1_455
O69 S2 1.457102 1_555
O70 S3 1.455597 1_455
O71 P1 1.516053 1_565
