# generated using pymatgen
data_MgBi2(SbO4)2
_symmetry_space_group_name_H-M   'P 1'
_cell_length_a   6.04475582
_cell_length_b   5.92536709
_cell_length_c   7.34324871
_cell_angle_alpha   100.14568773
_cell_angle_beta   120.30830687
_cell_angle_gamma   85.20027696
_symmetry_Int_Tables_number   1
_chemical_formula_structural   MgBi2(SbO4)2
_chemical_formula_sum   'Mg1 Bi2 Sb2 O8'
_cell_volume   223.51278006
_cell_formula_units_Z   1
loop_
 _symmetry_equiv_pos_site_id
 _symmetry_equiv_pos_as_xyz
  1  'x, y, z'
loop_
 _atom_site_type_symbol
 _atom_site_label
 _atom_site_symmetry_multiplicity
 _atom_site_fract_x
 _atom_site_fract_y
 _atom_site_fract_z
 _atom_site_occupancy
  Mg  Mg0  1  0.61163705  0.99379984  0.04559642  1
  Bi  Bi0  1  0.79531447  0.29043678  0.51254087  1
  Bi  Bi1  1  0.14612339  0.75494506  0.51400556  1
  Sb  Sb0  1  0.09227719  0.02113217  0.01437562  1
  Sb  Sb1  1  0.50512326  0.49205031  0.98307243  1
  O  O0  1  0.80570860  0.52769241  0.29944862  1
  O  O1  1  0.00943923  0.97935199  0.71051275  1
  O  O2  1  0.15700786  0.47849073  0.70742705  1
  O  O3  1  0.91587489  0.04113488  0.33452224  1
  O  O4  1  0.37990450  0.78592776  0.10071364  1
  O  O5  1  0.61521651  0.70586251  0.86631682  1
  O  O6  1  0.64752429  0.21950498  0.88728554  1
  O  O7  1  0.38134876  0.25728958  0.10418245  1
loop_
_geom_bond_atom_site_label_1
_geom_bond_atom_site_label_2
_geom_bond_distance
_geom_bond_site_symmetry_2
Mg0 O5 1.968700 1_554
Mg0 O3 1.975022 1_565
Mg0 O6 2.009458 1_564
Mg0 O7 2.136476 1_565
Mg0 O4 2.163256 1_555
Bi0 O3 2.126768 1_555
Bi0 O2 2.181214 1_655
Bi0 O0 2.306053 1_555
Bi0 O1 2.414970 1_645
Bi0 O7 2.755635 1_555
Bi1 O1 2.208276 1_555
Bi1 O0 2.230209 1_455
Bi1 O3 2.256293 1_465
Bi1 O2 2.326453 1_555
Bi1 O5 2.746089 1_555
O0 Sb1 2.091461 1_554
O1 Sb0 1.997331 1_566
O2 Sb1 2.050260 1_555
O4 Sb0 2.039701 1_565
O4 Sb1 2.064184 1_554
O5 Sb1 1.970448 1_555
O6 Sb1 1.954987 1_555
O6 Sb0 2.608742 1_656
O7 Sb0 2.089808 1_555
O7 Sb1 2.137125 1_554
