# generated using pymatgen
data_Na4Nb3GaSi4(PO12)2
_symmetry_space_group_name_H-M   'P 1'
_cell_length_a   8.91074650
_cell_length_b   8.92376023
_cell_length_c   22.56738135
_cell_angle_alpha   89.90312385
_cell_angle_beta   89.80982418
_cell_angle_gamma   119.92658489
_symmetry_Int_Tables_number   1
_chemical_formula_structural   Na4Nb3GaSi4(PO12)2
_chemical_formula_sum   'Na12 Nb9 Ga3 Si12 P6 O72'
_cell_volume   1555.20970398
_cell_formula_units_Z   3
loop_
 _symmetry_equiv_pos_site_id
 _symmetry_equiv_pos_as_xyz
  1  'x, y, z'
loop_
 _atom_site_type_symbol
 _atom_site_label
 _atom_site_symmetry_multiplicity
 _atom_site_fract_x
 _atom_site_fract_y
 _atom_site_fract_z
 _atom_site_occupancy
  Na  Na0  1  0.63572337  0.62476222  0.74522479  1
  Na  Na1  1  0.99405215  0.36737807  0.74642449  1
  Na  Na2  1  0.30866911  0.97400281  0.08442153  1
  Na  Na3  1  0.02825895  0.33973681  0.08452952  1
  Na  Na4  1  0.96743546  0.29569844  0.41203473  1
  Na  Na5  1  0.70665024  0.67736091  0.41388199  1
  Na  Na6  1  0.00849596  0.99756017  0.49814304  1
  Na  Na7  1  0.99034292  0.99021918  0.99584119  1
  Na  Na8  1  0.65467765  0.32025993  0.83194410  1
  Na  Na9  1  0.65690230  0.32378843  0.32312312  1
  Na  Na10  1  0.34359271  0.66542100  0.16601624  1
  Na  Na11  1  0.33435413  0.67353158  0.66549491  1
  Nb  Nb0  1  0.00469370  0.00991882  0.85558200  1
  Nb  Nb1  1  0.99298898  0.00108107  0.64332830  1
  Nb  Nb2  1  0.99510087  0.99630478  0.14624723  1
  Nb  Nb3  1  0.66735655  0.33439879  0.97741625  1
  Nb  Nb4  1  0.66954884  0.33228129  0.48014796  1
  Nb  Nb5  1  0.33854625  0.66767417  0.02099557  1
  Nb  Nb6  1  0.33499350  0.66885046  0.52285301  1
  Nb  Nb7  1  0.33111113  0.67181448  0.30925920  1
  Nb  Nb8  1  0.33650264  0.67005752  0.81298086  1
  Ga  Ga0  1  0.00031589  0.99594654  0.35055305  1
  Ga  Ga1  1  0.65808985  0.32550236  0.68541638  1
  Ga  Ga2  1  0.66640289  0.33312633  0.18365250  1
  Si  Si0  1  0.29738835  0.28764739  0.74789412  1
  Si  Si1  1  0.70647134  0.00585338  0.74910840  1
  Si  Si2  1  0.95271510  0.33605868  0.58723597  1
  Si  Si3  1  0.66691650  0.61722997  0.58638103  1
  Si  Si4  1  0.94735375  0.61558190  0.08618104  1
  Si  Si5  1  0.66430431  0.04908076  0.08653440  1
  Si  Si6  1  0.38741010  0.33844317  0.08736218  1
  Si  Si7  1  0.62572118  0.66648138  0.91540994  1
  Si  Si8  1  0.04357155  0.37942419  0.91680370  1
  Si  Si9  1  0.33279167  0.95705006  0.91756200  1
  Si  Si10  1  0.62471144  0.95739448  0.41460581  1
  Si  Si11  1  0.04817923  0.67766309  0.41563576  1
  P  P0  1  0.29230455  0.01005362  0.25150518  1
  P  P1  1  0.71187497  0.70285648  0.25270627  1
  P  P2  1  0.99307052  0.28545009  0.25254332  1
  P  P3  1  0.00163036  0.71489805  0.74959161  1
  P  P4  1  0.38061385  0.04679991  0.58521814  1
  P  P5  1  0.33047630  0.37711327  0.41526443  1
  O  O0  1  0.19957493  0.02632818  0.30612209  1
  O  O1  1  0.81449733  0.78879508  0.30949646  1
  O  O2  1  0.97602971  0.17991348  0.30899544  1
  O  O3  1  0.19728401  0.16875695  0.80637497  1
  O  O4  1  0.97525777  0.80362078  0.80435742  1
  O  O5  1  0.83371174  0.02991659  0.80547729  1
  O  O6  1  0.79998544  0.96438533  0.69228190  1
  O  O7  1  0.16312274  0.19132635  0.69252915  1
  O  O8  1  0.02885590  0.82759043  0.69387134  1
  O  O9  1  0.80525400  0.82591312  0.19807451  1
  O  O10  1  0.02167361  0.19822860  0.19628145  1
  O  O11  1  0.17949067  0.97752446  0.19445442  1
  O  O12  1  0.87039273  0.36576244  0.64603339  1
  O  O13  1  0.49067112  0.12249517  0.64006092  1
  O  O14  1  0.63289488  0.50494350  0.64564367  1
  O  O15  1  0.87391571  0.49065163  0.14281134  1
  O  O16  1  0.61885626  0.12499352  0.14366238  1
  O  O17  1  0.49933709  0.37049768  0.14546725  1
  O  O18  1  0.46459573  0.29195887  0.02818861  1
  O  O19  1  0.83056699  0.53246437  0.02649748  1
  O  O20  1  0.70819220  0.17180742  0.02738266  1
  O  O21  1  0.46928463  0.15995287  0.52866175  1
  O  O22  1  0.68864433  0.52564670  0.52515071  1
  O  O23  1  0.83511065  0.30538666  0.52609395  1
  O  O24  1  0.52886673  0.69425526  0.97300419  1
  O  O25  1  0.16014227  0.46779555  0.97607119  1
  O  O26  1  0.30555072  0.84054732  0.97716701  1
  O  O27  1  0.53116617  0.82903569  0.47154182  1
  O  O28  1  0.30109897  0.46344312  0.47078373  1
  O  O29  1  0.16723574  0.69331858  0.47282720  1
  O  O30  1  0.13652479  0.63056188  0.35926415  1
  O  O31  1  0.49707819  0.85621778  0.35807502  1
  O  O32  1  0.36718384  0.49853059  0.36078173  1
  O  O33  1  0.13499026  0.49392819  0.85672398  1
  O  O34  1  0.35945525  0.85860102  0.85989209  1
  O  O35  1  0.50577531  0.63933899  0.85636636  1
  O  O36  1  0.01644417  0.83949674  0.40930528  1
  O  O37  1  0.81790898  0.98264455  0.40846763  1
  O  O38  1  0.16677486  0.20051601  0.40919481  1
  O  O39  1  0.02709635  0.18910275  0.91140408  1
  O  O40  1  0.15878607  0.97057798  0.90994874  1
  O  O41  1  0.81377759  0.83823321  0.90908956  1
  O  O42  1  0.97495516  0.16288722  0.58883561  1
  O  O43  1  0.19824960  0.02646145  0.58869339  1
  O  O44  1  0.84275629  0.80938410  0.58855447  1
  O  O45  1  0.98115506  0.81578027  0.09276587  1
  O  O46  1  0.84070459  0.03159528  0.09303907  1
  O  O47  1  0.18769496  0.16387177  0.09387612  1
  O  O48  1  0.70079095  0.18238269  0.74405627  1
  O  O49  1  0.49191241  0.32012988  0.74526009  1
  O  O50  1  0.84042393  0.53414360  0.74663592  1
  O  O51  1  0.69256482  0.52466549  0.24550892  1
  O  O52  1  0.83488519  0.30748955  0.24650403  1
  O  O53  1  0.47419111  0.16447747  0.24627394  1
  O  O54  1  0.63719143  0.49194758  0.92174005  1
  O  O55  1  0.85327664  0.35997220  0.92127752  1
  O  O56  1  0.50595859  0.14473493  0.92223746  1
  O  O57  1  0.64259936  0.14892355  0.42122494  1
  O  O58  1  0.49813094  0.36597604  0.42253408  1
  O  O59  1  0.85516125  0.49838237  0.42279094  1
  O  O60  1  0.34497278  0.49691104  0.07866240  1
  O  O61  1  0.14577911  0.64676752  0.07739388  1
  O  O62  1  0.49506670  0.85561698  0.07782007  1
  O  O63  1  0.36050275  0.86411319  0.57575881  1
  O  O64  1  0.49853101  0.64423064  0.57521623  1
  O  O65  1  0.14638299  0.50397797  0.57566343  1
  O  O66  1  0.30245350  0.83600330  0.25661720  1
  O  O67  1  0.52905476  0.69173767  0.25583959  1
  O  O68  1  0.16565348  0.46756377  0.25669935  1
  O  O69  1  0.30336553  0.47655311  0.75393537  1
  O  O70  1  0.16404494  0.69199916  0.75425869  1
  O  O71  1  0.52092257  0.82395881  0.75339191  1
loop_
_geom_bond_atom_site_label_1
_geom_bond_atom_site_label_2
_geom_bond_distance
_geom_bond_site_symmetry_2
Na0 O50 2.335400 1_555
Na0 O49 2.357183 1_555
Na0 O71 2.460576 1_555
Na0 O14 2.485115 1_555
Na0 O69 2.577932 1_555
Na0 O35 2.789405 1_555
Na0 O6 2.881856 1_555
Na0 O4 2.949193 1_555
Na1 O48 2.292094 1_555
Na1 O69 2.428782 1_655
Na1 O50 2.474141 1_555
Na1 O70 2.518467 1_655
Na1 O12 2.519524 1_555
Na1 O33 2.768329 1_655
Na1 O5 2.926906 1_555
Na1 O7 2.927981 1_655
Na2 O62 2.376277 1_555
Na2 O47 2.429083 1_565
Na2 O45 2.535757 1_455
Na2 O61 2.536390 1_555
Na2 O26 2.693482 1_554
Na2 O11 2.740329 1_555
Na2 O16 2.749034 1_565
Na2 O18 2.762994 1_565
Na3 O61 2.400836 1_555
Na3 O46 2.408727 1_455
Na3 O60 2.448818 1_555
Na3 O47 2.598333 1_555
Na3 O15 2.697617 1_455
Na3 O25 2.703568 1_554
Na3 O20 2.794546 1_455
Na3 O10 2.805816 1_555
Na4 O38 2.320664 1_655
Na4 O37 2.423549 1_545
Na4 O59 2.477214 1_555
Na4 O57 2.519755 1_555
Na4 O2 2.562515 1_555
Na4 O30 2.846335 1_655
Na4 O23 2.847046 1_555
Na4 O28 2.903539 1_655
Na5 O37 2.392219 1_555
Na5 O36 2.395167 1_655
Na5 O58 2.460895 1_555
Na5 O59 2.540112 1_555
Na5 O1 2.546621 1_555
Na5 O22 2.816578 1_555
Na5 O27 2.841576 1_555
Na5 O32 2.889068 1_555
Na6 O36 2.474317 1_555
Na6 O44 2.580291 1_455
Na6 O43 2.586680 1_565
Na6 O38 2.592091 1_565
Na6 O37 2.606827 1_455
Na6 O42 2.626979 1_465
Na7 O41 2.459262 1_555
Na7 O40 2.507027 1_655
Na7 O39 2.508510 1_665
Na7 O45 2.659782 1_556
Na7 O46 2.683331 1_566
Na7 O47 2.776132 1_666
Na8 O49 2.438760 1_555
Na8 O48 2.474640 1_555
Na8 O56 2.502382 1_555
Na8 O55 2.592682 1_555
Na8 O54 2.593211 1_555
Na8 O50 2.627375 1_555
Na9 O53 2.323180 1_555
Na9 O52 2.395620 1_555
Na9 O51 2.408226 1_555
Na9 O57 2.672194 1_555
Na9 O58 2.773009 1_555
Na9 O59 2.810591 1_555
Na10 O60 2.485139 1_555
Na10 O62 2.519720 1_555
Na10 O67 2.555759 1_555
Na10 O61 2.620376 1_555
Na10 O68 2.644332 1_555
Na10 O66 2.682240 1_555
Na11 O71 2.510906 1_555
Na11 O70 2.563858 1_555
Na11 O63 2.576351 1_555
Na11 O69 2.578709 1_555
Na11 O65 2.590146 1_555
Na11 O64 2.592885 1_555
Nb0 O3 1.934499 1_555
Nb0 O39 1.968150 1_555
Nb0 O5 1.978315 1_455
Nb0 O40 2.001153 1_545
Nb0 O41 2.019653 1_445
Nb0 O4 2.078861 1_445
Nb1 O6 1.926055 1_545
Nb1 O42 1.962104 1_555
Nb1 O7 1.965417 1_655
Nb1 O44 1.994884 1_545
Nb1 O8 2.071282 1_645
Nb1 O43 2.118393 1_655
Nb2 O45 1.968538 1_555
Nb2 O46 1.968706 1_565
Nb2 O9 1.988991 1_555
Nb2 O47 1.999519 1_665
Nb2 O10 2.039823 1_665
Nb2 O11 2.048719 1_655
Nb3 O19 1.979509 1_556
Nb3 O54 2.000231 1_555
Nb3 O55 2.002397 1_555
Nb3 O18 2.005663 1_556
Nb3 O20 2.008252 1_556
Nb3 O56 2.018382 1_555
Nb4 O23 1.916186 1_555
Nb4 O22 1.937011 1_555
Nb4 O21 1.997793 1_555
Nb4 O57 2.029920 1_555
Nb4 O59 2.035004 1_555
Nb4 O58 2.141070 1_555
Nb5 O24 1.921163 1_554
Nb5 O26 1.973308 1_554
Nb5 O25 1.980932 1_554
Nb5 O62 2.021822 1_555
Nb5 O60 2.024813 1_555
Nb5 O61 2.066435 1_555
Nb6 O29 1.973022 1_555
Nb6 O64 1.974396 1_555
Nb6 O65 1.980707 1_555
Nb6 O27 1.981826 1_555
Nb6 O63 2.031512 1_555
Nb6 O28 2.071030 1_555
Nb7 O31 1.922855 1_555
Nb7 O30 1.940142 1_555
Nb7 O66 1.998184 1_555
Nb7 O68 2.059229 1_555
Nb7 O67 2.065983 1_555
Nb7 O32 2.082975 1_555
Nb8 O34 1.912478 1_555
Nb8 O35 1.931408 1_555
Nb8 O33 1.958604 1_555
Nb8 O71 2.030335 1_555
Nb8 O69 2.084751 1_555
Nb8 O70 2.113979 1_555
Ga0 O0 1.933496 1_565
Ga0 O36 1.980651 1_555
Ga0 O2 1.993017 1_465
Ga0 O1 1.994804 1_455
Ga0 O37 2.038876 1_455
Ga0 O38 2.145571 1_565
Ga1 O14 1.943022 1_555
Ga1 O12 1.951260 1_555
Ga1 O13 1.968474 1_555
Ga1 O49 1.983564 1_555
Ga1 O48 2.002421 1_555
Ga1 O50 2.240603 1_555
Ga2 O17 1.890210 1_555
Ga2 O15 1.906687 1_555
Ga2 O16 1.914855 1_555
Ga2 O51 2.130064 1_555
Ga2 O53 2.144861 1_555
Ga2 O52 2.161905 1_555
O0 P0 1.528605 1_555
O1 P1 1.542150 1_555
O2 P2 1.544344 1_555
O3 Si0 1.645063 1_555
O4 P3 1.548097 1_655
O5 Si1 1.648464 1_555
O6 Si1 1.666761 1_565
O7 Si0 1.648874 1_555
O8 P3 1.549724 1_555
O9 P1 1.579615 1_555
O10 P2 1.575439 1_455
O11 P0 1.571979 1_565
O12 Si2 1.599305 1_555
O13 P4 1.516492 1_555
O14 Si3 1.604454 1_555
O15 Si4 1.601903 1_555
O16 Si5 1.599451 1_555
O17 Si6 1.587855 1_555
O18 Si6 1.645853 1_555
O19 Si4 1.640055 1_555
O20 Si5 1.642732 1_555
O21 P4 1.570286 1_555
O22 Si3 1.665751 1_555
O23 Si2 1.673820 1_555
O24 Si7 1.643989 1_555
O25 Si8 1.638676 1_555
O26 Si9 1.640260 1_555
O27 Si10 1.641054 1_555
O28 P5 1.560176 1_555
O29 Si11 1.634813 1_555
O30 Si11 1.655323 1_555
O31 Si10 1.650805 1_555
O32 P5 1.559460 1_555
O33 Si8 1.644215 1_555
O34 Si9 1.652923 1_555
O35 Si7 1.651879 1_555
O36 Si11 1.610291 1_555
O37 Si10 1.626317 1_555
O38 P5 1.529198 1_555
O39 Si8 1.634914 1_555
O40 Si9 1.623781 1_555
O41 Si7 1.616329 1_555
O42 Si2 1.653506 1_555
O43 P4 1.544199 1_555
O44 Si3 1.648573 1_555
O45 Si4 1.663959 1_555
O46 Si5 1.662170 1_555
O47 Si6 1.687239 1_555
O48 Si1 1.605035 1_555
O49 Si0 1.609350 1_555
O50 P3 1.535838 1_655
O51 P1 1.520714 1_555
O52 P2 1.523771 1_555
O53 P0 1.519682 1_555
O54 Si7 1.617045 1_555
O55 Si8 1.618869 1_655
O56 Si9 1.618734 1_545
O57 Si10 1.642602 1_545
O58 P5 1.555098 1_555
O59 Si11 1.671985 1_655
O60 Si6 1.647550 1_555
O61 Si4 1.658173 1_455
O62 Si5 1.642794 1_565
O63 P4 1.563758 1_565
O64 Si3 1.654053 1_555
O65 Si2 1.645365 1_455
O66 P0 1.604207 1_565
O67 P1 1.583233 1_555
O68 P2 1.588284 1_455
O69 Si0 1.665657 1_555
O70 P3 1.563124 1_555
O71 Si1 1.642668 1_565
