# generated using pymatgen
data_ZrSnP2SO12
_symmetry_space_group_name_H-M   'P 1'
_cell_length_a   8.83576841
_cell_length_b   8.86995100
_cell_length_c   23.01598403
_cell_angle_alpha   90.04864205
_cell_angle_beta   90.00278339
_cell_angle_gamma   119.91056796
_symmetry_Int_Tables_number   1
_chemical_formula_structural   ZrSnP2SO12
_chemical_formula_sum   'Zr6 Sn6 P12 S6 O72'
_cell_volume   1563.56584287
_cell_formula_units_Z   6
loop_
 _symmetry_equiv_pos_site_id
 _symmetry_equiv_pos_as_xyz
  1  'x, y, z'
loop_
 _atom_site_type_symbol
 _atom_site_label
 _atom_site_symmetry_multiplicity
 _atom_site_fract_x
 _atom_site_fract_y
 _atom_site_fract_z
 _atom_site_occupancy
  Zr  Zr0  1  0.99903264  0.00276272  0.35558884  1
  Zr  Zr1  1  0.99213565  0.00598897  0.64373552  1
  Zr  Zr2  1  0.01270242  0.00434097  0.14187512  1
  Zr  Zr3  1  0.66495330  0.33516204  0.68978897  1
  Zr  Zr4  1  0.67871515  0.33803139  0.47676396  1
  Zr  Zr5  1  0.32566755  0.67154726  0.30864445  1
  Sn  Sn0  1  0.00139318  0.99927171  0.85475197  1
  Sn  Sn1  1  0.66936587  0.33623523  0.18636873  1
  Sn  Sn2  1  0.65871386  0.33673071  0.97767328  1
  Sn  Sn3  1  0.33304913  0.66801930  0.01985438  1
  Sn  Sn4  1  0.33576457  0.66823431  0.52088730  1
  Sn  Sn5  1  0.34513256  0.67112856  0.81336125  1
  P  P0  1  0.29565967  0.01041129  0.24910972  1
  P  P1  1  0.99366985  0.28568876  0.24834505  1
  P  P2  1  0.28353270  0.29015565  0.75230580  1
  P  P3  1  0.71055379  0.99831210  0.75232807  1
  P  P4  1  0.96216069  0.34286335  0.58317182  1
  P  P5  1  0.66161220  0.62047057  0.58261726  1
  P  P6  1  0.95453881  0.61523257  0.08162698  1
  P  P7  1  0.38495648  0.34304156  0.08242173  1
  P  P8  1  0.62526946  0.66981128  0.91718131  1
  P  P9  1  0.33368206  0.95517956  0.91673545  1
  P  P10  1  0.61688119  0.95004513  0.41735279  1
  P  P11  1  0.05068629  0.67148674  0.41771769  1
  S  S0  1  0.71154583  0.70797904  0.24895912  1
  S  S1  1  0.00593377  0.71242397  0.75131202  1
  S  S2  1  0.37691657  0.04082084  0.58295187  1
  S  S3  1  0.66353868  0.04406546  0.08188263  1
  S  S4  1  0.04114012  0.37599528  0.91652035  1
  S  S5  1  0.33361509  0.37985988  0.41685490  1
  O  O0  1  0.20722472  0.03376912  0.30297457  1
  O  O1  1  0.81985456  0.78762408  0.30132899  1
  O  O2  1  0.96613537  0.17288404  0.30268732  1
  O  O3  1  0.20710883  0.17518534  0.80708463  1
  O  O4  1  0.96975527  0.78578968  0.80424160  1
  O  O5  1  0.82510184  0.03193421  0.80684003  1
  O  O6  1  0.79567797  0.96653646  0.69859067  1
  O  O7  1  0.17034076  0.20205554  0.69837628  1
  O  O8  1  0.03476843  0.82027158  0.69970253  1
  O  O9  1  0.78980176  0.81576760  0.19714173  1
  O  O10  1  0.02063916  0.19785684  0.19478692  1
  O  O11  1  0.17814387  0.97471155  0.19536428  1
  O  O12  1  0.87260627  0.36625732  0.63676684  1
  O  O13  1  0.48663142  0.12168883  0.63502772  1
  O  O14  1  0.63400255  0.50582951  0.63651488  1
  O  O15  1  0.87651252  0.50264684  0.13677392  1
  O  O16  1  0.62967078  0.11926026  0.13465836  1
  O  O17  1  0.49641311  0.37311153  0.13745150  1
  O  O18  1  0.45821956  0.29840104  0.02855998  1
  O  O19  1  0.83999000  0.53382440  0.02722754  1
  O  O20  1  0.69761837  0.15387476  0.02965069  1
  O  O21  1  0.45517760  0.14863629  0.53091653  1
  O  O22  1  0.68853595  0.53345306  0.52869976  1
  O  O23  1  0.84551003  0.30718357  0.52917461  1
  O  O24  1  0.54308583  0.70223290  0.97179622  1
  O  O25  1  0.15144641  0.45197019  0.96907207  1
  O  O26  1  0.29781841  0.84005335  0.97137570  1
  O  O27  1  0.54134480  0.83843665  0.47250451  1
  O  O28  1  0.29936267  0.45335162  0.46989687  1
  O  O29  1  0.16153318  0.70199301  0.47258483  1
  O  O30  1  0.13266351  0.63695434  0.36402967  1
  O  O31  1  0.50396982  0.86284610  0.36356671  1
  O  O32  1  0.36256465  0.48744773  0.36519338  1
  O  O33  1  0.11721903  0.48576157  0.86427014  1
  O  O34  1  0.36468048  0.87275513  0.86192323  1
  O  O35  1  0.50771312  0.62907044  0.86307357  1
  O  O36  1  0.02955152  0.83033353  0.40742751  1
  O  O37  1  0.79931485  0.97242228  0.40782891  1
  O  O38  1  0.17809666  0.20601568  0.40966190  1
  O  O39  1  0.02454578  0.20276909  0.90965152  1
  O  O40  1  0.17132871  0.97564015  0.90839177  1
  O  O41  1  0.80594051  0.83279588  0.90816502  1
  O  O42  1  0.98126896  0.18024668  0.59110062  1
  O  O43  1  0.20286871  0.02038355  0.59186899  1
  O  O44  1  0.82538280  0.79925203  0.59273354  1
  O  O45  1  0.96998371  0.79410318  0.09189049  1
  O  O46  1  0.81710474  0.02395373  0.09050154  1
  O  O47  1  0.20304555  0.18127849  0.09124726  1
  O  O48  1  0.69205263  0.15914991  0.74125424  1
  O  O49  1  0.46566421  0.31127351  0.74192996  1
  O  O50  1  0.85022697  0.53869385  0.74366463  1
  O  O51  1  0.69453738  0.53372919  0.24285628  1
  O  O52  1  0.83221703  0.30748009  0.24076831  1
  O  O53  1  0.47647210  0.17098794  0.24004643  1
  O  O54  1  0.64551123  0.50776617  0.92412390  1
  O  O55  1  0.86617547  0.35650693  0.92474189  1
  O  O56  1  0.49969584  0.13487553  0.92551046  1
  O  O57  1  0.63313346  0.12920502  0.42643060  1
  O  O58  1  0.48687682  0.35863421  0.42511716  1
  O  O59  1  0.86888674  0.50938508  0.42495705  1
  O  O60  1  0.36366449  0.50325199  0.07338614  1
  O  O61  1  0.13824661  0.63791151  0.07348349  1
  O  O62  1  0.50667635  0.87021777  0.07516613  1
  O  O63  1  0.36045325  0.86724786  0.57675499  1
  O  O64  1  0.49988994  0.64118533  0.57501760  1
  O  O65  1  0.14270434  0.50318095  0.57428453  1
  O  O66  1  0.31484849  0.84791173  0.25697027  1
  O  O67  1  0.53698554  0.68671841  0.25774105  1
  O  O68  1  0.15734723  0.46464089  0.25838149  1
  O  O69  1  0.29843869  0.47003638  0.76058594  1
  O  O70  1  0.16104070  0.69238789  0.75968292  1
  O  O71  1  0.52846028  0.83570490  0.75815834  1
loop_
_geom_bond_atom_site_label_1
_geom_bond_atom_site_label_2
_geom_bond_distance
_geom_bond_site_symmetry_2
O0 P0 1.533491 1_555
O0 Zr0 2.102906 1_455
O1 S0 1.480527 1_555
O1 Zr0 2.165723 1_565
O2 P1 1.544044 1_555
O2 Zr0 2.069901 1_555
O3 P2 1.549526 1_555
O3 Sn0 2.028991 1_545
O4 S1 1.488586 1_655
O4 Sn0 2.117453 1_655
O5 P3 1.544565 1_545
O5 Sn0 2.043707 1_645
O6 P3 1.544599 1_555
O6 Zr1 2.030967 1_565
O7 P2 1.539612 1_555
O7 Zr1 2.085786 1_455
O8 S1 1.466243 1_555
O8 Zr1 2.266541 1_465
O9 S0 1.468767 1_555
O9 Zr2 2.239011 1_665
O10 P1 1.538441 1_455
O10 Zr2 2.076219 1_555
O11 P0 1.542695 1_565
O11 Zr2 2.026097 1_565
O12 P4 1.534347 1_555
O12 Zr3 2.104243 1_555
O13 S2 1.481829 1_555
O13 Zr3 2.162604 1_555
O14 P5 1.545041 1_555
O14 Zr3 2.070232 1_555
O15 P6 1.548938 1_555
O15 Sn1 2.034811 1_555
O16 S3 1.485791 1_555
O16 Sn1 2.136893 1_555
O17 P7 1.543540 1_555
O17 Sn1 2.051549 1_555
O18 P7 1.538670 1_555
O18 Sn2 2.006445 1_554
O19 P6 1.543674 1_555
O19 Sn2 2.031364 1_554
O20 S3 1.481247 1_555
O20 Sn2 2.176981 1_554
O21 S2 1.472952 1_555
O21 Zr4 2.229670 1_555
O22 P5 1.540728 1_555
O22 Zr4 2.070622 1_555
O23 P4 1.543030 1_555
O23 Zr4 2.025957 1_555
O24 P8 1.548492 1_555
O24 Sn3 2.049095 1_556
O25 S4 1.486773 1_555
O25 Sn3 2.131335 1_556
O26 P9 1.550565 1_555
O26 Sn3 2.036402 1_556
O27 P10 1.542744 1_555
O27 Sn4 2.021612 1_555
O28 S5 1.484031 1_555
O28 Sn4 2.120941 1_555
O29 P11 1.536942 1_555
O29 Sn4 2.038552 1_555
O30 P11 1.538212 1_555
O30 Zr5 2.026409 1_555
O31 P10 1.534518 1_555
O31 Zr5 2.071055 1_555
O32 S5 1.465759 1_555
O32 Zr5 2.236358 1_555
O33 S4 1.481684 1_555
O33 Sn5 2.198419 1_555
O34 P9 1.548943 1_555
O34 Sn5 2.041091 1_555
O35 P8 1.544389 1_555
O35 Sn5 2.011698 1_555
O36 P11 1.529414 1_555
O36 Zr0 2.061505 1_465
O37 P10 1.538450 1_555
O37 Zr0 2.039424 1_565
O38 S5 1.476397 1_555
O38 Zr0 2.110380 1_455
O39 S4 1.477246 1_555
O39 Sn0 2.127056 1_545
O40 P9 1.545097 1_555
O40 Sn0 2.033908 1_555
O41 P8 1.542845 1_555
O41 Sn0 2.033292 1_655
O42 P4 1.544554 1_555
O42 Zr1 2.004257 1_555
O43 S2 1.470383 1_555
O43 Zr1 2.161422 1_455
O44 P5 1.540681 1_555
O44 Zr1 2.052587 1_565
O45 P6 1.541127 1_555
O45 Zr2 2.058596 1_665
O46 S3 1.467554 1_555
O46 Zr2 2.171457 1_655
O47 P7 1.544026 1_555
O47 Zr2 2.005089 1_555
O48 P3 1.536273 1_545
O48 Zr3 2.067307 1_555
O49 P2 1.543166 1_555
O49 Zr3 2.052873 1_555
O50 S1 1.477694 1_655
O50 Zr3 2.127272 1_555
O51 S0 1.482949 1_555
O51 Sn1 2.101425 1_555
O52 P1 1.542034 1_555
O52 Sn1 2.017316 1_555
O53 P0 1.534842 1_555
O53 Sn1 2.022734 1_555
O54 P8 1.542792 1_555
O54 Sn2 2.003452 1_555
O55 S4 1.479599 1_655
O55 Sn2 2.134254 1_555
O56 P9 1.549418 1_545
O56 Sn2 2.026961 1_555
O57 P10 1.536713 1_545
O57 Zr4 2.046345 1_555
O58 S5 1.469600 1_555
O58 Zr4 2.151433 1_555
O59 P11 1.540287 1_655
O59 Zr4 2.002899 1_555
O60 P7 1.537911 1_555
O60 Sn3 2.030869 1_555
O61 P6 1.544288 1_455
O61 Sn3 2.024811 1_555
O62 S3 1.480147 1_565
O62 Sn3 2.107785 1_555
O63 S2 1.479221 1_565
O63 Sn4 2.104556 1_555
O64 P5 1.538862 1_555
O64 Sn4 2.014959 1_555
O65 P4 1.531979 1_455
O65 Sn4 2.018979 1_555
O66 P0 1.543750 1_565
O66 Zr5 2.005769 1_555
O67 S0 1.471515 1_555
O67 Zr5 2.151026 1_555
O68 P1 1.540906 1_455
O68 Zr5 2.047555 1_555
O69 P2 1.545736 1_555
O69 Sn5 2.022257 1_555
O70 S1 1.479824 1_555
O70 Sn5 2.124575 1_555
O71 P3 1.540452 1_555
O71 Sn5 2.003566 1_555
