# generated using pymatgen
data_MgFe2S2(O4F)2
_symmetry_space_group_name_H-M   'P 1'
_cell_length_a   5.43255704
_cell_length_b   5.43448225
_cell_length_c   7.72976369
_cell_angle_alpha   68.54836201
_cell_angle_beta   72.66019112
_cell_angle_gamma   91.96954964
_symmetry_Int_Tables_number   1
_chemical_formula_structural   MgFe2S2(O4F)2
_chemical_formula_sum   'Mg1 Fe2 S2 O8 F2'
_cell_volume   200.08834852
_cell_formula_units_Z   1
loop_
 _symmetry_equiv_pos_site_id
 _symmetry_equiv_pos_as_xyz
  1  'x, y, z'
loop_
 _atom_site_type_symbol
 _atom_site_label
 _atom_site_symmetry_multiplicity
 _atom_site_fract_x
 _atom_site_fract_y
 _atom_site_fract_z
 _atom_site_occupancy
  Mg  Mg0  1  0.67527900  0.42275600  0.86434800  1
  Fe  Fe0  1  0.05593900  0.46472700  0.46805100  1
  Fe  Fe1  1  0.99133400  0.97737800  0.01846300  1
  S  S0  1  0.57500800  0.91696900  0.76213100  1
  S  S1  1  0.40316100  0.08449700  0.24457900  1
  O  O0  1  0.66844100  0.77366100  0.62981000  1
  O  O1  1  0.29800500  0.20682500  0.38544600  1
  O  O2  1  0.67399400  0.21165900  0.66611400  1
  O  O3  1  0.35438800  0.79274000  0.33750000  1
  O  O4  1  0.28709500  0.87262000  0.83447700  1
  O  O5  1  0.69591600  0.18047000  0.14250300  1
  O  O6  1  0.68024500  0.78784900  0.93010300  1
  O  O7  1  0.30198000  0.19336100  0.07064200  1
  F  F0  1  0.91190500  0.64210200  0.25945800  1
  F  F1  1  0.03981000  0.37238600  0.76137600  1
loop_
_geom_bond_atom_site_label_1
_geom_bond_atom_site_label_2
_geom_bond_distance
_geom_bond_site_symmetry_2
Mg0 O0 2.107359 1_555
Mg0 O5 2.110030 1_556
Mg0 O7 2.157348 1_556
Mg0 O6 2.222115 1_555
Mg0 O2 2.226130 1_555
Fe0 O3 2.082071 1_555
Fe0 O1 2.093362 1_555
Fe0 O2 2.216063 1_455
Fe1 O4 2.054578 1_654
Fe1 O5 2.166018 1_565
Fe1 O7 2.237011 1_665
Fe1 O6 2.338043 1_554
O0 S0 1.486831 1_555
O1 S1 1.462433 1_555
O2 S0 1.496095 1_545
O3 S1 1.457658 1_565
O4 S0 1.473556 1_555
O5 S1 1.522487 1_555
O6 S0 1.519434 1_555
O7 S1 1.529994 1_555
F0 Fe0 1.951477 1_655
F0 Fe1 1.990083 1_555
F1 Mg0 1.971613 1_455
F1 Fe0 2.108705 1_555
F1 Fe1 2.270584 1_446
