# generated using pymatgen
data_Hg2BrN
_symmetry_space_group_name_H-M   'P 1'
_cell_length_a   6.78455030
_cell_length_b   6.78455030
_cell_length_c   11.50090400
_cell_angle_alpha   90.00000000
_cell_angle_beta   90.00000000
_cell_angle_gamma   120.00000293
_symmetry_Int_Tables_number   1
_chemical_formula_structural   Hg2BrN
_chemical_formula_sum   'Hg8 Br4 N4'
_cell_volume   458.46346300
_cell_formula_units_Z   4
loop_
 _symmetry_equiv_pos_site_id
 _symmetry_equiv_pos_as_xyz
  1  'x, y, z'
loop_
 _atom_site_type_symbol
 _atom_site_label
 _atom_site_symmetry_multiplicity
 _atom_site_fract_x
 _atom_site_fract_y
 _atom_site_fract_z
 _atom_site_occupancy
  Hg  Hg0  1  0.50000000  0.00000000  0.50000000  1
  Hg  Hg1  1  0.50000000  0.50000000  0.00000000  1
  Hg  Hg2  1  0.00000000  0.50000000  0.00000000  1
  Hg  Hg3  1  0.00000000  0.50000000  0.50000000  1
  Hg  Hg4  1  0.50000000  0.50000000  0.50000000  1
  Hg  Hg5  1  0.50000000  0.00000000  0.00000000  1
  Hg  Hg6  1  0.66666700  0.33333300  0.75000000  1
  Hg  Hg7  1  0.33333300  0.66666700  0.25000000  1
  Br  Br0  1  0.00000000  0.00000000  0.50000000  1
  Br  Br1  1  0.33333300  0.66666700  0.75000000  1
  Br  Br2  1  0.00000000  0.00000000  0.00000000  1
  Br  Br3  1  0.66666700  0.33333300  0.25000000  1
  N  N0  1  0.33333300  0.66666700  0.06911400  1
  N  N1  1  0.66666700  0.33333300  0.93088600  1
  N  N2  1  0.33333300  0.66666700  0.43088600  1
  N  N3  1  0.66666700  0.33333300  0.56911400  1
loop_
_geom_bond_atom_site_label_1
_geom_bond_atom_site_label_2
_geom_bond_distance
_geom_bond_site_symmetry_2
Hg0 N3 2.113684 1_555
Hg0 N2 2.113684 1_545
Hg1 N0 2.113689 1_555
Hg1 N1 2.113689 1_554
Hg2 N1 2.113684 1_454
Hg2 N0 2.113684 1_555
Hg3 N2 2.113684 1_555
Hg3 N3 2.113684 1_455
Hg4 N3 2.113689 1_555
Hg4 N2 2.113689 1_555
Hg5 N0 2.113684 1_545
Hg5 N1 2.113684 1_554
Hg6 N1 2.080353 1_555
Hg6 N3 2.080353 1_555
Hg7 N0 2.080353 1_555
Hg7 N2 2.080353 1_555
