# generated using pymatgen
data_MgCr2(GeO3)4
_symmetry_space_group_name_H-M   'P 1'
_cell_length_a   5.51315996
_cell_length_b   6.80884317
_cell_length_c   6.81245141
_cell_angle_alpha   80.75129018
_cell_angle_beta   73.22294759
_cell_angle_gamma   73.22531868
_symmetry_Int_Tables_number   1
_chemical_formula_structural   MgCr2(GeO3)4
_chemical_formula_sum   'Mg1 Cr2 Ge4 O12'
_cell_volume   233.58629498
_cell_formula_units_Z   1
loop_
 _symmetry_equiv_pos_site_id
 _symmetry_equiv_pos_as_xyz
  1  'x, y, z'
loop_
 _atom_site_type_symbol
 _atom_site_label
 _atom_site_symmetry_multiplicity
 _atom_site_fract_x
 _atom_site_fract_y
 _atom_site_fract_z
 _atom_site_occupancy
  Mg  Mg0  1  0.75046332  0.27415372  0.72572056  1
  Cr  Cr0  1  0.75055179  0.90681989  0.09263661  1
  Cr  Cr1  1  0.25056297  0.08477558  0.91480760  1
  Ge  Ge0  1  0.73610558  0.38930859  0.20114879  1
  Ge  Ge1  1  0.76530475  0.79845401  0.60999954  1
  Ge  Ge2  1  0.24551123  0.61463484  0.81191562  1
  Ge  Ge3  1  0.25553974  0.18808166  0.38483257  1
  O  O0  1  0.41136016  0.39070585  0.33356608  1
  O  O1  1  0.08951330  0.66534589  0.60949571  1
  O  O2  1  0.59102429  0.60320729  0.68320960  1
  O  O3  1  0.91008355  0.31643736  0.39650451  1
  O  O4  1  0.15931512  0.11504957  0.64885011  1
  O  O5  1  0.34192793  0.35066872  0.88535008  1
  O  O6  1  0.72651370  0.93617906  0.37971792  1
  O  O7  1  0.77568248  0.61944390  0.06296689  1
  O  O8  1  0.85151764  0.19679678  0.01752140  1
  O  O9  1  0.64994172  0.98201040  0.80258676  1
  O  O10  1  0.14435514  0.81528416  0.97699052  1
  O  O11  1  0.35663060  0.02264375  0.18440313  1
loop_
_geom_bond_atom_site_label_1
_geom_bond_atom_site_label_2
_geom_bond_distance
_geom_bond_site_symmetry_2
Mg0 O5 2.148899 1_555
Mg0 O4 2.149430 1_655
Mg0 O9 2.161491 1_545
Mg0 O8 2.161688 1_556
Mg0 O2 2.162840 1_555
Mg0 O3 2.164860 1_555
Cr0 O6 1.960394 1_555
Cr0 O7 1.960407 1_555
Cr0 O10 2.027839 1_654
Cr0 O11 2.028630 1_565
Cr0 O8 2.148294 1_565
Cr0 O9 2.148905 1_554
Cr1 O5 1.980625 1_555
Cr1 O4 1.981046 1_555
Cr1 O10 2.028887 1_545
Cr1 O11 2.030150 1_556
Cr1 O8 2.055644 1_456
Cr1 O9 2.057435 1_545
Ge0 O7 1.730243 1_555
Ge0 O0 1.754947 1_555
Ge0 O3 1.785306 1_555
Ge0 O8 1.809432 1_555
Ge1 O6 1.729518 1_555
Ge1 O1 1.754609 1_655
Ge1 O2 1.785160 1_555
Ge1 O9 1.809525 1_555
Ge2 O5 1.753900 1_555
Ge2 O1 1.766541 1_555
Ge2 O10 1.770352 1_555
Ge2 O2 1.837265 1_555
Ge3 O4 1.754318 1_555
Ge3 O0 1.766179 1_555
Ge3 O11 1.771030 1_555
Ge3 O3 1.836188 1_455
