# generated using pymatgen
data_Na6La2Ta6Si9(SO16)3
_symmetry_space_group_name_H-M   'P 1'
_cell_length_a   18.14477975
_cell_length_b   9.12637827
_cell_length_c   23.00911645
_cell_angle_alpha   90.11561002
_cell_angle_beta   89.73293898
_cell_angle_gamma   120.11870528
_symmetry_Int_Tables_number   1
_chemical_formula_structural   Na6La2Ta6Si9(SO16)3
_chemical_formula_sum   'Na18 La6 Ta18 Si27 S9 O144'
_cell_volume   3295.75762946
_cell_formula_units_Z   3
loop_
 _symmetry_equiv_pos_site_id
 _symmetry_equiv_pos_as_xyz
  1  'x, y, z'
loop_
 _atom_site_type_symbol
 _atom_site_label
 _atom_site_symmetry_multiplicity
 _atom_site_fract_x
 _atom_site_fract_y
 _atom_site_fract_z
 _atom_site_occupancy
  Na  Na0  1  0.32747466  0.02278376  0.25772636  1
  Na  Na1  1  0.68744154  0.37473641  0.24372157  1
  Na  Na2  1  0.48854462  0.61937164  0.24897962  1
  Na  Na3  1  0.82605527  0.63265930  0.75513563  1
  Na  Na4  1  0.98944889  0.35683919  0.74595970  1
  Na  Na5  1  0.18802190  0.00346218  0.73983268  1
  Na  Na6  1  0.00490537  0.01467952  0.50140029  1
  Na  Na7  1  0.51083190  0.99603374  0.50224333  1
  Na  Na8  1  0.01080593  0.02796790  0.00130268  1
  Na  Na9  1  0.50492424  0.99482448  0.99966012  1
  Na  Na10  1  0.34535476  0.32689534  0.83348475  1
  Na  Na11  1  0.82682438  0.31536874  0.82333707  1
  Na  Na12  1  0.32590706  0.34219851  0.33150325  1
  Na  Na13  1  0.84461967  0.36370489  0.33856482  1
  Na  Na14  1  0.16886791  0.64093597  0.16656023  1
  Na  Na15  1  0.67403459  0.67422761  0.16397441  1
  Na  Na16  1  0.17749484  0.67411435  0.66129277  1
  Na  Na17  1  0.65293264  0.67272256  0.65853174  1
  La  La0  1  0.50034769  0.00165692  0.36350450  1
  La  La1  1  0.00025693  0.00069323  0.86265598  1
  La  La2  1  0.34302109  0.33867409  0.67577170  1
  La  La3  1  0.82165184  0.31305345  0.67697261  1
  La  La4  1  0.32148100  0.33079666  0.17820301  1
  La  La5  1  0.83938107  0.34401194  0.17774632  1
  Ta  Ta0  1  0.00223017  0.98644924  0.36111203  1
  Ta  Ta1  1  0.50181298  0.01644434  0.85940756  1
  Ta  Ta2  1  0.99787059  0.99290512  0.64403338  1
  Ta  Ta3  1  0.49831088  0.01947551  0.63997331  1
  Ta  Ta4  1  0.00054182  0.99443115  0.14548664  1
  Ta  Ta5  1  0.49829473  0.00224495  0.14401374  1
  Ta  Ta6  1  0.33173982  0.35214814  0.97685053  1
  Ta  Ta7  1  0.82517489  0.30441962  0.97898862  1
  Ta  Ta8  1  0.33268125  0.34592017  0.48455526  1
  Ta  Ta9  1  0.83209079  0.31100300  0.47764205  1
  Ta  Ta10  1  0.17255634  0.66477393  0.01211238  1
  Ta  Ta11  1  0.65707401  0.66057346  0.02135813  1
  Ta  Ta12  1  0.15711548  0.65090841  0.52127696  1
  Ta  Ta13  1  0.66696127  0.67114143  0.51356147  1
  Ta  Ta14  1  0.16314720  0.65760596  0.31260355  1
  Ta  Ta15  1  0.66808693  0.65309346  0.31787049  1
  Ta  Ta16  1  0.16791032  0.68228567  0.81667092  1
  Ta  Ta17  1  0.66034835  0.66441603  0.81005218  1
  Si  Si0  1  0.13810456  0.98081321  0.25282131  1
  Si  Si1  1  0.34988205  0.71216741  0.24975315  1
  Si  Si2  1  0.85571185  0.72065995  0.25375403  1
  Si  Si3  1  0.50493084  0.30140810  0.24782167  1
  Si  Si4  1  0.63767381  0.29022447  0.75143052  1
  Si  Si5  1  0.00439749  0.70897460  0.74867464  1
  Si  Si6  1  0.35626334  0.99270854  0.75298691  1
  Si  Si7  1  0.84951717  0.98781564  0.75034829  1
  Si  Si8  1  0.48963054  0.34725397  0.57882482  1
  Si  Si9  1  0.97941545  0.32373892  0.58552486  1
  Si  Si10  1  0.18233113  0.02885385  0.58383998  1
  Si  Si11  1  0.67968590  0.02562479  0.58112439  1
  Si  Si12  1  0.33268445  0.63832814  0.58283316  1
  Si  Si13  1  0.47866866  0.63361457  0.08541425  1
  Si  Si14  1  0.83341968  0.02729887  0.08143303  1
  Si  Si15  1  0.17934407  0.33714420  0.08106259  1
  Si  Si16  1  0.68226607  0.33483519  0.08397782  1
  Si  Si17  1  0.31323595  0.66743562  0.91264669  1
  Si  Si18  1  0.01610509  0.39043289  0.91651008  1
  Si  Si19  1  0.51979352  0.38344970  0.91754485  1
  Si  Si20  1  0.17560762  0.96881413  0.92335405  1
  Si  Si21  1  0.66429352  0.94700798  0.91445011  1
  Si  Si22  1  0.81226843  0.95468014  0.41520835  1
  Si  Si23  1  0.16926579  0.37911054  0.41521318  1
  Si  Si24  1  0.67780542  0.38303511  0.42230649  1
  Si  Si25  1  0.01956320  0.65402025  0.41770802  1
  Si  Si26  1  0.51414033  0.64056064  0.41573117  1
  S  S0  1  0.64337821  0.98656618  0.24580766  1
  S  S1  1  0.00719520  0.28285953  0.25362047  1
  S  S2  1  0.14440959  0.30220810  0.74665721  1
  S  S3  1  0.50438692  0.72666774  0.75542124  1
  S  S4  1  0.83448802  0.64466803  0.58185141  1
  S  S5  1  0.99214137  0.64816646  0.07870362  1
  S  S6  1  0.33338714  0.02284371  0.08216789  1
  S  S7  1  0.79849919  0.63992183  0.91887535  1
  S  S8  1  0.29700083  0.95363508  0.41802263  1
  O  O0  1  0.08897231  0.00391398  0.30858182  1
  O  O1  1  0.60801469  0.00963303  0.29989568  1
  O  O2  1  0.40788131  0.79860242  0.30546306  1
  O  O3  1  0.91414970  0.82880657  0.30899791  1
  O  O4  1  0.49477327  0.19015147  0.30402431  1
  O  O5  1  0.00232173  0.18647795  0.30528819  1
  O  O6  1  0.10808297  0.20788542  0.80071169  1
  O  O7  1  0.58952188  0.17269983  0.80878654  1
  O  O8  1  0.50386051  0.81732677  0.80811382  1
  O  O9  1  0.99435509  0.79784575  0.80548475  1
  O  O10  1  0.41401180  0.99841716  0.80904260  1
  O  O11  1  0.90594167  0.01693129  0.80685304  1
  O  O12  1  0.40545646  0.98411353  0.69385208  1
  O  O13  1  0.90376866  0.96702395  0.69351359  1
  O  O14  1  0.08989172  0.20612713  0.69533302  1
  O  O15  1  0.58415919  0.19016912  0.69321971  1
  O  O16  1  0.01534631  0.83444273  0.69148123  1
  O  O17  1  0.51218449  0.81741831  0.70127534  1
  O  O18  1  0.40393594  0.84035041  0.19239405  1
  O  O19  1  0.90652907  0.83042642  0.19402406  1
  O  O20  1  0.01340816  0.20114839  0.19843991  1
  O  O21  1  0.51549593  0.19671993  0.19007164  1
  O  O22  1  0.08400699  0.97814238  0.19378548  1
  O  O23  1  0.58979837  0.97556768  0.19442224  1
  O  O24  1  0.46829084  0.39924028  0.64048036  1
  O  O25  1  0.95584345  0.36984512  0.64748749  1
  O  O26  1  0.22907150  0.08117191  0.64604546  1
  O  O27  1  0.72872113  0.06209337  0.64142546  1
  O  O28  1  0.30544709  0.52389871  0.64000804  1
  O  O29  1  0.82016816  0.56660665  0.63960268  1
  O  O30  1  0.45526523  0.54179413  0.14722628  1
  O  O31  1  0.96774602  0.56087397  0.13496905  1
  O  O32  1  0.31827850  0.07105870  0.13966425  1
  O  O33  1  0.81120415  0.09699010  0.13875133  1
  O  O34  1  0.22825381  0.39876806  0.14154373  1
  O  O35  1  0.72933743  0.37439471  0.14637100  1
  O  O36  1  0.23559176  0.31178668  0.02823596  1
  O  O37  1  0.74365302  0.31432233  0.03299549  1
  O  O38  1  0.41201084  0.51919152  0.03255079  1
  O  O39  1  0.93239046  0.55332097  0.03198679  1
  O  O40  1  0.34236042  0.13981466  0.03547933  1
  O  O41  1  0.84877798  0.16439596  0.02685435  1
  O  O42  1  0.23977537  0.17049256  0.53250615  1
  O  O43  1  0.73714612  0.16741726  0.52902050  1
  O  O44  1  0.34878473  0.53508228  0.52805014  1
  O  O45  1  0.84465134  0.54539049  0.53541211  1
  O  O46  1  0.41853003  0.31783643  0.52846835  1
  O  O47  1  0.91304428  0.30515800  0.53252846  1
  O  O48  1  0.26727480  0.68020296  0.97206483  1
  O  O49  1  0.74959970  0.65074028  0.96736335  1
  O  O50  1  0.08173168  0.51334357  0.96692355  1
  O  O51  1  0.57832949  0.47150401  0.97361414  1
  O  O52  1  0.18100688  0.85918458  0.97630283  1
  O  O53  1  0.65583308  0.82992978  0.96939218  1
  O  O54  1  0.24784993  0.84512692  0.46605835  1
  O  O55  1  0.76861934  0.84997433  0.47318808  1
  O  O56  1  0.15601485  0.48030794  0.46850315  1
  O  O57  1  0.68396739  0.50801437  0.47287921  1
  O  O58  1  0.07804698  0.68340400  0.47345853  1
  O  O59  1  0.58017521  0.65011779  0.46566438  1
  O  O60  1  0.06910906  0.63355661  0.36018245  1
  O  O61  1  0.56521569  0.63585214  0.35410263  1
  O  O62  1  0.25400090  0.86872238  0.36034849  1
  O  O63  1  0.74885093  0.85672349  0.35949144  1
  O  O64  1  0.18164543  0.49898670  0.35685167  1
  O  O65  1  0.68119092  0.48826036  0.35926349  1
  O  O66  1  0.06439165  0.49427638  0.85523166  1
  O  O67  1  0.56877606  0.50370248  0.86081779  1
  O  O68  1  0.17997008  0.86853206  0.86187907  1
  O  O69  1  0.68154852  0.86137947  0.85698361  1
  O  O70  1  0.24829472  0.63768298  0.85922250  1
  O  O71  1  0.75591547  0.63250729  0.86184856  1
  O  O72  1  0.00798411  0.82229775  0.41013589  1
  O  O73  1  0.50471386  0.80464601  0.42422169  1
  O  O74  1  0.38213438  0.97515108  0.42064390  1
  O  O75  1  0.90886429  0.98701232  0.40738180  1
  O  O76  1  0.08446759  0.18937064  0.40678317  1
  O  O77  1  0.59385708  0.20252347  0.42796890  1
  O  O78  1  0.00390361  0.20609313  0.92591340  1
  O  O79  1  0.50806354  0.19242216  0.90997580  1
  O  O80  1  0.09210792  0.98289291  0.92915645  1
  O  O81  1  0.58357637  0.97837460  0.90850753  1
  O  O82  1  0.40837416  0.83118616  0.90845661  1
  O  O83  1  0.88430660  0.78751538  0.92209036  1
  O  O84  1  0.48769439  0.16372748  0.58565745  1
  O  O85  1  0.98620734  0.15081201  0.59069861  1
  O  O86  1  0.08872918  0.02023623  0.58953959  1
  O  O87  1  0.58954895  0.02395105  0.59014866  1
  O  O88  1  0.42046466  0.81980298  0.59303105  1
  O  O89  1  0.91789301  0.81372685  0.58389481  1
  O  O90  1  0.48649084  0.82143490  0.08974178  1
  O  O91  1  0.99319109  0.81540953  0.08492266  1
  O  O92  1  0.41588313  0.01769365  0.08343572  1
  O  O93  1  0.92117263  0.01855619  0.09221901  1
  O  O94  1  0.08895726  0.15665083  0.09105130  1
  O  O95  1  0.58964243  0.15625399  0.08809448  1
  O  O96  1  0.33842904  0.14997494  0.75541812  1
  O  O97  1  0.83674836  0.14940404  0.74594140  1
  O  O98  1  0.23064947  0.32737347  0.74190618  1
  O  O99  1  0.73660194  0.34012011  0.75221530  1
  O  O100  1  0.42981869  0.55404690  0.75744764  1
  O  O101  1  0.92284770  0.52112489  0.74441641  1
  O  O102  1  0.33657400  0.52471104  0.24572838  1
  O  O103  1  0.84011971  0.52858914  0.25387132  1
  O  O104  1  0.42271095  0.32377812  0.24336925  1
  O  O105  1  0.93273836  0.30745712  0.25195058  1
  O  O106  1  0.23626321  0.13090889  0.25186910  1
  O  O107  1  0.73020812  0.13494008  0.24070358  1
  O  O108  1  0.32117889  0.49646664  0.92164429  1
  O  O109  1  0.80353105  0.48151009  0.92299012  1
  O  O110  1  0.42713849  0.36640195  0.92808919  1
  O  O111  1  0.92332463  0.38312294  0.92684313  1
  O  O112  1  0.26283778  0.15545179  0.92648534  1
  O  O113  1  0.75005257  0.13794493  0.92599824  1
  O  O114  1  0.30023931  0.11821545  0.41926816  1
  O  O115  1  0.82091807  0.14347747  0.42279776  1
  O  O116  1  0.25255760  0.35876948  0.42615702  1
  O  O117  1  0.76428998  0.36861887  0.42465706  1
  O  O118  1  0.42160095  0.46527000  0.42226364  1
  O  O119  1  0.92732266  0.48593396  0.42682219  1
  O  O120  1  0.15732213  0.48653624  0.06549094  1
  O  O121  1  0.66724029  0.49296353  0.06956536  1
  O  O122  1  0.08073981  0.68866710  0.06790447  1
  O  O123  1  0.57487087  0.66840052  0.06988199  1
  O  O124  1  0.26302837  0.84546288  0.07304030  1
  O  O125  1  0.75600881  0.84007311  0.06385212  1
  O  O126  1  0.16614168  0.83947472  0.56859673  1
  O  O127  1  0.66155384  0.83834525  0.56289471  1
  O  O128  1  0.25609476  0.67387323  0.56351062  1
  O  O129  1  0.76541483  0.68208816  0.57241059  1
  O  O130  1  0.07547744  0.47988069  0.57006643  1
  O  O131  1  0.58839493  0.49135056  0.56612735  1
  O  O132  1  0.13920107  0.80074046  0.25873112  1
  O  O133  1  0.64444146  0.82357088  0.24672300  1
  O  O134  1  0.25825848  0.71505240  0.25527403  1
  O  O135  1  0.76022039  0.70313533  0.25809962  1
  O  O136  1  0.08696192  0.45486366  0.25472181  1
  O  O137  1  0.59559227  0.48911400  0.25288088  1
  O  O138  1  0.14436918  0.46680009  0.74830286  1
  O  O139  1  0.63985327  0.47382760  0.75991585  1
  O  O140  1  0.09564596  0.70340720  0.75389136  1
  O  O141  1  0.58444087  0.70877128  0.75755722  1
  O  O142  1  0.26060997  0.81756400  0.75977740  1
  O  O143  1  0.75814684  0.80116412  0.75684374  1
loop_
_geom_bond_atom_site_label_1
_geom_bond_atom_site_label_2
_geom_bond_distance
_geom_bond_site_symmetry_2
Na0 O106 2.317888 1_555
Na0 O104 2.423965 1_555
Na0 O134 2.434788 1_545
Na0 O62 2.726275 1_545
Na0 O32 2.772036 1_555
Na0 O4 2.837779 1_555
Na1 O35 2.362574 1_555
Na1 O137 2.377666 1_555
Na1 O103 2.408657 1_555
Na1 O135 2.619910 1_555
Na1 O107 2.664507 1_555
Na1 O65 2.873675 1_555
Na1 O21 2.972887 1_555
Na2 O104 2.342463 1_555
Na2 O30 2.434092 1_555
Na2 O102 2.442644 1_555
Na2 O133 2.487136 1_555
Na2 O137 2.741054 1_555
Na2 O61 2.761964 1_555
Na3 O99 2.327723 1_555
Na3 O143 2.405362 1_555
Na3 O101 2.443472 1_555
Na3 O29 2.715323 1_555
Na3 O71 2.760009 1_555
Na3 O9 2.888943 1_555
Na3 O139 2.934342 1_555
Na3 O13 2.998506 1_555
Na4 O101 2.351308 1_555
Na4 O25 2.367734 1_555
Na4 O97 2.448813 1_555
Na4 O138 2.466134 1_655
Na4 O140 2.763105 1_655
Na4 O66 2.837472 1_655
Na5 O26 2.274996 1_555
Na5 O96 2.389448 1_555
Na5 O140 2.409376 1_545
Na5 O98 2.654124 1_555
Na5 O142 2.659897 1_545
Na5 O16 2.934118 1_545
Na5 O68 3.041907 1_545
Na6 O85 2.507303 1_455
Na6 O86 2.525797 1_555
Na6 O89 2.557190 1_445
Na6 O76 2.653359 1_555
Na6 O75 2.715087 1_445
Na6 O72 2.752793 1_545
Na7 O87 2.419837 1_565
Na7 O77 2.425143 1_565
Na7 O73 2.465885 1_555
Na7 O84 2.612968 1_565
Na7 O88 2.640841 1_555
Na7 O74 2.933825 1_555
Na8 O80 2.384236 1_544
Na8 O78 2.425922 1_554
Na8 O94 2.449618 1_555
Na8 O93 2.618655 1_455
Na8 O91 2.637094 1_445
Na8 O83 2.893753 1_444
Na9 O90 2.527371 1_556
Na9 O95 2.533400 1_566
Na9 O81 2.577578 1_555
Na9 O92 2.584034 1_566
Na9 O82 2.664413 1_555
Na9 O79 2.724779 1_565
Na10 O96 2.374052 1_555
Na10 O100 2.551164 1_555
Na10 O110 2.561326 1_555
Na10 O112 2.627067 1_555
Na10 O108 2.713383 1_555
Na10 O98 2.970172 1_555
Na11 O97 2.399526 1_555
Na11 O99 2.409682 1_555
Na11 O101 2.561271 1_555
Na11 O113 2.804136 1_555
Na11 O111 2.840166 1_555
Na11 O109 2.890556 1_555
Na12 O102 2.528481 1_555
Na12 O106 2.566557 1_555
Na12 O118 2.589327 1_555
Na12 O116 2.590577 1_555
Na12 O104 2.736345 1_555
Na12 O114 2.743331 1_555
Na13 O119 2.441185 1_555
Na13 O117 2.467554 1_555
Na13 O103 2.491029 1_555
Na13 O115 2.668591 1_555
Na13 O105 2.753467 1_555
Na14 O134 2.485793 1_555
Na14 O136 2.580764 1_555
Na14 O120 2.670685 1_555
Na14 O132 2.771143 1_555
Na14 O124 2.795511 1_555
Na14 O122 2.938789 1_555
Na14 O34 2.959081 1_555
Na15 O133 2.546681 1_555
Na15 O137 2.576488 1_555
Na15 O135 2.611662 1_555
Na15 O121 2.693312 1_555
Na15 O125 2.744664 1_555
Na15 O123 2.804870 1_555
Na16 O138 2.609965 1_555
Na16 O128 2.658791 1_555
Na16 O142 2.676137 1_555
Na16 O140 2.680158 1_555
Na16 O126 2.682926 1_555
Na16 O130 2.775405 1_555
Na17 O131 2.587546 1_555
Na17 O127 2.631431 1_555
Na17 O141 2.687960 1_555
Na17 O129 2.808447 1_555
Na17 O143 2.814133 1_555
Na17 O139 2.893544 1_555
La0 O2 2.218829 1_545
La0 O4 2.242323 1_555
La0 O77 2.308771 1_555
La0 O73 2.311911 1_545
La0 O1 2.407272 1_555
La0 O74 2.417047 1_545
La1 O11 2.207935 1_455
La1 O9 2.227466 1_445
La1 O80 2.332756 1_545
La1 O78 2.345681 1_555
La1 O6 2.388908 1_555
La1 O83 2.440834 1_445
La2 O24 2.203431 1_555
La2 O28 2.273099 1_555
La2 O26 2.322897 1_555
La2 O96 2.489661 1_555
La2 O98 2.498843 1_555
La2 O100 2.604142 1_555
La3 O27 2.210754 1_555
La3 O97 2.290881 1_555
La3 O25 2.318840 1_555
La3 O99 2.407436 1_555
La3 O101 2.429206 1_555
La3 O29 2.483048 1_555
La4 O34 2.241939 1_555
La4 O102 2.264380 1_555
La4 O30 2.325289 1_555
La4 O106 2.397701 1_555
La4 O104 2.402147 1_555
La4 O32 2.502511 1_555
La5 O33 2.233427 1_555
La5 O35 2.270424 1_555
La5 O31 2.381389 1_555
La5 O107 2.419566 1_555
La5 O103 2.423105 1_555
La5 O105 2.547998 1_555
O0 Si0 1.631615 1_545
O0 Ta0 1.922184 1_545
O1 S0 1.460115 1_545
O2 Si1 1.596320 1_555
O3 Si2 1.634442 1_555
O3 Ta0 1.940432 1_655
O4 Si3 1.597657 1_555
O5 S1 1.456033 1_555
O5 Ta0 2.233567 1_545
O6 S2 1.466161 1_555
O7 Si4 1.646179 1_555
O7 Ta1 1.906507 1_555
O8 S3 1.469141 1_555
O8 Ta1 2.180664 1_565
O9 Si5 1.594210 1_655
O10 Si6 1.649779 1_555
O10 Ta1 1.913498 1_565
O11 Si7 1.595967 1_545
O12 Si6 1.647040 1_555
O12 Ta3 1.978914 1_565
O13 Si7 1.699880 1_555
O13 Ta2 1.961018 1_555
O14 S2 1.509377 1_555
O14 Ta2 2.171672 1_445
O15 Si4 1.639502 1_555
O15 Ta3 1.982168 1_555
O16 Si5 1.690495 1_555
O16 Ta2 1.963086 1_455
O17 S3 1.463910 1_555
O17 Ta3 2.435795 1_565
O18 Si1 1.707336 1_555
O18 Ta5 1.950308 1_565
O19 Si2 1.676089 1_555
O19 Ta4 1.955515 1_655
O20 S1 1.503349 1_555
O20 Ta4 2.156285 1_545
O21 Si3 1.700455 1_555
O21 Ta5 1.951958 1_555
O22 Si0 1.672586 1_555
O22 Ta4 1.947562 1_555
O23 S0 1.505141 1_555
O23 Ta5 2.141484 1_565
O24 Si8 1.601279 1_555
O25 Si9 1.601606 1_555
O26 Si10 1.611834 1_555
O27 Si11 1.593719 1_555
O28 Si12 1.595942 1_555
O29 S4 1.468198 1_555
O30 Si13 1.596048 1_555
O31 S5 1.466820 1_555
O32 S6 1.460919 1_555
O33 Si14 1.598539 1_555
O34 Si15 1.596224 1_555
O35 Si16 1.618854 1_555
O36 Si15 1.672408 1_555
O36 Ta6 1.978579 1_554
O37 Si16 1.687597 1_555
O37 Ta7 1.963910 1_554
O38 Si13 1.665496 1_555
O38 Ta6 1.967015 1_554
O39 S5 1.464720 1_555
O39 Ta7 2.451045 1_554
O40 S6 1.465849 1_555
O40 Ta6 2.449466 1_554
O41 Si14 1.695100 1_555
O41 Ta7 1.894405 1_554
O42 Si10 1.671817 1_555
O42 Ta8 1.975730 1_555
O43 Si11 1.685068 1_555
O43 Ta9 1.950447 1_555
O44 Si12 1.682293 1_555
O44 Ta8 1.885943 1_555
O45 S4 1.469222 1_555
O45 Ta9 2.428309 1_555
O46 Si8 1.656505 1_555
O46 Ta8 1.982283 1_555
O47 Si9 1.665506 1_555
O47 Ta9 1.962537 1_555
O48 Si17 1.632308 1_555
O48 Ta10 1.888265 1_556
O49 S7 1.456006 1_555
O49 Ta11 2.121654 1_556
O50 Si18 1.639776 1_555
O50 Ta10 1.852401 1_556
O51 Si19 1.609430 1_555
O51 Ta11 1.938663 1_556
O52 Si20 1.612237 1_555
O52 Ta10 1.892646 1_556
O53 Si21 1.613197 1_555
O53 Ta11 1.965128 1_556
O54 S8 1.451386 1_555
O54 Ta12 2.127786 1_555
O55 Si22 1.598715 1_555
O55 Ta13 1.974324 1_555
O56 Si23 1.621658 1_555
O56 Ta12 1.964790 1_555
O57 Si24 1.592294 1_555
O57 Ta13 1.908024 1_555
O58 Si25 1.602877 1_555
O58 Ta12 1.949325 1_555
O59 Si26 1.634265 1_555
O59 Ta13 1.855585 1_555
O60 Si25 1.658745 1_555
O60 Ta14 1.940572 1_555
O61 Si26 1.702633 1_555
O61 Ta15 1.973609 1_555
O62 S8 1.539157 1_555
O62 Ta14 2.111268 1_555
O63 Si22 1.656370 1_555
O63 Ta15 1.947063 1_555
O64 Si23 1.675438 1_555
O64 Ta14 1.934314 1_555
O65 Si24 1.725028 1_555
O65 Ta15 1.895652 1_555
O66 Si18 1.677604 1_555
O66 Ta16 2.003888 1_555
O67 Si19 1.647447 1_555
O67 Ta17 1.954352 1_555
O68 Si20 1.706190 1_555
O68 Ta16 1.908081 1_555
O69 Si21 1.641526 1_555
O69 Ta17 1.961471 1_555
O70 Si17 1.632272 1_555
O70 Ta16 1.965311 1_555
O71 S7 1.509941 1_555
O71 Ta17 2.244889 1_555
O72 Si25 1.660816 1_555
O72 Ta0 1.921585 1_555
O73 Si26 1.601719 1_555
O74 S8 1.457666 1_555
O75 Si22 1.633930 1_555
O75 Ta0 1.998836 1_655
O76 Si23 1.652609 1_555
O76 Ta0 1.998498 1_545
O77 Si24 1.591164 1_555
O78 Si18 1.597926 1_555
O79 Si19 1.655829 1_555
O79 Ta1 1.938277 1_555
O80 Si20 1.588467 1_555
O81 Si21 1.633545 1_555
O81 Ta1 2.032869 1_565
O82 Si17 1.622535 1_555
O82 Ta1 2.029731 1_565
O83 S7 1.462846 1_555
O84 Si8 1.665325 1_555
O84 Ta3 1.896199 1_555
O85 Si9 1.648074 1_555
O85 Ta2 1.985755 1_545
O86 Si10 1.664876 1_555
O86 Ta2 1.980297 1_445
O87 Si11 1.640132 1_555
O87 Ta3 1.992799 1_555
O88 Si12 1.639960 1_555
O88 Ta3 1.976252 1_565
O89 S4 1.526448 1_555
O89 Ta2 2.079114 1_555
O90 Si13 1.650317 1_555
O90 Ta5 1.991908 1_565
O91 S5 1.523309 1_555
O91 Ta4 2.098311 1_655
O92 S6 1.521415 1_555
O92 Ta5 2.104884 1_555
O93 Si14 1.653634 1_555
O93 Ta4 1.990082 1_645
O94 Si15 1.656131 1_555
O94 Ta4 1.984802 1_545
O95 Si16 1.655286 1_555
O95 Ta5 2.006908 1_555
O96 Si6 1.622800 1_545
O97 Si7 1.607007 1_545
O98 S2 1.466676 1_555
O99 Si4 1.615474 1_555
O100 S3 1.474872 1_555
O101 Si5 1.610291 1_655
O102 Si1 1.605831 1_555
O103 Si2 1.629433 1_555
O104 Si3 1.607794 1_555
O105 S1 1.477149 1_655
O106 Si0 1.612564 1_545
O107 S0 1.479019 1_545
O108 Si17 1.650915 1_555
O108 Ta6 1.909799 1_555
O109 S7 1.496839 1_555
O109 Ta7 2.253131 1_555
O110 Si19 1.625842 1_555
O110 Ta6 2.007119 1_555
O111 Si18 1.666945 1_655
O111 Ta7 1.956248 1_555
O112 Si20 1.645175 1_545
O112 Ta6 1.970085 1_555
O113 Si21 1.676069 1_545
O113 Ta7 1.892759 1_555
O114 S8 1.473639 1_545
O114 Ta8 2.385301 1_555
O115 Si22 1.658803 1_545
O115 Ta9 1.911705 1_555
O116 Si23 1.633167 1_555
O116 Ta8 2.030471 1_555
O117 Si24 1.640360 1_555
O117 Ta9 1.985454 1_555
O118 Si26 1.644400 1_555
O118 Ta8 2.016159 1_555
O119 Si25 1.618569 1_655
O119 Ta9 2.030287 1_555
O120 Si15 1.642247 1_555
O120 Ta10 1.945391 1_555
O121 Si16 1.632359 1_555
O121 Ta11 1.973879 1_555
O122 S5 1.477514 1_455
O122 Ta10 2.194208 1_555
O123 Si13 1.647424 1_555
O123 Ta11 1.888778 1_555
O124 S6 1.490508 1_565
O124 Ta10 2.162137 1_555
O125 Si14 1.627896 1_565
O125 Ta11 1.980093 1_555
O126 Si10 1.638740 1_565
O126 Ta12 1.971068 1_555
O127 Si11 1.624666 1_565
O127 Ta13 1.941369 1_555
O128 Si12 1.641020 1_555
O128 Ta12 1.962497 1_555
O129 S4 1.472078 1_555
O129 Ta13 2.208542 1_555
O130 Si9 1.642811 1_455
O130 Ta12 1.887315 1_555
O131 Si8 1.630270 1_555
O131 Ta13 1.957523 1_555
O132 Si0 1.659347 1_555
O132 Ta14 2.003218 1_555
O133 S0 1.497522 1_555
O133 Ta15 2.443637 1_555
O134 Si1 1.680074 1_555
O134 Ta14 2.016613 1_555
O135 Si2 1.660743 1_555
O135 Ta15 2.027203 1_555
O136 S1 1.509860 1_555
O136 Ta14 2.132725 1_555
O137 Si3 1.681403 1_555
O137 Ta15 2.059050 1_555
O138 S2 1.502897 1_555
O138 Ta16 2.382294 1_555
O139 Si4 1.667235 1_555
O139 Ta17 1.959914 1_555
O140 Si5 1.686589 1_555
O140 Ta16 2.028666 1_555
O141 S3 1.542019 1_555
O141 Ta17 2.024067 1_555
O142 Si6 1.675117 1_555
O142 Ta16 1.992237 1_555
O143 Si7 1.684383 1_555
O143 Ta17 1.992158 1_555
