# generated using pymatgen
data_Rb2LaF5
_symmetry_space_group_name_H-M   'P 1'
_cell_length_a   6.89019891
_cell_length_b   7.81879989
_cell_length_c   11.31277500
_cell_angle_alpha   90.00000000
_cell_angle_beta   90.00000000
_cell_angle_gamma   90.00000000
_symmetry_Int_Tables_number   1
_chemical_formula_structural   Rb2LaF5
_chemical_formula_sum   'Rb8 La4 F20'
_cell_volume   609.45410590
_cell_formula_units_Z   4
loop_
 _symmetry_equiv_pos_site_id
 _symmetry_equiv_pos_as_xyz
  1  'x, y, z'
loop_
 _atom_site_type_symbol
 _atom_site_label
 _atom_site_symmetry_multiplicity
 _atom_site_fract_x
 _atom_site_fract_y
 _atom_site_fract_z
 _atom_site_occupancy
  Rb  Rb0  1  0.53394117  0.02185324  0.17061236  1
  Rb  Rb1  1  0.46605883  0.52185324  0.82938764  1
  Rb  Rb2  1  0.96605883  0.02185324  0.67061236  1
  Rb  Rb3  1  0.03394117  0.52185324  0.32938764  1
  Rb  Rb4  1  0.03423152  0.01527425  0.32946705  1
  Rb  Rb5  1  0.96576848  0.51527425  0.67053295  1
  Rb  Rb6  1  0.46576848  0.01527425  0.82946705  1
  Rb  Rb7  1  0.53423152  0.51527425  0.17053295  1
  La  La0  1  0.43768065  0.26832655  0.50310471  1
  La  La1  1  0.56231935  0.76832655  0.49689529  1
  La  La2  1  0.06231935  0.26832655  0.00310471  1
  La  La3  1  0.93768065  0.76832655  0.99689529  1
  F  F0  1  0.14765106  0.98690884  0.07817805  1
  F  F1  1  0.85234894  0.48690884  0.92182195  1
  F  F2  1  0.35234894  0.98690884  0.57817805  1
  F  F3  1  0.64765106  0.48690884  0.42182195  1
  F  F4  1  0.39912670  0.26893730  0.01125597  1
  F  F5  1  0.60087330  0.76893730  0.98874403  1
  F  F6  1  0.10087330  0.26893730  0.51125597  1
  F  F7  1  0.89912670  0.76893730  0.48874403  1
  F  F8  1  0.14605904  0.54937039  0.07935191  1
  F  F9  1  0.85394096  0.04937039  0.92064809  1
  F  F10  1  0.35394096  0.54937039  0.57935191  1
  F  F11  1  0.64605904  0.04937039  0.42064809  1
  F  F12  1  0.33625627  0.26897564  0.30449456  1
  F  F13  1  0.66374373  0.76897564  0.69550544  1
  F  F14  1  0.16374373  0.26897564  0.80449456  1
  F  F15  1  0.83625627  0.76897564  0.19550544  1
  F  F16  1  0.36326191  0.76735578  0.33071720  1
  F  F17  1  0.63673809  0.26735578  0.66928280  1
  F  F18  1  0.13673809  0.76735578  0.83071720  1
  F  F19  1  0.86326191  0.26735578  0.16928280  1
loop_
_geom_bond_atom_site_label_1
_geom_bond_atom_site_label_2
_geom_bond_distance
_geom_bond_site_symmetry_2
F0 La3 2.420630 1_454
F0 La2 2.430743 1_565
F0 Rb0 2.872684 1_565
F0 Rb4 2.956565 1_565
F1 La2 2.420630 1_656
F1 La3 2.430743 1_555
F1 Rb1 2.872684 1_555
F1 Rb5 2.956565 1_555
F2 La1 2.420630 1_555
F2 La0 2.430743 1_565
F2 Rb2 2.872684 1_465
F2 Rb6 2.956565 1_565
F3 La0 2.420630 1_555
F3 La1 2.430743 1_555
F3 Rb3 2.872684 1_655
F3 Rb7 2.956565 1_555
F4 La2 2.322506 1_555
F4 Rb7 2.796962 1_555
F4 Rb0 2.800901 1_555
F4 Rb1 2.890714 1_554
F4 Rb6 2.893757 1_554
F5 La3 2.322506 1_555
F5 Rb6 2.796962 1_565
F5 Rb1 2.800901 1_555
F5 Rb0 2.890714 1_566
F5 Rb7 2.893757 1_556
F6 La0 2.322506 1_555
F6 Rb5 2.796962 1_455
F6 Rb2 2.800901 1_455
F6 Rb3 2.890714 1_555
F6 Rb4 2.893757 1_555
F7 La1 2.322506 1_555
F7 Rb4 2.796962 1_665
F7 Rb3 2.800901 1_655
F7 Rb2 2.890714 1_565
F7 Rb5 2.893757 1_555
F8 La3 2.421245 1_454
F8 La2 2.430146 1_555
F8 Rb7 2.878974 1_555
F8 Rb3 2.940074 1_555
F9 La2 2.421245 1_656
F9 La3 2.430146 1_545
F9 Rb6 2.878974 1_555
F9 Rb2 2.940074 1_555
F10 La1 2.421245 1_555
F10 La0 2.430146 1_555
F10 Rb5 2.878974 1_455
F10 Rb1 2.940074 1_555
F11 La0 2.421245 1_555
F11 La1 2.430146 1_545
F11 Rb4 2.878974 1_655
F11 Rb0 2.940074 1_555
F12 La0 2.353008 1_555
F12 Rb7 2.804632 1_555
F12 Rb0 2.807603 1_555
F12 Rb3 2.885751 1_555
F12 Rb4 2.888814 1_555
F13 La1 2.353008 1_555
F13 Rb6 2.804632 1_565
F13 Rb1 2.807603 1_555
F13 Rb2 2.885751 1_565
F13 Rb5 2.888814 1_555
F14 La2 2.353008 1_556
F14 Rb5 2.804632 1_455
F14 Rb2 2.807603 1_455
F14 Rb1 2.885751 1_555
F14 Rb6 2.888814 1_555
F15 La3 2.353008 1_554
F15 Rb4 2.804632 1_665
F15 Rb3 2.807603 1_655
F15 Rb0 2.885751 1_565
F15 Rb7 2.888814 1_555
F16 La1 2.327091 1_555
F16 Rb7 2.925110 1_555
F16 Rb0 2.936516 1_565
F16 Rb3 2.972136 1_555
F16 Rb4 2.982845 1_565
F17 La0 2.327091 1_555
F17 Rb6 2.925110 1_555
F17 Rb1 2.936516 1_555
F17 Rb2 2.972136 1_555
F17 Rb5 2.982845 1_555
F18 La3 2.327091 1_455
F18 Rb5 2.925110 1_455
F18 Rb2 2.936516 1_465
F18 Rb1 2.972136 1_555
F18 Rb6 2.982845 1_565
F19 La2 2.327091 1_655
F19 Rb4 2.925110 1_655
F19 Rb3 2.936516 1_655
F19 Rb0 2.972136 1_555
F19 Rb7 2.982845 1_555
