# generated using pymatgen
data_Na3YSi3Ge3(SO8)3
_symmetry_space_group_name_H-M   'P 1'
_cell_length_a   8.70556673
_cell_length_b   8.81106388
_cell_length_c   22.39089970
_cell_angle_alpha   89.07068991
_cell_angle_beta   91.01521224
_cell_angle_gamma   120.15911941
_symmetry_Int_Tables_number   1
_chemical_formula_structural   Na3YSi3Ge3(SO8)3
_chemical_formula_sum   'Na9 Y3 Si9 Ge9 S9 O72'
_cell_volume   1484.72239497
_cell_formula_units_Z   3
loop_
 _symmetry_equiv_pos_site_id
 _symmetry_equiv_pos_as_xyz
  1  'x, y, z'
loop_
 _atom_site_type_symbol
 _atom_site_label
 _atom_site_symmetry_multiplicity
 _atom_site_fract_x
 _atom_site_fract_y
 _atom_site_fract_z
 _atom_site_occupancy
  Na  Na0  1  0.35625469  0.35467305  0.24441670  1
  Na  Na1  1  0.63137318  0.62248880  0.75610460  1
  Na  Na2  1  0.96740148  0.28720513  0.41755716  1
  Na  Na3  1  0.99523964  -0.00025021  0.50242676  1
  Na  Na4  1  0.99943864  0.99611896  0.00019386  1
  Na  Na5  1  0.66436048  0.33376997  0.83571232  1
  Na  Na6  1  0.67271780  0.32509989  0.33248510  1
  Na  Na7  1  0.31573346  0.66136057  0.16181956  1
  Na  Na8  1  0.30106077  0.64837879  0.66594814  1
  Y  Y0  1  0.99514559  0.99787659  0.35912258  1
  Y  Y1  1  0.67645349  0.33698897  0.68707868  1
  Y  Y2  1  0.68912453  0.34601742  0.17588636  1
  Si  Si0  1  0.00510242  0.30129189  0.25216784  1
  Si  Si1  1  0.27539318  0.28295253  0.75724088  1
  Si  Si2  1  0.01779204  0.73173877  0.75151642  1
  Si  Si3  1  0.96957156  0.33309454  0.58072412  1
  Si  Si4  1  0.98319858  0.64952030  0.08012368  1
  Si  Si5  1  0.36740580  0.34037991  0.08248028  1
  Si  Si6  1  0.62002628  0.67978176  0.91420190  1
  Si  Si7  1  0.59741778  0.93877341  0.41989446  1
  Si  Si8  1  0.35521765  0.38332146  0.42090520  1
  Ge  Ge0  1  0.99981130  0.98160368  0.85356824  1
  Ge  Ge1  1  0.02234914  0.02632769  0.65022928  1
  Ge  Ge2  1  0.02140203  0.02138478  0.14124494  1
  Ge  Ge3  1  0.65877323  0.38420637  0.98480735  1
  Ge  Ge4  1  0.65283271  0.29742235  0.47864394  1
  Ge  Ge5  1  0.34085010  0.66618560  0.01789507  1
  Ge  Ge6  1  0.33332272  0.64606434  0.51742739  1
  Ge  Ge7  1  0.34359290  0.65317665  0.31686158  1
  Ge  Ge8  1  0.31195060  0.64202732  0.81297204  1
  S  S0  1  0.28909144  0.98434929  0.24878014  1
  S  S1  1  0.70103598  0.71168642  0.24822329  1
  S  S2  1  0.71431156  0.99143718  0.75311521  1
  S  S3  1  0.36335762  0.02766483  0.58060923  1
  S  S4  1  0.66945411  0.63588862  0.58118638  1
  S  S5  1  0.66696114  0.03463008  0.07757786  1
  S  S6  1  0.03751091  0.37397219  0.91740803  1
  S  S7  1  0.33927425  0.95857546  0.91578498  1
  S  S8  1  0.04712664  0.65326561  0.41977821  1
  O  O0  1  0.20764023  0.00651157  0.30201321  1
  O  O1  1  0.80122414  0.78165887  0.30325042  1
  O  O2  1  0.99272476  0.20449723  0.31429465  1
  O  O3  1  0.17548976  0.16364076  0.81579208  1
  O  O4  1  0.96268124  0.80295850  0.80987776  1
  O  O5  1  0.82132809  0.01751176  0.80812255  1
  O  O6  1  0.79348825  0.96510270  0.69785674  1
  O  O7  1  0.16593714  0.21205393  0.69343177  1
  O  O8  1  0.03970469  0.85083084  0.68995975  1
  O  O9  1  0.78821144  0.81506265  0.19408775  1
  O  O10  1  0.04227387  0.19831582  0.19382054  1
  O  O11  1  0.17896511  0.96131546  0.19298726  1
  O  O12  1  0.89828871  0.37322060  0.63954166  1
  O  O13  1  0.46783467  0.10421866  0.63496350  1
  O  O14  1  0.63385948  0.53618706  0.63804530  1
  O  O15  1  0.93144430  0.53057158  0.13896920  1
  O  O16  1  0.63130546  0.09589663  0.13361953  1
  O  O17  1  0.46415223  0.37199707  0.14605059  1
  O  O18  1  0.46267181  0.29399976  0.02644087  1
  O  O19  1  0.84071722  0.55300229  0.02279443  1
  O  O20  1  0.69832624  0.15220102  0.02591763  1
  O  O21  1  0.44771182  0.14757503  0.52697335  1
  O  O22  1  0.69067047  0.54396813  0.53062816  1
  O  O23  1  0.83558863  0.29811645  0.52024287  1
  O  O24  1  0.52623113  0.70549536  0.97171223  1
  O  O25  1  0.15502756  0.46121541  0.96956746  1
  O  O26  1  0.30748758  0.84835891  0.96983544  1
  O  O27  1  0.50195263  0.83092560  0.47994361  1
  O  O28  1  0.29943949  0.46961231  0.47341273  1
  O  O29  1  0.15317528  0.67848717  0.47456197  1
  O  O30  1  0.12468284  0.62595938  0.36432210  1
  O  O31  1  0.48148711  0.85362474  0.35736064  1
  O  O32  1  0.38502339  0.49480117  0.35693515  1
  O  O33  1  0.11272195  0.48598667  0.86106007  1
  O  O34  1  0.36018655  0.87511069  0.86177894  1
  O  O35  1  0.49597685  0.64231614  0.85377422  1
  O  O36  1  0.02539002  0.80596723  0.41704470  1
  O  O37  1  0.79621015  0.96991161  0.42215739  1
  O  O38  1  0.18431219  0.18933555  0.42055432  1
  O  O39  1  0.02559168  0.20145505  0.91214182  1
  O  O40  1  0.17303305  0.97582941  0.91233819  1
  O  O41  1  0.82313711  0.85435866  0.90880282  1
  O  O42  1  0.98290901  0.14962372  0.58917030  1
  O  O43  1  0.18536132  0.01440193  0.58412792  1
  O  O44  1  0.83012757  0.81260428  0.58625823  1
  O  O45  1  0.97975207  0.83281684  0.09217284  1
  O  O46  1  0.82742969  0.01385353  0.08527368  1
  O  O47  1  0.17087457  0.16226620  0.08426022  1
  O  O48  1  0.69089617  0.14433204  0.74988348  1
  O  O49  1  0.47367140  0.31315385  0.75447645  1
  O  O50  1  0.84514623  0.53839537  0.74853444  1
  O  O51  1  0.66311916  0.52780905  0.24531198  1
  O  O52  1  0.83656190  0.32770720  0.24968532  1
  O  O53  1  0.46502894  0.14599877  0.24398819  1
  O  O54  1  0.63686608  0.49778106  0.92067708  1
  O  O55  1  0.85868165  0.35437047  0.92268864  1
  O  O56  1  0.49961601  0.13562786  0.92118475  1
  O  O57  1  0.62517668  0.14131977  0.42170998  1
  O  O58  1  0.54184208  0.38192941  0.43179047  1
  O  O59  1  0.86992404  0.48945927  0.42323268  1
  O  O60  1  0.35197359  0.51391976  0.06896836  1
  O  O61  1  0.17598774  0.67668810  0.06200713  1
  O  O62  1  0.50874074  0.85610516  0.06998867  1
  O  O63  1  0.34268946  0.85312433  0.57329443  1
  O  O64  1  0.50749759  0.65715298  0.57510873  1
  O  O65  1  0.16647395  0.51206157  0.57148160  1
  O  O66  1  0.30437621  0.82468268  0.25290216  1
  O  O67  1  0.52428967  0.70636726  0.25179345  1
  O  O68  1  0.19682673  0.49861567  0.25754561  1
  O  O69  1  0.29641724  0.48249442  0.75968660  1
  O  O70  1  0.20026156  0.71958143  0.76203800  1
  O  O71  1  0.53777018  0.82750666  0.75632048  1
loop_
_geom_bond_atom_site_label_1
_geom_bond_atom_site_label_2
_geom_bond_distance
_geom_bond_site_symmetry_2
Na0 O51 2.316966 1_555
Na0 O68 2.327348 1_555
Na0 O17 2.382220 1_555
Na0 O53 2.455147 1_555
Na0 O10 2.609577 1_555
Na0 O67 2.687555 1_555
Na0 O32 2.775304 1_555
Na0 O0 2.947962 1_555
Na1 O71 2.325231 1_555
Na1 O50 2.332793 1_555
Na1 O49 2.357211 1_555
Na1 O69 2.534133 1_555
Na1 O35 2.552074 1_555
Na1 O4 2.761822 1_555
Na1 O14 2.765919 1_555
Na1 O6 2.909035 1_555
Na2 O59 2.332970 1_555
Na2 O37 2.420157 1_545
Na2 O38 2.437981 1_655
Na2 O2 2.481896 1_555
Na2 O57 2.587447 1_555
Na2 O23 2.612272 1_555
Na2 O28 2.787779 1_655
Na2 O30 2.835574 1_655
Na3 O37 2.397666 1_545
Na3 O42 2.400165 1_555
Na3 O43 2.405891 1_655
Na3 O44 2.433542 1_545
Na3 O38 2.470855 1_655
Na3 O36 2.685721 1_645
Na4 O47 2.389169 1_665
Na4 O45 2.451493 1_555
Na4 O41 2.479631 1_554
Na4 O46 2.498332 1_565
Na4 O40 2.563936 1_654
Na4 O39 2.588149 1_664
Na5 O49 2.387061 1_555
Na5 O54 2.493547 1_555
Na5 O56 2.498099 1_555
Na5 O55 2.504710 1_555
Na5 O50 2.584844 1_555
Na5 O48 2.653282 1_555
Na6 O52 2.351934 1_555
Na6 O57 2.456762 1_555
Na6 O59 2.578171 1_555
Na6 O53 2.606401 1_555
Na6 O51 2.652929 1_555
Na6 O58 2.681807 1_555
Na7 O68 2.491852 1_555
Na7 O66 2.546598 1_555
Na7 O61 2.559679 1_555
Na7 O60 2.575313 1_555
Na7 O67 2.585558 1_555
Na7 O62 2.665781 1_555
Na7 O15 2.977670 1_455
Na8 O65 2.422808 1_555
Na8 O69 2.527334 1_555
Na8 O70 2.540985 1_555
Na8 O63 2.634032 1_555
Na8 O64 2.712491 1_555
Na8 O71 2.742248 1_555
Ge0 O4 1.751184 1_555
Ge0 O3 1.778788 1_665
Ge0 O41 1.855234 1_555
Ge0 O5 1.994325 1_565
Ge0 O40 2.003212 1_655
Ge0 O39 2.271129 1_665
Ge1 O7 1.768991 1_555
Ge1 O8 1.841379 1_545
Ge1 O42 1.864728 1_455
Ge1 O6 2.091519 1_445
Ge1 O43 2.108278 1_555
Ge1 O44 2.287861 1_445
Ge2 O47 1.801821 1_555
Ge2 O45 1.881240 1_445
Ge2 O10 1.901711 1_555
Ge2 O11 2.038911 1_545
Ge2 O46 2.059525 1_455
Ge2 O9 2.265622 1_445
Ge3 O19 1.752285 1_556
Ge3 O18 1.756173 1_556
Ge3 O54 1.798655 1_555
Ge3 O55 2.364262 1_555
Ge3 O56 2.393385 1_555
Ge3 O20 2.404098 1_556
Ge4 O58 1.802855 1_555
Ge4 O57 1.813326 1_555
Ge4 O23 1.826683 1_555
Ge4 O21 1.938060 1_555
Ge4 O59 2.185391 1_555
Ge4 O22 2.351975 1_555
Ge5 O60 1.787163 1_555
Ge5 O61 1.797398 1_555
Ge5 O24 1.810977 1_554
Ge5 O62 1.960193 1_555
Ge5 O25 2.028615 1_554
Ge5 O26 2.054301 1_554
Ge6 O28 1.747585 1_555
Ge6 O27 1.763305 1_555
Ge6 O65 1.805949 1_555
Ge6 O64 1.939740 1_555
Ge6 O29 1.962215 1_555
Ge6 O63 2.195648 1_555
Ge7 O31 1.807127 1_555
Ge7 O32 1.826512 1_555
Ge7 O68 1.871154 1_555
Ge7 O67 2.033501 1_555
Ge7 O30 2.103073 1_555
Ge7 O66 2.209510 1_555
Ge8 O69 1.809792 1_555
Ge8 O70 1.820997 1_555
Ge8 O35 1.829031 1_555
Ge8 O33 1.918306 1_555
Ge8 O34 2.185943 1_555
Ge8 O71 2.222044 1_555
O0 S0 1.462281 1_545
O0 Y0 2.236574 1_445
O1 S1 1.450918 1_555
O1 Y0 2.194386 1_555
O2 Si0 1.596422 1_655
O2 Y0 2.073850 1_545
O3 Si1 1.630129 1_555
O4 Si2 1.637963 1_655
O5 S2 1.480264 1_545
O6 S2 1.503350 1_555
O7 Si1 1.649883 1_555
O8 Si2 1.672867 1_555
O9 S1 1.475499 1_555
O10 Si0 1.727201 1_555
O11 S0 1.513680 1_555
O12 Si3 1.583995 1_555
O12 Y1 2.099222 1_555
O13 S3 1.460949 1_555
O13 Y1 2.264126 1_555
O14 S4 1.480797 1_555
O14 Y1 2.236166 1_555
O15 Si4 1.593513 1_555
O15 Y2 2.085430 1_555
O16 S5 1.471898 1_555
O16 Y2 2.223069 1_555
O17 Si5 1.596134 1_555
O17 Y2 2.175685 1_555
O18 Si5 1.680275 1_555
O19 Si4 1.681845 1_555
O20 S5 1.474381 1_555
O21 S3 1.519319 1_555
O22 S4 1.469376 1_555
O23 Si3 1.698754 1_555
O24 Si6 1.615200 1_555
O25 S6 1.482599 1_555
O26 S7 1.479208 1_555
O27 Si7 1.614349 1_555
O28 Si8 1.617501 1_555
O29 S8 1.472739 1_555
O30 S8 1.502736 1_555
O31 Si7 1.662874 1_555
O32 Si8 1.671887 1_555
O33 S6 1.527809 1_555
O34 S7 1.485740 1_555
O35 Si6 1.646328 1_555
O36 S8 1.450024 1_555
O36 Y0 2.230402 1_455
O37 Si7 1.610302 1_555
O37 Y0 2.167632 1_555
O38 Si8 1.606208 1_555
O38 Y0 2.157169 1_445
O39 S6 1.477209 1_555
O40 S7 1.529791 1_555
O41 Si6 1.666082 1_555
O42 Si3 1.685367 1_555
O43 S3 1.497689 1_555
O44 S4 1.485102 1_555
O45 Si4 1.656848 1_555
O46 S5 1.504041 1_555
O47 Si5 1.641392 1_555
O48 S2 1.460785 1_545
O48 Y1 2.237336 1_555
O49 Si1 1.611168 1_555
O49 Y1 2.269246 1_555
O50 Si2 1.610260 1_655
O50 Y1 2.142049 1_555
O51 S1 1.484389 1_555
O51 Y2 2.343295 1_555
O52 Si0 1.596836 1_655
O52 Y2 2.127966 1_555
O53 S0 1.481529 1_545
O53 Y2 2.408451 1_555
O54 Si6 1.685833 1_555
O55 S6 1.484303 1_655
O56 S7 1.486208 1_545
O57 Si7 1.677403 1_545
O58 Si8 1.644690 1_555
O59 S8 1.494080 1_655
O60 Si5 1.624070 1_555
O61 Si4 1.629712 1_455
O62 S5 1.491220 1_565
O63 S3 1.467442 1_565
O64 S4 1.516350 1_555
O65 Si3 1.659422 1_455
O66 S0 1.479477 1_555
O67 S1 1.519174 1_555
O68 Si0 1.704980 1_555
O69 Si1 1.675443 1_555
O70 Si2 1.657470 1_555
O71 S2 1.491132 1_555
