# generated using pymatgen
data_MgCrFe(BiO3)2
_symmetry_space_group_name_H-M   'P 1'
_cell_length_a   6.33372341
_cell_length_b   6.64494878
_cell_length_c   6.82598615
_cell_angle_alpha   49.94566541
_cell_angle_beta   50.90979891
_cell_angle_gamma   50.85874152
_symmetry_Int_Tables_number   1
_chemical_formula_structural   MgCrFe(BiO3)2
_chemical_formula_sum   'Mg1 Cr1 Fe1 Bi2 O6'
_cell_volume   157.90650899
_cell_formula_units_Z   1
loop_
 _symmetry_equiv_pos_site_id
 _symmetry_equiv_pos_as_xyz
  1  'x, y, z'
loop_
 _atom_site_type_symbol
 _atom_site_label
 _atom_site_symmetry_multiplicity
 _atom_site_fract_x
 _atom_site_fract_y
 _atom_site_fract_z
 _atom_site_occupancy
  Mg  Mg0  1  0.41021000  0.35255343  0.35748473  1
  Cr  Cr0  1  0.19978706  0.19463324  0.19610418  1
  Fe  Fe0  1  0.82186686  0.72068871  0.72952293  1
  Bi  Bi0  1  0.56419199  0.55319656  0.56806522  1
  Bi  Bi1  1  0.05198136  0.01215040  0.99584281  1
  O  O0  1  0.30858984  0.54162337  0.98822907  1
  O  O1  1  0.96691006  0.41927914  0.59913702  1
  O  O2  1  0.82615940  0.39110632  0.10840756  1
  O  O3  1  0.17649345  0.80965549  0.36981644  1
  O  O4  1  0.51678329  0.99390089  0.33979025  1
  O  O5  1  0.47054969  0.08664046  0.73969480  1
loop_
_geom_bond_atom_site_label_1
_geom_bond_atom_site_label_2
_geom_bond_distance
_geom_bond_site_symmetry_2
Mg0 O1 2.080845 1_455
Mg0 O4 2.094452 1_545
Mg0 O2 2.130675 1_555
Mg0 O5 2.132286 1_555
Mg0 O0 2.301120 1_554
Mg0 O3 2.433062 1_555
Cr0 O4 2.047165 1_545
Cr0 O3 2.079377 1_545
Cr0 O0 2.089682 1_554
Cr0 O2 2.131451 1_455
Fe0 O5 2.015121 1_565
Fe0 O2 2.051716 1_556
Fe0 O3 2.067984 1_655
Fe0 O1 2.141896 1_555
Bi0 O4 2.168192 1_555
Bi0 O0 2.206892 1_555
Bi0 O1 2.217369 1_555
Bi0 O3 2.589353 1_555
Bi1 O5 2.242248 1_555
Bi1 O1 2.348015 1_455
Bi1 O2 2.352540 1_456
Bi1 O3 2.393170 1_546
Bi1 O0 2.471280 1_545
Bi1 O4 2.670896 1_446
