# generated using pymatgen
data_NaInSnP2SO12
_symmetry_space_group_name_H-M   'P 1'
_cell_length_a   8.79507104
_cell_length_b   8.81011162
_cell_length_c   23.11505726
_cell_angle_alpha   89.75387599
_cell_angle_beta   90.00000000
_cell_angle_gamma   119.94354248
_symmetry_Int_Tables_number   1
_chemical_formula_structural   NaInSnP2SO12
_chemical_formula_sum   'Na6 In6 Sn6 P12 S6 O72'
_cell_volume   1551.98608032
_cell_formula_units_Z   6
loop_
 _symmetry_equiv_pos_site_id
 _symmetry_equiv_pos_as_xyz
  1  'x, y, z'
loop_
 _atom_site_type_symbol
 _atom_site_label
 _atom_site_symmetry_multiplicity
 _atom_site_fract_x
 _atom_site_fract_y
 _atom_site_fract_z
 _atom_site_occupancy
  Na  Na0  1  0.98061409  0.98944666  0.50218104  1
  Na  Na1  1  0.00883256  0.98944666  0.00218104  1
  Na  Na2  1  0.64728109  0.32277966  0.83551404  1
  Na  Na3  1  0.67549956  0.32277966  0.33551404  1
  Na  Na4  1  0.31394709  0.65611366  0.16884804  1
  Na  Na5  1  0.34216556  0.65611366  0.66884804  1
  In  In0  1  0.99343025  0.00411293  0.64824032  1
  In  In1  1  0.01068268  0.00411293  0.14824032  1
  In  In2  1  0.66009725  0.33744593  0.98157332  1
  In  In3  1  0.67734968  0.33744593  0.48157332  1
  In  In4  1  0.32676325  0.67077993  0.31490732  1
  In  In5  1  0.34401568  0.67077993  0.81490732  1
  Sn  Sn0  1  0.00055873  0.00158301  0.35095239  1
  Sn  Sn1  1  0.00102429  0.00158301  0.85095239  1
  Sn  Sn2  1  0.66722573  0.33491601  0.68428539  1
  Sn  Sn3  1  0.66769129  0.33491601  0.18428539  1
  Sn  Sn4  1  0.33389173  0.66825001  0.01761939  1
  Sn  Sn5  1  0.33435729  0.66825001  0.51761939  1
  P  P0  1  0.30019892  0.00631771  0.24945660  1
  P  P1  1  0.99666874  0.29228717  0.24905128  1
  P  P2  1  0.29561843  0.29228717  0.74905128  1
  P  P3  1  0.70611879  0.00631771  0.74945660  1
  P  P4  1  0.96686592  0.33965071  0.58278960  1
  P  P5  1  0.66333574  0.62562017  0.58238428  1
  P  P6  1  0.96228543  0.62562017  0.08238428  1
  P  P7  1  0.37278579  0.33965071  0.08278960  1
  P  P8  1  0.63353192  0.67298471  0.91612360  1
  P  P9  1  0.33000174  0.95895417  0.91571828  1
  P  P10  1  0.62895143  0.95895417  0.41571828  1
  P  P11  1  0.03945179  0.67298471  0.41612360  1
  S  S0  1  0.70610396  0.70282655  0.24935792  1
  S  S1  1  -0.00327741  0.70282655  0.74935792  1
  S  S2  1  0.37277096  0.03615955  0.58269092  1
  S  S3  1  0.66338959  0.03615955  0.08269092  1
  S  S4  1  0.03943696  0.36949355  0.91602492  1
  S  S5  1  0.33005559  0.36949355  0.41602492  1
  O  O0  1  0.21448689  0.03302966  0.30508478  1
  O  O1  1  0.81412803  0.78243500  0.30245850  1
  O  O2  1  0.96295711  0.17783136  0.30501257  1
  O  O3  1  0.21487425  0.17783136  0.80501257  1
  O  O4  1  0.96830697  0.78243500  0.80245850  1
  O  O5  1  0.81854277  0.03302966  0.80508478  1
  O  O6  1  0.78493979  0.97546122  0.69604942  1
  O  O7  1  0.19230551  0.20662745  0.69505889  1
  O  O8  1  0.02202876  0.80672454  0.69743904  1
  O  O9  1  0.78469579  0.80672454  0.19743904  1
  O  O10  1  0.01432194  0.20662745  0.19505889  1
  O  O11  1  0.19052143  0.97546122  0.19604942  1
  O  O12  1  0.88115389  0.36636266  0.63841778  1
  O  O13  1  0.48079503  0.11576800  0.63579150  1
  O  O14  1  0.62962411  0.51116436  0.63834557  1
  O  O15  1  0.88154125  0.51116436  0.13834557  1
  O  O16  1  0.63497397  0.11576800  0.13579150  1
  O  O17  1  0.48520977  0.36636266  0.13841778  1
  O  O18  1  0.45160679  0.30879422  0.02938242  1
  O  O19  1  0.85897251  0.53996045  0.02839189  1
  O  O20  1  0.68869576  0.14005754  0.03077204  1
  O  O21  1  0.45136279  0.14005754  0.53077204  1
  O  O22  1  0.68098894  0.53996045  0.52839189  1
  O  O23  1  0.85718843  0.30879422  0.52938242  1
  O  O24  1  0.54781989  0.69969666  0.97175178  1
  O  O25  1  0.14746103  0.44910200  0.96912550  1
  O  O26  1  0.29629011  0.84449836  0.97167957  1
  O  O27  1  0.54820725  0.84449836  0.47167957  1
  O  O28  1  0.30163997  0.44910200  0.46912550  1
  O  O29  1  0.15187577  0.69969666  0.47175178  1
  O  O30  1  0.11827279  0.64212822  0.36271642  1
  O  O31  1  0.52563851  0.87329445  0.36172589  1
  O  O32  1  0.35536176  0.47339154  0.36410604  1
  O  O33  1  0.11802879  0.47339154  0.86410604  1
  O  O34  1  0.34765494  0.87329445  0.86172589  1
  O  O35  1  0.52385443  0.64212822  0.86271642  1
  O  O36  1  0.03274628  0.84764662  0.41153877  1
  O  O37  1  0.81653352  0.97808637  0.41208523  1
  O  O38  1  0.16665250  0.19413337  0.41246599  1
  O  O39  1  0.02748087  0.19413337  0.91246599  1
  O  O40  1  0.16155284  0.97808637  0.91208523  1
  O  O41  1  0.81490034  0.84764662  0.91153877  1
  O  O42  1  0.99888691  0.18417485  0.58703264  1
  O  O43  1  0.19540750  0.01054474  0.58862640  1
  O  O44  1  0.82881017  0.80673078  0.58790822  1
  O  O45  1  0.97792062  0.80673078  0.08790822  1
  O  O46  1  0.81513723  0.01054474  0.08862640  1
  O  O47  1  0.18528794  0.18417485  0.08703264  1
  O  O48  1  0.69941328  0.18097962  0.74487177  1
  O  O49  1  0.48320052  0.31141937  0.74541823  1
  O  O50  1  0.83331950  0.52746637  0.74579899  1
  O  O51  1  0.69414787  0.52746637  0.24579899  1
  O  O52  1  0.82821984  0.31141937  0.24541823  1
  O  O53  1  0.48156734  0.18097962  0.24487177  1
  O  O54  1  0.66555391  0.51750785  0.92036564  1
  O  O55  1  0.86207450  0.34387774  0.92195940  1
  O  O56  1  0.49547717  0.14006378  0.92124122  1
  O  O57  1  0.64458762  0.14006378  0.42124122  1
  O  O58  1  0.48180423  0.34387774  0.42195940  1
  O  O59  1  0.85195494  0.51750785  0.42036564  1
  O  O60  1  0.36607928  0.51431362  0.07820577  1
  O  O61  1  0.14986652  0.64475337  0.07875223  1
  O  O62  1  0.49998550  0.86080037  0.07913299  1
  O  O63  1  0.36081387  0.86080037  0.57913299  1
  O  O64  1  0.49488584  0.64475337  0.57875223  1
  O  O65  1  0.14823334  0.51431362  0.57820577  1
  O  O66  1  0.33221991  0.85084185  0.25369964  1
  O  O67  1  0.52874050  0.67721174  0.25529340  1
  O  O68  1  0.16214317  0.47339778  0.25457522  1
  O  O69  1  0.31125362  0.47339778  0.75457522  1
  O  O70  1  0.14847023  0.67721174  0.75529340  1
  O  O71  1  0.51862094  0.85084185  0.75369964  1
loop_
_geom_bond_atom_site_label_1
_geom_bond_atom_site_label_2
_geom_bond_distance
_geom_bond_site_symmetry_2
Na0 O44 2.475397 1_555
Na0 O37 2.507440 1_555
Na0 O42 2.563122 1_565
Na0 O36 2.599056 1_655
Na0 O43 2.692349 1_665
Na0 O38 2.692947 1_665
Na1 O45 2.475397 1_455
Na1 O40 2.507440 1_554
Na1 O47 2.563122 1_565
Na1 O41 2.599056 1_454
Na1 O46 2.692349 1_465
Na1 O39 2.692947 1_564
Na2 O56 2.475397 1_555
Na2 O49 2.507440 1_555
Na2 O54 2.563122 1_555
Na2 O48 2.599056 1_555
Na2 O55 2.692349 1_555
Na2 O50 2.692947 1_555
Na3 O57 2.475397 1_555
Na3 O52 2.507440 1_555
Na3 O59 2.563122 1_555
Na3 O53 2.599056 1_555
Na3 O58 2.692349 1_555
Na3 O51 2.692947 1_555
Na4 O68 2.475397 1_555
Na4 O61 2.507440 1_555
Na4 O66 2.563122 1_555
Na4 O60 2.599056 1_555
Na4 O67 2.692349 1_555
Na4 O62 2.692947 1_555
Na5 O69 2.475397 1_555
Na5 O64 2.507440 1_555
Na5 O71 2.563122 1_555
Na5 O65 2.599056 1_555
Na5 O70 2.692349 1_555
Na5 O63 2.692947 1_555
In0 O6 2.045220 1_545
In0 O7 2.077275 1_655
In0 O42 2.103637 1_555
In0 O44 2.138335 1_545
In0 O8 2.190981 1_645
In0 O43 2.226318 1_655
In1 O11 2.045220 1_545
In1 O10 2.077275 1_555
In1 O47 2.103637 1_555
In1 O45 2.138335 1_445
In1 O9 2.190981 1_445
In1 O46 2.226318 1_455
In2 O18 2.045220 1_556
In2 O19 2.077275 1_556
In2 O54 2.103637 1_555
In2 O56 2.138335 1_555
In2 O20 2.190981 1_556
In2 O55 2.226318 1_555
In3 O23 2.045220 1_555
In3 O22 2.077275 1_555
In3 O59 2.103637 1_555
In3 O57 2.138335 1_555
In3 O21 2.190981 1_555
In3 O58 2.226318 1_555
In4 O30 2.045220 1_555
In4 O31 2.077275 1_555
In4 O66 2.103637 1_555
In4 O68 2.138335 1_555
In4 O32 2.190981 1_555
In4 O67 2.226318 1_555
In5 O35 2.045220 1_555
In5 O34 2.077275 1_555
In5 O71 2.103637 1_555
In5 O69 2.138335 1_555
In5 O33 2.190981 1_555
In5 O70 2.226318 1_555
O0 P0 1.567409 1_555
O0 Sn0 2.053786 1_555
O1 S0 1.497768 1_555
O1 Sn0 2.128604 1_665
O2 P1 1.571086 1_555
O2 Sn0 2.036311 1_655
O3 P2 1.571086 1_555
O3 Sn1 2.036311 1_555
O4 S1 1.497768 1_655
O4 Sn1 2.128604 1_665
O5 P3 1.567409 1_555
O5 Sn1 2.053786 1_655
O6 P3 1.506490 1_565
O7 P2 1.508740 1_555
O8 S1 1.454251 1_555
O9 S0 1.454252 1_555
O10 P1 1.508740 1_455
O11 P0 1.506490 1_565
O12 P4 1.567409 1_555
O12 Sn2 2.053786 1_555
O13 S2 1.497768 1_555
O13 Sn2 2.128604 1_555
O14 P5 1.571086 1_555
O14 Sn2 2.036311 1_555
O15 P6 1.571086 1_555
O15 Sn3 2.036311 1_555
O16 S3 1.497768 1_555
O16 Sn3 2.128604 1_555
O17 P7 1.567409 1_555
O17 Sn3 2.053786 1_555
O18 P7 1.506490 1_555
O19 P6 1.508740 1_555
O20 S3 1.454251 1_555
O21 S2 1.454252 1_555
O22 P5 1.508740 1_555
O23 P4 1.506490 1_555
O24 P8 1.567409 1_555
O24 Sn4 2.053786 1_556
O25 S4 1.497768 1_555
O25 Sn4 2.128604 1_556
O26 P9 1.571086 1_555
O26 Sn4 2.036311 1_556
O27 P10 1.571086 1_555
O27 Sn5 2.036311 1_555
O28 S5 1.497768 1_555
O28 Sn5 2.128604 1_555
O29 P11 1.567409 1_555
O29 Sn5 2.053786 1_555
O30 P11 1.506490 1_555
O31 P10 1.508740 1_555
O32 S5 1.454251 1_555
O33 S4 1.454252 1_555
O34 P9 1.508740 1_555
O35 P8 1.506490 1_555
O36 P11 1.572190 1_555
O36 Sn0 2.060982 1_565
O37 P10 1.574663 1_555
O37 Sn0 2.079009 1_665
O38 S5 1.497856 1_555
O38 Sn0 2.140169 1_555
O39 S4 1.497860 1_555
O39 Sn1 2.140169 1_555
O40 P9 1.574655 1_555
O40 Sn1 2.079008 1_565
O41 P8 1.572195 1_555
O41 Sn1 2.060982 1_665
O42 P4 1.532685 1_555
O43 S2 1.466773 1_555
O44 P5 1.537487 1_555
O45 P6 1.537490 1_555
O46 S3 1.466764 1_555
O47 P7 1.532690 1_555
O48 P3 1.572190 1_555
O48 Sn2 2.060982 1_555
O49 P2 1.574663 1_555
O49 Sn2 2.079009 1_555
O50 S1 1.497856 1_655
O50 Sn2 2.140169 1_555
O51 S0 1.497860 1_555
O51 Sn3 2.140169 1_555
O52 P1 1.574655 1_555
O52 Sn3 2.079008 1_555
O53 P0 1.572195 1_555
O53 Sn3 2.060982 1_555
O54 P8 1.532698 1_555
O55 S4 1.466758 1_655
O56 P9 1.537484 1_545
O57 P10 1.537476 1_545
O58 S5 1.466776 1_555
O59 P11 1.532687 1_655
O60 P7 1.572202 1_555
O60 Sn4 2.060982 1_555
O61 P6 1.574650 1_455
O61 Sn4 2.079009 1_555
O62 S3 1.497854 1_565
O62 Sn4 2.140169 1_555
O63 S2 1.497846 1_565
O63 Sn5 2.140169 1_555
O64 P5 1.574667 1_555
O64 Sn5 2.079008 1_555
O65 P4 1.572193 1_455
O65 Sn5 2.060982 1_555
O66 P0 1.532685 1_565
O67 S0 1.466773 1_555
O68 P1 1.537487 1_455
O69 P2 1.537490 1_555
O70 S1 1.466764 1_555
O71 P3 1.532690 1_565
