# generated using pymatgen
data_Na3MgCo2SbO6
_symmetry_space_group_name_H-M   'P 1'
_cell_length_a   6.32489103
_cell_length_b   6.33027797
_cell_length_c   5.77236871
_cell_angle_alpha   88.50102253
_cell_angle_beta   88.73585591
_cell_angle_gamma   120.92997976
_symmetry_Int_Tables_number   1
_chemical_formula_structural   Na3MgCo2SbO6
_chemical_formula_sum   'Na3 Mg1 Co2 Sb1 O6'
_cell_volume   198.01252657
_cell_formula_units_Z   1
loop_
 _symmetry_equiv_pos_site_id
 _symmetry_equiv_pos_as_xyz
  1  'x, y, z'
loop_
 _atom_site_type_symbol
 _atom_site_label
 _atom_site_symmetry_multiplicity
 _atom_site_fract_x
 _atom_site_fract_y
 _atom_site_fract_z
 _atom_site_occupancy
  Na  Na0  1  0.13417323  0.70434989  0.42546756  1
  Na  Na1  1  0.70549919  0.13447843  0.42658584  1
  Na  Na2  1  0.69849547  0.69865805  0.71063385  1
  Mg  Mg0  1  0.23678521  0.23512565  0.47411753  1
  Co  Co0  1  0.55815028  0.18562473  0.88364325  1
  Co  Co1  1  0.18567717  0.55867739  0.88337329  1
  Sb  Sb0  1  0.06132966  0.06199536  0.06289558  1
  O  O0  1  0.43543552  0.87228255  0.74053169  1
  O  O1  1  0.12337412  0.38249919  0.20407119  1
  O  O2  1  0.87137578  0.43586060  0.74082403  1
  O  O3  1  0.38242224  0.12264176  0.20388657  1
  O  O4  1  0.92753127  0.92735812  0.39664246  1
  O  O5  1  0.32975187  0.33044929  0.78482917  1
loop_
_geom_bond_atom_site_label_1
_geom_bond_atom_site_label_2
_geom_bond_distance
_geom_bond_site_symmetry_2
Na0 O4 2.371249 1_455
Na0 O2 2.401189 1_455
Na0 O1 2.405398 1_555
Na0 O0 2.498030 1_555
Na0 O3 2.563783 1_565
Na1 O4 2.369598 1_545
Na1 O0 2.397555 1_545
Na1 O3 2.407752 1_555
Na1 O2 2.497636 1_555
Na1 O1 2.565011 1_655
Na2 O4 2.251772 1_555
Na2 O5 2.317587 1_555
Na2 O2 2.420058 1_555
Na2 O0 2.425535 1_555
Na2 Sb0 3.117029 1_666
Mg0 O5 1.914439 1_555
Mg0 O4 1.997097 1_445
Mg0 O3 2.111323 1_555
Mg0 O1 2.115637 1_555
Co0 O2 1.935798 1_555
Co0 O0 1.936671 1_545
Co0 O3 2.055903 1_556
Co0 O5 2.150143 1_555
Co1 O0 1.936353 1_555
Co1 O2 1.936549 1_455
Co1 O1 2.057668 1_556
Co1 O5 2.148197 1_555
O1 Sb0 2.053433 1_555
O3 Sb0 2.054747 1_555
O4 Sb0 2.062697 1_665
O5 Sb0 2.262256 1_556
