# generated using pymatgen
data_Na10La4Si7Sn4S5O48
_symmetry_space_group_name_H-M   'P 1'
_cell_length_a   18.81228926
_cell_length_b   9.46603834
_cell_length_c   23.52039332
_cell_angle_alpha   90.04274900
_cell_angle_beta   87.84623876
_cell_angle_gamma   120.01748049
_symmetry_Int_Tables_number   1
_chemical_formula_structural   Na10La4Si7Sn4S5O48
_chemical_formula_sum   'Na30 La12 Si21 Sn12 S15 O144'
_cell_volume   3623.32359720
_cell_formula_units_Z   3
loop_
 _symmetry_equiv_pos_site_id
 _symmetry_equiv_pos_as_xyz
  1  'x, y, z'
loop_
 _atom_site_type_symbol
 _atom_site_label
 _atom_site_symmetry_multiplicity
 _atom_site_fract_x
 _atom_site_fract_y
 _atom_site_fract_z
 _atom_site_occupancy
  Na  Na0  1  0.18375089  0.37507155  0.24110482  1
  Na  Na1  1  0.68406050  0.37609594  0.24054691  1
  Na  Na2  1  0.99408996  0.62978418  0.25531069  1
  Na  Na3  1  0.49487403  0.62996630  0.25491058  1
  Na  Na4  1  0.49422986  0.35510624  0.75965748  1
  Na  Na5  1  0.18427779  0.99433256  0.74461243  1
  Na  Na6  1  0.68193805  0.99389402  0.74402890  1
  Na  Na7  1  0.65973184  0.34248647  0.58057324  1
  Na  Na8  1  0.01567947  0.70753721  0.57857162  1
  Na  Na9  1  0.82712038  0.95893048  0.59181771  1
  Na  Na10  1  0.49338412  0.67772480  0.91322823  1
  Na  Na11  1  0.99425233  0.67700568  0.91209709  1
  Na  Na12  1  0.84762150  0.03413789  0.90738345  1
  Na  Na13  1  0.15932002  0.29212446  0.92362887  1
  Na  Na14  1  0.49166695  0.30884744  0.41196898  1
  Na  Na15  1  0.98957828  0.30678544  0.41265519  1
  Na  Na16  1  0.34562867  0.65952157  0.40662210  1
  Na  Na17  1  0.84816400  0.66230934  0.41088720  1
  Na  Na18  1  0.02151861  0.01049859  0.50126922  1
  Na  Na19  1  0.51651820  0.99426087  0.49931502  1
  Na  Na20  1  0.01258210  0.01599032  0.00397110  1
  Na  Na21  1  0.51802774  0.03909973  0.99920125  1
  Na  Na22  1  0.34098383  0.32745624  0.83620939  1
  Na  Na23  1  0.84471702  0.33914635  0.82990065  1
  Na  Na24  1  0.33674584  0.33135184  0.33260495  1
  Na  Na25  1  0.83656589  0.33071992  0.33519024  1
  Na  Na26  1  0.17499284  0.65266841  0.16642304  1
  Na  Na27  1  0.67487876  0.65235949  0.16617060  1
  Na  Na28  1  0.17438079  0.68193429  0.67408478  1
  Na  Na29  1  0.67520285  0.68566948  0.67013484  1
  La  La0  1  0.00269141  0.00089028  0.34989490  1
  La  La1  1  0.50327183  0.00285812  0.34856737  1
  La  La2  1  0.99864184  0.00064235  0.84589823  1
  La  La3  1  0.49626752  0.00303709  0.85391453  1
  La  La4  1  0.33439964  0.33451185  0.68419847  1
  La  La5  1  0.83893416  0.34333695  0.68726565  1
  La  La6  1  0.33513976  0.33680006  0.18163785  1
  La  La7  1  0.83494516  0.33586303  0.18183240  1
  La  La8  1  0.16197081  0.65669845  0.01995991  1
  La  La9  1  0.66061644  0.64977883  0.02125957  1
  La  La10  1  0.16707548  0.67442934  0.51858758  1
  La  La11  1  0.65961015  0.67156994  0.51834314  1
  Si  Si0  1  0.34907817  0.71370671  0.25124645  1
  Si  Si1  1  0.84944834  0.71413320  0.25125257  1
  Si  Si2  1  0.00329592  0.30685159  0.25371907  1
  Si  Si3  1  0.50323520  0.30709800  0.25365219  1
  Si  Si4  1  0.00495721  0.69941524  0.75360097  1
  Si  Si5  1  0.50364262  0.69939975  0.75434176  1
  Si  Si6  1  0.34931959  0.98476873  0.74875982  1
  Si  Si7  1  0.84445394  0.98239974  0.75231423  1
  Si  Si8  1  0.17934083  0.04281467  0.58857711  1
  Si  Si9  1  0.68225655  0.04762368  0.58870220  1
  Si  Si10  1  0.83652127  0.63963007  0.58212988  1
  Si  Si11  1  0.17884478  0.31555753  0.08746387  1
  Si  Si12  1  0.67842133  0.31498768  0.08960862  1
  Si  Si13  1  0.01508558  0.37578133  0.91796706  1
  Si  Si14  1  0.51314219  0.37514416  0.91754125  1
  Si  Si15  1  0.16965969  0.96991295  0.91616520  1
  Si  Si16  1  0.67048205  0.96767842  0.91835035  1
  Si  Si17  1  0.16990905  0.37136627  0.41743631  1
  Si  Si18  1  0.66949401  0.36972098  0.41969432  1
  Si  Si19  1  0.01274621  0.65116521  0.41942964  1
  Si  Si20  1  0.51066143  0.65198009  0.41663212  1
  Sn  Sn0  1  0.99384977  0.97222461  0.65173758  1
  Sn  Sn1  1  0.49678034  0.97286801  0.65277903  1
  Sn  Sn2  1  0.99708489  0.01891977  0.15022510  1
  Sn  Sn3  1  0.49704598  0.01718805  0.15021184  1
  Sn  Sn4  1  0.32462368  0.30647502  0.98065076  1
  Sn  Sn5  1  0.82160638  0.31577286  0.98006001  1
  Sn  Sn6  1  0.32246344  0.32964554  0.48033839  1
  Sn  Sn7  1  0.82454150  0.34932271  0.48234999  1
  Sn  Sn8  1  0.16205920  0.64047738  0.31552165  1
  Sn  Sn9  1  0.66166632  0.64181794  0.31586071  1
  Sn  Sn10  1  0.16034832  0.68341975  0.81521932  1
  Sn  Sn11  1  0.66172622  0.68412750  0.81619534  1
  S  S0  1  0.14655406  0.98035347  0.24742246  1
  S  S1  1  0.64686321  0.97975454  0.24751306  1
  S  S2  1  0.14545800  0.31308616  0.74890758  1
  S  S3  1  0.64359363  0.30623795  0.74678081  1
  S  S4  1  0.47917413  0.30706497  0.58140450  1
  S  S5  1  0.97901361  0.31311224  0.57907470  1
  S  S6  1  0.34275921  0.64389741  0.58057627  1
  S  S7  1  0.47956989  0.65340673  0.08251031  1
  S  S8  1  0.97935649  0.65248158  0.08185819  1
  S  S9  1  0.34141900  0.03925456  0.08213022  1
  S  S10  1  0.84136653  0.03899103  0.08065245  1
  S  S11  1  0.30947206  0.64428100  0.91575929  1
  S  S12  1  0.81175175  0.64818068  0.91599095  1
  S  S13  1  0.31231676  0.97662355  0.41432682  1
  S  S14  1  0.81118339  0.97490186  0.41587717  1
  O  O0  1  0.11382574  0.01007565  0.30103304  1
  O  O1  1  0.61451355  0.00968253  0.30128541  1
  O  O2  1  0.39976798  0.77583696  0.30854573  1
  O  O3  1  0.90094961  0.77655843  0.30819451  1
  O  O4  1  0.49314368  0.21687926  0.31386611  1
  O  O5  1  0.99403600  0.21611487  0.31361315  1
  O  O6  1  0.11407251  0.22700853  0.80458621  1
  O  O7  1  0.60474903  0.20536019  0.79792100  1
  O  O8  1  0.49432666  0.77706798  0.81258845  1
  O  O9  1  -0.00034202  0.78040967  0.81266707  1
  O  O10  1  0.41104491  0.03811359  0.79961609  1
  O  O11  1  0.89209774  0.00783746  0.81003013  1
  O  O12  1  0.39720774  0.96311604  0.68917495  1
  O  O13  1  0.89680036  0.97336765  0.69245397  1
  O  O14  1  0.09199183  0.21860751  0.70181649  1
  O  O15  1  0.59438330  0.22464706  0.69508615  1
  O  O16  1  0.01894985  0.82070997  0.69612003  1
  O  O17  1  0.52117628  0.82425210  0.69762239  1
  O  O18  1  0.40259265  0.83586015  0.19494898  1
  O  O19  1  0.90266864  0.83631121  0.19461217  1
  O  O20  1  0.02069967  0.21217439  0.19916057  1
  O  O21  1  0.51988669  0.21023105  0.19958836  1
  O  O22  1  0.09342694  0.96231118  0.19935076  1
  O  O23  1  0.59333967  0.96138328  0.19972844  1
  O  O24  1  0.44089922  0.32554568  0.63406058  1
  O  O25  1  0.93984977  0.33550026  0.63041328  1
  O  O26  1  0.22804261  0.11707504  0.64520345  1
  O  O27  1  0.73014448  0.12128184  0.64576727  1
  O  O28  1  0.33296939  0.54697510  0.63117319  1
  O  O29  1  0.81962062  0.51590624  0.63349480  1
  O  O30  1  0.44228164  0.56018463  0.13636490  1
  O  O31  1  0.94143296  0.55958956  0.13544588  1
  O  O32  1  0.33162743  0.11309008  0.13418817  1
  O  O33  1  0.83235523  0.11655333  0.13190976  1
  O  O34  1  0.22425527  0.32561997  0.14541729  1
  O  O35  1  0.72265516  0.32437176  0.14811036  1
  O  O36  1  0.23038345  0.29868911  0.02784880  1
  O  O37  1  0.73178540  0.29889883  0.03177390  1
  O  O38  1  0.43176342  0.56142027  0.03257372  1
  O  O39  1  0.93218189  0.56180870  0.03141582  1
  O  O40  1  0.35240043  0.14437655  0.03033009  1
  O  O41  1  0.85156344  0.13966533  0.02779599  1
  O  O42  1  0.23182167  0.16106219  0.52965525  1
  O  O43  1  0.72957025  0.17693956  0.53137419  1
  O  O44  1  0.35117062  0.56254373  0.52695891  1
  O  O45  1  0.85512113  0.56212491  0.52196244  1
  O  O46  1  0.43354038  0.30528438  0.53026294  1
  O  O47  1  0.93047643  0.29863989  0.52777765  1
  O  O48  1  0.27423913  0.66706330  0.96852529  1
  O  O49  1  0.77546303  0.67019916  0.96850078  1
  O  O50  1  0.07555839  0.44666713  0.96954265  1
  O  O51  1  0.56791304  0.46342852  0.96997837  1
  O  O52  1  0.15469549  0.85003521  0.96863186  1
  O  O53  1  0.66467847  0.85601269  0.97096998  1
  O  O54  1  0.27697389  0.88492212  0.46764305  1
  O  O55  1  0.77749438  0.88508186  0.47009771  1
  O  O56  1  0.16248867  0.46948385  0.47033241  1
  O  O57  1  0.66198930  0.45266111  0.47751390  1
  O  O58  1  0.06236309  0.67576138  0.47610003  1
  O  O59  1  0.56509229  0.68177455  0.46993256  1
  O  O60  1  0.06288926  0.62902010  0.36045358  1
  O  O61  1  0.55743766  0.62555453  0.35698391  1
  O  O62  1  0.26283932  0.89302827  0.36485133  1
  O  O63  1  0.76037852  0.88662312  0.36705470  1
  O  O64  1  0.18892415  0.48643102  0.35752693  1
  O  O65  1  0.68580925  0.49093080  0.36181403  1
  O  O66  1  0.06141755  0.50305221  0.86090335  1
  O  O67  1  0.55825137  0.49343403  0.85681020  1
  O  O68  1  0.18234568  0.89121751  0.85513005  1
  O  O69  1  0.68938961  0.89114209  0.85786273  1
  O  O70  1  0.26108514  0.63277334  0.86558628  1
  O  O71  1  0.76351648  0.63187406  0.86557470  1
  O  O72  1  0.98980471  0.79385845  0.41317506  1
  O  O73  1  0.48490879  0.79095096  0.41207119  1
  O  O74  1  0.39631730  0.99925265  0.40960942  1
  O  O75  1  0.89500729  0.99512205  0.41003419  1
  O  O76  1  0.08738768  0.19443059  0.41611467  1
  O  O77  1  0.58625328  0.19365038  0.41565473  1
  O  O78  1  0.99286201  0.18729377  0.91132428  1
  O  O79  1  0.49352661  0.19031264  0.91436942  1
  O  O80  1  0.09119647  0.00162058  0.91493348  1
  O  O81  1  0.58786839  0.97969513  0.91605163  1
  O  O82  1  0.39593094  0.77742132  0.91148926  1
  O  O83  1  0.89659326  0.79226125  0.91122367  1
  O  O84  1  0.48458168  0.15448012  0.58325260  1
  O  O85  1  0.98155269  0.15787805  0.58387003  1
  O  O86  1  0.08674938  0.03168553  0.59095914  1
  O  O87  1  0.58949527  0.04144564  0.59171832  1
  O  O88  1  0.42150193  0.80689648  0.58249280  1
  O  O89  1  0.92378039  0.81946293  0.58785670  1
  O  O90  1  0.48135991  0.81343808  0.08508062  1
  O  O91  1  0.98188790  0.81325793  0.08415042  1
  O  O92  1  0.41961603  0.03143168  0.08387863  1
  O  O93  1  0.91996400  0.03133351  0.08310790  1
  O  O94  1  0.08605561  0.14021716  0.08923071  1
  O  O95  1  0.58584300  0.14061914  0.08995051  1
  O  O96  1  0.33028846  0.13547583  0.74216866  1
  O  O97  1  0.82231752  0.12679921  0.74639630  1
  O  O98  1  0.22799807  0.32972243  0.74186115  1
  O  O99  1  0.72650867  0.32880162  0.74272472  1
  O  O100  1  0.43019215  0.51104590  0.74829178  1
  O  O101  1  0.92704248  0.51867650  0.75134057  1
  O  O102  1  0.33196315  0.52669402  0.24326292  1
  O  O103  1  0.83268582  0.52761142  0.24292724  1
  O  O104  1  0.42932913  0.34792814  0.24775413  1
  O  O105  1  0.92939134  0.34749202  0.24779703  1
  O  O106  1  0.23066373  0.12125641  0.24069816  1
  O  O107  1  0.73100175  0.12016296  0.24063707  1
  O  O108  1  0.31043042  0.48429696  0.91888231  1
  O  O109  1  0.82184774  0.49868443  0.92014487  1
  O  O110  1  0.42385139  0.38436652  0.92510137  1
  O  O111  1  0.92512923  0.37889619  0.92782193  1
  O  O112  1  0.25355586  0.15657233  0.91998959  1
  O  O113  1  0.75961886  0.14958989  0.92034610  1
  O  O114  1  0.32146504  0.14448133  0.41825290  1
  O  O115  1  0.82084003  0.14212457  0.41879259  1
  O  O116  1  0.25860433  0.36780888  0.42021558  1
  O  O117  1  0.75826818  0.36647469  0.41828536  1
  O  O118  1  0.42172151  0.46545262  0.42463832  1
  O  O119  1  0.92378167  0.46664776  0.42306033  1
  O  O120  1  0.16794021  0.47370900  0.08274694  1
  O  O121  1  0.66764819  0.47327739  0.08558486  1
  O  O122  1  0.06315366  0.67757242  0.07965633  1
  O  O123  1  0.56368533  0.68011943  0.08019745  1
  O  O124  1  0.27034525  0.87541990  0.07804914  1
  O  O125  1  0.77065996  0.87385517  0.07806571  1
  O  O126  1  0.15910377  0.85470525  0.58206835  1
  O  O127  1  0.67585573  0.87228650  0.58107374  1
  O  O128  1  0.27182729  0.66886854  0.57813538  1
  O  O129  1  0.75953799  0.67205143  0.57977611  1
  O  O130  1  0.06218871  0.45711538  0.57573053  1
  O  O131  1  0.56463054  0.44808334  0.57987215  1
  O  O132  1  0.14765661  0.82322383  0.25230592  1
  O  O133  1  0.64794939  0.82258623  0.25236149  1
  O  O134  1  0.25637344  0.70035893  0.25598628  1
  O  O135  1  0.75645143  0.69944650  0.25663632  1
  O  O136  1  0.09233983  0.48915283  0.25250348  1
  O  O137  1  0.59265875  0.48855426  0.25260025  1
  O  O138  1  0.15286570  0.47723349  0.75113396  1
  O  O139  1  0.64551808  0.46604839  0.75114505  1
  O  O140  1  0.09541219  0.70344419  0.75081913  1
  O  O141  1  0.59252525  0.69535839  0.75261746  1
  O  O142  1  0.25796068  0.81320791  0.75689207  1
  O  O143  1  0.75431049  0.80378576  0.75521772  1
loop_
_geom_bond_atom_site_label_1
_geom_bond_atom_site_label_2
_geom_bond_distance
_geom_bond_site_symmetry_2
Na0 O102 2.417288 1_555
Na0 O136 2.453202 1_555
Na0 O34 2.468074 1_555
Na0 O134 2.701058 1_555
Na0 O20 2.872730 1_555
Na0 O64 2.920959 1_555
Na0 O106 2.944898 1_555
Na1 O35 2.393581 1_555
Na1 O103 2.424276 1_555
Na1 O137 2.442237 1_555
Na1 O135 2.689430 1_555
Na2 O105 2.326923 1_555
Na2 O132 2.529035 1_655
Na2 O103 2.714345 1_555
Na2 O136 2.765003 1_655
Na2 O60 2.835648 1_655
Na2 O3 2.969340 1_555
Na2 O31 2.986573 1_555
Na2 O22 3.011415 1_655
Na3 O104 2.323296 1_555
Na3 O133 2.520828 1_555
Na3 O61 2.722603 1_555
Na3 O102 2.736489 1_555
Na3 O137 2.763137 1_555
Na3 O30 2.956385 1_555
Na3 O23 2.994816 1_555
Na3 O2 2.999793 1_555
Na4 O100 2.346431 1_555
Na4 O139 2.492014 1_555
Na4 O67 2.647864 1_555
Na4 O10 2.744384 1_555
Na4 O96 2.771651 1_555
Na4 O141 2.799894 1_555
Na5 O96 2.376903 1_565
Na5 O140 2.403065 1_555
Na5 O26 2.529224 1_565
Na5 O142 2.711662 1_555
Na5 O68 2.769880 1_555
Na5 O98 2.853736 1_565
Na5 O16 2.970660 1_555
Na6 O97 2.290586 1_565
Na6 O141 2.464855 1_555
Na6 O27 2.523970 1_565
Na6 O143 2.764129 1_555
Na6 O99 2.844835 1_565
Na6 O69 2.881455 1_555
Na6 O17 2.881468 1_555
Na7 O131 2.447803 1_555
Na7 O87 2.478500 1_555
Na7 O57 2.630011 1_555
Na7 O129 2.719363 1_555
Na7 O43 2.732009 1_555
Na7 O84 2.854042 1_555
Na7 O15 2.897155 1_555
Na7 O29 2.937609 1_555
Na8 O126 2.341622 1_555
Na8 O89 2.441927 1_455
Na8 O58 2.602847 1_555
Na8 O86 2.685307 1_565
Na8 O130 2.908574 1_555
Na8 O16 2.955997 1_555
Na8 O45 2.988391 1_455
Na9 O129 2.375431 1_555
Na9 O85 2.550971 1_565
Na9 O127 2.559838 1_555
Na9 O13 2.719040 1_555
Na9 O89 2.728955 1_555
Na9 O55 3.016851 1_555
Na10 O110 2.416564 1_555
Na10 O82 2.447472 1_555
Na10 O81 2.501937 1_555
Na10 O8 2.543861 1_555
Na10 O67 2.880637 1_555
Na11 O111 2.466759 1_555
Na11 O9 2.514676 1_655
Na11 O83 2.564046 1_555
Na11 O80 2.678534 1_665
Na11 O66 2.778885 1_655
Na11 O109 2.807319 1_555
Na11 O39 2.985444 1_556
Na11 O52 2.985490 1_655
Na12 O78 2.373068 1_555
Na12 O113 2.408302 1_555
Na12 O11 2.463482 1_555
Na12 O83 2.866402 1_545
Na12 O69 2.876888 1_545
Na12 O111 2.880430 1_555
Na12 O41 2.993639 1_556
Na13 O80 2.395642 1_555
Na13 O108 2.491030 1_555
Na13 O112 2.657244 1_555
Na13 O78 2.798768 1_455
Na13 O36 2.821857 1_556
Na13 O50 2.822307 1_555
Na13 O6 2.931844 1_555
Na14 O118 2.437078 1_555
Na14 O4 2.469662 1_555
Na14 O77 2.513153 1_555
Na14 O74 2.560640 1_545
Na14 O114 2.770393 1_555
Na14 O61 2.892302 1_555
Na14 O46 2.944951 1_555
Na15 O119 2.394312 1_555
Na15 O5 2.494925 1_555
Na15 O76 2.548101 1_655
Na15 O75 2.574732 1_545
Na15 O115 2.746328 1_555
Na15 O47 2.874399 1_555
Na15 O60 2.895356 1_655
Na16 O73 2.278828 1_555
Na16 O116 2.417937 1_555
Na16 O2 2.505219 1_555
Na16 O64 2.851117 1_555
Na16 O74 2.862303 1_555
Na16 O118 2.877737 1_555
Na16 O44 2.997731 1_555
Na17 O72 2.311798 1_555
Na17 O117 2.443900 1_555
Na17 O3 2.595927 1_555
Na17 O45 2.809877 1_555
Na17 O75 2.814810 1_555
Na17 O119 2.864187 1_555
Na17 O65 2.932104 1_555
Na18 O86 2.438025 1_555
Na18 O76 2.497690 1_555
Na18 O89 2.682500 1_445
Na18 O85 2.687321 1_455
Na18 O72 2.777963 1_445
Na19 O87 2.533192 1_565
Na19 O77 2.547445 1_565
Na19 O88 2.595865 1_555
Na19 O73 2.684957 1_555
Na19 O84 2.716038 1_565
Na20 O94 2.427607 1_555
Na20 O91 2.527356 1_445
Na20 O93 2.555481 1_455
Na20 O80 2.561138 1_554
Na20 O78 2.860673 1_454
Na21 O95 2.466160 1_556
Na21 O81 2.532131 1_545
Na21 O79 2.641202 1_555
Na21 O92 2.643489 1_556
Na21 O90 2.747059 1_546
Na22 O112 2.510780 1_555
Na22 O110 2.548499 1_555
Na22 O100 2.634214 1_555
Na22 O108 2.661044 1_555
Na22 O96 2.810168 1_555
Na23 O101 2.420149 1_555
Na23 O113 2.680232 1_555
Na23 O97 2.698957 1_555
Na23 O111 2.724980 1_555
Na23 O109 2.747319 1_555
Na24 O104 2.550850 1_555
Na24 O114 2.592845 1_555
Na24 O116 2.608662 1_555
Na24 O118 2.660506 1_555
Na24 O102 2.833639 1_555
Na24 O106 2.992916 1_555
Na25 O117 2.526932 1_555
Na25 O115 2.564040 1_555
Na25 O105 2.598673 1_555
Na25 O119 2.599550 1_555
Na25 O103 2.888293 1_555
Na25 O107 3.037654 1_555
Na26 O136 2.504547 1_555
Na26 O134 2.556309 1_555
Na26 O120 2.559401 1_555
Na26 O132 2.774738 1_555
Na26 O124 2.815362 1_555
Na27 O121 2.503727 1_555
Na27 O137 2.509581 1_555
Na27 O135 2.576957 1_555
Na27 O133 2.774451 1_555
Na27 O125 2.807662 1_555
Na28 O140 2.367775 1_555
Na28 O142 2.466059 1_555
Na28 O138 2.523510 1_555
Na28 O126 2.821994 1_555
Na28 O128 2.895577 1_555
Na29 O143 2.454644 1_555
Na29 O141 2.471213 1_555
Na29 O129 2.645994 1_555
Na29 O139 2.651175 1_555
Na29 O127 2.736900 1_555
La0 O3 2.281704 1_445
La0 O5 2.291370 1_455
La0 O0 2.310195 1_555
La0 O76 2.362763 1_555
La0 O72 2.369939 1_445
La0 O75 2.404509 1_445
La1 O4 2.281937 1_555
La1 O2 2.289927 1_545
La1 O1 2.304405 1_555
La1 O77 2.355550 1_555
La1 O73 2.376211 1_545
La1 O74 2.413528 1_545
La2 O9 2.234659 1_645
La2 O11 2.235507 1_555
La2 O6 2.332410 1_655
La2 O78 2.382689 1_555
La2 O80 2.421694 1_655
La2 O83 2.435405 1_545
La3 O10 2.235795 1_555
La3 O79 2.291152 1_555
La3 O8 2.333026 1_545
La3 O7 2.336328 1_555
La3 O81 2.392697 1_545
La3 O82 2.395135 1_545
La4 O26 2.257359 1_555
La4 O96 2.294547 1_555
La4 O24 2.324711 1_555
La4 O100 2.345201 1_555
La4 O98 2.356554 1_555
La4 O28 2.379379 1_555
La5 O29 2.243087 1_555
La5 O101 2.281431 1_555
La5 O25 2.312500 1_555
La5 O27 2.324317 1_555
La5 O97 2.358805 1_555
La5 O99 2.386490 1_555
La6 O34 2.236266 1_555
La6 O30 2.290317 1_555
La6 O102 2.330817 1_555
La6 O104 2.364145 1_555
La6 O32 2.365660 1_555
La6 O106 2.396316 1_555
La7 O35 2.235889 1_555
La7 O31 2.298465 1_555
La7 O103 2.330233 1_555
La7 O105 2.363769 1_555
La7 O33 2.364388 1_555
La7 O107 2.389957 1_555
La8 O50 2.215694 1_554
La8 O52 2.256528 1_554
La8 O120 2.324833 1_555
La8 O48 2.352573 1_554
La8 O122 2.374280 1_555
La8 O124 2.508340 1_555
La9 O51 2.164454 1_554
La9 O53 2.250217 1_554
La9 O121 2.310401 1_555
La9 O49 2.371938 1_554
La9 O123 2.379642 1_555
La9 O125 2.525903 1_555
La10 O56 2.212667 1_555
La10 O58 2.247680 1_555
La10 O54 2.318622 1_555
La10 O126 2.323655 1_555
La10 O130 2.382245 1_555
La10 O128 2.481756 1_555
La11 O59 2.188982 1_555
La11 O57 2.303220 1_555
La11 O127 2.308473 1_555
La11 O55 2.370731 1_555
La11 O131 2.406375 1_555
La11 O129 2.411915 1_555
O0 S0 1.470595 1_545
O1 S1 1.471161 1_545
O2 Si0 1.614253 1_555
O3 Si1 1.614037 1_555
O4 Si3 1.609515 1_555
O5 Si2 1.608188 1_655
O6 S2 1.479753 1_555
O7 S3 1.459504 1_555
O8 Si5 1.599211 1_555
O9 Si4 1.610054 1_555
O10 Si6 1.597180 1_545
O11 Si7 1.605974 1_545
O12 Si6 1.705027 1_555
O12 Sn1 1.989159 1_555
O13 Si7 1.714406 1_555
O13 Sn0 2.034412 1_555
O14 S2 1.490146 1_555
O14 Sn0 2.467119 1_445
O15 S3 1.516485 1_555
O15 Sn1 2.407750 1_545
O16 Si4 1.699592 1_555
O16 Sn0 2.021535 1_455
O17 Si5 1.692497 1_555
O17 Sn1 1.996690 1_555
O18 Si0 1.685610 1_555
O18 Sn3 2.005329 1_565
O19 Si1 1.690639 1_555
O19 Sn2 2.006035 1_565
O20 Si2 1.678507 1_555
O20 Sn2 2.022580 1_455
O21 Si3 1.676782 1_555
O21 Sn3 2.030106 1_555
O22 S0 1.490075 1_555
O22 Sn2 2.457052 1_465
O23 S1 1.488907 1_555
O23 Sn3 2.456407 1_565
O24 S4 1.463421 1_555
O25 S5 1.461084 1_555
O26 Si8 1.597929 1_555
O27 Si9 1.600076 1_555
O28 S6 1.451898 1_555
O29 Si10 1.591533 1_555
O30 S7 1.480135 1_555
O31 S8 1.475535 1_555
O32 S9 1.460215 1_555
O33 S10 1.459144 1_555
O34 Si11 1.613314 1_555
O35 Si12 1.614187 1_555
O36 Si11 1.727428 1_555
O36 Sn4 2.025422 1_554
O37 Si12 1.712143 1_555
O37 Sn5 1.983924 1_554
O38 S7 1.496962 1_555
O38 Sn4 2.586866 1_554
O39 S8 1.499130 1_555
O39 Sn5 2.558858 1_554
O40 S9 1.514757 1_555
O40 Sn4 2.200834 1_554
O41 S10 1.513763 1_555
O41 Sn5 2.312480 1_554
O42 Si8 1.715241 1_555
O42 Sn6 1.982740 1_555
O43 Si9 1.711996 1_555
O43 Sn7 2.028635 1_555
O44 S6 1.521164 1_555
O44 Sn6 2.281243 1_555
O45 Si10 1.697488 1_555
O45 Sn7 2.033429 1_555
O46 S4 1.499089 1_555
O46 Sn6 2.542728 1_555
O47 S5 1.505198 1_555
O47 Sn7 2.541813 1_555
O48 S11 1.451513 1_555
O49 S12 1.453769 1_555
O50 Si13 1.598364 1_555
O51 Si14 1.585442 1_555
O52 Si15 1.595666 1_555
O53 Si16 1.592892 1_555
O54 S13 1.459329 1_555
O55 S14 1.467194 1_555
O56 Si17 1.595289 1_555
O57 Si18 1.606440 1_555
O58 Si19 1.605528 1_555
O59 Si20 1.583256 1_555
O60 Si19 1.719590 1_555
O60 Sn8 2.063656 1_555
O61 Si20 1.712339 1_555
O61 Sn9 2.087954 1_555
O62 S13 1.479798 1_555
O62 Sn8 2.506437 1_555
O63 S14 1.487410 1_555
O63 Sn9 2.475216 1_555
O64 Si17 1.695419 1_555
O64 Sn8 2.033454 1_555
O65 Si18 1.697815 1_555
O65 Sn9 2.025538 1_555
O66 Si13 1.695990 1_555
O66 Sn10 2.050989 1_555
O67 Si14 1.724784 1_555
O67 Sn11 2.075416 1_555
O68 Si15 1.680260 1_555
O68 Sn10 2.033132 1_555
O69 Si16 1.701096 1_555
O69 Sn11 2.021505 1_555
O70 S11 1.488087 1_555
O70 Sn10 2.510622 1_555
O71 S12 1.481161 1_555
O71 Sn11 2.525100 1_555
O72 Si19 1.618868 1_655
O73 Si20 1.618189 1_555
O74 S13 1.484432 1_555
O75 S14 1.491294 1_555
O76 Si17 1.618101 1_555
O77 Si18 1.624407 1_555
O78 Si13 1.625064 1_655
O79 Si14 1.599629 1_555
O80 Si15 1.648095 1_545
O81 Si16 1.616928 1_555
O82 S11 1.476782 1_555
O83 S12 1.492963 1_555
O84 S4 1.498630 1_555
O84 Sn1 2.471726 1_545
O85 S5 1.498390 1_555
O85 Sn0 2.475635 1_545
O86 Si8 1.690378 1_555
O86 Sn0 2.060070 1_445
O87 Si9 1.715300 1_555
O87 Sn1 2.050957 1_545
O88 S6 1.514980 1_555
O88 Sn1 2.269972 1_555
O89 Si10 1.682571 1_555
O89 Sn0 2.079571 1_555
O90 S7 1.499525 1_555
O90 Sn3 2.369359 1_565
O91 S8 1.499652 1_555
O91 Sn2 2.399797 1_565
O92 S9 1.511539 1_555
O92 Sn3 2.223009 1_555
O93 S10 1.519376 1_555
O93 Sn2 2.225699 1_555
O94 Si11 1.702786 1_555
O94 Sn2 2.019175 1_455
O95 Si12 1.697193 1_555
O95 Sn3 2.009050 1_555
O96 Si6 1.644055 1_545
O97 Si7 1.623376 1_545
O98 S2 1.483035 1_555
O99 S3 1.463993 1_555
O100 Si5 1.630323 1_555
O101 Si4 1.604693 1_655
O102 Si0 1.645159 1_555
O103 Si1 1.643856 1_555
O104 Si3 1.629081 1_555
O105 Si2 1.627928 1_655
O106 S0 1.475673 1_545
O107 S1 1.474541 1_545
O108 S11 1.525371 1_555
O108 Sn4 2.344751 1_555
O109 S12 1.522744 1_555
O109 Sn5 2.231401 1_555
O110 Si14 1.727743 1_555
O110 Sn4 2.043601 1_555
O111 Si13 1.714309 1_655
O111 Sn5 2.077583 1_555
O112 Si15 1.685627 1_545
O112 Sn4 2.019623 1_555
O113 Si16 1.701776 1_545
O113 Sn5 2.022744 1_555
O114 S13 1.513365 1_545
O114 Sn6 2.273822 1_555
O115 S14 1.502149 1_545
O115 Sn7 2.439926 1_555
O116 Si17 1.689356 1_555
O116 Sn6 2.033740 1_555
O117 Si18 1.684719 1_555
O117 Sn7 2.048262 1_555
O118 Si20 1.724395 1_555
O118 Sn6 2.067022 1_555
O119 Si19 1.709912 1_655
O119 Sn7 2.096585 1_555
O120 Si11 1.613949 1_555
O121 Si12 1.612653 1_555
O122 S8 1.470867 1_455
O123 S7 1.471091 1_555
O124 S9 1.461799 1_565
O125 S10 1.463598 1_565
O126 Si8 1.632422 1_565
O127 Si9 1.613281 1_565
O128 S6 1.470081 1_555
O129 Si10 1.626462 1_555
O130 S5 1.472931 1_455
O131 S4 1.488716 1_555
O132 S0 1.502421 1_555
O132 Sn8 2.404108 1_555
O133 S1 1.502565 1_555
O133 Sn9 2.387436 1_555
O134 Si0 1.683694 1_555
O134 Sn8 2.058724 1_555
O135 Si1 1.684068 1_555
O135 Sn9 2.063667 1_555
O136 Si2 1.699713 1_555
O136 Sn8 2.057252 1_555
O137 Si3 1.699073 1_555
O137 Sn9 2.064352 1_555
O138 S2 1.490071 1_555
O138 Sn10 2.416169 1_555
O139 S3 1.498525 1_555
O139 Sn11 2.469007 1_555
O140 Si4 1.681696 1_555
O140 Sn10 2.047874 1_555
O141 Si5 1.690527 1_555
O141 Sn11 2.056026 1_555
O142 Si6 1.676589 1_555
O142 Sn10 2.078322 1_555
O143 Si7 1.691701 1_555
O143 Sn11 2.052890 1_555
