# generated using pymatgen
data_Na3Ca2Ga2PS5O24
_symmetry_space_group_name_H-M   'P 1'
_cell_length_a   8.93219891
_cell_length_b   8.87397099
_cell_length_c   22.78671839
_cell_angle_alpha   89.79697777
_cell_angle_beta   90.10584883
_cell_angle_gamma   119.88489856
_symmetry_Int_Tables_number   1
_chemical_formula_structural   Na3Ca2Ga2PS5O24
_chemical_formula_sum   'Na9 Ca6 Ga6 P3 S15 O72'
_cell_volume   1565.98869628
_cell_formula_units_Z   3
loop_
 _symmetry_equiv_pos_site_id
 _symmetry_equiv_pos_as_xyz
  1  'x, y, z'
loop_
 _atom_site_type_symbol
 _atom_site_label
 _atom_site_symmetry_multiplicity
 _atom_site_fract_x
 _atom_site_fract_y
 _atom_site_fract_z
 _atom_site_occupancy
  Na  Na0  1  0.36369967  0.99724368  0.74961032  1
  Na  Na1  1  0.66510851  0.95864911  0.58818067  1
  Na  Na2  1  0.67068143  0.70693564  0.08163000  1
  Na  Na3  1  0.02658466  0.00191113  0.49743857  1
  Na  Na4  1  0.01497242  0.00195882  0.99657490  1
  Na  Na5  1  0.68028998  0.34067585  0.83409039  1
  Na  Na6  1  0.66659474  0.33347665  0.33371460  1
  Na  Na7  1  0.30460421  0.66375206  0.16761387  1
  Na  Na8  1  0.33049241  0.65702971  0.66760456  1
  Ca  Ca0  1  0.00739116  0.00229652  0.64465578  1
  Ca  Ca1  1  0.00870981  0.00246944  0.14518683  1
  Ca  Ca2  1  0.31581277  0.66420356  0.01548655  1
  Ca  Ca3  1  0.32704456  0.66673477  0.51418577  1
  Ca  Ca4  1  0.33241533  0.66685630  0.32065251  1
  Ca  Ca5  1  0.33819881  0.66658400  0.82242279  1
  Ga  Ga0  1  0.00145344  0.00025462  0.34626904  1
  Ga  Ga1  1  0.98484813  0.00169304  0.84527345  1
  Ga  Ga2  1  0.66881153  0.32398451  0.68455289  1
  Ga  Ga3  1  0.67633450  0.33710190  0.18598859  1
  Ga  Ga4  1  0.67410990  0.33751013  0.98329796  1
  Ga  Ga5  1  0.65842862  0.32995394  0.48258781  1
  P  P0  1  0.70671417  0.01051521  0.74668444  1
  P  P1  1  0.38854826  0.05335119  0.58323001  1
  P  P2  1  0.94523045  0.60815494  0.08436699  1
  S  S0  1  0.30713598  0.01588623  0.25038474  1
  S  S1  1  0.70867747  0.69739060  0.24909148  1
  S  S2  1  0.98616626  0.28864257  0.25038668  1
  S  S3  1  0.30024940  0.29234331  0.75081171  1
  S  S4  1  0.98714512  0.69791788  0.75146360  1
  S  S5  1  0.94702354  0.33969443  0.58233029  1
  S  S6  1  0.66426205  0.60860215  0.58347938  1
  S  S7  1  0.66305935  0.05185445  0.08359762  1
  S  S8  1  0.39281501  0.33405785  0.08262348  1
  S  S9  1  0.65483828  0.66773737  0.91890081  1
  S  S10  1  0.01252559  0.34423730  0.91625898  1
  S  S11  1  0.33224203  0.99129391  0.91476258  1
  S  S12  1  0.65689644  0.98676112  0.41764652  1
  S  S13  1  0.33141306  0.34595435  0.41592464  1
  S  S14  1  0.01047267  0.66625804  0.41594510  1
  O  O0  1  0.21943209  0.03798028  0.30373536  1
  O  O1  1  0.82330557  0.79008389  0.30092957  1
  O  O2  1  0.96637165  0.17982018  0.30416414  1
  O  O3  1  0.21260937  0.17543569  0.80311922  1
  O  O4  1  0.96491127  0.78469754  0.80486564  1
  O  O5  1  0.82272945  0.03250571  0.80136369  1
  O  O6  1  0.77917257  0.98729065  0.68941545  1
  O  O7  1  0.20404958  0.21611708  0.69720467  1
  O  O8  1  0.02031610  0.80463372  0.69891781  1
  O  O9  1  0.78092896  0.79221394  0.19406278  1
  O  O10  1  0.00693342  0.21070926  0.19739029  1
  O  O11  1  0.20742233  0.99252760  0.19736897  1
  O  O12  1  0.86589146  0.35571801  0.63744453  1
  O  O13  1  0.48957213  0.13852996  0.64211426  1
  O  O14  1  0.65696164  0.51153082  0.63783194  1
  O  O15  1  0.85478192  0.50629605  0.14143163  1
  O  O16  1  0.64638901  0.13472498  0.13794563  1
  O  O17  1  0.49149890  0.34715191  0.13715676  1
  O  O18  1  0.47667437  0.31808270  0.02860706  1
  O  O19  1  0.83673045  0.51720582  0.02881825  1
  O  O20  1  0.67102139  0.14783082  0.02930957  1
  O  O21  1  0.48831729  0.15959774  0.52872726  1
  O  O22  1  0.67878919  0.52592013  0.52900996  1
  O  O23  1  0.84702225  0.32993135  0.52906252  1
  O  O24  1  0.58236382  0.69716685  0.97323742  1
  O  O25  1  0.11909773  0.41824575  0.96890606  1
  O  O26  1  0.30139262  0.87780611  0.96585804  1
  O  O27  1  0.58702491  0.88439515  0.47229458  1
  O  O28  1  0.30001535  0.42041334  0.46879650  1
  O  O29  1  0.11757572  0.70087877  0.46875243  1
  O  O30  1  0.08579370  0.63151020  0.36427868  1
  O  O31  1  0.54231559  0.90480166  0.36742797  1
  O  O32  1  0.36239867  0.45424496  0.36377566  1
  O  O33  1  0.08721550  0.45327454  0.86411032  1
  O  O34  1  0.36444646  0.91948222  0.86078787  1
  O  O35  1  0.54366485  0.63801693  0.86797652  1
  O  O36  1  0.99266706  0.82559759  0.40617032  1
  O  O37  1  0.83149483  0.00423791  0.40740177  1
  O  O38  1  0.17497360  0.16780375  0.40726728  1
  O  O39  1  0.99432976  0.16712831  0.90791445  1
  O  O40  1  0.17530332  0.01020944  0.90691645  1
  O  O41  1  0.83050134  0.82504423  0.90932475  1
  O  O42  1  0.95233603  0.17518797  0.58271482  1
  O  O43  1  0.21065766  0.03639336  0.58139842  1
  O  O44  1  0.81669438  0.78628031  0.58369652  1
  O  O45  1  0.95342277  0.78647952  0.08322842  1
  O  O46  1  0.82060809  0.03597602  0.08433870  1
  O  O47  1  0.21825288  0.18291929  0.08333140  1
  O  O48  1  0.69195435  0.18249183  0.74551878  1
  O  O49  1  0.47442738  0.30220779  0.74830597  1
  O  O50  1  0.82664338  0.52499649  0.74588301  1
  O  O51  1  0.69659713  0.52145546  0.24748902  1
  O  O52  1  0.82125347  0.29775304  0.24790617  1
  O  O53  1  0.48156718  0.17956488  0.24655231  1
  O  O54  1  0.67529848  0.51002249  0.92450064  1
  O  O55  1  0.83439233  0.32033584  0.92430636  1
  O  O56  1  0.48896678  0.16706748  0.92437566  1
  O  O57  1  0.67989650  0.16609485  0.42416871  1
  O  O58  1  0.48798413  0.32494381  0.42323638  1
  O  O59  1  0.83273928  0.51215327  0.42481553  1
  O  O60  1  0.38563997  0.49825293  0.08038952  1
  O  O61  1  0.12479100  0.62700437  0.08378941  1
  O  O62  1  0.51100090  0.87311350  0.08190731  1
  O  O63  1  0.38105273  0.87496146  0.58259890  1
  O  O64  1  0.50668315  0.62544268  0.58242504  1
  O  O65  1  0.12207743  0.49073480  0.58090437  1
  O  O66  1  0.33107223  0.86396549  0.25726928  1
  O  O67  1  0.53524836  0.67497880  0.25688504  1
  O  O68  1  0.13550773  0.46515109  0.25672576  1
  O  O69  1  0.32365413  0.46703758  0.75767970  1
  O  O70  1  0.14098049  0.67691407  0.75911912  1
  O  O71  1  0.52082476  0.85806374  0.75510481  1
loop_
_geom_bond_atom_site_label_1
_geom_bond_atom_site_label_2
_geom_bond_distance
_geom_bond_site_symmetry_2
Na0 O71 2.288329 1_555
Na0 O49 2.373838 1_565
Na0 O70 2.539062 1_555
Na0 O48 2.550424 1_565
Na0 O34 2.624181 1_555
Na0 O13 2.723909 1_565
Na0 O3 2.820421 1_565
Na0 O8 2.905158 1_555
Na1 O63 2.264303 1_555
Na1 O42 2.318796 1_565
Na1 O6 2.482222 1_555
Na1 O44 2.499776 1_555
Na1 O64 2.568098 1_555
Na1 O27 2.727873 1_555
Na2 O45 2.258564 1_555
Na2 O60 2.283445 1_555
Na2 O62 2.510988 1_555
Na2 O46 2.535216 1_565
Na2 O24 2.580012 1_554
Na2 O9 2.714392 1_555
Na3 O43 2.438921 1_555
Na3 O38 2.487966 1_555
Na3 O36 2.532450 1_445
Na3 O37 2.696034 1_455
Na3 O44 2.729776 1_445
Na3 O42 2.760847 1_455
Na4 O40 2.476993 1_555
Na4 O39 2.551624 1_455
Na4 O41 2.562153 1_445
Na4 O45 2.605206 1_446
Na4 O47 2.624376 1_556
Na4 O46 2.764764 1_456
Na5 O48 2.494242 1_555
Na5 O50 2.505963 1_555
Na5 O55 2.527403 1_555
Na5 O54 2.567802 1_555
Na5 O49 2.585478 1_555
Na5 O56 2.625513 1_555
Na6 O51 2.499622 1_555
Na6 O52 2.506557 1_555
Na6 O53 2.509841 1_555
Na6 O58 2.569583 1_555
Na6 O57 2.573318 1_555
Na6 O59 2.587047 1_555
Na7 O61 2.409472 1_555
Na7 O68 2.616073 1_555
Na7 O66 2.644150 1_555
Na7 O62 2.690527 1_555
Na7 O60 2.777865 1_555
Na7 O67 2.858944 1_555
Na8 O64 2.603343 1_555
Na8 O63 2.608124 1_555
Na8 O65 2.610703 1_555
Na8 O69 2.632948 1_555
Na8 O71 2.653035 1_555
Na8 O70 2.749257 1_555
Ca0 O8 2.191974 1_545
Ca0 O7 2.192396 1_555
Ca0 O43 2.219203 1_555
Ca0 O6 2.224782 1_445
Ca0 O44 2.293856 1_445
Ca0 O42 2.306899 1_455
Ca1 O11 2.172455 1_545
Ca1 O10 2.207923 1_555
Ca1 O45 2.232531 1_445
Ca1 O47 2.249681 1_555
Ca1 O9 2.252078 1_445
Ca1 O46 2.306539 1_455
Ca2 O61 2.210771 1_555
Ca2 O26 2.261849 1_554
Ca2 O25 2.272804 1_554
Ca2 O62 2.357207 1_555
Ca2 O60 2.375157 1_555
Ca2 O24 2.448156 1_554
Ca3 O63 2.281802 1_555
Ca3 O29 2.284701 1_555
Ca3 O65 2.290516 1_555
Ca3 O28 2.322746 1_555
Ca3 O27 2.357947 1_555
Ca3 O64 2.387346 1_555
Ca4 O32 2.255301 1_555
Ca4 O66 2.269047 1_555
Ca4 O31 2.274475 1_555
Ca4 O30 2.292727 1_555
Ca4 O67 2.297352 1_555
Ca4 O68 2.300220 1_555
Ca5 O35 2.228153 1_555
Ca5 O69 2.262193 1_555
Ca5 O71 2.264919 1_555
Ca5 O33 2.297297 1_555
Ca5 O70 2.311486 1_555
Ca5 O34 2.311823 1_555
Ga0 O2 2.010835 1_455
Ga0 O1 2.031752 1_445
Ga0 O36 2.033627 1_445
Ga0 O0 2.048774 1_555
Ga0 O38 2.062791 1_555
Ga0 O37 2.075576 1_455
Ga1 O5 1.886819 1_555
Ga1 O39 2.022454 1_555
Ga1 O4 2.063428 1_545
Ga1 O3 2.075961 1_655
Ga1 O41 2.079851 1_545
Ga1 O40 2.176364 1_655
Ga2 O13 1.893856 1_555
Ga2 O48 1.947924 1_555
Ga2 O12 1.959920 1_555
Ga2 O14 2.019161 1_555
Ga2 O50 2.150997 1_555
Ga2 O49 2.198950 1_555
Ga3 O15 1.853665 1_555
Ga3 O16 2.007330 1_555
Ga3 O17 2.027583 1_555
Ga3 O52 2.056291 1_555
Ga3 O51 2.096005 1_555
Ga3 O53 2.111170 1_555
Ga4 O19 1.851101 1_556
Ga4 O20 1.968384 1_556
Ga4 O18 1.976919 1_556
Ga4 O55 2.026291 1_555
Ga4 O54 2.026834 1_555
Ga4 O56 2.082983 1_555
Ga5 O21 1.845292 1_555
Ga5 O22 1.968073 1_555
Ga5 O23 1.988207 1_555
Ga5 O58 2.018472 1_555
Ga5 O57 2.053212 1_555
Ga5 O59 2.062819 1_555
O0 S0 1.512711 1_555
O1 S1 1.511080 1_555
O2 S2 1.512519 1_555
O3 S3 1.514968 1_555
O4 S4 1.507695 1_555
O5 P0 1.568373 1_555
O6 P0 1.517320 1_565
O7 S3 1.452861 1_555
O8 S4 1.460099 1_455
O9 S1 1.466707 1_555
O10 S2 1.451070 1_455
O11 S0 1.452400 1_565
O12 S5 1.493292 1_555
O13 P1 1.583980 1_555
O14 S6 1.488946 1_555
O15 P2 1.558329 1_555
O16 S7 1.487580 1_555
O17 S8 1.493161 1_555
O18 S8 1.485476 1_555
O19 P2 1.554366 1_555
O20 S7 1.480952 1_555
O21 P1 1.544023 1_555
O22 S6 1.482440 1_555
O23 S5 1.482665 1_555
O24 S9 1.481223 1_555
O25 S10 1.467996 1_555
O26 S11 1.470401 1_555
O27 S12 1.481630 1_555
O28 S13 1.469107 1_555
O29 S14 1.470721 1_555
O30 S14 1.464924 1_555
O31 S12 1.464819 1_555
O32 S13 1.462945 1_555
O33 S10 1.464538 1_555
O34 S11 1.480217 1_555
O35 S9 1.462566 1_555
O36 S14 1.515245 1_655
O37 S12 1.506917 1_545
O38 S13 1.513461 1_555
O39 S10 1.510013 1_655
O40 S11 1.502847 1_545
O41 S9 1.508185 1_555
O42 S5 1.484034 1_555
O43 P1 1.520093 1_555
O44 S6 1.483442 1_555
O45 P2 1.547414 1_555
O46 S7 1.482567 1_555
O47 S8 1.465007 1_555
O48 P0 1.596031 1_555
O49 S3 1.515252 1_555
O50 S4 1.494865 1_555
O51 S1 1.510950 1_555
O52 S2 1.515881 1_555
O53 S0 1.513042 1_555
O54 S9 1.503986 1_555
O55 S10 1.508237 1_655
O56 S11 1.505330 1_545
O57 S12 1.507520 1_545
O58 S13 1.509024 1_555
O59 S14 1.505677 1_655
O60 S8 1.490721 1_555
O61 P2 1.527505 1_455
O62 S7 1.488455 1_565
O63 P1 1.550870 1_565
O64 S6 1.487784 1_555
O65 S5 1.467599 1_455
O66 S0 1.474251 1_565
O67 S1 1.471246 1_555
O68 S2 1.473919 1_455
O69 S3 1.466307 1_555
O70 S4 1.485730 1_455
O71 P0 1.544291 1_565
