# generated using pymatgen
data_Li5Cr2P5O18
_symmetry_space_group_name_H-M   'P 1'
_cell_length_a   9.31215520
_cell_length_b   10.62896033
_cell_length_c   6.48245954
_cell_angle_alpha   93.03929414
_cell_angle_beta   91.08237840
_cell_angle_gamma   96.02953082
_symmetry_Int_Tables_number   1
_chemical_formula_structural   Li5Cr2P5O18
_chemical_formula_sum   'Li10 Cr4 P10 O36'
_cell_volume   636.98395874
_cell_formula_units_Z   2
loop_
 _symmetry_equiv_pos_site_id
 _symmetry_equiv_pos_as_xyz
  1  'x, y, z'
loop_
 _atom_site_type_symbol
 _atom_site_label
 _atom_site_symmetry_multiplicity
 _atom_site_fract_x
 _atom_site_fract_y
 _atom_site_fract_z
 _atom_site_occupancy
  Li  Li0  1  0.06200400  0.86998400  0.98277500  1
  Li  Li1  1  0.93799800  0.13001600  0.01722200  1
  Li  Li2  1  0.86893400  0.64438200  0.17760800  1
  Li  Li3  1  0.78455800  0.34318800  0.87976000  1
  Li  Li4  1  0.72406200  0.41437300  0.45049500  1
  Li  Li5  1  0.13106600  0.35562100  0.82239600  1
  Li  Li6  1  0.21544500  0.65681200  0.12024100  1
  Li  Li7  1  0.27594100  0.58563000  0.54950400  1
  Li  Li8  1  0.37230800  0.86107400  0.34200100  1
  Li  Li9  1  0.62769400  0.13892500  0.65800100  1
  Cr  Cr0  1  0.76882100  0.94941300  0.33107400  1
  Cr  Cr1  1  0.64191800  0.59836600  0.76831500  1
  Cr  Cr2  1  0.35806500  0.40163700  0.23168400  1
  Cr  Cr3  1  0.23118900  0.05059700  0.66890500  1
  P  P0  1  0.58159200  0.65310600  0.28101600  1
  P  P1  1  0.58217700  0.17545500  0.16742700  1
  P  P2  1  0.72814600  0.89739900  0.83147100  1
  P  P3  1  0.98548000  0.59851200  0.77623600  1
  P  P4  1  0.04771100  0.80054000  0.48244400  1
  P  P5  1  0.01451600  0.40148800  0.22376600  1
  P  P6  1  0.27185500  0.10259900  0.16852700  1
  P  P7  1  0.41782300  0.82454800  0.83257500  1
  P  P8  1  0.41840700  0.34689300  0.71898400  1
  P  P9  1  0.95229200  0.19946000  0.51755800  1
  O  O0  1  0.31986900  0.81447800  0.01534700  1
  O  O1  1  0.96483600  0.68137300  0.58082800  1
  O  O2  1  0.92313600  0.09617100  0.34038200  1
  O  O3  1  0.98409600  0.31424700  0.02890200  1
  O  O4  1  0.01590300  0.68575300  0.97110000  1
  O  O5  1  0.07686800  0.90383000  0.65961700  1
  O  O6  1  0.03516300  0.31862900  0.41917400  1
  O  O7  1  0.06755800  0.16697300  0.67669600  1
  O  O8  1  0.10930700  0.52128100  0.72962000  1
  O  O9  1  0.18121100  0.75452300  0.38605200  1
  O  O10  1  0.16504700  0.48014200  0.22014800  1
  O  O11  1  0.17534300  0.04542200  0.98314200  1
  O  O12  1  0.89069300  0.47872100  0.27038200  1
  O  O13  1  0.24702700  0.23727500  0.22779300  1
  O  O14  1  0.37235500  0.91396100  0.66759100  1
  O  O15  1  0.25596900  0.02053300  0.35657700  1
  O  O16  1  0.33845900  0.38346900  0.91767500  1
  O  O17  1  0.93244600  0.83302800  0.32330400  1
  O  O18  1  0.42003900  0.59724900  0.25738100  1
  O  O19  1  0.45123400  0.69382200  0.73692400  1
  O  O20  1  0.40365100  0.19992200  0.67805600  1
  O  O21  1  0.42996800  0.10148600  0.07888800  1
  O  O22  1  0.57003400  0.89851300  0.92111200  1
  O  O23  1  0.59634900  0.80007700  0.32194600  1
  O  O24  1  0.54876200  0.30617600  0.26307800  1
  O  O25  1  0.57995800  0.40274900  0.74262100  1
  O  O26  1  0.65214100  0.58662800  0.45926200  1
  O  O27  1  0.66153800  0.61652800  0.08232500  1
  O  O28  1  0.74403300  0.97946300  0.64342200  1
  O  O29  1  0.62764900  0.08603900  0.33240800  1
  O  O30  1  0.75296800  0.76272100  0.77220900  1
  O  O31  1  0.68013200  0.18552300  0.98465300  1
  O  O32  1  0.82466100  0.95457600  0.01685400  1
  O  O33  1  0.83494900  0.51985900  0.77985100  1
  O  O34  1  0.81879100  0.24547400  0.61395100  1
  O  O35  1  0.34785600  0.41337000  0.54073800  1
loop_
_geom_bond_atom_site_label_1
_geom_bond_atom_site_label_2
_geom_bond_distance
_geom_bond_site_symmetry_2
Li0 O4 1.957285 1_555
Li0 O11 2.043797 1_565
Li0 O5 2.148818 1_555
Li0 O32 2.481323 1_456
Li0 O0 2.539776 1_556
Li0 O17 2.564325 1_456
Li1 O3 1.957281 1_555
Li1 O32 2.043807 1_545
Li1 O2 2.148827 1_555
Li1 O11 2.481351 1_654
Li1 O31 2.539787 1_554
Li1 O7 2.564318 1_654
Li2 O12 1.919848 1_555
Li2 O4 1.965629 1_654
Li2 O27 2.003626 1_555
Li2 O17 2.188887 1_555
Li3 O31 2.004942 1_555
Li3 O34 2.012437 1_555
Li3 O33 2.030080 1_555
Li3 O3 2.136757 1_556
Li3 O25 2.251716 1_555
Li4 O26 2.012947 1_555
Li4 O12 2.041800 1_555
Li4 O24 2.201342 1_555
Li4 O25 2.342665 1_555
Li4 O34 2.371246 1_555
Li4 O33 2.510256 1_555
Li5 O8 1.919843 1_555
Li5 O3 1.965632 1_456
Li5 O16 2.003591 1_555
Li5 O7 2.188909 1_555
Li6 O0 2.004945 1_555
Li6 O9 2.012435 1_555
Li6 O10 2.030075 1_555
Li6 O4 2.136787 1_554
Li6 O18 2.251678 1_555
Li7 O35 2.012973 1_555
Li7 O8 2.041835 1_555
Li7 O19 2.201286 1_555
Li7 O18 2.342614 1_555
Li7 O9 2.371186 1_555
Li7 O10 2.510286 1_555
Li8 O9 2.039846 1_555
Li8 O15 2.104252 1_565
Li8 O14 2.155186 1_555
Li8 O0 2.183245 1_555
Li8 O23 2.252860 1_555
Li9 O34 2.039834 1_555
Li9 O28 2.104279 1_545
Li9 O29 2.155204 1_555
Li9 O31 2.183234 1_555
Li9 O20 2.252878 1_555
Cr0 O2 2.004419 1_565
Cr0 O28 2.054170 1_555
Cr0 O29 2.058473 1_565
Cr0 O17 2.060770 1_555
Cr0 O32 2.113838 1_555
Cr0 O23 2.133864 1_555
Cr1 O30 1.933026 1_555
Cr1 O26 2.005375 1_555
Cr1 O27 2.037403 1_556
Cr1 O33 2.061475 1_555
Cr1 O25 2.095558 1_555
Cr1 O19 2.147226 1_555
Cr2 O13 1.933041 1_555
Cr2 O35 2.005371 1_555
Cr2 O16 2.037391 1_554
Cr2 O10 2.061353 1_555
Cr2 O18 2.095529 1_555
Cr2 O24 2.147364 1_555
Cr3 O5 2.004525 1_545
Cr3 O15 2.054049 1_555
Cr3 O14 2.058518 1_545
Cr3 O7 2.060751 1_555
Cr3 O11 2.113966 1_555
Cr3 O20 2.133720 1_555
O0 P7 1.510313 1_554
O1 P4 1.582899 1_655
O1 P3 1.600593 1_555
O2 P9 1.545970 1_555
O3 P5 1.530638 1_655
O4 P3 1.530641 1_455
O5 P4 1.545964 1_555
O6 P9 1.582900 1_455
O6 P5 1.600585 1_555
O7 P9 1.552219 1_455
O8 P3 1.510137 1_455
O9 P4 1.516521 1_555
O10 P5 1.556131 1_555
O11 P6 1.545403 1_556
O12 P5 1.510120 1_655
O13 P6 1.504898 1_555
O14 P7 1.549682 1_555
O15 P6 1.536632 1_555
O16 P8 1.551868 1_555
O17 P4 1.552224 1_655
O18 P0 1.559873 1_555
O19 P7 1.555209 1_555
O20 P8 1.561781 1_555
O21 P6 1.594030 1_555
O21 P1 1.625995 1_555
O22 P2 1.594027 1_555
O22 P7 1.625991 1_555
O23 P0 1.561782 1_555
O24 P1 1.555172 1_555
O25 P8 1.559853 1_555
O26 P0 1.556088 1_555
O27 P0 1.551864 1_555
O28 P2 1.536614 1_555
O29 P1 1.549702 1_555
O30 P2 1.504898 1_555
O31 P1 1.510328 1_556
O32 P2 1.545408 1_554
O33 P3 1.556125 1_555
O34 P9 1.516519 1_555
O35 P8 1.556091 1_555
