# generated using pymatgen
data_Rb2PtCl6
_symmetry_space_group_name_H-M   'P 1'
_cell_length_a   7.05313583
_cell_length_b   7.05313572
_cell_length_c   7.05313591
_cell_angle_alpha   59.99999917
_cell_angle_beta   59.99999965
_cell_angle_gamma   59.99999926
_symmetry_Int_Tables_number   1
_chemical_formula_structural   Rb2PtCl6
_chemical_formula_sum   'Rb2 Pt1 Cl6'
_cell_volume   248.10284070
_cell_formula_units_Z   1
loop_
 _symmetry_equiv_pos_site_id
 _symmetry_equiv_pos_as_xyz
  1  'x, y, z'
loop_
 _atom_site_type_symbol
 _atom_site_label
 _atom_site_symmetry_multiplicity
 _atom_site_fract_x
 _atom_site_fract_y
 _atom_site_fract_z
 _atom_site_occupancy
  Rb  Rb0  1  0.25000000  0.25000000  0.25000000  1
  Rb  Rb1  1  0.75000000  0.75000000  0.75000000  1
  Pt  Pt0  1  0.00000000  -0.00000000  0.00000000  1
  Cl  Cl0  1  0.23413952  0.76586048  0.76586048  1
  Cl  Cl1  1  0.23413952  0.76586048  0.23413952  1
  Cl  Cl2  1  0.76586048  0.23413952  0.76586048  1
  Cl  Cl3  1  0.76586048  0.23413952  0.23413952  1
  Cl  Cl4  1  0.76586048  0.76586048  0.23413952  1
  Cl  Cl5  1  0.23413952  0.23413952  0.76586048  1
loop_
_geom_bond_atom_site_label_1
_geom_bond_atom_site_label_2
_geom_bond_distance
_geom_bond_site_symmetry_2
Cl0 Pt0 2.335457 1_566
Cl0 Rb0 3.530115 1_556
Cl0 Rb0 3.530115 1_565
Cl0 Rb1 3.530115 1_555
Cl0 Rb1 3.530115 1_455
Cl1 Pt0 2.335457 1_565
Cl1 Rb0 3.530115 1_555
Cl1 Rb0 3.530115 1_565
Cl1 Rb1 3.530115 1_554
Cl1 Rb1 3.530115 1_455
Cl2 Pt0 2.335457 1_656
Cl2 Rb1 3.530115 1_555
Cl2 Rb1 3.530115 1_545
Cl2 Rb0 3.530115 1_556
Cl2 Rb0 3.530115 1_655
Cl3 Pt0 2.335457 1_655
Cl3 Rb1 3.530115 1_554
Cl3 Rb1 3.530115 1_545
Cl3 Rb0 3.530115 1_555
Cl3 Rb0 3.530115 1_655
Cl4 Pt0 2.335457 1_665
Cl4 Rb0 3.530115 1_655
Cl4 Rb0 3.530115 1_565
Cl4 Rb1 3.530115 1_554
Cl4 Rb1 3.530115 1_555
Cl5 Pt0 2.335457 1_556
Cl5 Rb1 3.530115 1_455
Cl5 Rb1 3.530115 1_545
Cl5 Rb0 3.530115 1_556
Cl5 Rb0 3.530115 1_555
