# generated using pymatgen
data_NaYGaP(SO6)2
_symmetry_space_group_name_H-M   'P 1'
_cell_length_a   8.80781564
_cell_length_b   8.80133988
_cell_length_c   23.20930027
_cell_angle_alpha   90.14135840
_cell_angle_beta   89.59064933
_cell_angle_gamma   119.80050460
_symmetry_Int_Tables_number   1
_chemical_formula_structural   NaYGaP(SO6)2
_chemical_formula_sum   'Na6 Y6 Ga6 P6 S12 O72'
_cell_volume   1561.23327444
_cell_formula_units_Z   6
loop_
 _symmetry_equiv_pos_site_id
 _symmetry_equiv_pos_as_xyz
  1  'x, y, z'
loop_
 _atom_site_type_symbol
 _atom_site_label
 _atom_site_symmetry_multiplicity
 _atom_site_fract_x
 _atom_site_fract_y
 _atom_site_fract_z
 _atom_site_occupancy
  Na  Na0  1  0.98866856  0.99230843  0.49990366  1
  Na  Na1  1  0.00763405  0.98588475  0.99948934  1
  Na  Na2  1  0.65535625  0.30839716  0.82791429  1
  Na  Na3  1  0.65374634  0.31379430  0.33879691  1
  Na  Na4  1  0.31828129  0.67396711  0.16446622  1
  Na  Na5  1  0.34759642  0.67211563  0.66012424  1
  Y  Y0  1  0.99667108  0.00107761  0.84970882  1
  Y  Y1  1  0.00595810  0.99422652  0.14727560  1
  Y  Y2  1  0.66461676  0.33182197  0.18629868  1
  Y  Y3  1  0.66620577  0.33188437  0.98025277  1
  Y  Y4  1  0.33779326  0.68044185  0.32191787  1
  Y  Y5  1  0.34108250  0.67924729  0.80658274  1
  Ga  Ga0  1  0.99886366  0.00078371  0.35535405  1
  Ga  Ga1  1  0.97998426  0.98484008  0.64402502  1
  Ga  Ga2  1  0.66432909  0.33065107  0.67781518  1
  Ga  Ga3  1  0.67216520  0.33371835  0.48731984  1
  Ga  Ga4  1  0.32107537  0.67559822  0.01643368  1
  Ga  Ga5  1  0.36838896  0.67691205  0.51709446  1
  P  P0  1  0.28927866  0.00646287  0.25768223  1
  P  P1  1  0.71482129  0.01957128  0.74036060  1
  P  P2  1  0.66717324  0.61694211  0.58263029  1
  P  P3  1  0.97845687  0.63047201  0.08068688  1
  P  P4  1  0.32718462  0.95533400  0.91815885  1
  P  P5  1  0.64411384  0.97746708  0.42190409  1
  S  S0  1  0.71183590  0.70987918  0.25592427  1
  S  S1  1  -0.00136101  0.28826092  0.25573735  1
  S  S2  1  0.29698558  0.28333955  0.74027131  1
  S  S3  1  0.98424514  0.69835620  0.74105247  1
  S  S4  1  0.96375063  0.33567942  0.58247767  1
  S  S5  1  0.37234290  0.03816367  0.58246967  1
  S  S6  1  0.65312164  0.01721835  0.08101466  1
  S  S7  1  0.36615542  0.35167302  0.08061784  1
  S  S8  1  0.61819031  0.67139768  0.91976518  1
  S  S9  1  0.05243044  0.37983167  0.91829720  1
  S  S10  1  0.33581397  0.36631725  0.42237527  1
  S  S11  1  0.03114087  0.66530961  0.42363235  1
  O  O0  1  0.18860370  0.01584300  0.31187207  1
  O  O1  1  0.81318053  0.80190465  0.30770879  1
  O  O2  1  0.98033328  0.18166140  0.30748454  1
  O  O3  1  0.22453095  0.18880933  0.79560820  1
  O  O4  1  0.96458737  0.77477324  0.79573230  1
  O  O5  1  0.81277453  0.04283504  0.79746884  1
  O  O6  1  0.80886047  0.99149522  0.68879213  1
  O  O7  1  0.18493036  0.19029957  0.69076342  1
  O  O8  1  0.01581990  0.81562081  0.69131055  1
  O  O9  1  0.78840085  0.80661400  0.20197702  1
  O  O10  1  0.01009968  0.20729091  0.20153030  1
  O  O11  1  0.19494454  0.99352689  0.20111833  1
  O  O12  1  0.88178461  0.36414052  0.63472115  1
  O  O13  1  0.48205517  0.11487996  0.63466334  1
  O  O14  1  0.63421224  0.50266394  0.63686029  1
  O  O15  1  0.88948068  0.52712508  0.13630151  1
  O  O16  1  0.63027469  0.09960236  0.13388288  1
  O  O17  1  0.46610196  0.36668428  0.13367740  1
  O  O18  1  0.44705654  0.31856569  0.03009278  1
  O  O19  1  0.86893051  0.54110652  0.02766312  1
  O  O20  1  0.67576100  0.12432931  0.02991104  1
  O  O21  1  0.45346068  0.14968335  0.53081400  1
  O  O22  1  0.69584384  0.53172570  0.52864479  1
  O  O23  1  0.85087852  0.30120107  0.53107917  1
  O  O24  1  0.52490256  0.67787565  0.97208887  1
  O  O25  1  0.15223465  0.46684005  0.97092211  1
  O  O26  1  0.31723532  0.85197619  0.97327011  1
  O  O27  1  0.55706066  0.85020431  0.47385354  1
  O  O28  1  0.30461635  0.45514695  0.47273679  1
  O  O29  1  0.14964500  0.69273224  0.47267987  1
  O  O30  1  0.09858789  0.63071152  0.36934956  1
  O  O31  1  0.53233888  0.90653729  0.36772786  1
  O  O32  1  0.36601434  0.46947422  0.36912044  1
  O  O33  1  0.13867161  0.47265562  0.86487365  1
  O  O34  1  0.33954307  0.86627011  0.86284066  1
  O  O35  1  0.52445587  0.65691433  0.86591587  1
  O  O36  1  0.01423403  0.82551812  0.41675271  1
  O  O37  1  0.82826994  0.99372827  0.41196222  1
  O  O38  1  0.17618495  0.19091038  0.41682250  1
  O  O39  1  0.03223024  0.20229624  0.91812700  1
  O  O40  1  0.16027887  0.97059614  0.91671474  1
  O  O41  1  0.79187220  0.83309632  0.91848655  1
  O  O42  1  0.98436816  0.17672770  0.58853671  1
  O  O43  1  0.19511235  0.01986724  0.58985633  1
  O  O44  1  0.83220308  0.80387483  0.58883166  1
  O  O45  1  0.00463630  0.81708869  0.08222437  1
  O  O46  1  0.81025121  -0.00056071  0.08513764  1
  O  O47  1  0.18602828  0.20131645  0.08473394  1
  O  O48  1  0.69646707  0.18591433  0.73312626  1
  O  O49  1  0.47463612  0.30287448  0.73542720  1
  O  O50  1  0.82362760  0.52609343  0.73529903  1
  O  O51  1  0.70266588  0.53745157  0.25350262  1
  O  O52  1  0.84020350  0.30735420  0.25399422  1
  O  O53  1  0.47178615  0.17232804  0.25585815  1
  O  O54  1  0.64297359  0.51726209  0.92054873  1
  O  O55  1  0.87678564  0.36308342  0.91886655  1
  O  O56  1  0.49149025  0.13834399  0.91824287  1
  O  O57  1  0.66331869  0.16046314  0.43360309  1
  O  O58  1  0.49273855  0.34685122  0.43052193  1
  O  O59  1  0.85345909  0.50934839  0.43125511  1
  O  O60  1  0.36141909  0.51541803  0.07428319  1
  O  O61  1  0.16031037  0.64248089  0.07680769  1
  O  O62  1  0.49590650  0.84245719  0.07614180  1
  O  O63  1  0.35364670  0.85973133  0.57486819  1
  O  O64  1  0.50067740  0.63872331  0.57578584  1
  O  O65  1  0.13865936  0.49475088  0.57497738  1
  O  O66  1  0.30713009  0.84070443  0.25847859  1
  O  O67  1  0.53262102  0.68343788  0.25856439  1
  O  O68  1  0.15761815  0.46228382  0.25911998  1
  O  O69  1  0.31369151  0.45969954  0.74408691  1
  O  O70  1  0.13932726  0.67440195  0.74445035  1
  O  O71  1  0.53086079  0.85501608  0.74311474  1
loop_
_geom_bond_atom_site_label_1
_geom_bond_atom_site_label_2
_geom_bond_distance
_geom_bond_site_symmetry_2
Na0 O37 2.494163 1_555
Na0 O36 2.497689 1_655
Na0 O38 2.569623 1_665
Na0 O44 2.571794 1_555
Na0 O42 2.628922 1_565
Na0 O43 2.708714 1_665
Na1 O40 2.378680 1_555
Na1 O45 2.422687 1_556
Na1 O41 2.540227 1_455
Na1 O39 2.615823 1_565
Na1 O47 2.653864 1_566
Na1 O46 2.672779 1_466
Na2 O48 2.549112 1_555
Na2 O56 2.558023 1_555
Na2 O49 2.667425 1_555
Na2 O55 2.759022 1_555
Na2 O50 2.764139 1_555
Na2 O54 2.861827 1_555
Na3 O53 2.423443 1_555
Na3 O52 2.572924 1_555
Na3 O57 2.607758 1_555
Na3 O58 2.644191 1_555
Na3 O51 2.672727 1_555
Na3 O59 2.772690 1_555
Na4 O61 2.409628 1_555
Na4 O62 2.551893 1_555
Na4 O60 2.640806 1_555
Na4 O66 2.654919 1_555
Na4 O68 2.766765 1_555
Na4 O67 2.870929 1_555
Na5 O64 2.467628 1_555
Na5 O71 2.520578 1_555
Na5 O63 2.563604 1_555
Na5 O69 2.614690 1_555
Na5 O65 2.628722 1_555
Na5 O70 2.679748 1_555
Ga0 O0 1.893492 1_655
Ga0 O37 1.966508 1_545
Ga0 O2 2.016168 1_555
Ga0 O1 2.032812 1_545
Ga0 O36 2.156319 1_645
Ga0 O38 2.167273 1_655
Ga1 O6 1.849267 1_555
Ga1 O44 1.955794 1_555
Ga1 O8 2.000625 1_655
Ga1 O42 2.111283 1_565
Ga1 O7 2.116360 1_665
Ga1 O43 2.157126 1_665
Ga2 O14 1.917232 1_555
Ga2 O48 1.929386 1_555
Ga2 O12 2.041714 1_555
Ga2 O13 2.042085 1_555
Ga2 O49 2.050098 1_555
Ga2 O50 2.079427 1_555
Ga3 O22 1.906270 1_555
Ga3 O57 1.938959 1_555
Ga3 O23 2.015728 1_555
Ga3 O59 2.039418 1_555
Ga3 O21 2.057248 1_555
Ga3 O58 2.112044 1_555
Ga4 O26 1.864112 1_554
Ga4 O61 1.901809 1_555
Ga4 O25 2.000034 1_554
Ga4 O24 2.054413 1_554
Ga4 O62 2.054513 1_555
Ga4 O60 2.104898 1_555
Ga5 O27 1.886647 1_555
Ga5 O64 1.933999 1_555
Ga5 O28 2.023281 1_555
Ga5 O63 2.144396 1_555
Ga5 O29 2.256045 1_555
Ga5 O65 2.284020 1_555
O0 P0 1.559245 1_555
O1 S0 1.479604 1_555
O2 S1 1.483619 1_655
O3 S2 1.488217 1_555
O3 Y0 2.238909 1_455
O4 S3 1.483676 1_555
O4 Y0 2.247163 1_565
O5 P1 1.543529 1_555
O5 Y0 2.202403 1_555
O6 P1 1.538641 1_565
O7 S2 1.474176 1_555
O8 S3 1.480322 1_455
O9 S0 1.473043 1_555
O9 Y1 2.200191 1_655
O10 S1 1.471785 1_555
O10 Y1 2.241547 1_545
O11 P0 1.532190 1_565
O11 Y1 2.091021 1_555
O12 S4 1.489944 1_555
O13 S5 1.490398 1_555
O14 P2 1.546248 1_555
O15 P3 1.546102 1_555
O15 Y2 2.194761 1_555
O16 S6 1.486262 1_555
O16 Y2 2.264343 1_555
O17 S7 1.485940 1_555
O17 Y2 2.282222 1_555
O18 S7 1.469870 1_555
O18 Y3 2.195781 1_554
O19 P3 1.523730 1_555
O19 Y3 2.130690 1_554
O20 S6 1.466478 1_555
O20 Y3 2.199333 1_554
O21 S5 1.485843 1_555
O22 P2 1.541206 1_555
O23 S4 1.489563 1_555
O24 S8 1.478209 1_555
O25 S9 1.480736 1_555
O26 P4 1.547965 1_555
O27 P5 1.560783 1_555
O28 S10 1.502467 1_555
O29 S11 1.486196 1_555
O30 S11 1.483278 1_555
O30 Y4 2.212471 1_555
O31 P5 1.530658 1_555
O31 Y4 2.157042 1_555
O32 S10 1.477694 1_555
O32 Y4 2.276481 1_555
O33 S9 1.468523 1_555
O33 Y5 2.251766 1_555
O34 P4 1.533805 1_555
O34 Y5 2.103774 1_555
O35 S8 1.472828 1_555
O35 Y5 2.211846 1_555
O36 S11 1.498688 1_555
O37 P5 1.571218 1_555
O38 S10 1.490267 1_555
O39 S9 1.482188 1_555
O39 Y0 2.279905 1_455
O40 P4 1.541847 1_555
O40 Y0 2.232801 1_465
O41 S8 1.483928 1_555
O41 Y0 2.303797 1_565
O42 S4 1.504584 1_555
O43 S5 1.496176 1_555
O44 P2 1.570094 1_555
O45 P3 1.541285 1_455
O45 Y1 2.163526 1_555
O46 S6 1.471813 1_555
O46 Y1 2.273269 1_645
O47 S7 1.479540 1_555
O47 Y1 2.247532 1_545
O48 P1 1.560319 1_555
O49 S2 1.490204 1_555
O50 S3 1.479069 1_555
O51 S0 1.480063 1_555
O51 Y2 2.282819 1_555
O52 S1 1.486991 1_655
O52 Y2 2.296548 1_555
O53 P0 1.543946 1_555
O53 Y2 2.250280 1_555
O54 S8 1.477451 1_555
O54 Y3 2.229593 1_555
O55 S9 1.479293 1_655
O55 Y3 2.236805 1_555
O56 P4 1.540085 1_545
O56 Y3 2.180616 1_555
O57 P5 1.556955 1_545
O58 S10 1.488202 1_555
O59 S11 1.492215 1_655
O60 S7 1.470114 1_555
O61 P3 1.553878 1_455
O62 S6 1.476634 1_565
O63 S5 1.505502 1_565
O64 P2 1.579687 1_555
O65 S4 1.489058 1_455
O66 P0 1.543249 1_565
O66 Y4 2.150583 1_555
O67 S0 1.477535 1_555
O67 Y4 2.242004 1_555
O68 S1 1.477171 1_555
O68 Y4 2.306508 1_555
O69 S2 1.487052 1_555
O69 Y5 2.328895 1_555
O70 S3 1.484691 1_455
O70 Y5 2.280378 1_555
O71 P1 1.547089 1_565
O71 Y5 2.182410 1_555
