# generated using pymatgen
data_MgV3CoO8
_symmetry_space_group_name_H-M   'P 1'
_cell_length_a   5.69977717
_cell_length_b   6.70699323
_cell_length_c   5.40737613
_cell_angle_alpha   89.98120580
_cell_angle_beta   89.30854037
_cell_angle_gamma   93.07082128
_symmetry_Int_Tables_number   1
_chemical_formula_structural   MgV3CoO8
_chemical_formula_sum   'Mg1 V3 Co1 O8'
_cell_volume   206.40320266
_cell_formula_units_Z   1
loop_
 _symmetry_equiv_pos_site_id
 _symmetry_equiv_pos_as_xyz
  1  'x, y, z'
loop_
 _atom_site_type_symbol
 _atom_site_label
 _atom_site_symmetry_multiplicity
 _atom_site_fract_x
 _atom_site_fract_y
 _atom_site_fract_z
 _atom_site_occupancy
  Mg  Mg0  1  0.42143900  0.13232900  0.49182500  1
  V  V0  1  0.09250000  0.11907500  0.00157300  1
  V  V1  1  0.41147600  0.64192900  0.49664100  1
  V  V2  1  0.59492200  0.39812600  0.99817500  1
  Co  Co0  1  0.91530900  0.85628400  0.50605800  1
  O  O0  1  0.11413600  0.06909200  0.32290300  1
  O  O1  1  0.11006600  0.63487400  0.46152200  1
  O  O2  1  0.37661500  0.18100900  0.85830600  1
  O  O3  1  0.49712600  0.60992300  0.81925200  1
  O  O4  1  0.51088900  0.39996600  0.34349500  1
  O  O5  1  0.58417600  0.88014000  0.42921400  1
  O  O6  1  0.90655400  0.31182200  0.95358900  1
  O  O7  1  0.97669300  0.91543200  0.85543200  1
loop_
_geom_bond_atom_site_label_1
_geom_bond_atom_site_label_2
_geom_bond_distance
_geom_bond_site_symmetry_2
Mg0 O5 1.999206 1_545
Mg0 O4 2.004137 1_555
Mg0 O0 2.010340 1_555
Mg0 O2 2.023895 1_555
Co0 O1 1.914645 1_655
Co0 O5 1.952363 1_555
Co0 O7 1.962250 1_555
Co0 O0 2.025102 1_665
O0 V0 1.776485 1_555
O1 V1 1.728841 1_555
O2 V0 1.814546 1_556
O2 V2 2.017459 1_555
O3 V1 1.832798 1_555
O3 V2 1.833469 1_555
O4 V2 1.922327 1_554
O4 V1 1.930946 1_555
O5 V1 1.864650 1_555
O6 V0 1.736384 1_656
O6 V2 1.910000 1_555
O7 V0 1.685936 1_666
