# generated using pymatgen
data_InSnP(SO6)2
_symmetry_space_group_name_H-M   'P 1'
_cell_length_a   8.81408215
_cell_length_b   8.82487893
_cell_length_c   23.02657001
_cell_angle_alpha   89.82884828
_cell_angle_beta   90.00000000
_cell_angle_gamma   119.95953687
_symmetry_Int_Tables_number   1
_chemical_formula_structural   InSnP(SO6)2
_chemical_formula_sum   'In6 Sn6 P6 S12 O72'
_cell_volume   1551.74403079
_cell_formula_units_Z   6
loop_
 _symmetry_equiv_pos_site_id
 _symmetry_equiv_pos_as_xyz
  1  'x, y, z'
loop_
 _atom_site_type_symbol
 _atom_site_label
 _atom_site_symmetry_multiplicity
 _atom_site_fract_x
 _atom_site_fract_y
 _atom_site_fract_z
 _atom_site_occupancy
  In  In0  1  0.00056835  0.00127654  0.35441778  1
  In  In1  1  0.00070819  0.00127654  0.85441778  1
  In  In2  1  0.67890670  0.34131657  0.68821032  1
  In  In3  1  0.66241087  0.34131657  0.18821032  1
  In  In4  1  0.32899661  0.65400985  0.02098459  1
  In  In5  1  0.32501224  0.65400985  0.52098459  1
  Sn  Sn0  1  0.00033742  0.00108546  0.64706245  1
  Sn  Sn1  1  0.00074804  0.00108546  0.14706245  1
  Sn  Sn2  1  0.66520601  0.33270918  0.98060931  1
  Sn  Sn3  1  0.66750417  0.33270918  0.48060931  1
  Sn  Sn4  1  0.34389681  0.66153825  0.31366036  1
  Sn  Sn5  1  0.31764044  0.66153825  0.81366036  1
  P  P0  1  0.71366080  0.71574169  0.25063543  1
  P  P1  1  0.00208089  0.71574169  0.75063543  1
  P  P2  1  0.95406846  0.32753715  0.58357362  1
  P  P3  1  0.37346970  0.32753715  0.08357362  1
  P  P4  1  0.03633748  0.37258710  0.91746277  1
  P  P5  1  0.33624862  0.37258710  0.41746277  1
  S  S0  1  0.29159880  0.99367504  0.25115444  1
  S  S1  1  0.00135317  0.29496481  0.24998806  1
  S  S2  1  0.29361163  0.29496481  0.74998806  1
  S  S3  1  0.70207624  0.99367504  0.75115444  1
  S  S4  1  0.37431609  0.04226506  0.58410637  1
  S  S5  1  0.66968810  0.62779908  0.58374949  1
  S  S6  1  0.95811199  0.62779908  0.08374949  1
  S  S7  1  0.66794997  0.04226506  0.08410637  1
  S  S8  1  0.62218768  0.66447834  0.91622442  1
  S  S9  1  0.33760821  0.95934384  0.91781105  1
  S  S10  1  0.62173462  0.95934384  0.41781105  1
  S  S11  1  0.04228966  0.66447834  0.41622442  1
  O  O0  1  0.21572539  0.02765425  0.30230922  1
  O  O1  1  0.82341541  0.79693831  0.30462923  1
  O  O2  1  0.97148897  0.18905486  0.30211888  1
  O  O3  1  0.21756589  0.18905486  0.80211888  1
  O  O4  1  0.97352290  0.79693831  0.80462923  1
  O  O5  1  0.81192886  0.02765425  0.80230922  1
  O  O6  1  0.77899158  0.96139507  0.69747539  1
  O  O7  1  0.18090367  0.21971737  0.69705741  1
  O  O8  1  0.03786929  0.83090427  0.69424466  1
  O  O9  1  0.79303497  0.83090427  0.19424466  1
  O  O10  1  0.03881370  0.21971737  0.19705741  1
  O  O11  1  0.18240349  0.96139507  0.19747539  1
  O  O12  1  0.87339844  0.35773033  0.63718647  1
  O  O13  1  0.47973810  0.12099789  0.63626705  1
  O  O14  1  0.63454358  0.51790306  0.63538987  1
  O  O15  1  0.88336048  0.51790306  0.13538987  1
  O  O16  1  0.64126079  0.12099789  0.13626705  1
  O  O17  1  0.48433289  0.35773033  0.13718647  1
  O  O18  1  0.45404623  0.29240592  0.02749381  1
  O  O19  1  0.84780182  0.55117218  0.03048158  1
  O  O20  1  0.70386778  0.15375594  0.03060792  1
  O  O21  1  0.44988916  0.15375594  0.53060792  1
  O  O22  1  0.70337136  0.55117218  0.53048158  1
  O  O23  1  0.83836069  0.29240592  0.52749381  1
  O  O24  1  0.54700078  0.69698831  0.96839854  1
  O  O25  1  0.14920290  0.45355756  0.97080762  1
  O  O26  1  0.31036532  0.85252197  0.96997487  1
  O  O27  1  0.54215565  0.85252197  0.46997487  1
  O  O28  1  0.30435366  0.45355756  0.47080762  1
  O  O29  1  0.14998653  0.69698831  0.46839854  1
  O  O30  1  0.12130374  0.63328491  0.36284597  1
  O  O31  1  0.51075286  0.88452031  0.36429676  1
  O  O32  1  0.37435103  0.48964453  0.36169074  1
  O  O33  1  0.11529250  0.48964453  0.86169074  1
  O  O34  1  0.37376645  0.88452031  0.86429676  1
  O  O35  1  0.51198018  0.63328491  0.86284597  1
  O  O36  1  0.02026915  0.81641941  0.40915074  1
  O  O37  1  0.79437911  0.97794616  0.41024937  1
  O  O38  1  0.17751456  0.19381610  0.40768609  1
  O  O39  1  0.01630155  0.19381610  0.90768609  1
  O  O40  1  0.18356705  0.97794616  0.91024937  1
  O  O41  1  0.79615026  0.81641941  0.90915074  1
  O  O42  1  0.97136819  0.16015306  0.59146180  1
  O  O43  1  0.19789876  0.02643642  0.59001645  1
  O  O44  1  0.83122467  0.80172136  0.59033913  1
  O  O45  1  0.97049670  0.80172136  0.09033913  1
  O  O46  1  0.82853766  0.02643642  0.09001645  1
  O  O47  1  0.18878486  0.16015306  0.09146180  1
  O  O48  1  0.67758152  0.14449054  0.74296315  1
  O  O49  1  0.46557400  0.31130545  0.74083812  1
  O  O50  1  0.84263719  0.53565394  0.74354319  1
  O  O51  1  0.69301775  0.53565394  0.24354319  1
  O  O52  1  0.84573245  0.31130545  0.24083812  1
  O  O53  1  0.46691002  0.14449054  0.24296315  1
  O  O54  1  0.63608351  0.50320260  0.92301414  1
  O  O55  1  0.85299468  0.35811161  0.92555495  1
  O  O56  1  0.49767591  0.13524460  0.92344043  1
  O  O57  1  0.63756968  0.13524460  0.42344043  1
  O  O58  1  0.50511792  0.35811161  0.42555495  1
  O  O59  1  0.86712009  0.50320260  0.42301414  1
  O  O60  1  0.35474843  0.48790274  0.07623019  1
  O  O61  1  0.13380356  0.65269642  0.07593191  1
  O  O62  1  0.51311066  0.87014608  0.07515061  1
  O  O63  1  0.35703442  0.87014608  0.57515061  1
  O  O64  1  0.51889186  0.65269642  0.57593191  1
  O  O65  1  0.13315331  0.48790274  0.57623019  1
  O  O66  1  0.30315114  0.83115482  0.25887531  1
  O  O67  1  0.52948331  0.70097032  0.25587561  1
  O  O68  1  0.15963318  0.47215338  0.25675238  1
  O  O69  1  0.31251919  0.47215338  0.75675238  1
  O  O70  1  0.17148601  0.70097032  0.75587561  1
  O  O71  1  0.52800268  0.83115482  0.75887531  1
loop_
_geom_bond_atom_site_label_1
_geom_bond_atom_site_label_2
_geom_bond_distance
_geom_bond_site_symmetry_2
In0 O38 2.046871 1_555
In0 O1 2.050445 1_445
In0 O36 2.133181 1_545
In0 O37 2.150050 1_445
In0 O0 2.155853 1_555
In0 O2 2.162010 1_455
In1 O39 2.046871 1_555
In1 O4 2.050445 1_445
In1 O41 2.133181 1_445
In1 O40 2.150050 1_545
In1 O5 2.155853 1_455
In1 O3 2.162010 1_555
In2 O12 2.022638 1_555
In2 O50 2.046552 1_555
In2 O48 2.138546 1_555
In2 O49 2.138934 1_555
In2 O14 2.158232 1_555
In2 O13 2.213025 1_555
In3 O17 2.022638 1_555
In3 O51 2.046552 1_555
In3 O53 2.138546 1_555
In3 O52 2.138934 1_555
In3 O15 2.158232 1_555
In3 O16 2.213025 1_555
In4 O60 2.034641 1_555
In4 O25 2.046426 1_554
In4 O61 2.130944 1_555
In4 O24 2.138135 1_554
In4 O62 2.179431 1_555
In4 O26 2.179588 1_554
In5 O65 2.034641 1_555
In5 O28 2.046426 1_555
In5 O64 2.130944 1_555
In5 O29 2.138135 1_555
In5 O63 2.179431 1_555
In5 O27 2.179588 1_555
O0 S0 1.458438 1_545
O1 P0 1.519225 1_555
O2 S1 1.459920 1_655
O3 S2 1.459920 1_555
O4 P1 1.519225 1_655
O5 S3 1.458438 1_545
O6 S3 1.504508 1_555
O6 Sn0 2.142786 1_665
O7 S2 1.503098 1_555
O7 Sn0 2.127714 1_555
O8 P1 1.578085 1_555
O8 Sn0 2.007921 1_565
O9 P0 1.578085 1_555
O9 Sn1 2.007921 1_665
O10 S1 1.503098 1_555
O10 Sn1 2.127714 1_555
O11 S0 1.504508 1_555
O11 Sn1 2.142786 1_565
O12 P2 1.513866 1_555
O13 S4 1.465921 1_555
O14 S5 1.464078 1_555
O15 S6 1.464078 1_555
O16 S7 1.465921 1_555
O17 P3 1.513866 1_555
O18 P3 1.578082 1_555
O18 Sn2 2.023006 1_554
O19 S6 1.501793 1_555
O19 Sn2 2.130742 1_554
O20 S7 1.505812 1_555
O20 Sn2 2.112402 1_554
O21 S4 1.505812 1_555
O21 Sn3 2.112402 1_555
O22 S5 1.501793 1_555
O22 Sn3 2.130742 1_555
O23 P2 1.578082 1_555
O23 Sn3 2.023006 1_555
O24 S8 1.468598 1_555
O25 P4 1.518004 1_555
O26 S9 1.468416 1_555
O27 S10 1.468416 1_555
O28 P5 1.518004 1_555
O29 S11 1.468598 1_555
O30 S11 1.505007 1_555
O30 Sn4 2.168845 1_555
O31 S10 1.507005 1_555
O31 Sn4 2.125529 1_555
O32 P5 1.573135 1_555
O32 Sn4 1.998251 1_555
O33 P4 1.573135 1_555
O33 Sn5 1.998251 1_555
O34 S9 1.507005 1_555
O34 Sn5 2.125529 1_555
O35 S8 1.505007 1_555
O35 Sn5 2.168845 1_555
O36 S11 1.456275 1_555
O37 S10 1.457111 1_555
O38 P5 1.514806 1_555
O39 P4 1.514809 1_555
O40 S9 1.457103 1_555
O41 S8 1.456280 1_555
O42 P2 1.568935 1_555
O42 Sn0 2.005522 1_655
O43 S4 1.496285 1_555
O43 Sn0 2.101638 1_555
O44 S5 1.491551 1_555
O44 Sn0 2.101823 1_665
O45 S6 1.491555 1_555
O45 Sn1 2.101823 1_665
O46 S7 1.496277 1_555
O46 Sn1 2.101638 1_655
O47 P3 1.568940 1_555
O47 Sn1 2.005522 1_555
O48 S3 1.462550 1_545
O49 S2 1.464247 1_555
O50 P1 1.515991 1_655
O51 P0 1.515995 1_555
O52 S1 1.464239 1_655
O53 S0 1.462556 1_545
O54 S8 1.495937 1_555
O54 Sn2 2.112424 1_555
O55 P4 1.567216 1_655
O55 Sn2 2.006164 1_555
O56 S9 1.493573 1_545
O56 Sn2 2.096111 1_555
O57 S10 1.493565 1_545
O57 Sn3 2.096111 1_555
O58 P5 1.567233 1_555
O58 Sn3 2.006164 1_555
O59 S11 1.495927 1_655
O59 Sn3 2.112424 1_555
O60 P3 1.513420 1_555
O61 S6 1.462414 1_455
O62 S7 1.464133 1_565
O63 S4 1.464125 1_565
O64 S5 1.462431 1_555
O65 P2 1.513410 1_455
O66 S0 1.497765 1_555
O66 Sn4 2.118152 1_555
O67 P0 1.566967 1_555
O67 Sn4 1.999003 1_555
O68 S1 1.496083 1_555
O68 Sn4 2.109538 1_555
O69 S2 1.496087 1_555
O69 Sn5 2.109537 1_555
O70 P1 1.566959 1_555
O70 Sn5 1.999003 1_555
O71 S3 1.497770 1_555
O71 Sn5 2.118152 1_555
