# generated using pymatgen
data_MgTiCo3O8
_symmetry_space_group_name_H-M   'P 1'
_cell_length_a   5.95385604
_cell_length_b   5.86592104
_cell_length_c   5.66355615
_cell_angle_alpha   60.55035248
_cell_angle_beta   61.72004074
_cell_angle_gamma   91.77594124
_symmetry_Int_Tables_number   1
_chemical_formula_structural   MgTiCo3O8
_chemical_formula_sum   'Mg1 Ti1 Co3 O8'
_cell_volume   142.41596628
_cell_formula_units_Z   1
loop_
 _symmetry_equiv_pos_site_id
 _symmetry_equiv_pos_as_xyz
  1  'x, y, z'
loop_
 _atom_site_type_symbol
 _atom_site_label
 _atom_site_symmetry_multiplicity
 _atom_site_fract_x
 _atom_site_fract_y
 _atom_site_fract_z
 _atom_site_occupancy
  Mg  Mg0  1  0.50000000  0.50000000  0.00000000  1
  Ti  Ti0  1  0.00000000  0.00000000  0.00000000  1
  Co  Co0  1  0.00000000  0.00000000  0.50000000  1
  Co  Co1  1  0.00000000  0.50000000  0.00000000  1
  Co  Co2  1  0.00000000  0.50000000  0.50000000  1
  O  O0  1  0.21982000  0.21917400  0.04079100  1
  O  O1  1  0.21249200  0.25903600  0.51375500  1
  O  O2  1  0.21309200  0.73048800  0.02933400  1
  O  O3  1  0.19191100  0.71438200  0.54462800  1
  O  O4  1  0.80808900  0.28561800  0.45537200  1
  O  O5  1  0.78690800  0.26951200  0.97066600  1
  O  O6  1  0.78750800  0.74096400  0.48624500  1
  O  O7  1  0.78018000  0.78082600  0.95920900  1
loop_
_geom_bond_atom_site_label_1
_geom_bond_atom_site_label_2
_geom_bond_distance
_geom_bond_site_symmetry_2
Mg0 O1 2.116762 1_555
Mg0 O6 2.116762 1_554
Mg0 O0 2.154066 1_555
Mg0 O7 2.154066 1_554
Mg0 O2 2.206504 1_555
Mg0 O5 2.206504 1_554
Co0 O0 1.874096 1_555
Co0 O7 1.874096 1_445
Co0 O1 2.001532 1_555
Co0 O6 2.001532 1_445
Co0 O4 2.037734 1_455
Co0 O3 2.037734 1_545
Co1 O3 1.862220 1_554
Co1 O4 1.862220 1_455
Co1 O5 1.944092 1_454
Co1 O2 1.944092 1_555
Co1 O0 2.127391 1_555
Co1 O7 2.127391 1_454
Co2 O3 1.856881 1_555
Co2 O4 1.856881 1_455
Co2 O5 1.920536 1_455
Co2 O2 1.920536 1_555
Co2 O6 1.923677 1_455
Co2 O1 1.923677 1_555
O0 Ti0 1.973183 1_555
O1 Ti0 1.989496 1_556
O2 Ti0 2.049973 1_565
O5 Ti0 2.049973 1_656
O6 Ti0 1.989496 1_665
O7 Ti0 1.973183 1_666
