# generated using pymatgen
data_Na30Ca4Ta20Si33(SO48)3
_symmetry_space_group_name_H-M   'P 1'
_cell_length_a   18.16884169
_cell_length_b   9.07727285
_cell_length_c   22.66945992
_cell_angle_alpha   89.93190336
_cell_angle_beta   90.14715530
_cell_angle_gamma   119.97630323
_symmetry_Int_Tables_number   1
_chemical_formula_structural   Na30Ca4Ta20Si33(SO48)3
_chemical_formula_sum   'Na30 Ca4 Ta20 Si33 S3 O144'
_cell_volume   3238.59509946
_cell_formula_units_Z   1
loop_
 _symmetry_equiv_pos_site_id
 _symmetry_equiv_pos_as_xyz
  1  'x, y, z'
loop_
 _atom_site_type_symbol
 _atom_site_label
 _atom_site_symmetry_multiplicity
 _atom_site_fract_x
 _atom_site_fract_y
 _atom_site_fract_z
 _atom_site_occupancy
  Na  Na0  1  0.31556007  0.97828420  0.25579046  1
  Na  Na1  1  0.18361569  0.38626042  0.25773016  1
  Na  Na2  1  0.67990153  0.38450303  0.25279622  1
  Na  Na3  1  0.50402892  0.63955467  0.26226982  1
  Na  Na4  1  0.31555636  0.64336955  0.75783034  1
  Na  Na5  1  0.00162584  0.38786710  0.75565397  1
  Na  Na6  1  0.18636442  0.98063288  0.75434574  1
  Na  Na7  1  0.65084717  0.33212774  0.58447952  1
  Na  Na8  1  0.64482235  0.96872687  0.08326281  1
  Na  Na9  1  0.33895640  0.71776289  0.08949670  1
  Na  Na10  1  0.51936937  0.31716361  0.08890082  1
  Na  Na11  1  0.98935123  0.65656022  0.91391970  1
  Na  Na12  1  0.34419552  0.02878626  0.91549107  1
  Na  Na13  1  0.66572499  0.29635862  0.91582165  1
  Na  Na14  1  0.48941446  0.32412936  0.41473667  1
  Na  Na15  1  0.99210688  0.32867632  0.41454840  1
  Na  Na16  1  0.33769893  0.65628060  0.41506122  1
  Na  Na17  1  0.83960434  0.65289334  0.41430962  1
  Na  Na18  1  0.01217540  0.00739400  0.50095276  1
  Na  Na19  1  0.50103352  0.98583423  0.50284039  1
  Na  Na20  1  0.00742691  0.01944266  0.00129743  1
  Na  Na21  1  0.49766223  0.98947929  0.00365935  1
  Na  Na22  1  0.34027928  0.34962406  0.83799409  1
  Na  Na23  1  0.82861700  0.31945815  0.83103176  1
  Na  Na24  1  0.32753872  0.32156637  0.33781736  1
  Na  Na25  1  0.83491654  0.32069652  0.33359555  1
  Na  Na26  1  0.15555877  0.64929815  0.16996390  1
  Na  Na27  1  0.67573143  0.66655411  0.17199940  1
  Na  Na28  1  0.16742140  0.68311981  0.66434219  1
  Na  Na29  1  0.66825789  0.67841264  0.66724258  1
  Ca  Ca0  1  0.50014861  0.00285851  0.14511135  1
  Ca  Ca1  1  0.15994708  0.66091861  0.31778397  1
  Ca  Ca2  1  0.67276639  0.67352985  0.31891197  1
  Ca  Ca3  1  0.16786657  0.67064110  0.81762929  1
  Ta  Ta0  1  0.99202065  0.99479325  0.35720145  1
  Ta  Ta1  1  0.49334229  0.99771528  0.35533645  1
  Ta  Ta2  1  0.99238468  0.98951874  0.85749752  1
  Ta  Ta3  1  0.49911384  0.99690767  0.85479192  1
  Ta  Ta4  1  0.99205977  0.98768100  0.64071605  1
  Ta  Ta5  1  0.50084038  0.99678906  0.64536989  1
  Ta  Ta6  1  0.99350273  0.99651390  0.14029481  1
  Ta  Ta7  1  0.34184665  0.33621290  0.68414096  1
  Ta  Ta8  1  0.82994420  0.33051888  0.68974443  1
  Ta  Ta9  1  0.33787221  0.33859584  0.18444387  1
  Ta  Ta10  1  0.84225743  0.34710754  0.18577722  1
  Ta  Ta11  1  0.32999402  0.33609479  0.97986889  1
  Ta  Ta12  1  0.83493480  0.32813010  0.97878848  1
  Ta  Ta13  1  0.33114201  0.33057480  0.48459892  1
  Ta  Ta14  1  0.83325258  0.33130492  0.48479807  1
  Ta  Ta15  1  0.16402411  0.66413904  0.01833356  1
  Ta  Ta16  1  0.66989061  0.66661353  0.02118282  1
  Ta  Ta17  1  0.16512572  0.66632958  0.52119602  1
  Ta  Ta18  1  0.66646002  0.67044418  0.51905876  1
  Ta  Ta19  1  0.66498430  0.66366843  0.81026547  1
  Si  Si0  1  0.35139656  0.69849098  0.24651453  1
  Si  Si1  1  0.85788938  0.70705909  0.24765169  1
  Si  Si2  1  0.99511711  0.27996722  0.24759581  1
  Si  Si3  1  0.49813262  0.29772756  0.24699024  1
  Si  Si4  1  0.64396154  0.28747599  0.74983335  1
  Si  Si5  1  0.99605766  0.70987653  0.74813525  1
  Si  Si6  1  0.50008313  0.71106950  0.75011437  1
  Si  Si7  1  0.35908612  0.00950410  0.74859934  1
  Si  Si8  1  0.85472844  0.99900127  0.74944007  1
  Si  Si9  1  0.48276019  0.33431462  0.58159143  1
  Si  Si10  1  0.98027962  0.34096530  0.58760568  1
  Si  Si11  1  0.18783263  0.04004543  0.58686242  1
  Si  Si12  1  0.68928659  0.03765577  0.58600175  1
  Si  Si13  1  0.33140338  0.62361461  0.58549610  1
  Si  Si14  1  0.83036758  0.61962910  0.58412675  1
  Si  Si15  1  0.48243484  0.61849758  0.08125230  1
  Si  Si16  1  0.98023972  0.62537375  0.07945082  1
  Si  Si17  1  0.32681887  0.03803499  0.07990223  1
  Si  Si18  1  0.83043387  0.04406691  0.08485552  1
  Si  Si19  1  0.18766831  0.33476573  0.08444112  1
  Si  Si20  1  0.69490804  0.34415868  0.08230847  1
  Si  Si21  1  0.31497172  0.66830934  0.91498597  1
  Si  Si22  1  0.80820807  0.66136811  0.91538914  1
  Si  Si23  1  0.01964395  0.36848662  0.91390534  1
  Si  Si24  1  0.52139276  0.38066065  0.91641870  1
  Si  Si25  1  0.16679076  0.96654315  0.91434620  1
  Si  Si26  1  0.66628793  0.95037731  0.91639627  1
  Si  Si27  1  0.30931009  0.96442278  0.41465187  1
  Si  Si28  1  0.81225536  0.96776112  0.41758596  1
  Si  Si29  1  0.16697166  0.36833834  0.41667013  1
  Si  Si30  1  0.66768658  0.36538469  0.41639570  1
  Si  Si31  1  0.01794332  0.66540597  0.41848018  1
  Si  Si32  1  0.51718398  0.66696301  0.41618446  1
  S  S0  1  0.14173079  0.00622798  0.24707517  1
  S  S1  1  0.64983513  0.01282726  0.25032667  1
  S  S2  1  0.14232098  0.27597528  0.74840378  1
  O  O0  1  0.09902263  0.02137561  0.30099122  1
  O  O1  1  0.59986255  0.02769760  0.30079960  1
  O  O2  1  0.41562479  0.80482379  0.30558906  1
  O  O3  1  0.91260928  0.80467669  0.30882660  1
  O  O4  1  0.48823538  0.16854843  0.30543404  1
  O  O5  1  0.98851749  0.16727148  0.30827416  1
  O  O6  1  0.10137073  0.17601166  0.80266734  1
  O  O7  1  0.59592669  0.16941712  0.80822381  1
  O  O8  1  0.48382302  0.80633776  0.80640983  1
  O  O9  1  0.99124033  0.80989721  0.80870046  1
  O  O10  1  0.41301459  0.02456776  0.80971486  1
  O  O11  1  0.91882857  0.02677363  0.80602085  1
  O  O12  1  0.41543597  0.99914261  0.69370556  1
  O  O13  1  0.90468854  0.98374854  0.69185157  1
  O  O14  1  0.09149711  0.19042437  0.69570006  1
  O  O15  1  0.59016661  0.19784262  0.68951985  1
  O  O16  1  0.00371410  0.83538721  0.69341677  1
  O  O17  1  0.51237616  0.83031816  0.69252087  1
  O  O18  1  0.39458068  0.79157969  0.18671822  1
  O  O19  1  0.91627752  0.82108674  0.19181729  1
  O  O20  1  0.00061069  0.16695612  0.19255180  1
  O  O21  1  0.51427260  0.22597182  0.18755383  1
  O  O22  1  0.09391082  0.99651054  0.19308229  1
  O  O23  1  0.60646142  0.99549481  0.19375965  1
  O  O24  1  0.43303636  0.35810587  0.63979970  1
  O  O25  1  0.93223177  0.36211987  0.64579197  1
  O  O26  1  0.24815050  0.13791830  0.64563260  1
  O  O27  1  0.74832056  0.13325783  0.64408221  1
  O  O28  1  0.32083970  0.50373646  0.64419750  1
  O  O29  1  0.81700256  0.49489982  0.64046258  1
  O  O30  1  0.43431030  0.50358836  0.14285945  1
  O  O31  1  0.93157268  0.50127283  0.13747439  1
  O  O32  1  0.31964353  0.13825519  0.14068972  1
  O  O33  1  0.81636918  0.13891386  0.14104465  1
  O  O34  1  0.24993456  0.36420581  0.14291558  1
  O  O35  1  0.74936343  0.35789491  0.14298454  1
  O  O36  1  0.23763012  0.31561294  0.02816791  1
  O  O37  1  0.74639786  0.32998377  0.02498094  1
  O  O38  1  0.41872352  0.50478769  0.02920450  1
  O  O39  1  0.92177829  0.53455060  0.02106597  1
  O  O40  1  0.33532844  0.15620556  0.02345818  1
  O  O41  1  0.84329245  0.16343424  0.02729264  1
  O  O42  1  0.23927804  0.16509894  0.53181781  1
  O  O43  1  0.73778091  0.16627248  0.53128297  1
  O  O44  1  0.34525391  0.52865084  0.52907243  1
  O  O45  1  0.84394454  0.53229561  0.52640779  1
  O  O46  1  0.42342171  0.31381086  0.52551204  1
  O  O47  1  0.92044601  0.31357799  0.53018722  1
  O  O48  1  0.26281212  0.69866279  0.96963456  1
  O  O49  1  0.76443856  0.69149563  0.97383172  1
  O  O50  1  0.08406927  0.47346427  0.96908847  1
  O  O51  1  0.58384937  0.47240305  0.97451305  1
  O  O52  1  0.14995023  0.82644161  0.96753293  1
  O  O53  1  0.65420012  0.83744936  0.97646039  1
  O  O54  1  0.26067614  0.82677254  0.46835940  1
  O  O55  1  0.76439180  0.83064473  0.47253585  1
  O  O56  1  0.14935663  0.47218602  0.47015295  1
  O  O57  1  0.65083774  0.46694276  0.47203522  1
  O  O58  1  0.08224886  0.69493886  0.47462318  1
  O  O59  1  0.58315880  0.68959131  0.47123982  1
  O  O60  1  0.04117366  0.59234058  0.36247090  1
  O  O61  1  0.54333074  0.60984821  0.35739154  1
  O  O62  1  0.26652191  0.91402796  0.35146963  1
  O  O63  1  0.76462438  0.91365048  0.35739433  1
  O  O64  1  0.19647451  0.47529404  0.35696898  1
  O  O65  1  0.69651746  0.47383215  0.35693204  1
  O  O66  1  0.04372072  0.47296854  0.85356116  1
  O  O67  1  0.57029971  0.50080276  0.85959518  1
  O  O68  1  0.19303414  0.91608344  0.85373943  1
  O  O69  1  0.67970044  0.85541358  0.85999119  1
  O  O70  1  0.26984565  0.62935554  0.85220924  1
  O  O71  1  0.74692238  0.63167055  0.85933946  1
  O  O72  1  0.00977574  0.83798775  0.40952299  1
  O  O73  1  0.50852110  0.83930657  0.40984540  1
  O  O74  1  0.40583902  0.97429494  0.41007662  1
  O  O75  1  0.90721044  0.97381443  0.41341614  1
  O  O76  1  0.07842856  0.18271549  0.40945729  1
  O  O77  1  0.57731378  0.18293482  0.40897333  1
  O  O78  1  0.01184408  0.18017131  0.90941282  1
  O  O79  1  0.51670928  0.19425766  0.90973042  1
  O  O80  1  0.07672003  0.97016489  0.91022158  1
  O  O81  1  0.58376749  0.97867341  0.90826557  1
  O  O82  1  0.40802130  0.85126176  0.91282370  1
  O  O83  1  0.90437173  0.82818542  0.90884992  1
  O  O84  1  0.49523014  0.16874168  0.58813342  1
  O  O85  1  0.99159750  0.17208714  0.59437069  1
  O  O86  1  0.09368168  0.02285552  0.59345428  1
  O  O87  1  0.59653050  0.02766194  0.59008951  1
  O  O88  1  0.41683425  0.81249400  0.59257651  1
  O  O89  1  0.91423409  0.81146119  0.58905724  1
  O  O90  1  0.49434300  0.80376814  0.07967364  1
  O  O91  1  0.99170624  0.81437617  0.08847248  1
  O  O92  1  0.41043901  0.02101738  0.07819687  1
  O  O93  1  0.91330456  0.01719768  0.08895635  1
  O  O94  1  0.09378292  0.16657791  0.09202391  1
  O  O95  1  0.60304531  0.17756317  0.07758598  1
  O  O96  1  0.34729146  0.18026689  0.74418108  1
  O  O97  1  0.85102813  0.17636275  0.74583111  1
  O  O98  1  0.22865753  0.29168582  0.74625368  1
  O  O99  1  0.73837098  0.30444182  0.74479040  1
  O  O100  1  0.41010171  0.52567570  0.74391493  1
  O  O101  1  0.91003152  0.52044018  0.74486001  1
  O  O102  1  0.34634177  0.50685363  0.24779912  1
  O  O103  1  0.85060556  0.51605620  0.24428060  1
  O  O104  1  0.40195778  0.28624924  0.24646516  1
  O  O105  1  0.90723497  0.28986556  0.24209249  1
  O  O106  1  0.22687803  0.16976878  0.24573302  1
  O  O107  1  0.73297488  0.17782360  0.25078848  1
  O  O108  1  0.33228171  0.51235115  0.93001030  1
  O  O109  1  0.82148902  0.49538384  0.92024307  1
  O  O110  1  0.42378385  0.34215062  0.92272483  1
  O  O111  1  0.92543690  0.34694667  0.92820287  1
  O  O112  1  0.24750357  0.15570399  0.92776310  1
  O  O113  1  0.74797810  0.14615904  0.92384154  1
  O  O114  1  0.33452923  0.16139642  0.42929185  1
  O  O115  1  0.83936113  0.16522793  0.43141347  1
  O  O116  1  0.24758659  0.34043459  0.43255744  1
  O  O117  1  0.74728359  0.33617822  0.43250496  1
  O  O118  1  0.42038558  0.50878776  0.43081141  1
  O  O119  1  0.92006371  0.51038829  0.43292664  1
  O  O120  1  0.18439873  0.51063627  0.07548084  1
  O  O121  1  0.68497694  0.51460377  0.07734993  1
  O  O122  1  0.07170227  0.63512227  0.07340946  1
  O  O123  1  0.57418066  0.62482795  0.07870132  1
  O  O124  1  0.24217955  0.84798824  0.07525102  1
  O  O125  1  0.74367301  0.86007167  0.07715263  1
  O  O126  1  0.18045772  0.85549344  0.57673998  1
  O  O127  1  0.67879250  0.85050156  0.57544933  1
  O  O128  1  0.24760487  0.64219487  0.57561265  1
  O  O129  1  0.74439931  0.63274271  0.57687308  1
  O  O130  1  0.07436308  0.50758437  0.57737402  1
  O  O131  1  0.57704794  0.50211212  0.57729563  1
  O  O132  1  0.15602501  0.86247317  0.24827778  1
  O  O133  1  0.65931857  0.86460522  0.25670590  1
  O  O134  1  0.25998198  0.68240605  0.25108647  1
  O  O135  1  0.76458894  0.67860850  0.24459897  1
  O  O136  1  0.07978165  0.45916730  0.24576801  1
  O  O137  1  0.57435934  0.48911342  0.25316271  1
  O  O138  1  0.15218283  0.44712023  0.75007328  1
  O  O139  1  0.65335420  0.47649892  0.75723433  1
  O  O140  1  0.07924933  0.69099128  0.74543253  1
  O  O141  1  0.58274737  0.68799126  0.75723485  1
  O  O142  1  0.26793885  0.83989709  0.74430164  1
  O  O143  1  0.76150823  0.83042141  0.75765240  1
loop_
_geom_bond_atom_site_label_1
_geom_bond_atom_site_label_2
_geom_bond_distance
_geom_bond_site_symmetry_2
Na0 O62 2.307853 1_555
Na0 O134 2.352531 1_555
Na0 O104 2.436957 1_565
Na0 O132 2.547308 1_555
Na1 O136 2.305454 1_555
Na1 O134 2.333911 1_555
Na1 O64 2.362581 1_555
Na1 O106 2.469728 1_555
Na1 O102 2.599781 1_555
Na1 O34 2.919732 1_555
Na2 O135 2.329096 1_555
Na2 O65 2.465325 1_555
Na2 O107 2.501962 1_555
Na2 O137 2.529538 1_555
Na2 O103 2.717363 1_555
Na2 O35 2.858361 1_555
Na3 O137 2.299146 1_555
Na3 O61 2.327146 1_555
Na3 O102 2.512825 1_555
Na3 O133 2.528083 1_555
Na3 O104 2.812262 1_555
Na3 O2 2.866063 1_555
Na3 O30 2.980530 1_555
Na4 O70 2.277362 1_555
Na4 O142 2.358937 1_555
Na4 O100 2.455416 1_555
Na4 O138 2.594084 1_555
Na4 O98 2.777746 1_555
Na4 O8 2.866173 1_555
Na4 O28 2.895186 1_555
Na5 O66 2.347945 1_555
Na5 O140 2.395008 1_555
Na5 O97 2.443510 1_455
Na5 O101 2.505178 1_455
Na5 O138 2.513832 1_555
Na5 O25 2.745489 1_455
Na6 O68 2.345492 1_555
Na6 O140 2.372124 1_555
Na6 O142 2.403116 1_555
Na6 O98 2.535301 1_565
Na6 O96 2.567822 1_565
Na6 O26 2.788628 1_565
Na7 O129 2.393850 1_555
Na7 O87 2.429519 1_555
Na7 O84 2.451766 1_555
Na7 O131 2.504185 1_555
Na7 O15 2.652383 1_555
Na7 O57 2.826310 1_555
Na7 O29 2.904258 1_555
Na7 O43 2.933592 1_555
Na8 O95 2.371291 1_565
Na8 O90 2.373164 1_555
Na8 O125 2.447305 1_555
Na8 O23 2.645562 1_555
Na8 O123 2.720141 1_555
Na8 O53 2.742789 1_554
Na9 O18 2.375533 1_555
Na9 O92 2.399448 1_565
Na9 O120 2.498487 1_555
Na9 O90 2.535714 1_555
Na9 O124 2.581960 1_555
Na10 O21 2.369679 1_555
Na10 O92 2.425874 1_555
Na10 O95 2.431206 1_555
Na10 O123 2.462746 1_555
Na10 O121 2.635958 1_555
Na10 O51 2.905106 1_554
Na11 O111 2.467879 1_555
Na11 O80 2.472845 1_655
Na11 O109 2.646803 1_555
Na11 O83 2.688194 1_555
Na11 O66 2.698651 1_655
Na11 O39 2.698862 1_556
Na11 O9 2.751869 1_555
Na11 O52 2.803412 1_655
Na12 O82 2.411037 1_545
Na12 O110 2.469545 1_555
Na12 O112 2.552780 1_555
Na12 O10 2.716286 1_555
Na12 O79 2.719290 1_555
Na12 O40 2.747583 1_556
Na12 O68 2.779405 1_545
Na12 O48 2.871491 1_545
Na13 O79 2.387299 1_555
Na13 O113 2.481807 1_555
Na13 O109 2.484535 1_555
Na13 O81 2.504271 1_545
Na13 O7 2.723263 1_555
Na13 O37 2.810907 1_556
Na13 O71 2.931462 1_555
Na13 O51 2.987883 1_555
Na14 O114 2.461643 1_555
Na14 O77 2.501416 1_555
Na14 O118 2.572918 1_555
Na14 O61 2.614531 1_555
Na14 O74 2.753624 1_545
Na14 O46 2.766821 1_555
Na14 O4 2.848223 1_555
Na14 O57 2.855628 1_555
Na15 O60 2.404829 1_655
Na15 O115 2.436967 1_555
Na15 O76 2.511233 1_655
Na15 O119 2.601827 1_555
Na15 O56 2.777564 1_655
Na15 O75 2.791208 1_545
Na15 O5 2.804829 1_555
Na15 O47 2.902489 1_555
Na16 O118 2.486553 1_555
Na16 O74 2.511418 1_555
Na16 O116 2.523424 1_555
Na16 O64 2.606233 1_555
Na16 O73 2.693610 1_555
Na16 O54 2.826764 1_555
Na16 O2 2.843197 1_555
Na16 O44 2.861996 1_555
Na17 O119 2.423549 1_555
Na17 O75 2.533695 1_555
Na17 O117 2.535885 1_555
Na17 O65 2.618671 1_555
Na17 O72 2.684084 1_655
Na17 O3 2.749174 1_555
Na17 O45 2.782252 1_555
Na17 O55 2.903564 1_555
Na18 O76 2.524769 1_555
Na18 O86 2.527249 1_555
Na18 O72 2.569556 1_545
Na18 O75 2.658739 1_445
Na18 O89 2.676954 1_445
Na18 O85 2.725734 1_455
Na19 O87 2.528345 1_565
Na19 O73 2.533936 1_555
Na19 O88 2.560730 1_555
Na19 O84 2.586491 1_565
Na19 O77 2.679195 1_565
Na19 O74 2.688012 1_555
Na20 O78 2.520014 1_554
Na20 O94 2.524193 1_555
Na20 O80 2.574128 1_544
Na20 O93 2.618446 1_455
Na20 O91 2.629606 1_445
Na20 O83 2.766253 1_444
Na21 O90 2.388904 1_555
Na21 O92 2.432448 1_565
Na21 O95 2.472481 1_565
Na21 O82 2.532579 1_554
Na21 O81 2.702742 1_554
Na21 O79 2.731404 1_564
Na22 O110 2.466472 1_555
Na22 O100 2.586815 1_555
Na22 O108 2.603377 1_555
Na22 O96 2.665937 1_555
Na22 O112 2.669314 1_555
Na22 O98 2.762212 1_555
Na23 O97 2.474270 1_555
Na23 O99 2.508010 1_555
Na23 O101 2.577226 1_555
Na23 O113 2.598580 1_555
Na23 O109 2.621568 1_555
Na23 O111 2.748071 1_555
Na24 O102 2.555595 1_555
Na24 O114 2.570237 1_555
Na24 O104 2.582389 1_555
Na24 O116 2.649085 1_555
Na24 O106 2.658970 1_555
Na24 O118 2.702499 1_555
Na25 O107 2.494770 1_555
Na25 O105 2.547632 1_555
Na25 O103 2.610510 1_555
Na25 O115 2.649685 1_555
Na25 O119 2.785342 1_555
Na25 O117 2.797331 1_555
Na26 O136 2.336203 1_555
Na26 O134 2.546651 1_555
Na26 O132 2.624500 1_555
Na26 O122 2.629919 1_555
Na26 O120 2.667902 1_555
Na26 O124 2.740697 1_555
Na27 O135 2.266555 1_555
Na27 O137 2.533341 1_555
Na27 O121 2.602866 1_555
Na27 O125 2.659009 1_555
Na27 O123 2.702689 1_555
Na27 O133 2.748655 1_555
Na28 O142 2.457275 1_555
Na28 O126 2.464306 1_555
Na28 O140 2.465874 1_555
Na28 O130 2.565674 1_555
Na28 O128 2.619916 1_555
Na28 O138 2.800553 1_555
Na29 O127 2.549998 1_555
Na29 O143 2.574454 1_555
Na29 O141 2.595172 1_555
Na29 O131 2.608693 1_555
Na29 O129 2.621488 1_555
Na29 O139 2.663164 1_555
Ca0 O18 2.139103 1_545
Ca0 O21 2.139458 1_555
Ca0 O23 2.251579 1_545
Ca0 O92 2.289108 1_555
Ca0 O90 2.300599 1_545
Ca0 O95 2.323686 1_555
Ca1 O60 2.176682 1_555
Ca1 O62 2.272046 1_555
Ca1 O64 2.275850 1_555
Ca1 O134 2.299286 1_555
Ca1 O136 2.338794 1_555
Ca1 O132 2.440895 1_555
Ca2 O63 2.158519 1_555
Ca2 O65 2.234066 1_555
Ca2 O137 2.285164 1_555
Ca2 O61 2.297052 1_555
Ca2 O133 2.339334 1_555
Ca2 O135 2.358130 1_555
Ca3 O68 2.197116 1_555
Ca3 O70 2.207645 1_555
Ca3 O66 2.220897 1_555
Ca3 O140 2.363910 1_555
Ca3 O142 2.376459 1_555
Ca3 O138 2.443489 1_555
O0 S0 1.492245 1_555
O0 Ta0 2.237121 1_445
O1 S1 1.509945 1_555
O1 Ta1 2.198473 1_545
O2 Si0 1.719399 1_555
O2 Ta1 1.964006 1_555
O3 Si1 1.677002 1_555
O3 Ta0 1.941835 1_555
O4 Si3 1.717402 1_555
O4 Ta1 1.957575 1_545
O5 Si2 1.681636 1_555
O5 Ta0 1.944368 1_545
O6 S2 1.489145 1_555
O6 Ta2 2.233753 1_445
O7 Si4 1.652332 1_555
O7 Ta3 1.978310 1_545
O8 Si6 1.650341 1_555
O8 Ta3 1.948140 1_555
O9 Si5 1.673331 1_555
O9 Ta2 1.962869 1_555
O10 Si7 1.660670 1_555
O10 Ta3 1.984449 1_545
O11 Si8 1.662774 1_545
O11 Ta2 1.924797 1_545
O12 Si7 1.645796 1_565
O12 Ta5 1.910706 1_555
O13 Si8 1.636934 1_555
O13 Ta4 1.953901 1_555
O14 S2 1.470772 1_555
O14 Ta4 2.208158 1_445
O15 Si4 1.639463 1_555
O15 Ta5 2.000646 1_545
O16 Si5 1.641702 1_455
O16 Ta4 1.915851 1_455
O17 Si6 1.637914 1_555
O17 Ta5 1.944576 1_555
O18 Si0 1.583465 1_555
O19 Si1 1.644798 1_555
O19 Ta6 1.907856 1_555
O20 Si2 1.650862 1_455
O20 Ta6 1.902007 1_445
O21 Si3 1.587668 1_555
O22 S0 1.476148 1_565
O22 Ta6 2.179200 1_455
O23 S1 1.470229 1_565
O24 Si9 1.675050 1_555
O24 Ta7 1.863864 1_555
O25 Si10 1.647084 1_555
O25 Ta8 2.001248 1_555
O26 Si11 1.669634 1_555
O26 Ta7 1.958081 1_555
O27 Si12 1.643905 1_555
O27 Ta8 1.954483 1_555
O28 Si13 1.667618 1_555
O28 Ta7 1.962887 1_555
O29 Si14 1.641725 1_555
O29 Ta8 1.968540 1_555
O30 Si15 1.701304 1_555
O30 Ta9 1.893314 1_555
O31 Si16 1.669766 1_555
O31 Ta10 1.878006 1_555
O32 Si17 1.692912 1_555
O32 Ta9 1.949711 1_555
O33 Si18 1.628857 1_555
O33 Ta10 1.983649 1_555
O34 Si19 1.673162 1_555
O34 Ta9 1.963659 1_555
O35 Si20 1.660291 1_555
O35 Ta10 1.988909 1_555
O36 Si19 1.626585 1_555
O36 Ta11 1.935652 1_554
O37 Si20 1.645473 1_555
O37 Ta12 1.928783 1_554
O38 Si15 1.612271 1_555
O38 Ta11 1.929388 1_554
O39 Si16 1.637072 1_555
O39 Ta12 1.990271 1_554
O40 Si17 1.625980 1_555
O40 Ta11 1.950902 1_554
O41 Si18 1.636056 1_555
O41 Ta12 1.920722 1_554
O42 Si11 1.631462 1_555
O42 Ta13 1.920390 1_555
O43 Si12 1.628588 1_555
O43 Ta14 1.942280 1_555
O44 Si13 1.632028 1_555
O44 Ta13 1.963993 1_555
O45 Si14 1.612731 1_555
O45 Ta14 1.976130 1_555
O46 Si9 1.614358 1_555
O46 Ta13 1.985204 1_555
O47 Si10 1.631356 1_555
O47 Ta14 1.959667 1_555
O48 Si21 1.666294 1_555
O48 Ta15 1.996446 1_556
O49 Si22 1.638918 1_555
O49 Ta16 1.943029 1_556
O50 Si23 1.650398 1_555
O50 Ta15 1.958569 1_556
O51 Si24 1.663193 1_555
O51 Ta16 1.978124 1_556
O52 Si25 1.665563 1_555
O52 Ta15 1.983189 1_556
O53 Si26 1.651145 1_555
O53 Ta16 1.987564 1_556
O54 Si27 1.650149 1_555
O54 Ta17 2.012354 1_555
O55 Si28 1.666552 1_555
O55 Ta18 1.952761 1_555
O56 Si29 1.663487 1_555
O56 Ta17 2.006312 1_555
O57 Si30 1.679652 1_555
O57 Ta18 2.026916 1_555
O58 Si31 1.654375 1_555
O58 Ta17 1.957402 1_555
O59 Si32 1.668418 1_555
O59 Ta18 1.936480 1_555
O60 Si31 1.585763 1_555
O61 Si32 1.588031 1_555
O62 Si27 1.582908 1_555
O63 Si28 1.556545 1_555
O64 Si29 1.594410 1_555
O65 Si30 1.595545 1_555
O66 Si23 1.596118 1_555
O67 Si24 1.634759 1_555
O67 Ta19 1.964718 1_555
O68 Si25 1.596218 1_555
O69 Si26 1.628369 1_555
O69 Ta19 1.977294 1_555
O70 Si21 1.589970 1_555
O71 Si22 1.618824 1_555
O71 Ta19 1.990247 1_555
O72 Si31 1.657949 1_555
O72 Ta0 1.997430 1_455
O73 Si32 1.654752 1_555
O73 Ta1 2.015164 1_555
O74 Si27 1.714214 1_555
O74 Ta1 1.945362 1_555
O75 Si28 1.701308 1_555
O75 Ta0 1.936728 1_555
O76 Si29 1.656627 1_555
O76 Ta0 2.024096 1_445
O77 Si30 1.658025 1_555
O77 Ta1 2.016167 1_545
O78 Si23 1.646431 1_555
O78 Ta2 1.973917 1_445
O79 Si24 1.658271 1_555
O79 Ta3 2.072047 1_545
O80 Si25 1.655555 1_555
O80 Ta2 2.016529 1_455
O81 Si26 1.652616 1_555
O81 Ta3 2.026533 1_555
O82 Si21 1.677242 1_555
O82 Ta3 2.009538 1_555
O83 Si22 1.650634 1_555
O83 Ta2 1.929335 1_555
O84 Si9 1.634551 1_555
O84 Ta5 2.069717 1_545
O85 Si10 1.652280 1_555
O85 Ta4 1.978803 1_545
O86 Si11 1.645420 1_555
O86 Ta4 2.019680 1_445
O87 Si12 1.644677 1_555
O87 Ta5 2.048201 1_545
O88 Si13 1.647611 1_555
O88 Ta5 2.001088 1_555
O89 Si14 1.647619 1_555
O89 Ta4 1.914488 1_555
O90 Si15 1.585143 1_555
O91 Si16 1.634642 1_555
O91 Ta6 2.016215 1_555
O92 Si17 1.602625 1_555
O93 Si18 1.643578 1_555
O93 Ta6 1.943458 1_545
O94 Si19 1.633579 1_555
O94 Ta6 2.023789 1_445
O95 Si20 1.600406 1_555
O96 Si7 1.670358 1_555
O96 Ta7 2.000201 1_555
O97 Si8 1.646511 1_545
O97 Ta8 2.061638 1_555
O98 S2 1.503384 1_555
O98 Ta7 2.357576 1_555
O99 Si4 1.648049 1_555
O99 Ta8 1.999442 1_555
O100 Si6 1.665732 1_555
O100 Ta7 2.048765 1_555
O101 Si5 1.649040 1_555
O101 Ta8 2.034578 1_555
O102 Si0 1.695744 1_555
O102 Ta9 2.046550 1_555
O103 Si1 1.673423 1_555
O103 Ta10 1.976154 1_555
O104 Si3 1.697739 1_555
O104 Ta9 2.025140 1_555
O105 Si2 1.647863 1_555
O105 Ta10 1.974130 1_555
O106 S0 1.517624 1_555
O106 Ta9 2.294957 1_555
O107 S1 1.504736 1_555
O107 Ta10 2.331607 1_555
O108 Si21 1.631646 1_555
O108 Ta11 1.941260 1_555
O109 Si22 1.644142 1_555
O109 Ta12 2.119020 1_555
O110 Si24 1.633835 1_555
O110 Ta11 2.121911 1_555
O111 Si23 1.655670 1_655
O111 Ta12 1.943336 1_555
O112 Si25 1.635259 1_545
O112 Ta11 1.966190 1_555
O113 Si26 1.659312 1_545
O113 Ta12 2.040360 1_555
O114 Si27 1.642844 1_545
O114 Ta13 2.008352 1_555
O115 Si28 1.634666 1_545
O115 Ta14 1.980343 1_555
O116 Si29 1.645282 1_555
O116 Ta13 1.957241 1_555
O117 Si30 1.635631 1_555
O117 Ta14 1.976457 1_555
O118 Si32 1.656218 1_555
O118 Ta13 2.029073 1_555
O119 Si31 1.658657 1_655
O119 Ta14 1.988935 1_555
O120 Si19 1.639297 1_555
O120 Ta15 2.065324 1_555
O121 Si20 1.648453 1_555
O121 Ta16 1.993059 1_555
O122 Si16 1.625502 1_455
O122 Ta15 2.002578 1_555
O123 Si15 1.640129 1_555
O123 Ta16 2.054101 1_555
O124 Si17 1.643340 1_565
O124 Ta15 2.023347 1_555
O125 Si18 1.635002 1_565
O125 Ta16 2.033437 1_555
O126 Si11 1.628941 1_565
O126 Ta17 2.033919 1_555
O127 Si12 1.629945 1_565
O127 Ta18 1.998316 1_555
O128 Si13 1.628336 1_555
O128 Ta17 2.033060 1_555
O129 Si14 1.632576 1_555
O129 Ta18 2.076958 1_555
O130 Si10 1.637375 1_455
O130 Ta17 2.012345 1_555
O131 Si9 1.630103 1_555
O131 Ta18 2.059731 1_555
O132 S0 1.452409 1_565
O133 S1 1.446344 1_565
O134 Si0 1.596608 1_555
O135 Si1 1.583359 1_555
O136 Si2 1.585463 1_455
O137 Si3 1.597195 1_555
O138 S2 1.472731 1_555
O139 Si4 1.645971 1_555
O139 Ta19 2.005310 1_555
O140 Si5 1.605362 1_455
O141 Si6 1.624428 1_555
O141 Ta19 2.011529 1_555
O142 Si7 1.604369 1_565
O143 Si8 1.629711 1_555
O143 Ta19 2.035459 1_555
