# generated using pymatgen
data_Ba(InTe2)2
_symmetry_space_group_name_H-M   'P 1'
_cell_length_a   7.12528488
_cell_length_b   7.12528540
_cell_length_c   12.37571875
_cell_angle_alpha   90.00000000
_cell_angle_beta   90.00000000
_cell_angle_gamma   118.98016796
_symmetry_Int_Tables_number   1
_chemical_formula_structural   Ba(InTe2)2
_chemical_formula_sum   'Ba2 In4 Te8'
_cell_volume   549.63892224
_cell_formula_units_Z   2
loop_
 _symmetry_equiv_pos_site_id
 _symmetry_equiv_pos_as_xyz
  1  'x, y, z'
loop_
 _atom_site_type_symbol
 _atom_site_label
 _atom_site_symmetry_multiplicity
 _atom_site_fract_x
 _atom_site_fract_y
 _atom_site_fract_z
 _atom_site_occupancy
  Ba  Ba0  1  0.50000000  0.50000000  0.25000000  1
  Ba  Ba1  1  0.50000000  0.50000000  0.75000000  1
  In  In0  1  0.23988752  0.76330233  0.50000000  1
  In  In1  1  0.76011248  0.23669767  0.50000000  1
  In  In2  1  0.23669767  0.76011248  0.00000000  1
  In  In3  1  0.76330233  0.23988752  0.00000000  1
  Te  Te0  1  0.50000000  -0.00000000  0.32443217  1
  Te  Te1  1  -0.00000000  0.50000000  0.17556783  1
  Te  Te2  1  0.65805956  0.80701327  0.00000000  1
  Te  Te3  1  0.34194044  0.19298673  0.00000000  1
  Te  Te4  1  0.80701327  0.65805956  0.50000000  1
  Te  Te5  1  0.19298673  0.34194044  0.50000000  1
  Te  Te6  1  0.50000000  -0.00000000  0.67556783  1
  Te  Te7  1  -0.00000000  0.50000000  0.82443217  1
loop_
_geom_bond_atom_site_label_1
_geom_bond_atom_site_label_2
_geom_bond_distance
_geom_bond_site_symmetry_2
Ba0 Te5 3.638523 1_555
Ba0 Te4 3.638523 1_555
Ba0 Te2 3.638523 1_555
Ba0 Te3 3.638523 1_555
Ba0 Te1 3.679802 1_655
Ba0 Te1 3.679802 1_555
Ba0 Te0 3.679802 1_565
Ba0 Te0 3.679802 1_555
Ba1 Te5 3.638523 1_555
Ba1 Te4 3.638523 1_555
Ba1 Te2 3.638523 1_556
Ba1 Te3 3.638523 1_556
Ba1 Te7 3.679802 1_555
Ba1 Te7 3.679802 1_655
Ba1 Te6 3.679802 1_555
Ba1 Te6 3.679802 1_565
In0 Te4 2.798985 1_455
In0 Te6 2.823375 1_565
In0 Te0 2.823375 1_565
In0 Te5 2.855415 1_555
In1 Te5 2.798985 1_655
In1 Te6 2.823375 1_555
In1 Te0 2.823375 1_555
In1 Te4 2.855415 1_555
In2 Te3 2.798985 1_565
In2 Te7 2.823375 1_554
In2 Te1 2.823375 1_555
In2 Te2 2.855414 1_555
In3 Te2 2.798985 1_545
In3 Te7 2.823375 1_654
In3 Te1 2.823375 1_655
In3 Te3 2.855414 1_555
