# generated using pymatgen
data_MgCo5SnO12
_symmetry_space_group_name_H-M   'P 1'
_cell_length_a   5.16798225
_cell_length_b   5.06228585
_cell_length_c   10.05426768
_cell_angle_alpha   93.92568172
_cell_angle_beta   97.56611219
_cell_angle_gamma   59.34081011
_symmetry_Int_Tables_number   1
_chemical_formula_structural   MgCo5SnO12
_chemical_formula_sum   'Mg1 Co5 Sn1 O12'
_cell_volume   224.29896182
_cell_formula_units_Z   1
loop_
 _symmetry_equiv_pos_site_id
 _symmetry_equiv_pos_as_xyz
  1  'x, y, z'
loop_
 _atom_site_type_symbol
 _atom_site_label
 _atom_site_symmetry_multiplicity
 _atom_site_fract_x
 _atom_site_fract_y
 _atom_site_fract_z
 _atom_site_occupancy
  Mg  Mg0  1  0.22359600  0.35095900  0.74310200  1
  Co  Co0  1  0.17564700  0.68032500  0.49788700  1
  Co  Co1  1  0.64627700  0.67965400  0.99719000  1
  Co  Co2  1  0.31985300  0.34236100  0.01187000  1
  Co  Co3  1  0.84058000  0.35024900  0.49175200  1
  Co  Co4  1  0.50612700  0.01967000  0.49767400  1
  Sn  Sn0  1  0.98504800  0.00494400  0.00097200  1
  O  O0  1  0.02856200  0.64928900  0.10471200  1
  O  O1  1  0.28480000  0.63596300  0.88901200  1
  O  O2  1  0.18279400  0.34944600  0.40173400  1
  O  O3  1  0.47681200  0.68579600  0.41125100  1
  O  O4  1  0.49502600  0.34943300  0.60527900  1
  O  O5  1  0.19932800  0.03194200  0.59494400  1
  O  O6  1  0.88048900  0.66982200  0.59470300  1
  O  O7  1  0.65032600  0.36978600  0.09721700  1
  O  O8  1  0.36442600  0.00562300  0.10041300  1
  O  O9  1  0.97986400  0.35004700  0.89662300  1
  O  O10  1  0.59074100  0.02353900  0.89658500  1
  O  O11  1  0.81345400  0.01365200  0.41082900  1
loop_
_geom_bond_atom_site_label_1
_geom_bond_atom_site_label_2
_geom_bond_distance
_geom_bond_site_symmetry_2
Mg0 O1 2.094561 1_555
Mg0 O4 2.094590 1_555
Mg0 O9 2.118501 1_455
Mg0 O5 2.161191 1_555
Mg0 O6 2.165619 1_455
Mg0 O10 2.258435 1_555
Co0 O2 1.861770 1_555
Co0 O3 1.893734 1_555
Co0 O4 1.911716 1_555
Co0 O11 1.914862 1_465
Co0 O6 1.938539 1_455
Co0 O5 2.021996 1_565
Co1 O8 1.906312 1_566
Co1 O7 1.910364 1_556
Co1 O10 1.947090 1_565
Co1 O9 2.018145 1_555
Co1 O0 2.060599 1_656
Co1 O1 2.138950 1_555
Co2 O0 1.826936 1_555
Co2 O8 1.872105 1_555
Co2 O7 1.874043 1_555
Co2 O1 1.919791 1_554
Co2 O10 1.942959 1_554
Co2 O9 1.957475 1_454
Co3 O3 1.898800 1_555
Co3 O11 1.899692 1_555
Co3 O5 1.945718 1_655
Co3 O6 1.945746 1_555
Co3 O2 2.088212 1_655
Co3 O4 2.244322 1_555
Co4 O2 1.860286 1_555
Co4 O11 1.896873 1_555
Co4 O4 1.905754 1_555
Co4 O3 1.913118 1_545
Co4 O5 1.942621 1_555
Co4 O6 2.019008 1_545
O0 Sn0 2.040211 1_465
O1 Sn0 2.091930 1_466
O7 Sn0 2.068246 1_555
O8 Sn0 2.081788 1_455
O9 Sn0 2.085501 1_556
O10 Sn0 2.125461 1_556
