# generated using pymatgen
data_LaMgFeO3
_symmetry_space_group_name_H-M   'P 1'
_cell_length_a   4.50892355
_cell_length_b   4.49046729
_cell_length_c   4.49046729
_cell_angle_alpha   81.98394415
_cell_angle_beta   81.88702169
_cell_angle_gamma   81.88702169
_symmetry_Int_Tables_number   1
_chemical_formula_structural   LaMgFeO3
_chemical_formula_sum   'La1 Mg1 Fe1 O3'
_cell_volume   88.44325745
_cell_formula_units_Z   1
loop_
 _symmetry_equiv_pos_site_id
 _symmetry_equiv_pos_as_xyz
  1  'x, y, z'
loop_
 _atom_site_type_symbol
 _atom_site_label
 _atom_site_symmetry_multiplicity
 _atom_site_fract_x
 _atom_site_fract_y
 _atom_site_fract_z
 _atom_site_occupancy
  La  La0  1  0.87533243  0.87492304  0.87492304  1
  Mg  Mg0  1  0.25006758  0.24998336  0.24998336  1
  Fe  Fe0  1  0.54095604  0.54144563  0.54144563  1
  O  O0  1  0.52859844  0.52829138  0.02673042  1
  O  O1  1  0.52859844  0.02673042  0.52829138  1
  O  O2  1  0.02644707  0.52862618  0.52862618  1
loop_
_geom_bond_atom_site_label_1
_geom_bond_atom_site_label_2
_geom_bond_distance
_geom_bond_site_symmetry_2
La0 O2 2.318799 1_655
La0 O0 2.328482 1_556
La0 O1 2.328482 1_565
Mg0 O2 1.967815 1_555
Mg0 O1 1.970352 1_555
Mg0 O0 1.970352 1_555
Fe0 O1 2.164733 1_565
Fe0 O0 2.164733 1_556
Fe0 O2 2.174470 1_655
Fe0 O0 2.328972 1_555
Fe0 O1 2.328972 1_555
Fe0 O2 2.337689 1_555
