# generated using pymatgen
data_Tl4CrI6
_symmetry_space_group_name_H-M   'P 1'
_cell_length_a   9.37497834
_cell_length_b   9.37497834
_cell_length_c   9.95221400
_cell_angle_alpha   90.00000000
_cell_angle_beta   90.00000000
_cell_angle_gamma   92.33929339
_symmetry_Int_Tables_number   1
_chemical_formula_structural   Tl4CrI6
_chemical_formula_sum   'Tl8 Cr2 I12'
_cell_volume   873.97332263
_cell_formula_units_Z   2
loop_
 _symmetry_equiv_pos_site_id
 _symmetry_equiv_pos_as_xyz
  1  'x, y, z'
loop_
 _atom_site_type_symbol
 _atom_site_label
 _atom_site_symmetry_multiplicity
 _atom_site_fract_x
 _atom_site_fract_y
 _atom_site_fract_z
 _atom_site_occupancy
  Tl  Tl0  1  0.34236600  0.34236600  0.25000000  1
  Tl  Tl1  1  0.65763400  0.65763400  0.25000000  1
  Tl  Tl2  1  0.65763400  0.65763400  0.75000000  1
  Tl  Tl3  1  0.34236600  0.34236600  0.75000000  1
  Tl  Tl4  1  0.14323000  0.85677000  0.25000000  1
  Tl  Tl5  1  0.85677000  0.14323000  0.25000000  1
  Tl  Tl6  1  0.85677000  0.14323000  0.75000000  1
  Tl  Tl7  1  0.14323000  0.85677000  0.75000000  1
  Cr  Cr0  1  0.50000000  0.00000000  0.50000000  1
  Cr  Cr1  1  0.00000000  0.50000000  0.00000000  1
  I  I0  1  0.81848600  0.85367000  0.50000000  1
  I  I1  1  0.18151400  0.14633000  0.50000000  1
  I  I2  1  0.27448300  0.63011400  0.00000000  1
  I  I3  1  0.72551700  0.36988600  0.00000000  1
  I  I4  1  0.63011400  0.27448300  0.50000000  1
  I  I5  1  0.36988600  0.72551700  0.50000000  1
  I  I6  1  0.85367000  0.81848600  0.00000000  1
  I  I7  1  0.14633000  0.18151400  0.00000000  1
  I  I8  1  0.50000000  0.00000000  0.77610900  1
  I  I9  1  0.00000000  0.50000000  0.72389100  1
  I  I10  1  0.50000000  0.00000000  0.22389100  1
  I  I11  1  0.00000000  0.50000000  0.27610900  1
loop_
_geom_bond_atom_site_label_1
_geom_bond_atom_site_label_2
_geom_bond_distance
_geom_bond_site_symmetry_2
Cr0 I8 2.747896 1_555
Cr0 I10 2.747896 1_555
Cr0 I4 2.802399 1_555
Cr0 I5 2.802399 1_545
Cr0 I0 3.336363 1_545
Cr0 I1 3.336363 1_555
Cr1 I11 2.747896 1_555
Cr1 I9 2.747896 1_554
Cr1 I2 2.802399 1_555
Cr1 I3 2.802399 1_455
Cr1 I6 3.336363 1_455
Cr1 I7 3.336363 1_555
I0 Tl1 3.408198 1_555
I0 Tl2 3.408198 1_555
I1 Tl3 3.408198 1_555
I1 Tl0 3.408198 1_555
I2 Tl4 3.526067 1_555
I2 Tl7 3.526067 1_554
I3 Tl6 3.526067 1_554
I3 Tl5 3.526067 1_555
I4 Tl5 3.526067 1_555
I4 Tl6 3.526067 1_555
I5 Tl7 3.526067 1_555
I5 Tl4 3.526067 1_555
I6 Tl1 3.408198 1_555
I6 Tl2 3.408198 1_554
I7 Tl3 3.408198 1_554
I7 Tl0 3.408198 1_555
I8 Tl7 3.562447 1_545
I8 Tl6 3.562447 1_555
I9 Tl6 3.562447 1_455
I9 Tl7 3.562447 1_555
I10 Tl4 3.562447 1_545
I10 Tl5 3.562447 1_555
I11 Tl5 3.562447 1_455
I11 Tl4 3.562447 1_555
