# generated using pymatgen
data_Yb2MgTi2O6
_symmetry_space_group_name_H-M   'P 1'
_cell_length_a   6.23785936
_cell_length_b   6.23785874
_cell_length_c   6.23785810
_cell_angle_alpha   49.84510491
_cell_angle_beta   49.84509915
_cell_angle_gamma   49.84510386
_symmetry_Int_Tables_number   1
_chemical_formula_structural   Yb2MgTi2O6
_chemical_formula_sum   'Yb2 Mg1 Ti2 O6'
_cell_volume   130.43714203
_cell_formula_units_Z   1
loop_
 _symmetry_equiv_pos_site_id
 _symmetry_equiv_pos_as_xyz
  1  'x, y, z'
loop_
 _atom_site_type_symbol
 _atom_site_label
 _atom_site_symmetry_multiplicity
 _atom_site_fract_x
 _atom_site_fract_y
 _atom_site_fract_z
 _atom_site_occupancy
  Yb  Yb0  1  0.33028600  0.33028600  0.33028600  1
  Yb  Yb1  1  0.66971400  0.66971400  0.66971400  1
  Mg  Mg0  1  0.50000000  0.50000000  0.50000000  1
  Ti  Ti0  1  0.15160600  0.15160600  0.15160600  1
  Ti  Ti1  1  0.84839400  0.84839400  0.84839400  1
  O  O0  1  0.09076300  0.75339300  0.44450900  1
  O  O1  1  0.44450900  0.09076300  0.75339300  1
  O  O2  1  0.75339300  0.44450900  0.09076300  1
  O  O3  1  0.24660700  0.55549100  0.90923700  1
  O  O4  1  0.55549100  0.90923700  0.24660700  1
  O  O5  1  0.90923700  0.24660700  0.55549100  1
loop_
_geom_bond_atom_site_label_1
_geom_bond_atom_site_label_2
_geom_bond_distance
_geom_bond_site_symmetry_2
Mg0 O3 2.089219 1_555
Mg0 O2 2.089219 1_555
Mg0 O4 2.089219 1_555
Mg0 O1 2.089219 1_555
Mg0 O5 2.089219 1_555
Mg0 O0 2.089219 1_555
O0 Ti0 2.029962 1_565
O0 Ti1 2.200396 1_455
O0 Yb1 2.282102 1_455
O0 Yb0 2.381669 1_555
O1 Ti0 2.029961 1_556
O1 Ti1 2.200397 1_545
O1 Yb1 2.282102 1_545
O1 Yb0 2.381669 1_555
O2 Ti0 2.029962 1_655
O2 Ti1 2.200397 1_554
O2 Yb1 2.282102 1_554
O2 Yb0 2.381669 1_555
O3 Ti1 2.029962 1_455
O3 Ti0 2.200397 1_556
O3 Yb0 2.282102 1_556
O3 Yb1 2.381669 1_555
O4 Ti1 2.029961 1_554
O4 Ti0 2.200397 1_565
O4 Yb0 2.282102 1_565
O4 Yb1 2.381669 1_555
O5 Ti1 2.029962 1_545
O5 Ti0 2.200396 1_655
O5 Yb0 2.282102 1_655
O5 Yb1 2.381669 1_555
