# generated using pymatgen
data_MgMn6(O2F)4
_symmetry_space_group_name_H-M   'P 1'
_cell_length_a   4.92485628
_cell_length_b   4.92191128
_cell_length_c   9.15906700
_cell_angle_alpha   89.99995797
_cell_angle_beta   89.99988554
_cell_angle_gamma   90.03845024
_symmetry_Int_Tables_number   1
_chemical_formula_structural   MgMn6(O2F)4
_chemical_formula_sum   'Mg1 Mn6 O8 F4'
_cell_volume   222.01303811
_cell_formula_units_Z   1
loop_
 _symmetry_equiv_pos_site_id
 _symmetry_equiv_pos_as_xyz
  1  'x, y, z'
loop_
 _atom_site_type_symbol
 _atom_site_label
 _atom_site_symmetry_multiplicity
 _atom_site_fract_x
 _atom_site_fract_y
 _atom_site_fract_z
 _atom_site_occupancy
  Mg  Mg0  1  0.49999700  0.00000200  0.58472000  1
  Mn  Mn0  1  0.00000000  0.99999900  0.01914300  1
  Mn  Mn1  1  0.00000000  0.99999900  0.32977600  1
  Mn  Mn2  1  0.00000100  0.00000100  0.66895700  1
  Mn  Mn3  1  0.50000100  0.50000100  0.83714400  1
  Mn  Mn4  1  0.49999900  0.49999900  0.14775900  1
  Mn  Mn5  1  0.49999900  0.49999900  0.49761300  1
  O  O0  1  0.18525500  0.81490600  0.17018900  1
  O  O1  1  0.20364500  0.80945500  0.49562800  1
  O  O2  1  0.31454400  0.31475900  0.99661000  1
  O  O3  1  0.30845000  0.29753500  0.67140600  1
  O  O4  1  0.68545700  0.68524200  0.99661100  1
  O  O5  1  0.69155300  0.70246500  0.67140700  1
  O  O6  1  0.81474500  0.18509200  0.17018900  1
  O  O7  1  0.79635600  0.19054600  0.49562700  1
  F  F0  1  0.18890100  0.81888100  0.84347200  1
  F  F1  1  0.31812200  0.31198600  0.32299400  1
  F  F2  1  0.68187800  0.68801100  0.32299500  1
  F  F3  1  0.81110000  0.18112200  0.84347200  1
loop_
_geom_bond_atom_site_label_1
_geom_bond_atom_site_label_2
_geom_bond_distance
_geom_bond_site_symmetry_2
Mg0 O3 1.914858 1_555
Mg0 O5 1.914899 1_545
Mg0 O1 1.916693 1_545
Mg0 O7 1.916713 1_555
Mn0 O6 1.891389 1_465
Mn0 O0 1.891391 1_555
Mn0 O4 2.199785 1_454
Mn0 O2 2.199799 1_564
Mn1 O0 1.949338 1_555
Mn1 O6 1.949339 1_465
Mn1 O7 2.047964 1_465
Mn1 O1 2.047969 1_555
Mn2 O1 2.099267 1_545
Mn2 O7 2.099276 1_455
Mn2 O3 2.109420 1_555
Mn2 O5 2.109424 1_445
Mn3 O2 1.948742 1_555
Mn3 O4 1.948748 1_555
Mn3 O5 2.045975 1_555
Mn3 O3 2.045988 1_555
Mn4 O2 1.892315 1_554
Mn4 O4 1.892319 1_554
Mn4 O0 2.202378 1_555
Mn4 O6 2.202385 1_555
Mn5 O3 2.101295 1_555
Mn5 O5 2.101322 1_555
Mn5 O7 2.110293 1_555
Mn5 O1 2.110293 1_555
F0 Mn2 2.053325 1_565
F0 Mn0 2.061574 1_556
F0 Mn3 2.194838 1_555
F1 Mn5 2.053157 1_555
F1 Mn4 2.057551 1_555
F1 Mn1 2.193895 1_545
F2 Mn5 2.053148 1_555
F2 Mn4 2.057564 1_555
F2 Mn1 2.193899 1_655
F3 Mn2 2.053328 1_655
F3 Mn0 2.061585 1_646
F3 Mn3 2.194831 1_555
