# generated using pymatgen
data_Sc2SiGe2S5O24
_symmetry_space_group_name_H-M   'P 1'
_cell_length_a   8.62991401
_cell_length_b   8.65637915
_cell_length_c   22.30936466
_cell_angle_alpha   89.68250271
_cell_angle_beta   90.01808883
_cell_angle_gamma   120.14914385
_symmetry_Int_Tables_number   1
_chemical_formula_structural   Sc2SiGe2S5O24
_chemical_formula_sum   'Sc6 Si3 Ge6 S15 O72'
_cell_volume   1441.11116624
_cell_formula_units_Z   3
loop_
 _symmetry_equiv_pos_site_id
 _symmetry_equiv_pos_as_xyz
  1  'x, y, z'
loop_
 _atom_site_type_symbol
 _atom_site_label
 _atom_site_symmetry_multiplicity
 _atom_site_fract_x
 _atom_site_fract_y
 _atom_site_fract_z
 _atom_site_occupancy
  Sc  Sc0  1  0.98922606  0.00124427  0.36260205  1
  Sc  Sc1  1  0.00385523  0.00317305  0.85928136  1
  Sc  Sc2  1  0.68207488  0.33787582  0.68392006  1
  Sc  Sc3  1  0.65600451  0.33531233  0.18495642  1
  Sc  Sc4  1  0.65283970  0.32936919  0.98390042  1
  Sc  Sc5  1  0.32963279  0.66334866  0.80720669  1
  Si  Si0  1  0.96936962  0.33771172  0.58143932  1
  Si  Si1  1  0.36137029  0.33356017  0.08399034  1
  Si  Si2  1  0.60349688  0.95036735  0.41895921  1
  Ge  Ge0  1  0.99948514  0.00799269  0.64200865  1
  Ge  Ge1  1  0.00579756  0.00431883  0.14715038  1
  Ge  Ge2  1  0.67564902  0.31411408  0.47896078  1
  Ge  Ge3  1  0.33328048  0.66063403  0.02254118  1
  Ge  Ge4  1  0.33653997  0.66316924  0.52128021  1
  Ge  Ge5  1  0.33649181  0.67495224  0.31516789  1
  S  S0  1  0.28186557  0.98585352  0.25148668  1
  S  S1  1  0.70786085  0.71739906  0.25026682  1
  S  S2  1  0.01204184  0.30041219  0.25161281  1
  S  S3  1  0.28560772  0.28254923  0.74737437  1
  S  S4  1  0.99909117  0.72235429  0.74704499  1
  S  S5  1  0.71787760  -0.00115606  0.74810876  1
  S  S6  1  0.37010735  0.03837296  0.58229471  1
  S  S7  1  0.66951100  0.62744925  0.58133962  1
  S  S8  1  0.96833471  0.63632085  0.08375179  1
  S  S9  1  0.66689354  0.03093691  0.08391559  1
  S  S10  1  0.61610617  0.66698879  0.91799338  1
  S  S11  1  0.04661834  0.38366587  0.91865753  1
  S  S12  1  0.33554135  0.94625345  0.91893586  1
  S  S13  1  0.34800499  0.38903233  0.41843241  1
  S  S14  1  0.04343236  0.65553282  0.41779772  1
  O  O0  1  0.20119804  0.01557496  0.30402925  1
  O  O1  1  0.81921694  0.80205345  0.30254469  1
  O  O2  1  0.98222699  0.18835301  0.30454350  1
  O  O3  1  0.20346405  0.17525606  0.80208697  1
  O  O4  1  0.97680982  0.80548899  0.80132222  1
  O  O5  1  0.82671326  0.02637271  0.80207386  1
  O  O6  1  0.79867728  0.96523427  0.69337569  1
  O  O7  1  0.16904156  0.19987657  0.69316728  1
  O  O8  1  0.03157543  0.83583205  0.69151249  1
  O  O9  1  0.78819402  0.83299545  0.19415663  1
  O  O10  1  0.04866600  0.22133461  0.19688332  1
  O  O11  1  0.16798880  0.95327919  0.19590042  1
  O  O12  1  0.88659473  0.37853106  0.63953419  1
  O  O13  1  0.48082996  0.11814842  0.63551847  1
  O  O14  1  0.63294772  0.51588331  0.63514599  1
  O  O15  1  0.89368214  0.51960533  0.13656482  1
  O  O16  1  0.63462489  0.11041768  0.13696014  1
  O  O17  1  0.49079261  0.37249949  0.14092777  1
  O  O18  1  0.44649533  0.29135463  0.02636055  1
  O  O19  1  0.85799540  0.55816779  0.03012444  1
  O  O20  1  0.70917421  0.14598881  0.03055323  1
  O  O21  1  0.44634985  0.15878309  0.52852087  1
  O  O22  1  0.70286877  0.54845209  0.52741110  1
  O  O23  1  0.83313469  0.29427957  0.52403372  1
  O  O24  1  0.53466977  0.70112107  0.97230883  1
  O  O25  1  0.16308832  0.46695330  0.97268999  1
  O  O26  1  0.30277270  0.83220233  0.97427340  1
  O  O27  1  0.51421281  0.82289423  0.47783566  1
  O  O28  1  0.30323903  0.46256750  0.47135343  1
  O  O29  1  0.15627729  0.68685959  0.47087917  1
  O  O30  1  0.11503672  0.61134475  0.36248980  1
  O  O31  1  0.47993151  0.86295708  0.35759248  1
  O  O32  1  0.38022612  0.50094266  0.36255697  1
  O  O33  1  0.12901674  0.49093439  0.86396701  1
  O  O34  1  0.35741526  0.86269458  0.86477635  1
  O  O35  1  0.50736953  0.63964126  0.86398769  1
  O  O36  1  0.03205159  0.81629522  0.40879086  1
  O  O37  1  0.79762417  0.97050999  0.41164773  1
  O  O38  1  0.19326890  0.21074147  0.40997012  1
  O  O39  1  0.03417690  0.20794191  0.91301815  1
  O  O40  1  0.17473673  0.96364005  0.91396303  1
  O  O41  1  0.79333325  0.82914256  0.91208211  1
  O  O42  1  0.98546254  0.15732707  0.59205117  1
  O  O43  1  0.18688593  0.01441403  0.59047044  1
  O  O44  1  0.83333804  0.80767626  0.58994859  1
  O  O45  1  0.97956920  0.81232308  0.09400330  1
  O  O46  1  0.82165052  0.00177515  0.09388481  1
  O  O47  1  0.16492264  0.15395812  0.09631931  1
  O  O48  1  0.69750105  0.15528336  0.74101875  1
  O  O49  1  0.46116330  0.30104308  0.73952970  1
  O  O50  1  0.83731892  0.54775139  0.74167545  1
  O  O51  1  0.69317316  0.54286545  0.24259056  1
  O  O52  1  0.85772223  0.32303463  0.24162377  1
  O  O53  1  0.46277968  0.13801138  0.24222360  1
  O  O54  1  0.63687725  0.51084065  0.92547540  1
  O  O55  1  0.87100413  0.36493358  0.92669146  1
  O  O56  1  0.49724317  0.12050908  0.92497755  1
  O  O57  1  0.61708748  0.14561936  0.42578587  1
  O  O58  1  0.51406352  0.38164371  0.42768401  1
  O  O59  1  0.85963863  0.49855250  0.42522565  1
  O  O60  1  0.34234168  0.51011857  0.07240003  1
  O  O61  1  0.15320742  0.66741057  0.07411317  1
  O  O62  1  0.50197620  0.85420584  0.07389016  1
  O  O63  1  0.35140421  0.86106728  0.57362390  1
  O  O64  1  0.51033303  0.64968968  0.57460828  1
  O  O65  1  0.16632829  0.51335478  0.56874480  1
  O  O66  1  0.29041783  0.81581578  0.25638234  1
  O  O67  1  0.52548249  0.69731508  0.25617853  1
  O  O68  1  0.18047803  0.48111504  0.25943855  1
  O  O69  1  0.29856512  0.45845946  0.75324009  1
  O  O70  1  0.15974527  0.70462055  0.75228905  1
  O  O71  1  0.54060074  0.83700985  0.75409930  1
loop_
_geom_bond_atom_site_label_1
_geom_bond_atom_site_label_2
_geom_bond_distance
_geom_bond_site_symmetry_2
Ge0 O42 1.751841 1_555
Ge0 O7 1.944535 1_655
Ge0 O6 1.950797 1_545
Ge0 O43 1.962337 1_655
Ge0 O8 1.978254 1_645
Ge0 O44 1.983779 1_545
Ge1 O47 1.745719 1_555
Ge1 O45 1.965466 1_445
Ge1 O46 1.975351 1_455
Ge1 O11 1.987989 1_545
Ge1 O9 2.003024 1_445
Ge1 O10 2.054662 1_555
Ge2 O57 1.751698 1_555
Ge2 O23 1.766168 1_555
Ge2 O59 1.985148 1_555
Ge2 O21 2.063584 1_555
Ge2 O58 2.098878 1_555
Ge2 O22 2.209952 1_555
Ge3 O60 1.739883 1_555
Ge3 O25 1.936766 1_554
Ge3 O24 1.945318 1_554
Ge3 O62 1.951741 1_555
Ge3 O26 1.951778 1_554
Ge3 O61 1.958466 1_555
Ge4 O65 1.741558 1_555
Ge4 O27 1.748893 1_555
Ge4 O64 1.962555 1_555
Ge4 O28 1.964318 1_555
Ge4 O29 2.010775 1_555
Ge4 O63 2.028814 1_555
Ge5 O31 1.751965 1_555
Ge5 O66 1.958029 1_555
Ge5 O68 1.981591 1_555
Ge5 O30 2.001991 1_555
Ge5 O32 2.020458 1_555
Ge5 O67 2.027517 1_555
O0 S0 1.452111 1_545
O0 Sc0 2.200230 1_455
O1 S1 1.456744 1_555
O1 Sc0 2.098579 1_565
O2 S2 1.462309 1_655
O2 Sc0 2.092766 1_555
O3 S3 1.477035 1_555
O3 Sc1 2.053575 1_555
O4 S4 1.473067 1_555
O4 Sc1 2.068294 1_665
O5 S5 1.471747 1_555
O5 Sc1 2.076169 1_655
O6 S5 1.506688 1_565
O7 S3 1.507394 1_555
O8 S4 1.512776 1_455
O9 S1 1.529280 1_555
O10 S2 1.511985 1_555
O11 S0 1.519171 1_555
O12 Si0 1.604405 1_555
O12 Sc2 1.895487 1_555
O13 S6 1.464701 1_555
O13 Sc2 2.122108 1_555
O14 S7 1.467809 1_555
O14 Sc2 2.091764 1_555
O15 S8 1.468840 1_555
O15 Sc3 2.147802 1_555
O16 S9 1.467316 1_555
O16 Sc3 2.152366 1_555
O17 Si1 1.612536 1_555
O17 Sc3 1.886236 1_555
O18 Si1 1.612927 1_555
O18 Sc4 1.893564 1_554
O19 S8 1.468642 1_555
O19 Sc4 2.149373 1_554
O20 S9 1.471178 1_555
O20 Sc4 2.143843 1_554
O21 S6 1.502088 1_555
O22 S7 1.484942 1_555
O23 Si0 1.650494 1_555
O24 S10 1.504201 1_555
O25 S11 1.504683 1_555
O26 S12 1.511634 1_555
O27 Si2 1.633125 1_555
O28 S13 1.484581 1_555
O29 S14 1.470314 1_555
O30 S14 1.514522 1_555
O31 Si2 1.668536 1_555
O32 S13 1.511919 1_555
O33 S11 1.476911 1_555
O33 Sc5 2.052620 1_555
O34 S12 1.471635 1_555
O34 Sc5 2.072084 1_555
O35 S10 1.472255 1_555
O35 Sc5 2.076429 1_555
O36 S14 1.456301 1_555
O36 Sc0 2.082644 1_465
O37 Si2 1.603146 1_555
O37 Sc0 1.886297 1_565
O38 S13 1.460691 1_555
O38 Sc0 2.078097 1_455
O39 S11 1.476231 1_555
O39 Sc1 2.050626 1_555
O40 S12 1.473185 1_555
O40 Sc1 2.069103 1_565
O41 S10 1.472569 1_555
O41 Sc1 2.046988 1_665
O42 Si0 1.651444 1_555
O43 S6 1.498926 1_555
O44 S7 1.502402 1_555
O45 S8 1.496114 1_555
O46 S9 1.494891 1_555
O47 Si1 1.647677 1_555
O48 S5 1.458290 1_555
O48 Sc2 2.080286 1_555
O49 S3 1.451825 1_555
O49 Sc2 2.159132 1_555
O50 S4 1.459495 1_555
O50 Sc2 2.082217 1_555
O51 S1 1.462357 1_555
O51 Sc3 2.104887 1_555
O52 S2 1.457021 1_655
O52 Sc3 2.196111 1_555
O53 S0 1.465142 1_545
O53 Sc3 2.108596 1_555
O54 S10 1.458729 1_555
O54 Sc4 2.092879 1_555
O55 S11 1.451984 1_655
O55 Sc4 2.164105 1_555
O56 S12 1.458951 1_545
O56 Sc4 2.094373 1_555
O57 Si2 1.642364 1_545
O58 S13 1.480581 1_555
O59 S14 1.490776 1_655
O60 Si1 1.636277 1_555
O61 S8 1.494106 1_455
O62 S9 1.494153 1_565
O63 S6 1.474308 1_565
O64 S7 1.487230 1_555
O65 Si0 1.637248 1_455
O66 S0 1.513683 1_555
O67 S1 1.499941 1_555
O68 S2 1.519571 1_555
O69 S3 1.476326 1_555
O69 Sc5 2.052524 1_555
O70 S4 1.474087 1_455
O70 Sc5 2.073248 1_555
O71 S5 1.471770 1_565
O71 Sc5 2.051989 1_555
