# generated using pymatgen
data_Na7Nb2Zn2Si3(PO8)3
_symmetry_space_group_name_H-M   'P 1'
_cell_length_a   9.16207837
_cell_length_b   9.12480952
_cell_length_c   22.23404716
_cell_angle_alpha   90.53006738
_cell_angle_beta   89.66887590
_cell_angle_gamma   120.18618870
_symmetry_Int_Tables_number   1
_chemical_formula_structural   Na7Nb2Zn2Si3(PO8)3
_chemical_formula_sum   'Na21 Nb6 Zn6 Si9 P9 O72'
_cell_volume   1606.68278657
_cell_formula_units_Z   3
loop_
 _symmetry_equiv_pos_site_id
 _symmetry_equiv_pos_as_xyz
  1  'x, y, z'
loop_
 _atom_site_type_symbol
 _atom_site_label
 _atom_site_symmetry_multiplicity
 _atom_site_fract_x
 _atom_site_fract_y
 _atom_site_fract_z
 _atom_site_occupancy
  Na  Na0  1  0.61604183  0.97874926  0.25888962  1
  Na  Na1  1  0.35625473  0.37530662  0.25499331  1
  Na  Na2  1  0.02662245  0.64440026  0.25458047  1
  Na  Na3  1  0.64766811  0.62129387  0.74543727  1
  Na  Na4  1  0.97864008  0.35958969  0.74238412  1
  Na  Na5  1  0.37705811  0.01966255  0.74366793  1
  Na  Na6  1  0.01451063  0.67979068  0.58429832  1
  Na  Na7  1  0.66851332  0.98757096  0.58371020  1
  Na  Na8  1  0.27962036  0.94931428  0.08560915  1
  Na  Na9  1  0.66858760  0.71728642  0.07994224  1
  Na  Na10  1  0.05097934  0.33426709  0.08594566  1
  Na  Na11  1  0.97519253  0.69139860  0.90819039  1
  Na  Na12  1  0.31631596  0.28840650  0.90939846  1
  Na  Na13  1  0.95209370  0.30608695  0.42461413  1
  Na  Na14  1  0.35631164  0.04339397  0.42274043  1
  Na  Na15  1  0.99967350  0.00133887  0.50125537  1
  Na  Na16  1  0.98500333  0.99337045  0.99628619  1
  Na  Na17  1  0.66743692  0.32930423  0.82187998  1
  Na  Na18  1  0.66645808  0.34098889  0.34761639  1
  Na  Na19  1  0.32567432  0.66660252  0.16927919  1
  Na  Na20  1  0.32808149  0.65498422  0.66387645  1
  Nb  Nb0  1  0.99794310  0.00208766  0.35183333  1
  Nb  Nb1  1  0.01148657  0.00702762  0.64862233  1
  Nb  Nb2  1  0.67209480  0.33265628  0.18913634  1
  Nb  Nb3  1  0.67062337  0.33976535  0.97684056  1
  Nb  Nb4  1  0.33776695  0.66767452  0.51771916  1
  Nb  Nb5  1  0.33479837  0.66555621  0.81512714  1
  Zn  Zn0  1  0.99001030  0.99360107  0.84850298  1
  Zn  Zn1  1  0.00467631  0.99588488  0.15163173  1
  Zn  Zn2  1  0.66852834  0.33543568  0.67785050  1
  Zn  Zn3  1  0.66467033  0.32531693  0.48919426  1
  Zn  Zn4  1  0.33319507  0.66862587  0.01597970  1
  Zn  Zn5  1  0.32935122  0.66926489  0.31804060  1
  Si  Si0  1  0.29247562  0.99786560  0.24605983  1
  Si  Si1  1  0.00385635  0.29293388  0.24548365  1
  Si  Si2  1  0.29548217  0.29248919  0.75629870  1
  Si  Si3  1  0.99845396  0.70312275  0.75372939  1
  Si  Si4  1  0.96284278  0.33225831  0.58290904  1
  Si  Si5  1  0.37354546  0.04209776  0.58219337  1
  Si  Si6  1  0.96322728  0.63053895  0.08328103  1
  Si  Si7  1  0.62980781  0.67618831  0.92231033  1
  Si  Si8  1  0.62865174  0.96169242  0.41213276  1
  P  P0  1  0.70994437  0.70905067  0.24632439  1
  P  P1  1  0.70805432  0.99778613  0.75212449  1
  P  P2  1  0.66552253  0.62731503  0.58426699  1
  P  P3  1  0.66551911  0.04551726  0.08216355  1
  P  P4  1  0.38031312  0.33366390  0.08337493  1
  P  P5  1  0.04099774  0.37285629  0.91964259  1
  P  P6  1  0.33635221  0.95947777  0.92086699  1
  P  P7  1  0.33534853  0.37502112  0.41173353  1
  P  P8  1  0.03785726  0.66704564  0.41459374  1
  O  O0  1  0.19411356  0.02961379  0.30553990  1
  O  O1  1  0.83368673  0.80169509  0.30149018  1
  O  O2  1  0.96785798  0.16256808  0.30506013  1
  O  O3  1  0.21110678  0.18278356  0.81475084  1
  O  O4  1  0.96886577  0.78381705  0.81307155  1
  O  O5  1  0.81870420  0.02783936  0.80628257  1
  O  O6  1  0.78614304  0.96335335  0.69403161  1
  O  O7  1  0.16277247  0.19413919  0.69755758  1
  O  O8  1  0.02688088  0.83017264  0.69473756  1
  O  O9  1  0.78310105  0.81201499  0.18960869  1
  O  O10  1  0.02882545  0.20903942  0.18586465  1
  O  O11  1  0.18053667  0.96250565  0.18691772  1
  O  O12  1  0.89645106  0.38246180  0.64266609  1
  O  O13  1  0.48730103  0.10801193  0.64223125  1
  O  O14  1  0.63238676  0.53214366  0.64324663  1
  O  O15  1  0.85418019  0.50213541  0.14101997  1
  O  O16  1  0.64941786  0.14117434  0.14033194  1
  O  O17  1  0.49354474  0.34763070  0.13907861  1
  O  O18  1  0.47822308  0.31755686  0.02685265  1
  O  O19  1  0.83587426  0.51877056  0.02514913  1
  O  O20  1  0.67985122  0.16300528  0.02865407  1
  O  O21  1  0.44203819  0.14391228  0.52094897  1
  O  O22  1  0.70613101  0.55050125  0.53061754  1
  O  O23  1  0.84817476  0.28731226  0.52349233  1
  O  O24  1  0.53967493  0.68591760  0.98231906  1
  O  O25  1  0.14296337  0.45473840  0.97643843  1
  O  O26  1  0.30745583  0.85289121  0.97642320  1
  O  O27  1  0.52723189  0.83859245  0.47179678  1
  O  O28  1  0.30695021  0.46922076  0.46682150  1
  O  O29  1  0.15904678  0.69484447  0.47014190  1
  O  O30  1  0.11267356  0.63830712  0.35740963  1
  O  O31  1  0.51692299  0.87595718  0.35374795  1
  O  O32  1  0.34716665  0.46793249  0.35415793  1
  O  O33  1  0.13142869  0.49648718  0.86345006  1
  O  O34  1  0.35777726  0.86608902  0.86350106  1
  O  O35  1  0.49862203  0.64107387  0.86260448  1
  O  O36  1  0.03792584  0.84088474  0.41147362  1
  O  O37  1  0.81958179  0.97511335  0.41009298  1
  O  O38  1  0.16111280  0.19388561  0.41120542  1
  O  O39  1  0.02194664  0.20052898  0.91061913  1
  O  O40  1  0.18821940  0.98983756  0.91436576  1
  O  O41  1  0.82163253  0.82477086  0.91529075  1
  O  O42  1  0.97690943  0.15781464  0.59357914  1
  O  O43  1  0.17344554  0.00276769  0.59130833  1
  O  O44  1  0.82329175  0.81463547  0.59088324  1
  O  O45  1  0.96464541  0.80767495  0.08216259  1
  O  O46  1  0.82693438  0.03750392  0.08288067  1
  O  O47  1  0.20851904  0.17221356  0.08165399  1
  O  O48  1  0.67736210  0.14630137  0.74577590  1
  O  O49  1  0.48181293  0.32103924  0.74548059  1
  O  O50  1  0.83970861  0.51345518  0.74542349  1
  O  O51  1  0.70288618  0.53153685  0.24461234  1
  O  O52  1  0.82431449  0.30290583  0.24450764  1
  O  O53  1  0.47873013  0.18138859  0.24397150  1
  O  O54  1  0.63383962  0.48794430  0.92246328  1
  O  O55  1  0.86437681  0.36638486  0.92133181  1
  O  O56  1  0.50371236  0.13828248  0.92268727  1
  O  O57  1  0.65725368  0.15140849  0.41883310  1
  O  O58  1  0.48016468  0.34303031  0.41981966  1
  O  O59  1  0.86350082  0.51487453  0.42441705  1
  O  O60  1  0.37199736  0.49630683  0.08432669  1
  O  O61  1  0.14183414  0.63557830  0.08256283  1
  O  O62  1  0.50276665  0.87433748  0.08321747  1
  O  O63  1  0.34364029  0.84201474  0.57365264  1
  O  O64  1  0.50990713  0.65736259  0.57417413  1
  O  O65  1  0.15540994  0.50061132  0.57151347  1
  O  O66  1  0.32486026  0.84114339  0.25322048  1
  O  O67  1  0.53204846  0.67601481  0.25556371  1
  O  O68  1  0.16201089  0.48085109  0.25509849  1
  O  O69  1  0.30242344  0.48150367  0.75776997  1
  O  O70  1  0.18091237  0.69872876  0.75709856  1
  O  O71  1  0.52751105  0.82826159  0.75771792  1
loop_
_geom_bond_atom_site_label_1
_geom_bond_atom_site_label_2
_geom_bond_distance
_geom_bond_site_symmetry_2
Na0 O31 2.304473 1_555
Na0 O66 2.311303 1_555
Na0 O67 2.467310 1_555
Na0 O52 2.612848 1_565
Na0 O53 2.732612 1_565
Na1 O32 2.369965 1_555
Na1 O67 2.382988 1_555
Na1 O68 2.412110 1_555
Na1 O53 2.536881 1_555
Na1 O51 2.759779 1_555
Na2 O68 2.372344 1_555
Na2 O66 2.399427 1_555
Na2 O30 2.432930 1_555
Na2 O51 2.615148 1_455
Na2 O52 2.716492 1_455
Na2 O15 2.911953 1_455
Na2 O11 2.935517 1_555
Na2 O1 2.962265 1_455
Na3 O49 2.372503 1_555
Na3 O14 2.387213 1_555
Na3 O50 2.409388 1_555
Na3 O71 2.632650 1_555
Na3 O69 2.765280 1_555
Na3 O6 2.953824 1_555
Na3 O4 2.956699 1_555
Na3 O35 2.980261 1_555
Na4 O50 2.321742 1_555
Na4 O12 2.390019 1_555
Na4 O48 2.451688 1_555
Na4 O69 2.615508 1_655
Na4 O70 2.709055 1_655
Na4 O7 2.938134 1_655
Na4 O5 2.987325 1_555
Na4 O33 2.998096 1_655
Na5 O48 2.389761 1_555
Na5 O49 2.414434 1_555
Na5 O13 2.438272 1_555
Na5 O70 2.571433 1_545
Na5 O71 2.735706 1_545
Na6 O43 2.551206 1_565
Na6 O65 2.555411 1_555
Na6 O44 2.601205 1_455
Na6 O63 2.617231 1_555
Na6 O12 2.704198 1_455
Na6 O22 2.731327 1_455
Na6 O8 2.776654 1_555
Na6 O29 2.828328 1_555
Na7 O42 2.455995 1_565
Na7 O63 2.588497 1_555
Na7 O44 2.604635 1_555
Na7 O64 2.612269 1_555
Na7 O13 2.727790 1_565
Na7 O23 2.738187 1_565
Na7 O6 2.739909 1_555
Na7 O27 2.814285 1_555
Na8 O47 2.430081 1_565
Na8 O11 2.448183 1_555
Na8 O62 2.460786 1_555
Na8 O61 2.481302 1_555
Na8 O45 2.500851 1_455
Na8 O26 2.628992 1_554
Na9 O45 2.406528 1_555
Na9 O24 2.422072 1_554
Na9 O60 2.439256 1_555
Na9 O46 2.526129 1_565
Na9 O62 2.559954 1_555
Na9 O9 2.621443 1_555
Na10 O61 2.441187 1_555
Na10 O46 2.441195 1_455
Na10 O10 2.467986 1_555
Na10 O47 2.534011 1_555
Na10 O60 2.542563 1_555
Na10 O25 2.634582 1_554
Na11 O41 2.280611 1_555
Na11 O4 2.295821 1_555
Na11 O40 2.428024 1_655
Na11 O55 2.626047 1_555
Na11 O54 2.736628 1_555
Na12 O3 2.310459 1_555
Na12 O40 2.366547 1_545
Na12 O39 2.396343 1_555
Na12 O54 2.556585 1_555
Na12 O56 2.700040 1_555
Na12 O18 2.954016 1_556
Na12 O35 2.977351 1_555
Na13 O57 2.339313 1_555
Na13 O23 2.363864 1_555
Na13 O59 2.417383 1_555
Na13 O38 2.600756 1_655
Na13 O37 2.645434 1_545
Na14 O21 2.341897 1_555
Na14 O58 2.376920 1_555
Na14 O57 2.418136 1_555
Na14 O36 2.562400 1_545
Na14 O38 2.762509 1_555
Na15 O37 2.553582 1_545
Na15 O42 2.556588 1_555
Na15 O43 2.561143 1_655
Na15 O38 2.588606 1_655
Na15 O36 2.589434 1_645
Na15 O44 2.596558 1_545
Na16 O41 2.348302 1_555
Na16 O45 2.507899 1_556
Na16 O46 2.550775 1_566
Na16 O39 2.594506 1_665
Na16 O40 2.608697 1_655
Na16 O47 2.662040 1_666
Na17 O50 2.357818 1_555
Na17 O49 2.384446 1_555
Na17 O48 2.399703 1_555
Na17 O54 2.751689 1_555
Na17 O55 2.770932 1_555
Na17 O56 2.777784 1_555
Na18 O57 2.325794 1_555
Na18 O58 2.343202 1_555
Na18 O59 2.407803 1_555
Na18 O53 2.802581 1_555
Na18 O51 2.803710 1_555
Na18 O52 2.814345 1_555
Na19 O66 2.444721 1_555
Na19 O61 2.486470 1_555
Na19 O68 2.496624 1_555
Na19 O60 2.600410 1_555
Na19 O62 2.612571 1_555
Na19 O67 2.671816 1_555
Na20 O65 2.539161 1_555
Na20 O69 2.569152 1_555
Na20 O64 2.584483 1_555
Na20 O70 2.601381 1_555
Na20 O63 2.602394 1_555
Na20 O71 2.696242 1_555
Nb0 O2 1.933706 1_555
Nb0 O0 1.970366 1_655
Nb0 O37 1.996480 1_545
Nb0 O1 2.018808 1_545
Nb0 O38 2.095101 1_655
Nb0 O36 2.154031 1_645
Nb1 O7 1.903504 1_555
Nb1 O43 1.965335 1_555
Nb1 O8 1.984091 1_545
Nb1 O42 1.991283 1_455
Nb1 O6 2.144002 1_445
Nb1 O44 2.154744 1_445
Nb2 O15 1.932555 1_555
Nb2 O16 1.968743 1_555
Nb2 O52 1.985239 1_555
Nb2 O53 2.019252 1_555
Nb2 O17 2.045039 1_555
Nb2 O51 2.083764 1_555
Nb3 O19 1.900887 1_556
Nb3 O54 1.974009 1_555
Nb3 O18 2.001809 1_556
Nb3 O20 2.026918 1_556
Nb3 O55 2.068840 1_555
Nb3 O56 2.078796 1_555
Nb4 O27 1.942845 1_555
Nb4 O63 1.989548 1_555
Nb4 O65 1.998815 1_555
Nb4 O28 2.022666 1_555
Nb4 O64 2.060626 1_555
Nb4 O29 2.072397 1_555
Nb5 O35 1.943449 1_555
Nb5 O69 1.999661 1_555
Nb5 O33 2.030525 1_555
Nb5 O34 2.031792 1_555
Nb5 O70 2.049768 1_555
Nb5 O71 2.079401 1_555
O0 Si0 1.699037 1_545
O1 P0 1.592961 1_555
O2 Si1 1.705296 1_655
O3 Si2 1.588389 1_555
O3 Zn0 2.033827 1_445
O4 Si3 1.592212 1_555
O4 Zn0 1.980753 1_555
O5 P1 1.510420 1_545
O5 Zn0 1.989415 1_545
O6 P1 1.576956 1_555
O7 Si2 1.699678 1_555
O8 Si3 1.689005 1_455
O9 P0 1.516911 1_555
O9 Zn1 2.056791 1_655
O10 Si1 1.596662 1_555
O10 Zn1 1.988235 1_545
O11 Si0 1.600017 1_555
O11 Zn1 1.953701 1_555
O12 Si4 1.613930 1_555
O12 Zn2 2.059878 1_555
O13 Si5 1.612689 1_555
O13 Zn2 2.051915 1_555
O14 P2 1.522274 1_555
O14 Zn2 2.132966 1_555
O15 Si6 1.689635 1_555
O16 P3 1.600845 1_555
O17 P4 1.582851 1_555
O18 P4 1.588016 1_555
O19 Si6 1.693670 1_555
O20 P3 1.569152 1_555
O21 Si5 1.593241 1_555
O21 Zn3 2.002177 1_555
O22 P2 1.514671 1_555
O22 Zn3 2.097311 1_555
O23 Si4 1.609320 1_555
O23 Zn3 2.033357 1_555
O24 Si7 1.590227 1_555
O24 Zn4 1.962018 1_556
O25 P5 1.523128 1_555
O25 Zn4 2.045719 1_556
O26 P6 1.517015 1_555
O26 Zn4 2.021063 1_556
O27 Si8 1.687797 1_555
O28 P7 1.583817 1_555
O29 P8 1.596687 1_555
O30 P8 1.523058 1_555
O30 Zn5 2.051253 1_555
O31 Si8 1.592574 1_555
O31 Zn5 1.967085 1_555
O32 P7 1.515060 1_555
O32 Zn5 2.092099 1_555
O33 P5 1.610667 1_555
O34 P6 1.592719 1_555
O35 Si7 1.712561 1_555
O36 P8 1.588090 1_555
O37 Si8 1.691424 1_555
O38 P7 1.620758 1_555
O39 P5 1.503957 1_555
O39 Zn0 2.226899 1_445
O40 P6 1.523400 1_555
O40 Zn0 2.353275 1_455
O41 Si7 1.598719 1_555
O41 Zn0 2.141071 1_555
O42 Si4 1.679360 1_555
O43 Si5 1.693038 1_555
O44 P2 1.595574 1_555
O45 Si6 1.610260 1_555
O45 Zn1 2.189449 1_655
O46 P3 1.517163 1_555
O46 Zn1 2.407132 1_645
O47 P4 1.522184 1_555
O47 Zn1 2.342748 1_545
O48 P1 1.524046 1_545
O48 Zn2 2.335801 1_555
O49 Si2 1.609144 1_555
O49 Zn2 2.225483 1_555
O50 Si3 1.615740 1_555
O50 Zn2 2.185362 1_555
O51 P0 1.588354 1_555
O52 Si1 1.692829 1_655
O53 Si0 1.686806 1_545
O54 Si7 1.736593 1_555
O55 P5 1.589579 1_655
O56 P6 1.580660 1_545
O57 Si8 1.620844 1_545
O57 Zn3 2.194779 1_555
O58 P7 1.507049 1_555
O58 Zn3 2.360619 1_555
O59 P8 1.516113 1_655
O59 Zn3 2.287317 1_555
O60 P4 1.523769 1_555
O60 Zn4 2.349602 1_555
O61 Si6 1.613768 1_455
O61 Zn4 2.191592 1_555
O62 P3 1.523776 1_565
O62 Zn4 2.283497 1_555
O63 Si5 1.713337 1_565
O64 P2 1.598834 1_555
O65 Si4 1.677306 1_455
O66 Si0 1.609322 1_555
O66 Zn5 2.155445 1_555
O67 P0 1.514206 1_555
O67 Zn5 2.288907 1_555
O68 Si1 1.607411 1_555
O68 Zn5 2.143472 1_555
O69 Si2 1.693651 1_555
O70 Si3 1.694314 1_455
O71 P1 1.603914 1_555
