# generated using pymatgen
data_RuBr3
_symmetry_space_group_name_H-M   'P 1'
_cell_length_a   5.87402058
_cell_length_b   6.63785699
_cell_length_c   11.50443710
_cell_angle_alpha   90.00000000
_cell_angle_beta   90.00000000
_cell_angle_gamma   90.00000000
_symmetry_Int_Tables_number   1
_chemical_formula_structural   RuBr3
_chemical_formula_sum   'Ru4 Br12'
_cell_volume   448.56845507
_cell_formula_units_Z   4
loop_
 _symmetry_equiv_pos_site_id
 _symmetry_equiv_pos_as_xyz
  1  'x, y, z'
loop_
 _atom_site_type_symbol
 _atom_site_label
 _atom_site_symmetry_multiplicity
 _atom_site_fract_x
 _atom_site_fract_y
 _atom_site_fract_z
 _atom_site_occupancy
  Ru  Ru0  1  -0.00044336  0.74497355  0.75000000  1
  Ru  Ru1  1  0.49955664  0.25502645  0.25000000  1
  Ru  Ru2  1  0.50044336  0.74497355  0.75000000  1
  Ru  Ru3  1  0.00044336  0.25502645  0.25000000  1
  Br  Br0  1  0.25000000  0.05008521  0.75000000  1
  Br  Br1  1  0.75000000  0.94991479  0.25000000  1
  Br  Br2  1  0.75000000  0.43961754  0.75000000  1
  Br  Br3  1  0.25000000  0.56038246  0.25000000  1
  Br  Br4  1  0.25000000  0.59241060  0.59783581  1
  Br  Br5  1  0.75000000  0.40758940  0.40216419  1
  Br  Br6  1  0.25000000  0.59241060  0.90216419  1
  Br  Br7  1  0.75000000  0.40758940  0.09783581  1
  Br  Br8  1  0.25000000  0.10217829  0.40243270  1
  Br  Br9  1  0.75000000  0.89782171  0.59756730  1
  Br  Br10  1  0.25000000  0.10217829  0.09756730  1
  Br  Br11  1  0.75000000  0.89782171  0.90243270  1
loop_
_geom_bond_atom_site_label_1
_geom_bond_atom_site_label_2
_geom_bond_distance
_geom_bond_site_symmetry_2
Br0 Ru0 2.503189 1_545
Br0 Ru2 2.503189 1_545
Br1 Ru3 2.503189 1_665
Br1 Ru1 2.503189 1_565
Br2 Ru2 2.501445 1_555
Br2 Ru0 2.501445 1_655
Br3 Ru3 2.501445 1_555
Br3 Ru1 2.501445 1_555
Br4 Ru2 2.500836 1_555
Br4 Ru0 2.500836 1_555
Br5 Ru3 2.500836 1_655
Br5 Ru1 2.500836 1_555
Br6 Ru2 2.500836 1_555
Br6 Ru0 2.500836 1_555
Br7 Ru3 2.500836 1_655
Br7 Ru1 2.500836 1_555
Br8 Ru3 2.500709 1_555
Br8 Ru1 2.500709 1_555
Br9 Ru2 2.500709 1_555
Br9 Ru0 2.500709 1_655
Br10 Ru3 2.500709 1_555
Br10 Ru1 2.500709 1_555
Br11 Ru2 2.500709 1_555
Br11 Ru0 2.500709 1_655
