# generated using pymatgen
data_TmCrO4
_symmetry_space_group_name_H-M   'P 1'
_cell_length_a   5.84028855
_cell_length_b   5.84032548
_cell_length_c   5.83995115
_cell_angle_alpha   106.27282636
_cell_angle_beta   106.28112879
_cell_angle_gamma   116.06974813
_symmetry_Int_Tables_number   1
_chemical_formula_structural   TmCrO4
_chemical_formula_sum   'Tm2 Cr2 O8'
_cell_volume   151.79585311
_cell_formula_units_Z   2
loop_
 _symmetry_equiv_pos_site_id
 _symmetry_equiv_pos_as_xyz
  1  'x, y, z'
loop_
 _atom_site_type_symbol
 _atom_site_label
 _atom_site_symmetry_multiplicity
 _atom_site_fract_x
 _atom_site_fract_y
 _atom_site_fract_z
 _atom_site_occupancy
  Tm  Tm0  1  0.12501139  0.87500971  0.24999955  1
  Tm  Tm1  1  0.87498499  0.12499083  0.75000004  1
  Cr  Cr0  1  0.37501536  0.62501352  0.75000282  1
  Cr  Cr1  1  0.62498483  0.37499481  0.25000749  1
  O  O0  1  0.80627959  0.73692318  0.43962430  1
  O  O1  1  0.36662858  0.80625539  0.56936816  1
  O  O2  1  0.73689919  0.79727192  0.93062398  1
  O  O3  1  0.79729063  0.36665408  0.06036961  1
  O  O4  1  0.63334833  0.20276598  0.43963607  1
  O  O5  1  0.20269284  0.26305620  0.56933620  1
  O  O6  1  0.19373969  0.63336722  0.93067424  1
  O  O7  1  0.26312358  0.19369917  0.06035853  1
loop_
_geom_bond_atom_site_label_1
_geom_bond_atom_site_label_2
_geom_bond_distance
_geom_bond_site_symmetry_2
Cr0 O1 1.696477 1_555
Cr0 O2 1.696496 1_555
Cr0 O6 1.696872 1_555
Cr0 O5 1.696931 1_555
Cr1 O4 1.696370 1_555
Cr1 O7 1.696386 1_555
Cr1 O0 1.696778 1_555
Cr1 O3 1.696845 1_555
O0 Tm1 2.252510 1_565
O0 Tm0 2.383006 1_655
O1 Tm0 2.252360 1_555
O1 Tm1 2.382962 1_565
O2 Tm0 2.252375 1_656
O2 Tm1 2.382888 1_565
O3 Tm1 2.252466 1_554
O3 Tm0 2.383028 1_655
O4 Tm1 2.252487 1_555
O4 Tm0 2.382886 1_545
O5 Tm0 2.252376 1_545
O5 Tm1 2.383062 1_455
O6 Tm0 2.252359 1_556
O6 Tm1 2.383115 1_455
O7 Tm1 2.252525 1_454
O7 Tm0 2.382850 1_545
