# generated using pymatgen
data_Ba3(Si2P3)2
_symmetry_space_group_name_H-M   'P 1'
_cell_length_a   7.35616574
_cell_length_b   7.56463277
_cell_length_c   11.62388855
_cell_angle_alpha   80.65469571
_cell_angle_beta   90.00000000
_cell_angle_gamma   90.00000000
_symmetry_Int_Tables_number   1
_chemical_formula_structural   Ba3(Si2P3)2
_chemical_formula_sum   'Ba6 Si8 P12'
_cell_volume   638.24596913
_cell_formula_units_Z   2
loop_
 _symmetry_equiv_pos_site_id
 _symmetry_equiv_pos_as_xyz
  1  'x, y, z'
loop_
 _atom_site_type_symbol
 _atom_site_label
 _atom_site_symmetry_multiplicity
 _atom_site_fract_x
 _atom_site_fract_y
 _atom_site_fract_z
 _atom_site_occupancy
  Ba  Ba0  1  0.75000000  0.50171649  0.49365087  1
  Ba  Ba1  1  0.25000000  0.49828351  0.50634913  1
  Ba  Ba2  1  0.75000000  0.91203032  0.85274507  1
  Ba  Ba3  1  0.25000000  0.08796968  0.14725493  1
  Ba  Ba4  1  0.75000000  0.40818294  0.86329207  1
  Ba  Ba5  1  0.25000000  0.59181706  0.13670793  1
  Si  Si0  1  0.42133256  0.97725822  0.58997459  1
  Si  Si1  1  0.92133256  0.02274178  0.41002541  1
  Si  Si2  1  0.57866744  0.02274178  0.41002541  1
  Si  Si3  1  0.07866744  0.97725822  0.58997459  1
  Si  Si4  1  0.75000000  0.32549327  0.20345442  1
  Si  Si5  1  0.25000000  0.17699421  0.79658918  1
  Si  Si6  1  0.25000000  0.67450673  0.79654558  1
  Si  Si7  1  0.75000000  0.82300579  0.20341082  1
  P  P0  1  0.00321744  0.20521822  0.68203136  1
  P  P1  1  0.50321744  0.79478178  0.31796864  1
  P  P2  1  0.25000000  0.39699252  0.91109090  1
  P  P3  1  0.75000000  0.60300748  0.08890910  1
  P  P4  1  0.25000000  0.89715366  0.91213453  1
  P  P5  1  0.75000000  0.10284634  0.08786547  1
  P  P6  1  0.49697763  0.70355234  0.68206882  1
  P  P7  1  -0.00302237  0.29644766  0.31793118  1
  P  P8  1  0.50302237  0.29644766  0.31793118  1
  P  P9  1  0.00302237  0.70355234  0.68206882  1
  P  P10  1  0.49678256  0.20521822  0.68203136  1
  P  P11  1  -0.00321744  0.79478178  0.31796864  1
loop_
_geom_bond_atom_site_label_1
_geom_bond_atom_site_label_2
_geom_bond_distance
_geom_bond_site_symmetry_2
Ba0 P1 3.303072 1_555
Ba0 P11 3.303072 1_655
Ba0 P8 3.303630 1_555
Ba0 P7 3.303630 1_655
Ba0 P9 3.417348 1_655
Ba0 P6 3.417348 1_555
Ba0 P10 3.420541 1_555
Ba0 P0 3.420541 1_655
Ba1 P10 3.303072 1_555
Ba1 P0 3.303072 1_555
Ba1 P6 3.303630 1_555
Ba1 P9 3.303630 1_555
Ba1 P7 3.417348 1_555
Ba1 P8 3.417348 1_555
Ba1 P1 3.420541 1_555
Ba1 P11 3.420541 1_555
Ba2 P5 3.291523 1_566
Ba2 P10 3.301052 1_565
Ba2 P0 3.301052 1_665
Ba2 P6 3.302049 1_555
Ba2 P9 3.302049 1_655
Ba2 P3 3.303983 1_556
Ba2 P4 3.740627 1_655
Ba2 P4 3.740627 1_555
Ba3 P4 3.291523 1_544
Ba3 P11 3.301052 1_545
Ba3 P1 3.301052 1_545
Ba3 P8 3.302049 1_555
Ba3 P7 3.302049 1_555
Ba3 P2 3.303983 1_554
Ba3 P5 3.740627 1_455
Ba3 P5 3.740627 1_555
Ba4 P5 3.192349 1_556
Ba4 P3 3.210142 1_556
Ba4 P0 3.364053 1_655
Ba4 P10 3.364053 1_555
Ba4 P6 3.371282 1_555
Ba4 P9 3.371282 1_655
Ba4 P2 3.718721 1_555
Ba4 P2 3.718721 1_655
Ba5 P4 3.192349 1_554
Ba5 P2 3.210142 1_554
Ba5 P11 3.364053 1_555
Ba5 P1 3.364053 1_555
Ba5 P7 3.371282 1_555
Ba5 P8 3.371282 1_555
Ba5 P3 3.718721 1_555
Ba5 P3 3.718721 1_455
Si0 Si2 2.366311 1_565
Si0 Si3 2.520701 1_555
Si1 Si3 2.366311 1_645
Si1 Si2 2.520701 1_555
P0 Si5 2.240984 1_555
P0 Si3 2.241879 1_545
P1 Si7 2.240984 1_555
P1 Si2 2.241879 1_565
P2 Si5 2.293552 1_555
P2 Si6 2.296095 1_555
P3 Si7 2.293552 1_555
P3 Si4 2.296095 1_555
P4 Si5 2.315543 1_565
P4 Si6 2.318802 1_555
P5 Si7 2.315543 1_545
P5 Si4 2.318802 1_555
P6 Si0 2.241133 1_555
P6 Si6 2.241603 1_555
P7 Si1 2.241133 1_455
P7 Si4 2.241603 1_455
P8 Si2 2.241133 1_555
P8 Si4 2.241603 1_555
P9 Si3 2.241133 1_555
P9 Si6 2.241603 1_555
P10 Si5 2.240984 1_555
P10 Si0 2.241879 1_545
P11 Si7 2.240984 1_455
P11 Si1 2.241879 1_465
