# generated using pymatgen
data_MgCo3NiO8
_symmetry_space_group_name_H-M   'P 1'
_cell_length_a   5.72465064
_cell_length_b   5.72455476
_cell_length_c   5.95849544
_cell_angle_alpha   61.30531567
_cell_angle_beta   61.30784399
_cell_angle_gamma   60.00245352
_symmetry_Int_Tables_number   1
_chemical_formula_structural   MgCo3NiO8
_chemical_formula_sum   'Mg1 Co3 Ni1 O8'
_cell_volume   140.74111107
_cell_formula_units_Z   1
loop_
 _symmetry_equiv_pos_site_id
 _symmetry_equiv_pos_as_xyz
  1  'x, y, z'
loop_
 _atom_site_type_symbol
 _atom_site_label
 _atom_site_symmetry_multiplicity
 _atom_site_fract_x
 _atom_site_fract_y
 _atom_site_fract_z
 _atom_site_occupancy
  Mg  Mg0  1  0.50000000  0.50000000  0.50000000  1
  Co  Co0  1  0.50000000  0.00000000  0.00000000  1
  Co  Co1  1  0.00000000  0.50000000  0.00000000  1
  Co  Co2  1  0.50000000  0.50000000  0.00000000  1
  Ni  Ni0  1  0.00000000  0.00000000  0.00000000  1
  O  O0  1  0.24850700  0.24842400  0.79261200  1
  O  O1  1  0.71021900  0.24869600  0.79233700  1
  O  O2  1  0.24854500  0.71029500  0.79245700  1
  O  O3  1  0.73238600  0.73239500  0.80257100  1
  O  O4  1  0.26761400  0.26760500  0.19742800  1
  O  O5  1  0.75145500  0.28970500  0.20754300  1
  O  O6  1  0.28978100  0.75130400  0.20766300  1
  O  O7  1  0.75149300  0.75157600  0.20738800  1
loop_
_geom_bond_atom_site_label_1
_geom_bond_atom_site_label_2
_geom_bond_distance
_geom_bond_site_symmetry_2
Mg0 O1 2.104123 1_555
Mg0 O6 2.104123 1_555
Mg0 O2 2.105021 1_555
Mg0 O5 2.105021 1_555
Mg0 O7 2.106764 1_555
Mg0 O0 2.106764 1_555
Co0 O7 1.896217 1_545
Co0 O0 1.896217 1_554
Co0 O1 1.896803 1_554
Co0 O6 1.896803 1_545
Co0 O4 1.921055 1_555
Co0 O3 1.921059 1_544
Co1 O2 1.896472 1_554
Co1 O5 1.896472 1_455
Co1 O7 1.896633 1_455
Co1 O0 1.896633 1_554
Co1 O4 1.921044 1_555
Co1 O3 1.921048 1_454
Co2 O6 1.896656 1_555
Co2 O1 1.896656 1_554
Co2 O5 1.896727 1_555
Co2 O2 1.896727 1_554
Co2 O3 1.920320 1_554
Co2 O4 1.920321 1_555
Ni0 O0 2.054431 1_554
Ni0 O7 2.054431 1_445
Ni0 O5 2.055373 1_455
Ni0 O2 2.055373 1_544
Ni0 O6 2.056118 1_545
Ni0 O1 2.056118 1_454
