# generated using pymatgen
data_MgMn2(SeO3)4
_symmetry_space_group_name_H-M   'P 1'
_cell_length_a   5.21149322
_cell_length_b   6.59257176
_cell_length_c   8.36845108
_cell_angle_alpha   97.76789019
_cell_angle_beta   94.29960029
_cell_angle_gamma   89.52111780
_symmetry_Int_Tables_number   1
_chemical_formula_structural   MgMn2(SeO3)4
_chemical_formula_sum   'Mg1 Mn2 Se4 O12'
_cell_volume   284.07554641
_cell_formula_units_Z   1
loop_
 _symmetry_equiv_pos_site_id
 _symmetry_equiv_pos_as_xyz
  1  'x, y, z'
loop_
 _atom_site_type_symbol
 _atom_site_label
 _atom_site_symmetry_multiplicity
 _atom_site_fract_x
 _atom_site_fract_y
 _atom_site_fract_z
 _atom_site_occupancy
  Mg  Mg0  1  0.49934352  0.99991288  0.49956090  1
  Mn  Mn0  1  0.49988152  0.49994241  0.50003108  1
  Mn  Mn1  1  0.00007558  0.00001831  0.00000144  1
  Se  Se0  1  0.52818547  0.18956610  0.17225327  1
  Se  Se1  1  0.01610194  0.71826563  0.32342947  1
  Se  Se2  1  0.98364851  0.28171241  0.67657895  1
  Se  Se3  1  0.47204060  0.81050471  0.82776445  1
  O  O0  1  0.55405610  0.56917846  0.73327389  1
  O  O1  1  0.89969679  0.06013211  0.74098936  1
  O  O2  1  0.44604848  0.43086605  0.26676873  1
  O  O3  1  0.10105355  0.93979534  0.25924744  1
  O  O4  1  0.19721976  0.75482123  0.91551801  1
  O  O5  1  0.24834860  0.22398988  0.56700026  1
  O  O6  1  0.26215093  0.73303241  0.49182580  1
  O  O7  1  0.30467388  0.17254032  0.00531139  1
  O  O8  1  0.73746669  0.26667172  0.50825826  1
  O  O9  1  0.69555327  0.82754323  -0.00530088  1
  O  O10  1  0.75138741  0.77624627  0.43290829  1
  O  O11  1  0.80306739  0.24526152  0.08457989  1
loop_
_geom_bond_atom_site_label_1
_geom_bond_atom_site_label_2
_geom_bond_distance
_geom_bond_site_symmetry_2
Mg0 O5 2.016134 1_565
Mg0 O10 2.016403 1_555
Mg0 O6 2.149735 1_555
Mg0 O8 2.150913 1_565
Mn0 O2 1.943267 1_555
Mn0 O0 1.943342 1_555
Mn0 O6 1.971025 1_555
Mn0 O8 1.971501 1_555
Mn0 O5 2.401601 1_555
Mn0 O10 2.403844 1_555
Mn1 O9 1.954341 1_445
Mn1 O7 1.954837 1_555
Mn1 O4 1.985107 1_544
Mn1 O11 1.985185 1_455
Mn1 O1 2.277635 1_454
Mn1 O3 2.280218 1_545
O0 Se3 1.743087 1_555
O1 Se2 1.695505 1_555
O2 Se0 1.743185 1_555
O3 Se1 1.695850 1_555
O4 Se3 1.721827 1_555
O5 Se2 1.724892 1_455
O6 Se1 1.825834 1_555
O7 Se0 1.742685 1_555
O8 Se2 1.825749 1_555
O9 Se3 1.742640 1_554
O10 Se1 1.724728 1_655
O11 Se0 1.721778 1_555
