# generated using pymatgen
data_Sm2Mg(BiO4)2
_symmetry_space_group_name_H-M   'P 1'
_cell_length_a   5.79996946
_cell_length_b   5.61947319
_cell_length_c   6.99287915
_cell_angle_alpha   71.43531672
_cell_angle_beta   69.91615334
_cell_angle_gamma   100.88438095
_symmetry_Int_Tables_number   1
_chemical_formula_structural   Sm2Mg(BiO4)2
_chemical_formula_sum   'Sm2 Mg1 Bi2 O8'
_cell_volume   191.20251221
_cell_formula_units_Z   1
loop_
 _symmetry_equiv_pos_site_id
 _symmetry_equiv_pos_as_xyz
  1  'x, y, z'
loop_
 _atom_site_type_symbol
 _atom_site_label
 _atom_site_symmetry_multiplicity
 _atom_site_fract_x
 _atom_site_fract_y
 _atom_site_fract_z
 _atom_site_occupancy
  Sm  Sm0  1  0.36776600  0.11929000  0.76452000  1
  Sm  Sm1  1  0.59768300  0.84555500  0.30840700  1
  Mg  Mg0  1  0.83652800  0.09067200  0.82680400  1
  Bi  Bi0  1  0.13139200  0.38343100  0.23926000  1
  Bi  Bi1  1  0.92687400  0.67919300  0.64799100  1
  O  O0  1  0.62346300  0.32895900  0.89388600  1
  O  O1  1  0.28313800  0.02828100  0.43914400  1
  O  O2  1  0.78461500  0.53662100  0.43601300  1
  O  O3  1  0.99987800  0.15071000  0.05199300  1
  O  O4  1  0.97938900  0.78369300  0.89613800  1
  O  O5  1  0.18080800  0.43897600  0.57788100  1
  O  O6  1  0.74327800  0.98682600  0.57763600  1
  O  O7  1  0.44656400  0.80515300  0.05230600  1
loop_
_geom_bond_atom_site_label_1
_geom_bond_atom_site_label_2
_geom_bond_distance
_geom_bond_site_symmetry_2
Mg0 O0 2.041322 1_555
Mg0 O4 2.044655 1_545
Mg0 O3 2.175638 1_556
Mg0 O7 2.178428 1_546
Mg0 O5 2.194455 1_655
Mg0 O6 2.201019 1_545
Bi0 O3 2.325242 1_455
Bi0 O7 2.327399 1_555
Bi0 O2 2.487348 1_455
Bi0 O1 2.538380 1_555
Bi0 O5 2.586435 1_555
Bi0 O6 2.592789 1_445
Bi1 O0 2.094271 1_555
Bi1 O4 2.095960 1_555
Bi1 O1 2.196174 1_665
Bi1 O2 2.206027 1_555
Bi1 O6 2.208603 1_555
Bi1 O5 2.215416 1_655
O0 Sm0 2.312184 1_555
O1 Sm1 2.319088 1_545
O1 Sm0 2.663213 1_555
O2 Sm1 2.318291 1_555
O2 Sm0 2.690027 1_555
O3 Sm1 2.292607 1_545
O3 Sm0 2.459179 1_654
O4 Sm0 2.311778 1_665
O5 Sm0 2.514199 1_555
O5 Sm1 2.580748 1_555
O6 Sm0 2.506466 1_565
O6 Sm1 2.584225 1_555
O7 Sm1 2.299745 1_555
O7 Sm0 2.459540 1_564
