# generated using pymatgen
data_Na3Zn2Ge2P3(SO8)3
_symmetry_space_group_name_H-M   'P 1'
_cell_length_a   8.59178089
_cell_length_b   8.57960171
_cell_length_c   22.01012887
_cell_angle_alpha   90.32073597
_cell_angle_beta   89.60293455
_cell_angle_gamma   120.07004040
_symmetry_Int_Tables_number   1
_chemical_formula_structural   Na3Zn2Ge2P3(SO8)3
_chemical_formula_sum   'Na9 Zn6 Ge6 P9 S9 O72'
_cell_volume   1404.05736491
_cell_formula_units_Z   3
loop_
 _symmetry_equiv_pos_site_id
 _symmetry_equiv_pos_as_xyz
  1  'x, y, z'
loop_
 _atom_site_type_symbol
 _atom_site_label
 _atom_site_symmetry_multiplicity
 _atom_site_fract_x
 _atom_site_fract_y
 _atom_site_fract_z
 _atom_site_occupancy
  Na  Na0  1  0.66146929  0.69067901  0.08210402  1
  Na  Na1  1  0.33249316  0.29642838  0.91698288  1
  Na  Na2  1  0.33227001  0.03587822  0.41698055  1
  Na  Na3  1  0.99265093  0.99994496  0.50054485  1
  Na  Na4  1  0.00390814  0.99744768  0.99979381  1
  Na  Na5  1  0.67935530  0.33459791  0.83179983  1
  Na  Na6  1  0.67898391  0.34357217  0.33153615  1
  Na  Na7  1  0.31769785  0.66009739  0.16544088  1
  Na  Na8  1  0.33413239  0.67213597  0.66456935  1
  Zn  Zn0  1  0.99759151  0.00304000  0.34282545  1
  Zn  Zn1  1  0.99420491  0.99339532  0.84231574  1
  Zn  Zn2  1  0.67227226  0.34046050  0.98684599  1
  Zn  Zn3  1  0.66458148  0.33258792  0.48597069  1
  Zn  Zn4  1  0.31659188  0.65805062  0.02328021  1
  Zn  Zn5  1  0.33388930  0.67436151  0.52331502  1
  Ge  Ge0  1  0.00794735  0.00028207  0.65421770  1
  Ge  Ge1  1  0.01269349  0.00232111  0.15421691  1
  Ge  Ge2  1  0.66099262  0.32583094  0.68682124  1
  Ge  Ge3  1  0.66872162  0.33969178  0.18662335  1
  Ge  Ge4  1  0.33229485  0.66304739  0.30871616  1
  Ge  Ge5  1  0.33299537  0.67016142  0.80834054  1
  P  P0  1  0.30112262  0.00271076  0.25155859  1
  P  P1  1  0.70624683  0.70568620  0.24961355  1
  P  P2  1  0.99585807  0.29286234  0.24942324  1
  P  P3  1  0.29720448  0.29633538  0.75122658  1
  P  P4  1  0.99608814  0.70033423  0.74925883  1
  P  P5  1  0.70853317  0.00179064  0.74909618  1
  P  P6  1  0.36827073  0.04362399  0.58529323  1
  P  P7  1  0.95786624  0.62984140  0.08733723  1
  P  P8  1  0.36846748  0.32192058  0.08500113  1
  S  S0  1  0.95541640  0.32473480  0.58642672  1
  S  S1  1  0.67479261  0.62999289  0.58671152  1
  S  S2  1  0.67474403  0.04726221  0.08594181  1
  S  S3  1  0.62460237  0.67233875  0.91584390  1
  S  S4  1  0.04076095  0.37722484  0.91414150  1
  S  S5  1  0.33402759  0.95343158  0.91511356  1
  S  S6  1  0.62537816  0.95318018  0.41535449  1
  S  S7  1  0.33288143  0.38203911  0.41572381  1
  S  S8  1  0.04113026  0.66223747  0.41520028  1
  O  O0  1  0.23523550  0.04172059  0.31074199  1
  O  O1  1  0.81723712  0.77711986  0.30628985  1
  O  O2  1  0.95739428  0.18716153  0.30741451  1
  O  O3  1  0.23165055  0.19256342  0.81023250  1
  O  O4  1  0.95479231  0.76695679  0.80720873  1
  O  O5  1  0.81542101  0.04278653  0.80673482  1
  O  O6  1  0.79469150  0.96202182  0.69247262  1
  O  O7  1  0.16988764  0.20902261  0.69578456  1
  O  O8  1  0.03857843  0.82594904  0.69297131  1
  O  O9  1  0.78893923  0.82630811  0.19154685  1
  O  O10  1  0.03626061  0.20701406  0.19285015  1
  O  O11  1  0.17333471  0.96047030  0.19621176  1
  O  O12  1  0.87020806  0.35892339  0.64071401  1
  O  O13  1  0.49625315  0.14096301  0.63985138  1
  O  O14  1  0.64699190  0.51446563  0.64096132  1
  O  O15  1  0.86600001  0.50526829  0.14275148  1
  O  O16  1  0.64337560  0.13081416  0.14056470  1
  O  O17  1  0.50056934  0.35874836  0.13880467  1
  O  O18  1  0.43408750  0.28556149  0.02431652  1
  O  O19  1  0.84213586  0.56364160  0.03003125  1
  O  O20  1  0.70553552  0.14951652  0.02982596  1
  O  O21  1  0.43548174  0.14665012  0.52504253  1
  O  O22  1  0.70966868  0.55937301  0.53035190  1
  O  O23  1  0.85166628  0.29384703  0.53038551  1
  O  O24  1  0.54259488  0.69048986  0.97279011  1
  O  O25  1  0.15361268  0.45674261  0.96839974  1
  O  O26  1  0.31268394  0.84855205  0.96984787  1
  O  O27  1  0.54199694  0.84920122  0.47053075  1
  O  O28  1  0.31103284  0.46551153  0.47074243  1
  O  O29  1  0.15307685  0.69376676  0.46924363  1
  O  O30  1  0.12731331  0.63574451  0.35797309  1
  O  O31  1  0.50379711  0.86844701  0.35956561  1
  O  O32  1  0.35974487  0.49233351  0.35840831  1
  O  O33  1  0.12806012  0.49084574  0.85765002  1
  O  O34  1  0.36020124  0.86856481  0.85751335  1
  O  O35  1  0.50178336  0.63787172  0.86100568  1
  O  O36  1  0.02683017  0.82674609  0.40953597  1
  O  O37  1  0.80288372  0.97083034  0.40918809  1
  O  O38  1  0.17256839  0.19954916  0.41101758  1
  O  O39  1  0.02640399  0.19826519  0.90847089  1
  O  O40  1  0.17313025  0.97385458  0.91046426  1
  O  O41  1  0.80183445  0.83337037  0.90994191  1
  O  O42  1  0.96600170  0.15602595  0.59440356  1
  O  O43  1  0.18006718  0.03211928  0.59524694  1
  O  O44  1  0.84061426  0.81286865  0.59409998  1
  O  O45  1  0.96801218  0.81827273  0.09695029  1
  O  O46  1  0.83826175  0.02712303  0.09290251  1
  O  O47  1  0.18005199  0.15209425  0.09550169  1
  O  O48  1  0.68350949  0.16731093  0.73861671  1
  O  O49  1  0.48687539  0.32074364  0.73965093  1
  O  O50  1  0.83089652  0.51065794  0.73731499  1
  O  O51  1  0.67974025  0.51406326  0.24023037  1
  O  O52  1  0.83035028  0.31597416  0.23864134  1
  O  O53  1  0.48895941  0.16795777  0.23891089  1
  O  O54  1  0.63617690  0.50480957  0.91645570  1
  O  O55  1  0.86365863  0.36279276  0.91850810  1
  O  O56  1  0.49705323  0.13485418  0.91639407  1
  O  O57  1  0.63762815  0.13301248  0.41761936  1
  O  O58  1  0.49626508  0.36360599  0.41679345  1
  O  O59  1  0.86317728  0.49880674  0.41917295  1
  O  O60  1  0.35700960  0.49512722  0.08339198  1
  O  O61  1  0.14506328  0.65499124  0.08407265  1
  O  O62  1  0.51648310  0.86350900  0.08291912  1
  O  O63  1  0.34650065  0.85592022  0.58418945  1
  O  O64  1  0.51359008  0.64739836  0.58362802  1
  O  O65  1  0.13699006  0.48252179  0.58331396  1
  O  O66  1  0.31842950  0.82982621  0.25615633  1
  O  O67  1  0.51483714  0.68589115  0.25483805  1
  O  O68  1  0.16907601  0.48478442  0.25432280  1
  O  O69  1  0.31720499  0.48788510  0.75579748  1
  O  O70  1  0.16861703  0.68197482  0.75451566  1
  O  O71  1  0.51615706  0.82993014  0.75424993  1
loop_
_geom_bond_atom_site_label_1
_geom_bond_atom_site_label_2
_geom_bond_distance
_geom_bond_site_symmetry_2
Na0 O60 2.293426 1_555
Na0 O45 2.315261 1_555
Na0 O62 2.366690 1_555
Na0 O46 2.509863 1_565
Na0 O19 2.562774 1_555
Na0 O24 2.620000 1_554
Na0 O9 2.661606 1_555
Na0 O17 2.765747 1_555
Na1 O54 2.308565 1_555
Na1 O39 2.333673 1_555
Na1 O40 2.399078 1_545
Na1 O56 2.425799 1_555
Na1 O3 2.509264 1_555
Na1 O18 2.542493 1_556
Na1 O25 2.758886 1_555
Na1 O35 2.821505 1_555
Na2 O57 2.321027 1_555
Na2 O36 2.327468 1_545
Na2 O38 2.409818 1_555
Na2 O58 2.433361 1_555
Na2 O0 2.497106 1_555
Na2 O21 2.550690 1_555
Na2 O29 2.791696 1_545
Na2 O31 2.812059 1_545
Na3 O42 2.526476 1_565
Na3 O37 2.528957 1_555
Na3 O44 2.534029 1_555
Na3 O38 2.558884 1_665
Na3 O43 2.570692 1_665
Na3 O36 2.588950 1_655
Na4 O40 2.504290 1_555
Na4 O41 2.544460 1_455
Na4 O47 2.547343 1_566
Na4 O45 2.565868 1_456
Na4 O46 2.570396 1_466
Na4 O39 2.597259 1_565
Na5 O55 2.420960 1_555
Na5 O56 2.482406 1_555
Na5 O54 2.498988 1_555
Na5 O48 2.507007 1_555
Na5 O50 2.515653 1_555
Na5 O49 2.590258 1_555
Na6 O59 2.429053 1_555
Na6 O52 2.488813 1_555
Na6 O51 2.490296 1_555
Na6 O58 2.498274 1_555
Na6 O57 2.522974 1_555
Na6 O53 2.576545 1_555
Na7 O61 2.319515 1_555
Na7 O68 2.406997 1_555
Na7 O60 2.412607 1_555
Na7 O66 2.462858 1_555
Na7 O62 2.503441 1_555
Na7 O67 2.540702 1_555
Na8 O63 2.342703 1_555
Na8 O64 2.425254 1_555
Na8 O65 2.441740 1_555
Na8 O70 2.455229 1_555
Na8 O71 2.462922 1_555
Na8 O69 2.520518 1_555
Ge0 O8 1.856294 1_545
Ge0 O7 1.866143 1_555
Ge0 O43 1.875837 1_555
Ge0 O6 1.884895 1_445
Ge0 O44 2.022177 1_445
Ge0 O42 2.038978 1_455
Ge1 O11 1.845600 1_545
Ge1 O10 1.864818 1_555
Ge1 O47 1.878863 1_555
Ge1 O45 1.899074 1_445
Ge1 O9 1.932378 1_445
Ge1 O46 2.112676 1_455
Ge2 O13 1.827577 1_555
Ge2 O48 1.863028 1_555
Ge2 O49 1.871618 1_555
Ge2 O50 1.887778 1_555
Ge2 O12 1.951439 1_555
Ge2 O14 1.966632 1_555
Ge3 O15 1.844762 1_555
Ge3 O51 1.865236 1_555
Ge3 O17 1.865858 1_555
Ge3 O52 1.894335 1_555
Ge3 O53 1.895969 1_555
Ge3 O16 1.969349 1_555
Ge4 O67 1.890301 1_555
Ge4 O66 1.895051 1_555
Ge4 O68 1.895377 1_555
Ge4 O32 1.940300 1_555
Ge4 O30 1.973547 1_555
Ge4 O31 1.981906 1_555
Ge5 O69 1.889660 1_555
Ge5 O70 1.891124 1_555
Ge5 O71 1.898273 1_555
Ge5 O34 1.925544 1_555
Ge5 O33 1.980565 1_555
Ge5 O35 1.988205 1_555
O0 P0 1.517923 1_555
O0 Zn0 2.020221 1_455
O1 P1 1.504448 1_555
O1 Zn0 1.948018 1_565
O2 P2 1.505853 1_555
O2 Zn0 1.945867 1_555
O3 P3 1.515547 1_555
O3 Zn1 2.020058 1_445
O4 P4 1.506077 1_555
O4 Zn1 1.952844 1_555
O5 P5 1.504653 1_555
O5 Zn1 1.955782 1_545
O6 P5 1.566269 1_565
O7 P3 1.560106 1_555
O8 P4 1.563340 1_455
O9 P1 1.573086 1_555
O10 P2 1.566343 1_455
O11 P0 1.560649 1_565
O12 S0 1.499620 1_555
O13 P6 1.560569 1_555
O14 S1 1.495753 1_555
O15 P7 1.552024 1_555
O16 S2 1.487073 1_555
O17 P8 1.563804 1_555
O18 P8 1.536342 1_555
O18 Zn2 2.026065 1_554
O19 P7 1.531538 1_555
O19 Zn2 1.974412 1_554
O20 S2 1.462935 1_555
O20 Zn2 2.037311 1_554
O21 P6 1.537657 1_555
O21 Zn3 2.001027 1_555
O22 S1 1.471074 1_555
O22 Zn3 2.029472 1_555
O23 S0 1.470079 1_555
O23 Zn3 2.051988 1_555
O24 S3 1.478927 1_555
O24 Zn4 2.124825 1_556
O25 S4 1.475054 1_555
O25 Zn4 1.994838 1_556
O26 S5 1.462311 1_555
O26 Zn4 2.032889 1_556
O27 S6 1.464083 1_555
O27 Zn5 2.024806 1_555
O28 S7 1.461651 1_555
O28 Zn5 2.053180 1_555
O29 S8 1.471295 1_555
O29 Zn5 2.035804 1_555
O30 S8 1.529386 1_555
O31 S6 1.540859 1_555
O32 S7 1.526636 1_555
O33 S4 1.525383 1_555
O34 S5 1.528993 1_555
O35 S3 1.535824 1_555
O36 S8 1.482802 1_555
O36 Zn0 2.217551 1_465
O37 S6 1.460539 1_555
O37 Zn0 2.125040 1_565
O38 S7 1.482678 1_555
O38 Zn0 2.195063 1_455
O39 S4 1.482068 1_555
O39 Zn1 2.185375 1_445
O40 S5 1.482258 1_555
O40 Zn1 2.221324 1_455
O41 S3 1.461304 1_555
O41 Zn1 2.132377 1_555
O42 S0 1.506389 1_555
O43 P6 1.583612 1_555
O44 S1 1.509388 1_555
O45 P7 1.587821 1_555
O46 S2 1.507858 1_555
O47 P8 1.559448 1_555
O48 P5 1.557698 1_555
O49 P3 1.554753 1_555
O50 P4 1.554853 1_555
O51 P1 1.555332 1_555
O52 P2 1.550970 1_555
O53 P0 1.548336 1_555
O54 S3 1.489790 1_555
O54 Zn2 2.225776 1_555
O55 S4 1.466017 1_655
O55 Zn2 2.157825 1_555
O56 S5 1.483487 1_545
O56 Zn2 2.263435 1_555
O57 S6 1.493503 1_545
O57 Zn3 2.197142 1_555
O58 S7 1.489654 1_555
O58 Zn3 2.213858 1_555
O59 S8 1.470551 1_655
O59 Zn3 2.157999 1_555
O60 P8 1.538347 1_555
O60 Zn4 2.082907 1_555
O61 P7 1.513051 1_455
O61 Zn4 1.974148 1_555
O62 S2 1.480081 1_565
O62 Zn4 2.179782 1_555
O63 P6 1.525388 1_565
O63 Zn5 2.010694 1_555
O64 S1 1.467603 1_555
O64 Zn5 2.142268 1_555
O65 S0 1.467734 1_455
O65 Zn5 2.125541 1_555
O66 P0 1.566968 1_565
O67 P1 1.569815 1_555
O68 P2 1.575542 1_455
O69 P3 1.567120 1_555
O70 P4 1.572281 1_455
O71 P5 1.573505 1_565
