# generated using pymatgen
data_CaHf3SiS5O24
_symmetry_space_group_name_H-M   'P 1'
_cell_length_a   9.02787010
_cell_length_b   9.02054586
_cell_length_c   23.22480292
_cell_angle_alpha   89.80272188
_cell_angle_beta   89.86265464
_cell_angle_gamma   120.00698253
_symmetry_Int_Tables_number   1
_chemical_formula_structural   CaHf3SiS5O24
_chemical_formula_sum   'Ca3 Hf9 Si3 S15 O72'
_cell_volume   1637.80706631
_cell_formula_units_Z   3
loop_
 _symmetry_equiv_pos_site_id
 _symmetry_equiv_pos_as_xyz
  1  'x, y, z'
loop_
 _atom_site_type_symbol
 _atom_site_label
 _atom_site_symmetry_multiplicity
 _atom_site_fract_x
 _atom_site_fract_y
 _atom_site_fract_z
 _atom_site_occupancy
  Ca  Ca0  1  0.99881727  0.99955690  0.35923667  1
  Ca  Ca1  1  0.66300606  0.33707877  0.69054109  1
  Ca  Ca2  1  0.66655085  0.33263219  0.18636185  1
  Hf  Hf0  1  0.00635380  0.00715667  0.86030143  1
  Hf  Hf1  1  0.99314068  0.99299312  0.64488918  1
  Hf  Hf2  1  0.00087261  0.00177695  0.14478251  1
  Hf  Hf3  1  0.66586484  0.32663322  0.97378309  1
  Hf  Hf4  1  0.67041465  0.34461930  0.48193458  1
  Hf  Hf5  1  0.32334254  0.66398483  0.01632062  1
  Hf  Hf6  1  0.33904775  0.66779243  0.52459251  1
  Hf  Hf7  1  0.33382505  0.66743053  0.30993390  1
  Hf  Hf8  1  0.32544668  0.67004470  0.81299548  1
  Si  Si0  1  0.66954582  0.62634870  0.58494373  1
  Si  Si1  1  0.04535266  0.38052741  0.91604153  1
  Si  Si2  1  0.33402197  0.95397060  0.91539351  1
  S  S0  1  0.28366386  0.99260605  0.25053287  1
  S  S1  1  0.70863475  0.71574108  0.25054265  1
  S  S2  1  0.00778123  0.29213379  0.25056890  1
  S  S3  1  0.27913880  0.28660174  0.75126530  1
  S  S4  1  0.00657809  0.72098616  0.75146163  1
  S  S5  1  0.71343385  0.99120826  0.75165278  1
  S  S6  1  0.95756513  0.33111038  0.58219226  1
  S  S7  1  0.37423201  0.04301373  0.58228170  1
  S  S8  1  0.96077654  0.62945213  0.08313905  1
  S  S9  1  0.66701256  0.03764246  0.08261340  1
  S  S10  1  0.37315008  0.33485013  0.08316649  1
  S  S11  1  0.61805806  0.66514284  0.91637889  1
  S  S12  1  0.60924849  0.95411523  0.41733669  1
  S  S13  1  0.34183127  0.38887143  0.41782818  1
  S  S14  1  0.04645401  0.65606184  0.41760036  1
  O  O0  1  0.20729954  0.01748949  0.30171988  1
  O  O1  1  0.80976108  0.79167902  0.30154056  1
  O  O2  1  0.98142699  0.18985192  0.30172886  1
  O  O3  1  0.18636035  0.17696415  0.80219327  1
  O  O4  1  0.98556904  0.80799537  0.80182376  1
  O  O5  1  0.82044265  0.00913020  0.80220587  1
  O  O6  1  0.80076351  0.97142656  0.69838743  1
  O  O7  1  0.17310980  0.20483393  0.69872370  1
  O  O8  1  0.03191957  0.82924479  0.69839277  1
  O  O9  1  0.79277508  0.82907280  0.19835254  1
  O  O10  1  0.03679348  0.20835182  0.19851179  1
  O  O11  1  0.17155596  0.96438670  0.19850993  1
  O  O12  1  0.89098512  0.36765089  0.63321453  1
  O  O13  1  0.47955028  0.10306555  0.63291328  1
  O  O14  1  0.62438716  0.50801529  0.63903058  1
  O  O15  1  0.89222994  0.52773433  0.13515723  1
  O  O16  1  0.63260768  0.10531321  0.13437686  1
  O  O17  1  0.47278580  0.36351012  0.13514901  1
  O  O18  1  0.45239069  0.30173599  0.03265560  1
  O  O19  1  0.84907541  0.55218411  0.03284133  1
  O  O20  1  0.70118010  0.15367961  0.03243813  1
  O  O21  1  0.46034307  0.15541108  0.53049283  1
  O  O22  1  0.70007522  0.53250546  0.52672511  1
  O  O23  1  0.84376835  0.29953088  0.53057961  1
  O  O24  1  0.54174844  0.69695556  0.96822510  1
  O  O25  1  0.16745681  0.46690116  0.97223302  1
  O  O26  1  0.30807053  0.83555830  0.97198409  1
  O  O27  1  0.51996782  0.84389061  0.46781138  1
  O  O28  1  0.31916114  0.47614091  0.46805751  1
  O  O29  1  0.15318867  0.67740611  0.46804559  1
  O  O30  1  0.13108911  0.63308682  0.36476628  1
  O  O31  1  0.50182315  0.86890230  0.36472756  1
  O  O32  1  0.36845608  0.49729490  0.36505100  1
  O  O33  1  0.13938052  0.50204671  0.86022824  1
  O  O34  1  0.37145623  0.86645053  0.85996295  1
  O  O35  1  0.51026195  0.63273886  0.86511448  1
  O  O36  1  0.02446311  0.80345207  0.41136795  1
  O  O37  1  0.77600449  0.96938313  0.41195613  1
  O  O38  1  0.19213460  0.22113069  0.41231800  1
  O  O39  1  0.01680580  0.19058376  0.90550423  1
  O  O40  1  0.16530832  0.96955353  0.90453094  1
  O  O41  1  0.78927300  0.81571571  0.90697637  1
  O  O42  1  0.97999451  0.17987558  0.58964545  1
  O  O43  1  0.20495350  0.03013519  0.59028069  1
  O  O44  1  0.83997016  0.81778087  0.59329704  1
  O  O45  1  0.98070996  0.80539442  0.09339287  1
  O  O46  1  0.82689605  0.02441450  0.09277258  1
  O  O47  1  0.19714927  0.17695739  0.09323197  1
  O  O48  1  0.69542119  0.14032788  0.74503027  1
  O  O49  1  0.44387006  0.29742229  0.74785039  1
  O  O50  1  0.86110661  0.55177060  0.74599352  1
  O  O51  1  0.67861744  0.54448879  0.24074734  1
  O  O52  1  0.86633456  0.32173233  0.24056425  1
  O  O53  1  0.45509049  0.13396362  0.24064660  1
  O  O54  1  0.63739880  0.51366025  0.92771693  1
  O  O55  1  0.86155986  0.36676746  0.93008870  1
  O  O56  1  0.49751179  0.14292413  0.92934213  1
  O  O57  1  0.62227347  0.12283385  0.42523886  1
  O  O58  1  0.49797009  0.37388079  0.42558044  1
  O  O59  1  0.87683063  0.49543253  0.42467126  1
  O  O60  1  0.34791285  0.48213322  0.07256720  1
  O  O61  1  0.13503509  0.65595520  0.07276422  1
  O  O62  1  0.52533266  0.86357272  0.07077972  1
  O  O63  1  0.34182319  0.86762482  0.56784765  1
  O  O64  1  0.51114444  0.65804308  0.56659090  1
  O  O65  1  0.12904478  0.48085757  0.56802216  1
  O  O66  1  0.29439415  0.83015344  0.25838533  1
  O  O67  1  0.53583561  0.70537175  0.25843098  1
  O  O68  1  0.16987310  0.46477942  0.25848098  1
  O  O69  1  0.29609974  0.45790842  0.75862883  1
  O  O70  1  0.16776813  0.71266289  0.75678653  1
  O  O71  1  0.54571020  0.83113648  0.75748607  1
loop_
_geom_bond_atom_site_label_1
_geom_bond_atom_site_label_2
_geom_bond_distance
_geom_bond_site_symmetry_2
Ca0 O2 2.238272 1_565
Ca0 O0 2.243880 1_665
Ca0 O36 2.246109 1_655
Ca0 O1 2.247664 1_555
Ca0 O37 2.248943 1_555
Ca0 O38 2.258063 1_665
Ca1 O14 2.111237 1_555
Ca1 O49 2.256007 1_555
Ca1 O50 2.274115 1_555
Ca1 O48 2.311459 1_555
Ca1 O12 2.345493 1_555
Ca1 O13 2.350225 1_555
Ca2 O53 2.235293 1_555
Ca2 O52 2.243837 1_555
Ca2 O17 2.246622 1_555
Ca2 O15 2.247248 1_555
Ca2 O51 2.251329 1_555
Ca2 O16 2.268618 1_555
Hf0 O39 1.924852 1_555
Hf0 O40 1.929004 1_545
Hf0 O3 2.072182 1_555
Hf0 O41 2.142399 1_445
Hf0 O5 2.162951 1_455
Hf0 O4 2.188184 1_445
Hf1 O44 1.918560 1_555
Hf1 O6 2.061065 1_555
Hf1 O8 2.086897 1_655
Hf1 O42 2.165190 1_565
Hf1 O43 2.173013 1_665
Hf1 O7 2.185274 1_665
Hf2 O47 2.060698 1_555
Hf2 O45 2.070947 1_445
Hf2 O46 2.072647 1_455
Hf2 O10 2.132642 1_555
Hf2 O9 2.133640 1_445
Hf2 O11 2.138066 1_545
Hf3 O56 1.903043 1_555
Hf3 O55 1.905589 1_555
Hf3 O54 2.116478 1_555
Hf3 O20 2.208248 1_556
Hf3 O18 2.277379 1_556
Hf3 O19 2.328257 1_556
Hf4 O22 1.893632 1_555
Hf4 O21 2.126150 1_555
Hf4 O59 2.128863 1_555
Hf4 O23 2.129096 1_555
Hf4 O58 2.150515 1_555
Hf4 O57 2.253091 1_555
Hf5 O26 1.917753 1_554
Hf5 O25 1.925235 1_554
Hf5 O61 2.116420 1_555
Hf5 O24 2.150472 1_554
Hf5 O60 2.190241 1_555
Hf5 O62 2.215715 1_555
Hf6 O64 1.875198 1_555
Hf6 O63 2.055871 1_555
Hf6 O65 2.058322 1_555
Hf6 O27 2.076125 1_555
Hf6 O28 2.109813 1_555
Hf6 O29 2.168631 1_555
Hf7 O66 2.056010 1_555
Hf7 O67 2.058225 1_555
Hf7 O68 2.068257 1_555
Hf7 O30 2.118154 1_555
Hf7 O31 2.119159 1_555
Hf7 O32 2.135422 1_555
Hf8 O33 1.937817 1_555
Hf8 O34 1.944402 1_555
Hf8 O70 2.105029 1_555
Hf8 O71 2.193724 1_555
Hf8 O69 2.199420 1_555
Hf8 O35 2.220534 1_555
O0 S0 1.446242 1_545
O1 S1 1.445967 1_555
O2 S2 1.446089 1_655
O3 S3 1.495764 1_555
O4 S4 1.474528 1_655
O5 S5 1.479331 1_545
O6 S5 1.523593 1_555
O7 S3 1.501657 1_555
O8 S4 1.513929 1_555
O9 S1 1.517122 1_555
O10 S2 1.517978 1_555
O11 S0 1.516321 1_555
O12 S6 1.439292 1_555
O13 S7 1.440420 1_555
O14 Si0 1.560958 1_555
O15 S8 1.450944 1_555
O16 S9 1.451645 1_555
O17 S10 1.451974 1_555
O18 S10 1.479623 1_555
O19 S8 1.474973 1_555
O20 S9 1.488507 1_555
O21 S7 1.509227 1_555
O22 Si0 1.691222 1_555
O23 S6 1.512940 1_555
O24 S11 1.484248 1_555
O25 Si1 1.637123 1_555
O26 Si2 1.631493 1_555
O27 S12 1.482678 1_555
O28 S13 1.479461 1_555
O29 S14 1.469548 1_555
O30 S14 1.512641 1_555
O31 S12 1.513542 1_555
O32 S13 1.507305 1_555
O33 Si1 1.629932 1_555
O34 Si2 1.632963 1_555
O35 S11 1.474270 1_555
O36 S14 1.445983 1_555
O37 S12 1.446570 1_555
O38 S13 1.445382 1_555
O39 Si1 1.619740 1_555
O40 Si2 1.618350 1_555
O41 S11 1.475865 1_555
O42 S6 1.485565 1_555
O43 S7 1.484720 1_555
O44 Si0 1.653206 1_555
O45 S8 1.524831 1_555
O46 S9 1.525464 1_555
O47 S10 1.529789 1_555
O48 S5 1.441175 1_545
O49 S3 1.442807 1_555
O50 S4 1.438019 1_655
O51 S1 1.447607 1_555
O52 S2 1.448419 1_655
O53 S0 1.447839 1_545
O54 S11 1.484389 1_555
O55 Si1 1.632822 1_655
O56 Si2 1.636597 1_545
O57 S12 1.478790 1_545
O58 S13 1.493110 1_555
O59 S14 1.499765 1_655
O60 S10 1.475940 1_555
O61 S8 1.487186 1_455
O62 S9 1.474085 1_565
O63 S7 1.497385 1_565
O64 Si0 1.649064 1_555
O65 S6 1.494140 1_455
O66 S0 1.526534 1_555
O67 S1 1.525943 1_555
O68 S2 1.524577 1_555
O69 S3 1.485215 1_555
O70 S4 1.499542 1_555
O71 S5 1.485559 1_555
