# generated using pymatgen
data_Sr2GdMgRuO6
_symmetry_space_group_name_H-M   'P 1'
_cell_length_a   6.37593629
_cell_length_b   6.37593718
_cell_length_c   5.78972557
_cell_angle_alpha   57.32344968
_cell_angle_beta   57.32344615
_cell_angle_gamma   57.07095434
_symmetry_Int_Tables_number   1
_chemical_formula_structural   Sr2GdMgRuO6
_chemical_formula_sum   'Sr2 Gd1 Mg1 Ru1 O6'
_cell_volume   155.84601405
_cell_formula_units_Z   1
loop_
 _symmetry_equiv_pos_site_id
 _symmetry_equiv_pos_as_xyz
  1  'x, y, z'
loop_
 _atom_site_type_symbol
 _atom_site_label
 _atom_site_symmetry_multiplicity
 _atom_site_fract_x
 _atom_site_fract_y
 _atom_site_fract_z
 _atom_site_occupancy
  Sr  Sr0  1  0.31450408  0.31450407  0.19951560  1
  Sr  Sr1  1  0.68549592  0.68549593  0.80048440  1
  Gd  Gd0  1  -0.00000000  -0.00000000  0.00000000  1
  Mg  Mg0  1  -0.00000000  -0.00000000  0.50000000  1
  Ru  Ru0  1  0.50000000  0.50000000  0.50000000  1
  O  O0  1  0.25548436  0.25548536  0.84879319  1
  O  O1  1  0.74451564  0.74451464  0.15120681  1
  O  O2  1  0.70259566  0.19010705  0.33821413  1
  O  O3  1  0.80989295  0.29740534  0.66178587  1
  O  O4  1  0.29740434  0.80989295  0.66178587  1
  O  O5  1  0.19010705  0.70259466  0.33821413  1
loop_
_geom_bond_atom_site_label_1
_geom_bond_atom_site_label_2
_geom_bond_distance
_geom_bond_site_symmetry_2
Gd0 O4 2.225746 1_544
Gd0 O2 2.225746 1_455
Gd0 O3 2.225746 1_454
Gd0 O5 2.225746 1_545
Gd0 O1 2.424577 1_445
Gd0 O0 2.424577 1_554
Mg0 O2 2.033564 1_455
Mg0 O4 2.033564 1_545
Mg0 O3 2.033570 1_455
Mg0 O5 2.033570 1_545
O0 Ru0 2.186902 1_555
O0 Sr0 2.492110 1_556
O1 Ru0 2.186902 1_555
O1 Sr1 2.492110 1_554
O2 Ru0 2.089759 1_555
O2 Sr0 2.592478 1_555
O2 Sr1 2.880058 1_545
O2 Sr1 3.009155 1_554
O3 Ru0 2.089760 1_555
O3 Sr1 2.592472 1_555
O3 Sr0 2.880056 1_655
O3 Sr0 3.009154 1_556
O4 Ru0 2.089759 1_555
O4 Sr1 2.592478 1_555
O4 Sr0 2.880058 1_565
O4 Sr0 3.009155 1_556
O5 Ru0 2.089760 1_555
O5 Sr0 2.592472 1_555
O5 Sr1 2.880056 1_455
O5 Sr1 3.009154 1_554
