# generated using pymatgen
data_Ba(MnSn)2
_symmetry_space_group_name_H-M   'P 1'
_cell_length_a   4.72408200
_cell_length_b   4.72408200
_cell_length_c   6.86231409
_cell_angle_alpha   110.13325737
_cell_angle_beta   110.13325737
_cell_angle_gamma   90.00000000
_symmetry_Int_Tables_number   1
_chemical_formula_structural   Ba(MnSn)2
_chemical_formula_sum   'Ba1 Mn2 Sn2'
_cell_volume   133.77681880
_cell_formula_units_Z   1
loop_
 _symmetry_equiv_pos_site_id
 _symmetry_equiv_pos_as_xyz
  1  'x, y, z'
loop_
 _atom_site_type_symbol
 _atom_site_label
 _atom_site_symmetry_multiplicity
 _atom_site_fract_x
 _atom_site_fract_y
 _atom_site_fract_z
 _atom_site_occupancy
  Ba  Ba0  1  0.00000000  0.00000000  0.00000000  1
  Mn  Mn0  1  0.25000000  0.75000000  0.50000000  1
  Mn  Mn1  1  0.75000000  0.25000000  0.50000000  1
  Sn  Sn0  1  0.63255000  0.63255000  0.26510000  1
  Sn  Sn1  1  0.36745000  0.36745000  0.73490000  1
loop_
_geom_bond_atom_site_label_1
_geom_bond_atom_site_label_2
_geom_bond_distance
_geom_bond_site_symmetry_2
Ba0 Sn1 3.699158 1_444
Ba0 Sn0 3.699158 1_445
Ba0 Sn0 3.699158 1_545
Ba0 Sn0 3.699158 1_455
Ba0 Sn0 3.699158 1_555
Ba0 Sn1 3.699158 1_454
Ba0 Sn1 3.699158 1_544
Ba0 Sn1 3.699158 1_554
Ba0 Mn0 3.816079 1_545
Ba0 Mn1 3.816079 1_455
Ba0 Mn1 3.816079 1_454
Ba0 Mn0 3.816079 1_544
Ba0 Mn1 3.816079 1_444
Ba0 Mn0 3.816079 1_555
Ba0 Mn1 3.816079 1_555
Ba0 Mn0 3.816079 1_444
Mn0 Sn0 2.749899 1_455
Mn0 Sn1 2.749899 1_555
Mn0 Sn1 2.749899 1_565
Mn0 Sn0 2.749899 1_555
Mn1 Sn0 2.749899 1_545
Mn1 Sn1 2.749899 1_555
Mn1 Sn1 2.749899 1_655
Mn1 Sn0 2.749899 1_555
Sn0 Sn1 3.178233 1_554
