# generated using pymatgen
data_MgFe6O7F5
_symmetry_space_group_name_H-M   'P 1'
_cell_length_a   8.33476269
_cell_length_b   6.01890963
_cell_length_c   5.80341409
_cell_angle_alpha   66.98167819
_cell_angle_beta   65.45736294
_cell_angle_gamma   63.81251475
_symmetry_Int_Tables_number   1
_chemical_formula_structural   MgFe6O7F5
_chemical_formula_sum   'Mg1 Fe6 O7 F5'
_cell_volume   229.82489247
_cell_formula_units_Z   1
loop_
 _symmetry_equiv_pos_site_id
 _symmetry_equiv_pos_as_xyz
  1  'x, y, z'
loop_
 _atom_site_type_symbol
 _atom_site_label
 _atom_site_symmetry_multiplicity
 _atom_site_fract_x
 _atom_site_fract_y
 _atom_site_fract_z
 _atom_site_occupancy
  Mg  Mg0  1  0.49473300  0.50643500  0.02302300  1
  Fe  Fe0  1  0.87435100  0.68007900  0.69896500  1
  Fe  Fe1  1  0.71864800  0.33166800  0.37899400  1
  Fe  Fe2  1  0.30560200  0.65859600  0.64292500  1
  Fe  Fe3  1  0.13639200  0.27807300  0.30065900  1
  Fe  Fe4  1  0.52949900  0.99980400  0.00659200  1
  Fe  Fe5  1  0.00222800  0.02489500  0.96213800  1
  O  O0  1  0.68094900  0.01502600  0.64796400  1
  O  O1  1  0.33921400  0.36011300  0.97165800  1
  O  O2  1  0.98801900  0.20282700  0.18738200  1
  O  O3  1  0.03894600  0.78232300  0.76817900  1
  O  O4  1  0.33849600  0.94968600  0.34784900  1
  O  O5  1  0.67342900  0.62766300  0.04494400  1
  O  O6  1  0.00060800  0.31931100  0.66210600  1
  F  F0  1  0.29108500  0.85119000  0.90242000  1
  F  F1  1  0.58986400  0.56940100  0.62672200  1
  F  F2  1  0.38306900  0.44197200  0.41060500  1
  F  F3  1  0.69513400  0.13261100  0.06965900  1
  F  F4  1  0.98640000  0.70880400  0.28768900  1
loop_
_geom_bond_atom_site_label_1
_geom_bond_atom_site_label_2
_geom_bond_distance
_geom_bond_site_symmetry_2
Mg0 O5 1.988982 1_555
Mg0 O1 2.019539 1_554
Fe0 O0 1.952373 1_565
Fe0 O3 1.954045 1_655
Fe0 O6 2.006907 1_655
Fe0 O5 2.028065 1_556
Fe1 O2 1.985510 1_555
Fe1 O0 1.990494 1_555
Fe1 O5 2.094662 1_555
Fe2 O3 1.908650 1_555
Fe2 O4 1.940326 1_555
Fe2 O1 2.065194 1_555
Fe3 O2 1.889217 1_455
Fe3 O4 1.959709 1_545
Fe3 O6 1.982313 1_555
Fe3 O1 2.016220 1_554
Fe4 O0 1.924555 1_564
Fe4 O4 1.971047 1_555
Fe4 O5 1.991488 1_555
Fe4 O1 2.036439 1_564
Fe5 O2 1.929761 1_456
Fe5 O6 1.938445 1_555
Fe5 O3 2.024116 1_545
F0 Fe5 2.092384 1_565
F0 Mg0 2.102179 1_556
F0 Fe2 2.171721 1_555
F1 Mg0 2.032361 1_556
F1 Fe1 2.058569 1_555
F1 Fe2 2.154573 1_555
F2 Fe2 1.960413 1_555
F2 Mg0 1.993290 1_555
F2 Fe1 2.515452 1_555
F3 Fe4 2.073967 1_545
F3 Mg0 2.123194 1_555
F3 Fe5 2.210416 1_654
F3 Fe1 2.622632 1_555
F4 Fe5 2.099978 1_664
F4 Fe0 2.137039 1_555
F4 Fe3 2.314023 1_655
