# generated using pymatgen
data_MgFe4(SbS)4
_symmetry_space_group_name_H-M   'P 1'
_cell_length_a   6.05746542
_cell_length_b   6.25939856
_cell_length_c   6.33709787
_cell_angle_alpha   110.50707761
_cell_angle_beta   90.06437685
_cell_angle_gamma   91.30010070
_symmetry_Int_Tables_number   1
_chemical_formula_structural   MgFe4(SbS)4
_chemical_formula_sum   'Mg1 Fe4 Sb4 S4'
_cell_volume   224.98280606
_cell_formula_units_Z   1
loop_
 _symmetry_equiv_pos_site_id
 _symmetry_equiv_pos_as_xyz
  1  'x, y, z'
loop_
 _atom_site_type_symbol
 _atom_site_label
 _atom_site_symmetry_multiplicity
 _atom_site_fract_x
 _atom_site_fract_y
 _atom_site_fract_z
 _atom_site_occupancy
  Mg  Mg0  1  0.00000000  0.00000000  0.50000000  1
  Fe  Fe0  1  0.98527900  0.70456800  0.70397000  1
  Fe  Fe1  1  0.51914000  0.69338500  0.19357400  1
  Fe  Fe2  1  0.01472100  0.29543200  0.29603000  1
  Fe  Fe3  1  0.48086000  0.30661500  0.80642500  1
  Sb  Sb0  1  0.39491500  0.84388500  0.62845800  1
  Sb  Sb1  1  0.60508500  0.15611500  0.37154200  1
  Sb  Sb2  1  0.16301900  0.84510700  0.08590500  1
  Sb  Sb3  1  0.83698100  0.15489300  0.91409500  1
  S  S0  1  0.35125500  0.36566400  0.16146000  1
  S  S1  1  0.64874500  0.63433600  0.83854000  1
  S  S2  1  0.85521400  0.61946400  0.32575700  1
  S  S3  1  0.14478600  0.38053600  0.67424300  1
loop_
_geom_bond_atom_site_label_1
_geom_bond_atom_site_label_2
_geom_bond_distance
_geom_bond_site_symmetry_2
Mg0 S2 2.392125 1_445
Mg0 S3 2.392125 1_555
Mg0 Sb2 2.658573 1_545
Mg0 Sb3 2.658573 1_455
Mg0 Sb1 2.828280 1_455
Mg0 Sb0 2.828280 1_545
Fe0 S3 2.214600 1_655
Fe0 S1 2.302620 1_555
Fe0 S2 2.393987 1_555
Fe0 Sb2 2.500110 1_656
Fe0 Mg0 2.601126 1_665
Fe0 Sb0 2.709875 1_655
Fe0 Sb3 2.830773 1_565
Fe1 S0 2.212685 1_555
Fe1 S1 2.291164 1_554
Fe1 S2 2.317442 1_555
Fe1 Sb2 2.562145 1_555
Fe1 Sb0 2.695646 1_555
Fe1 Sb1 2.752037 1_565
Fe2 S2 2.214600 1_455
Fe2 S0 2.302620 1_555
Fe2 S3 2.393987 1_555
Fe2 Sb3 2.500110 1_454
Fe2 Mg0 2.601126 1_555
Fe2 Sb1 2.709875 1_455
Fe2 Sb2 2.830773 1_545
Fe3 S1 2.212683 1_555
Fe3 S0 2.291170 1_556
Fe3 S3 2.317439 1_555
Fe3 Sb3 2.562148 1_555
Fe3 Sb1 2.695640 1_555
Fe3 Sb0 2.752037 1_545
S0 Sb1 2.677185 1_555
S1 Sb0 2.677185 1_555
S2 Sb2 3.028625 1_655
S3 Sb3 3.028625 1_455
