# generated using pymatgen
data_RbCdCl3
_symmetry_space_group_name_H-M   'P 1'
_cell_length_a   4.05372776
_cell_length_b   9.04405641
_cell_length_c   15.05258048
_cell_angle_alpha   90.00000000
_cell_angle_beta   90.00000000
_cell_angle_gamma   90.00000000
_symmetry_Int_Tables_number   1
_chemical_formula_structural   RbCdCl3
_chemical_formula_sum   'Rb4 Cd4 Cl12'
_cell_volume   551.85985104
_cell_formula_units_Z   4
loop_
 _symmetry_equiv_pos_site_id
 _symmetry_equiv_pos_as_xyz
  1  'x, y, z'
loop_
 _atom_site_type_symbol
 _atom_site_label
 _atom_site_symmetry_multiplicity
 _atom_site_fract_x
 _atom_site_fract_y
 _atom_site_fract_z
 _atom_site_occupancy
  Rb  Rb0  1  0.75000000  0.06936008  0.67402026  1
  Rb  Rb1  1  0.25000000  0.93063992  0.32597974  1
  Rb  Rb2  1  0.75000000  0.56936008  0.82597974  1
  Rb  Rb3  1  0.25000000  0.43063992  0.17402026  1
  Cd  Cd0  1  0.75000000  0.33474201  0.44459413  1
  Cd  Cd1  1  0.25000000  0.66525799  0.55540587  1
  Cd  Cd2  1  0.75000000  0.83474201  0.05540587  1
  Cd  Cd3  1  0.25000000  0.16525799  0.94459413  1
  Cl  Cl0  1  0.75000000  0.47492797  0.59985257  1
  Cl  Cl1  1  0.75000000  0.82898931  0.49521476  1
  Cl  Cl2  1  0.25000000  0.67101069  0.99521476  1
  Cl  Cl3  1  0.75000000  0.32898931  0.00478524  1
  Cl  Cl4  1  0.25000000  0.28193546  0.79232024  1
  Cl  Cl5  1  0.75000000  0.71806454  0.20767976  1
  Cl  Cl6  1  0.25000000  0.78193546  0.70767976  1
  Cl  Cl7  1  0.25000000  0.52507203  0.40014743  1
  Cl  Cl8  1  0.75000000  0.97492797  0.90014743  1
  Cl  Cl9  1  0.25000000  0.02507203  0.09985257  1
  Cl  Cl10  1  0.75000000  0.21806454  0.29232024  1
  Cl  Cl11  1  0.25000000  0.17101069  0.50478524  1
loop_
_geom_bond_atom_site_label_1
_geom_bond_atom_site_label_2
_geom_bond_distance
_geom_bond_site_symmetry_2
Cd0 Cl10 2.523354 1_555
Cd0 Cl0 2.658797 1_555
Cd0 Cl11 2.668675 1_555
Cd0 Cl11 2.668675 1_655
Cd0 Cl7 2.742053 1_555
Cd0 Cl7 2.742053 1_655
Cd1 Cl6 2.523354 1_555
Cd1 Cl7 2.658797 1_555
Cd1 Cl1 2.668675 1_555
Cd1 Cl1 2.668675 1_455
Cd1 Cl0 2.742053 1_455
Cd1 Cl0 2.742053 1_555
Cd2 Cl5 2.523354 1_555
Cd2 Cl8 2.658797 1_554
Cd2 Cl2 2.668675 1_554
Cd2 Cl2 2.668675 1_654
Cd2 Cl9 2.742053 1_565
Cd2 Cl9 2.742053 1_665
Cd3 Cl4 2.523354 1_555
Cd3 Cl9 2.658797 1_556
Cd3 Cl3 2.668675 1_556
Cd3 Cl3 2.668675 1_456
Cd3 Cl8 2.742053 1_445
Cd3 Cl8 2.742053 1_545
Cl0 Rb2 3.509307 1_555
Cl0 Rb0 3.834117 1_555
Cl1 Rb1 3.382709 1_555
Cl1 Rb1 3.382709 1_655
Cl1 Rb0 3.459775 1_565
Cl2 Rb2 3.382709 1_455
Cl2 Rb2 3.382709 1_555
Cl2 Rb3 3.459775 1_556
Cl3 Rb3 3.382709 1_555
Cl3 Rb3 3.382709 1_655
Cl3 Rb2 3.459775 1_554
Cl4 Rb0 3.312901 1_555
Cl4 Rb0 3.312901 1_455
Cl4 Rb2 3.334997 1_555
Cl4 Rb2 3.334997 1_455
Cl5 Rb1 3.312901 1_655
Cl5 Rb1 3.312901 1_555
Cl5 Rb3 3.334997 1_655
Cl5 Rb3 3.334997 1_555
Cl6 Rb2 3.312901 1_555
Cl6 Rb2 3.312901 1_455
Cl6 Rb0 3.334997 1_565
Cl6 Rb0 3.334997 1_465
Cl7 Rb3 3.509307 1_555
Cl7 Rb1 3.834117 1_555
Cl8 Rb0 3.509307 1_565
Cl8 Rb2 3.834117 1_555
Cl9 Rb1 3.509307 1_545
Cl9 Rb3 3.834117 1_555
Cl10 Rb3 3.312901 1_655
Cl10 Rb3 3.312901 1_555
Cl10 Rb1 3.334997 1_545
Cl10 Rb1 3.334997 1_645
Cl11 Rb0 3.382709 1_455
Cl11 Rb0 3.382709 1_555
Cl11 Rb1 3.459775 1_545
