# generated using pymatgen
data_MgFeCuS2
_symmetry_space_group_name_H-M   'P 1'
_cell_length_a   3.41575252
_cell_length_b   3.41575175
_cell_length_c   7.91385176
_cell_angle_alpha   77.44962258
_cell_angle_beta   77.44962248
_cell_angle_gamma   60.00638309
_symmetry_Int_Tables_number   1
_chemical_formula_structural   MgFeCuS2
_chemical_formula_sum   'Mg1 Fe1 Cu1 S2'
_cell_volume   77.41012901
_cell_formula_units_Z   1
loop_
 _symmetry_equiv_pos_site_id
 _symmetry_equiv_pos_as_xyz
  1  'x, y, z'
loop_
 _atom_site_type_symbol
 _atom_site_label
 _atom_site_symmetry_multiplicity
 _atom_site_fract_x
 _atom_site_fract_y
 _atom_site_fract_z
 _atom_site_occupancy
  Mg  Mg0  1  0.12298900  0.12298900  0.62844300  1
  Fe  Fe0  1  0.99060500  0.99060500  0.02657900  1
  Cu  Cu0  1  0.87382100  0.87382100  0.37508800  1
  S  S0  1  0.71105700  0.71105700  0.86653000  1
  S  S1  1  0.27352900  0.27352900  0.17694200  1
loop_
_geom_bond_atom_site_label_1
_geom_bond_atom_site_label_2
_geom_bond_distance
_geom_bond_site_symmetry_2
Mg0 S0 2.680455 1_445
Mg0 S0 2.689177 1_455
Mg0 S0 2.689177 1_545
Fe0 S1 2.283799 1_655
Fe0 S1 2.283800 1_565
Fe0 S1 2.284102 1_665
Fe0 S0 2.321778 1_554
Fe0 S0 2.322422 1_564
Fe0 S0 2.322422 1_654
Cu0 S1 2.487942 1_665
Cu0 S1 2.489036 1_655
Cu0 S1 2.489036 1_565
Cu0 Mg0 2.765215 1_655
Cu0 Mg0 2.765215 1_565
Cu0 Mg0 2.770609 1_665
