# generated using pymatgen
data_MgMn4(ZnS4)2
_symmetry_space_group_name_H-M   'P 1'
_cell_length_a   7.45891998
_cell_length_b   7.45891998
_cell_length_c   7.45891998
_cell_angle_alpha   57.66578193
_cell_angle_beta   57.66578193
_cell_angle_gamma   57.66578193
_symmetry_Int_Tables_number   1
_chemical_formula_structural   MgMn4(ZnS4)2
_chemical_formula_sum   'Mg1 Mn4 Zn2 S8'
_cell_volume   277.69589466
_cell_formula_units_Z   1
loop_
 _symmetry_equiv_pos_site_id
 _symmetry_equiv_pos_as_xyz
  1  'x, y, z'
loop_
 _atom_site_type_symbol
 _atom_site_label
 _atom_site_symmetry_multiplicity
 _atom_site_fract_x
 _atom_site_fract_y
 _atom_site_fract_z
 _atom_site_occupancy
  Mg  Mg0  1  0.50000000  0.50000000  0.50000000  1
  Mn  Mn0  1  0.00000000  0.00000000  0.50000000  1
  Mn  Mn1  1  0.00000000  0.50000000  0.00000000  1
  Mn  Mn2  1  0.50000000  0.00000000  0.00000000  1
  Mn  Mn3  1  0.00000000  0.00000000  0.00000000  1
  Zn  Zn0  1  0.35454400  0.35454400  0.35454400  1
  Zn  Zn1  1  0.64545600  0.64545600  0.64545600  1
  S  S0  1  0.24849800  0.24849800  0.75963100  1
  S  S1  1  0.24849800  0.75963100  0.24849800  1
  S  S2  1  0.75963100  0.24849800  0.24849800  1
  S  S3  1  0.23272600  0.23272600  0.23272600  1
  S  S4  1  0.75150200  0.75150200  0.24036900  1
  S  S5  1  0.75150200  0.24036900  0.75150200  1
  S  S6  1  0.24036900  0.75150200  0.75150200  1
  S  S7  1  0.76727400  0.76727400  0.76727400  1
loop_
_geom_bond_atom_site_label_1
_geom_bond_atom_site_label_2
_geom_bond_distance
_geom_bond_site_symmetry_2
Mg0 S2 2.603985 1_555
Mg0 S6 2.603985 1_555
Mg0 S0 2.603985 1_555
Mg0 S1 2.603985 1_555
Mg0 S4 2.603985 1_555
Mg0 S5 2.603985 1_555
Mg0 Zn1 2.703481 1_555
Mg0 Zn0 2.703481 1_555
Mn0 S7 2.412583 1_445
Mn0 S3 2.412583 1_555
Mn0 S6 2.548064 1_545
Mn0 S2 2.548064 1_455
Mn0 S5 2.548064 1_455
Mn0 S1 2.548064 1_545
Mn1 S7 2.412583 1_454
Mn1 S3 2.412583 1_555
Mn1 S4 2.548064 1_455
Mn1 S2 2.548064 1_455
Mn1 S6 2.548064 1_554
Mn1 S0 2.548064 1_554
Mn2 S7 2.412583 1_544
Mn2 S3 2.412583 1_555
Mn2 S5 2.548064 1_554
Mn2 S4 2.548064 1_545
Mn2 S0 2.548064 1_554
Mn2 S1 2.548064 1_545
Mn3 S2 2.578946 1_455
Mn3 S4 2.578946 1_445
Mn3 S1 2.578946 1_545
Mn3 S0 2.578946 1_554
Mn3 S6 2.578946 1_544
Mn3 S5 2.578946 1_454
S0 Zn0 2.436585 1_555
S1 Zn0 2.436585 1_555
S2 Zn0 2.436585 1_555
S3 Zn0 2.264140 1_555
S4 Zn1 2.436585 1_555
S5 Zn1 2.436585 1_555
S6 Zn1 2.436585 1_555
S7 Zn1 2.264140 1_555
