# generated using pymatgen
data_Dy4In(NiGe2)2
_symmetry_space_group_name_H-M   'P 1'
_cell_length_a   4.24202200
_cell_length_b   7.05921017
_cell_length_c   8.04437429
_cell_angle_alpha   108.03402058
_cell_angle_beta   105.28757591
_cell_angle_gamma   90.00000000
_symmetry_Int_Tables_number   1
_chemical_formula_structural   Dy4In(NiGe2)2
_chemical_formula_sum   'Dy4 In1 Ni2 Ge4'
_cell_volume   220.07516688
_cell_formula_units_Z   1
loop_
 _symmetry_equiv_pos_site_id
 _symmetry_equiv_pos_as_xyz
  1  'x, y, z'
loop_
 _atom_site_type_symbol
 _atom_site_label
 _atom_site_symmetry_multiplicity
 _atom_site_fract_x
 _atom_site_fract_y
 _atom_site_fract_z
 _atom_site_occupancy
  Dy  Dy0  1  0.65568900  0.93801300  0.31137800  1
  Dy  Dy1  1  0.34431100  0.06198700  0.68862200  1
  Dy  Dy2  1  0.59182800  0.39098800  0.18365600  1
  Dy  Dy3  1  0.40817200  0.60901200  0.81634400  1
  In  In0  1  0.00000000  0.00000000  0.00000000  1
  Ni  Ni0  1  0.78336400  0.35607800  0.56672800  1
  Ni  Ni1  1  0.21663600  0.64392200  0.43327200  1
  Ge  Ge0  1  0.93459000  0.33773300  0.86918000  1
  Ge  Ge1  1  0.06541000  0.66226700  0.13082000  1
  Ge  Ge2  1  0.79583900  0.72735700  0.59167800  1
  Ge  Ge3  1  0.20416100  0.27264300  0.40832200  1
loop_
_geom_bond_atom_site_label_1
_geom_bond_atom_site_label_2
_geom_bond_distance
_geom_bond_site_symmetry_2
Dy0 Ge1 2.915509 1_555
Dy0 Ge1 2.915509 1_655
Dy0 Ni0 2.980316 1_565
Dy0 Ge2 3.003051 1_555
Dy0 Ge3 3.082866 1_565
Dy0 Ge3 3.082866 1_665
Dy0 Ni1 3.311156 1_555
Dy0 Ni1 3.311156 1_655
Dy0 In0 3.347665 1_565
Dy0 In0 3.347665 1_665
Dy1 Ge0 2.915509 1_555
Dy1 Ge0 2.915509 1_455
Dy1 Ni1 2.980316 1_545
Dy1 Ge3 3.003051 1_555
Dy1 Ge2 3.082866 1_545
Dy1 Ge2 3.082866 1_445
Dy1 Ni0 3.311156 1_555
Dy1 Ni0 3.311156 1_455
Dy1 In0 3.347665 1_656
Dy1 In0 3.347665 1_556
Dy2 Ge1 2.972882 1_655
Dy2 Ge1 2.972882 1_555
Dy2 Ge3 3.028320 1_555
Dy2 Ge3 3.028320 1_655
Dy2 Ni1 3.036219 1_655
Dy2 Ni1 3.036219 1_555
Dy2 Ni0 3.060536 1_555
Dy2 Ge0 3.163222 1_554
Dy2 Ge0 3.163222 1_454
Dy2 Ge2 3.291968 1_555
Dy2 In0 3.409230 1_655
Dy2 In0 3.409230 1_555
Dy3 Ge0 2.972882 1_455
Dy3 Ge0 2.972882 1_555
Dy3 Ge2 3.028320 1_555
Dy3 Ge2 3.028320 1_455
Dy3 Ni0 3.036219 1_555
Dy3 Ni0 3.036219 1_455
Dy3 Ni1 3.060536 1_555
Dy3 Ge1 3.163222 1_656
Dy3 Ge1 3.163222 1_556
Dy3 Ge3 3.291968 1_555
Dy3 In0 3.409230 1_666
Dy3 In0 3.409230 1_566
Ge0 Ni0 2.391652 1_555
Ge0 Ge1 2.526834 1_656
Ge0 In0 2.875415 1_656
Ge1 Ni1 2.391652 1_555
Ge1 In0 2.875415 1_565
Ge2 Ni1 2.427301 1_555
Ge2 Ni1 2.427301 1_655
Ge2 Ni0 2.565363 1_555
Ge2 In0 3.135148 1_666
Ge3 Ni0 2.427301 1_555
Ge3 Ni0 2.427301 1_455
Ge3 Ni1 2.565363 1_555
Ge3 In0 3.135148 1_555
