# generated using pymatgen
data_Ba2PrMg(CuO2)4
_symmetry_space_group_name_H-M   'P 1'
_cell_length_a   3.88113090
_cell_length_b   4.06013227
_cell_length_c   15.62631925
_cell_angle_alpha   104.47913666
_cell_angle_beta   90.00000000
_cell_angle_gamma   90.00000000
_symmetry_Int_Tables_number   1
_chemical_formula_structural   Ba2PrMg(CuO2)4
_chemical_formula_sum   'Ba2 Pr1 Mg1 Cu4 O8'
_cell_volume   238.41722267
_cell_formula_units_Z   1
loop_
 _symmetry_equiv_pos_site_id
 _symmetry_equiv_pos_as_xyz
  1  'x, y, z'
loop_
 _atom_site_type_symbol
 _atom_site_label
 _atom_site_symmetry_multiplicity
 _atom_site_fract_x
 _atom_site_fract_y
 _atom_site_fract_z
 _atom_site_occupancy
  Ba  Ba0  1  0.50000000  0.50876907  0.66043582  1
  Ba  Ba1  1  0.50000000  0.65513781  0.28223824  1
  Pr  Pr0  1  0.50000000  0.41672976  0.03416832  1
  Mg  Mg0  1  -0.00000000  0.09561598  0.80414966  1
  Cu  Cu0  1  0.00000000  0.82115968  0.92813420  1
  Cu  Cu1  1  -0.00000000  0.02300335  0.14273518  1
  Cu  Cu2  1  0.00000000  0.90957765  0.54675728  1
  Cu  Cu3  1  0.00000000  0.28054483  0.41294561  1
  O  O0  1  0.00000000  0.40211149  0.53742532  1
  O  O1  1  -0.00000000  0.78937797  0.42221644  1
  O  O2  1  -0.00000000  0.35220863  0.93390704  1
  O  O3  1  -0.00000000  0.51473469  0.13419502  1
  O  O4  1  0.50000000  0.90219965  0.82214487  1
  O  O5  1  0.50000000  0.99426771  0.11375541  1
  O  O6  1  -0.00000000  0.03855970  0.67499178  1
  O  O7  1  -0.00000000  0.16266901  0.29054081  1
loop_
_geom_bond_atom_site_label_1
_geom_bond_atom_site_label_2
_geom_bond_distance
_geom_bond_site_symmetry_2
Ba0 O4 2.630302 1_555
Ba0 O0 2.689226 1_555
Ba0 O0 2.689226 1_655
Ba0 O6 2.771170 1_655
Ba0 O6 2.771170 1_555
Ba0 O6 2.863522 1_665
Ba0 O6 2.863522 1_565
Ba1 O7 2.809838 1_665
Ba1 O7 2.809838 1_565
Ba1 O7 2.812526 1_555
Ba1 O7 2.812526 1_655
Ba1 O1 2.872486 1_555
Ba1 O1 2.872486 1_655
Ba1 O3 2.963612 1_555
Ba1 O3 2.963612 1_655
Ba1 O5 3.255548 1_545
Ba1 O5 3.261915 1_555
Mg0 O6 1.973132 1_555
Mg0 O2 2.034778 1_555
Mg0 O4 2.138219 1_545
Mg0 O4 2.138219 1_445
Cu0 O2 1.928537 1_555
Cu0 O2 2.135361 1_565
Cu0 O4 2.624812 1_455
Cu0 O4 2.624812 1_555
Cu1 O5 1.989487 1_545
Cu1 O5 1.989487 1_445
Cu1 O3 2.033969 1_555
Cu1 O3 2.034379 1_545
Cu1 O7 2.236325 1_555
Cu2 O1 1.884304 1_555
Cu2 O6 1.940321 1_565
Cu2 O0 2.028839 1_555
Cu2 O0 2.041102 1_565
Cu3 O7 1.851986 1_555
Cu3 O0 1.883393 1_555
Cu3 O1 2.034550 1_555
Cu3 O1 2.035263 1_545
O2 Pr0 2.466532 1_556
O2 Pr0 2.466532 1_456
O3 Pr0 2.460943 1_455
O3 Pr0 2.460943 1_555
O5 Pr0 2.357004 1_565
O5 Pr0 2.363656 1_555
