# generated using pymatgen
data_K3InF6
_symmetry_space_group_name_H-M   'P 1'
_cell_length_a   8.95876881
_cell_length_b   8.95876881
_cell_length_c   8.95876881
_cell_angle_alpha   90.00000000
_cell_angle_beta   90.00000000
_cell_angle_gamma   90.00000000
_symmetry_Int_Tables_number   1
_chemical_formula_structural   K3InF6
_chemical_formula_sum   'K12 In4 F24'
_cell_volume   719.02665103
_cell_formula_units_Z   4
loop_
 _symmetry_equiv_pos_site_id
 _symmetry_equiv_pos_as_xyz
  1  'x, y, z'
loop_
 _atom_site_type_symbol
 _atom_site_label
 _atom_site_symmetry_multiplicity
 _atom_site_fract_x
 _atom_site_fract_y
 _atom_site_fract_z
 _atom_site_occupancy
  K  K0  1  0.00000000  0.00000000  -0.00000000  1
  K  K1  1  0.50000000  0.50000000  0.50000000  1
  K  K2  1  0.25000000  0.25000000  0.25000000  1
  K  K3  1  0.75000000  0.25000000  0.75000000  1
  K  K4  1  0.75000000  0.75000000  0.25000000  1
  K  K5  1  0.25000000  0.75000000  0.75000000  1
  K  K6  1  0.00000000  0.50000000  -0.00000000  1
  K  K7  1  0.00000000  0.00000000  0.50000000  1
  K  K8  1  0.50000000  0.00000000  -0.00000000  1
  K  K9  1  0.50000000  0.00000000  0.50000000  1
  K  K10  1  0.50000000  0.50000000  -0.00000000  1
  K  K11  1  0.00000000  0.50000000  0.50000000  1
  In  In0  1  0.75000000  0.75000000  0.75000000  1
  In  In1  1  0.25000000  0.75000000  0.25000000  1
  In  In2  1  0.25000000  0.25000000  0.75000000  1
  In  In3  1  0.75000000  0.25000000  0.25000000  1
  F  F0  1  0.71124440  0.97377784  0.80054724  1
  F  F1  1  0.80054724  0.71124440  0.97377784  1
  F  F2  1  0.97377784  0.80054724  0.71124440  1
  F  F3  1  0.02622216  0.80054724  0.28875560  1
  F  F4  1  0.19945276  0.28875560  0.97377784  1
  F  F5  1  0.19945276  0.71124440  0.02622216  1
  F  F6  1  0.97377784  0.19945276  0.28875560  1
  F  F7  1  0.80054724  0.28875560  0.02622216  1
  F  F8  1  0.02622216  0.19945276  0.71124440  1
  F  F9  1  0.28875560  0.02622216  0.80054724  1
  F  F10  1  0.28875560  0.97377784  0.19945276  1
  F  F11  1  0.71124440  0.02622216  0.19945276  1
  F  F12  1  0.78875560  0.52622216  0.69945276  1
  F  F13  1  0.69945276  0.78875560  0.52622216  1
  F  F14  1  0.52622216  0.69945276  0.78875560  1
  F  F15  1  0.47377784  0.69945276  0.21124440  1
  F  F16  1  0.30054724  0.21124440  0.52622216  1
  F  F17  1  0.30054724  0.78875560  0.47377784  1
  F  F18  1  0.52622216  0.30054724  0.21124440  1
  F  F19  1  0.69945276  0.21124440  0.47377784  1
  F  F20  1  0.47377784  0.30054724  0.78875560  1
  F  F21  1  0.21124440  0.47377784  0.69945276  1
  F  F22  1  0.21124440  0.52622216  0.30054724  1
  F  F23  1  0.78875560  0.47377784  0.30054724  1
loop_
_geom_bond_atom_site_label_1
_geom_bond_atom_site_label_2
_geom_bond_distance
_geom_bond_site_symmetry_2
F0 In0 2.084402 1_555
F0 K3 2.539549 1_565
F0 K8 2.613339 1_566
F0 K0 3.152784 1_666
F1 In0 2.084402 1_555
F1 K4 2.539549 1_556
F1 K6 2.613339 1_656
F1 K0 3.152784 1_666
F2 In0 2.084402 1_555
F2 K5 2.539549 1_655
F2 K7 2.613339 1_665
F2 K0 3.152784 1_666
F3 In1 2.084402 1_555
F3 K4 2.539549 1_455
F3 K7 2.613339 1_565
F3 K0 3.152784 1_565
F4 In2 2.084402 1_555
F4 K2 2.539549 1_556
F4 K6 2.613339 1_556
F4 K0 3.152784 1_556
F5 In1 2.084402 1_555
F5 K5 2.539549 1_554
F5 K6 2.613339 1_555
F5 K0 3.152784 1_565
F6 In3 2.084402 1_555
F6 K2 2.539549 1_655
F6 K7 2.613339 1_655
F6 K0 3.152784 1_655
F7 In3 2.084402 1_555
F7 K3 2.539549 1_554
F7 K6 2.613339 1_655
F7 K0 3.152784 1_655
F8 In2 2.084402 1_555
F8 K3 2.539549 1_455
F8 K7 2.613339 1_555
F8 K0 3.152784 1_556
F9 In2 2.084402 1_555
F9 K5 2.539549 1_545
F9 K8 2.613339 1_556
F9 K0 3.152784 1_556
F10 In1 2.084402 1_555
F10 K2 2.539549 1_565
F10 K8 2.613339 1_565
F10 K0 3.152784 1_565
F11 In3 2.084402 1_555
F11 K4 2.539549 1_545
F11 K8 2.613339 1_555
F11 K0 3.152784 1_655
F12 In0 2.084402 1_555
F12 K3 2.539549 1_555
F12 K11 2.613339 1_655
F12 K1 3.152784 1_555
F13 In0 2.084402 1_555
F13 K4 2.539549 1_555
F13 K9 2.613339 1_565
F13 K1 3.152784 1_555
F14 In0 2.084402 1_555
F14 K5 2.539549 1_555
F14 K10 2.613339 1_556
F14 K1 3.152784 1_555
F15 In1 2.084402 1_555
F15 K4 2.539549 1_555
F15 K10 2.613339 1_555
F15 K1 3.152784 1_555
F16 In2 2.084402 1_555
F16 K2 2.539549 1_555
F16 K9 2.613339 1_555
F16 K1 3.152784 1_555
F17 In1 2.084402 1_555
F17 K5 2.539549 1_555
F17 K9 2.613339 1_565
F17 K1 3.152784 1_555
F18 In3 2.084402 1_555
F18 K2 2.539549 1_555
F18 K10 2.613339 1_555
F18 K1 3.152784 1_555
F19 In3 2.084402 1_555
F19 K3 2.539549 1_555
F19 K9 2.613339 1_555
F19 K1 3.152784 1_555
F20 In2 2.084402 1_555
F20 K3 2.539549 1_555
F20 K10 2.613339 1_556
F20 K1 3.152784 1_555
F21 In2 2.084402 1_555
F21 K5 2.539549 1_555
F21 K11 2.613339 1_555
F21 K1 3.152784 1_555
F22 In1 2.084402 1_555
F22 K2 2.539549 1_555
F22 K11 2.613339 1_555
F22 K1 3.152784 1_555
F23 In3 2.084402 1_555
F23 K4 2.539549 1_555
F23 K11 2.613339 1_655
F23 K1 3.152784 1_555
