# generated using pymatgen
data_Ca3(InNi2)4
_symmetry_space_group_name_H-M   'P 1'
_cell_length_a   8.92645255
_cell_length_b   8.92645178
_cell_length_c   7.46588931
_cell_angle_alpha   89.99996811
_cell_angle_beta   90.00002193
_cell_angle_gamma   119.99684101
_symmetry_Int_Tables_number   1
_chemical_formula_structural   Ca3(InNi2)4
_chemical_formula_sum   'Ca6 In8 Ni16'
_cell_volume   515.20938538
_cell_formula_units_Z   2
loop_
 _symmetry_equiv_pos_site_id
 _symmetry_equiv_pos_as_xyz
  1  'x, y, z'
loop_
 _atom_site_type_symbol
 _atom_site_label
 _atom_site_symmetry_multiplicity
 _atom_site_fract_x
 _atom_site_fract_y
 _atom_site_fract_z
 _atom_site_occupancy
  Ca  Ca0  1  0.47057758  0.52942212  0.23349995  1
  Ca  Ca1  1  0.94115684  0.47057900  0.73349532  1
  Ca  Ca2  1  0.52942061  0.05884260  0.73349548  1
  Ca  Ca3  1  0.47057861  0.94115563  0.23350004  1
  Ca  Ca4  1  0.05884419  0.52942099  0.23350038  1
  Ca  Ca5  1  0.52942027  0.47057856  0.73349395  1
  In  In0  1  0.33333257  0.66666796  0.57460208  1
  In  In1  1  0.66666680  0.33333305  0.07461128  1
  In  In2  1  0.83079695  0.66159386  0.43019307  1
  In  In3  1  0.16921256  0.83078754  0.93020310  1
  In  In4  1  0.66157464  0.83078715  0.93020502  1
  In  In5  1  0.33840618  0.16920263  0.43019284  1
  In  In6  1  0.83079616  0.16920336  0.43019099  1
  In  In7  1  0.16921294  0.33842533  0.93020506  1
  Ni  Ni0  1  0.99999957  0.00000125  0.00160177  1
  Ni  Ni1  1  0.00000093  0.99999831  0.50153922  1
  Ni  Ni2  1  0.66666362  0.33333613  0.42659034  1
  Ni  Ni3  1  0.33333607  0.66666414  0.92659930  1
  Ni  Ni4  1  0.09687056  0.19374465  0.24954225  1
  Ni  Ni5  1  0.90312000  0.09687991  0.74950553  1
  Ni  Ni6  1  0.19375937  0.09687724  0.74950306  1
  Ni  Ni7  1  0.80625530  0.90312950  0.24954223  1
  Ni  Ni8  1  0.09687379  0.90312704  0.24954529  1
  Ni  Ni9  1  0.90312271  0.80624092  0.74950243  1
  Ni  Ni10  1  0.15898112  0.31796985  0.56175463  1
  Ni  Ni11  1  0.84101068  0.15898969  0.06179078  1
  Ni  Ni12  1  0.31797233  0.15898187  0.06179032  1
  Ni  Ni13  1  0.68203022  0.84101895  0.56175465  1
  Ni  Ni14  1  0.15898809  0.84101237  0.56175492  1
  Ni  Ni15  1  0.84101874  0.68202838  0.06179074  1
loop_
_geom_bond_atom_site_label_1
_geom_bond_atom_site_label_2
_geom_bond_distance
_geom_bond_site_symmetry_2
Ca0 Ni3 3.122871 1_554
Ca0 Ni12 3.151097 1_555
Ca0 Ni15 3.151101 1_555
Ca0 In5 3.177172 1_555
Ca0 In2 3.177172 1_555
Ca0 Ni4 3.182168 1_555
Ca0 Ni7 3.182171 1_555
Ca0 In1 3.255516 1_555
Ca0 In7 3.268768 1_554
Ca0 In4 3.268769 1_554
Ca0 In0 3.314801 1_555
Ca0 Ni2 3.356946 1_555
Ca0 Ni10 3.472125 1_555
Ca0 Ni13 3.472128 1_555
Ca1 Ni2 3.123015 1_555
Ca1 Ni10 3.151029 1_655
Ca1 Ni14 3.151170 1_655
Ca1 In7 3.177087 1_655
Ca1 In3 3.177207 1_655
Ca1 Ni9 3.181878 1_555
Ca1 Ni5 3.181928 1_555
Ca1 In0 3.255644 1_655
Ca1 In2 3.268782 1_555
Ca1 In6 3.268862 1_555
Ca1 In1 3.314941 1_556
Ca1 Ni3 3.357172 1_655
Ca1 Ni15 3.472199 1_556
Ca1 Ni11 3.472255 1_556
Ca2 Ni2 3.123017 1_555
Ca2 Ni13 3.151028 1_545
Ca2 Ni14 3.151164 1_545
Ca2 In4 3.177083 1_545
Ca2 In3 3.177203 1_545
Ca2 Ni6 3.181875 1_555
Ca2 Ni5 3.181929 1_555
Ca2 In0 3.255637 1_545
Ca2 In5 3.268782 1_555
Ca2 In6 3.268862 1_555
Ca2 In1 3.314943 1_556
Ca2 Ni3 3.357165 1_545
Ca2 Ni12 3.472195 1_556
Ca2 Ni11 3.472259 1_556
Ca3 Ni3 3.122983 1_554
Ca3 Ni12 3.150929 1_565
Ca3 Ni11 3.151070 1_565
Ca3 In5 3.177078 1_565
Ca3 In6 3.177195 1_565
Ca3 Ni7 3.181978 1_555
Ca3 Ni8 3.182020 1_555
Ca3 In1 3.255643 1_565
Ca3 In4 3.268676 1_554
Ca3 In3 3.268758 1_554
Ca3 In0 3.314848 1_555
Ca3 Ni2 3.357137 1_565
Ca3 Ni13 3.471989 1_555
Ca3 Ni14 3.472054 1_555
Ca4 Ni3 3.122987 1_554
Ca4 Ni15 3.150931 1_455
Ca4 Ni11 3.151065 1_455
Ca4 In2 3.177082 1_455
Ca4 In6 3.177194 1_455
Ca4 Ni4 3.181976 1_555
Ca4 Ni8 3.182027 1_555
Ca4 In1 3.255645 1_455
Ca4 In7 3.268677 1_554
Ca4 In3 3.268762 1_554
Ca4 In0 3.314851 1_555
Ca4 Ni2 3.357136 1_455
Ca4 Ni10 3.471985 1_555
Ca4 Ni14 3.472057 1_555
Ca5 Ni2 3.122901 1_555
Ca5 Ni10 3.151175 1_555
Ca5 Ni13 3.151183 1_555
Ca5 In7 3.177168 1_555
Ca5 In4 3.177176 1_555
Ca5 Ni6 3.182067 1_555
Ca5 Ni9 3.182079 1_555
Ca5 In0 3.255515 1_555
Ca5 In5 3.268874 1_555
Ca5 In2 3.268877 1_555
Ca5 In1 3.314893 1_556
Ca5 Ni3 3.356980 1_555
Ca5 Ni12 3.472340 1_556
Ca5 Ni15 3.472353 1_556
In0 Ni3 2.627972 1_555
In0 Ni14 2.697214 1_555
In0 Ni13 2.697411 1_555
In0 Ni10 2.697414 1_555
In1 Ni2 2.627837 1_555
In1 Ni11 2.697195 1_555
In1 Ni12 2.697379 1_555
In1 Ni15 2.697386 1_555
In2 Ni2 2.537831 1_555
In2 Ni9 2.633166 1_555
In2 Ni7 2.643462 1_555
In2 Ni8 2.643542 1_655
In2 Ni1 2.669807 1_655
In2 Ni13 2.723996 1_555
In2 Ni14 2.724108 1_655
In2 Ni15 2.754984 1_555
In3 Ni3 2.537626 1_555
In3 Ni8 2.633468 1_556
In3 Ni6 2.643746 1_565
In3 Ni9 2.643750 1_455
In3 Ni0 2.669931 1_466
In3 Ni15 2.724190 1_456
In3 Ni12 2.724192 1_566
In3 Ni14 2.755332 1_555
In4 Ni3 2.537683 1_555
In4 Ni7 2.633464 1_556
In4 Ni9 2.643776 1_555
In4 Ni5 2.643848 1_565
In4 Ni0 2.670037 1_566
In4 Ni15 2.724146 1_556
In4 Ni11 2.724260 1_566
In4 Ni13 2.755351 1_555
In5 Ni2 2.537829 1_555
In5 Ni6 2.633171 1_555
In5 Ni4 2.643463 1_555
In5 Ni8 2.643534 1_545
In5 Ni1 2.669813 1_545
In5 Ni10 2.724000 1_555
In5 Ni14 2.724102 1_545
In5 Ni12 2.754985 1_555
In6 Ni2 2.537768 1_555
In6 Ni5 2.633179 1_555
In6 Ni7 2.643450 1_545
In6 Ni4 2.643452 1_655
In6 Ni1 2.669728 1_645
In6 Ni13 2.724052 1_545
In6 Ni10 2.724056 1_655
In6 Ni11 2.754965 1_555
In7 Ni3 2.537685 1_555
In7 Ni4 2.633464 1_556
In7 Ni6 2.643774 1_555
In7 Ni5 2.643850 1_455
In7 Ni0 2.670030 1_456
In7 Ni12 2.724144 1_556
In7 Ni11 2.724258 1_456
In7 Ni10 2.755352 1_555
Ni0 Ni8 2.381157 1_645
Ni0 Ni4 2.381161 1_655
Ni0 Ni7 2.381165 1_545
Ni0 Ni5 2.405386 1_554
Ni0 Ni6 2.405453 1_654
Ni0 Ni9 2.405459 1_544
Ni0 Ni11 2.498832 1_555
Ni0 Ni12 2.498912 1_655
Ni0 Ni15 2.498913 1_545
Ni1 Ni5 2.381359 1_465
Ni1 Ni9 2.381360 1_455
Ni1 Ni6 2.381369 1_565
Ni1 Ni8 2.404721 1_555
Ni1 Ni7 2.404790 1_455
Ni1 Ni4 2.404793 1_565
Ni1 Ni14 2.498836 1_555
Ni1 Ni13 2.498933 1_455
Ni1 Ni10 2.498939 1_565
Ni4 Ni8 2.594198 1_545
Ni4 Ni7 2.594287 1_445
Ni5 Ni9 2.594387 1_545
Ni5 Ni6 2.594390 1_655
Ni6 Ni9 2.594477 1_445
Ni7 Ni8 2.594203 1_655
Ni10 Ni4 2.521028 1_555
Ni10 Ni6 2.562963 1_555
Ni10 Ni5 2.563018 1_455
Ni11 Ni5 2.521496 1_554
Ni11 Ni4 2.562987 1_655
Ni11 Ni7 2.562987 1_545
Ni12 Ni6 2.521509 1_554
Ni12 Ni4 2.562977 1_555
Ni12 Ni8 2.563030 1_545
Ni13 Ni7 2.521028 1_555
Ni13 Ni9 2.562959 1_555
Ni13 Ni5 2.563017 1_565
Ni14 Ni8 2.521002 1_555
Ni14 Ni6 2.562964 1_565
Ni14 Ni9 2.562964 1_455
Ni15 Ni9 2.521515 1_554
Ni15 Ni7 2.562973 1_555
Ni15 Ni8 2.563031 1_655
