# generated using pymatgen
data_Na3Sc2Nb2SiP5O24
_symmetry_space_group_name_H-M   'P 1'
_cell_length_a   8.89860075
_cell_length_b   8.88218968
_cell_length_c   22.72515459
_cell_angle_alpha   89.98060354
_cell_angle_beta   90.05068592
_cell_angle_gamma   119.96275800
_symmetry_Int_Tables_number   1
_chemical_formula_structural   Na3Sc2Nb2SiP5O24
_chemical_formula_sum   'Na9 Sc6 Nb6 Si3 P15 O72'
_cell_volume   1556.11585694
_cell_formula_units_Z   3
loop_
 _symmetry_equiv_pos_site_id
 _symmetry_equiv_pos_as_xyz
  1  'x, y, z'
loop_
 _atom_site_type_symbol
 _atom_site_label
 _atom_site_symmetry_multiplicity
 _atom_site_fract_x
 _atom_site_fract_y
 _atom_site_fract_z
 _atom_site_occupancy
  Na  Na0  1  0.35890694  0.99259924  0.75201275  1
  Na  Na1  1  0.67283420  0.97333002  0.58669798  1
  Na  Na2  1  0.67620527  0.70023804  0.08318430  1
  Na  Na3  1  0.01612818  0.00050009  0.50413942  1
  Na  Na4  1  0.01244186  0.00668831  0.00392958  1
  Na  Na5  1  0.67609700  0.34451652  0.83890732  1
  Na  Na6  1  0.66509493  0.33217779  0.33793833  1
  Na  Na7  1  0.32428203  0.66621444  0.17253395  1
  Na  Na8  1  0.32796433  0.64986150  0.67148955  1
  Sc  Sc0  1  0.00251737  0.99891825  0.64694817  1
  Sc  Sc1  1  0.00660446  0.00333610  0.14726439  1
  Sc  Sc2  1  0.66853815  0.33503868  0.98026315  1
  Sc  Sc3  1  0.66129444  0.33133664  0.47937143  1
  Sc  Sc4  1  0.33394482  0.66728940  0.31328190  1
  Sc  Sc5  1  0.33700694  0.66461538  0.81395430  1
  Nb  Nb0  1  0.00049699  0.00020996  0.35389363  1
  Nb  Nb1  1  0.99378321  0.99940522  0.85429263  1
  Nb  Nb2  1  0.66869262  0.33288648  0.68678330  1
  Nb  Nb3  1  0.67123411  0.33424408  0.18808493  1
  Nb  Nb4  1  0.32613564  0.66675539  0.02011959  1
  Nb  Nb5  1  0.32984190  0.66622759  0.51972117  1
  Si  Si0  1  0.70717250  0.99813431  0.74690029  1
  Si  Si1  1  0.37051652  0.04327601  0.58145964  1
  Si  Si2  1  0.95726919  0.62469461  0.08235698  1
  P  P0  1  0.29151558  0.00098245  0.24948183  1
  P  P1  1  0.70908809  0.70914014  0.24827404  1
  P  P2  1  -0.00033579  0.29043688  0.24942996  1
  P  P3  1  0.28908033  0.29018568  0.74949365  1
  P  P4  1  0.99669698  0.70787938  0.75055331  1
  P  P5  1  0.95757047  0.33662976  0.58189976  1
  P  P6  1  0.66553812  0.62152564  0.58156488  1
  P  P7  1  0.66581630  0.04422378  0.08261187  1
  P  P8  1  0.37760433  0.33257261  0.08210015  1
  P  P9  1  0.62454878  0.66612483  0.91680833  1
  P  P10  1  0.04294273  0.37577738  0.91528473  1
  P  P11  1  0.33245536  0.95918379  0.91435503  1
  P  P12  1  0.62495479  0.95681838  0.41545311  1
  P  P13  1  0.33272658  0.37660176  0.41475424  1
  P  P14  1  0.04286358  0.66642963  0.41472423  1
  O  O0  1  0.19884162  0.02681340  0.30522442  1
  O  O1  1  0.82958798  0.80307267  0.30319485  1
  O  O2  1  0.97391394  0.17296912  0.30525418  1
  O  O3  1  0.20405225  0.16965231  0.80491066  1
  O  O4  1  0.97234972  0.79956578  0.80622496  1
  O  O5  1  0.83481271  0.02523994  0.80542590  1
  O  O6  1  0.78900671  0.97410524  0.68788624  1
  O  O7  1  0.18246295  0.20411162  0.69499058  1
  O  O8  1  0.03226039  0.82372186  0.69703344  1
  O  O9  1  0.79015769  0.81219560  0.19233300  1
  O  O10  1  0.02095090  0.20507816  0.19502801  1
  O  O11  1  0.18236058  0.97666979  0.19520970  1
  O  O12  1  0.87011598  0.36597678  0.63832879  1
  O  O13  1  0.49873713  0.13319500  0.64178010  1
  O  O14  1  0.64009505  0.50805466  0.63785822  1
  O  O15  1  0.86199312  0.49772869  0.14161100  1
  O  O16  1  0.63514795  0.12925821  0.13884240  1
  O  O17  1  0.49735315  0.36484935  0.13768383  1
  O  O18  1  0.45878338  0.30612158  0.02779389  1
  O  O19  1  0.83457773  0.53629581  0.02711139  1
  O  O20  1  0.68920403  0.15077123  0.02848309  1
  O  O21  1  0.47030403  0.15728133  0.52599997  1
  O  O22  1  0.69217088  0.53986055  0.52765171  1
  O  O23  1  0.84550331  0.30875543  0.52874418  1
  O  O24  1  0.54118075  0.69427768  0.97379501  1
  O  O25  1  0.16152273  0.46812172  0.97133167  1
  O  O26  1  0.30873851  0.83672795  0.96947741  1
  O  O27  1  0.53885052  0.84234732  0.47276782  1
  O  O28  1  0.30523595  0.46574109  0.47088483  1
  O  O29  1  0.16192669  0.69496783  0.47117514  1
  O  O30  1  0.13021631  0.64533071  0.36126856  1
  O  O31  1  0.51384442  0.86760400  0.36253045  1
  O  O32  1  0.35248942  0.48376126  0.36085765  1
  O  O33  1  0.12869297  0.48406007  0.86132396  1
  O  O34  1  0.35267349  0.87583854  0.85870337  1
  O  O35  1  0.51634132  0.64904953  0.86299653  1
  O  O36  1  0.03219544  0.83813859  0.40991555  1
  O  O37  1  0.80686657  0.96672757  0.40942782  1
  O  O38  1  0.16205870  0.19273381  0.40958667  1
  O  O39  1  0.03472540  0.19466419  0.91092134  1
  O  O40  1  0.16210466  0.96880056  0.91145412  1
  O  O41  1  0.80858501  0.83706483  0.91089373  1
  O  O42  1  0.97591607  0.17606809  0.58973832  1
  O  O43  1  0.17906470  0.01122035  0.58788335  1
  O  O44  1  0.81559359  0.80798991  0.58833888  1
  O  O45  1  0.97836258  0.81403987  0.09004173  1
  O  O46  1  0.81868852  0.01283955  0.09040632  1
  O  O47  1  0.19444436  0.18213098  0.09022411  1
  O  O48  1  0.69594916  0.18137083  0.74352847  1
  O  O49  1  0.47130297  0.30106167  0.74419027  1
  O  O50  1  0.82809998  0.52979447  0.74444682  1
  O  O51  1  0.69652960  0.52579663  0.24433117  1
  O  O52  1  0.82637552  0.29857342  0.24501732  1
  O  O53  1  0.47199048  0.17111993  0.24449277  1
  O  O54  1  0.64893032  0.50933761  0.92117268  1
  O  O55  1  0.86183873  0.34757003  0.92276527  1
  O  O56  1  0.48916272  0.13764383  0.92234984  1
  O  O57  1  0.65425397  0.13959493  0.42179238  1
  O  O58  1  0.48850327  0.35125817  0.42104204  1
  O  O59  1  0.86263749  0.51217683  0.42255890  1
  O  O60  1  0.37294481  0.50822402  0.07649981  1
  O  O61  1  0.14958849  0.63843433  0.07548837  1
  O  O62  1  0.49856292  0.85818717  0.07649835  1
  O  O63  1  0.36652993  0.85158572  0.57552411  1
  O  O64  1  0.49494003  0.63446305  0.57616643  1
  O  O65  1  0.13989603  0.50264187  0.57642896  1
  O  O66  1  0.31624209  0.84494778  0.25671346  1
  O  O67  1  0.52887771  0.68472374  0.25606280  1
  O  O68  1  0.15321434  0.47226027  0.25644411  1
  O  O69  1  0.31398194  0.47049359  0.75667802  1
  O  O70  1  0.15439305  0.68505509  0.75849330  1
  O  O71  1  0.51075675  0.84175477  0.75511373  1
loop_
_geom_bond_atom_site_label_1
_geom_bond_atom_site_label_2
_geom_bond_distance
_geom_bond_site_symmetry_2
Na0 O71 2.331129 1_555
Na0 O49 2.408599 1_565
Na0 O70 2.414571 1_555
Na0 O48 2.611786 1_565
Na0 O34 2.626443 1_555
Na0 O13 2.798988 1_565
Na0 O8 2.810628 1_555
Na0 O3 2.825931 1_565
Na1 O44 2.373887 1_555
Na1 O42 2.381157 1_565
Na1 O63 2.391232 1_555
Na1 O6 2.518971 1_555
Na1 O64 2.619751 1_555
Na1 O27 2.844189 1_555
Na1 O13 2.860978 1_565
Na1 O23 2.898277 1_565
Na2 O45 2.357992 1_555
Na2 O60 2.369894 1_555
Na2 O46 2.414002 1_565
Na2 O62 2.589360 1_555
Na2 O9 2.675742 1_555
Na2 O24 2.749069 1_554
Na2 O19 2.790084 1_555
Na2 O17 2.864684 1_555
Na3 O43 2.364403 1_555
Na3 O44 2.593337 1_445
Na3 O36 2.625589 1_545
Na3 O42 2.627645 1_455
Na3 O38 2.646964 1_555
Na3 O37 2.761424 1_445
Na4 O45 2.515933 1_445
Na4 O47 2.524398 1_555
Na4 O40 2.599308 1_544
Na4 O46 2.633967 1_455
Na4 O39 2.638574 1_554
Na4 O41 2.701130 1_444
Na5 O54 2.460248 1_555
Na5 O55 2.512755 1_555
Na5 O56 2.586360 1_555
Na5 O50 2.631561 1_555
Na5 O48 2.662261 1_555
Na5 O49 2.719219 1_555
Na6 O58 2.517174 1_555
Na6 O57 2.529802 1_555
Na6 O59 2.555971 1_555
Na6 O52 2.653587 1_555
Na6 O53 2.654981 1_555
Na6 O51 2.660642 1_555
Na7 O66 2.510120 1_555
Na7 O68 2.510911 1_555
Na7 O67 2.576815 1_555
Na7 O61 2.636718 1_555
Na7 O62 2.727205 1_555
Na7 O60 2.744145 1_555
Na8 O69 2.470187 1_555
Na8 O71 2.527794 1_555
Na8 O70 2.623097 1_555
Na8 O65 2.643294 1_555
Na8 O64 2.669815 1_555
Na8 O63 2.732882 1_555
Nb0 O0 1.995239 1_555
Nb0 O2 1.998330 1_455
Nb0 O1 2.011140 1_445
Nb0 O38 2.033590 1_555
Nb0 O37 2.035131 1_445
Nb0 O36 2.043621 1_545
Nb1 O5 1.899553 1_565
Nb1 O4 2.010732 1_555
Nb1 O41 2.019515 1_555
Nb1 O39 2.041141 1_665
Nb1 O3 2.055082 1_665
Nb1 O40 2.099478 1_655
Nb2 O13 1.948900 1_555
Nb2 O48 1.963981 1_555
Nb2 O12 1.997146 1_555
Nb2 O14 2.028669 1_555
Nb2 O50 2.075662 1_555
Nb2 O49 2.091639 1_555
Nb3 O15 1.909307 1_555
Nb3 O16 2.021669 1_555
Nb3 O52 2.028216 1_555
Nb3 O17 2.048586 1_555
Nb3 O51 2.048823 1_555
Nb3 O53 2.079130 1_555
Nb4 O61 1.929547 1_555
Nb4 O26 1.964605 1_554
Nb4 O25 1.976028 1_554
Nb4 O62 2.068556 1_555
Nb4 O24 2.089497 1_554
Nb4 O60 2.093219 1_555
Nb5 O63 1.972083 1_555
Nb5 O29 1.973022 1_555
Nb5 O28 2.015482 1_555
Nb5 O27 2.034949 1_555
Nb5 O65 2.044091 1_555
Nb5 O64 2.072155 1_555
O0 P0 1.590106 1_555
O1 P1 1.583765 1_555
O2 P2 1.584714 1_655
O3 P3 1.579968 1_555
O4 P4 1.577393 1_555
O5 Si0 1.685632 1_545
O6 Si0 1.591091 1_555
O6 Sc0 2.026967 1_655
O7 P3 1.514187 1_555
O7 Sc0 2.039826 1_545
O8 P4 1.520754 1_455
O8 Sc0 2.048594 1_555
O9 P1 1.521731 1_555
O9 Sc1 2.092147 1_665
O10 P2 1.511167 1_555
O10 Sc1 2.044011 1_555
O11 P0 1.516504 1_565
O11 Sc1 2.013983 1_565
O12 P5 1.588282 1_555
O13 Si1 1.704853 1_555
O14 P6 1.573313 1_555
O15 Si2 1.688122 1_555
O16 P7 1.576388 1_555
O17 P8 1.583017 1_555
O18 P8 1.507110 1_555
O18 Sc2 2.059393 1_554
O19 Si2 1.589543 1_555
O19 Sc2 1.967815 1_554
O20 P7 1.501658 1_555
O20 Sc2 2.052429 1_554
O21 Si1 1.582804 1_555
O21 Sc3 1.943950 1_555
O22 P6 1.502075 1_555
O22 Sc3 2.049944 1_555
O23 P5 1.505465 1_555
O23 Sc3 2.076319 1_555
O24 P9 1.573915 1_555
O25 P10 1.594447 1_555
O26 P11 1.602187 1_555
O27 P12 1.593748 1_555
O28 P13 1.583828 1_555
O29 P14 1.600643 1_555
O30 P14 1.504123 1_555
O30 Sc4 2.040589 1_555
O31 P12 1.505947 1_555
O31 Sc4 2.033239 1_555
O32 P13 1.506459 1_555
O32 Sc4 2.029945 1_555
O33 P10 1.509572 1_555
O33 Sc5 2.049352 1_555
O34 P11 1.521156 1_555
O34 Sc5 2.076826 1_555
O35 P9 1.515842 1_555
O35 Sc5 2.006241 1_555
O36 P14 1.578459 1_555
O37 P12 1.582703 1_555
O38 P13 1.584225 1_555
O39 P10 1.576589 1_555
O40 P11 1.561634 1_555
O41 P9 1.588037 1_555
O42 P5 1.524660 1_555
O42 Sc0 2.142954 1_645
O43 Si1 1.587671 1_555
O43 Sc0 2.028268 1_545
O44 P6 1.529870 1_555
O44 Sc0 2.143978 1_655
O45 Si2 1.605927 1_555
O45 Sc1 2.039608 1_665
O46 P7 1.529038 1_555
O46 Sc1 2.147087 1_655
O47 P8 1.516913 1_555
O47 Sc1 2.084985 1_555
O48 Si0 1.681369 1_545
O49 P3 1.580214 1_555
O50 P4 1.549667 1_555
O51 P1 1.578227 1_555
O52 P2 1.582455 1_655
O53 P0 1.565795 1_555
O54 P9 1.515900 1_555
O54 Sc2 2.120955 1_555
O55 P10 1.511945 1_655
O55 Sc2 2.119225 1_555
O56 P11 1.510627 1_545
O56 Sc2 2.134565 1_555
O57 P12 1.517115 1_545
O57 Sc3 2.123998 1_555
O58 P13 1.517875 1_555
O58 Sc3 2.102521 1_555
O59 P14 1.512093 1_655
O59 Sc3 2.141276 1_555
O60 P8 1.586353 1_555
O61 Si2 1.661293 1_455
O62 P7 1.583700 1_565
O63 Si1 1.690625 1_565
O64 P6 1.583271 1_555
O65 P5 1.559689 1_455
O66 P0 1.516776 1_565
O66 Sc4 2.100960 1_555
O67 P1 1.517580 1_555
O67 Sc4 2.111700 1_555
O68 P2 1.515315 1_555
O68 Sc4 2.114394 1_555
O69 P3 1.512046 1_555
O69 Sc5 2.087415 1_555
O70 P4 1.525296 1_455
O70 Sc5 2.133782 1_555
O71 Si0 1.610730 1_555
O71 Sc5 2.055815 1_555
