# generated using pymatgen
data_Ba2PrCu3O7
_symmetry_space_group_name_H-M   'P 1'
_cell_length_a   3.90392300
_cell_length_b   3.95568000
_cell_length_c   11.91643200
_cell_angle_alpha   90.00000000
_cell_angle_beta   90.00000000
_cell_angle_gamma   90.00000000
_symmetry_Int_Tables_number   1
_chemical_formula_structural   Ba2PrCu3O7
_chemical_formula_sum   'Ba2 Pr1 Cu3 O7'
_cell_volume   184.02152853
_cell_formula_units_Z   1
loop_
 _symmetry_equiv_pos_site_id
 _symmetry_equiv_pos_as_xyz
  1  'x, y, z'
loop_
 _atom_site_type_symbol
 _atom_site_label
 _atom_site_symmetry_multiplicity
 _atom_site_fract_x
 _atom_site_fract_y
 _atom_site_fract_z
 _atom_site_occupancy
  Ba  Ba0  1  0.50000000  0.50000000  0.82112200  1
  Ba  Ba1  1  0.50000000  0.50000000  0.17887800  1
  Pr  Pr0  1  0.50000000  0.50000000  0.50000000  1
  Cu  Cu0  1  0.00000000  0.00000000  0.65408600  1
  Cu  Cu1  1  0.00000000  0.00000000  0.34591400  1
  Cu  Cu2  1  0.00000000  0.00000000  0.00000000  1
  O  O0  1  0.00000000  0.50000000  0.00000000  1
  O  O1  1  0.50000000  0.00000000  0.62982700  1
  O  O2  1  0.50000000  0.00000000  0.37017300  1
  O  O3  1  0.00000000  0.50000000  0.62976900  1
  O  O4  1  0.00000000  0.50000000  0.37023100  1
  O  O5  1  0.00000000  0.00000000  0.84267000  1
  O  O6  1  0.00000000  0.00000000  0.15733000  1
loop_
_geom_bond_atom_site_label_1
_geom_bond_atom_site_label_2
_geom_bond_distance
_geom_bond_site_symmetry_2
Ba0 O5 2.790688 1_655
Ba0 O5 2.790688 1_665
Ba0 O5 2.790688 1_555
Ba0 O5 2.790688 1_565
Ba0 O0 2.890297 1_556
Ba0 O0 2.890297 1_656
Ba0 O3 3.001611 1_555
Ba0 O3 3.001611 1_655
Ba0 O1 3.017982 1_555
Ba0 O1 3.017982 1_565
Ba1 O6 2.790688 1_655
Ba1 O6 2.790688 1_565
Ba1 O6 2.790688 1_665
Ba1 O6 2.790688 1_555
Ba1 O0 2.890297 1_655
Ba1 O0 2.890297 1_555
Ba1 O4 3.001611 1_555
Ba1 O4 3.001611 1_655
Ba1 O2 3.017982 1_555
Ba1 O2 3.017982 1_565
Cu0 O1 1.973251 1_555
Cu0 O1 1.973251 1_455
Cu0 O3 1.998954 1_555
Cu0 O3 1.998954 1_545
Cu0 O5 2.247248 1_555
Cu1 O2 1.973251 1_555
Cu1 O2 1.973251 1_455
Cu1 O4 1.998954 1_555
Cu1 O4 1.998954 1_545
Cu1 O6 2.247248 1_555
Cu2 O5 1.874812 1_554
Cu2 O6 1.874812 1_555
Cu2 O0 1.977840 1_545
Cu2 O0 1.977840 1_555
O1 Pr0 2.511034 1_545
O1 Pr0 2.511034 1_555
O2 Pr0 2.511034 1_545
O2 Pr0 2.511034 1_555
O3 Pr0 2.490272 1_555
O3 Pr0 2.490272 1_455
O4 Pr0 2.490272 1_555
O4 Pr0 2.490272 1_455
