# generated using pymatgen
data_Na18Ta8Zn16Si9(S3O16)9
_symmetry_space_group_name_H-M   'P 1'
_cell_length_a   17.70533123
_cell_length_b   8.89500389
_cell_length_c   22.58884168
_cell_angle_alpha   89.95233567
_cell_angle_beta   90.46062333
_cell_angle_gamma   120.07142126
_symmetry_Int_Tables_number   1
_chemical_formula_structural   Na18Ta8Zn16Si9(S3O16)9
_chemical_formula_sum   'Na18 Ta8 Zn16 Si9 S27 O144'
_cell_volume   3078.53990521
_cell_formula_units_Z   1
loop_
 _symmetry_equiv_pos_site_id
 _symmetry_equiv_pos_as_xyz
  1  'x, y, z'
loop_
 _atom_site_type_symbol
 _atom_site_label
 _atom_site_symmetry_multiplicity
 _atom_site_fract_x
 _atom_site_fract_y
 _atom_site_fract_z
 _atom_site_occupancy
  Na  Na0  1  0.35453685  0.03733592  0.90841811  1
  Na  Na1  1  0.84816051  0.03723912  0.90958420  1
  Na  Na2  1  0.66439941  0.28542773  0.90827166  1
  Na  Na3  1  0.16472588  0.04446663  0.41211314  1
  Na  Na4  1  0.34583566  0.65438055  0.42087088  1
  Na  Na5  1  0.85433225  0.67248792  0.41153003  1
  Na  Na6  1  0.00570770  0.02978398  0.49626456  1
  Na  Na7  1  0.50806242  0.01111667  0.49949661  1
  Na  Na8  1  0.00654812  0.00329622  0.99386100  1
  Na  Na9  1  0.50419915  0.98190094  0.99131241  1
  Na  Na10  1  0.32679000  0.33031044  0.82234456  1
  Na  Na11  1  0.82685594  0.31942245  0.82408590  1
  Na  Na12  1  0.32571580  0.32124863  0.32973421  1
  Na  Na13  1  0.82679569  0.32397224  0.32353592  1
  Na  Na14  1  0.16459141  0.67012996  0.16066340  1
  Na  Na15  1  0.67183751  0.67553552  0.15986091  1
  Na  Na16  1  0.16966329  0.66831135  0.66100832  1
  Na  Na17  1  0.66864436  0.66321674  0.66375178  1
  Ta  Ta0  1  0.99903199  0.00748306  0.65028024  1
  Ta  Ta1  1  0.49881957  0.00951801  0.65156206  1
  Ta  Ta2  1  0.99929982  0.98662466  0.14982138  1
  Ta  Ta3  1  0.50383410  0.99804111  0.14663950  1
  Ta  Ta4  1  0.16433818  0.66097038  0.31263106  1
  Ta  Ta5  1  0.66957017  0.67469597  0.30911935  1
  Ta  Ta6  1  0.16808268  0.66344300  0.80878544  1
  Ta  Ta7  1  0.67092504  0.67946004  0.80948414  1
  Zn  Zn0  1  0.00945039  0.01169728  0.34559647  1
  Zn  Zn1  1  0.50859653  0.01071152  0.34968832  1
  Zn  Zn2  1  0.00419926  0.01625056  0.84248107  1
  Zn  Zn3  1  0.50867008  0.00570973  0.84594846  1
  Zn  Zn4  1  0.32625126  0.31583337  0.68817872  1
  Zn  Zn5  1  0.82414968  0.31668670  0.68877074  1
  Zn  Zn6  1  0.32386441  0.31771957  0.18270042  1
  Zn  Zn7  1  0.82768481  0.33519880  0.18855804  1
  Zn  Zn8  1  0.33077133  0.33926313  0.98290071  1
  Zn  Zn9  1  0.83062347  0.31922250  0.97991164  1
  Zn  Zn10  1  0.32726669  0.33672015  0.48548884  1
  Zn  Zn11  1  0.82995343  0.32183139  0.48990447  1
  Zn  Zn12  1  0.16457291  0.66521368  0.01688719  1
  Zn  Zn13  1  0.66629208  0.67898586  0.01336490  1
  Zn  Zn14  1  0.16543944  0.65081102  0.51937978  1
  Zn  Zn15  1  0.66431049  0.66503260  0.51936615  1
  Si  Si0  1  0.15402652  0.00804544  0.25374743  1
  Si  Si1  1  0.64944341  0.00762966  0.25372864  1
  Si  Si2  1  0.85906218  0.70601150  0.25646388  1
  Si  Si3  1  0.15072250  0.29046757  0.75357093  1
  Si  Si4  1  0.65145254  0.30114726  0.75467819  1
  Si  Si5  1  0.35827420  0.01059045  0.75669700  1
  Si  Si6  1  0.85634982  0.01063448  0.75473436  1
  Si  Si7  1  0.66216377  0.95985903  0.92000076  1
  Si  Si8  1  0.16304889  0.36399494  0.41951813  1
  S  S0  1  0.35453920  0.71014648  0.25145313  1
  S  S1  1  0.00054492  0.29056848  0.24944801  1
  S  S2  1  0.49849993  0.28865130  0.25120149  1
  S  S3  1  0.99978029  0.71119820  0.75120689  1
  S  S4  1  0.49937249  0.70890257  0.74967244  1
  S  S5  1  0.47850711  0.33389135  0.58263825  1
  S  S6  1  0.97864792  0.33398753  0.58499688  1
  S  S7  1  0.18308965  0.02906999  0.58148886  1
  S  S8  1  0.68332487  0.03334216  0.58247386  1
  S  S9  1  0.33582744  0.63196845  0.58379450  1
  S  S10  1  0.83420470  0.62798091  0.58145930  1
  S  S11  1  0.47697287  0.61880102  0.08670351  1
  S  S12  1  0.97868419  0.62122271  0.08305047  1
  S  S13  1  0.33250998  0.03612843  0.08233848  1
  S  S14  1  0.83522008  0.04036627  0.08447585  1
  S  S15  1  0.18517012  0.33563620  0.08322231  1
  S  S16  1  0.68512886  0.33973443  0.08279401  1
  S  S17  1  0.30933149  0.65995553  0.91878698  1
  S  S18  1  0.81443087  0.66823326  0.91785343  1
  S  S19  1  0.02270712  0.37841513  0.91875744  1
  S  S20  1  0.51909212  0.38101098  0.91952361  1
  S  S21  1  0.16487001  0.95553053  0.91862314  1
  S  S22  1  0.31535019  0.95824396  0.41586762  1
  S  S23  1  0.80967852  0.96001075  0.41889096  1
  S  S24  1  0.66535207  0.37650676  0.41850515  1
  S  S25  1  0.01976046  0.65749876  0.41906565  1
  S  S26  1  0.52161991  0.66595407  0.41732310  1
  O  O0  1  0.11504517  0.02822690  0.31444874  1
  O  O1  1  0.60469724  0.03246942  0.30980216  1
  O  O2  1  0.40165264  0.78879132  0.30662889  1
  O  O3  1  0.90730906  0.79717197  0.31689449  1
  O  O4  1  0.48331040  0.18516628  0.30441638  1
  O  O5  1  0.98897040  0.19425499  0.30371353  1
  O  O6  1  0.11209546  0.17915487  0.81147299  1
  O  O7  1  0.61392224  0.19430300  0.81397397  1
  O  O8  1  0.48671274  0.78218147  0.80336969  1
  O  O9  1  0.98777471  0.78593007  0.80492728  1
  O  O10  1  0.40692364  0.01632582  0.81691205  1
  O  O11  1  0.90121999  0.01642169  0.81691353  1
  O  O12  1  0.40303354  0.96804605  0.69701541  1
  O  O13  1  0.90482402  0.97008369  0.69663863  1
  O  O14  1  0.08425666  0.19176108  0.69414758  1
  O  O15  1  0.58331802  0.19150610  0.69586444  1
  O  O16  1  0.01743700  0.82810331  0.69738584  1
  O  O17  1  0.51559683  0.82658868  0.69611031  1
  O  O18  1  0.39852314  0.82904037  0.19860278  1
  O  O19  1  0.90473324  0.83885072  0.19713900  1
  O  O20  1  0.01773684  0.20916466  0.19644277  1
  O  O21  1  0.51244306  0.20045271  0.19760024  1
  O  O22  1  0.08560220  0.97814910  0.19559405  1
  O  O23  1  0.58262772  0.97495553  0.19409967  1
  O  O24  1  0.43846906  0.35421324  0.63567774  1
  O  O25  1  0.93425308  0.34813972  0.63646676  1
  O  O26  1  0.23770104  0.11592274  0.63311469  1
  O  O27  1  0.73688333  0.11639651  0.63469331  1
  O  O28  1  0.32776451  0.52274104  0.63388971  1
  O  O29  1  0.82574512  0.52117717  0.63245695  1
  O  O30  1  0.43282711  0.51981270  0.13955026  1
  O  O31  1  0.93928810  0.52301930  0.13669953  1
  O  O32  1  0.32314843  0.12166929  0.13468707  1
  O  O33  1  0.82648033  0.13041358  0.13564843  1
  O  O34  1  0.23814296  0.36254295  0.13676341  1
  O  O35  1  0.73657692  0.35778897  0.13558052  1
  O  O36  1  0.22145656  0.30072264  0.02954476  1
  O  O37  1  0.71604636  0.30075833  0.02794490  1
  O  O38  1  0.42674964  0.55258863  0.03142141  1
  O  O39  1  0.92622463  0.54915988  0.02875421  1
  O  O40  1  0.34986433  0.13772348  0.02716387  1
  O  O41  1  0.84964269  0.13591531  0.02795424  1
  O  O42  1  0.21668853  0.12882318  0.52538768  1
  O  O43  1  0.71784991  0.13678971  0.52727457  1
  O  O44  1  0.34936138  0.56581714  0.52617911  1
  O  O45  1  0.84780993  0.55824052  0.52434964  1
  O  O46  1  0.42651928  0.30299299  0.52765571  1
  O  O47  1  0.92955587  0.30268517  0.52847034  1
  O  O48  1  0.26799244  0.68625941  0.97103076  1
  O  O49  1  0.77320952  0.69152602  0.97078784  1
  O  O50  1  0.07443730  0.46030385  0.97238373  1
  O  O51  1  0.57302185  0.45840285  0.97315237  1
  O  O52  1  0.15742004  0.85645561  0.97267010  1
  O  O53  1  0.65249392  0.85293011  0.97886111  1
  O  O54  1  0.27565760  0.85368077  0.46862011  1
  O  O55  1  0.76688616  0.84808272  0.47001573  1
  O  O56  1  0.15649592  0.46564424  0.47495642  1
  O  O57  1  0.65752503  0.46171868  0.47166925  1
  O  O58  1  0.07590182  0.68756905  0.47054804  1
  O  O59  1  0.57488742  0.69294283  0.47043635  1
  O  O60  1  0.06774738  0.64576972  0.36292337  1
  O  O61  1  0.56867735  0.65225589  0.36308683  1
  O  O62  1  0.25555971  0.86522289  0.36121267  1
  O  O63  1  0.75300926  0.86281604  0.36285568  1
  O  O64  1  0.17740915  0.49903817  0.35952833  1
  O  O65  1  0.67419901  0.48813067  0.36415859  1
  O  O66  1  0.06965774  0.48641197  0.86466695  1
  O  O67  1  0.56425327  0.48546199  0.86532573  1
  O  O68  1  0.17558500  0.86152905  0.86517849  1
  O  O69  1  0.67573875  0.85246794  0.86168869  1
  O  O70  1  0.25306227  0.64358578  0.86371150  1
  O  O71  1  0.75594231  0.64389111  0.86321806  1
  O  O72  1  0.00886333  0.81084532  0.41334471  1
  O  O73  1  0.50644783  0.81645654  0.41218113  1
  O  O74  1  0.40073098  0.96795059  0.40686008  1
  O  O75  1  0.89539560  0.97461352  0.41245143  1
  O  O76  1  0.07894368  0.17145642  0.41301083  1
  O  O77  1  0.58672101  0.20323657  0.41341695  1
  O  O78  1  0.01038617  0.20110341  0.91506808  1
  O  O79  1  0.50683501  0.20325033  0.91561957  1
  O  O80  1  0.08725442  0.97278626  0.91255235  1
  O  O81  1  0.57882009  0.98657447  0.91258596  1
  O  O82  1  0.39536777  0.81573091  0.91287088  1
  O  O83  1  0.90101411  0.82460638  0.91169066  1
  O  O84  1  0.48722790  0.16657858  0.58925166  1
  O  O85  1  0.98776186  0.16703413  0.59070256  1
  O  O86  1  0.09242128  0.01029945  0.58959230  1
  O  O87  1  0.59262599  0.01371685  0.58953583  1
  O  O88  1  0.41855911  0.81173458  0.59030623  1
  O  O89  1  0.91643486  0.80854075  0.58854795  1
  O  O90  1  0.48471694  0.80507020  0.09359671  1
  O  O91  1  0.98754173  0.80734421  0.09003628  1
  O  O92  1  0.41396346  0.01692132  0.09258241  1
  O  O93  1  0.91906957  0.02726846  0.09228804  1
  O  O94  1  0.09470928  0.17318340  0.09095421  1
  O  O95  1  0.59116606  0.17139287  0.09246319  1
  O  O96  1  0.34627848  0.17248928  0.74466306  1
  O  O97  1  0.84770012  0.17617416  0.74336987  1
  O  O98  1  0.24865192  0.34382043  0.74124186  1
  O  O99  1  0.74816817  0.34469169  0.74203468  1
  O  O100  1  0.42742591  0.53635488  0.73834265  1
  O  O101  1  0.92863159  0.53849993  0.73960563  1
  O  O102  1  0.34517334  0.54015335  0.24202805  1
  O  O103  1  0.84620959  0.51925522  0.24480197  1
  O  O104  1  0.42798468  0.32372327  0.24026335  1
  O  O105  1  0.92901870  0.32216947  0.23948680  1
  O  O106  1  0.24956079  0.17016389  0.24364310  1
  O  O107  1  0.74663793  0.15444884  0.24250055  1
  O  O108  1  0.31330093  0.49808360  0.91999003  1
  O  O109  1  0.81820022  0.50590486  0.91959653  1
  O  O110  1  0.43062629  0.36490298  0.92195858  1
  O  O111  1  0.93625833  0.36761496  0.91889936  1
  O  O112  1  0.24866051  0.12722326  0.92005812  1
  O  O113  1  0.75463255  0.15057304  0.91827433  1
  O  O114  1  0.32116868  0.12903937  0.41694105  1
  O  O115  1  0.81337941  0.12909422  0.41982589  1
  O  O116  1  0.25526256  0.35632187  0.41856181  1
  O  O117  1  0.74794829  0.36948130  0.41922016  1
  O  O118  1  0.43561676  0.50400420  0.41818136  1
  O  O119  1  0.93351607  0.49674323  0.41922514  1
  O  O120  1  0.17240254  0.48739057  0.07745304  1
  O  O121  1  0.66870504  0.48580834  0.07784346  1
  O  O122  1  0.06963699  0.65660212  0.07817380  1
  O  O123  1  0.56636523  0.65064466  0.08441103  1
  O  O124  1  0.25687993  0.85780920  0.07783651  1
  O  O125  1  0.76112511  0.85951870  0.08155785  1
  O  O126  1  0.17076983  0.85174859  0.57631215  1
  O  O127  1  0.67143279  0.85633419  0.57704581  1
  O  O128  1  0.26070049  0.66224070  0.58126331  1
  O  O129  1  0.75803693  0.65539810  0.57721708  1
  O  O130  1  0.06814715  0.48381762  0.58240128  1
  O  O131  1  0.56935565  0.48153818  0.57759109  1
  O  O132  1  0.15522966  0.81919981  0.25672826  1
  O  O133  1  0.64661590  0.81411521  0.25791048  1
  O  O134  1  0.26505916  0.69649613  0.25351950  1
  O  O135  1  0.75851492  0.68998970  0.26011772  1
  O  O136  1  0.08499849  0.47065359  0.25434042  1
  O  O137  1  0.58393596  0.46094734  0.25664604  1
  O  O138  1  0.14690040  0.47790893  0.75893479  1
  O  O139  1  0.64618869  0.48355521  0.75874031  1
  O  O140  1  0.08460985  0.70394327  0.75676914  1
  O  O141  1  0.58357317  0.70174313  0.75363188  1
  O  O142  1  0.25827018  0.82599591  0.76060071  1
  O  O143  1  0.75841178  0.82528094  0.75569114  1
loop_
_geom_bond_atom_site_label_1
_geom_bond_atom_site_label_2
_geom_bond_distance
_geom_bond_site_symmetry_2
Na0 O10 2.317966 1_555
Na0 O79 2.341107 1_555
Na0 O112 2.394320 1_555
Na0 O82 2.417616 1_545
Na0 O110 2.541505 1_555
Na0 O40 2.842653 1_556
Na0 O68 2.902687 1_545
Na1 O113 2.339975 1_555
Na1 O11 2.346364 1_555
Na1 O78 2.487720 1_655
Na1 O83 2.495621 1_545
Na1 O111 2.552501 1_555
Na1 O41 2.810732 1_556
Na1 O69 2.848313 1_545
Na2 O7 2.288939 1_555
Na2 O81 2.310257 1_545
Na2 O113 2.440604 1_555
Na2 O109 2.442232 1_555
Na2 O79 2.511592 1_555
Na2 O37 2.828143 1_556
Na2 O71 2.944734 1_555
Na3 O76 2.302813 1_555
Na3 O0 2.345969 1_555
Na3 O116 2.413775 1_555
Na3 O114 2.481346 1_555
Na3 O72 2.487698 1_545
Na3 O42 2.688890 1_555
Na4 O116 2.311168 1_555
Na4 O73 2.470529 1_555
Na4 O74 2.472082 1_555
Na4 O44 2.515334 1_555
Na4 O118 2.540124 1_555
Na4 O2 2.813773 1_555
Na4 O54 2.842919 1_555
Na4 O64 2.920495 1_555
Na5 O72 2.371902 1_655
Na5 O3 2.380207 1_555
Na5 O117 2.399832 1_555
Na5 O75 2.406858 1_555
Na5 O119 2.575170 1_555
Na5 O45 2.724619 1_555
Na6 O76 2.281179 1_555
Na6 O85 2.558538 1_455
Na6 O75 2.573206 1_445
Na6 O86 2.654343 1_555
Na6 O72 2.724130 1_545
Na6 O89 2.765050 1_445
Na7 O77 2.508720 1_555
Na7 O87 2.509045 1_555
Na7 O84 2.585885 1_555
Na7 O73 2.616157 1_545
Na7 O88 2.663459 1_545
Na7 O74 2.709918 1_545
Na8 O80 2.433208 1_545
Na8 O78 2.478949 1_555
Na8 O83 2.536877 1_445
Na8 O94 2.667746 1_556
Na8 O91 2.699745 1_446
Na8 O93 2.788332 1_456
Na9 O81 2.211870 1_555
Na9 O82 2.476388 1_555
Na9 O79 2.589560 1_565
Na9 O90 2.719265 1_556
Na9 O95 2.789534 1_566
Na9 O92 2.905377 1_566
Na10 O98 2.325979 1_555
Na10 O96 2.380784 1_555
Na10 O100 2.628738 1_555
Na10 O108 2.742328 1_555
Na10 O112 2.754434 1_555
Na10 O110 2.811684 1_555
Na11 O97 2.360100 1_555
Na11 O99 2.387126 1_555
Na11 O113 2.555653 1_555
Na11 O101 2.686298 1_555
Na11 O111 2.761419 1_555
Na11 O109 2.774113 1_555
Na12 O106 2.356310 1_555
Na12 O116 2.471985 1_555
Na12 O114 2.582456 1_555
Na12 O102 2.677217 1_555
Na12 O118 2.682062 1_555
Na12 O104 2.717089 1_555
Na13 O107 2.335988 1_555
Na13 O103 2.388491 1_555
Na13 O105 2.639115 1_555
Na13 O115 2.716909 1_555
Na13 O117 2.720418 1_555
Na13 O119 2.762957 1_555
Na14 O122 2.461754 1_555
Na14 O124 2.503525 1_555
Na14 O120 2.535510 1_555
Na14 O132 2.593336 1_555
Na14 O134 2.672356 1_555
Na14 O136 2.673527 1_555
Na15 O125 2.398617 1_555
Na15 O123 2.444609 1_555
Na15 O121 2.488638 1_555
Na15 O133 2.682615 1_555
Na15 O135 2.692091 1_555
Na15 O137 2.813534 1_555
Na16 O128 2.445379 1_555
Na16 O130 2.464575 1_555
Na16 O126 2.507271 1_555
Na16 O142 2.689396 1_555
Na16 O138 2.692213 1_555
Na16 O140 2.753023 1_555
Na17 O129 2.547756 1_555
Na17 O143 2.563803 1_555
Na17 O131 2.567700 1_555
Na17 O139 2.585957 1_555
Na17 O127 2.588482 1_555
Na17 O141 2.660036 1_555
O0 Si0 1.590118 1_555
O0 Zn0 1.938434 1_555
O1 Si1 1.572534 1_555
O1 Zn1 1.854361 1_555
O2 S0 1.462372 1_555
O2 Zn1 2.157720 1_565
O3 Si2 1.593590 1_555
O3 Zn0 1.963910 1_665
O4 S2 1.455977 1_555
O4 Zn1 2.083378 1_555
O5 S1 1.450816 1_655
O5 Zn0 2.060454 1_655
O6 Si3 1.578733 1_555
O6 Zn2 1.866925 1_555
O7 Si4 1.586863 1_555
O7 Zn3 1.922309 1_555
O8 S4 1.448612 1_555
O8 Zn3 2.062041 1_565
O9 S3 1.451445 1_555
O9 Zn2 2.098386 1_665
O10 Si5 1.591190 1_555
O10 Zn3 1.958504 1_555
O11 Si6 1.596170 1_555
O11 Zn2 1.908864 1_655
O12 Si5 1.705076 1_565
O12 Ta1 1.861943 1_565
O13 Si6 1.708218 1_565
O13 Ta0 1.860336 1_565
O14 Si3 1.702534 1_555
O14 Ta0 1.856222 1_455
O15 Si4 1.723006 1_555
O15 Ta1 1.847093 1_555
O16 S3 1.528184 1_455
O16 Ta0 2.072914 1_465
O17 S4 1.531125 1_555
O17 Ta1 2.055568 1_565
O18 S0 1.528924 1_555
O18 Ta3 2.082657 1_555
O19 Si2 1.703857 1_555
O19 Ta2 1.869350 1_555
O20 S1 1.509546 1_555
O20 Ta2 2.117640 1_445
O21 S2 1.530659 1_555
O21 Ta3 2.077401 1_545
O22 Si0 1.707663 1_565
O22 Ta2 1.870688 1_455
O23 Si1 1.711340 1_565
O23 Ta3 1.844015 1_555
O24 S5 1.453642 1_555
O24 Zn4 2.197279 1_555
O25 S6 1.448974 1_555
O25 Zn5 2.182732 1_555
O26 S7 1.458243 1_555
O26 Zn4 2.084607 1_555
O27 S8 1.455266 1_555
O27 Zn5 2.065945 1_555
O28 S9 1.451418 1_555
O28 Zn4 2.199815 1_555
O29 S10 1.452714 1_555
O29 Zn5 2.207427 1_555
O30 S11 1.461093 1_555
O30 Zn6 2.110740 1_555
O31 S12 1.455822 1_555
O31 Zn7 2.189400 1_555
O32 S13 1.461420 1_555
O32 Zn6 2.048973 1_555
O33 S14 1.459554 1_555
O33 Zn7 2.170544 1_555
O34 S15 1.468656 1_555
O34 Zn6 2.029686 1_555
O35 S16 1.453814 1_555
O35 Zn7 2.089962 1_555
O36 S15 1.480708 1_555
O36 Zn8 2.083483 1_554
O37 S16 1.468579 1_555
O37 Zn9 2.240703 1_554
O38 S11 1.468165 1_555
O38 Zn8 2.105146 1_554
O39 S12 1.471119 1_555
O39 Zn9 2.183997 1_554
O40 S13 1.480006 1_555
O40 Zn8 2.219606 1_554
O41 S14 1.484453 1_555
O41 Zn9 2.119229 1_554
O42 S7 1.492787 1_555
O42 Zn10 2.112428 1_555
O43 S8 1.490554 1_555
O43 Zn11 2.027789 1_555
O44 S9 1.498351 1_555
O44 Zn10 2.085425 1_555
O45 S10 1.504372 1_555
O45 Zn11 2.111843 1_555
O46 S5 1.481213 1_555
O46 Zn10 2.141567 1_555
O47 S6 1.484461 1_555
O47 Zn11 2.043004 1_555
O48 S17 1.472793 1_555
O48 Zn12 2.036544 1_556
O49 S18 1.473546 1_555
O49 Zn13 2.082883 1_556
O50 S19 1.466925 1_555
O50 Zn12 1.985390 1_556
O51 S20 1.475532 1_555
O51 Zn13 2.033138 1_556
O52 S21 1.472698 1_555
O52 Zn12 2.029393 1_556
O53 Si7 1.593779 1_555
O53 Zn13 1.853327 1_556
O54 S22 1.461327 1_555
O54 Zn14 2.209674 1_555
O55 S23 1.468040 1_555
O55 Zn15 2.063555 1_555
O56 Si8 1.583843 1_555
O56 Zn14 1.866456 1_555
O57 S24 1.464705 1_555
O57 Zn15 2.056521 1_555
O58 S25 1.458585 1_555
O58 Zn14 2.080269 1_555
O59 S26 1.463534 1_555
O59 Zn15 2.038455 1_555
O60 S25 1.564425 1_555
O60 Ta4 2.008188 1_555
O61 S26 1.525899 1_555
O61 Ta5 2.096246 1_555
O62 S22 1.559608 1_555
O62 Ta4 2.036624 1_555
O63 S23 1.571119 1_555
O63 Ta5 1.988235 1_555
O64 Si8 1.743734 1_555
O64 Ta4 1.891584 1_555
O65 S24 1.537090 1_555
O65 Ta5 2.106563 1_555
O66 S19 1.523429 1_555
O66 Ta6 2.095680 1_555
O67 S20 1.506897 1_555
O67 Ta7 2.214599 1_555
O68 S21 1.535225 1_555
O68 Ta6 2.123999 1_555
O69 Si7 1.715387 1_555
O69 Ta7 1.906847 1_555
O70 S17 1.548065 1_555
O70 Ta6 2.017504 1_555
O71 S18 1.548412 1_555
O71 Ta7 2.070371 1_555
O72 S25 1.475640 1_555
O72 Zn0 2.347563 1_565
O73 S26 1.495812 1_555
O73 Zn1 2.216018 1_565
O74 S22 1.485998 1_555
O74 Zn1 2.184189 1_565
O75 S23 1.465351 1_555
O75 Zn0 2.418260 1_665
O76 Si8 1.616558 1_555
O76 Zn0 2.018286 1_555
O77 S24 1.474521 1_555
O77 Zn1 2.125207 1_555
O78 S19 1.482290 1_555
O78 Zn2 2.285865 1_555
O79 S20 1.486960 1_555
O79 Zn3 2.372339 1_555
O80 S21 1.462578 1_555
O80 Zn2 2.312694 1_565
O81 Si7 1.615356 1_555
O81 Zn3 2.004695 1_565
O82 S17 1.464904 1_555
O82 Zn3 2.410884 1_565
O83 S18 1.473212 1_555
O83 Zn2 2.368151 1_665
O84 S5 1.578159 1_555
O84 Ta1 2.062625 1_555
O85 S6 1.577190 1_555
O85 Ta0 2.035049 1_555
O86 S7 1.540935 1_555
O86 Ta0 2.146815 1_455
O87 S8 1.535521 1_555
O87 Ta1 2.167520 1_555
O88 S9 1.540700 1_555
O88 Ta1 2.120396 1_565
O89 S10 1.542120 1_555
O89 Ta0 2.143008 1_565
O90 S11 1.600209 1_555
O90 Ta3 1.977661 1_555
O91 S12 1.590657 1_555
O91 Ta2 2.019048 1_555
O92 S13 1.550500 1_555
O92 Ta3 2.070594 1_545
O93 S14 1.554924 1_555
O93 Ta2 2.078873 1_545
O94 S15 1.538998 1_555
O94 Ta2 2.144462 1_445
O95 S16 1.601999 1_555
O95 Ta3 1.975866 1_545
O96 Si5 1.580444 1_555
O96 Zn4 1.955134 1_555
O97 Si6 1.575522 1_555
O97 Zn5 1.941278 1_555
O98 Si3 1.578612 1_555
O98 Zn4 1.938067 1_555
O99 Si4 1.583300 1_555
O99 Zn5 1.918803 1_555
O100 S4 1.442186 1_555
O100 Zn4 2.188660 1_555
O101 S3 1.439232 1_555
O101 Zn5 2.223821 1_555
O102 S0 1.451869 1_555
O102 Zn6 2.258579 1_555
O103 Si2 1.581671 1_555
O103 Zn7 1.964867 1_555
O104 S2 1.449949 1_555
O104 Zn6 2.225967 1_555
O105 S1 1.444110 1_655
O105 Zn7 2.175052 1_555
O106 Si0 1.598084 1_555
O106 Zn6 1.908976 1_555
O107 Si1 1.576534 1_555
O107 Zn7 1.959992 1_555
O108 S17 1.476538 1_555
O108 Zn8 2.130353 1_555
O109 S18 1.478959 1_555
O109 Zn9 2.240423 1_555
O110 S20 1.501122 1_555
O110 Zn8 2.169632 1_555
O111 S19 1.484826 1_655
O111 Zn9 2.194626 1_555
O112 S21 1.504343 1_545
O112 Zn8 2.215702 1_555
O113 Si7 1.666518 1_545
O113 Zn9 1.987416 1_555
O114 S22 1.470518 1_545
O114 Zn10 2.371504 1_555
O115 S23 1.472419 1_545
O115 Zn11 2.241431 1_555
O116 Si8 1.668230 1_555
O116 Zn10 2.032866 1_555
O117 S24 1.494645 1_555
O117 Zn11 2.327110 1_555
O118 S26 1.482012 1_555
O118 Zn10 2.321279 1_555
O119 S25 1.479280 1_655
O119 Zn11 2.348566 1_555
O120 S15 1.481630 1_555
O120 Zn12 2.146144 1_555
O121 S16 1.470782 1_555
O121 Zn13 2.268086 1_555
O122 S12 1.483010 1_455
O122 Zn12 2.157765 1_555
O123 S11 1.462853 1_555
O123 Zn13 2.316743 1_555
O124 S13 1.479471 1_565
O124 Zn12 2.159456 1_555
O125 S14 1.482222 1_565
O125 Zn13 2.243031 1_555
O126 S7 1.484640 1_565
O126 Zn14 2.165689 1_555
O127 S8 1.485278 1_565
O127 Zn15 2.096434 1_555
O128 S9 1.484171 1_555
O128 Zn14 2.144667 1_555
O129 S10 1.488218 1_555
O129 Zn15 2.139229 1_555
O130 S6 1.474978 1_455
O130 Zn14 2.161477 1_555
O131 S5 1.486859 1_555
O131 Zn15 2.121872 1_555
O132 Si0 1.691835 1_565
O132 Ta4 1.955192 1_555
O133 Si1 1.699350 1_565
O133 Ta5 1.880511 1_555
O134 S0 1.528151 1_555
O134 Ta4 2.129736 1_555
O135 Si2 1.715926 1_555
O135 Ta5 1.880632 1_555
O136 S1 1.552824 1_555
O136 Ta4 2.040499 1_555
O137 S2 1.525164 1_555
O137 Ta5 2.098718 1_555
O138 Si3 1.706652 1_555
O138 Ta6 1.873043 1_555
O139 Si4 1.673799 1_555
O139 Ta7 1.942337 1_555
O140 S3 1.539431 1_455
O140 Ta6 2.049280 1_555
O141 S4 1.525625 1_555
O141 Ta7 2.073256 1_555
O142 Si5 1.711022 1_565
O142 Ta6 1.880594 1_555
O143 Si6 1.691461 1_565
O143 Ta7 1.890087 1_555
