# generated using pymatgen
data_Ba2Ta15O32
_symmetry_space_group_name_H-M   'P 1'
_cell_length_a   12.71092960
_cell_length_b   12.71092961
_cell_length_c   12.71092891
_cell_angle_alpha   35.78676116
_cell_angle_beta   35.78676115
_cell_angle_gamma   35.78675882
_symmetry_Int_Tables_number   1
_chemical_formula_structural   Ba2Ta15O32
_chemical_formula_sum   'Ba2 Ta15 O32'
_cell_volume   627.89291266
_cell_formula_units_Z   1
loop_
 _symmetry_equiv_pos_site_id
 _symmetry_equiv_pos_as_xyz
  1  'x, y, z'
loop_
 _atom_site_type_symbol
 _atom_site_label
 _atom_site_symmetry_multiplicity
 _atom_site_fract_x
 _atom_site_fract_y
 _atom_site_fract_z
 _atom_site_occupancy
  Ba  Ba0  1  0.36048308  0.36048308  0.36048308  1
  Ba  Ba1  1  0.63951692  0.63951692  0.63951692  1
  Ta  Ta0  1  0.55581606  0.31768689  0.72345033  1
  Ta  Ta1  1  0.27654967  0.44418394  0.68231311  1
  Ta  Ta2  1  0.68231311  0.27654967  0.44418394  1
  Ta  Ta3  1  0.44418394  0.68231311  0.27654967  1
  Ta  Ta4  1  0.86106391  0.86106391  0.86106391  1
  Ta  Ta5  1  0.13893609  0.13893609  0.13893609  1
  Ta  Ta6  1  0.92698091  0.80578327  0.47045774  1
  Ta  Ta7  1  0.47045774  0.92698091  0.80578327  1
  Ta  Ta8  1  0.80578327  0.47045774  0.92698091  1
  Ta  Ta9  1  0.07301909  0.19421673  0.52954226  1
  Ta  Ta10  1  0.52954226  0.07301909  0.19421673  1
  Ta  Ta11  1  0.19421673  0.52954226  0.07301909  1
  Ta  Ta12  1  -0.00000000  0.00000000  0.00000000  1
  Ta  Ta13  1  0.31768689  0.72345033  0.55581606  1
  Ta  Ta14  1  0.72345033  0.55581606  0.31768689  1
  O  O0  1  0.95756020  0.18284447  0.76439899  1
  O  O1  1  0.76439899  0.95756020  0.18284447  1
  O  O2  1  0.18284447  0.76439899  0.95756020  1
  O  O3  1  0.04243980  0.81715553  0.23560101  1
  O  O4  1  0.23560101  0.04243980  0.81715553  1
  O  O5  1  0.81715553  0.23560101  0.04243980  1
  O  O6  1  0.46767865  0.35192311  0.05906726  1
  O  O7  1  0.05906726  0.46767865  0.35192311  1
  O  O8  1  0.35192311  0.05906726  0.46767865  1
  O  O9  1  0.53232135  0.64807689  0.94093274  1
  O  O10  1  0.94093274  0.53232135  0.64807689  1
  O  O11  1  0.64807689  0.94093274  0.53232135  1
  O  O12  1  0.07257685  0.95511204  0.65981619  1
  O  O13  1  0.65981619  0.07257685  0.95511204  1
  O  O14  1  0.95511204  0.65981619  0.07257685  1
  O  O15  1  0.92742315  0.04488796  0.34018381  1
  O  O16  1  0.34018381  0.92742315  0.04488796  1
  O  O17  1  0.53887929  0.80399557  0.36276226  1
  O  O18  1  0.80399557  0.36276226  0.53887929  1
  O  O19  1  0.36276226  0.53887929  0.80399557  1
  O  O20  1  0.46112071  0.19600443  0.63723774  1
  O  O21  1  0.19600443  0.63723774  0.46112071  1
  O  O22  1  0.63723774  0.46112071  0.19600443  1
  O  O23  1  0.76126827  0.07130204  0.66692872  1
  O  O24  1  0.07130204  0.66692872  0.76126827  1
  O  O25  1  0.66692872  0.76126827  0.07130204  1
  O  O26  1  0.23873173  0.92869796  0.33307128  1
  O  O27  1  0.92869796  0.33307128  0.23873173  1
  O  O28  1  0.33307128  0.23873173  0.92869796  1
  O  O29  1  0.23762431  0.23762431  0.23762431  1
  O  O30  1  0.76237569  0.76237569  0.76237569  1
  O  O31  1  0.04488796  0.34018381  0.92742315  1
loop_
_geom_bond_atom_site_label_1
_geom_bond_atom_site_label_2
_geom_bond_distance
_geom_bond_site_symmetry_2
Ba0 O6 2.917775 1_555
Ba0 O7 2.917775 1_555
Ba0 O8 2.917776 1_555
Ba0 O11 3.000271 1_545
Ba0 O10 3.000271 1_455
Ba0 O9 3.000271 1_554
Ba0 O20 3.067897 1_555
Ba0 O21 3.067897 1_555
Ba0 O22 3.067897 1_555
Ba0 O3 3.153993 1_555
Ba0 O5 3.153993 1_555
Ba0 O4 3.153993 1_555
Ba1 O9 2.917775 1_555
Ba1 O10 2.917775 1_555
Ba1 O11 2.917776 1_555
Ba1 O8 3.000271 1_565
Ba1 O7 3.000271 1_655
Ba1 O6 3.000271 1_556
Ba1 O17 3.067897 1_555
Ba1 O18 3.067897 1_555
Ba1 O19 3.067897 1_555
Ba1 O0 3.153993 1_555
Ba1 O2 3.153993 1_555
Ba1 O1 3.153993 1_555
O0 Ta9 1.903307 1_655
O0 Ta12 1.988900 1_656
O1 Ta10 1.903307 1_565
O1 Ta12 1.988900 1_665
O2 Ta11 1.903307 1_556
O2 Ta12 1.988900 1_566
O3 Ta6 1.903307 1_455
O3 Ta12 1.988900 1_565
O4 Ta7 1.903307 1_545
O4 Ta12 1.988900 1_556
O5 Ta8 1.903307 1_554
O5 Ta12 1.988900 1_655
O6 Ta10 1.981333 1_555
O6 Ta11 2.031840 1_555
O7 Ta11 1.981333 1_555
O7 Ta9 2.031840 1_555
O8 Ta9 1.981333 1_555
O8 Ta10 2.031840 1_555
O9 Ta7 1.981333 1_555
O9 Ta8 2.031840 1_555
O10 Ta8 1.981333 1_555
O10 Ta6 2.031840 1_555
O11 Ta6 1.981333 1_555
O11 Ta7 2.031840 1_555
O12 Ta9 1.956178 1_565
O12 Ta4 2.072697 1_455
O12 Ta13 2.207789 1_555
O13 Ta10 1.956178 1_556
O13 Ta4 2.072697 1_545
O13 Ta0 2.207789 1_555
O14 Ta11 1.956178 1_655
O14 Ta4 2.072697 1_554
O14 Ta14 2.207790 1_555
O15 Ta6 1.956178 1_545
O15 Ta5 2.072697 1_655
O15 Ta2 2.207789 1_555
O16 Ta7 1.956178 1_554
O16 Ta5 2.072697 1_565
O16 Ta3 2.207789 1_555
O17 Ta10 2.040982 1_565
O17 Ta13 2.091740 1_555
O17 Ta14 2.127942 1_555
O18 Ta9 2.040982 1_655
O18 Ta14 2.091739 1_555
O18 Ta0 2.127942 1_555
O19 Ta11 2.040982 1_556
O19 Ta0 2.091739 1_555
O19 Ta13 2.127942 1_555
O20 Ta7 2.040982 1_545
O20 Ta2 2.091740 1_555
O20 Ta1 2.127942 1_555
O21 Ta6 2.040982 1_455
O21 Ta1 2.091739 1_555
O21 Ta3 2.127942 1_555
O22 Ta8 2.040982 1_554
O22 Ta3 2.091739 1_555
O22 Ta2 2.127942 1_555
O23 Ta4 1.928670 1_545
O23 Ta2 2.051331 1_555
O23 Ta0 2.116973 1_555
O24 Ta4 1.928670 1_455
O24 Ta1 2.051331 1_555
O24 Ta13 2.116973 1_555
O25 Ta4 1.928670 1_554
O25 Ta3 2.051331 1_555
O25 Ta14 2.116973 1_555
O26 Ta5 1.928670 1_565
O26 Ta13 2.051331 1_555
O26 Ta3 2.116973 1_555
O27 Ta5 1.928670 1_655
O27 Ta14 2.051331 1_555
O27 Ta2 2.116973 1_555
O28 Ta5 1.928670 1_556
O28 Ta0 2.051331 1_555
O28 Ta1 2.116973 1_555
O29 Ta9 2.099077 1_555
O29 Ta10 2.099077 1_555
O29 Ta11 2.099077 1_555
O30 Ta6 2.099077 1_555
O30 Ta7 2.099077 1_555
O30 Ta8 2.099077 1_555
O31 Ta8 1.956178 1_455
O31 Ta5 2.072697 1_556
O31 Ta1 2.207790 1_555
