# generated using pymatgen
data_Na5ZnSiSn3P5O24
_symmetry_space_group_name_H-M   'P 1'
_cell_length_a   8.96099501
_cell_length_b   8.95531047
_cell_length_c   22.43308197
_cell_angle_alpha   90.01883458
_cell_angle_beta   89.96850379
_cell_angle_gamma   119.93462338
_symmetry_Int_Tables_number   1
_chemical_formula_structural   Na5ZnSiSn3P5O24
_chemical_formula_sum   'Na15 Zn3 Si3 Sn9 P15 O72'
_cell_volume   1560.06293249
_cell_formula_units_Z   3
loop_
 _symmetry_equiv_pos_site_id
 _symmetry_equiv_pos_as_xyz
  1  'x, y, z'
loop_
 _atom_site_type_symbol
 _atom_site_label
 _atom_site_symmetry_multiplicity
 _atom_site_fract_x
 _atom_site_fract_y
 _atom_site_fract_z
 _atom_site_occupancy
  Na  Na0  1  0.64100125  0.01308712  0.24295131  1
  Na  Na1  1  0.37320815  0.35983377  0.24297991  1
  Na  Na2  1  0.98783527  0.62908604  0.24367585  1
  Na  Na3  1  0.63380028  0.62116900  0.74790282  1
  Na  Na4  1  0.98833081  0.36551461  0.74812943  1
  Na  Na5  1  0.38022838  0.01354658  0.74333478  1
  Na  Na6  1  0.66214527  0.97538985  0.58345526  1
  Na  Na7  1  0.33147067  0.30607991  0.92425167  1
  Na  Na8  1  0.32445392  0.03220633  0.41433118  1
  Na  Na9  1  0.00143122  0.00057232  0.49359013  1
  Na  Na10  1  0.98151231  0.98863784  0.00197317  1
  Na  Na11  1  0.68019524  0.33868063  0.83779572  1
  Na  Na12  1  0.67782738  0.34384850  0.33007143  1
  Na  Na13  1  0.33352190  0.66713363  0.16061596  1
  Na  Na14  1  0.32206987  0.66093877  0.66167137  1
  Zn  Zn0  1  0.99162503  0.99885393  0.35166964  1
  Zn  Zn1  1  0.66254258  0.33061503  0.67483637  1
  Zn  Zn2  1  0.67021798  0.33489035  0.17495120  1
  Si  Si0  1  0.37012128  0.03764579  0.58341965  1
  Si  Si1  1  0.62813197  0.66574932  0.91781374  1
  Si  Si2  1  0.03569221  0.37407078  0.91627569  1
  Sn  Sn0  1  0.99431697  0.99550282  0.85657401  1
  Sn  Sn1  1  0.00627995  0.99972653  0.64482813  1
  Sn  Sn2  1  0.99947250  0.00091201  0.14659336  1
  Sn  Sn3  1  0.67465267  0.33710555  0.98386677  1
  Sn  Sn4  1  0.66812799  0.33791041  0.48270700  1
  Sn  Sn5  1  0.33456433  0.66581915  0.01978722  1
  Sn  Sn6  1  0.32934185  0.66228586  0.51848720  1
  Sn  Sn7  1  0.33219353  0.66438452  0.31752940  1
  Sn  Sn8  1  0.33204965  0.66524899  0.82017447  1
  P  P0  1  0.29171347  0.99860345  0.25351982  1
  P  P1  1  0.70810025  0.70883549  0.25184368  1
  P  P2  1  0.00156381  0.29269767  0.25179028  1
  P  P3  1  0.28959636  0.29273918  0.75127823  1
  P  P4  1  0.00388434  0.70983295  0.75076706  1
  P  P5  1  0.70719167  0.99797551  0.74957703  1
  P  P6  1  0.96166747  0.33569299  0.58603273  1
  P  P7  1  0.66598962  0.62730713  0.58568681  1
  P  P8  1  0.96554960  0.63174422  0.08598927  1
  P  P9  1  0.66503039  0.03671374  0.08594694  1
  P  P10  1  0.37050813  0.33221393  0.08523677  1
  P  P11  1  0.33586309  0.96041691  0.91696376  1
  P  P12  1  0.63141098  0.96356732  0.41801973  1
  P  P13  1  0.33550771  0.37220793  0.41687735  1
  P  P14  1  0.03454846  0.66306131  0.41660410  1
  O  O0  1  0.21538860  0.02510335  0.31076720  1
  O  O1  1  0.81996829  0.78774816  0.30659693  1
  O  O2  1  0.97174886  0.18204682  0.30663594  1
  O  O3  1  0.20863855  0.18097326  0.80766047  1
  O  O4  1  0.97358663  0.79478811  0.80563503  1
  O  O5  1  0.82566373  0.02640137  0.80313604  1
  O  O6  1  0.78339942  0.96165915  0.69193772  1
  O  O7  1  0.16798104  0.20945399  0.69675800  1
  O  O8  1  0.04079166  0.82677625  0.69503626  1
  O  O9  1  0.78369081  0.82735837  0.19554915  1
  O  O10  1  0.04323183  0.21687264  0.19521997  1
  O  O11  1  0.16992724  0.95920276  0.19859712  1
  O  O12  1  0.89139779  0.36479514  0.64426423  1
  O  O13  1  0.48395236  0.11081101  0.64344333  1
  O  O14  1  0.64449338  0.53173094  0.64421566  1
  O  O15  1  0.89050442  0.53334758  0.14401492  1
  O  O16  1  0.64551649  0.11331784  0.14431781  1
  O  O17  1  0.47049482  0.35151078  0.14243706  1
  O  O18  1  0.45382604  0.30816522  0.02734075  1
  O  O19  1  0.85240347  0.54625013  0.03041089  1
  O  O20  1  0.68993080  0.14915739  0.03028925  1
  O  O21  1  0.45873914  0.15131223  0.52293476  1
  O  O22  1  0.69979730  0.54679973  0.53025124  1
  O  O23  1  0.84290931  0.30207506  0.53129926  1
  O  O24  1  0.53695294  0.70317187  0.97268675  1
  O  O25  1  0.17045821  0.46545996  0.97014866  1
  O  O26  1  0.30177777  0.84144745  0.96957052  1
  O  O27  1  0.54178296  0.85480604  0.47452977  1
  O  O28  1  0.31414731  0.46431161  0.47142518  1
  O  O29  1  0.15651723  0.69222516  0.46979044  1
  O  O30  1  0.11189434  0.63173645  0.35804094  1
  O  O31  1  0.51042270  0.88150475  0.36199380  1
  O  O32  1  0.36355402  0.47904632  0.35848915  1
  O  O33  1  0.10828809  0.48051327  0.85246462  1
  O  O34  1  0.36595737  0.88972874  0.85657701  1
  O  O35  1  0.51697664  0.62857945  0.85437101  1
  O  O36  1  0.02354906  0.82671413  0.41281478  1
  O  O37  1  0.80777497  0.98225293  0.41295529  1
  O  O38  1  0.18072865  0.19119238  0.41379447  1
  O  O39  1  0.03358726  0.18956888  0.91112587  1
  O  O40  1  0.17751838  0.98574398  0.91070713  1
  O  O41  1  0.82021363  0.83110161  0.91302841  1
  O  O42  1  0.96780183  0.16374833  0.58869235  1
  O  O43  1  0.17858569  0.01790024  0.58546652  1
  O  O44  1  0.82126126  0.81704101  0.58762582  1
  O  O45  1  0.98460805  0.81519800  0.08825395  1
  O  O46  1  0.82868027  0.01584957  0.08753883  1
  O  O47  1  0.18704014  0.16790275  0.08737008  1
  O  O48  1  0.68766594  0.15767319  0.74620419  1
  O  O49  1  0.46941389  0.31452920  0.74531069  1
  O  O50  1  0.84607039  0.53004218  0.74556376  1
  O  O51  1  0.67936834  0.52610795  0.24367832  1
  O  O52  1  0.84702449  0.32085765  0.24436708  1
  O  O53  1  0.47295538  0.15387526  0.24531696  1
  O  O54  1  0.63164832  0.48488573  0.92343874  1
  O  O55  1  0.84389091  0.34616319  0.92263889  1
  O  O56  1  0.49346705  0.14299405  0.92320511  1
  O  O57  1  0.63657816  0.14129352  0.42145534  1
  O  O58  1  0.50391369  0.35953775  0.42070240  1
  O  O59  1  0.85659524  0.49665338  0.42308850  1
  O  O60  1  0.34994730  0.49429861  0.07999547  1
  O  O61  1  0.14770256  0.65274781  0.07808381  1
  O  O62  1  0.50150610  0.85602603  0.07913821  1
  O  O63  1  0.35541533  0.84526557  0.57731184  1
  O  O64  1  0.50451858  0.64856435  0.57779022  1
  O  O65  1  0.14553358  0.48882766  0.57715928  1
  O  O66  1  0.30773440  0.82877843  0.25590125  1
  O  O67  1  0.52345027  0.69439206  0.25635176  1
  O  O68  1  0.17146274  0.47749074  0.25543189  1
  O  O69  1  0.30339081  0.47489803  0.75398464  1
  O  O70  1  0.17451720  0.70001098  0.75490285  1
  O  O71  1  0.52501387  0.83099581  0.75505807  1
loop_
_geom_bond_atom_site_label_1
_geom_bond_atom_site_label_2
_geom_bond_distance
_geom_bond_site_symmetry_2
Na0 O16 2.380780 1_555
Na0 O53 2.398906 1_555
Na0 O52 2.434661 1_555
Na0 O67 2.518963 1_545
Na0 O66 2.609062 1_545
Na0 O9 2.766219 1_545
Na0 O31 2.917492 1_545
Na0 O2 2.939778 1_555
Na1 O51 2.380589 1_555
Na1 O53 2.418480 1_555
Na1 O17 2.432151 1_555
Na1 O68 2.521275 1_555
Na1 O67 2.617856 1_555
Na1 O10 2.784738 1_555
Na1 O32 2.819893 1_555
Na2 O52 2.394890 1_555
Na2 O15 2.397650 1_555
Na2 O51 2.438650 1_555
Na2 O66 2.524881 1_655
Na2 O68 2.617323 1_655
Na2 O11 2.758747 1_655
Na2 O30 2.792005 1_655
Na2 O1 2.898878 1_555
Na3 O49 2.382643 1_555
Na3 O50 2.415778 1_555
Na3 O14 2.477136 1_555
Na3 O71 2.516890 1_555
Na3 O69 2.574833 1_555
Na3 O35 2.621315 1_555
Na3 O6 2.931214 1_555
Na3 O4 2.940059 1_555
Na4 O50 2.382018 1_555
Na4 O48 2.391751 1_555
Na4 O12 2.485989 1_555
Na4 O69 2.487525 1_655
Na4 O33 2.567225 1_655
Na4 O70 2.606132 1_655
Na4 O7 2.848720 1_655
Na4 O5 2.907321 1_555
Na5 O48 2.389799 1_555
Na5 O49 2.399145 1_555
Na5 O13 2.415599 1_555
Na5 O70 2.486666 1_545
Na5 O71 2.557836 1_545
Na5 O34 2.749421 1_545
Na5 O8 2.854534 1_545
Na6 O63 2.394878 1_555
Na6 O42 2.397996 1_565
Na6 O44 2.463906 1_555
Na6 O64 2.539999 1_555
Na6 O27 2.671897 1_555
Na6 O6 2.693430 1_555
Na6 O13 2.785792 1_565
Na6 O23 2.796847 1_565
Na7 O54 2.345452 1_555
Na7 O39 2.349832 1_555
Na7 O40 2.505025 1_545
Na7 O56 2.521252 1_555
Na7 O18 2.555967 1_556
Na7 O25 2.689186 1_555
Na7 O3 2.842198 1_555
Na7 O35 2.961504 1_555
Na8 O38 2.348641 1_555
Na8 O36 2.388743 1_545
Na8 O57 2.464998 1_555
Na8 O0 2.509405 1_555
Na8 O58 2.548460 1_555
Na8 O21 2.691072 1_555
Na8 O31 2.866765 1_545
Na8 O29 2.917190 1_545
Na9 O38 2.441593 1_555
Na9 O37 2.455517 1_445
Na9 O36 2.460204 1_545
Na9 O43 2.559242 1_555
Na9 O44 2.666125 1_445
Na9 O42 2.685977 1_455
Na10 O46 2.439130 1_565
Na10 O41 2.454982 1_554
Na10 O45 2.490902 1_555
Na10 O47 2.586543 1_665
Na10 O39 2.602369 1_664
Na10 O40 2.705336 1_654
Na11 O55 2.384036 1_555
Na11 O54 2.482053 1_555
Na11 O56 2.571786 1_555
Na11 O50 2.623712 1_555
Na11 O48 2.638129 1_555
Na11 O49 2.741381 1_555
Na12 O52 2.519067 1_555
Na12 O51 2.529799 1_555
Na12 O59 2.570395 1_555
Na12 O53 2.600816 1_555
Na12 O58 2.607098 1_555
Na12 O57 2.638570 1_555
Na13 O60 2.431762 1_555
Na13 O62 2.434327 1_555
Na13 O61 2.450765 1_555
Na13 O66 2.655041 1_555
Na13 O68 2.656109 1_555
Na13 O67 2.675378 1_555
Na14 O63 2.429942 1_555
Na14 O65 2.457726 1_555
Na14 O64 2.530492 1_555
Na14 O70 2.589045 1_555
Na14 O69 2.610714 1_555
Na14 O71 2.693204 1_555
O0 P0 1.527804 1_545
O0 Zn0 2.108433 1_445
O1 P1 1.518802 1_555
O1 Zn0 2.015119 1_555
O2 P2 1.517658 1_655
O2 Zn0 2.009136 1_545
O3 P3 1.550170 1_555
O3 Sn0 2.113411 1_445
O4 P4 1.540358 1_655
O4 Sn0 2.058355 1_555
O5 P5 1.538482 1_545
O5 Sn0 2.053591 1_545
O6 P5 1.569856 1_555
O6 Sn1 2.130821 1_655
O7 P3 1.558672 1_555
O7 Sn1 2.066051 1_545
O8 P4 1.556891 1_555
O8 Sn1 2.059774 1_555
O9 P1 1.569277 1_555
O9 Sn2 2.088075 1_565
O10 P2 1.569376 1_555
O10 Sn2 2.079964 1_455
O11 P0 1.565379 1_555
O11 Sn2 2.098861 1_465
O12 P6 1.527591 1_555
O12 Zn1 2.035145 1_555
O13 Si0 1.617653 1_555
O13 Zn1 1.946312 1_555
O14 P7 1.526280 1_555
O14 Zn1 2.008351 1_555
O15 P8 1.526923 1_555
O15 Zn2 2.008690 1_555
O16 P9 1.527973 1_555
O16 Zn2 2.004848 1_555
O17 P10 1.525051 1_555
O17 Zn2 2.006146 1_555
O18 P10 1.565209 1_555
O18 Sn3 2.102440 1_554
O19 P8 1.547483 1_555
O19 Sn3 2.039217 1_554
O20 P9 1.548866 1_555
O20 Sn3 2.041442 1_554
O21 Si0 1.643418 1_555
O21 Sn4 1.999323 1_555
O22 P7 1.541128 1_555
O22 Sn4 2.046141 1_555
O23 P6 1.553118 1_555
O23 Sn4 2.061071 1_555
O24 Si1 1.602212 1_555
O24 Sn5 1.977407 1_556
O25 Si2 1.613479 1_555
O25 Sn5 1.997265 1_556
O26 P11 1.515505 1_555
O26 Sn5 2.071661 1_556
O27 P12 1.555551 1_555
O27 Sn6 2.071785 1_555
O28 P13 1.539802 1_555
O28 Sn6 2.008580 1_555
O29 P14 1.550060 1_555
O29 Sn6 2.019934 1_555
O30 P14 1.574110 1_555
O30 Sn7 2.056851 1_555
O31 P12 1.581408 1_555
O31 Sn7 2.056101 1_555
O32 P13 1.566748 1_555
O32 Sn7 2.035894 1_555
O33 Si2 1.661914 1_555
O33 Sn8 1.992662 1_555
O34 P11 1.574158 1_555
O34 Sn8 2.046955 1_555
O35 Si1 1.672971 1_555
O35 Sn8 1.996767 1_555
O36 P14 1.519563 1_555
O36 Zn0 2.186709 1_455
O37 P12 1.508126 1_555
O37 Zn0 2.092759 1_555
O38 P13 1.520660 1_555
O38 Zn0 2.206495 1_445
O39 Si2 1.646960 1_555
O39 Sn0 2.007615 1_445
O40 P11 1.551105 1_555
O40 Sn0 2.079148 1_455
O41 Si1 1.619589 1_555
O41 Sn0 1.977913 1_555
O42 P6 1.569127 1_555
O42 Sn1 2.090323 1_645
O43 Si0 1.635926 1_555
O43 Sn1 1.982658 1_545
O44 P7 1.570169 1_555
O44 Sn1 2.089470 1_655
O45 P8 1.565488 1_555
O45 Sn2 2.067410 1_565
O46 P9 1.568512 1_555
O46 Sn2 2.078925 1_555
O47 P10 1.567157 1_555
O47 Sn2 2.077689 1_455
O48 P5 1.526915 1_545
O48 Zn1 2.315710 1_555
O49 P3 1.529182 1_555
O49 Zn1 2.294247 1_555
O50 P4 1.527578 1_655
O50 Zn1 2.341223 1_555
O51 P1 1.535240 1_555
O51 Zn2 2.274726 1_555
O52 P2 1.535541 1_655
O52 Zn2 2.269902 1_555
O53 P0 1.533320 1_545
O53 Zn2 2.320125 1_555
O54 Si1 1.640544 1_555
O54 Sn3 2.061139 1_555
O55 Si2 1.614908 1_655
O55 Sn3 2.016948 1_555
O56 P11 1.543694 1_545
O56 Sn3 2.166524 1_555
O57 P12 1.570868 1_545
O57 Sn4 2.137825 1_555
O58 P13 1.571183 1_555
O58 Sn4 2.103453 1_555
O59 P14 1.553393 1_655
O59 Sn4 2.065070 1_555
O60 P10 1.556188 1_555
O60 Sn5 2.101313 1_555
O61 P8 1.557059 1_455
O61 Sn5 2.080837 1_555
O62 P9 1.556448 1_565
O62 Sn5 2.090362 1_555
O63 Si0 1.666597 1_565
O63 Sn6 2.024336 1_555
O64 P7 1.560918 1_555
O64 Sn6 2.108076 1_555
O65 P6 1.542636 1_455
O65 Sn6 2.074546 1_555
O66 P0 1.598240 1_555
O66 Sn7 2.109608 1_555
O67 P1 1.597198 1_555
O67 Sn7 2.104994 1_555
O68 P2 1.596474 1_555
O68 Sn7 2.100261 1_555
O69 P3 1.574409 1_555
O69 Sn8 2.176785 1_555
O70 P4 1.577560 1_555
O70 Sn8 2.162134 1_555
O71 P5 1.574741 1_555
O71 Sn8 2.182681 1_555
