# generated using pymatgen
data_Na14Zn2Si9Sn6(SO16)3
_symmetry_space_group_name_H-M   'P 1'
_cell_length_a   18.19030877
_cell_length_b   9.13125814
_cell_length_c   22.52534228
_cell_angle_alpha   90.26087269
_cell_angle_beta   89.92597023
_cell_angle_gamma   120.09007024
_symmetry_Int_Tables_number   1
_chemical_formula_structural   Na14Zn2Si9Sn6(SO16)3
_chemical_formula_sum   'Na42 Zn6 Si27 Sn18 S9 O144'
_cell_volume   3237.22623144
_cell_formula_units_Z   3
loop_
 _symmetry_equiv_pos_site_id
 _symmetry_equiv_pos_as_xyz
  1  'x, y, z'
loop_
 _atom_site_type_symbol
 _atom_site_label
 _atom_site_symmetry_multiplicity
 _atom_site_fract_x
 _atom_site_fract_y
 _atom_site_fract_z
 _atom_site_occupancy
  Na  Na0  1  0.31154748  0.00319466  0.24509835  1
  Na  Na1  1  0.81742456  0.01611547  0.24849194  1
  Na  Na2  1  0.18715853  0.36419246  0.25060777  1
  Na  Na3  1  0.69416329  0.36607275  0.24968749  1
  Na  Na4  1  0.99125603  0.61878611  0.25331053  1
  Na  Na5  1  0.49458621  0.63242470  0.24801435  1
  Na  Na6  1  0.31794681  0.61923395  0.74156420  1
  Na  Na7  1  0.81217383  0.62117809  0.74136388  1
  Na  Na8  1  0.99268832  0.35227975  0.74334057  1
  Na  Na9  1  0.49306764  0.36822018  0.74895814  1
  Na  Na10  1  0.19468184  0.02482637  0.74523378  1
  Na  Na11  1  0.68919181  0.01161268  0.74722061  1
  Na  Na12  1  0.15320418  0.33518161  0.58557403  1
  Na  Na13  1  0.65668937  0.35321976  0.57915078  1
  Na  Na14  1  0.01233270  0.69415611  0.57883186  1
  Na  Na15  1  0.51675995  0.69379308  0.57467176  1
  Na  Na16  1  0.32960677  0.96508039  0.58516606  1
  Na  Na17  1  0.83000456  0.95413933  0.57411650  1
  Na  Na18  1  0.15610619  0.96246564  0.08520767  1
  Na  Na19  1  0.65506708  0.97292368  0.08912689  1
  Na  Na20  1  0.33228480  0.70338221  0.08408339  1
  Na  Na21  1  0.82893683  0.69329994  0.08846668  1
  Na  Na22  1  0.01454295  0.33460489  0.07993833  1
  Na  Na23  1  0.51438902  0.33210293  0.08318300  1
  Na  Na24  1  0.98511663  0.66897686  0.91833074  1
  Na  Na25  1  0.35001395  0.03786260  0.91426538  1
  Na  Na26  1  0.16370123  0.29546665  0.91610867  1
  Na  Na27  1  0.48768543  0.30517683  0.41861643  1
  Na  Na28  1  0.66903872  0.03140793  0.41472056  1
  Na  Na29  1  0.84951323  0.66948576  0.41876035  1
  Na  Na30  1  0.99911761  0.99823227  0.49726098  1
  Na  Na31  1  0.49323973  0.98416688  0.49460946  1
  Na  Na32  1  0.99061468  0.00046731  0.99604342  1
  Na  Na33  1  0.50703781  0.01141617  0.00190482  1
  Na  Na34  1  0.33923999  0.33878037  0.82543353  1
  Na  Na35  1  0.82719360  0.32124609  0.83008262  1
  Na  Na36  1  0.32812120  0.33435732  0.33175945  1
  Na  Na37  1  0.83778716  0.33211241  0.32979018  1
  Na  Na38  1  0.17056527  0.67592867  0.16880356  1
  Na  Na39  1  0.67083253  0.67603151  0.16719347  1
  Na  Na40  1  0.16923376  0.66416177  0.66248554  1
  Na  Na41  1  0.67260794  0.66631244  0.66432449  1
  Zn  Zn0  1  0.32456057  0.33350550  0.68663569  1
  Zn  Zn1  1  0.83469745  0.33548029  0.68007925  1
  Zn  Zn2  1  0.33397315  0.33147607  0.18285002  1
  Zn  Zn3  1  0.82402659  0.31570478  0.18884084  1
  Zn  Zn4  1  0.16580624  0.68228677  0.01187024  1
  Zn  Zn5  1  0.67529161  0.66450617  0.50468840  1
  Si  Si0  1  0.14682379  0.00562390  0.24861563  1
  Si  Si1  1  0.64404878  0.99339858  0.25209609  1
  Si  Si2  1  0.35244879  0.70412995  0.24934629  1
  Si  Si3  1  0.84866755  0.69845961  0.25117758  1
  Si  Si4  1  0.00187179  0.29830415  0.25124331  1
  Si  Si5  1  0.14416723  0.29238913  0.75308899  1
  Si  Si6  1  0.64951172  0.29327096  0.74696917  1
  Si  Si7  1  0.50145835  0.70744419  0.75260044  1
  Si  Si8  1  0.35020187  0.99774229  0.75232193  1
  Si  Si9  1  0.85245780  0.00059870  0.74991140  1
  Si  Si10  1  0.97946725  0.33728713  0.58488826  1
  Si  Si11  1  0.18901979  0.04517439  0.58663412  1
  Si  Si12  1  0.33515604  0.62841158  0.58474909  1
  Si  Si13  1  0.83020427  0.62486729  0.58628023  1
  Si  Si14  1  0.47856285  0.62163599  0.08389627  1
  Si  Si15  1  0.33021786  0.02987483  0.08583168  1
  Si  Si16  1  0.83535655  0.04220979  0.08421092  1
  Si  Si17  1  0.68857519  0.33212042  0.08618375  1
  Si  Si18  1  0.81242860  0.66149549  0.91654911  1
  Si  Si19  1  0.02057900  0.37952072  0.92122892  1
  Si  Si20  1  0.52121695  0.36903905  0.91535369  1
  Si  Si21  1  0.16637642  0.96549082  0.91830480  1
  Si  Si22  1  0.31262594  0.96260929  0.41679245  1
  Si  Si23  1  0.81950954  0.97150569  0.41926346  1
  Si  Si24  1  0.66480478  0.36905662  0.41783616  1
  Si  Si25  1  0.02244728  0.67485098  0.41535340  1
  Si  Si26  1  0.51971125  0.66024099  0.42088168  1
  Sn  Sn0  1  0.99814605  0.99555043  0.35090353  1
  Sn  Sn1  1  0.49712440  0.98104317  0.35658165  1
  Sn  Sn2  1  0.99627739  0.01159527  0.85622176  1
  Sn  Sn3  1  0.50489762  0.01292601  0.84744484  1
  Sn  Sn4  1  0.99698684  0.00894612  0.64494209  1
  Sn  Sn5  1  0.49605227  0.98739105  0.65417772  1
  Sn  Sn6  1  0.99399497  0.00304269  0.15662114  1
  Sn  Sn7  1  0.49804268  0.98685128  0.14649915  1
  Sn  Sn8  1  0.34240456  0.32774967  0.98221404  1
  Sn  Sn9  1  0.83063490  0.32555292  0.98132059  1
  Sn  Sn10  1  0.33056651  0.33531164  0.48091681  1
  Sn  Sn11  1  0.84302517  0.34813775  0.47743985  1
  Sn  Sn12  1  0.66786144  0.65675198  0.01870765  1
  Sn  Sn13  1  0.16790710  0.67788788  0.51835639  1
  Sn  Sn14  1  0.16644193  0.67874269  0.31293305  1
  Sn  Sn15  1  0.67178217  0.67934960  0.32090085  1
  Sn  Sn16  1  0.16627514  0.66835461  0.81758083  1
  Sn  Sn17  1  0.66643235  0.65398090  0.81267716  1
  S  S0  1  0.50132660  0.29181896  0.25097031  1
  S  S1  1  0.00165967  0.71151672  0.75158957  1
  S  S2  1  0.48026978  0.33007418  0.58583995  1
  S  S3  1  0.68358429  0.03870642  0.58450708  1
  S  S4  1  0.98061649  0.63085253  0.08490459  1
  S  S5  1  0.18548324  0.33075067  0.08253417  1
  S  S6  1  0.31648004  0.66600193  0.91816527  1
  S  S7  1  0.66499129  0.95827133  0.91638021  1
  S  S8  1  0.16668821  0.37452306  0.41630539  1
  O  O0  1  0.10163018  0.04212946  0.30449672  1
  O  O1  1  0.60015770  0.03126177  0.30885440  1
  O  O2  1  0.41603350  0.79553052  0.30483728  1
  O  O3  1  0.91014508  0.78876641  0.30808312  1
  O  O4  1  0.48947241  0.18727091  0.30397280  1
  O  O5  1  0.98325750  0.16604172  0.30467382  1
  O  O6  1  0.10182146  0.17122505  0.81106205  1
  O  O7  1  0.60817892  0.17088191  0.80487959  1
  O  O8  1  0.48076262  0.79792862  0.80851981  1
  O  O9  1  0.99138946  0.79227659  0.80580571  1
  O  O10  1  0.40716144  0.02440765  0.81225268  1
  O  O11  1  0.91529295  0.03814033  0.80639756  1
  O  O12  1  0.38923235  0.95295904  0.69287263  1
  O  O13  1  0.89105841  0.95104461  0.69146024  1
  O  O14  1  0.08392530  0.21136037  0.69362810  1
  O  O15  1  0.58525738  0.20873544  0.68865795  1
  O  O16  1  0.01529978  0.81517306  0.69774829  1
  O  O17  1  0.52536725  0.82707110  0.69203974  1
  O  O18  1  0.38945084  0.82692497  0.18966521  1
  O  O19  1  0.88607716  0.81920637  0.19027483  1
  O  O20  1  0.02670425  0.23015112  0.18862621  1
  O  O21  1  0.51408699  0.21391126  0.19593711  1
  O  O22  1  0.08672384  0.96415479  0.18695263  1
  O  O23  1  0.58515864  0.95631706  0.19141125  1
  O  O24  1  0.43863684  0.34817478  0.63874780  1
  O  O25  1  0.94604639  0.37851589  0.64572853  1
  O  O26  1  0.24688198  0.11710610  0.64513254  1
  O  O27  1  0.73393708  0.11596734  0.63849595  1
  O  O28  1  0.31694204  0.52095320  0.64453786  1
  O  O29  1  0.81529616  0.51146458  0.64472107  1
  O  O30  1  0.44258410  0.50649369  0.14235655  1
  O  O31  1  0.93938477  0.52933644  0.13708246  1
  O  O32  1  0.31125860  0.11514776  0.14205203  1
  O  O33  1  0.81697080  0.11571224  0.14332290  1
  O  O34  1  0.23691380  0.35526950  0.13557899  1
  O  O35  1  0.74745299  0.37633901  0.14354415  1
  O  O36  1  0.22546311  0.30637570  0.02718028  1
  O  O37  1  0.72759753  0.28662885  0.02685136  1
  O  O38  1  0.41242010  0.54080765  0.02646550  1
  O  O39  1  0.92903635  0.55621889  0.02907225  1
  O  O40  1  0.35083528  0.14574569  0.02414882  1
  O  O41  1  0.85861140  0.16874433  0.02629053  1
  O  O42  1  0.22920456  0.17088907  0.52857179  1
  O  O43  1  0.72278728  0.14296135  0.53062988  1
  O  O44  1  0.35796075  0.54560247  0.52757577  1
  O  O45  1  0.84962822  0.54277610  0.52610611  1
  O  O46  1  0.42739646  0.29889326  0.53071561  1
  O  O47  1  0.91431295  0.29165592  0.52908603  1
  O  O48  1  0.27693543  0.69262335  0.97087242  1
  O  O49  1  0.77372181  0.70089557  0.97605264  1
  O  O50  1  0.08159317  0.46280636  0.97835059  1
  O  O51  1  0.57484436  0.45278850  0.97589779  1
  O  O52  1  0.14767725  0.85423255  0.97705411  1
  O  O53  1  0.65490681  0.85944327  0.97089530  1
  O  O54  1  0.27417150  0.84716527  0.47639747  1
  O  O55  1  0.78047303  0.85385960  0.47691790  1
  O  O56  1  0.15708553  0.45425463  0.47132463  1
  O  O57  1  0.64145996  0.43762925  0.47686001  1
  O  O58  1  0.07578994  0.69519843  0.47616295  1
  O  O59  1  0.57719835  0.69368619  0.47935016  1
  O  O60  1  0.06256704  0.63762419  0.35618397  1
  O  O61  1  0.55885584  0.62141826  0.35931300  1
  O  O62  1  0.25768206  0.88095410  0.35618422  1
  O  O63  1  0.75931059  0.89291046  0.35901415  1
  O  O64  1  0.17848621  0.47715603  0.36251662  1
  O  O65  1  0.68454785  0.49009460  0.35827075  1
  O  O66  1  0.06082907  0.49887183  0.86037516  1
  O  O67  1  0.56191711  0.48143216  0.85596890  1
  O  O68  1  0.19004585  0.88544245  0.85961520  1
  O  O69  1  0.67615551  0.87871000  0.86231492  1
  O  O70  1  0.26338203  0.63824964  0.86328548  1
  O  O71  1  0.75696741  0.63340806  0.85642385  1
  O  O72  1  0.01252143  0.84444380  0.41232847  1
  O  O73  1  0.51450762  0.83452821  0.41519118  1
  O  O74  1  0.41055956  0.99682930  0.41063499  1
  O  O75  1  0.91231960  0.98361148  0.41209966  1
  O  O76  1  0.09049656  0.20538698  0.41274691  1
  O  O77  1  0.57988224  0.18010981  0.40935026  1
  O  O78  1  0.01503682  0.19475623  0.91552263  1
  O  O79  1  0.50611013  0.17168247  0.91298364  1
  O  O80  1  0.08075298  0.97998134  0.90973054  1
  O  O81  1  0.58745911  0.97444251  0.91312666  1
  O  O82  1  0.40142980  0.82041054  0.91239794  1
  O  O83  1  0.91066564  0.82376700  0.91073136  1
  O  O84  1  0.48862348  0.17214571  0.58792941  1
  O  O85  1  0.98964965  0.16639338  0.58534909  1
  O  O86  1  0.09241762  0.02118476  0.59123905  1
  O  O87  1  0.59697827  0.02842426  0.58727651  1
  O  O88  1  0.42228570  0.82435451  0.58705310  1
  O  O89  1  0.92094171  0.81244153  0.58855193  1
  O  O90  1  0.48803512  0.81186274  0.08487698  1
  O  O91  1  0.99013380  0.80566615  0.08687197  1
  O  O92  1  0.42050228  0.02467511  0.08862251  1
  O  O93  1  0.92265352  0.01976385  0.08661714  1
  O  O94  1  0.09974738  0.17018843  0.08478176  1
  O  O95  1  0.59150273  0.16302838  0.09023640  1
  O  O96  1  0.34380213  0.16607843  0.74830225  1
  O  O97  1  0.84306693  0.16734000  0.74465477  1
  O  O98  1  0.23835006  0.31814119  0.75068044  1
  O  O99  1  0.74308509  0.31510483  0.74443627  1
  O  O100  1  0.41960891  0.52131648  0.74626011  1
  O  O101  1  0.92683517  0.54168969  0.74852201  1
  O  O102  1  0.34351324  0.51886791  0.24355165  1
  O  O103  1  0.84297745  0.51791136  0.24592262  1
  O  O104  1  0.42517142  0.30920018  0.24712713  1
  O  O105  1  0.92014632  0.32056972  0.24466541  1
  O  O106  1  0.24104657  0.17068867  0.24507831  1
  O  O107  1  0.73752772  0.15709200  0.24968705  1
  O  O108  1  0.32015032  0.50710526  0.92166728  1
  O  O109  1  0.82589425  0.49583798  0.92376135  1
  O  O110  1  0.42400578  0.34297770  0.91821875  1
  O  O111  1  0.92661759  0.36681629  0.92325687  1
  O  O112  1  0.25012984  0.16154835  0.92324754  1
  O  O113  1  0.74261710  0.12952937  0.91941044  1
  O  O114  1  0.32522232  0.15445465  0.42398076  1
  O  O115  1  0.81874481  0.15040962  0.42308686  1
  O  O116  1  0.24502435  0.36025911  0.41952000  1
  O  O117  1  0.74983593  0.34922080  0.42313708  1
  O  O118  1  0.42492622  0.48503766  0.42259843  1
  O  O119  1  0.92555480  0.51126505  0.41778036  1
  O  O120  1  0.17441752  0.47985188  0.07756242  1
  O  O121  1  0.67553892  0.49892560  0.07895867  1
  O  O122  1  0.06593607  0.64732465  0.08002577  1
  O  O123  1  0.57539482  0.65113612  0.07345424  1
  O  O124  1  0.24854458  0.83690849  0.07740428  1
  O  O125  1  0.74954654  0.85256715  0.07509543  1
  O  O126  1  0.17665548  0.85311282  0.57924229  1
  O  O127  1  0.67076777  0.86644557  0.58003381  1
  O  O128  1  0.24981631  0.64762725  0.57578086  1
  O  O129  1  0.74788281  0.65152892  0.58052507  1
  O  O130  1  0.07700280  0.50147070  0.57520553  1
  O  O131  1  0.56482006  0.48203843  0.58092678  1
  O  O132  1  0.15208487  0.82961371  0.25092305  1
  O  O133  1  0.64661787  0.81315732  0.25585868  1
  O  O134  1  0.25820543  0.68866747  0.25595513  1
  O  O135  1  0.75377831  0.68471437  0.25485427  1
  O  O136  1  0.09119846  0.48239603  0.25638009  1
  O  O137  1  0.57945907  0.46173216  0.25422766  1
  O  O138  1  0.14941241  0.48088388  0.75838255  1
  O  O139  1  0.65222715  0.47680368  0.75057463  1
  O  O140  1  0.08127455  0.69881018  0.75478767  1
  O  O141  1  0.59026336  0.70093998  0.75830151  1
  O  O142  1  0.25533185  0.81983606  0.75619676  1
  O  O143  1  0.75824800  0.82798995  0.75671925  1
loop_
_geom_bond_atom_site_label_1
_geom_bond_atom_site_label_2
_geom_bond_distance
_geom_bond_site_symmetry_2
Na0 O106 2.439372 1_555
Na0 O104 2.507936 1_555
Na0 O132 2.516780 1_545
Na0 O32 2.541623 1_555
Na0 O134 2.541909 1_545
Na0 O62 2.718392 1_545
Na0 O18 2.902100 1_545
Na1 O107 2.376053 1_555
Na1 O105 2.453680 1_555
Na1 O33 2.542905 1_555
Na1 O135 2.647408 1_545
Na1 O133 2.709869 1_545
Na1 O63 2.721619 1_545
Na1 O5 2.903182 1_555
Na1 O19 2.955995 1_545
Na2 O106 2.415129 1_555
Na2 O102 2.466202 1_555
Na2 O136 2.473081 1_555
Na2 O134 2.573114 1_555
Na2 O64 2.753488 1_555
Na2 O34 2.757779 1_555
Na2 O0 2.825304 1_555
Na2 O20 2.894662 1_555
Na3 O103 2.343999 1_555
Na3 O107 2.402712 1_555
Na3 O135 2.547294 1_555
Na3 O35 2.563171 1_555
Na3 O137 2.636871 1_555
Na3 O65 2.732707 1_555
Na4 O105 2.364361 1_555
Na4 O103 2.379024 1_555
Na4 O132 2.573112 1_655
Na4 O60 2.619604 1_655
Na4 O136 2.670639 1_655
Na4 O31 2.761502 1_555
Na4 O3 2.895233 1_555
Na5 O102 2.404091 1_555
Na5 O133 2.413504 1_555
Na5 O104 2.562899 1_555
Na5 O30 2.602225 1_555
Na5 O137 2.692187 1_555
Na5 O61 2.791020 1_555
Na5 O2 2.830210 1_555
Na5 O23 2.868810 1_555
Na6 O28 2.355449 1_555
Na6 O98 2.389620 1_555
Na6 O100 2.426873 1_555
Na6 O142 2.616635 1_555
Na6 O138 2.693667 1_555
Na6 O12 2.869693 1_555
Na6 O70 2.948608 1_555
Na6 O8 2.975235 1_555
Na7 O29 2.404724 1_555
Na7 O99 2.423815 1_555
Na7 O139 2.530010 1_555
Na7 O101 2.534366 1_555
Na7 O143 2.549266 1_555
Na7 O71 2.800227 1_555
Na7 O13 2.843958 1_555
Na8 O97 2.377332 1_555
Na8 O25 2.413532 1_555
Na8 O138 2.502633 1_655
Na8 O101 2.552481 1_555
Na8 O140 2.748911 1_655
Na8 O14 2.790615 1_655
Na8 O11 2.865360 1_555
Na8 O66 2.930964 1_655
Na9 O100 2.370147 1_555
Na9 O96 2.398742 1_555
Na9 O139 2.547141 1_555
Na9 O24 2.645232 1_555
Na9 O141 2.647557 1_555
Na9 O67 2.671021 1_555
Na10 O96 2.348993 1_555
Na10 O98 2.384001 1_555
Na10 O26 2.430086 1_555
Na10 O142 2.618671 1_545
Na10 O140 2.647809 1_545
Na10 O68 2.861282 1_545
Na11 O97 2.422663 1_555
Na11 O99 2.433549 1_555
Na11 O141 2.496931 1_545
Na11 O143 2.559480 1_545
Na11 O27 2.608981 1_555
Na11 O69 2.826436 1_545
Na11 O7 2.846124 1_555
Na11 O17 2.867097 1_545
Na12 O128 2.500807 1_555
Na12 O86 2.506728 1_555
Na12 O130 2.529041 1_555
Na12 O85 2.574654 1_455
Na12 O14 2.716435 1_555
Na12 O56 2.785346 1_555
Na12 O42 2.804988 1_555
Na12 O28 2.904522 1_555
Na13 O129 2.375086 1_555
Na13 O131 2.479590 1_555
Na13 O57 2.492345 1_555
Na13 O87 2.604515 1_555
Na13 O84 2.655572 1_555
Na13 O15 2.795696 1_555
Na13 O29 2.899073 1_555
Na13 O43 2.935720 1_555
Na14 O89 2.403246 1_455
Na14 O130 2.561263 1_555
Na14 O58 2.581310 1_555
Na14 O126 2.586705 1_555
Na14 O86 2.597885 1_565
Na14 O45 2.823594 1_455
Na14 O16 2.883177 1_555
Na14 O25 2.929455 1_455
Na15 O59 2.411200 1_555
Na15 O127 2.432840 1_555
Na15 O131 2.494129 1_555
Na15 O88 2.550001 1_555
Na15 O87 2.658739 1_565
Na15 O44 2.715872 1_555
Na15 O17 2.876758 1_555
Na16 O126 2.439536 1_555
Na16 O128 2.516050 1_555
Na16 O84 2.541878 1_565
Na16 O88 2.582262 1_555
Na16 O54 2.659429 1_555
Na16 O12 2.684090 1_555
Na16 O26 2.843994 1_565
Na16 O46 2.924247 1_565
Na17 O55 2.367160 1_555
Na17 O129 2.398288 1_555
Na17 O85 2.570478 1_565
Na17 O89 2.582150 1_555
Na17 O127 2.592932 1_555
Na17 O47 2.857326 1_565
Na17 O13 2.874107 1_555
Na18 O124 2.470464 1_555
Na18 O122 2.499872 1_555
Na18 O94 2.568824 1_565
Na18 O52 2.600462 1_554
Na18 O91 2.613821 1_455
Na18 O22 2.618655 1_555
Na18 O32 2.756101 1_565
Na19 O125 2.480055 1_555
Na19 O95 2.522501 1_565
Na19 O123 2.565274 1_555
Na19 O23 2.598216 1_555
Na19 O90 2.631076 1_555
Na19 O33 2.829882 1_565
Na19 O53 2.852769 1_554
Na19 O37 2.855902 1_565
Na20 O124 2.386238 1_555
Na20 O90 2.488810 1_555
Na20 O92 2.543570 1_565
Na20 O120 2.560304 1_555
Na20 O18 2.610705 1_555
Na20 O48 2.726097 1_554
Na20 O38 2.856654 1_555
Na20 O34 2.993019 1_555
Na21 O121 2.452389 1_555
Na21 O125 2.530277 1_555
Na21 O19 2.538720 1_555
Na21 O91 2.575902 1_555
Na21 O93 2.588365 1_565
Na21 O49 2.739246 1_554
Na21 O35 2.799859 1_555
Na21 O39 2.989321 1_555
Na22 O93 2.503275 1_455
Na22 O122 2.520152 1_555
Na22 O120 2.520322 1_555
Na22 O50 2.584530 1_554
Na22 O94 2.646362 1_555
Na22 O20 2.680808 1_555
Na22 O41 2.735716 1_455
Na23 O92 2.451000 1_555
Na23 O121 2.538799 1_555
Na23 O123 2.555322 1_555
Na23 O95 2.559434 1_555
Na23 O51 2.658214 1_554
Na23 O21 2.763056 1_555
Na23 O30 2.842568 1_555
Na23 O40 2.903162 1_555
Na24 O83 2.404865 1_555
Na24 O111 2.411598 1_555
Na24 O80 2.485771 1_655
Na24 O109 2.512454 1_555
Na24 O39 2.699419 1_556
Na24 O9 2.757096 1_555
Na24 O66 2.852298 1_655
Na24 O52 2.886043 1_655
Na25 O110 2.412404 1_555
Na25 O79 2.465242 1_555
Na25 O10 2.548578 1_555
Na25 O112 2.583080 1_555
Na25 O82 2.584652 1_545
Na25 O40 2.657108 1_556
Na25 O68 2.802235 1_545
Na26 O78 2.380165 1_555
Na26 O112 2.433739 1_555
Na26 O80 2.496888 1_545
Na26 O108 2.516604 1_555
Na26 O6 2.618202 1_555
Na26 O36 2.724796 1_556
Na26 O50 2.965598 1_555
Na26 O70 2.972899 1_555
Na27 O118 2.426330 1_555
Na27 O74 2.441996 1_545
Na27 O77 2.465320 1_555
Na27 O114 2.562136 1_555
Na27 O46 2.740994 1_555
Na27 O57 2.758823 1_555
Na27 O4 2.799726 1_555
Na27 O61 2.842750 1_555
Na28 O115 2.379998 1_555
Na28 O73 2.463025 1_545
Na28 O117 2.517287 1_555
Na28 O77 2.588174 1_555
Na28 O1 2.694921 1_555
Na28 O43 2.791780 1_555
Na28 O63 2.816528 1_545
Na29 O119 2.450425 1_555
Na29 O75 2.504555 1_555
Na29 O117 2.556326 1_555
Na29 O72 2.572255 1_655
Na29 O45 2.685765 1_555
Na29 O3 2.726000 1_555
Na29 O55 2.867661 1_555
Na29 O65 2.933570 1_555
Na30 O75 2.446355 1_555
Na30 O72 2.451365 1_655
Na30 O85 2.561474 1_565
Na30 O89 2.595013 1_555
Na30 O76 2.614763 1_665
Na30 O86 2.655948 1_665
Na31 O73 2.392267 1_555
Na31 O74 2.457032 1_555
Na31 O88 2.502713 1_555
Na31 O77 2.563085 1_565
Na31 O87 2.705384 1_565
Na31 O84 2.735553 1_565
Na32 O78 2.423107 1_655
Na32 O93 2.435238 1_556
Na32 O83 2.457095 1_545
Na32 O80 2.607574 1_645
Na32 O94 2.689836 1_656
Na32 O91 2.714316 1_546
Na33 O95 2.467004 1_555
Na33 O79 2.491062 1_554
Na33 O90 2.516077 1_545
Na33 O92 2.547358 1_555
Na33 O81 2.595109 1_544
Na33 O82 2.723170 1_544
Na34 O96 2.370287 1_555
Na34 O100 2.381793 1_555
Na34 O98 2.428404 1_555
Na34 O110 2.587565 1_555
Na34 O112 2.737492 1_555
Na34 O108 2.772149 1_555
Na35 O99 2.446712 1_555
Na35 O97 2.478330 1_555
Na35 O113 2.608396 1_555
Na35 O109 2.646111 1_555
Na35 O101 2.660638 1_555
Na35 O111 2.663859 1_555
Na36 O106 2.482434 1_555
Na36 O102 2.533938 1_555
Na36 O116 2.568098 1_555
Na36 O118 2.595189 1_555
Na36 O114 2.638284 1_555
Na36 O104 2.682820 1_555
Na37 O105 2.466023 1_555
Na37 O107 2.489081 1_555
Na37 O103 2.514811 1_555
Na37 O119 2.552094 1_555
Na37 O115 2.596710 1_555
Na37 O117 2.691488 1_555
Na38 O132 2.439631 1_555
Na38 O134 2.495778 1_555
Na38 O124 2.518078 1_555
Na38 O136 2.562208 1_555
Na38 O122 2.682564 1_555
Na38 O120 2.743441 1_555
Na39 O135 2.463355 1_555
Na39 O133 2.505733 1_555
Na39 O125 2.580847 1_555
Na39 O121 2.584959 1_555
Na39 O123 2.670836 1_555
Na39 O137 2.683363 1_555
Na40 O128 2.489513 1_555
Na40 O126 2.511229 1_555
Na40 O130 2.523812 1_555
Na40 O142 2.584216 1_555
Na40 O138 2.650045 1_555
Na40 O140 2.734215 1_555
Na41 O129 2.373299 1_555
Na41 O139 2.508368 1_555
Na41 O143 2.571403 1_555
Na41 O131 2.622447 1_555
Na41 O127 2.653079 1_555
Na41 O141 2.699136 1_555
O0 Si0 1.624702 1_555
O0 Sn0 2.003303 1_445
O1 Si1 1.631457 1_545
O1 Sn1 2.004051 1_545
O2 Si2 1.619572 1_555
O2 Sn1 1.970995 1_555
O3 Si3 1.625741 1_555
O3 Sn0 2.003673 1_555
O4 S0 1.478702 1_555
O4 Sn1 2.292027 1_545
O5 Si4 1.619842 1_655
O5 Sn0 2.004900 1_545
O6 Si5 1.636674 1_555
O6 Sn2 2.011902 1_455
O7 Si6 1.638304 1_555
O7 Sn3 1.954489 1_555
O8 Si7 1.646870 1_555
O8 Sn3 1.984123 1_565
O9 S1 1.483068 1_655
O9 Sn2 2.260357 1_565
O10 Si8 1.644038 1_545
O10 Sn3 1.997860 1_555
O11 Si9 1.627810 1_555
O11 Sn2 1.962966 1_555
O12 Si8 1.657768 1_555
O12 Sn5 2.004916 1_555
O13 Si9 1.655918 1_565
O13 Sn4 2.017083 1_565
O14 Si5 1.650444 1_555
O14 Sn4 2.043265 1_455
O15 Si6 1.666509 1_555
O15 Sn5 2.005422 1_545
O16 S1 1.484084 1_555
O16 Sn4 2.295165 1_465
O17 Si7 1.667016 1_555
O17 Sn5 1.987483 1_555
O18 Si2 1.664980 1_555
O18 Sn7 2.023703 1_555
O19 Si3 1.679210 1_555
O19 Sn6 1.987364 1_565
O20 Si4 1.689081 1_555
O20 Sn6 1.981057 1_455
O21 S0 1.501157 1_555
O21 Sn7 2.235422 1_545
O22 Si0 1.688744 1_565
O22 Sn6 2.010934 1_465
O23 Si1 1.663307 1_555
O23 Sn7 2.015467 1_555
O24 S2 1.463742 1_555
O24 Zn0 2.281294 1_555
O25 Si10 1.616195 1_555
O25 Zn1 2.014019 1_555
O26 Si11 1.605633 1_555
O26 Zn0 1.990485 1_555
O27 S3 1.470618 1_555
O27 Zn1 2.134944 1_555
O28 Si12 1.603512 1_555
O28 Zn0 2.025111 1_555
O29 Si13 1.615129 1_555
O29 Zn1 1.980467 1_555
O30 Si14 1.608795 1_555
O30 Zn2 2.032710 1_555
O31 S4 1.453855 1_555
O31 Zn3 2.340454 1_555
O32 Si15 1.608763 1_555
O32 Zn2 2.020721 1_555
O33 Si16 1.597201 1_555
O33 Zn3 2.037386 1_555
O34 S5 1.464055 1_555
O34 Zn2 2.165576 1_555
O35 Si17 1.595217 1_555
O35 Zn3 2.017396 1_555
O36 S5 1.513452 1_555
O36 Sn8 2.273529 1_554
O37 Si17 1.658538 1_555
O37 Sn9 2.005362 1_554
O38 Si14 1.664558 1_555
O38 Sn8 1.975261 1_554
O39 S4 1.510138 1_555
O39 Sn9 2.236343 1_554
O40 Si15 1.674747 1_555
O40 Sn8 1.986959 1_554
O41 Si16 1.654790 1_555
O41 Sn9 2.020024 1_554
O42 Si11 1.653002 1_555
O42 Sn10 2.009931 1_555
O43 S3 1.488352 1_555
O43 Sn11 2.373623 1_555
O44 Si12 1.645197 1_555
O44 Sn10 2.015858 1_555
O45 Si13 1.667046 1_555
O45 Sn11 2.035546 1_555
O46 S2 1.507706 1_555
O46 Sn10 2.251026 1_555
O47 Si10 1.631602 1_555
O47 Sn11 1.995221 1_555
O48 S6 1.468530 1_555
O48 Zn4 2.180081 1_556
O49 Si18 1.633662 1_555
O49 Sn12 2.003534 1_556
O50 Si19 1.616834 1_555
O50 Zn4 1.960621 1_556
O51 Si20 1.625490 1_555
O51 Sn12 2.022249 1_556
O52 Si21 1.601136 1_555
O52 Zn4 1.928731 1_556
O53 S7 1.483055 1_555
O53 Sn12 2.257683 1_556
O54 Si22 1.635312 1_555
O54 Sn13 2.007873 1_555
O55 Si23 1.609430 1_555
O55 Zn5 1.931614 1_555
O56 S8 1.488369 1_555
O56 Sn13 2.215591 1_555
O57 Si24 1.611717 1_555
O57 Zn5 1.942746 1_555
O58 Si25 1.634813 1_555
O58 Sn13 2.001780 1_555
O59 Si26 1.612759 1_555
O59 Zn5 2.015291 1_555
O60 Si25 1.632986 1_555
O60 Sn14 1.986854 1_555
O61 Si26 1.673959 1_555
O61 Sn15 2.039133 1_555
O62 Si22 1.632694 1_555
O62 Sn14 2.006991 1_555
O63 Si23 1.662208 1_555
O63 Sn15 1.987421 1_555
O64 S8 1.483353 1_555
O64 Sn14 2.259977 1_555
O65 Si24 1.662830 1_555
O65 Sn15 2.040855 1_555
O66 Si19 1.677394 1_555
O66 Sn16 2.008891 1_555
O67 Si20 1.624436 1_555
O67 Sn17 2.013315 1_555
O68 Si21 1.665126 1_555
O68 Sn16 2.034066 1_555
O69 S7 1.480342 1_555
O69 Sn17 2.260107 1_555
O70 S6 1.509993 1_555
O70 Sn16 2.179409 1_555
O71 Si18 1.630561 1_555
O71 Sn17 2.008623 1_555
O72 Si25 1.648257 1_555
O72 Sn0 2.065603 1_455
O73 Si26 1.646536 1_555
O73 Sn1 2.018453 1_555
O74 Si22 1.652878 1_555
O74 Sn1 2.050316 1_555
O75 Si23 1.643398 1_555
O75 Sn0 2.043176 1_555
O76 S8 1.471519 1_555
O76 Sn0 2.277743 1_445
O77 Si24 1.650716 1_555
O77 Sn1 2.055308 1_545
O78 Si19 1.643353 1_555
O78 Sn2 2.026454 1_455
O79 Si20 1.681837 1_555
O79 Sn3 2.056675 1_555
O80 Si21 1.639611 1_555
O80 Sn2 2.085688 1_465
O81 S7 1.491779 1_555
O81 Sn3 2.259986 1_565
O82 S6 1.486318 1_555
O82 Sn3 2.339218 1_565
O83 Si18 1.658948 1_555
O83 Sn2 2.051932 1_565
O84 S2 1.524888 1_555
O84 Sn5 2.311551 1_545
O85 Si10 1.661165 1_555
O85 Sn4 2.024135 1_555
O86 Si11 1.661426 1_555
O86 Sn4 2.071351 1_455
O87 S3 1.531681 1_555
O87 Sn5 2.256111 1_545
O88 Si12 1.694643 1_555
O88 Sn5 2.069946 1_555
O89 Si13 1.680848 1_555
O89 Sn4 2.059489 1_565
O90 Si14 1.657387 1_555
O90 Sn7 2.049832 1_555
O91 S4 1.517327 1_555
O91 Sn6 2.359916 1_565
O92 Si15 1.667886 1_555
O92 Sn7 2.075016 1_545
O93 Si16 1.700952 1_555
O93 Sn6 2.097632 1_555
O94 S5 1.513958 1_555
O94 Sn6 2.391441 1_455
O95 Si17 1.666541 1_555
O95 Sn7 2.086857 1_545
O96 Si8 1.601628 1_545
O96 Zn0 2.224059 1_555
O97 Si9 1.619837 1_555
O97 Zn1 2.179801 1_555
O98 Si5 1.609119 1_555
O98 Zn0 2.082184 1_555
O99 Si6 1.612396 1_555
O99 Zn1 2.144421 1_555
O100 Si7 1.608321 1_555
O100 Zn0 2.178542 1_555
O101 S1 1.464562 1_655
O101 Zn1 2.355240 1_555
O102 Si2 1.620973 1_555
O102 Zn2 2.123486 1_555
O103 Si3 1.603079 1_555
O103 Zn3 2.126635 1_555
O104 S0 1.473973 1_555
O104 Zn2 2.288440 1_555
O105 Si4 1.605371 1_655
O105 Zn3 2.137184 1_555
O106 Si0 1.620530 1_555
O106 Zn2 2.121745 1_555
O107 Si1 1.606388 1_545
O107 Zn3 2.044338 1_555
O108 S6 1.487971 1_555
O108 Sn8 2.322212 1_555
O109 Si18 1.657831 1_555
O109 Sn9 2.063812 1_555
O110 Si20 1.663002 1_555
O110 Sn8 2.022359 1_555
O111 Si19 1.654658 1_655
O111 Sn9 2.059098 1_555
O112 Si21 1.673978 1_545
O112 Sn8 2.077961 1_555
O113 S7 1.493019 1_545
O113 Sn9 2.195791 1_555
O114 Si22 1.656054 1_545
O114 Sn10 2.049785 1_555
O115 Si23 1.642504 1_545
O115 Sn11 2.033605 1_555
O116 S8 1.496386 1_555
O116 Sn10 2.179371 1_555
O117 Si24 1.649567 1_555
O117 Sn11 2.095726 1_555
O118 Si26 1.663794 1_555
O118 Sn10 2.049012 1_555
O119 Si25 1.643558 1_655
O119 Sn11 2.012258 1_555
O120 S5 1.477476 1_555
O120 Zn4 2.438628 1_555
O121 Si17 1.663492 1_555
O121 Sn12 2.039231 1_555
O122 S4 1.486274 1_455
O122 Zn4 2.274827 1_555
O123 Si14 1.659569 1_555
O123 Sn12 2.064272 1_555
O124 Si15 1.649468 1_565
O124 Zn4 2.072124 1_555
O125 Si16 1.662692 1_565
O125 Sn12 2.082874 1_555
O126 Si11 1.660096 1_565
O126 Sn13 2.047343 1_555
O127 S3 1.472959 1_565
O127 Zn5 2.531932 1_555
O128 Si12 1.660019 1_555
O128 Sn13 2.095358 1_555
O129 Si13 1.638531 1_555
O129 Zn5 2.200074 1_555
O130 Si10 1.666680 1_455
O130 Sn13 2.076403 1_555
O131 S2 1.471112 1_555
O131 Zn5 2.534401 1_555
O132 Si0 1.658293 1_565
O132 Sn14 2.072769 1_555
O133 Si1 1.672281 1_555
O133 Sn15 2.104225 1_555
O134 Si2 1.654630 1_555
O134 Sn14 2.070154 1_555
O135 Si3 1.668654 1_555
O135 Sn15 2.088554 1_555
O136 Si4 1.655060 1_555
O136 Sn14 2.057586 1_555
O137 S0 1.490198 1_555
O137 Sn15 2.378574 1_555
O138 Si5 1.679084 1_555
O138 Sn16 2.063097 1_555
O139 Si6 1.653297 1_555
O139 Sn17 2.049931 1_555
O140 S1 1.511564 1_555
O140 Sn16 2.215640 1_555
O141 Si7 1.651155 1_555
O141 Sn17 2.051508 1_555
O142 Si8 1.677668 1_555
O142 Sn16 2.052852 1_555
O143 Si9 1.654583 1_565
O143 Sn17 2.062694 1_555
