# generated using pymatgen
data_MgMn3VO8
_symmetry_space_group_name_H-M   'P 1'
_cell_length_a   10.35740143
_cell_length_b   10.47473911
_cell_length_c   14.84033580
_cell_angle_alpha   19.33072233
_cell_angle_beta   18.96887026
_cell_angle_gamma   32.87392872
_symmetry_Int_Tables_number   1
_chemical_formula_structural   MgMn3VO8
_chemical_formula_sum   'Mg1 Mn3 V1 O8'
_cell_volume   151.20719713
_cell_formula_units_Z   1
loop_
 _symmetry_equiv_pos_site_id
 _symmetry_equiv_pos_as_xyz
  1  'x, y, z'
loop_
 _atom_site_type_symbol
 _atom_site_label
 _atom_site_symmetry_multiplicity
 _atom_site_fract_x
 _atom_site_fract_y
 _atom_site_fract_z
 _atom_site_occupancy
  Mg  Mg0  1  0.99999800  0.99997200  0.50002100  1
  Mn  Mn0  1  0.99997200  0.49997600  0.00005100  1
  Mn  Mn1  1  0.49997600  0.00000600  0.00001300  1
  Mn  Mn2  1  0.50002600  0.50005000  0.99994900  1
  V  V0  1  0.99999600  0.99996200  0.00002200  1
  O  O0  1  0.98014500  0.98165700  0.29382600  1
  O  O1  1  0.98057300  0.45028700  0.30829600  1
  O  O2  1  0.51311300  0.04302700  0.22378500  1
  O  O3  1  0.01988400  0.01844100  0.70608500  1
  O  O4  1  0.51202400  0.52425700  0.24080300  1
  O  O5  1  0.01941700  0.54967200  0.69173300  1
  O  O6  1  0.48688500  0.95694600  0.77622600  1
  O  O7  1  0.48799400  0.47574700  0.75918900  1
loop_
_geom_bond_atom_site_label_1
_geom_bond_atom_site_label_2
_geom_bond_distance
_geom_bond_site_symmetry_2
Mg0 O1 2.132018 1_565
Mg0 O5 2.132040 1_655
Mg0 O2 2.140780 1_665
Mg0 O6 2.140904 1_555
Mg0 O4 2.249436 1_556
Mg0 O7 2.249498 1_664
Mn0 O7 1.942903 1_654
Mn0 O4 1.942965 1_555
Mn0 O0 2.008576 1_545
Mn0 O3 2.008639 1_664
Mn0 O6 2.149758 1_545
Mn0 O2 2.150183 1_664
Mn1 O0 1.947178 1_445
Mn1 O3 1.947237 1_654
Mn1 O7 1.951886 1_554
Mn1 O4 1.951974 1_545
Mn1 O5 1.953354 1_545
Mn1 O1 1.953398 1_554
Mn2 O6 1.928490 1_555
Mn2 O2 1.928839 1_556
Mn2 O0 1.949113 1_555
Mn2 O3 1.949121 1_556
Mn2 O5 1.949719 1_655
Mn2 O1 1.949756 1_456
O1 V0 2.148119 1_555
O2 V0 1.998478 1_545
O4 V0 2.088422 1_446
O5 V0 2.148278 1_446
O6 V0 1.998442 1_456
O7 V0 2.088397 1_555
