# generated using pymatgen
data_Na2YMgP(SO6)2
_symmetry_space_group_name_H-M   'P 1'
_cell_length_a   9.09500173
_cell_length_b   9.03821492
_cell_length_c   23.31857015
_cell_angle_alpha   89.72328663
_cell_angle_beta   90.00000000
_cell_angle_gamma   120.20805749
_symmetry_Int_Tables_number   1
_chemical_formula_structural   Na2YMgP(SO6)2
_chemical_formula_sum   'Na12 Y6 Mg6 P6 S12 O72'
_cell_volume   1656.52076529
_cell_formula_units_Z   6
loop_
 _symmetry_equiv_pos_site_id
 _symmetry_equiv_pos_as_xyz
  1  'x, y, z'
loop_
 _atom_site_type_symbol
 _atom_site_label
 _atom_site_symmetry_multiplicity
 _atom_site_fract_x
 _atom_site_fract_y
 _atom_site_fract_z
 _atom_site_occupancy
  Na  Na0  1  0.00280632  0.64080753  0.24304906  1
  Na  Na1  1  0.63800121  0.64080753  0.74304906  1
  Na  Na2  1  0.65945543  0.95740417  0.57967553  1
  Na  Na3  1  0.29794974  0.95740417  0.07967553  1
  Na  Na4  1  0.69016424  0.02707369  0.91029365  1
  Na  Na5  1  0.33690845  0.02707369  0.41029365  1
  Na  Na6  1  0.97997378  0.98823204  0.49371567  1
  Na  Na7  1  0.00825825  0.98823204  0.99371567  1
  Na  Na8  1  0.65752933  0.31336782  0.82712689  1
  Na  Na9  1  0.65583949  0.31336782  0.32712689  1
  Na  Na10  1  0.33263902  0.65932694  0.16093625  1
  Na  Na11  1  0.32668691  0.65932694  0.66093625  1
  Y  Y0  1  0.00077887  0.99922761  0.64916716  1
  Y  Y1  1  0.99844874  0.99922761  0.14916716  1
  Y  Y2  1  0.67177043  0.34651954  0.98276571  1
  Y  Y3  1  0.67475010  0.34651954  0.48276571  1
  Y  Y4  1  0.34640021  0.67707571  0.31573804  1
  Y  Y5  1  0.33067450  0.67707571  0.81573804  1
  Mg  Mg0  1  0.99274577  0.00480726  0.34964465  1
  Mg  Mg1  1  0.01206149  0.00480726  0.84964465  1
  Mg  Mg2  1  0.66701986  0.32807366  0.68276317  1
  Mg  Mg3  1  0.66105480  0.32807366  0.18276317  1
  Mg  Mg4  1  0.31236628  0.66169681  0.01593947  1
  Mg  Mg5  1  0.34932953  0.66169681  0.51593947  1
  P  P0  1  0.30040823  0.01040568  0.25196594  1
  P  P1  1  0.70999745  0.01040568  0.75196594  1
  P  P2  1  0.65680728  0.62638245  0.58761115  1
  P  P3  1  0.96957617  0.62638245  0.08761115  1
  P  P4  1  0.32563062  0.96334602  0.92036327  1
  P  P5  1  0.63771440  0.96334602  0.42036327  1
  S  S0  1  0.70891116  0.69948255  0.25126507  1
  S  S1  1  0.99175143  0.29378444  0.25121156  1
  S  S2  1  0.30203301  0.29378444  0.75121156  1
  S  S3  1  0.99057138  0.69948255  0.75126507  1
  S  S4  1  0.96790097  0.34424503  0.58455100  1
  S  S5  1  0.37510523  0.03465039  0.58299038  1
  S  S6  1  0.65954616  0.03465039  0.08299038  1
  S  S7  1  0.37634506  0.34424503  0.08455100  1
  S  S8  1  0.62926376  0.67487246  0.91645097  1
  S  S9  1  0.04113312  0.36437653  0.91794661  1
  S  S10  1  0.32324241  0.36437653  0.41794661  1
  S  S11  1  0.04560770  0.67487246  0.41645097  1
  O  O0  1  0.21012887  0.02424905  0.30636230  1
  O  O1  1  0.81532953  0.78810348  0.30177183  1
  O  O2  1  0.97418501  0.18877115  0.30229674  1
  O  O3  1  0.21458615  0.18877115  0.80229674  1
  O  O4  1  0.97277394  0.78810348  0.80177183  1
  O  O5  1  0.81412018  0.02424905  0.80636230  1
  O  O6  1  0.79150761  0.97950441  0.69758602  1
  O  O7  1  0.20284596  0.21767762  0.69872313  1
  O  O8  1  0.02057143  0.80320705  0.69867886  1
  O  O9  1  0.78263562  0.80320705  0.19867886  1
  O  O10  1  0.01483165  0.21767762  0.19872313  1
  O  O11  1  0.18799680  0.97950441  0.19758602  1
  O  O12  1  0.88117371  0.36051055  0.63581871  1
  O  O13  1  0.48701744  0.12422468  0.63237069  1
  O  O14  1  0.64454002  0.52521325  0.64265493  1
  O  O15  1  0.88067423  0.52521325  0.14265493  1
  O  O16  1  0.63720824  0.12422468  0.13237069  1
  O  O17  1  0.47933784  0.36051055  0.13581871  1
  O  O18  1  0.45056698  0.30901352  0.03282519  1
  O  O19  1  0.86081929  0.54186501  0.03395793  1
  O  O20  1  0.68344897  0.13291115  0.02887595  1
  O  O21  1  0.44946318  0.13291115  0.52887595  1
  O  O22  1  0.68104672  0.54186501  0.53395793  1
  O  O23  1  0.85844754  0.30901352  0.53282519  1
  O  O24  1  0.53825231  0.69113280  0.96623293  1
  O  O25  1  0.14333690  0.45016233  0.96882661  1
  O  O26  1  0.30787329  0.85916484  0.97541902  1
  O  O27  1  0.55129056  0.85916484  0.47541902  1
  O  O28  1  0.30682443  0.45016233  0.46882661  1
  O  O29  1  0.15287949  0.69113280  0.46623293  1
  O  O30  1  0.11767577  0.64923983  0.36255571  1
  O  O31  1  0.51872038  0.87813779  0.36786097  1
  O  O32  1  0.34777303  0.46530491  0.36538032  1
  O  O33  1  0.11753089  0.46530491  0.86538032  1
  O  O34  1  0.35941641  0.87813779  0.86786097  1
  O  O35  1  0.53156306  0.64923983  0.86255571  1
  O  O36  1  0.03620122  0.83477819  0.41162627  1
  O  O37  1  0.81366523  0.98208017  0.41092059  1
  O  O38  1  0.17239706  0.18922190  0.41296671  1
  O  O39  1  0.01682484  0.18922190  0.91296671  1
  O  O40  1  0.16841494  0.98208017  0.91092059  1
  O  O41  1  0.79857698  0.83477819  0.91162627  1
  O  O42  1  0.98104793  0.18500204  0.58931076  1
  O  O43  1  0.20477261  0.01616443  0.58888138  1
  O  O44  1  0.81610746  0.81333415  0.58837285  1
  O  O45  1  0.99722669  0.81333415  0.08837285  1
  O  O46  1  0.81139181  0.01616443  0.08888138  1
  O  O47  1  0.20395411  0.18500204  0.08931076  1
  O  O48  1  0.68664963  0.16624801  0.74381730  1
  O  O49  1  0.47536752  0.31626181  0.74635012  1
  O  O50  1  0.83057431  0.53177776  0.74564547  1
  O  O51  1  0.70120445  0.53177776  0.24564547  1
  O  O52  1  0.84089529  0.31626181  0.24635012  1
  O  O53  1  0.47959938  0.16624801  0.24381730  1
  O  O54  1  0.65373947  0.52473177  0.92076126  1
  O  O55  1  0.86512923  0.34133987  0.92213866  1
  O  O56  1  0.49566977  0.14079823  0.92310338  1
  O  O57  1  0.64512946  0.14079823  0.42310338  1
  O  O58  1  0.47621163  0.34133987  0.42213866  1
  O  O59  1  0.87099330  0.52473177  0.42076126  1
  O  O60  1  0.35924679  0.49523810  0.07677867  1
  O  O61  1  0.15057247  0.64965513  0.08121120  1
  O  O62  1  0.50314729  0.86343616  0.07842763  1
  O  O63  1  0.36028787  0.86343616  0.57842763  1
  O  O64  1  0.49908166  0.64965513  0.58121120  1
  O  O65  1  0.13599031  0.49523810  0.57677867  1
  O  O66  1  0.30623404  0.83867136  0.25483459  1
  O  O67  1  0.53461317  0.67269824  0.25569305  1
  O  O68  1  0.14532824  0.46971093  0.25579108  1
  O  O69  1  0.32438169  0.46971093  0.75579108  1
  O  O70  1  0.13808407  0.67269824  0.75569305  1
  O  O71  1  0.53243632  0.83867136  0.75483459  1
loop_
_geom_bond_atom_site_label_1
_geom_bond_atom_site_label_2
_geom_bond_distance
_geom_bond_site_symmetry_2
Na0 O51 2.403851 1_455
Na0 O66 2.434747 1_555
Na0 O68 2.484464 1_555
Na0 O52 2.535722 1_455
Na0 O15 2.581030 1_455
Na0 O11 2.848165 1_555
Na0 O30 2.963958 1_555
Na0 O1 2.976011 1_455
Na1 O50 2.403860 1_555
Na1 O71 2.434754 1_555
Na1 O69 2.484471 1_555
Na1 O49 2.535722 1_555
Na1 O14 2.581032 1_555
Na1 O6 2.848165 1_555
Na1 O35 2.963961 1_555
Na1 O4 2.976010 1_555
Na2 O44 2.372957 1_555
Na2 O64 2.404579 1_555
Na2 O63 2.408411 1_555
Na2 O42 2.605177 1_565
Na2 O27 2.609281 1_555
Na2 O13 2.939435 1_565
Na2 O23 2.957536 1_565
Na2 O6 2.967492 1_555
Na3 O45 2.372965 1_455
Na3 O61 2.404578 1_555
Na3 O62 2.408394 1_555
Na3 O47 2.605183 1_565
Na3 O26 2.609277 1_554
Na3 O16 2.939435 1_565
Na3 O18 2.957536 1_565
Na3 O11 2.967495 1_555
Na4 O41 2.391194 1_545
Na4 O56 2.471326 1_555
Na4 O55 2.477029 1_555
Na4 O39 2.568627 1_655
Na4 O5 2.678562 1_555
Na4 O34 2.788935 1_545
Na4 O24 2.927441 1_545
Na4 O20 2.940966 1_556
Na5 O36 2.391187 1_545
Na5 O57 2.471343 1_555
Na5 O58 2.477028 1_555
Na5 O38 2.568619 1_555
Na5 O0 2.678558 1_555
Na5 O31 2.788935 1_545
Na5 O29 2.927441 1_545
Na5 O21 2.940970 1_555
Na6 O37 2.436154 1_555
Na6 O36 2.566847 1_655
Na6 O38 2.583816 1_665
Na6 O44 2.680975 1_555
Na6 O42 2.855321 1_565
Na6 O43 2.941843 1_665
Na7 O40 2.436154 1_555
Na7 O41 2.566847 1_455
Na7 O39 2.583816 1_565
Na7 O45 2.680975 1_456
Na7 O47 2.855321 1_566
Na7 O46 2.941843 1_466
Na8 O48 2.447757 1_555
Na8 O49 2.517264 1_555
Na8 O50 2.611770 1_555
Na8 O56 2.695258 1_555
Na8 O55 2.839470 1_555
Na8 O54 2.919676 1_555
Na9 O53 2.447757 1_555
Na9 O52 2.517264 1_555
Na9 O51 2.611770 1_555
Na9 O57 2.695258 1_555
Na9 O58 2.839470 1_555
Na9 O59 2.919676 1_555
Na10 O61 2.462051 1_555
Na10 O60 2.549211 1_555
Na10 O62 2.568411 1_555
Na10 O68 2.785167 1_555
Na10 O66 2.811656 1_555
Na10 O67 2.837339 1_555
Na11 O64 2.462051 1_555
Na11 O65 2.549211 1_555
Na11 O63 2.568411 1_555
Na11 O69 2.785167 1_555
Na11 O71 2.811656 1_555
Na11 O70 2.837339 1_555
Mg0 O2 2.068043 1_555
Mg0 O37 2.096937 1_545
Mg0 O1 2.127652 1_545
Mg0 O0 2.146425 1_655
Mg0 O38 2.216174 1_655
Mg0 O36 2.279588 1_645
Mg1 O3 2.068043 1_555
Mg1 O40 2.096937 1_545
Mg1 O4 2.127652 1_445
Mg1 O5 2.146425 1_455
Mg1 O39 2.216174 1_555
Mg1 O41 2.279588 1_445
Mg2 O48 2.107291 1_555
Mg2 O13 2.107418 1_555
Mg2 O14 2.107555 1_555
Mg2 O12 2.121371 1_555
Mg2 O50 2.241144 1_555
Mg2 O49 2.249334 1_555
Mg3 O53 2.107291 1_555
Mg3 O16 2.107418 1_555
Mg3 O15 2.107555 1_555
Mg3 O17 2.121371 1_555
Mg3 O51 2.241144 1_555
Mg3 O52 2.249334 1_555
Mg4 O26 2.033945 1_554
Mg4 O25 2.070810 1_554
Mg4 O61 2.081120 1_555
Mg4 O24 2.254322 1_554
Mg4 O60 2.254517 1_555
Mg4 O62 2.302308 1_555
Mg5 O27 2.033945 1_555
Mg5 O28 2.070810 1_555
Mg5 O64 2.081120 1_555
Mg5 O29 2.254322 1_555
Mg5 O65 2.254517 1_555
Mg5 O63 2.302308 1_555
O0 P0 1.550391 1_555
O1 S0 1.481359 1_555
O2 S1 1.477126 1_555
O3 S2 1.477126 1_555
O4 S3 1.481359 1_555
O5 P1 1.550391 1_555
O6 P1 1.564396 1_565
O6 Y0 2.141453 1_655
O7 S2 1.472660 1_555
O7 Y0 2.231995 1_545
O8 S3 1.479349 1_455
O8 Y0 2.192118 1_555
O9 S0 1.479349 1_555
O9 Y1 2.192118 1_555
O10 S1 1.472660 1_455
O10 Y1 2.231995 1_445
O11 P0 1.564396 1_565
O11 Y1 2.141453 1_455
O12 S4 1.480329 1_555
O13 S5 1.482273 1_555
O14 P2 1.543386 1_555
O15 P3 1.543386 1_555
O16 S6 1.482273 1_555
O17 S7 1.480329 1_555
O18 S7 1.493973 1_555
O18 Y2 2.198855 1_554
O19 P3 1.541464 1_555
O19 Y2 2.112850 1_554
O20 S6 1.491039 1_555
O20 Y2 2.254120 1_554
O21 S5 1.491039 1_555
O21 Y3 2.254120 1_555
O22 P2 1.541464 1_555
O22 Y3 2.112850 1_555
O23 S4 1.493973 1_555
O23 Y3 2.198855 1_555
O24 S8 1.475936 1_555
O25 S9 1.468508 1_555
O26 P4 1.547969 1_555
O27 P5 1.547969 1_555
O28 S10 1.468508 1_555
O29 S11 1.475936 1_555
O30 S11 1.489418 1_555
O30 Y4 2.247951 1_555
O31 P5 1.560007 1_555
O31 Y4 2.095540 1_555
O32 S10 1.472692 1_555
O32 Y4 2.237481 1_555
O33 S9 1.472692 1_555
O33 Y5 2.237481 1_555
O34 P4 1.560007 1_555
O34 Y5 2.095540 1_555
O35 S8 1.489418 1_555
O35 Y5 2.247951 1_555
O36 S11 1.493858 1_555
O37 P5 1.537856 1_555
O38 S10 1.489326 1_555
O39 S9 1.489330 1_555
O40 P4 1.537847 1_555
O41 S8 1.493863 1_555
O42 S4 1.506571 1_555
O42 Y0 2.253932 1_645
O43 S5 1.478528 1_555
O43 Y0 2.270242 1_545
O44 P2 1.578403 1_555
O44 Y0 2.199300 1_655
O45 P3 1.578406 1_555
O45 Y1 2.199300 1_555
O46 S6 1.478519 1_555
O46 Y1 2.270242 1_545
O47 S7 1.506576 1_555
O47 Y1 2.253932 1_445
O48 P1 1.537390 1_555
O49 S2 1.488926 1_555
O50 S3 1.488148 1_555
O51 S0 1.488152 1_555
O52 S1 1.488917 1_555
O53 P0 1.537395 1_555
O54 S8 1.484511 1_555
O54 Y2 2.226010 1_555
O55 S9 1.509881 1_655
O55 Y2 2.275301 1_555
O56 P4 1.572623 1_545
O56 Y2 2.232991 1_555
O57 P5 1.572614 1_545
O57 Y3 2.232991 1_555
O58 S10 1.509899 1_555
O58 Y3 2.275301 1_555
O59 S11 1.484500 1_655
O59 Y3 2.226010 1_555
O60 S7 1.459667 1_555
O61 P3 1.558084 1_455
O62 S6 1.488593 1_565
O63 S5 1.488585 1_565
O64 P2 1.558102 1_555
O65 S4 1.459656 1_455
O66 P0 1.580594 1_565
O66 Y4 2.190982 1_555
O67 S0 1.481837 1_555
O67 Y4 2.227321 1_555
O68 S1 1.502470 1_455
O68 Y4 2.321068 1_555
O69 S2 1.502473 1_555
O69 Y5 2.321068 1_555
O70 S3 1.481828 1_455
O70 Y5 2.227321 1_555
O71 P1 1.580598 1_565
O71 Y5 2.190982 1_555
