# generated using pymatgen
data_K4CdCl6
_symmetry_space_group_name_H-M   'P 1'
_cell_length_a   8.57902814
_cell_length_b   8.57902814
_cell_length_c   8.57902791
_cell_angle_alpha   89.82102466
_cell_angle_beta   89.82102466
_cell_angle_gamma   89.82101400
_symmetry_Int_Tables_number   1
_chemical_formula_structural   K4CdCl6
_chemical_formula_sum   'K8 Cd2 Cl12'
_cell_volume   631.40486154
_cell_formula_units_Z   2
loop_
 _symmetry_equiv_pos_site_id
 _symmetry_equiv_pos_as_xyz
  1  'x, y, z'
loop_
 _atom_site_type_symbol
 _atom_site_label
 _atom_site_symmetry_multiplicity
 _atom_site_fract_x
 _atom_site_fract_y
 _atom_site_fract_z
 _atom_site_occupancy
  K  K0  1  0.25000000  0.25000000  0.25000000  1
  K  K1  1  0.75000000  0.75000000  0.75000000  1
  K  K2  1  0.75000000  0.12691838  0.37308162  1
  K  K3  1  0.37308162  0.75000000  0.12691838  1
  K  K4  1  0.12691838  0.37308162  0.75000000  1
  K  K5  1  0.25000000  0.87308162  0.62691838  1
  K  K6  1  0.62691838  0.25000000  0.87308162  1
  K  K7  1  0.87308162  0.62691838  0.25000000  1
  Cd  Cd0  1  -0.00000000  -0.00000000  0.00000000  1
  Cd  Cd1  1  0.50000000  0.50000000  0.50000000  1
  Cl  Cl0  1  0.44265563  0.57056299  0.79521012  1
  Cl  Cl1  1  0.79521012  0.44265563  0.57056299  1
  Cl  Cl2  1  0.57056299  0.79521012  0.44265563  1
  Cl  Cl3  1  0.05734437  0.70478988  0.92943701  1
  Cl  Cl4  1  0.92943701  0.05734437  0.70478988  1
  Cl  Cl5  1  0.70478988  0.92943701  0.05734437  1
  Cl  Cl6  1  0.55734437  0.42943701  0.20478988  1
  Cl  Cl7  1  0.20478988  0.55734437  0.42943701  1
  Cl  Cl8  1  0.42943701  0.20478988  0.55734437  1
  Cl  Cl9  1  0.94265563  0.29521012  0.07056299  1
  Cl  Cl10  1  0.29521012  0.07056299  0.94265563  1
  Cl  Cl11  1  0.07056299  0.94265563  0.29521012  1
loop_
_geom_bond_atom_site_label_1
_geom_bond_atom_site_label_2
_geom_bond_distance
_geom_bond_site_symmetry_2
Cd0 Cl3 2.650012 1_544
Cd0 Cl9 2.650012 1_455
Cd0 Cl4 2.650012 1_454
Cd0 Cl11 2.650012 1_545
Cd0 Cl5 2.650012 1_445
Cd0 Cl10 2.650012 1_554
Cd1 Cl1 2.650012 1_555
Cd1 Cl7 2.650012 1_555
Cd1 Cl6 2.650012 1_555
Cd1 Cl0 2.650012 1_555
Cd1 Cl2 2.650012 1_555
Cd1 Cl8 2.650012 1_555
Cl0 K1 3.080208 1_555
Cl0 K4 3.224475 1_555
Cl0 K6 3.236716 1_555
Cl0 K3 3.291690 1_556
Cl0 K5 3.393612 1_555
Cl1 K1 3.080208 1_555
Cl1 K2 3.224475 1_555
Cl1 K7 3.236717 1_555
Cl1 K4 3.291690 1_655
Cl1 K6 3.393613 1_555
Cl2 K1 3.080208 1_555
Cl2 K3 3.224475 1_555
Cl2 K5 3.236716 1_555
Cl2 K2 3.291690 1_565
Cl2 K7 3.393612 1_555
Cl3 K1 3.080208 1_455
Cl3 K3 3.224475 1_556
Cl3 K7 3.236717 1_456
Cl3 K4 3.291690 1_555
Cl3 K5 3.393613 1_555
Cl4 K1 3.080208 1_545
Cl4 K4 3.224475 1_655
Cl4 K5 3.236716 1_645
Cl4 K2 3.291690 1_555
Cl4 K6 3.393612 1_555
Cl5 K1 3.080208 1_554
Cl5 K2 3.224475 1_565
Cl5 K6 3.236716 1_564
Cl5 K3 3.291690 1_555
Cl5 K7 3.393612 1_555
Cl6 K0 3.080208 1_555
Cl6 K7 3.224475 1_555
Cl6 K3 3.236716 1_555
Cl6 K6 3.291690 1_554
Cl6 K2 3.393612 1_555
Cl7 K0 3.080208 1_555
Cl7 K5 3.224475 1_555
Cl7 K4 3.236717 1_555
Cl7 K7 3.291690 1_455
Cl7 K3 3.393613 1_555
Cl8 K0 3.080208 1_555
Cl8 K6 3.224475 1_555
Cl8 K2 3.236716 1_555
Cl8 K5 3.291690 1_545
Cl8 K4 3.393612 1_555
Cl9 K0 3.080208 1_655
Cl9 K6 3.224475 1_554
Cl9 K4 3.236717 1_654
Cl9 K7 3.291690 1_555
Cl9 K2 3.393613 1_555
Cl10 K0 3.080208 1_556
Cl10 K5 3.224475 1_545
Cl10 K3 3.236716 1_546
Cl10 K6 3.291690 1_555
Cl10 K4 3.393612 1_555
Cl11 K0 3.080208 1_565
Cl11 K7 3.224475 1_455
Cl11 K2 3.236716 1_465
Cl11 K5 3.291690 1_555
Cl11 K3 3.393612 1_555
