# generated using pymatgen
data_Fe2(MoO4)3
_symmetry_space_group_name_H-M   'P 1'
_cell_length_a   9.46320500
_cell_length_b   9.54811700
_cell_length_c   13.18288500
_cell_angle_alpha   90.00000000
_cell_angle_beta   90.00000000
_cell_angle_gamma   90.00000000
_symmetry_Int_Tables_number   1
_chemical_formula_structural   Fe2(MoO4)3
_chemical_formula_sum   'Fe8 Mo12 O48'
_cell_volume   1191.14996934
_cell_formula_units_Z   4
loop_
 _symmetry_equiv_pos_site_id
 _symmetry_equiv_pos_as_xyz
  1  'x, y, z'
loop_
 _atom_site_type_symbol
 _atom_site_label
 _atom_site_symmetry_multiplicity
 _atom_site_fract_x
 _atom_site_fract_y
 _atom_site_fract_z
 _atom_site_occupancy
  Fe  Fe0  1  0.74997600  0.46585100  0.38096700  1
  Fe  Fe1  1  0.74997600  0.03414900  0.61903300  1
  Fe  Fe2  1  0.75002400  0.96585100  0.11903300  1
  Fe  Fe3  1  0.75002400  0.53414900  0.88096700  1
  Fe  Fe4  1  0.25002400  0.53414900  0.61903300  1
  Fe  Fe5  1  0.25002400  0.96585100  0.38096700  1
  Fe  Fe6  1  0.24997600  0.03414900  0.88096700  1
  Fe  Fe7  1  0.24997600  0.46585100  0.11903300  1
  Mo  Mo0  1  0.52665900  0.75000000  0.50000000  1
  Mo  Mo1  1  0.02665900  0.75000000  0.00000000  1
  Mo  Mo2  1  0.47334100  0.25000000  0.50000000  1
  Mo  Mo3  1  0.97334100  0.25000000  0.00000000  1
  Mo  Mo4  1  0.89478800  0.11632600  0.35526300  1
  Mo  Mo5  1  0.89478800  0.38367400  0.64473700  1
  Mo  Mo6  1  0.60521200  0.61632600  0.14473700  1
  Mo  Mo7  1  0.60521200  0.88367400  0.85526300  1
  Mo  Mo8  1  0.10521200  0.88367400  0.64473700  1
  Mo  Mo9  1  0.10521200  0.61632600  0.35526300  1
  Mo  Mo10  1  0.39478800  0.38367400  0.85526300  1
  Mo  Mo11  1  0.39478800  0.11632600  0.14473700  1
  O  O0  1  0.35978000  0.29809400  0.16869800  1
  O  O1  1  0.35978000  0.20190600  0.83130200  1
  O  O2  1  0.14022000  0.79809400  0.33130200  1
  O  O3  1  0.14022000  0.70190600  0.66869800  1
  O  O4  1  0.64022000  0.70190600  0.83130200  1
  O  O5  1  0.64022000  0.79809400  0.16869800  1
  O  O6  1  0.85978000  0.20190600  0.66869800  1
  O  O7  1  0.85978000  0.29809400  0.33130200  1
  O  O8  1  0.32057900  0.07037100  0.02465300  1
  O  O9  1  0.32057900  0.42962900  0.97534700  1
  O  O10  1  0.17942100  0.57037100  0.47534700  1
  O  O11  1  0.17942100  0.92962900  0.52465300  1
  O  O12  1  0.67942100  0.92962900  0.97534700  1
  O  O13  1  0.67942100  0.57037100  0.02465300  1
  O  O14  1  0.82057900  0.42962900  0.52465300  1
  O  O15  1  0.82057900  0.07037100  0.47534700  1
  O  O16  1  0.91666000  0.66177500  0.90953800  1
  O  O17  1  0.08334000  0.16177500  0.90953800  1
  O  O18  1  0.41666000  0.83822500  0.40953800  1
  O  O19  1  0.41666000  0.66177500  0.59046200  1
  O  O20  1  0.58256500  0.09087300  0.14156600  1
  O  O21  1  0.58256500  0.40912700  0.85843400  1
  O  O22  1  0.91743500  0.59087300  0.35843400  1
  O  O23  1  0.91743500  0.90912700  0.64156600  1
  O  O24  1  0.41743500  0.90912700  0.85843400  1
  O  O25  1  0.41743500  0.59087300  0.14156600  1
  O  O26  1  0.08256500  0.40912700  0.64156600  1
  O  O27  1  0.08256500  0.09087300  0.35843400  1
  O  O28  1  0.86462700  0.12686900  0.06619700  1
  O  O29  1  0.86462700  0.37313100  0.93380300  1
  O  O30  1  0.63537300  0.62686900  0.43380300  1
  O  O31  1  0.63537300  0.87313100  0.56619700  1
  O  O32  1  0.13537300  0.87313100  0.93380300  1
  O  O33  1  0.13537300  0.62686900  0.06619700  1
  O  O34  1  0.36462700  0.37313100  0.56619700  1
  O  O35  1  0.36462700  0.12686900  0.43380300  1
  O  O36  1  0.81780100  0.00763600  0.25893300  1
  O  O37  1  0.81780100  0.49236400  0.74106700  1
  O  O38  1  0.68219900  0.50763600  0.24106700  1
  O  O39  1  0.68219900  0.99236400  0.75893300  1
  O  O40  1  0.18219900  0.99236400  0.74106700  1
  O  O41  1  0.18219900  0.50763600  0.25893300  1
  O  O42  1  0.31780100  0.49236400  0.75893300  1
  O  O43  1  0.31780100  0.00763600  0.24106700  1
  O  O44  1  0.58334000  0.33822500  0.40953800  1
  O  O45  1  0.58334000  0.16177500  0.59046200  1
  O  O46  1  0.91666000  0.83822500  0.09046200  1
  O  O47  1  0.08334000  0.33822500  0.09046200  1
loop_
_geom_bond_atom_site_label_1
_geom_bond_atom_site_label_2
_geom_bond_distance
_geom_bond_site_symmetry_2
Fe0 O38 1.992973 1_555
Fe0 O22 2.006113 1_555
Fe0 O30 2.006235 1_555
Fe0 O7 2.018425 1_555
Fe0 O44 2.028169 1_555
Fe0 O14 2.038134 1_555
Fe1 O39 1.992973 1_545
Fe1 O23 2.006113 1_545
Fe1 O31 2.006235 1_545
Fe1 O6 2.018425 1_555
Fe1 O45 2.028169 1_555
Fe1 O15 2.038134 1_555
Fe2 O36 1.992973 1_565
Fe2 O20 2.006113 1_565
Fe2 O28 2.006235 1_565
Fe2 O5 2.018425 1_555
Fe2 O46 2.028169 1_555
Fe2 O12 2.038134 1_554
Fe3 O37 1.992973 1_555
Fe3 O21 2.006113 1_555
Fe3 O29 2.006235 1_555
Fe3 O4 2.018425 1_555
Fe3 O16 2.028169 1_555
Fe3 O13 2.038134 1_556
Fe4 O42 1.992973 1_555
Fe4 O26 2.006113 1_555
Fe4 O34 2.006235 1_555
Fe4 O3 2.018425 1_555
Fe4 O19 2.028169 1_555
Fe4 O10 2.038134 1_555
Fe5 O43 1.992973 1_565
Fe5 O27 2.006113 1_565
Fe5 O35 2.006235 1_565
Fe5 O2 2.018425 1_555
Fe5 O18 2.028169 1_555
Fe5 O11 2.038134 1_555
Fe6 O40 1.992973 1_545
Fe6 O24 2.006113 1_545
Fe6 O32 2.006235 1_545
Fe6 O1 2.018425 1_555
Fe6 O17 2.028169 1_555
Fe6 O8 2.038134 1_556
Fe7 O41 1.992973 1_555
Fe7 O25 2.006113 1_555
Fe7 O33 2.006235 1_555
Fe7 O0 2.018425 1_555
Fe7 O47 2.028169 1_555
Fe7 O9 2.038134 1_554
Mo0 O31 1.789453 1_555
Mo0 O30 1.789453 1_555
Mo0 O19 1.793139 1_555
Mo0 O18 1.793139 1_555
Mo1 O33 1.789453 1_555
Mo1 O32 1.789453 1_554
Mo1 O46 1.793139 1_455
Mo1 O16 1.793139 1_454
Mo2 O34 1.789453 1_555
Mo2 O35 1.789453 1_555
Mo2 O45 1.793139 1_555
Mo2 O44 1.793139 1_555
Mo3 O28 1.789453 1_555
Mo3 O29 1.789453 1_554
Mo3 O47 1.793139 1_655
Mo3 O17 1.793139 1_654
Mo4 O15 1.786547 1_555
Mo4 O27 1.794001 1_655
Mo4 O36 1.794558 1_555
Mo4 O7 1.794891 1_555
Mo5 O14 1.786547 1_555
Mo5 O26 1.794001 1_655
Mo5 O37 1.794558 1_555
Mo5 O6 1.794891 1_555
Mo6 O13 1.786547 1_555
Mo6 O25 1.794001 1_555
Mo6 O38 1.794558 1_555
Mo6 O5 1.794891 1_555
Mo7 O12 1.786547 1_555
Mo7 O24 1.794001 1_555
Mo7 O39 1.794558 1_555
Mo7 O4 1.794891 1_555
Mo8 O11 1.786547 1_555
Mo8 O23 1.794001 1_455
Mo8 O40 1.794558 1_555
Mo8 O3 1.794891 1_555
Mo9 O10 1.786547 1_555
Mo9 O22 1.794001 1_455
Mo9 O41 1.794558 1_555
Mo9 O2 1.794891 1_555
Mo10 O9 1.786547 1_555
Mo10 O21 1.794001 1_555
Mo10 O42 1.794558 1_555
Mo10 O1 1.794891 1_555
Mo11 O8 1.786547 1_555
Mo11 O20 1.794001 1_555
Mo11 O43 1.794558 1_555
Mo11 O0 1.794891 1_555
