# generated using pymatgen
data_Ag3AuS2
_symmetry_space_group_name_H-M   'P 1'
_cell_length_a   9.87438500
_cell_length_b   9.87438500
_cell_length_c   9.87438500
_cell_angle_alpha   90.00000000
_cell_angle_beta   90.00000000
_cell_angle_gamma   90.00000000
_symmetry_Int_Tables_number   1
_chemical_formula_structural   Ag3AuS2
_chemical_formula_sum   'Ag24 Au8 S16'
_cell_volume   962.78689175
_cell_formula_units_Z   8
loop_
 _symmetry_equiv_pos_site_id
 _symmetry_equiv_pos_as_xyz
  1  'x, y, z'
loop_
 _atom_site_type_symbol
 _atom_site_label
 _atom_site_symmetry_multiplicity
 _atom_site_fract_x
 _atom_site_fract_y
 _atom_site_fract_z
 _atom_site_occupancy
  Ag  Ag0  1  0.25149700  0.38422200  0.00094000  1
  Ag  Ag1  1  0.49906000  0.74850300  0.88422200  1
  Ag  Ag2  1  0.75149700  0.11577800  0.99906000  1
  Ag  Ag3  1  0.00094000  0.25149700  0.38422200  1
  Ag  Ag4  1  0.24850300  0.61577800  0.50094000  1
  Ag  Ag5  1  0.74850300  0.88422200  0.49906000  1
  Ag  Ag6  1  0.50094000  0.24850300  0.61577800  1
  Ag  Ag7  1  0.88422200  0.49906000  0.74850300  1
  Ag  Ag8  1  0.61577800  0.50094000  0.24850300  1
  Ag  Ag9  1  0.11577800  0.99906000  0.75149700  1
  Ag  Ag10  1  0.75094000  0.63422200  0.99850300  1
  Ag  Ag11  1  0.74906000  0.36577800  0.49850300  1
  Ag  Ag12  1  0.50149700  0.24906000  0.13422200  1
  Ag  Ag13  1  0.49850300  0.74906000  0.36577800  1
  Ag  Ag14  1  0.86577800  0.00149700  0.25094000  1
  Ag  Ag15  1  0.36577800  0.49850300  0.74906000  1
  Ag  Ag16  1  0.24906000  0.13422200  0.50149700  1
  Ag  Ag17  1  0.99850300  0.75094000  0.63422200  1
  Ag  Ag18  1  0.00149700  0.25094000  0.86577800  1
  Ag  Ag19  1  0.13422200  0.50149700  0.24906000  1
  Ag  Ag20  1  0.63422200  0.99850300  0.75094000  1
  Ag  Ag21  1  0.38422200  0.00094000  0.25149700  1
  Ag  Ag22  1  0.99906000  0.75149700  0.11577800  1
  Ag  Ag23  1  0.25094000  0.86577800  0.00149700  1
  Au  Au0  1  0.62205600  0.62205600  0.62205600  1
  Au  Au1  1  0.87205600  0.62794400  0.37205600  1
  Au  Au2  1  0.62794400  0.37205600  0.87205600  1
  Au  Au3  1  0.37205600  0.87205600  0.62794400  1
  Au  Au4  1  0.12205600  0.87794400  0.37794400  1
  Au  Au5  1  0.87794400  0.37794400  0.12205600  1
  Au  Au6  1  0.37794400  0.12205600  0.87794400  1
  Au  Au7  1  0.12794400  0.12794400  0.12794400  1
  S  S0  1  0.76082900  0.76082900  0.76082900  1
  S  S1  1  0.01082900  0.48917100  0.51082900  1
  S  S2  1  0.48917100  0.51082900  0.01082900  1
  S  S3  1  0.51082900  0.01082900  0.48917100  1
  S  S4  1  0.26082900  0.73917100  0.23917100  1
  S  S5  1  0.73917100  0.23917100  0.26082900  1
  S  S6  1  0.23917100  0.26082900  0.73917100  1
  S  S7  1  0.98917100  0.98917100  0.98917100  1
  S  S8  1  0.76647100  0.23352900  0.73352900  1
  S  S9  1  0.23352900  0.73352900  0.76647100  1
  S  S10  1  0.98352900  0.01647100  0.51647100  1
  S  S11  1  0.01647100  0.51647100  0.98352900  1
  S  S12  1  0.51647100  0.98352900  0.01647100  1
  S  S13  1  0.26647100  0.26647100  0.26647100  1
  S  S14  1  0.48352900  0.48352900  0.48352900  1
  S  S15  1  0.73352900  0.76647100  0.23352900  1
loop_
_geom_bond_atom_site_label_1
_geom_bond_atom_site_label_2
_geom_bond_distance
_geom_bond_site_symmetry_2
Ag0 S2 2.660887 1_555
Ag0 S11 2.668463 1_554
Ag0 S6 2.860178 1_554
Ag0 S13 2.872007 1_555
Ag0 Ag19 2.946977 1_555
Ag0 Ag15 2.955129 1_554
Ag0 Au7 3.076529 1_555
Ag0 Ag12 3.099564 1_555
Ag0 Ag18 3.099564 1_554
Ag0 Au6 3.120179 1_554
Ag1 S2 2.660887 1_556
Ag1 S12 2.668463 1_556
Ag1 S0 2.860178 1_555
Ag1 S9 2.872007 1_555
Ag1 Ag23 2.946977 1_556
Ag1 Ag10 2.955129 1_555
Ag1 Au3 3.076529 1_555
Ag1 Ag15 3.099564 1_555
Ag1 Ag20 3.099564 1_555
Ag1 Au0 3.120179 1_555
Ag2 S7 2.660887 1_545
Ag2 S12 2.668463 1_546
Ag2 S5 2.860178 1_556
Ag2 S8 2.872007 1_555
Ag2 Ag20 2.946977 1_545
Ag2 Au2 3.076529 1_555
Ag2 Au5 3.120179 1_556
Ag3 S1 2.660887 1_555
Ag3 S10 2.668463 1_455
Ag3 S5 2.860178 1_455
Ag3 S13 2.872007 1_555
Ag3 Au7 3.076529 1_555
Ag3 Au5 3.120179 1_455
Ag4 S1 2.660887 1_555
Ag4 S14 2.668463 1_555
Ag4 S4 2.860178 1_555
Ag4 S9 2.872007 1_555
Ag4 Au3 3.076529 1_555
Ag4 Au4 3.120179 1_555
Ag5 S3 2.660887 1_565
Ag5 S10 2.668463 1_565
Ag5 S0 2.860178 1_555
Ag5 S15 2.872007 1_555
Ag5 Au1 3.076529 1_555
Ag5 Au0 3.120179 1_555
Ag6 S3 2.660887 1_555
Ag6 S14 2.668463 1_555
Ag6 S6 2.860178 1_555
Ag6 S8 2.872007 1_555
Ag6 Au2 3.076529 1_555
Ag6 Au6 3.120179 1_555
Ag7 S1 2.660887 1_655
Ag7 S11 2.668463 1_655
Ag7 S0 2.860178 1_555
Ag7 S8 2.872007 1_555
Ag7 Au2 3.076529 1_555
Ag7 Au0 3.120179 1_555
Ag8 S2 2.660887 1_555
Ag8 S14 2.668463 1_555
Ag8 S5 2.860178 1_555
Ag8 S15 2.872007 1_555
Ag8 Au1 3.076529 1_555
Ag8 Au5 3.120179 1_555
Ag9 S7 2.660887 1_455
Ag9 S10 2.668463 1_465
Ag9 S6 2.860178 1_565
Ag9 S9 2.872007 1_555
Ag9 Au3 3.076529 1_555
Ag9 Au6 3.120179 1_565
Ag10 S0 2.660887 1_555
Ag10 S15 2.668463 1_556
Ag10 S2 2.860178 1_556
Ag10 S11 2.872007 1_655
Ag10 Ag22 2.946977 1_556
Ag10 Au5 3.076529 1_556
Ag10 Ag7 3.099564 1_555
Ag10 Ag8 3.099564 1_556
Ag10 Au2 3.120179 1_555
Ag11 S5 2.660887 1_555
Ag11 S8 2.668463 1_555
Ag11 S1 2.860178 1_655
Ag11 S14 2.872007 1_555
Ag11 Ag6 2.946977 1_555
Ag11 Ag3 2.955129 1_655
Ag11 Au0 3.076529 1_555
Ag11 Ag7 3.099564 1_555
Ag11 Ag8 3.099564 1_555
Ag11 Au1 3.120179 1_555
Ag12 S5 2.660887 1_555
Ag12 S13 2.668463 1_555
Ag12 S2 2.860178 1_555
Ag12 S12 2.872007 1_545
Ag12 Ag21 2.946977 1_555
Ag12 Ag8 2.955129 1_555
Ag12 Au6 3.076529 1_554
Ag12 Ag2 3.099564 1_554
Ag12 Au2 3.120179 1_554
Ag13 S4 2.660887 1_555
Ag13 S15 2.668463 1_555
Ag13 S3 2.860178 1_565
Ag13 S14 2.872007 1_555
Ag13 Ag8 2.946977 1_555
Ag13 Ag21 2.955129 1_565
Ag13 Au0 3.076529 1_555
Ag13 Ag5 3.099564 1_555
Ag13 Ag4 3.099564 1_555
Ag13 Au3 3.120179 1_555
Ag14 S5 2.660887 1_555
Ag14 S15 2.668463 1_545
Ag14 S7 2.860178 1_544
Ag14 S10 2.872007 1_555
Ag14 Ag5 2.946977 1_545
Ag14 Ag2 2.955129 1_554
Ag14 Au4 3.076529 1_645
Ag14 Ag22 3.099564 1_545
Ag14 Ag3 3.099564 1_655
Ag14 Au7 3.120179 1_655
Ag15 S6 2.660887 1_555
Ag15 S9 2.668463 1_555
Ag15 S2 2.860178 1_556
Ag15 S14 2.872007 1_555
Ag15 Ag4 2.946977 1_555
Ag15 Au0 3.076529 1_555
Ag15 Ag6 3.099564 1_555
Ag15 Au2 3.120179 1_555
Ag16 S6 2.660887 1_555
Ag16 S13 2.668463 1_555
Ag16 S3 2.860178 1_555
Ag16 S10 2.872007 1_455
Ag16 Ag3 2.946977 1_555
Ag16 Ag6 2.955129 1_555
Ag16 Au4 3.076529 1_545
Ag16 Ag9 3.099564 1_545
Ag16 Ag21 3.099564 1_555
Ag16 Au3 3.120179 1_545
Ag17 S0 2.660887 1_555
Ag17 S9 2.668463 1_655
Ag17 S1 2.860178 1_655
Ag17 S10 2.872007 1_565
Ag17 Ag9 2.946977 1_655
Ag17 Ag7 2.955129 1_555
Ag17 Au4 3.076529 1_655
Ag17 Ag5 3.099564 1_555
Ag17 Ag4 3.099564 1_655
Ag17 Au1 3.120179 1_555
Ag18 S6 2.660887 1_555
Ag18 S8 2.668463 1_455
Ag18 S7 2.860178 1_445
Ag18 S11 2.872007 1_555
Ag18 Ag7 2.946977 1_455
Ag18 Ag9 2.955129 1_545
Ag18 Au5 3.076529 1_456
Ag18 Ag2 3.099564 1_455
Ag18 Au7 3.120179 1_556
Ag19 S4 2.660887 1_555
Ag19 S13 2.668463 1_555
Ag19 S1 2.860178 1_555
Ag19 S11 2.872007 1_554
Ag19 Ag4 2.955129 1_555
Ag19 Au5 3.076529 1_455
Ag19 Ag22 3.099564 1_455
Ag19 Ag3 3.099564 1_555
Ag19 Au1 3.120179 1_455
Ag20 S0 2.660887 1_555
Ag20 S8 2.668463 1_565
Ag20 S3 2.860178 1_565
Ag20 S12 2.872007 1_556
Ag20 Ag5 2.955129 1_555
Ag20 Au6 3.076529 1_565
Ag20 Ag6 3.099564 1_565
Ag20 Au3 3.120179 1_555
Ag21 S3 2.660887 1_555
Ag21 S12 2.668463 1_545
Ag21 S4 2.860178 1_545
Ag21 S13 2.872007 1_555
Ag21 Au7 3.076529 1_555
Ag21 Ag23 3.099564 1_545
Ag21 Au4 3.120179 1_545
Ag22 S7 2.660887 1_554
Ag22 S11 2.668463 1_654
Ag22 S4 2.860178 1_655
Ag22 S15 2.872007 1_555
Ag22 Ag23 2.955129 1_655
Ag22 Au1 3.076529 1_555
Ag22 Au4 3.120179 1_655
Ag23 S4 2.660887 1_555
Ag23 S9 2.668463 1_554
Ag23 S7 2.860178 1_454
Ag23 S12 2.872007 1_555
Ag23 Au6 3.076529 1_564
Ag23 Ag9 3.099564 1_554
Ag23 Au7 3.120179 1_565
Au0 S14 2.369218 1_555
Au0 S0 2.373426 1_555
Au1 S15 2.369218 1_555
Au1 S1 2.373426 1_655
Au2 S8 2.369218 1_555
Au2 S2 2.373426 1_556
Au3 S9 2.369218 1_555
Au3 S3 2.373426 1_565
Au4 S10 2.369218 1_465
Au4 S4 2.373426 1_555
Au5 S11 2.369218 1_654
Au5 S5 2.373426 1_555
Au6 S12 2.369218 1_546
Au6 S6 2.373426 1_555
Au7 S13 2.369218 1_555
Au7 S7 2.373426 1_444
