# generated using pymatgen
data_RbSr2MgNb3O10
_symmetry_space_group_name_H-M   'P 1'
_cell_length_a   4.04889066
_cell_length_b   4.02987247
_cell_length_c   17.03281276
_cell_angle_alpha   90.00000000
_cell_angle_beta   90.00000000
_cell_angle_gamma   90.00000000
_symmetry_Int_Tables_number   1
_chemical_formula_structural   RbSr2MgNb3O10
_chemical_formula_sum   'Rb1 Sr2 Mg1 Nb3 O10'
_cell_volume   277.91611091
_cell_formula_units_Z   1
loop_
 _symmetry_equiv_pos_site_id
 _symmetry_equiv_pos_as_xyz
  1  'x, y, z'
loop_
 _atom_site_type_symbol
 _atom_site_label
 _atom_site_symmetry_multiplicity
 _atom_site_fract_x
 _atom_site_fract_y
 _atom_site_fract_z
 _atom_site_occupancy
  Rb  Rb0  1  0.50000000  0.50000000  0.40396451  1
  Sr  Sr0  1  0.50000000  0.50000000  0.13347748  1
  Sr  Sr1  1  0.50000000  0.50000000  0.87871026  1
  Mg  Mg0  1  0.50000000  0.00000000  0.62619121  1
  Nb  Nb0  1  -0.00000000  -0.00000000  0.00271542  1
  Nb  Nb1  1  -0.00000000  0.00000000  0.25442837  1
  Nb  Nb2  1  0.00000000  0.00000000  0.75784531  1
  O  O0  1  -0.00000000  0.00000000  0.64118282  1
  O  O1  1  0.00000000  0.00000000  0.36188119  1
  O  O2  1  0.50000000  0.00000000  0.75307204  1
  O  O3  1  -0.00000000  0.50000000  0.77642700  1
  O  O4  1  0.50000000  -0.00000000  0.23556134  1
  O  O5  1  0.00000000  0.50000000  0.23426825  1
  O  O6  1  -0.00000000  0.50000000  0.99800776  1
  O  O7  1  0.50000000  0.00000000  0.99984455  1
  O  O8  1  0.00000000  0.00000000  0.11836832  1
  O  O9  1  0.00000000  0.00000000  0.88238717  1
loop_
_geom_bond_atom_site_label_1
_geom_bond_atom_site_label_2
_geom_bond_distance
_geom_bond_site_symmetry_2
Mg0 O0 2.040486 1_655
Mg0 O0 2.040486 1_555
Mg0 O2 2.161137 1_555
Nb0 O8 1.969894 1_555
Nb0 O6 2.016531 1_544
Nb0 O6 2.016531 1_554
Nb0 O7 2.025036 1_554
Nb0 O7 2.025036 1_454
Nb0 O9 2.049529 1_554
Nb1 O1 1.830224 1_555
Nb1 O5 2.043986 1_545
Nb1 O5 2.043986 1_555
Nb1 O4 2.049793 1_455
Nb1 O4 2.049793 1_555
Nb1 O8 2.317485 1_555
Nb2 O0 1.987090 1_555
Nb2 O2 2.026077 1_455
Nb2 O2 2.026077 1_555
Nb2 O3 2.039642 1_555
Nb2 O3 2.039642 1_545
Nb2 O9 2.121298 1_555
O1 Rb0 2.944851 1_545
O1 Rb0 2.944851 1_445
O1 Rb0 2.944851 1_455
O1 Rb0 2.944851 1_555
O2 Sr1 2.939294 1_545
O2 Sr1 2.939294 1_555
O3 Sr1 2.670869 1_555
O3 Sr1 2.670869 1_455
O4 Sr0 2.661448 1_545
O4 Sr0 2.661448 1_555
O5 Sr0 2.654357 1_455
O5 Sr0 2.654357 1_555
O6 Sr1 2.868325 1_455
O6 Sr1 2.868325 1_555
O6 Sr0 3.069628 1_456
O6 Sr0 3.069628 1_556
O7 Sr1 2.883921 1_555
O7 Sr1 2.883921 1_545
O7 Sr0 3.039869 1_556
O7 Sr0 3.039869 1_546
O8 Sr0 2.867852 1_545
O8 Sr0 2.867852 1_455
O8 Sr0 2.867852 1_555
O8 Sr0 2.867852 1_445
O9 Sr1 2.856969 1_455
O9 Sr1 2.856969 1_545
O9 Sr1 2.856969 1_555
O9 Sr1 2.856969 1_445
