# generated using pymatgen
data_MgSi4(MoO6)2
_symmetry_space_group_name_H-M   'P 1'
_cell_length_a   5.36172097
_cell_length_b   7.00231494
_cell_length_c   7.00278423
_cell_angle_alpha   80.81930479
_cell_angle_beta   76.77546753
_cell_angle_gamma   76.76233301
_symmetry_Int_Tables_number   1
_chemical_formula_structural   MgSi4(MoO6)2
_chemical_formula_sum   'Mg1 Si4 Mo2 O12'
_cell_volume   247.54447957
_cell_formula_units_Z   1
loop_
 _symmetry_equiv_pos_site_id
 _symmetry_equiv_pos_as_xyz
  1  'x, y, z'
loop_
 _atom_site_type_symbol
 _atom_site_label
 _atom_site_symmetry_multiplicity
 _atom_site_fract_x
 _atom_site_fract_y
 _atom_site_fract_z
 _atom_site_occupancy
  Mg  Mg0  1  0.74892500  0.57546000  0.42454900  1
  Si  Si0  1  0.25143500  0.18865300  0.36713800  1
  Si  Si1  1  0.24866100  0.63280000  0.81163500  1
  Si  Si2  1  0.74247000  0.36375600  0.17424500  1
  Si  Si3  1  0.75779100  0.82547600  0.63627500  1
  Mo  Mo0  1  0.25008500  0.11429100  0.88567200  1
  Mo  Mo1  1  0.75006100  0.90898000  0.09097700  1
  O  O0  1  0.46639300  0.33617300  0.32649100  1
  O  O1  1  0.03395400  0.67349900  0.66396400  1
  O  O2  1  0.54403000  0.66640800  0.67662300  1
  O  O3  1  0.95608400  0.32374600  0.33339200  1
  O  O4  1  0.21399000  0.09845900  0.59337800  1
  O  O5  1  0.28607800  0.40654400  0.90178000  1
  O  O6  1  0.79266400  0.86229500  0.39698500  1
  O  O7  1  0.70707800  0.60309800  0.13729100  1
  O  O8  1  0.84202700  0.20272200  0.01879700  1
  O  O9  1  0.65813600  0.98110500  0.79718200  1
  O  O10  1  0.34510400  0.04510000  0.18858800  1
  O  O11  1  0.15503400  0.81143900  0.95503900  1
loop_
_geom_bond_atom_site_label_1
_geom_bond_atom_site_label_2
_geom_bond_distance
_geom_bond_site_symmetry_2
Mg0 O2 1.969644 1_555
Mg0 O3 1.971272 1_555
Mg0 O7 2.048597 1_555
Mg0 O6 2.048820 1_555
Mo0 O5 2.121888 1_555
Mo0 O4 2.122006 1_555
Mo0 O8 2.160999 1_456
Mo0 O9 2.161042 1_545
Mo0 O11 2.246309 1_545
Mo0 O10 2.246660 1_556
Mo1 O11 2.161020 1_654
Mo1 O10 2.161288 1_565
Mo1 O7 2.171673 1_555
Mo1 O6 2.171941 1_555
Mo1 O8 2.179008 1_565
Mo1 O9 2.179269 1_554
O0 Si2 1.645682 1_555
O0 Si0 1.666661 1_555
O1 Si3 1.645129 1_455
O1 Si1 1.666206 1_555
O2 Si1 1.694684 1_555
O2 Si3 1.723415 1_555
O3 Si0 1.694778 1_655
O3 Si2 1.723302 1_555
O4 Si0 1.594514 1_555
O5 Si1 1.594378 1_555
O6 Si3 1.627960 1_555
O7 Si2 1.627944 1_555
O8 Si2 1.609840 1_555
O9 Si3 1.610107 1_555
O10 Si0 1.645774 1_555
O11 Si1 1.645538 1_555
