# generated using pymatgen
data_Sr3MgTi2O7
_symmetry_space_group_name_H-M   'P 1'
_cell_length_a   3.93181555
_cell_length_b   3.93526975
_cell_length_c   12.44070174
_cell_angle_alpha   108.09749160
_cell_angle_beta   90.36248263
_cell_angle_gamma   90.04722740
_symmetry_Int_Tables_number   1
_chemical_formula_structural   Sr3MgTi2O7
_chemical_formula_sum   'Sr3 Mg1 Ti2 O7'
_cell_volume   182.96477375
_cell_formula_units_Z   1
loop_
 _symmetry_equiv_pos_site_id
 _symmetry_equiv_pos_as_xyz
  1  'x, y, z'
loop_
 _atom_site_type_symbol
 _atom_site_label
 _atom_site_symmetry_multiplicity
 _atom_site_fract_x
 _atom_site_fract_y
 _atom_site_fract_z
 _atom_site_occupancy
  Sr  Sr0  1  0.20437280  0.38689959  0.59204085  1
  Sr  Sr1  1  0.70940861  0.36096109  0.06990016  1
  Sr  Sr2  1  0.71467130  0.65699187  0.37041050  1
  Mg  Mg0  1  0.19520727  0.67425649  0.87001939  1
  Ti  Ti0  1  0.21230177  0.00740441  0.21885797  1
  Ti  Ti1  1  0.69535202  0.06359616  0.75982942  1
  O  O0  1  0.69561073  0.58143873  0.78616944  1
  O  O1  1  0.73547451  0.85964099  0.58981666  1
  O  O2  1  0.20774085  0.82853237  0.03547194  1
  O  O3  1  0.71202262  0.00590073  0.21668236  1
  O  O4  1  0.21160166  0.50566141  0.21671668  1
  O  O5  1  0.20573674  0.09164165  0.78763554  1
  O  O6  1  0.21716613  0.17707452  0.39269910  1
loop_
_geom_bond_atom_site_label_1
_geom_bond_atom_site_label_2
_geom_bond_distance
_geom_bond_site_symmetry_2
Mg0 O2 1.957064 1_556
Mg0 O5 2.190055 1_565
Mg0 O0 2.194610 1_455
Mg0 O5 2.202190 1_555
Mg0 O0 2.209763 1_555
O0 Ti1 1.960953 1_555
O0 Ti1 2.023330 1_565
O0 Sr0 2.989845 1_555
O0 Sr0 3.055354 1_655
O1 Ti1 2.022968 1_565
O1 Sr2 2.595747 1_555
O1 Sr0 2.626338 1_655
O1 Sr0 2.768089 1_665
O1 Sr0 2.801533 1_555
O1 Sr0 2.939176 1_565
O2 Ti0 2.168541 1_565
O2 Sr1 2.805785 1_465
O2 Sr1 2.808755 1_565
O2 Sr1 2.811134 1_455
O2 Sr1 2.818627 1_555
O3 Ti0 1.965156 1_555
O3 Ti0 1.966999 1_655
O3 Sr1 2.621437 1_555
O3 Sr1 2.626126 1_545
O3 Sr2 2.678464 1_545
O3 Sr2 2.679185 1_555
O4 Ti0 1.966381 1_565
O4 Ti0 1.969218 1_555
O4 Sr1 2.620206 1_455
O4 Sr1 2.625306 1_555
O4 Sr2 2.676899 1_555
O4 Sr2 2.677660 1_455
O5 Ti1 1.955205 1_555
O5 Ti1 2.031250 1_455
O5 Sr0 3.004595 1_555
O5 Sr0 3.069169 1_545
O6 Ti0 2.055676 1_555
O6 Sr0 2.358802 1_555
O6 Sr2 2.784409 1_545
O6 Sr2 2.792160 1_555
O6 Sr2 2.793387 1_445
O6 Sr2 2.805662 1_455
