# generated using pymatgen
data_Na2NbInSi2SO12
_symmetry_space_group_name_H-M   'P 1'
_cell_length_a   9.03241011
_cell_length_b   9.03240981
_cell_length_c   22.92468228
_cell_angle_alpha   89.97336531
_cell_angle_beta   90.02663468
_cell_angle_gamma   119.62777686
_symmetry_Int_Tables_number   1
_chemical_formula_structural   Na2NbInSi2SO12
_chemical_formula_sum   'Na12 Nb6 In6 Si12 S6 O72'
_cell_volume   1625.76557937
_cell_formula_units_Z   6
loop_
 _symmetry_equiv_pos_site_id
 _symmetry_equiv_pos_as_xyz
  1  'x, y, z'
loop_
 _atom_site_type_symbol
 _atom_site_label
 _atom_site_symmetry_multiplicity
 _atom_site_fract_x
 _atom_site_fract_y
 _atom_site_fract_z
 _atom_site_occupancy
  Na  Na0  1  0.98308122  0.62276794  0.24940544  1
  Na  Na1  1  0.37723206  0.01691878  0.74940544  1
  Na  Na2  1  0.64974822  0.95610094  0.58273844  1
  Na  Na3  1  0.04389906  0.35025178  0.08273844  1
  Na  Na4  1  0.31641422  0.28943494  0.91607244  1
  Na  Na5  1  0.71056506  0.68358578  0.41607244  1
  Na  Na6  1  0.00668084  0.99124061  0.49558127  1
  Na  Na7  1  0.00875939  0.99331916  0.99558127  1
  Na  Na8  1  0.67334784  0.32457361  0.82891427  1
  Na  Na9  1  0.67542639  0.32665216  0.32891427  1
  Na  Na10  1  0.34001384  0.65790761  0.16224827  1
  Na  Na11  1  0.34209239  0.65998616  0.66224827  1
  Nb  Nb0  1  -0.00071041  0.00298253  0.64581956  1
  Nb  Nb1  1  0.99701747  0.00071041  0.14581956  1
  Nb  Nb2  1  0.66595659  0.33631553  0.97915256  1
  Nb  Nb3  1  0.66368447  0.33404341  0.47915256  1
  Nb  Nb4  1  0.33262259  0.66964953  0.31248656  1
  Nb  Nb5  1  0.33035047  0.66737741  0.81248656  1
  In  In0  1  0.98869100  0.99745162  0.35120742  1
  In  In1  1  0.00254838  0.01130900  0.85120742  1
  In  In2  1  0.65535800  0.33078462  0.68454042  1
  In  In3  1  0.66921538  0.34464200  0.18454042  1
  In  In4  1  0.32202400  0.66411862  0.01787442  1
  In  In5  1  0.33588138  0.67797600  0.51787442  1
  Si  Si0  1  0.70415097  0.70733871  0.25150606  1
  Si  Si1  1  0.99869939  0.29175628  0.25023999  1
  Si  Si2  1  0.29266129  0.29584903  0.75150606  1
  Si  Si3  1  0.70824372  0.00130061  0.75023999  1
  Si  Si4  1  0.37081797  0.04067171  0.58483906  1
  Si  Si5  1  0.66536639  0.62508928  0.58357299  1
  Si  Si6  1  0.95932829  0.62918203  0.08483906  1
  Si  Si7  1  0.37491072  0.33463361  0.08357299  1
  Si  Si8  1  0.03748397  0.37400571  0.91817306  1
  Si  Si9  1  0.33203239  0.95842328  0.91690699  1
  Si  Si10  1  0.62599429  0.96251603  0.41817306  1
  Si  Si11  1  0.04157672  0.66796761  0.41690699  1
  S  S0  1  0.29088616  0.00073823  0.25001984  1
  S  S1  1  0.99926177  0.70911384  0.75001984  1
  S  S2  1  0.95755316  0.33407123  0.58335284  1
  S  S3  1  0.66592877  0.04244684  0.08335284  1
  S  S4  1  0.62421916  0.66740523  0.91668684  1
  S  S5  1  0.33259477  0.37578084  0.41668684  1
  O  O0  1  0.21800019  0.02563370  0.30324163  1
  O  O1  1  0.82086199  0.77815613  0.30878747  1
  O  O2  1  0.98360540  0.18732387  0.30731415  1
  O  O3  1  0.22184387  0.17913801  0.80878747  1
  O  O4  1  0.97436630  0.78199981  0.80324163  1
  O  O5  1  0.81267613  0.01639460  0.80731415  1
  O  O6  1  0.80205158  0.97289871  0.69083687  1
  O  O7  1  0.16233317  0.18795143  0.69496825  1
  O  O8  1  0.02885141  0.82131962  0.69777218  1
  O  O9  1  0.81204857  0.83766683  0.19496825  1
  O  O10  1  0.02710129  0.19794842  0.19083687  1
  O  O11  1  0.17868038  0.97114859  0.19777218  1
  O  O12  1  0.88466719  0.35896670  0.63657463  1
  O  O13  1  0.48752899  0.11148913  0.64212047  1
  O  O14  1  0.65027240  0.52065687  0.64064715  1
  O  O15  1  0.88851087  0.51247101  0.14212047  1
  O  O16  1  0.64103330  0.11533281  0.13657463  1
  O  O17  1  0.47934313  0.34972760  0.14064715  1
  O  O18  1  0.46871858  0.30623171  0.02416987  1
  O  O19  1  0.82900017  0.52128443  0.02830125  1
  O  O20  1  0.69551841  0.15465262  0.03110518  1
  O  O21  1  0.47871557  0.17099983  0.52830125  1
  O  O22  1  0.69376829  0.53128142  0.52416987  1
  O  O23  1  0.84534738  0.30448159  0.53110518  1
  O  O24  1  0.55133319  0.69230070  0.96990863  1
  O  O25  1  0.15419499  0.44482313  0.97545447  1
  O  O26  1  0.31693840  0.85399087  0.97398115  1
  O  O27  1  0.55517687  0.84580501  0.47545447  1
  O  O28  1  0.30769930  0.44866681  0.46990863  1
  O  O29  1  0.14600913  0.68306160  0.47398115  1
  O  O30  1  0.13538458  0.63956571  0.35750387  1
  O  O31  1  0.49566617  0.85461843  0.36163525  1
  O  O32  1  0.36218441  0.48798662  0.36443918  1
  O  O33  1  0.14538157  0.50433383  0.86163525  1
  O  O34  1  0.36043429  0.86461542  0.85750387  1
  O  O35  1  0.51201338  0.63781559  0.86443918  1
  O  O36  1  0.01431803  0.83126107  0.41127057  1
  O  O37  1  0.81360148  0.98424984  0.41318794  1
  O  O38  1  0.19232245  0.20332537  0.40937503  1
  O  O39  1  0.01575016  0.18639852  0.91318794  1
  O  O40  1  0.16873893  0.98568197  0.91127057  1
  O  O41  1  0.79667463  0.80767755  0.90937503  1
  O  O42  1  0.96157896  0.16741486  0.58709290  1
  O  O43  1  0.18279410  0.03063766  0.59159183  1
  O  O44  1  0.83931468  0.82136441  0.59078159  1
  O  O45  1  0.96936234  0.81720590  0.09159183  1
  O  O46  1  0.83258514  0.03842104  0.08709290  1
  O  O47  1  0.17863559  0.16068532  0.09078159  1
  O  O48  1  0.68098503  0.16459407  0.74460357  1
  O  O49  1  0.48026848  0.31758284  0.74652094  1
  O  O50  1  0.85898945  0.53665837  0.74270803  1
  O  O51  1  0.68241716  0.51973152  0.24652094  1
  O  O52  1  0.83540593  0.31901497  0.24460357  1
  O  O53  1  0.46334163  0.14101055  0.24270803  1
  O  O54  1  0.62824596  0.50074786  0.92042590  1
  O  O55  1  0.84946110  0.36397066  0.92492483  1
  O  O56  1  0.50598168  0.15469741  0.92411459  1
  O  O57  1  0.63602934  0.15053890  0.42492483  1
  O  O58  1  0.49925214  0.37175404  0.42042590  1
  O  O59  1  0.84530259  0.49401832  0.42411459  1
  O  O60  1  0.34765103  0.49792807  0.07793757  1
  O  O61  1  0.14693448  0.65091684  0.07985494  1
  O  O62  1  0.52565545  0.86999237  0.07604203  1
  O  O63  1  0.34908316  0.85306552  0.57985494  1
  O  O64  1  0.50207193  0.65234897  0.57793757  1
  O  O65  1  0.13000763  0.47434455  0.57604203  1
  O  O66  1  0.29491196  0.83408186  0.25375990  1
  O  O67  1  0.51612710  0.69730466  0.25825883  1
  O  O68  1  0.17264768  0.48803141  0.25744859  1
  O  O69  1  0.30269534  0.48387290  0.75825883  1
  O  O70  1  0.16591814  0.70508804  0.75375990  1
  O  O71  1  0.51196859  0.82735232  0.75744859  1
loop_
_geom_bond_atom_site_label_1
_geom_bond_atom_site_label_2
_geom_bond_distance
_geom_bond_site_symmetry_2
Na0 O52 2.387583 1_555
Na0 O51 2.397208 1_555
Na0 O66 2.504141 1_655
Na0 O68 2.550813 1_655
Na0 O15 2.632508 1_555
Na0 O30 2.801317 1_655
Na0 O1 2.829649 1_555
Na0 O11 2.987642 1_655
Na1 O48 2.387583 1_555
Na1 O49 2.397208 1_555
Na1 O70 2.504141 1_545
Na1 O71 2.550813 1_545
Na1 O13 2.632508 1_555
Na1 O34 2.801317 1_545
Na1 O3 2.829649 1_555
Na1 O8 2.987642 1_545
Na2 O64 2.387574 1_555
Na2 O63 2.397217 1_555
Na2 O42 2.504141 1_565
Na2 O44 2.550813 1_555
Na2 O27 2.632486 1_555
Na2 O6 2.801317 1_555
Na2 O13 2.829649 1_565
Na2 O23 2.987642 1_565
Na3 O60 2.387574 1_555
Na3 O61 2.397217 1_555
Na3 O46 2.504141 1_455
Na3 O47 2.550813 1_555
Na3 O25 2.632486 1_554
Na3 O10 2.801317 1_555
Na3 O15 2.829649 1_455
Na3 O20 2.987642 1_455
Na4 O40 2.387583 1_545
Na4 O39 2.397208 1_555
Na4 O54 2.504145 1_555
Na4 O56 2.550827 1_555
Na4 O3 2.632508 1_555
Na4 O18 2.801303 1_556
Na4 O25 2.829649 1_555
Na4 O35 2.987642 1_555
Na5 O36 2.387583 1_655
Na5 O37 2.397208 1_555
Na5 O58 2.504145 1_555
Na5 O59 2.550827 1_555
Na5 O1 2.632508 1_555
Na5 O22 2.801303 1_555
Na5 O27 2.829649 1_555
Na5 O32 2.987642 1_555
Na6 O36 2.435110 1_555
Na6 O37 2.549768 1_455
Na6 O43 2.634253 1_565
Na6 O44 2.666312 1_455
Na6 O38 2.685239 1_565
Na6 O42 2.782813 1_465
Na7 O40 2.435110 1_555
Na7 O39 2.549768 1_565
Na7 O45 2.634253 1_456
Na7 O47 2.666312 1_566
Na7 O41 2.685239 1_455
Na7 O46 2.782813 1_466
Na8 O48 2.435110 1_555
Na8 O49 2.549768 1_555
Na8 O55 2.634253 1_555
Na8 O56 2.666312 1_555
Na8 O50 2.685239 1_555
Na8 O54 2.782813 1_555
Na9 O52 2.435110 1_555
Na9 O51 2.549768 1_555
Na9 O57 2.634253 1_555
Na9 O59 2.666312 1_555
Na9 O53 2.685239 1_555
Na9 O58 2.782813 1_555
Na10 O60 2.435110 1_555
Na10 O61 2.549768 1_555
Na10 O67 2.634253 1_555
Na10 O68 2.666312 1_555
Na10 O62 2.685239 1_555
Na10 O66 2.782813 1_555
Na11 O64 2.435110 1_555
Na11 O63 2.549768 1_555
Na11 O69 2.634253 1_555
Na11 O71 2.666312 1_555
Na11 O65 2.685239 1_555
Na11 O70 2.782813 1_555
Nb0 O7 1.948610 1_555
Nb0 O6 1.958457 1_445
Nb0 O43 1.986796 1_555
Nb0 O44 2.006865 1_445
Nb0 O8 2.147848 1_545
Nb0 O42 2.152278 1_455
Nb1 O9 1.948610 1_545
Nb1 O10 1.958457 1_655
Nb1 O45 1.986796 1_545
Nb1 O47 2.006865 1_655
Nb1 O11 2.147848 1_645
Nb1 O46 2.152278 1_555
Nb2 O19 1.948610 1_556
Nb2 O18 1.958457 1_556
Nb2 O55 1.986796 1_555
Nb2 O56 2.006865 1_555
Nb2 O20 2.147848 1_556
Nb2 O54 2.152278 1_555
Nb3 O21 1.948610 1_555
Nb3 O22 1.958457 1_555
Nb3 O57 1.986796 1_555
Nb3 O59 2.006865 1_555
Nb3 O23 2.147848 1_555
Nb3 O58 2.152278 1_555
Nb4 O31 1.948610 1_555
Nb4 O30 1.958457 1_555
Nb4 O67 1.986796 1_555
Nb4 O68 2.006865 1_555
Nb4 O32 2.147848 1_555
Nb4 O66 2.152278 1_555
Nb5 O33 1.948610 1_555
Nb5 O34 1.958457 1_555
Nb5 O69 1.986796 1_555
Nb5 O71 2.006865 1_555
Nb5 O35 2.147848 1_555
Nb5 O70 2.152278 1_555
In0 O2 2.008011 1_565
In0 O1 2.049073 1_555
In0 O37 2.085590 1_555
In0 O36 2.131701 1_655
In0 O0 2.245978 1_665
In0 O38 2.288527 1_665
In1 O5 2.008011 1_455
In1 O3 2.049073 1_555
In1 O39 2.085590 1_555
In1 O40 2.131701 1_545
In1 O4 2.245978 1_445
In1 O41 2.288527 1_445
In2 O14 2.008011 1_555
In2 O13 2.049073 1_555
In2 O49 2.085590 1_555
In2 O48 2.131701 1_555
In2 O12 2.245978 1_555
In2 O50 2.288527 1_555
In3 O17 2.008011 1_555
In3 O15 2.049073 1_555
In3 O51 2.085590 1_555
In3 O52 2.131701 1_555
In3 O16 2.245978 1_555
In3 O53 2.288527 1_555
In4 O26 2.008011 1_554
In4 O25 2.049073 1_554
In4 O61 2.085590 1_555
In4 O60 2.131701 1_555
In4 O24 2.245978 1_554
In4 O62 2.288527 1_555
In5 O29 2.008011 1_555
In5 O27 2.049073 1_555
In5 O63 2.085590 1_555
In5 O64 2.131701 1_555
In5 O28 2.245978 1_555
In5 O65 2.288527 1_555
O0 S0 1.456011 1_555
O1 Si0 1.605498 1_555
O2 Si1 1.578655 1_555
O3 Si2 1.605498 1_555
O4 S1 1.456011 1_555
O5 Si3 1.578655 1_555
O6 Si3 1.689543 1_565
O7 Si2 1.697318 1_555
O8 S1 1.504850 1_455
O9 Si0 1.697318 1_555
O10 Si1 1.689543 1_455
O11 S0 1.504850 1_565
O12 S2 1.456011 1_555
O13 Si4 1.605498 1_555
O14 Si5 1.578655 1_555
O15 Si6 1.605498 1_555
O16 S3 1.456011 1_555
O17 Si7 1.578655 1_555
O18 Si7 1.689543 1_555
O19 Si6 1.697318 1_555
O20 S3 1.504850 1_555
O21 Si4 1.697318 1_555
O22 Si5 1.689543 1_555
O23 S2 1.504850 1_555
O24 S4 1.456011 1_555
O25 Si8 1.605498 1_555
O26 Si9 1.578655 1_555
O27 Si10 1.605498 1_555
O28 S5 1.456011 1_555
O29 Si11 1.578655 1_555
O30 Si11 1.689543 1_555
O31 Si10 1.697318 1_555
O32 S5 1.504850 1_555
O33 Si8 1.697318 1_555
O34 Si9 1.689543 1_555
O35 S4 1.504850 1_555
O36 Si11 1.616041 1_555
O37 Si10 1.610694 1_555
O38 S5 1.452060 1_555
O39 Si8 1.610694 1_555
O40 Si9 1.616042 1_555
O41 S4 1.452060 1_555
O42 S2 1.525983 1_555
O43 Si4 1.662672 1_555
O44 Si5 1.698483 1_555
O45 Si6 1.662672 1_555
O46 S3 1.525983 1_555
O47 Si7 1.698483 1_555
O48 Si3 1.616041 1_555
O49 Si2 1.610694 1_555
O50 S1 1.452060 1_555
O51 Si0 1.610694 1_555
O52 Si1 1.616042 1_555
O53 S0 1.452060 1_555
O54 S4 1.525996 1_555
O55 Si8 1.662657 1_655
O56 Si9 1.698479 1_545
O57 Si10 1.662656 1_545
O58 S5 1.525996 1_555
O59 Si11 1.698479 1_655
O60 Si7 1.616054 1_555
O61 Si6 1.610680 1_455
O62 S3 1.452055 1_565
O63 Si4 1.610680 1_565
O64 Si5 1.616054 1_555
O65 S2 1.452055 1_455
O66 S0 1.525983 1_565
O67 Si0 1.662672 1_555
O68 Si1 1.698483 1_455
O69 Si2 1.662672 1_555
O70 S1 1.525983 1_455
O71 Si3 1.698483 1_565
