# generated using pymatgen
data_LiTiPO4F
_symmetry_space_group_name_H-M   'P 1'
_cell_length_a   5.24987600
_cell_length_b   5.44137781
_cell_length_c   7.44387277
_cell_angle_alpha   106.69582461
_cell_angle_beta   108.21963809
_cell_angle_gamma   98.78891106
_symmetry_Int_Tables_number   1
_chemical_formula_structural   LiTiPO4F
_chemical_formula_sum   'Li2 Ti2 P2 O8 F2'
_cell_volume   186.46406916
_cell_formula_units_Z   2
loop_
 _symmetry_equiv_pos_site_id
 _symmetry_equiv_pos_as_xyz
  1  'x, y, z'
loop_
 _atom_site_type_symbol
 _atom_site_label
 _atom_site_symmetry_multiplicity
 _atom_site_fract_x
 _atom_site_fract_y
 _atom_site_fract_z
 _atom_site_occupancy
  Li  Li0  1  0.26768800  0.61458800  0.18632200  1
  Li  Li1  1  0.73231200  0.38541200  0.81367800  1
  Ti  Ti0  1  0.00000000  0.00000000  0.00000000  1
  Ti  Ti1  1  0.00000000  0.00000000  0.50000000  1
  P  P0  1  0.32200700  0.63990000  0.76126300  1
  P  P1  1  0.67799300  0.36010000  0.23873700  1
  O  O0  1  0.36752500  0.24588100  0.08917600  1
  O  O1  1  0.69390500  0.65880800  0.34356400  1
  O  O2  1  0.30609500  0.34119200  0.65643600  1
  O  O3  1  0.74467900  0.21643500  0.38876900  1
  O  O4  1  0.63247500  0.75411900  0.91082400  1
  O  O5  1  0.25532100  0.78356500  0.61123100  1
  O  O6  1  0.86670500  0.33857700  0.11230900  1
  O  O7  1  0.13329500  0.66142300  0.88769100  1
  F  F0  1  0.13019300  0.92532200  0.26304900  1
  F  F1  1  0.86980700  0.07467800  0.73695100  1
loop_
_geom_bond_atom_site_label_1
_geom_bond_atom_site_label_2
_geom_bond_distance
_geom_bond_site_symmetry_2
Li0 O1 2.114384 1_555
Li0 O0 2.132492 1_555
Li0 O6 2.196323 1_455
Li0 O7 2.214507 1_554
Li1 O2 2.114384 1_555
Li1 O4 2.132492 1_555
Li1 O7 2.196323 1_655
Li1 O6 2.214507 1_556
O0 P1 1.562217 1_555
O0 Ti0 1.963016 1_555
O1 P1 1.564206 1_555
O1 Ti1 2.015215 1_665
O2 P0 1.564206 1_555
O2 Ti1 2.015215 1_555
O3 P1 1.523726 1_555
O3 Ti1 2.053758 1_655
O4 P0 1.562217 1_555
O4 Ti0 1.963016 1_666
O5 P0 1.523726 1_555
O5 Ti1 2.053758 1_565
O6 P1 1.560797 1_555
O6 Ti0 2.111304 1_655
O7 P0 1.560797 1_555
O7 Ti0 2.111304 1_566
F0 Li0 1.944741 1_555
F0 Ti1 2.042136 1_565
F0 Ti0 2.042452 1_565
F1 Li1 1.944741 1_555
F1 Ti1 2.042136 1_655
F1 Ti0 2.042452 1_656
