# generated using pymatgen
data_MgCo6O7F5
_symmetry_space_group_name_H-M   'P 1'
_cell_length_a   5.07107613
_cell_length_b   7.69759246
_cell_length_c   5.92628481
_cell_angle_alpha   100.89982623
_cell_angle_beta   101.30974253
_cell_angle_gamma   82.10718830
_symmetry_Int_Tables_number   1
_chemical_formula_structural   MgCo6O7F5
_chemical_formula_sum   'Mg1 Co6 O7 F5'
_cell_volume   221.53821022
_cell_formula_units_Z   1
loop_
 _symmetry_equiv_pos_site_id
 _symmetry_equiv_pos_as_xyz
  1  'x, y, z'
loop_
 _atom_site_type_symbol
 _atom_site_label
 _atom_site_symmetry_multiplicity
 _atom_site_fract_x
 _atom_site_fract_y
 _atom_site_fract_z
 _atom_site_occupancy
  Mg  Mg0  1  0.48466819  0.34995664  0.33353831  1
  Co  Co0  1  0.57302901  0.01037803  0.48957217  1
  Co  Co1  1  0.48717636  0.33589137  0.83843853  1
  Co  Co2  1  0.58439483  0.68946645  0.11021297  1
  Co  Co3  1  0.98900406  0.67368869  0.68323351  1
  Co  Co4  1  0.99009060  0.32159145  0.34378415  1
  Co  Co5  1  0.94294074  0.00244496  0.02139510  1
  O  O0  1  0.80228782  0.77248541  0.95477743  1
  O  O1  1  0.78220638  0.11826820  0.29328373  1
  O  O2  1  0.72563453  0.76888258  0.44732317  1
  O  O3  1  0.69389775  0.11352854  0.81059360  1
  O  O4  1  0.68165245  0.43714565  0.12808862  1
  O  O5  1  0.29827377  0.56337156  0.86049158  1
  O  O6  1  0.32429583  0.22821935  0.53922250  1
  F  F0  1  0.77342328  0.44422759  0.60712715  1
  F  F1  1  0.30104422  0.89982838  0.20995025  1
  F  F2  1  0.21092918  0.23267268  0.07223023  1
  F  F3  1  0.15441518  0.89834929  0.75976433  1
  F  F4  1  0.18674381  0.53960017  0.38983167  1
loop_
_geom_bond_atom_site_label_1
_geom_bond_atom_site_label_2
_geom_bond_distance
_geom_bond_site_symmetry_2
Mg0 O4 1.975075 1_555
Mg0 O6 2.013814 1_555
Mg0 O1 2.180692 1_555
Co0 O2 1.903179 1_545
Co0 O3 1.931457 1_555
Co0 O6 1.966594 1_555
Co0 O1 2.063827 1_555
Co0 F1 2.065215 1_545
Co1 O5 1.871571 1_555
Co1 O3 1.877278 1_555
Co1 O4 1.888854 1_556
Co1 O6 1.889783 1_555
Co1 F2 2.448810 1_556
Co1 F0 2.495378 1_555
Co2 O0 1.814827 1_554
Co2 O4 1.954761 1_555
Co2 O2 1.993762 1_555
Co2 O5 2.058843 1_554
Co2 F1 2.090032 1_555
Co3 O5 1.899914 1_655
Co3 O2 1.913523 1_555
Co3 F3 1.962778 1_655
Co3 O0 2.000401 1_555
Co3 F0 2.134016 1_555
Co3 F4 2.194339 1_655
Co4 O1 1.950046 1_555
Co4 O6 1.985124 1_655
Co4 F4 2.016138 1_655
Co4 O4 2.033550 1_555
Co4 F0 2.089143 1_555
Co4 F2 2.095781 1_655
Co5 O3 1.837217 1_554
Co5 O0 1.941648 1_544
Co5 O1 1.956471 1_555
Co5 F3 2.035308 1_644
Co5 F1 2.077086 1_645
Co5 F2 2.318890 1_655
F0 Mg0 2.053105 1_555
F2 Mg0 2.027915 1_555
F4 Mg0 1.983083 1_555
