# generated using pymatgen
data_BaEr2CoO5
_symmetry_space_group_name_H-M   'P 1'
_cell_length_a   5.72195100
_cell_length_b   7.08008200
_cell_length_c   12.28913100
_cell_angle_alpha   90.00000000
_cell_angle_beta   90.00000000
_cell_angle_gamma   90.00000000
_symmetry_Int_Tables_number   1
_chemical_formula_structural   BaEr2CoO5
_chemical_formula_sum   'Ba4 Er8 Co4 O20'
_cell_volume   497.85582840
_cell_formula_units_Z   4
loop_
 _symmetry_equiv_pos_site_id
 _symmetry_equiv_pos_as_xyz
  1  'x, y, z'
loop_
 _atom_site_type_symbol
 _atom_site_label
 _atom_site_symmetry_multiplicity
 _atom_site_fract_x
 _atom_site_fract_y
 _atom_site_fract_z
 _atom_site_occupancy
  Ba  Ba0  1  0.75000000  0.07910600  0.10059500  1
  Ba  Ba1  1  0.75000000  0.42089500  0.60059500  1
  Ba  Ba2  1  0.25000000  0.57910500  0.39940500  1
  Ba  Ba3  1  0.25000000  0.92089500  0.89940500  1
  Er  Er0  1  0.25000000  0.40155400  0.07441600  1
  Er  Er1  1  0.75000000  0.61955800  0.20850600  1
  Er  Er2  1  0.75000000  0.88044200  0.70850600  1
  Er  Er3  1  0.25000000  0.11955900  0.29149400  1
  Er  Er4  1  0.75000000  0.59844600  0.92558400  1
  Er  Er5  1  0.75000000  0.90155400  0.42558400  1
  Er  Er6  1  0.25000000  0.09844500  0.57441600  1
  Er  Er7  1  0.25000000  0.38044100  0.79149400  1
  Co  Co0  1  0.25000000  0.80794100  0.15216300  1
  Co  Co1  1  0.75000000  0.19206000  0.84783700  1
  Co  Co2  1  0.75000000  0.30794000  0.34783700  1
  Co  Co3  1  0.25000000  0.69205900  0.65216300  1
  O  O0  1  0.25000000  0.42193700  0.60264200  1
  O  O1  1  0.75000000  0.57806300  0.39735800  1
  O  O2  1  0.75000000  0.92193700  0.89735800  1
  O  O3  1  0.25000000  0.07806400  0.10264200  1
  O  O4  1  0.00019000  0.86193400  0.27499000  1
  O  O5  1  0.50019000  0.13806600  0.72501000  1
  O  O6  1  0.99981000  0.36193300  0.22501000  1
  O  O7  1  0.49980900  0.63806600  0.77499000  1
  O  O8  1  0.99981000  0.13806600  0.72501000  1
  O  O9  1  0.49980900  0.86193400  0.27499000  1
  O  O10  1  0.00019000  0.63806600  0.77499000  1
  O  O11  1  0.50019000  0.36193300  0.22501000  1
  O  O12  1  0.49737100  0.66469100  0.06594000  1
  O  O13  1  0.99737300  0.33530900  0.93406000  1
  O  O14  1  0.50262800  0.16469100  0.43406000  1
  O  O15  1  0.00262900  0.83530800  0.56594000  1
  O  O16  1  0.99737300  0.16469100  0.43406000  1
  O  O17  1  0.49737100  0.83530800  0.56594000  1
  O  O18  1  0.50262800  0.33530900  0.93406000  1
  O  O19  1  0.00262900  0.66469100  0.06594000  1
loop_
_geom_bond_atom_site_label_1
_geom_bond_atom_site_label_2
_geom_bond_distance
_geom_bond_site_symmetry_2
Ba0 O2 2.734281 1_544
Ba0 O3 2.861096 1_555
Ba0 O3 2.861096 1_655
Ba0 O11 2.896660 1_555
Ba0 O6 2.896660 1_555
Ba0 O4 3.001126 1_645
Ba0 O9 3.001128 1_545
Ba0 O18 3.079338 1_554
Ba0 O13 3.079341 1_554
Ba0 O19 3.298459 1_645
Ba0 O12 3.298459 1_545
Ba1 O1 2.734278 1_555
Ba1 O0 2.861096 1_555
Ba1 O0 2.861096 1_655
Ba1 O5 2.896670 1_555
Ba1 O8 2.896670 1_555
Ba1 O10 3.001122 1_655
Ba1 O7 3.001125 1_555
Ba1 O14 3.079342 1_555
Ba1 O16 3.079345 1_555
Ba1 O15 3.298446 1_655
Ba1 O17 3.298446 1_555
Ba2 O0 2.734278 1_555
Ba2 O1 2.861096 1_555
Ba2 O1 2.861096 1_455
Ba2 O9 2.896667 1_555
Ba2 O4 2.896670 1_555
Ba2 O6 3.001126 1_455
Ba2 O11 3.001126 1_555
Ba2 O17 3.079335 1_555
Ba2 O15 3.079335 1_555
Ba2 O16 3.298447 1_455
Ba2 O14 3.298450 1_555
Ba3 O3 2.734281 1_566
Ba3 O2 2.861096 1_555
Ba3 O2 2.861096 1_455
Ba3 O7 2.896667 1_555
Ba3 O10 2.896670 1_555
Ba3 O8 3.001122 1_465
Ba3 O5 3.001122 1_565
Ba3 O12 3.079340 1_556
Ba3 O19 3.079340 1_556
Ba3 O13 3.298447 1_465
Ba3 O18 3.298450 1_565
Er0 O13 2.298831 1_454
Er0 O18 2.298835 1_554
Er0 O3 2.316454 1_555
Er0 O12 2.342055 1_555
Er0 O19 2.342055 1_555
Er0 O6 2.356496 1_455
Er0 O11 2.356496 1_555
Er1 O19 2.293734 1_655
Er1 O12 2.293734 1_555
Er1 O11 2.326224 1_555
Er1 O6 2.326224 1_555
Er1 O1 2.339348 1_555
Er1 O4 2.379442 1_655
Er1 O9 2.379446 1_555
Er2 O15 2.293735 1_655
Er2 O17 2.293735 1_555
Er2 O5 2.326219 1_565
Er2 O8 2.326219 1_565
Er2 O2 2.339348 1_555
Er2 O10 2.379442 1_655
Er2 O7 2.379446 1_555
Er3 O16 2.293726 1_455
Er3 O14 2.293729 1_555
Er3 O9 2.326221 1_545
Er3 O4 2.326224 1_545
Er3 O3 2.339348 1_555
Er3 O6 2.379432 1_455
Er3 O11 2.379432 1_555
Er4 O19 2.298838 1_656
Er4 O12 2.298838 1_556
Er4 O2 2.316461 1_555
Er4 O18 2.342058 1_555
Er4 O13 2.342062 1_555
Er4 O10 2.356496 1_655
Er4 O7 2.356499 1_555
Er5 O15 2.298840 1_655
Er5 O17 2.298840 1_555
Er5 O1 2.316461 1_555
Er5 O14 2.342058 1_565
Er5 O16 2.342062 1_565
Er5 O4 2.356496 1_655
Er5 O9 2.356499 1_555
Er6 O16 2.298833 1_455
Er6 O14 2.298836 1_555
Er6 O0 2.316468 1_555
Er6 O17 2.342055 1_545
Er6 O15 2.342055 1_545
Er6 O8 2.356496 1_455
Er6 O5 2.356496 1_555
Er7 O13 2.293726 1_455
Er7 O18 2.293729 1_555
Er7 O7 2.326221 1_555
Er7 O10 2.326224 1_555
Er7 O0 2.339349 1_555
Er7 O8 2.379437 1_455
Er7 O5 2.379437 1_555
Co0 O3 2.006985 1_565
Co0 O12 2.038356 1_555
Co0 O19 2.038356 1_555
Co0 O9 2.113694 1_555
Co0 O4 2.113698 1_555
Co1 O2 2.006985 1_545
Co1 O18 2.038356 1_555
Co1 O13 2.038360 1_555
Co1 O5 2.113700 1_555
Co1 O8 2.113700 1_555
Co2 O1 2.006985 1_555
Co2 O14 2.038356 1_555
Co2 O16 2.038360 1_555
Co2 O11 2.113698 1_555
Co2 O6 2.113698 1_555
Co3 O0 2.006978 1_555
Co3 O17 2.038352 1_555
Co3 O15 2.038352 1_555
Co3 O7 2.113694 1_555
Co3 O10 2.113698 1_555
