# generated using pymatgen
data_Na10Mg3Ge5(PO4)12
_symmetry_space_group_name_H-M   'P 1'
_cell_length_a   17.27525329
_cell_length_b   8.64547528
_cell_length_c   21.72484482
_cell_angle_alpha   89.96700783
_cell_angle_beta   89.98055700
_cell_angle_gamma   120.05493148
_symmetry_Int_Tables_number   1
_chemical_formula_structural   Na10Mg3Ge5(PO4)12
_chemical_formula_sum   'Na30 Mg9 Ge15 P36 O144'
_cell_volume   2808.40518492
_cell_formula_units_Z   3
loop_
 _symmetry_equiv_pos_site_id
 _symmetry_equiv_pos_as_xyz
  1  'x, y, z'
loop_
 _atom_site_type_symbol
 _atom_site_label
 _atom_site_symmetry_multiplicity
 _atom_site_fract_x
 _atom_site_fract_y
 _atom_site_fract_z
 _atom_site_occupancy
  Na  Na0  1  0.31918126  0.00684810  0.25031732  1
  Na  Na1  1  0.68506133  0.36096954  0.25009161  1
  Na  Na2  1  0.31677415  0.62678705  0.75026333  1
  Na  Na3  1  0.81679852  0.62678314  0.75014863  1
  Na  Na4  1  0.15246021  0.34015658  0.58100498  1
  Na  Na5  1  0.65272939  0.34098457  0.58067460  1
  Na  Na6  1  0.01732004  0.69441318  0.58122125  1
  Na  Na7  1  0.51744768  0.69400322  0.58152202  1
  Na  Na8  1  0.32924087  0.96477781  0.58123851  1
  Na  Na9  1  0.82994687  0.96618379  0.58126689  1
  Na  Na10  1  0.15253219  0.96481447  0.08094521  1
  Na  Na11  1  0.65300071  0.96533689  0.08155127  1
  Na  Na12  1  0.32965094  0.69388699  0.08169651  1
  Na  Na13  1  0.82994597  0.69496109  0.08105013  1
  Na  Na14  1  0.01708930  0.34075113  0.08136783  1
  Na  Na15  1  0.51744538  0.34068986  0.08164832  1
  Na  Na16  1  0.66391677  0.02831948  0.41353509  1
  Na  Na17  1  0.34979639  0.67264217  0.41313541  1
  Na  Na18  1  0.00014293  0.99889229  0.49506865  1
  Na  Na19  1  0.49961141  0.01076389  0.49401810  1
  Na  Na20  1  0.00013064  0.00015428  0.99578955  1
  Na  Na21  1  0.50015702  0.99987816  0.99602084  1
  Na  Na22  1  0.33374831  0.32419238  0.83248398  1
  Na  Na23  1  0.83374128  0.32427086  0.83246613  1
  Na  Na24  1  0.33405080  0.33582422  0.32924023  1
  Na  Na25  1  0.84166689  0.33937949  0.32963732  1
  Na  Na26  1  0.16260384  0.65643447  0.16732163  1
  Na  Na27  1  0.66613873  0.67532571  0.16685245  1
  Na  Na28  1  0.16256404  0.66772880  0.66800329  1
  Na  Na29  1  0.66270250  0.66739866  0.66811764  1
  Mg  Mg0  1  0.49962976  0.00436035  0.35288869  1
  Mg  Mg1  1  0.33364440  0.32846491  0.69008933  1
  Mg  Mg2  1  0.83383980  0.32893306  0.69007139  1
  Mg  Mg3  1  0.33239180  0.33755048  0.18785611  1
  Mg  Mg4  1  0.83696161  0.33260300  0.18925078  1
  Mg  Mg5  1  0.16631914  0.66667264  0.01454960  1
  Mg  Mg6  1  0.66641634  0.66672224  0.01452696  1
  Mg  Mg7  1  0.16343014  0.66325216  0.51517421  1
  Mg  Mg8  1  0.66904494  0.66893019  0.51633344  1
  Ge  Ge0  1  0.00024376  0.99898615  0.35236749  1
  Ge  Ge1  1  0.00047599  0.00130317  0.85444589  1
  Ge  Ge2  1  0.50048721  0.00138438  0.85445861  1
  Ge  Ge3  1  0.00093898  0.00144979  0.65118379  1
  Ge  Ge4  1  0.50098416  0.00165216  0.65114183  1
  Ge  Ge5  1  0.00010751  0.00174018  0.15068660  1
  Ge  Ge6  1  0.50026940  0.99787430  0.15197620  1
  Ge  Ge7  1  0.33322797  0.33411534  0.97820645  1
  Ge  Ge8  1  0.83379750  0.33344799  0.97828447  1
  Ge  Ge9  1  0.33194484  0.32352501  0.47904179  1
  Ge  Ge10  1  0.83721856  0.34135853  0.47803795  1
  Ge  Ge11  1  0.16359384  0.66095863  0.31464637  1
  Ge  Ge12  1  0.66616738  0.66961192  0.31519686  1
  Ge  Ge13  1  0.16428037  0.66753280  0.81758427  1
  Ge  Ge14  1  0.66431218  0.66750150  0.81762778  1
  P  P0  1  0.14167501  0.99430124  0.25206401  1
  P  P1  1  0.64556375  0.99353101  0.25235672  1
  P  P2  1  0.35223115  0.70518283  0.25303898  1
  P  P3  1  0.85576305  0.71601957  0.25218552  1
  P  P4  1  0.00212504  0.28890216  0.25264037  1
  P  P5  1  0.50146085  0.29643770  0.25127545  1
  P  P6  1  0.14188657  0.28955517  0.75258644  1
  P  P7  1  0.64195044  0.28955680  0.75262981  1
  P  P8  1  0.00432573  0.71638175  0.75238275  1
  P  P9  1  0.50428951  0.71638527  0.75234865  1
  P  P10  1  0.35533940  0.99902212  0.75298018  1
  P  P11  1  0.85533767  0.99905481  0.75296959  1
  P  P12  1  0.47725740  0.33130156  0.58508153  1
  P  P13  1  0.97691858  0.33136285  0.58465440  1
  P  P14  1  0.18804072  0.04520518  0.58499231  1
  P  P15  1  0.68835984  0.04608222  0.58426902  1
  P  P16  1  0.33436186  0.62399725  0.58494106  1
  P  P17  1  0.83494551  0.62472025  0.58583955  1
  P  P18  1  0.47713606  0.62293075  0.08393611  1
  P  P19  1  0.97714883  0.62348668  0.08422633  1
  P  P20  1  0.33436465  0.04481919  0.08483656  1
  P  P21  1  0.83433241  0.04575167  0.08398589  1
  P  P22  1  0.18804283  0.33081854  0.08371777  1
  P  P23  1  0.68842117  0.33103795  0.08502868  1
  P  P24  1  0.31427925  0.66674873  0.91629830  1
  P  P25  1  0.81430044  0.66641428  0.91632095  1
  P  P26  1  0.01910952  0.37163807  0.91675620  1
  P  P27  1  0.51906650  0.37162785  0.91687015  1
  P  P28  1  0.16677177  0.96176642  0.91668788  1
  P  P29  1  0.66672845  0.96179207  0.91668820  1
  P  P30  1  0.31077510  0.96051625  0.41766507  1
  P  P31  1  0.81594041  0.96117858  0.41679877  1
  P  P32  1  0.16445664  0.36890672  0.41684788  1
  P  P33  1  0.66890223  0.37846279  0.41805648  1
  P  P34  1  0.02022102  0.66873819  0.41630451  1
  P  P35  1  0.51951521  0.65911414  0.41829010  1
  O  O0  1  0.09717993  0.02550176  0.30785806  1
  O  O1  1  0.60350515  0.02481566  0.30822001  1
  O  O2  1  0.40643365  0.79287673  0.30955549  1
  O  O3  1  0.91582724  0.80587104  0.30789338  1
  O  O4  1  0.48596597  0.17647108  0.30503809  1
  O  O5  1  0.98779341  0.16747371  0.30824209  1
  O  O6  1  0.09632869  0.16717956  0.80741443  1
  O  O7  1  0.59628802  0.16716690  0.80743710  1
  O  O8  1  0.48535470  0.80720167  0.80648450  1
  O  O9  1  0.98537653  0.80720995  0.80652007  1
  O  O10  1  0.41586752  0.02416687  0.80788039  1
  O  O11  1  0.91585347  0.02430975  0.80788867  1
  O  O12  1  0.39418660  0.95352578  0.69239652  1
  O  O13  1  0.89423316  0.95372309  0.69241467  1
  O  O14  1  0.08495804  0.21133864  0.69128833  1
  O  O15  1  0.58505491  0.21144867  0.69132496  1
  O  O16  1  0.02142870  0.83057988  0.69095976  1
  O  O17  1  0.52140696  0.83061458  0.69085478  1
  O  O18  1  0.39309094  0.83236184  0.19260554  1
  O  O19  1  0.89519930  0.83090506  0.19152984  1
  O  O20  1  0.02084578  0.21084377  0.19153332  1
  O  O21  1  0.52339368  0.21645718  0.19027742  1
  O  O22  1  0.08431517  0.95955713  0.19149374  1
  O  O23  1  0.58634225  0.95844601  0.19120980  1
  O  O24  1  0.43675888  0.36750811  0.64006732  1
  O  O25  1  0.93678504  0.36764433  0.63984343  1
  O  O26  1  0.24629440  0.12714100  0.64004534  1
  O  O27  1  0.74682742  0.12954942  0.63908085  1
  O  O28  1  0.31838294  0.51202351  0.64180583  1
  O  O29  1  0.81820351  0.51330066  0.64295578  1
  O  O30  1  0.43679266  0.50621610  0.13911759  1
  O  O31  1  0.93694185  0.50823042  0.13983180  1
  O  O32  1  0.31721238  0.12104238  0.14233121  1
  O  O33  1  0.81658836  0.12617182  0.13928177  1
  O  O34  1  0.24529180  0.36443474  0.13927155  1
  O  O35  1  0.74384161  0.36515461  0.14246154  1
  O  O36  1  0.22766136  0.28659481  0.02506207  1
  O  O37  1  0.72974746  0.28840374  0.02709413  1
  O  O38  1  0.41536976  0.54477783  0.02507311  1
  O  O39  1  0.91545686  0.54449060  0.02546989  1
  O  O40  1  0.35553864  0.17038506  0.02706453  1
  O  O41  1  0.85664635  0.16874541  0.02508908  1
  O  O42  1  0.22725860  0.16868486  0.52601063  1
  O  O43  1  0.72676448  0.16430715  0.52385951  1
  O  O44  1  0.35451609  0.54327493  0.52556348  1
  O  O45  1  0.85623713  0.54287170  0.52780339  1
  O  O46  1  0.41532942  0.28501519  0.52619052  1
  O  O47  1  0.91547710  0.28710024  0.52560738  1
  O  O48  1  0.27681378  0.70037574  0.97404276  1
  O  O49  1  0.77676494  0.70003739  0.97401576  1
  O  O50  1  0.07232399  0.44396024  0.97510316  1
  O  O51  1  0.57242074  0.44390442  0.97518097  1
  O  O52  1  0.14962463  0.85529869  0.97509627  1
  O  O53  1  0.64958654  0.85526471  0.97504911  1
  O  O54  1  0.27057088  0.84770513  0.47498092  1
  O  O55  1  0.77958846  0.85838926  0.47601972  1
  O  O56  1  0.14898368  0.44193664  0.47582726  1
  O  O57  1  0.65652789  0.45820681  0.47614433  1
  O  O58  1  0.07121063  0.70127645  0.47575350  1
  O  O59  1  0.57535590  0.69474349  0.47582634  1
  O  O60  1  0.06312891  0.63018353  0.35951746  1
  O  O61  1  0.56329377  0.62656801  0.36024298  1
  O  O62  1  0.25155290  0.87462219  0.35815408  1
  O  O63  1  0.75041253  0.87593678  0.36088652  1
  O  O64  1  0.18695206  0.49933385  0.36083649  1
  O  O65  1  0.68574355  0.49610638  0.35833998  1
  O  O66  1  0.06259747  0.49493163  0.85911557  1
  O  O67  1  0.56249062  0.49499910  0.85920180  1
  O  O68  1  0.18485089  0.87459438  0.85912845  1
  O  O69  1  0.68490705  0.87477192  0.85909986  1
  O  O70  1  0.25443647  0.63232280  0.85716323  1
  O  O71  1  0.75448709  0.63210873  0.85717271  1
  O  O72  1  0.00862520  0.83481493  0.40703569  1
  O  O73  1  0.50687654  0.82146713  0.41118518  1
  O  O74  1  0.40307457  0.98126353  0.41119757  1
  O  O75  1  0.90945378  0.98260017  0.40723706  1
  O  O76  1  0.08223058  0.18091325  0.40749226  1
  O  O77  1  0.59026201  0.18954390  0.41136477  1
  O  O78  1  0.00875272  0.18294128  0.90739459  1
  O  O79  1  0.50871643  0.18296570  0.90743257  1
  O  O80  1  0.08259533  0.98201434  0.90712727  1
  O  O81  1  0.58254206  0.98201600  0.90710253  1
  O  O82  1  0.40894753  0.83463446  0.90735198  1
  O  O83  1  0.90894899  0.83445733  0.90736422  1
  O  O84  1  0.48511215  0.15519567  0.59019769  1
  O  O85  1  0.98493573  0.15559373  0.58979911  1
  O  O86  1  0.09219596  0.02991594  0.58950472  1
  O  O87  1  0.59230737  0.02992307  0.58921385  1
  O  O88  1  0.42235655  0.81567896  0.58926599  1
  O  O89  1  0.92286818  0.81639759  0.58980273  1
  O  O90  1  0.48513243  0.81487698  0.08957714  1
  O  O91  1  0.98546658  0.81557138  0.08945896  1
  O  O92  1  0.42228939  0.02915365  0.08944073  1
  O  O93  1  0.92240754  0.02964361  0.08934788  1
  O  O94  1  0.09193491  0.15497494  0.08900384  1
  O  O95  1  0.59253244  0.15495439  0.08927718  1
  O  O96  1  0.34585769  0.16076186  0.74724291  1
  O  O97  1  0.84575087  0.16066176  0.74711080  1
  O  O98  1  0.23500848  0.31542588  0.74709249  1
  O  O99  1  0.73500632  0.31512546  0.74719212  1
  O  O100  1  0.42052753  0.53536365  0.74664602  1
  O  O101  1  0.92063144  0.53526589  0.74675478  1
  O  O102  1  0.34019688  0.52291764  0.24474798  1
  O  O103  1  0.84274348  0.52995482  0.24718548  1
  O  O104  1  0.41967430  0.31432043  0.24308667  1
  O  O105  1  0.92109558  0.30890023  0.24760778  1
  O  O106  1  0.23503091  0.15351885  0.24711049  1
  O  O107  1  0.73645659  0.15950521  0.24411002  1
  O  O108  1  0.32282011  0.49511383  0.92063969  1
  O  O109  1  0.82283394  0.49480575  0.92085386  1
  O  O110  1  0.42435834  0.35350648  0.92131496  1
  O  O111  1  0.92452433  0.35409199  0.92098241  1
  O  O112  1  0.25265284  0.15083424  0.92105143  1
  O  O113  1  0.75237525  0.15118894  0.92116770  1
  O  O114  1  0.31712856  0.14795067  0.42193449  1
  O  O115  1  0.82150361  0.14924554  0.42118700  1
  O  O116  1  0.25353575  0.36007252  0.42161533  1
  O  O117  1  0.75624750  0.35921703  0.42156337  1
  O  O118  1  0.42319718  0.48846510  0.42275690  1
  O  O119  1  0.92558850  0.49542716  0.42104359  1
  O  O120  1  0.17384256  0.49066527  0.07603981  1
  O  O121  1  0.67460884  0.49123194  0.07662156  1
  O  O122  1  0.07139145  0.65201367  0.07633396  1
  O  O123  1  0.57158414  0.65265749  0.07597107  1
  O  O124  1  0.25422098  0.85683269  0.07658625  1
  O  O125  1  0.75478865  0.85680624  0.07608656  1
  O  O126  1  0.17343246  0.85681356  0.57721471  1
  O  O127  1  0.67382945  0.85728636  0.57719493  1
  O  O128  1  0.25406567  0.65131651  0.57725650  1
  O  O129  1  0.75500404  0.65292609  0.57823467  1
  O  O130  1  0.07134830  0.49055522  0.57677062  1
  O  O131  1  0.57162663  0.49022868  0.57704778  1
  O  O132  1  0.14965506  0.82118253  0.25722745  1
  O  O133  1  0.65239078  0.81978321  0.25661160  1
  O  O134  1  0.25845761  0.70018917  0.25576747  1
  O  O135  1  0.76098607  0.69850332  0.25789566  1
  O  O136  1  0.08984134  0.47498735  0.25846269  1
  O  O137  1  0.59114661  0.48202225  0.25561928  1
  O  O138  1  0.15092641  0.47969919  0.75764764  1
  O  O139  1  0.65096983  0.47972036  0.75771777  1
  O  O140  1  0.09054590  0.70341334  0.75817485  1
  O  O141  1  0.59048652  0.70335188  0.75815075  1
  O  O142  1  0.26238587  0.82051856  0.75771434  1
  O  O143  1  0.76238617  0.82054730  0.75772857  1
loop_
_geom_bond_atom_site_label_1
_geom_bond_atom_site_label_2
_geom_bond_distance
_geom_bond_site_symmetry_2
Na0 O134 2.314552 1_545
Na0 O104 2.341288 1_555
Na0 O106 2.360608 1_555
Na0 O132 2.542943 1_545
Na0 O32 2.551568 1_555
Na0 O62 2.611022 1_545
Na0 O18 2.721801 1_545
Na0 O4 2.763589 1_555
Na1 O107 2.321228 1_555
Na1 O137 2.332950 1_555
Na1 O103 2.360525 1_555
Na1 O135 2.536042 1_555
Na1 O35 2.541913 1_555
Na1 O65 2.623909 1_555
Na1 O21 2.749318 1_555
Na1 O1 2.814073 1_555
Na2 O100 2.294012 1_555
Na2 O142 2.300174 1_555
Na2 O98 2.331899 1_555
Na2 O138 2.490273 1_555
Na2 O28 2.562666 1_555
Na2 O70 2.570121 1_555
Na2 O12 2.749405 1_555
Na2 O8 2.803678 1_555
Na3 O101 2.295759 1_555
Na3 O143 2.300958 1_555
Na3 O99 2.333956 1_555
Na3 O139 2.490252 1_555
Na3 O29 2.532327 1_555
Na3 O71 2.571950 1_555
Na3 O13 2.749441 1_555
Na3 O9 2.805074 1_555
Na4 O130 2.342552 1_555
Na4 O86 2.348260 1_555
Na4 O128 2.365224 1_555
Na4 O56 2.459613 1_555
Na4 O85 2.516296 1_455
Na4 O14 2.652282 1_555
Na4 O42 2.685983 1_555
Na4 O28 2.811990 1_555
Na5 O131 2.333407 1_555
Na5 O87 2.354506 1_555
Na5 O129 2.371623 1_555
Na5 O57 2.473663 1_555
Na5 O84 2.519503 1_555
Na5 O15 2.661402 1_555
Na5 O43 2.729530 1_555
Na5 O29 2.821524 1_555
Na6 O126 2.336441 1_555
Na6 O89 2.352236 1_455
Na6 O130 2.373725 1_555
Na6 O58 2.462360 1_555
Na6 O86 2.522206 1_565
Na6 O16 2.644665 1_555
Na6 O45 2.675631 1_455
Na6 O25 2.756139 1_455
Na7 O127 2.340856 1_555
Na7 O88 2.358892 1_555
Na7 O131 2.375061 1_555
Na7 O59 2.503088 1_555
Na7 O87 2.524552 1_565
Na7 O17 2.638898 1_555
Na7 O44 2.725557 1_555
Na7 O24 2.753522 1_555
Na8 O128 2.348047 1_555
Na8 O84 2.357801 1_565
Na8 O126 2.368008 1_555
Na8 O88 2.521210 1_555
Na8 O54 2.521364 1_555
Na8 O46 2.679143 1_565
Na8 O12 2.685299 1_555
Na8 O26 2.769730 1_565
Na9 O85 2.343862 1_565
Na9 O129 2.345918 1_555
Na9 O127 2.371657 1_555
Na9 O55 2.458663 1_555
Na9 O89 2.523936 1_555
Na9 O13 2.682710 1_555
Na9 O47 2.689184 1_565
Na9 O27 2.768826 1_565
Na10 O122 2.343413 1_555
Na10 O94 2.356571 1_565
Na10 O124 2.368368 1_555
Na10 O52 2.478280 1_554
Na10 O91 2.509564 1_455
Na10 O22 2.665159 1_555
Na10 O36 2.697415 1_565
Na10 O32 2.802137 1_565
Na11 O123 2.343631 1_555
Na11 O95 2.349953 1_565
Na11 O125 2.374691 1_555
Na11 O53 2.491763 1_554
Na11 O90 2.520545 1_555
Na11 O23 2.633302 1_555
Na11 O37 2.691572 1_565
Na11 O33 2.749757 1_565
Na12 O90 2.350369 1_555
Na12 O124 2.352347 1_555
Na12 O120 2.368630 1_555
Na12 O92 2.518993 1_565
Na12 O48 2.521646 1_554
Na12 O18 2.670361 1_555
Na12 O38 2.698254 1_555
Na12 O34 2.763672 1_555
Na13 O125 2.339840 1_555
Na13 O91 2.352282 1_555
Na13 O121 2.361921 1_555
Na13 O49 2.508930 1_554
Na13 O93 2.515452 1_565
Na13 O19 2.662858 1_555
Na13 O39 2.694063 1_555
Na13 O35 2.805102 1_555
Na14 O120 2.347401 1_555
Na14 O93 2.352095 1_455
Na14 O122 2.367386 1_555
Na14 O50 2.485866 1_554
Na14 O94 2.521688 1_555
Na14 O20 2.657748 1_555
Na14 O41 2.695250 1_455
Na14 O31 2.763291 1_455
Na15 O121 2.353170 1_555
Na15 O92 2.355761 1_555
Na15 O123 2.374273 1_555
Na15 O51 2.489054 1_554
Na15 O95 2.524833 1_555
Na15 O21 2.615589 1_555
Na15 O40 2.697477 1_555
Na15 O30 2.747005 1_555
Na16 O77 2.310964 1_555
Na16 O115 2.383589 1_555
Na16 O73 2.387715 1_545
Na16 O117 2.487711 1_555
Na16 O1 2.508952 1_555
Na16 O43 2.651790 1_555
Na16 O63 2.692389 1_545
Na16 O59 2.839648 1_545
Na17 O74 2.346927 1_555
Na17 O73 2.350211 1_555
Na17 O116 2.366383 1_555
Na17 O2 2.465475 1_555
Na17 O118 2.491823 1_555
Na17 O64 2.689227 1_555
Na17 O44 2.703999 1_555
Na17 O54 2.836381 1_555
Na18 O76 2.422111 1_565
Na18 O75 2.428286 1_455
Na18 O72 2.429505 1_555
Na18 O86 2.526958 1_565
Na18 O89 2.528195 1_455
Na18 O85 2.549335 1_465
Na19 O77 2.374041 1_555
Na19 O74 2.379104 1_545
Na19 O73 2.478180 1_545
Na19 O84 2.510744 1_555
Na19 O87 2.570173 1_555
Na19 O88 2.578175 1_545
Na20 O78 2.442912 1_555
Na20 O83 2.443086 1_445
Na20 O80 2.446732 1_545
Na20 O94 2.507325 1_556
Na20 O93 2.518066 1_456
Na20 O91 2.518490 1_446
Na21 O82 2.446391 1_555
Na21 O79 2.448098 1_565
Na21 O81 2.449417 1_555
Na21 O95 2.512161 1_566
Na21 O92 2.516416 1_566
Na21 O90 2.517268 1_556
Na22 O96 2.401730 1_555
Na22 O112 2.408907 1_555
Na22 O110 2.417428 1_555
Na22 O108 2.483858 1_555
Na22 O98 2.495921 1_555
Na22 O100 2.512119 1_555
Na23 O97 2.403964 1_555
Na23 O113 2.411712 1_555
Na23 O111 2.412796 1_555
Na23 O109 2.485502 1_555
Na23 O99 2.492948 1_555
Na23 O101 2.509875 1_555
Na24 O102 2.412757 1_555
Na24 O106 2.428700 1_555
Na24 O104 2.449414 1_555
Na24 O118 2.492036 1_555
Na24 O116 2.509313 1_555
Na24 O114 2.509810 1_555
Na25 O105 2.342881 1_555
Na25 O103 2.426819 1_555
Na25 O119 2.431289 1_555
Na25 O115 2.490256 1_555
Na25 O107 2.519655 1_555
Na25 O117 2.539124 1_555
Na26 O134 2.439818 1_555
Na26 O136 2.445600 1_555
Na26 O132 2.493139 1_555
Na26 O120 2.511168 1_555
Na26 O122 2.516652 1_555
Na26 O124 2.576747 1_555
Na27 O133 2.391292 1_555
Na27 O137 2.452774 1_555
Na27 O125 2.506575 1_555
Na27 O123 2.507340 1_555
Na27 O135 2.512119 1_555
Na27 O121 2.575614 1_555
Na28 O140 2.421587 1_555
Na28 O138 2.478817 1_555
Na28 O142 2.498122 1_555
Na28 O126 2.507273 1_555
Na28 O130 2.519053 1_555
Na28 O128 2.574551 1_555
Na29 O141 2.422029 1_555
Na29 O139 2.475791 1_555
Na29 O143 2.495982 1_555
Na29 O127 2.512705 1_555
Na29 O131 2.515483 1_555
Na29 O129 2.563048 1_555
Mg0 O4 1.923709 1_555
Mg0 O1 1.968216 1_555
Mg0 O2 1.968687 1_545
Mg0 O74 2.022735 1_545
Mg0 O77 2.030106 1_555
Mg0 O73 2.077479 1_545
Mg1 O26 1.964945 1_555
Mg1 O24 1.965710 1_555
Mg1 O96 1.998216 1_555
Mg1 O28 2.026223 1_555
Mg1 O98 2.062956 1_555
Mg1 O100 2.067993 1_555
Mg2 O27 1.966196 1_555
Mg2 O25 1.966602 1_555
Mg2 O97 1.998056 1_555
Mg2 O29 2.022603 1_555
Mg2 O99 2.064835 1_555
Mg2 O101 2.066718 1_555
Mg3 O34 1.945054 1_555
Mg3 O30 1.965425 1_555
Mg3 O102 1.974850 1_555
Mg3 O104 2.014412 1_555
Mg3 O32 2.015259 1_555
Mg3 O106 2.081619 1_555
Mg4 O31 1.952253 1_555
Mg4 O33 1.964889 1_555
Mg4 O105 2.015208 1_555
Mg4 O107 2.017035 1_555
Mg4 O35 2.038265 1_555
Mg4 O103 2.082566 1_555
Mg5 O48 1.986043 1_554
Mg5 O52 1.986672 1_554
Mg5 O50 1.987356 1_554
Mg5 O122 2.072949 1_555
Mg5 O120 2.076722 1_555
Mg5 O124 2.080489 1_555
Mg6 O49 1.984971 1_554
Mg6 O51 1.986927 1_554
Mg6 O53 1.987557 1_554
Mg6 O123 2.068648 1_555
Mg6 O125 2.076245 1_555
Mg6 O121 2.086758 1_555
Mg7 O54 1.942184 1_555
Mg7 O58 1.976034 1_555
Mg7 O56 1.994421 1_555
Mg7 O130 2.041471 1_555
Mg7 O126 2.088053 1_555
Mg7 O128 2.108176 1_555
Mg8 O57 1.932719 1_555
Mg8 O59 1.950976 1_555
Mg8 O55 1.990189 1_555
Mg8 O129 2.059050 1_555
Mg8 O127 2.067505 1_555
Mg8 O131 2.085834 1_555
Ge0 O5 1.843748 1_465
Ge0 O0 1.845525 1_565
Ge0 O3 1.847077 1_455
Ge0 O72 1.910508 1_555
Ge0 O75 1.917532 1_455
Ge0 O76 1.919895 1_565
Ge1 O6 1.860392 1_555
Ge1 O11 1.868608 1_455
Ge1 O9 1.879265 1_445
Ge1 O78 1.893916 1_555
Ge1 O80 1.894213 1_545
Ge1 O83 1.901245 1_445
Ge2 O7 1.859558 1_555
Ge2 O10 1.867850 1_555
Ge2 O8 1.880309 1_545
Ge2 O81 1.893156 1_545
Ge2 O79 1.894140 1_555
Ge2 O82 1.900734 1_545
Ge3 O14 1.876983 1_555
Ge3 O16 1.891238 1_545
Ge3 O13 1.899260 1_445
Ge3 O86 1.987702 1_555
Ge3 O85 1.999509 1_455
Ge3 O89 1.999779 1_445
Ge4 O15 1.877574 1_555
Ge4 O17 1.891213 1_545
Ge4 O12 1.899942 1_545
Ge4 O84 1.988243 1_555
Ge4 O87 1.992646 1_555
Ge4 O88 2.013276 1_545
Ge5 O20 1.880765 1_555
Ge5 O22 1.888655 1_545
Ge5 O19 1.889299 1_445
Ge5 O94 1.989656 1_555
Ge5 O93 1.990195 1_455
Ge5 O91 2.004689 1_445
Ge6 O23 1.887293 1_555
Ge6 O18 1.896963 1_555
Ge6 O21 1.915460 1_565
Ge6 O90 1.999352 1_555
Ge6 O95 2.017011 1_565
Ge6 O92 2.024677 1_565
Ge7 O110 1.941185 1_555
Ge7 O36 1.943860 1_556
Ge7 O38 1.944669 1_556
Ge7 O108 1.944900 1_555
Ge7 O112 1.945322 1_555
Ge7 O40 1.955489 1_556
Ge8 O111 1.938123 1_555
Ge8 O41 1.943941 1_556
Ge8 O113 1.945370 1_555
Ge8 O39 1.948041 1_556
Ge8 O109 1.949725 1_555
Ge8 O37 1.950413 1_556
Ge9 O114 1.876707 1_555
Ge9 O42 1.917298 1_555
Ge9 O46 1.927703 1_555
Ge9 O118 1.938738 1_555
Ge9 O116 1.980016 1_555
Ge9 O44 2.010812 1_555
Ge10 O119 1.896809 1_555
Ge10 O117 1.924325 1_555
Ge10 O45 1.934185 1_555
Ge10 O47 1.936851 1_555
Ge10 O115 1.977037 1_555
Ge10 O43 2.011532 1_555
Ge11 O60 1.889241 1_555
Ge11 O136 1.910393 1_555
Ge11 O64 1.919828 1_555
Ge11 O62 1.950898 1_555
Ge11 O132 1.966002 1_555
Ge11 O134 1.969315 1_555
Ge12 O61 1.894852 1_555
Ge12 O133 1.915709 1_555
Ge12 O63 1.920379 1_555
Ge12 O65 1.936413 1_555
Ge12 O137 1.970614 1_555
Ge12 O135 1.970685 1_555
Ge13 O66 1.870354 1_555
Ge13 O68 1.873595 1_555
Ge13 O70 1.932152 1_555
Ge13 O140 1.944478 1_555
Ge13 O138 2.003297 1_555
Ge13 O142 2.016094 1_555
Ge14 O67 1.871815 1_555
Ge14 O69 1.874273 1_555
Ge14 O71 1.932998 1_555
Ge14 O141 1.946484 1_555
Ge14 O139 2.002637 1_555
Ge14 O143 2.016347 1_555
O0 P0 1.529792 1_545
O1 P1 1.506838 1_545
O2 P2 1.499954 1_555
O3 P3 1.529493 1_555
O4 P5 1.493942 1_555
O5 P4 1.536391 1_655
O6 P6 1.523618 1_555
O7 P7 1.523626 1_555
O8 P9 1.537761 1_555
O9 P8 1.537964 1_655
O10 P10 1.528596 1_545
O11 P11 1.528595 1_545
O12 P10 1.613007 1_555
O13 P11 1.612302 1_555
O14 P6 1.591744 1_555
O15 P7 1.591527 1_555
O16 P8 1.596469 1_555
O17 P9 1.597866 1_555
O18 P2 1.628259 1_555
O19 P3 1.583406 1_555
O20 P4 1.594282 1_555
O21 P5 1.625090 1_555
O22 P0 1.583307 1_555
O23 P1 1.610555 1_555
O24 P12 1.494539 1_555
O25 P13 1.494763 1_555
O26 P14 1.494231 1_555
O27 P15 1.493520 1_555
O28 P16 1.506729 1_555
O29 P17 1.506835 1_555
O30 P18 1.494885 1_555
O31 P19 1.496477 1_555
O32 P20 1.509471 1_555
O33 P21 1.494878 1_555
O34 P22 1.494147 1_555
O35 P23 1.509569 1_555
O36 P22 1.581296 1_555
O37 P23 1.578979 1_555
O38 P18 1.584344 1_555
O39 P19 1.582558 1_555
O40 P20 1.577306 1_555
O41 P21 1.582400 1_555
O42 P14 1.585537 1_555
O43 P15 1.589294 1_555
O44 P16 1.586316 1_555
O45 P17 1.577060 1_555
O46 P12 1.585627 1_555
O47 P13 1.585316 1_555
O48 P24 1.505160 1_555
O49 P25 1.504885 1_555
O50 P26 1.506240 1_555
O51 P27 1.506510 1_555
O52 P28 1.506794 1_555
O53 P29 1.506200 1_555
O54 P30 1.517753 1_555
O55 P31 1.509464 1_555
O56 P32 1.510500 1_555
O57 P33 1.503982 1_555
O58 P34 1.508660 1_555
O59 P35 1.513768 1_555
O60 P34 1.558806 1_555
O61 P35 1.566634 1_555
O62 P30 1.584503 1_555
O63 P31 1.570461 1_555
O64 P32 1.569197 1_555
O65 P33 1.582403 1_555
O66 P26 1.569840 1_555
O67 P27 1.570463 1_555
O68 P28 1.570283 1_555
O69 P29 1.570777 1_555
O70 P24 1.581430 1_555
O71 P25 1.581523 1_555
O72 P34 1.558855 1_555
O73 P35 1.532444 1_555
O74 P30 1.519103 1_555
O75 P31 1.545067 1_555
O76 P32 1.545540 1_555
O77 P33 1.520602 1_555
O78 P26 1.562945 1_555
O79 P27 1.562914 1_555
O80 P28 1.563181 1_555
O81 P29 1.563303 1_555
O82 P24 1.562328 1_555
O83 P25 1.562709 1_555
O84 P12 1.598619 1_555
O85 P13 1.597344 1_555
O86 P14 1.596627 1_555
O87 P15 1.597529 1_555
O88 P16 1.594627 1_555
O89 P17 1.593616 1_555
O90 P18 1.599549 1_555
O91 P19 1.597680 1_555
O92 P20 1.594245 1_555
O93 P21 1.600103 1_555
O94 P22 1.597603 1_555
O95 P23 1.594932 1_555
O96 P10 1.492277 1_545
O97 P11 1.492412 1_545
O98 P6 1.513814 1_555
O99 P7 1.513597 1_555
O100 P9 1.513425 1_555
O101 P8 1.513233 1_655
O102 P2 1.493629 1_555
O103 P3 1.512565 1_555
O104 P5 1.506894 1_555
O105 P4 1.497931 1_655
O106 P0 1.511085 1_545
O107 P1 1.516339 1_545
O108 P24 1.565781 1_555
O109 P25 1.565736 1_555
O110 P27 1.566474 1_555
O111 P26 1.566189 1_655
O112 P28 1.566243 1_545
O113 P29 1.566312 1_545
O114 P30 1.571167 1_545
O115 P31 1.582919 1_545
O116 P32 1.581926 1_555
O117 P33 1.600578 1_555
O118 P35 1.579708 1_555
O119 P34 1.573014 1_655
O120 P22 1.528766 1_555
O121 P23 1.529425 1_555
O122 P19 1.529179 1_455
O123 P18 1.529017 1_555
O124 P20 1.528720 1_565
O125 P21 1.529109 1_565
O126 P14 1.527628 1_565
O127 P15 1.529942 1_565
O128 P16 1.528426 1_555
O129 P17 1.526885 1_555
O130 P13 1.528175 1_455
O131 P12 1.527058 1_555
O132 P0 1.574220 1_555
O133 P1 1.567213 1_555
O134 P2 1.599853 1_555
O135 P3 1.571796 1_555
O136 P4 1.568087 1_555
O137 P5 1.579228 1_555
O138 P6 1.575409 1_555
O139 P7 1.575767 1_555
O140 P8 1.553810 1_555
O141 P9 1.553740 1_555
O142 P10 1.577410 1_555
O143 P11 1.577442 1_555
