# generated using pymatgen
data_MgTeWO6
_symmetry_space_group_name_H-M   'P 1'
_cell_length_a   6.03985444
_cell_length_b   6.04533404
_cell_length_c   10.85307296
_cell_angle_alpha   154.01635608
_cell_angle_beta   46.80440473
_cell_angle_gamma   128.01132742
_symmetry_Int_Tables_number   1
_chemical_formula_structural   MgTeWO6
_chemical_formula_sum   'Mg1 Te1 W1 O6'
_cell_volume   126.56884014
_cell_formula_units_Z   1
loop_
 _symmetry_equiv_pos_site_id
 _symmetry_equiv_pos_as_xyz
  1  'x, y, z'
loop_
 _atom_site_type_symbol
 _atom_site_label
 _atom_site_symmetry_multiplicity
 _atom_site_fract_x
 _atom_site_fract_y
 _atom_site_fract_z
 _atom_site_occupancy
  Mg  Mg0  1  0.30892200  0.00016300  0.30918600  1
  Te  Te0  1  0.52229900  0.99754900  0.52125300  1
  W  W0  1  0.00213800  0.99964000  0.00334600  1
  O  O0  1  0.32782600  0.38874200  0.11472800  1
  O  O1  1  0.24367500  0.70910700  0.60564200  1
  O  O2  1  0.11369100  0.40008100  0.72827100  1
  O  O3  1  0.89495400  0.63679400  0.24385900  1
  O  O4  1  0.72712600  0.21585600  0.32962200  1
  O  O5  1  0.60696900  0.65206800  0.89526300  1
loop_
_geom_bond_atom_site_label_1
_geom_bond_atom_site_label_2
_geom_bond_distance
_geom_bond_site_symmetry_2
Mg0 O0 2.072354 1_545
Mg0 O4 2.078474 1_555
Mg0 O2 2.079027 1_555
Mg0 O1 2.104457 1_555
Mg0 O3 2.107558 1_445
Mg0 O5 2.109256 1_544
O0 W0 1.818829 1_545
O0 Te0 2.639664 1_555
O1 Te0 1.964305 1_555
O1 W0 2.179371 1_556
O2 W0 1.817710 1_556
O2 Te0 2.652663 1_545
O3 Te0 1.962405 1_555
O3 W0 2.179640 1_645
O4 W0 1.818614 1_645
O4 Te0 2.645592 1_545
O5 Te0 1.966865 1_545
O5 W0 2.170831 1_656
