# generated using pymatgen
data_CsMnCl3
_symmetry_space_group_name_H-M   'P 1'
_cell_length_a   10.06014829
_cell_length_b   10.06014743
_cell_length_c   10.06014844
_cell_angle_alpha   42.59069864
_cell_angle_beta   42.59070190
_cell_angle_gamma   42.59070069
_symmetry_Int_Tables_number   1
_chemical_formula_structural   CsMnCl3
_chemical_formula_sum   'Cs3 Mn3 Cl9'
_cell_volume   422.31554617
_cell_formula_units_Z   3
loop_
 _symmetry_equiv_pos_site_id
 _symmetry_equiv_pos_as_xyz
  1  'x, y, z'
loop_
 _atom_site_type_symbol
 _atom_site_label
 _atom_site_symmetry_multiplicity
 _atom_site_fract_x
 _atom_site_fract_y
 _atom_site_fract_z
 _atom_site_occupancy
  Cs  Cs0  1  0.78056749  0.78056849  0.78056749  1
  Cs  Cs1  1  0.21943251  0.21943151  0.21943251  1
  Cs  Cs2  1  0.00000000  -0.00000000  0.00000000  1
  Mn  Mn0  1  0.61574158  0.61574058  0.61574058  1
  Mn  Mn1  1  0.38425842  0.38425942  0.38425942  1
  Mn  Mn2  1  0.50000000  0.50000000  0.50000000  1
  Cl  Cl0  1  0.28570600  0.28570600  0.75693382  1
  Cl  Cl1  1  0.28570600  0.75693382  0.28570600  1
  Cl  Cl2  1  0.75693382  0.28570600  0.28570600  1
  Cl  Cl3  1  0.24306618  0.71429400  0.71429400  1
  Cl  Cl4  1  0.71429400  0.71429400  0.24306618  1
  Cl  Cl5  1  0.71429400  0.24306618  0.71429400  1
  Cl  Cl6  1  0.50000000  0.50000000  0.00000000  1
  Cl  Cl7  1  0.00000000  0.50000000  0.50000000  1
  Cl  Cl8  1  0.50000000  -0.00000000  0.50000000  1
loop_
_geom_bond_atom_site_label_1
_geom_bond_atom_site_label_2
_geom_bond_distance
_geom_bond_site_symmetry_2
Cl0 Mn2 2.531772 1_555
Cl0 Mn1 2.554061 1_555
Cl0 Cs0 3.657648 1_545
Cl0 Cs0 3.657655 1_455
Cl0 Cs2 3.737479 1_556
Cl0 Cs1 3.749251 1_556
Cl1 Mn2 2.531772 1_555
Cl1 Mn1 2.554061 1_555
Cl1 Cs0 3.657652 1_554
Cl1 Cs0 3.657652 1_455
Cl1 Cs2 3.737479 1_565
Cl1 Cs1 3.749246 1_565
Cl2 Mn2 2.531772 1_555
Cl2 Mn1 2.554066 1_555
Cl2 Cs0 3.657647 1_545
Cl2 Cs0 3.657655 1_554
Cl2 Cs2 3.737479 1_655
Cl2 Cs1 3.749251 1_655
Cl3 Mn2 2.531772 1_555
Cl3 Mn0 2.554066 1_555
Cl3 Cs1 3.657647 1_565
Cl3 Cs1 3.657655 1_556
Cl3 Cs2 3.737479 1_566
Cl3 Cs0 3.749251 1_455
Cl4 Mn2 2.531772 1_555
Cl4 Mn0 2.554061 1_555
Cl4 Cs1 3.657648 1_565
Cl4 Cs1 3.657655 1_655
Cl4 Cs2 3.737479 1_665
Cl4 Cs0 3.749251 1_554
Cl5 Mn2 2.531772 1_555
Cl5 Mn0 2.554061 1_555
Cl5 Cs1 3.657652 1_556
Cl5 Cs1 3.657652 1_655
Cl5 Cs2 3.737479 1_656
Cl5 Cs0 3.749246 1_545
Cl6 Mn1 2.529116 1_555
Cl6 Mn0 2.529116 1_554
Cl6 Cs2 3.653600 1_565
Cl6 Cs2 3.653600 1_655
Cl6 Cs1 3.766756 1_555
Cl6 Cs0 3.766756 1_554
Cl7 Mn1 2.529111 1_555
Cl7 Mn0 2.529111 1_455
Cl7 Cs2 3.653600 1_556
Cl7 Cs2 3.653600 1_565
Cl7 Cs0 3.766756 1_455
Cl7 Cs1 3.766756 1_555
Cl8 Mn1 2.529116 1_555
Cl8 Mn0 2.529116 1_545
Cl8 Cs2 3.653601 1_655
Cl8 Cs2 3.653601 1_556
Cl8 Cs0 3.766753 1_545
Cl8 Cs1 3.766753 1_555
