# generated using pymatgen
data_YTaSi(SO6)2
_symmetry_space_group_name_H-M   'P 1'
_cell_length_a   9.12679696
_cell_length_b   9.14803190
_cell_length_c   22.93503669
_cell_angle_alpha   89.90657499
_cell_angle_beta   90.00000000
_cell_angle_gamma   119.92324306
_symmetry_Int_Tables_number   1
_chemical_formula_structural   YTaSi(SO6)2
_chemical_formula_sum   'Y6 Ta6 Si6 S12 O72'
_cell_volume   1659.62798448
_cell_formula_units_Z   6
loop_
 _symmetry_equiv_pos_site_id
 _symmetry_equiv_pos_as_xyz
  1  'x, y, z'
loop_
 _atom_site_type_symbol
 _atom_site_label
 _atom_site_symmetry_multiplicity
 _atom_site_fract_x
 _atom_site_fract_y
 _atom_site_fract_z
 _atom_site_occupancy
  Y  Y0  1  0.99460980  0.00993129  0.36408356  1
  Y  Y1  1  0.01532149  0.00993129  0.86408356  1
  Y  Y2  1  0.67001952  0.33383736  0.69763631  1
  Y  Y3  1  0.66381884  0.33383736  0.19763631  1
  Y  Y4  1  0.32934215  0.66897689  0.03117376  1
  Y  Y5  1  0.33963374  0.66897689  0.53117376  1
  Ta  Ta0  1  0.00281689  0.01438811  0.64417914  1
  Ta  Ta1  1  0.01157122  0.01438811  0.14417914  1
  Ta  Ta2  1  0.65435433  0.32714679  0.97745932  1
  Ta  Ta3  1  0.67279346  0.32714679  0.47745932  1
  Ta  Ta4  1  0.33641627  0.66917667  0.31150770  1
  Ta  Ta5  1  0.33275940  0.66917667  0.81150770  1
  Si  Si0  1  0.02320309  0.29750304  0.25053333  1
  Si  Si1  1  0.27429995  0.29750304  0.75053333  1
  Si  Si2  1  0.94128373  0.31571822  0.58441482  1
  Si  Si3  1  0.37443549  0.31571822  0.08441482  1
  Si  Si4  1  0.35604732  0.95828493  0.91766981  1
  Si  Si5  1  0.60223662  0.95828493  0.41766981  1
  S  S0  1  0.26642863  0.96821946  0.24998671  1
  S  S1  1  0.70607934  0.72951624  0.25062743  1
  S  S2  1  0.02343690  0.72951624  0.75062743  1
  S  S3  1  0.70179083  0.96821946  0.74998671  1
  S  S4  1  0.36944138  0.06518935  0.58224075  1
  S  S5  1  0.69639384  0.62953800  0.58402340  1
  S  S6  1  0.93314516  0.62953800  0.08402340  1
  S  S7  1  0.69574897  0.06518935  0.08224075  1
  S  S8  1  0.60322866  0.64238977  0.91567236  1
  S  S9  1  0.03648664  0.40155613  0.91608419  1
  S  S10  1  0.36506850  0.40155613  0.41608419  1
  S  S11  1  0.03916010  0.64238977  0.41567236  1
  O  O0  1  0.19787191  0.99968088  0.30215760  1
  O  O1  1  0.80980551  0.79754340  0.30243612  1
  O  O2  1  0.99460564  0.17836094  0.30446087  1
  O  O3  1  0.18375529  0.17836094  0.80446087  1
  O  O4  1  0.98773789  0.79754340  0.80243612  1
  O  O5  1  0.80180897  0.99968088  0.80215760  1
  O  O6  1  0.78549907  0.93845726  0.69762171  1
  O  O7  1  0.14219398  0.19277794  0.69218623  1
  O  O8  1  0.05043732  0.83629982  0.69791463  1
  O  O9  1  0.78586249  0.83629982  0.19791463  1
  O  O10  1  0.05058395  0.19277794  0.19218623  1
  O  O11  1  0.15295820  0.93845726  0.19762171  1
  O  O12  1  0.85378567  0.33958351  0.63986863  1
  O  O13  1  0.47131506  0.13530888  0.63418064  1
  O  O14  1  0.65912099  0.52148282  0.63493221  1
  O  O15  1  0.86236283  0.52148282  0.13493221  1
  O  O16  1  0.66399482  0.13530888  0.13418064  1
  O  O17  1  0.48579884  0.33958351  0.13986863  1
  O  O18  1  0.47683684  0.28776459  0.02621625  1
  O  O19  1  0.82939526  0.54830040  0.03037907  1
  O  O20  1  0.72920917  0.17995348  0.03006482  1
  O  O21  1  0.45074531  0.17995348  0.53006482  1
  O  O22  1  0.71890614  0.54830040  0.53037907  1
  O  O23  1  0.81092875  0.28776459  0.52621625  1
  O  O24  1  0.53242502  0.66931804  0.96838301  1
  O  O25  1  0.14774704  0.46569407  0.96639122  1
  O  O26  1  0.33709350  0.85148410  0.97413194  1
  O  O27  1  0.51438960  0.85148410  0.47413194  1
  O  O28  1  0.31794603  0.46569407  0.46639122  1
  O  O29  1  0.13689202  0.66931804  0.46838301  1
  O  O30  1  0.12142916  0.60825615  0.36375716  1
  O  O31  1  0.47472873  0.86114491  0.35992159  1
  O  O32  1  0.38950659  0.51275887  0.36320255  1
  O  O33  1  0.12325128  0.51275887  0.86320255  1
  O  O34  1  0.38641517  0.86114491  0.85992159  1
  O  O35  1  0.48682599  0.60825615  0.86375716  1
  O  O36  1  0.01230838  0.78288158  0.40318376  1
  O  O37  1  0.79099189  0.99713370  0.40929561  1
  O  O38  1  0.23776404  0.22693650  0.40397723  1
  O  O39  1  0.98917246  0.22693650  0.90397723  1
  O  O40  1  0.20614181  0.99713370  0.90929561  1
  O  O41  1  0.77057320  0.78288158  0.90318376  1
  O  O42  1  0.93719336  0.12809735  0.59368257  1
  O  O43  1  0.19812666  0.05357407  0.59000588  1
  O  O44  1  0.85913588  0.79229976  0.59401499  1
  O  O45  1  0.93316388  0.79229976  0.09401499  1
  O  O46  1  0.85544741  0.05357407  0.09000588  1
  O  O47  1  0.19090399  0.12809735  0.09368257  1
  O  O48  1  0.66413268  0.10264355  0.73864391  1
  O  O49  1  0.45963344  0.33387184  0.73680759  1
  O  O50  1  0.88909472  0.55567737  0.74173210  1
  O  O51  1  0.66658365  0.55567737  0.24173210  1
  O  O52  1  0.87423940  0.33387184  0.23680759  1
  O  O53  1  0.43851187  0.10264355  0.23864391  1
  O  O54  1  0.61749440  0.48402354  0.92276810  1
  O  O55  1  0.87880375  0.41029186  0.92628567  1
  O  O56  1  0.53893224  0.14789192  0.92749321  1
  O  O57  1  0.60896067  0.14789192  0.42749321  1
  O  O58  1  0.53148911  0.41029186  0.42628567  1
  O  O59  1  0.86653014  0.48402354  0.42276810  1
  O  O60  1  0.32859595  0.45702154  0.07018006  1
  O  O61  1  0.10778637  0.66808645  0.07516153  1
  O  O62  1  0.55884613  0.89445137  0.07172613  1
  O  O63  1  0.33560424  0.89445137  0.57172613  1
  O  O64  1  0.56029908  0.66808645  0.57516153  1
  O  O65  1  0.12842458  0.45702154  0.57018006  1
  O  O66  1  0.26990687  0.80410981  0.25708803  1
  O  O67  1  0.53807510  0.72532825  0.25973202  1
  O  O68  1  0.20238129  0.48013724  0.26272277  1
  O  O69  1  0.27775495  0.48013724  0.76272277  1
  O  O70  1  0.18725215  0.72532825  0.75973202  1
  O  O71  1  0.53420193  0.80410981  0.75708803  1
loop_
_geom_bond_atom_site_label_1
_geom_bond_atom_site_label_2
_geom_bond_distance
_geom_bond_site_symmetry_2
O0 S0 1.444590 1_555
O0 Y0 2.375179 1_465
O1 S1 1.452596 1_555
O1 Y0 2.314821 1_565
O2 Si0 1.580374 1_655
O2 Y0 2.058438 1_555
O3 Si1 1.580374 1_555
O3 Y1 2.058438 1_555
O4 S2 1.452596 1_655
O4 Y1 2.314821 1_665
O5 S3 1.444590 1_555
O5 Y1 2.375179 1_665
O6 S3 1.519468 1_555
O6 Ta0 2.131078 1_665
O7 Si1 1.736106 1_555
O7 Ta0 1.851587 1_555
O8 S2 1.494179 1_555
O8 Ta0 2.249844 1_565
O9 S1 1.494179 1_555
O9 Ta1 2.249844 1_665
O10 Si0 1.736106 1_555
O10 Ta1 1.851587 1_555
O11 S0 1.519468 1_555
O11 Ta1 2.131079 1_565
O12 Si2 1.574103 1_555
O12 Y2 2.117294 1_555
O13 S4 1.449993 1_555
O13 Y2 2.329803 1_555
O14 S5 1.454946 1_555
O14 Y2 2.277511 1_555
O15 S6 1.454946 1_555
O15 Y3 2.277511 1_555
O16 S7 1.449993 1_555
O16 Y3 2.329803 1_555
O17 Si3 1.574103 1_555
O17 Y3 2.117294 1_555
O18 Si3 1.720486 1_555
O18 Ta2 1.849741 1_554
O19 S6 1.504511 1_555
O19 Ta2 2.213996 1_554
O20 S7 1.517729 1_555
O20 Ta2 2.155932 1_554
O21 S4 1.517729 1_555
O21 Ta3 2.155932 1_555
O22 S5 1.504511 1_555
O22 Ta3 2.213996 1_555
O23 Si2 1.720486 1_555
O23 Ta3 1.849741 1_555
O24 S8 1.448983 1_555
O24 Y4 2.345972 1_556
O25 S9 1.454108 1_555
O25 Y4 2.312309 1_556
O26 Si4 1.577551 1_555
O26 Y4 2.092625 1_556
O27 Si5 1.577551 1_555
O27 Y5 2.092625 1_555
O28 S10 1.454108 1_555
O28 Y5 2.312309 1_555
O29 S11 1.448983 1_555
O29 Y5 2.345972 1_555
O30 S11 1.521224 1_555
O30 Ta4 2.122139 1_555
O31 Si5 1.694181 1_555
O31 Ta4 1.924866 1_555
O32 S10 1.524864 1_555
O32 Ta4 2.091460 1_555
O33 S9 1.524864 1_555
O33 Ta5 2.091460 1_555
O34 Si4 1.694181 1_555
O34 Ta5 1.924866 1_555
O35 S8 1.521224 1_555
O35 Ta5 2.122139 1_555
O36 S11 1.451529 1_555
O36 Y0 2.339467 1_465
O37 Si5 1.587435 1_555
O37 Y0 2.079680 1_565
O38 S10 1.458964 1_555
O38 Y0 2.305128 1_455
O39 S9 1.458966 1_655
O39 Y1 2.305128 1_655
O40 Si4 1.587426 1_555
O40 Y1 2.079680 1_565
O41 S8 1.451535 1_555
O41 Y1 2.339467 1_665
O42 Si2 1.710952 1_555
O42 Ta0 1.843828 1_655
O43 S4 1.523777 1_555
O43 Ta0 2.052011 1_555
O44 S5 1.506761 1_555
O44 Ta0 2.126168 1_665
O45 S6 1.506766 1_555
O45 Ta1 2.126168 1_665
O46 S7 1.523768 1_555
O46 Ta1 2.052011 1_655
O47 Si3 1.710956 1_555
O47 Ta1 1.843828 1_555
O48 S3 1.455553 1_545
O48 Y2 2.289254 1_555
O49 Si1 1.584034 1_555
O49 Y2 2.120070 1_555
O50 S2 1.459347 1_655
O50 Y2 2.257766 1_555
O51 S1 1.459350 1_555
O51 Y3 2.257766 1_555
O52 Si0 1.584025 1_655
O52 Y3 2.120070 1_555
O53 S0 1.455559 1_545
O53 Y3 2.289254 1_555
O54 S8 1.526336 1_555
O54 Ta2 2.054728 1_555
O55 S9 1.499018 1_655
O55 Ta2 2.143592 1_555
O56 Si4 1.719950 1_545
O56 Ta2 1.842473 1_555
O57 Si5 1.719941 1_545
O57 Ta3 1.842473 1_555
O58 S10 1.499036 1_555
O58 Ta3 2.143592 1_555
O59 S11 1.526326 1_655
O59 Ta3 2.054728 1_555
O60 Si3 1.578203 1_555
O60 Y4 2.131001 1_555
O61 S6 1.464657 1_455
O61 Y4 2.256163 1_555
O62 S7 1.453657 1_565
O62 Y4 2.280972 1_555
O63 S4 1.453651 1_565
O63 Y5 2.280972 1_555
O64 S5 1.464675 1_555
O64 Y5 2.256163 1_555
O65 Si2 1.578191 1_455
O65 Y5 2.131001 1_555
O66 S0 1.525820 1_555
O66 Ta4 2.047551 1_555
O67 S1 1.528911 1_555
O67 Ta4 2.028839 1_555
O68 Si0 1.679131 1_555
O68 Ta4 1.906490 1_555
O69 Si1 1.679136 1_555
O69 Ta5 1.906490 1_555
O70 S2 1.528902 1_555
O70 Ta5 2.028839 1_555
O71 S3 1.525825 1_555
O71 Ta5 2.047551 1_555
