# generated using pymatgen
data_Na7Sc2Ga2SiP5O24
_symmetry_space_group_name_H-M   'P 1'
_cell_length_a   8.94242039
_cell_length_b   8.93210309
_cell_length_c   22.24390230
_cell_angle_alpha   90.21623106
_cell_angle_beta   89.64262709
_cell_angle_gamma   119.94144044
_symmetry_Int_Tables_number   1
_chemical_formula_structural   Na7Sc2Ga2SiP5O24
_chemical_formula_sum   'Na21 Sc6 Ga6 Si3 P15 O72'
_cell_volume   1539.56423738
_cell_formula_units_Z   3
loop_
 _symmetry_equiv_pos_site_id
 _symmetry_equiv_pos_as_xyz
  1  'x, y, z'
loop_
 _atom_site_type_symbol
 _atom_site_label
 _atom_site_symmetry_multiplicity
 _atom_site_fract_x
 _atom_site_fract_y
 _atom_site_fract_z
 _atom_site_occupancy
  Na  Na0  1  0.36593672  0.36739789  0.25081270  1
  Na  Na1  1  0.99924297  0.63279981  0.24964392  1
  Na  Na2  1  0.63498991  0.63858941  0.75002332  1
  Na  Na3  1  0.99727073  0.36188777  0.75134483  1
  Na  Na4  1  0.36810018  0.99935495  0.74978123  1
  Na  Na5  1  0.30244560  0.33041457  0.58199561  1
  Na  Na6  1  0.03478490  0.70094552  0.58230013  1
  Na  Na7  1  0.66327270  0.96733428  0.58419421  1
  Na  Na8  1  0.29983907  0.96642159  0.08341199  1
  Na  Na9  1  0.66954526  0.69843668  0.08310741  1
  Na  Na10  1  0.03183701  0.33628829  0.08382463  1
  Na  Na11  1  0.96599766  0.66578087  0.91785266  1
  Na  Na12  1  0.70057316  0.03294572  0.91558090  1
  Na  Na13  1  0.96741971  0.29930897  0.41566900  1
  Na  Na14  1  0.33416126  0.03388756  0.41704470  1
  Na  Na15  1  0.99658797  0.99337791  0.49849180  1
  Na  Na16  1  0.00649099  0.00393564  0.00028482  1
  Na  Na17  1  0.66022865  0.33022758  0.83392609  1
  Na  Na18  1  0.66666109  0.33330495  0.33324972  1
  Na  Na19  1  0.33722662  0.67299111  0.16745860  1
  Na  Na20  1  0.33682844  0.67144494  0.66662819  1
  Sc  Sc0  1  0.00256797  0.00701437  0.85229790  1
  Sc  Sc1  1  0.99844266  0.99899105  0.65043049  1
  Sc  Sc2  1  0.66322635  0.32464669  0.68293395  1
  Sc  Sc3  1  0.67163094  0.33079588  0.18467551  1
  Sc  Sc4  1  0.66422325  0.33807530  0.98260211  1
  Sc  Sc5  1  0.66214609  0.33632848  0.48047827  1
  Ga  Ga0  1  0.99183612  0.99315930  0.34975977  1
  Ga  Ga1  1  0.99728384  0.99355059  0.15158689  1
  Ga  Ga2  1  0.32773839  0.66474844  0.01623971  1
  Ga  Ga3  1  0.33664164  0.67306448  0.51483705  1
  Ga  Ga4  1  0.34147522  0.67350773  0.31686078  1
  Ga  Ga5  1  0.33922159  0.67004234  0.81743124  1
  Si  Si0  1  0.69901746  0.99564635  0.75187342  1
  Si  Si1  1  0.36875597  0.03130304  0.58112365  1
  Si  Si2  1  0.96750139  0.63427250  0.08340294  1
  P  P0  1  0.28803002  0.99663390  0.25196726  1
  P  P1  1  0.70749838  0.71462721  0.25117626  1
  P  P2  1  0.00147289  0.28769857  0.25150798  1
  P  P3  1  0.29448674  0.29868260  0.75087364  1
  P  P4  1  0.00284422  0.70470545  0.75156589  1
  P  P5  1  0.96526876  0.33747864  0.58140134  1
  P  P6  1  0.66309525  0.62719135  0.58271830  1
  P  P7  1  0.66696362  0.03634599  0.08259749  1
  P  P8  1  0.36937749  0.33314468  0.08433910  1
  P  P9  1  0.61729655  0.66317811  0.91693623  1
  P  P10  1  0.04912215  0.38027007  0.91654035  1
  P  P11  1  0.33390218  0.95507003  0.91680759  1
  P  P12  1  0.62601933  0.95178118  0.41538945  1
  P  P13  1  0.33127517  0.37893545  0.41505200  1
  P  P14  1  0.04593306  0.67061199  0.41461948  1
  O  O0  1  0.20430661  0.03167131  0.30792983  1
  O  O1  1  0.82990867  0.79639358  0.30504380  1
  O  O2  1  0.97404351  0.17679357  0.30814236  1
  O  O3  1  0.21181005  0.17649405  0.80430665  1
  O  O4  1  0.96967283  0.78770316  0.80717602  1
  O  O5  1  0.82469067  0.03469634  0.80956778  1
  O  O6  1  0.78148951  0.95789569  0.69196992  1
  O  O7  1  0.18360478  0.22111619  0.69382826  1
  O  O8  1  0.03856187  0.81832045  0.69505577  1
  O  O9  1  0.78696363  0.82184476  0.19291141  1
  O  O10  1  0.03572346  0.20704931  0.19405076  1
  O  O11  1  0.17471556  0.96294909  0.19456252  1
  O  O12  1  0.88796772  0.37369582  0.63824701  1
  O  O13  1  0.48902445  0.11389031  0.64078282  1
  O  O14  1  0.63022687  0.51727856  0.63992244  1
  O  O15  1  0.88279163  0.50908958  0.14184286  1
  O  O16  1  0.62773930  0.11763485  0.13686944  1
  O  O17  1  0.48323866  0.36848854  0.14055717  1
  O  O18  1  0.45022030  0.29407458  0.02994613  1
  O  O19  1  0.84317973  0.55048578  0.02494178  1
  O  O20  1  0.70226626  0.14982466  0.02615679  1
  O  O21  1  0.45609810  0.15824690  0.52355167  1
  O  O22  1  0.70105969  0.54358138  0.52883275  1
  O  O23  1  0.84863914  0.30314367  0.52633942  1
  O  O24  1  0.53622143  0.69861888  0.97368269  1
  O  O25  1  0.15749771  0.46222078  0.97378365  1
  O  O26  1  0.30139701  0.84066712  0.97360054  1
  O  O27  1  0.54686232  0.84512232  0.47356603  1
  O  O28  1  0.29742551  0.45929583  0.47250519  1
  O  O29  1  0.15841339  0.70355552  0.47201400  1
  O  O30  1  0.12940356  0.63521485  0.35865857  1
  O  O31  1  0.50331325  0.87006531  0.36153444  1
  O  O32  1  0.35901634  0.49002524  0.35845235  1
  O  O33  1  0.12989285  0.49537580  0.85994156  1
  O  O34  1  0.36536206  0.87268775  0.85989983  1
  O  O35  1  0.50982564  0.63728537  0.85979000  1
  O  O36  1  0.03309695  0.83793246  0.40884594  1
  O  O37  1  0.81181576  0.97891602  0.40905685  1
  O  O38  1  0.16592948  0.19449949  0.41032673  1
  O  O39  1  0.02330847  0.19611095  0.91325755  1
  O  O40  1  0.16760115  0.96652359  0.91217421  1
  O  O41  1  0.80054011  0.82764574  0.91304290  1
  O  O42  1  0.98060173  0.17299833  0.58782779  1
  O  O43  1  0.17896624  0.01483819  0.58732853  1
  O  O44  1  0.82567637  0.80872310  0.58757736  1
  O  O45  1  0.98362593  0.82638820  0.09110573  1
  O  O46  1  0.83329355  0.02255351  0.09059656  1
  O  O47  1  0.18600722  0.17072694  0.09121668  1
  O  O48  1  0.68503107  0.17132809  0.74710720  1
  O  O49  1  0.47685760  0.32067690  0.74502314  1
  O  O50  1  0.83838920  0.52600384  0.74506876  1
  O  O51  1  0.68881097  0.53153336  0.24572967  1
  O  O52  1  0.84327530  0.31319897  0.24673351  1
  O  O53  1  0.46518893  0.16225405  0.24571325  1
  O  O54  1  0.64334038  0.50532259  0.92053134  1
  O  O55  1  0.86598982  0.36106214  0.92077062  1
  O  O56  1  0.49932041  0.13238224  0.92167390  1
  O  O57  1  0.64509857  0.13515102  0.42053108  1
  O  O58  1  0.48966750  0.35345407  0.41946638  1
  O  O59  1  0.86850561  0.50467151  0.42054968  1
  O  O60  1  0.35540137  0.49960608  0.07634707  1
  O  O61  1  0.15932215  0.65038121  0.07608751  1
  O  O62  1  0.50467240  0.85289921  0.07596444  1
  O  O63  1  0.35289503  0.83956603  0.57503383  1
  O  O64  1  0.49739497  0.64134548  0.57540775  1
  O  O65  1  0.14784279  0.49973860  0.57507238  1
  O  O66  1  0.30033775  0.82881674  0.25777774  1
  O  O67  1  0.52175646  0.68770875  0.25754785  1
  O  O68  1  0.16714201  0.47207245  0.25630605  1
  O  O69  1  0.30790827  0.47833552  0.75791946  1
  O  O70  1  0.16532899  0.68471754  0.75756989  1
  O  O71  1  0.50708411  0.82080848  0.75775995  1
loop_
_geom_bond_atom_site_label_1
_geom_bond_atom_site_label_2
_geom_bond_distance
_geom_bond_site_symmetry_2
Na0 O68 2.388494 1_555
Na0 O53 2.403915 1_555
Na0 O67 2.483839 1_555
Na0 O51 2.504045 1_555
Na0 O32 2.642418 1_555
Na0 O17 2.659535 1_555
Na0 O10 2.859409 1_555
Na0 O0 2.893956 1_555
Na1 O66 2.376066 1_655
Na1 O51 2.455177 1_555
Na1 O52 2.474683 1_555
Na1 O68 2.548202 1_655
Na1 O15 2.630196 1_555
Na1 O30 2.691689 1_655
Na1 O11 2.836151 1_655
Na1 O1 2.849330 1_555
Na2 O71 2.416756 1_555
Na2 O49 2.463068 1_555
Na2 O50 2.480786 1_555
Na2 O69 2.539883 1_555
Na2 O14 2.666286 1_555
Na2 O35 2.677240 1_555
Na2 O6 2.791964 1_555
Na2 O4 2.898792 1_555
Na3 O69 2.437095 1_655
Na3 O48 2.441354 1_555
Na3 O70 2.503258 1_655
Na3 O50 2.504007 1_555
Na3 O33 2.695514 1_655
Na3 O12 2.725989 1_555
Na3 O7 2.836733 1_655
Na3 O5 2.846302 1_555
Na4 O48 2.459312 1_565
Na4 O71 2.470431 1_555
Na4 O70 2.475676 1_555
Na4 O49 2.531614 1_565
Na4 O13 2.641229 1_565
Na4 O34 2.696865 1_555
Na4 O8 2.837925 1_555
Na4 O3 2.845974 1_565
Na5 O64 2.437343 1_555
Na5 O43 2.464278 1_555
Na5 O42 2.496846 1_455
Na5 O65 2.512801 1_555
Na5 O7 2.687060 1_555
Na5 O28 2.707947 1_555
Na5 O21 2.831038 1_555
Na5 O14 2.860945 1_555
Na6 O43 2.434471 1_565
Na6 O65 2.467283 1_555
Na6 O63 2.476123 1_555
Na6 O44 2.496110 1_455
Na6 O29 2.679886 1_555
Na6 O8 2.708662 1_555
Na6 O12 2.827145 1_455
Na6 O22 2.853183 1_455
Na7 O63 2.427111 1_555
Na7 O44 2.485545 1_555
Na7 O42 2.496343 1_565
Na7 O64 2.530752 1_555
Na7 O6 2.644630 1_555
Na7 O27 2.684801 1_555
Na7 O13 2.779446 1_565
Na7 O23 2.905183 1_565
Na8 O61 2.456114 1_555
Na8 O45 2.460626 1_455
Na8 O47 2.499243 1_565
Na8 O62 2.501953 1_555
Na8 O26 2.687535 1_554
Na8 O11 2.701335 1_555
Na8 O18 2.804572 1_565
Na8 O16 2.813205 1_565
Na9 O45 2.454942 1_555
Na9 O60 2.468066 1_555
Na9 O62 2.477420 1_555
Na9 O46 2.514141 1_565
Na9 O9 2.671989 1_555
Na9 O24 2.717373 1_554
Na9 O19 2.800293 1_555
Na9 O17 2.862662 1_555
Na10 O61 2.451259 1_555
Na10 O46 2.461943 1_455
Na10 O47 2.480813 1_555
Na10 O60 2.512000 1_555
Na10 O25 2.691494 1_554
Na10 O10 2.721742 1_555
Na10 O15 2.800238 1_455
Na10 O20 2.869904 1_455
Na11 O40 2.376464 1_655
Na11 O55 2.404764 1_555
Na11 O54 2.500668 1_555
Na11 O41 2.535644 1_555
Na11 O19 2.607283 1_556
Na11 O4 2.689127 1_555
Na11 O33 2.883161 1_655
Na11 O26 2.885908 1_655
Na12 O56 2.374397 1_555
Na12 O41 2.408314 1_545
Na12 O39 2.501186 1_655
Na12 O55 2.542210 1_555
Na12 O5 2.596787 1_555
Na12 O20 2.665566 1_556
Na12 O34 2.884148 1_545
Na12 O24 2.893495 1_545
Na13 O38 2.386871 1_655
Na13 O59 2.403300 1_555
Na13 O37 2.484344 1_545
Na13 O57 2.499599 1_555
Na13 O2 2.639127 1_555
Na13 O23 2.681911 1_555
Na13 O28 2.858743 1_655
Na13 O30 2.894113 1_655
Na14 O36 2.375880 1_545
Na14 O57 2.459089 1_555
Na14 O58 2.474217 1_555
Na14 O38 2.549990 1_555
Na14 O21 2.615133 1_555
Na14 O0 2.692893 1_555
Na14 O29 2.836402 1_545
Na14 O31 2.850685 1_545
Na15 O43 2.515301 1_665
Na15 O36 2.536573 1_655
Na15 O44 2.540391 1_555
Na15 O37 2.555477 1_555
Na15 O38 2.576896 1_665
Na15 O42 2.597061 1_565
Na16 O45 2.516623 1_445
Na16 O40 2.543433 1_544
Na16 O39 2.545638 1_554
Na16 O47 2.553068 1_555
Na16 O46 2.584152 1_455
Na16 O41 2.600754 1_444
Na17 O48 2.466035 1_555
Na17 O54 2.527720 1_555
Na17 O56 2.540826 1_555
Na17 O49 2.550764 1_555
Na17 O50 2.590097 1_555
Na17 O55 2.593766 1_555
Na18 O58 2.541517 1_555
Na18 O52 2.544165 1_555
Na18 O57 2.572890 1_555
Na18 O59 2.575886 1_555
Na18 O51 2.575917 1_555
Na18 O53 2.577827 1_555
Na19 O61 2.533596 1_555
Na19 O66 2.551725 1_555
Na19 O62 2.559519 1_555
Na19 O67 2.564905 1_555
Na19 O68 2.589282 1_555
Na19 O60 2.599180 1_555
Na20 O71 2.489501 1_555
Na20 O63 2.496158 1_555
Na20 O64 2.568284 1_555
Na20 O70 2.568880 1_555
Na20 O69 2.596209 1_555
Na20 O65 2.605356 1_555
Ga0 O1 1.907712 1_555
Ga0 O2 1.961249 1_565
Ga0 O0 1.980410 1_665
Ga0 O37 2.029234 1_555
Ga0 O36 2.077597 1_655
Ga0 O38 2.164724 1_665
Ga1 O9 1.960647 1_555
Ga1 O45 1.964454 1_555
Ga1 O11 1.989945 1_655
Ga1 O10 1.995765 1_665
Ga1 O46 2.113026 1_565
Ga1 O47 2.116042 1_665
Ga2 O25 1.933364 1_554
Ga2 O26 1.951317 1_554
Ga2 O61 1.959649 1_555
Ga2 O24 1.969907 1_554
Ga2 O60 2.099502 1_555
Ga2 O62 2.108967 1_555
Ga3 O63 1.948715 1_555
Ga3 O27 1.960552 1_555
Ga3 O29 1.993965 1_555
Ga3 O28 1.994391 1_555
Ga3 O64 2.096577 1_555
Ga3 O65 2.102559 1_555
Ga4 O31 1.905974 1_555
Ga4 O32 1.958658 1_555
Ga4 O30 1.977570 1_555
Ga4 O67 2.031355 1_555
Ga4 O66 2.077542 1_555
Ga4 O68 2.165615 1_555
Ga5 O35 1.940744 1_555
Ga5 O34 1.946998 1_555
Ga5 O71 1.949184 1_555
Ga5 O33 1.976362 1_555
Ga5 O69 2.066831 1_555
Ga5 O70 2.106873 1_555
O0 P0 1.558011 1_545
O1 P1 1.542432 1_555
O2 P2 1.546452 1_655
O3 P3 1.530944 1_555
O3 Sc0 2.022892 1_555
O4 P4 1.541342 1_655
O4 Sc0 2.084436 1_665
O5 Si0 1.629398 1_545
O5 Sc0 1.976860 1_655
O6 Si0 1.632702 1_555
O6 Sc1 2.005433 1_555
O7 P3 1.548104 1_555
O7 Sc1 2.082329 1_445
O8 P4 1.546932 1_555
O8 Sc1 2.076719 1_455
O9 P1 1.555756 1_555
O10 P2 1.566723 1_555
O11 P0 1.567387 1_555
O12 P5 1.546157 1_555
O12 Sc2 2.078091 1_555
O13 Si1 1.637185 1_555
O13 Sc2 1.981707 1_555
O14 P6 1.544686 1_555
O14 Sc2 2.117952 1_555
O15 Si2 1.633119 1_555
O15 Sc3 1.999183 1_555
O16 P7 1.532950 1_555
O16 Sc3 2.038119 1_555
O17 P8 1.546671 1_555
O17 Sc3 2.122236 1_555
O18 P8 1.531680 1_555
O18 Sc4 2.037885 1_554
O19 Si2 1.633171 1_555
O19 Sc4 2.005512 1_554
O20 P7 1.545470 1_555
O20 Sc4 2.114034 1_554
O21 Si1 1.627929 1_555
O21 Sc5 1.976613 1_555
O22 P6 1.533279 1_555
O22 Sc5 2.012845 1_555
O23 P5 1.541340 1_555
O23 Sc5 2.103972 1_555
O24 P9 1.560072 1_555
O25 P10 1.548091 1_555
O26 P11 1.559893 1_555
O27 P12 1.551776 1_555
O28 P13 1.563721 1_555
O29 P14 1.563954 1_555
O30 P14 1.558088 1_555
O31 P12 1.543429 1_555
O32 P13 1.546292 1_555
O33 P10 1.555930 1_555
O34 P11 1.555046 1_555
O35 P9 1.544049 1_555
O36 P14 1.560817 1_555
O37 P12 1.560265 1_555
O38 P13 1.574904 1_555
O39 P10 1.544239 1_555
O39 Sc0 2.097390 1_555
O40 P11 1.544836 1_555
O40 Sc0 2.154913 1_565
O41 P9 1.564273 1_555
O41 Sc0 2.180146 1_665
O42 P5 1.549376 1_555
O42 Sc1 2.155672 1_545
O43 Si1 1.633760 1_555
O43 Sc1 2.083598 1_445
O44 P6 1.549830 1_555
O44 Sc1 2.148919 1_555
O45 Si2 1.657072 1_555
O46 P7 1.563827 1_555
O47 P8 1.562297 1_555
O48 Si0 1.639095 1_545
O48 Sc2 2.058122 1_555
O49 P3 1.546896 1_555
O49 Sc2 2.144503 1_555
O50 P4 1.545672 1_655
O50 Sc2 2.189655 1_555
O51 P1 1.563050 1_555
O51 Sc3 2.189091 1_555
O52 P2 1.545366 1_655
O52 Sc3 2.134269 1_555
O53 P0 1.541725 1_545
O53 Sc3 2.174326 1_555
O54 P9 1.541935 1_555
O54 Sc4 2.114262 1_555
O55 P10 1.561379 1_655
O55 Sc4 2.188747 1_555
O56 P11 1.539569 1_545
O56 Sc4 2.165301 1_555
O57 P12 1.563558 1_545
O57 Sc5 2.177461 1_555
O58 P13 1.546407 1_555
O58 Sc5 2.123053 1_555
O59 P14 1.543709 1_655
O59 Sc5 2.158217 1_555
O60 P8 1.563879 1_555
O61 Si2 1.655264 1_455
O62 P7 1.562023 1_565
O63 Si1 1.651522 1_565
O64 P6 1.558271 1_555
O65 P5 1.556449 1_455
O66 P0 1.562698 1_555
O67 P1 1.560584 1_555
O68 P2 1.575905 1_555
O69 P3 1.555649 1_555
O70 P4 1.556436 1_555
O71 Si0 1.650735 1_555
