# generated using pymatgen
data_MgTiVO4
_symmetry_space_group_name_H-M   'P 1'
_cell_length_a   2.98267200
_cell_length_b   5.04734402
_cell_length_c   5.18765121
_cell_angle_alpha   89.92087028
_cell_angle_beta   90.00000000
_cell_angle_gamma   90.00000000
_symmetry_Int_Tables_number   1
_chemical_formula_structural   MgTiVO4
_chemical_formula_sum   'Mg1 Ti1 V1 O4'
_cell_volume   78.09779260
_cell_formula_units_Z   1
loop_
 _symmetry_equiv_pos_site_id
 _symmetry_equiv_pos_as_xyz
  1  'x, y, z'
loop_
 _atom_site_type_symbol
 _atom_site_label
 _atom_site_symmetry_multiplicity
 _atom_site_fract_x
 _atom_site_fract_y
 _atom_site_fract_z
 _atom_site_occupancy
  Mg  Mg0  1  0.03263700  0.00000000  0.50000000  1
  Ti  Ti0  1  0.53260400  0.50000000  0.50000000  1
  V  V0  1  0.03274100  0.00000000  0.00000000  1
  O  O0  1  0.03287700  0.33526200  0.30093300  1
  O  O1  1  0.53271600  0.83030500  0.27012800  1
  O  O2  1  0.53271600  0.16969500  0.72987200  1
  O  O3  1  0.03287700  0.66473800  0.69906700  1
loop_
_geom_bond_atom_site_label_1
_geom_bond_atom_site_label_2
_geom_bond_distance
_geom_bond_site_symmetry_2
Mg0 O0 1.981188 1_555
Mg0 O3 1.981188 1_545
Mg0 O2 2.093288 1_455
Mg0 O1 2.093288 1_445
Mg0 O2 2.093624 1_555
Mg0 O1 2.093624 1_545
O0 Ti0 1.995457 1_555
O0 Ti0 1.996674 1_455
O0 V0 2.303893 1_555
O1 Ti0 2.048411 1_555
O1 V0 2.217629 1_565
O1 V0 2.217729 1_665
O2 Ti0 2.048411 1_555
O2 V0 2.217629 1_556
O2 V0 2.217729 1_656
O3 Ti0 1.995457 1_555
O3 Ti0 1.996674 1_455
O3 V0 2.303893 1_566
