# generated using pymatgen
data_KTb3F12
_symmetry_space_group_name_H-M   'P 1'
_cell_length_a   6.89363739
_cell_length_b   6.89363739
_cell_length_c   6.89363739
_cell_angle_alpha   108.91370176
_cell_angle_beta   108.91370176
_cell_angle_gamma   110.59210653
_symmetry_Int_Tables_number   1
_chemical_formula_structural   KTb3F12
_chemical_formula_sum   'K1 Tb3 F12'
_cell_volume   252.11486893
_cell_formula_units_Z   1
loop_
 _symmetry_equiv_pos_site_id
 _symmetry_equiv_pos_as_xyz
  1  'x, y, z'
loop_
 _atom_site_type_symbol
 _atom_site_label
 _atom_site_symmetry_multiplicity
 _atom_site_fract_x
 _atom_site_fract_y
 _atom_site_fract_z
 _atom_site_occupancy
  K  K0  1  0.00000000  0.00000000  0.00000000  1
  Tb  Tb0  1  0.25000000  0.75000000  0.50000000  1
  Tb  Tb1  1  0.50000000  0.50000000  0.00000000  1
  Tb  Tb2  1  0.75000000  0.25000000  0.50000000  1
  F  F0  1  0.55443300  0.34441300  0.24715900  1
  F  F1  1  0.30727300  0.55443300  0.21002000  1
  F  F2  1  0.34441300  0.09725400  0.78998000  1
  F  F3  1  0.09725400  0.30727300  0.75284100  1
  F  F4  1  0.34171400  0.01335800  0.35507200  1
  F  F5  1  0.98664200  0.34171400  0.32835600  1
  F  F6  1  0.01335800  0.65828600  0.67164400  1
  F  F7  1  0.65828600  0.98664200  0.64492800  1
  F  F8  1  0.90274600  0.69272700  0.24715900  1
  F  F9  1  0.65558700  0.90274600  0.21002000  1
  F  F10  1  0.69272700  0.44556700  0.78998000  1
  F  F11  1  0.44556700  0.65558700  0.75284100  1
loop_
_geom_bond_atom_site_label_1
_geom_bond_atom_site_label_2
_geom_bond_distance
_geom_bond_site_symmetry_2
F0 Tb2 2.260192 1_555
F0 Tb1 2.290754 1_555
F0 K0 3.149720 1_555
F1 Tb0 2.260188 1_555
F1 Tb1 2.290760 1_555
F1 K0 3.149719 1_555
F2 Tb0 2.260192 1_545
F2 Tb1 2.290754 1_556
F2 K0 3.149720 1_556
F3 Tb2 2.260196 1_455
F3 Tb1 2.290753 1_556
F3 K0 3.149715 1_556
F4 Tb2 2.339205 1_555
F4 Tb0 2.339205 1_545
F4 K0 2.740848 1_555
F5 Tb0 2.339205 1_655
F5 Tb2 2.339205 1_555
F5 K0 2.740848 1_655
F6 Tb2 2.339205 1_455
F6 Tb0 2.339205 1_555
F6 K0 2.740848 1_566
F7 Tb2 2.339205 1_565
F7 Tb0 2.339205 1_555
F7 K0 2.740848 1_666
F8 Tb0 2.260196 1_655
F8 Tb1 2.290753 1_555
F8 K0 3.149715 1_665
F9 Tb2 2.260192 1_565
F9 Tb1 2.290754 1_555
F9 K0 3.149720 1_665
F10 Tb2 2.260188 1_555
F10 Tb1 2.290760 1_556
F10 K0 3.149719 1_666
F11 Tb0 2.260192 1_555
F11 Tb1 2.290754 1_556
F11 K0 3.149720 1_666
