# generated using pymatgen
data_Na14Ca5Ti3(PO4)12
_symmetry_space_group_name_H-M   'P 1'
_cell_length_a   18.48611527
_cell_length_b   9.25614464
_cell_length_c   22.35413411
_cell_angle_alpha   90.05398750
_cell_angle_beta   89.99540650
_cell_angle_gamma   119.75131688
_symmetry_Int_Tables_number   1
_chemical_formula_structural   Na14Ca5Ti3(PO4)12
_chemical_formula_sum   'Na42 Ca15 Ti9 P36 O144'
_cell_volume   3320.83187187
_cell_formula_units_Z   3
loop_
 _symmetry_equiv_pos_site_id
 _symmetry_equiv_pos_as_xyz
  1  'x, y, z'
loop_
 _atom_site_type_symbol
 _atom_site_label
 _atom_site_symmetry_multiplicity
 _atom_site_fract_x
 _atom_site_fract_y
 _atom_site_fract_z
 _atom_site_occupancy
  Na  Na0  1  0.18506341  0.35975996  0.24473444  1
  Na  Na1  1  0.68536326  0.36069110  0.24449230  1
  Na  Na2  1  0.99522314  0.63562392  0.24523842  1
  Na  Na3  1  0.49625892  0.63479322  0.24476586  1
  Na  Na4  1  0.31909060  0.62925960  0.74561503  1
  Na  Na5  1  0.82049018  0.62970365  0.74669429  1
  Na  Na6  1  0.18109862  0.00890446  0.74596342  1
  Na  Na7  1  0.68104498  0.00852228  0.74580440  1
  Na  Na8  1  0.15944780  0.33706560  0.58233182  1
  Na  Na9  1  0.65986374  0.33782312  0.58220183  1
  Na  Na10  1  0.00944395  0.68248971  0.58313810  1
  Na  Na11  1  0.50949550  0.68174334  0.58287954  1
  Na  Na12  1  0.33062541  0.97849782  0.58233488  1
  Na  Na13  1  0.83084593  0.97831955  0.58267259  1
  Na  Na14  1  0.15252775  0.97151807  0.07933076  1
  Na  Na15  1  0.65871087  0.97270024  0.08109859  1
  Na  Na16  1  0.33039975  0.67739369  0.08001752  1
  Na  Na17  1  0.01253656  0.34617304  0.08169747  1
  Na  Na18  1  0.51475986  0.33969435  0.07927403  1
  Na  Na19  1  0.48520450  0.67721697  0.91475518  1
  Na  Na20  1  0.98736314  0.67481468  0.91238853  1
  Na  Na21  1  0.35405557  0.03478409  0.91430707  1
  Na  Na22  1  0.16206594  0.28918126  0.91434150  1
  Na  Na23  1  0.66435394  0.29506879  0.91243971  1
  Na  Na24  1  0.48305858  0.29300803  0.41556540  1
  Na  Na25  1  0.98268295  0.29240145  0.41559924  1
  Na  Na26  1  0.16275952  0.03618518  0.41553579  1
  Na  Na27  1  0.66284845  0.03637839  0.41537543  1
  Na  Na28  1  0.35476320  0.67076583  0.41540841  1
  Na  Na29  1  0.85444039  0.67064720  0.41527384  1
  Na  Na30  1  0.99975040  0.99992339  0.50015513  1
  Na  Na31  1  0.49994311  0.00030514  0.49988187  1
  Na  Na32  1  0.98126973  0.98179664  0.99843881  1
  Na  Na33  1  0.50105512  0.00157220  0.99937311  1
  Na  Na34  1  0.34119744  0.33350761  0.83002299  1
  Na  Na35  1  0.84308682  0.31830660  0.83290144  1
  Na  Na36  1  0.33355014  0.31733965  0.33030449  1
  Na  Na37  1  0.83325350  0.31640812  0.33044062  1
  Na  Na38  1  0.17364907  0.67890418  0.16775483  1
  Na  Na39  1  0.68029950  0.68293307  0.16483268  1
  Na  Na40  1  0.15988850  0.65441125  0.66792389  1
  Na  Na41  1  0.65938635  0.65380987  0.66828751  1
  Ca  Ca0  1  0.99809874  0.00148092  0.34504428  1
  Ca  Ca1  1  0.49843374  0.00166282  0.34514395  1
  Ca  Ca2  1  0.99515922  0.00215047  0.84999946  1
  Ca  Ca3  1  0.50054678  0.00446824  0.84572250  1
  Ca  Ca4  1  0.33663459  0.33260743  0.68347276  1
  Ca  Ca5  1  0.83701866  0.33368054  0.68324183  1
  Ca  Ca6  1  0.33338276  0.32515369  0.18254670  1
  Ca  Ca7  1  0.83341499  0.33185371  0.18333445  1
  Ca  Ca8  1  0.33326470  0.33200065  0.98420210  1
  Ca  Ca9  1  0.33432209  0.33367409  0.48523845  1
  Ca  Ca10  1  0.83381040  0.33301157  0.48512171  1
  Ca  Ca11  1  0.16717224  0.66679820  0.01707200  1
  Ca  Ca12  1  0.67056228  0.66741030  0.01718225  1
  Ca  Ca13  1  0.16701085  0.66738908  0.51730424  1
  Ca  Ca14  1  0.66700009  0.66750237  0.51726479  1
  Ti  Ti0  1  0.99955644  0.00406950  0.65510071  1
  Ti  Ti1  1  0.50018901  0.00450309  0.65600919  1
  Ti  Ti2  1  0.99550536  0.99653806  0.15273599  1
  Ti  Ti3  1  0.49720464  0.99341906  0.15538594  1
  Ti  Ti4  1  0.83226985  0.32919143  0.98508897  1
  Ti  Ti5  1  0.16927795  0.67071428  0.31560230  1
  Ti  Ti6  1  0.66971695  0.67191566  0.31517371  1
  Ti  Ti7  1  0.15957521  0.65686505  0.81717447  1
  Ti  Ti8  1  0.67064574  0.66659793  0.81766667  1
  P  P0  1  0.14492770  0.98647542  0.25063671  1
  P  P1  1  0.64725582  0.98889191  0.25291639  1
  P  P2  1  0.34628380  0.70437183  0.25232649  1
  P  P3  1  0.84697271  0.70858227  0.25181251  1
  P  P4  1  0.00664171  0.30900203  0.25158115  1
  P  P5  1  0.50817166  0.31037842  0.25123079  1
  P  P6  1  0.14556557  0.30446481  0.75355486  1
  P  P7  1  0.64810635  0.30973454  0.75245166  1
  P  P8  1  0.00579755  0.70861229  0.75296650  1
  P  P9  1  0.50685194  0.70751132  0.75375721  1
  P  P10  1  0.34397821  0.98418863  0.75311463  1
  P  P11  1  0.84502704  0.98561396  0.75089703  1
  P  P12  1  0.48704849  0.31961140  0.58348769  1
  P  P13  1  0.98732632  0.32018294  0.58328429  1
  P  P14  1  0.17238151  0.02646415  0.58709587  1
  P  P15  1  0.67228933  0.02646083  0.58710531  1
  P  P16  1  0.34051415  0.65477138  0.58761571  1
  P  P17  1  0.84055905  0.65465548  0.58724267  1
  P  P18  1  0.48658518  0.65201708  0.08752861  1
  P  P19  1  0.97713780  0.64070389  0.08386355  1
  P  P20  1  0.34100907  0.02615823  0.08372329  1
  P  P21  1  0.83940852  0.04526438  0.08372702  1
  P  P22  1  0.17225577  0.31699296  0.08799607  1
  P  P23  1  0.68021047  0.31877378  0.08493569  1
  P  P24  1  0.31101054  0.66022131  0.91366307  1
  P  P25  1  0.81313682  0.65035097  0.91567693  1
  P  P26  1  0.01481163  0.37548085  0.91989550  1
  P  P27  1  0.52044002  0.38056280  0.91553100  1
  P  P28  1  0.16931498  0.96321453  0.91370990  1
  P  P29  1  0.67431020  0.96956913  0.91800504  1
  P  P30  1  0.31175481  0.96115679  0.41521075  1
  P  P31  1  0.81182558  0.96130169  0.41529061  1
  P  P32  1  0.16931490  0.37655316  0.41337673  1
  P  P33  1  0.66931657  0.37693169  0.41325372  1
  P  P34  1  0.01939655  0.66277496  0.41326811  1
  P  P35  1  0.51939825  0.66274014  0.41329739  1
  O  O0  1  0.11032703  0.00799440  0.30940871  1
  O  O1  1  0.61179383  0.00803292  0.31164889  1
  O  O2  1  0.39349095  0.76906156  0.31038607  1
  O  O3  1  0.89317772  0.77038157  0.31036705  1
  O  O4  1  0.49805240  0.22326634  0.31036409  1
  O  O5  1  0.99795672  0.22366552  0.31107923  1
  O  O6  1  0.11304913  0.20694556  0.81113035  1
  O  O7  1  0.61580495  0.21485743  0.81054503  1
  O  O8  1  0.49523797  0.77539621  0.81268628  1
  O  O9  1  0.99728875  0.78242195  0.81124473  1
  O  O10  1  0.38807657  0.00422256  0.81220984  1
  O  O11  1  0.89267872  0.00708230  0.80730976  1
  O  O12  1  0.40152549  0.97613543  0.70077441  1
  O  O13  1  0.89730062  0.97327251  0.69571425  1
  O  O14  1  0.08598224  0.19902008  0.69961581  1
  O  O15  1  0.58765669  0.20236118  0.69930119  1
  O  O16  1  0.01544011  0.83397395  0.69995470  1
  O  O17  1  0.51614501  0.83581740  0.70154114  1
  O  O18  1  0.40116611  0.82678363  0.19906227  1
  O  O19  1  0.90229239  0.83355000  0.19937524  1
  O  O20  1  0.01017328  0.19346866  0.19888759  1
  O  O21  1  0.51452904  0.19832255  0.19848063  1
  O  O22  1  0.08022370  0.96474050  0.19764557  1
  O  O23  1  0.58303947  0.97107162  0.20047030  1
  O  O24  1  0.44061007  0.35483454  0.63187364  1
  O  O25  1  0.94096073  0.35464182  0.63196751  1
  O  O26  1  0.22874394  0.11175831  0.64062532  1
  O  O27  1  0.72888937  0.11228647  0.64044065  1
  O  O28  1  0.32579724  0.54057420  0.64085305  1
  O  O29  1  0.82624293  0.54156515  0.64073217  1
  O  O30  1  0.44347195  0.54186160  0.14117225  1
  O  O31  1  0.94419919  0.54127072  0.14110327  1
  O  O32  1  0.32376951  0.11739710  0.13282095  1
  O  O33  1  0.82665450  0.12057530  0.13895889  1
  O  O34  1  0.22865354  0.34707240  0.14173481  1
  O  O35  1  0.72527058  0.33838947  0.14315437  1
  O  O36  1  0.20798745  0.28369987  0.03023239  1
  O  O37  1  0.73565067  0.30548372  0.03046065  1
  O  O38  1  0.43424752  0.58379127  0.02964598  1
  O  O39  1  0.91845117  0.53369307  0.02882173  1
  O  O40  1  0.35983534  0.12215608  0.02374172  1
  O  O41  1  0.84970118  0.17337457  0.02901205  1
  O  O42  1  0.20829221  0.13045090  0.52912248  1
  O  O43  1  0.70775599  0.13021103  0.52905519  1
  O  O44  1  0.35803207  0.58488296  0.52954032  1
  O  O45  1  0.85737893  0.58354894  0.52921615  1
  O  O46  1  0.43869256  0.28036975  0.52335419  1
  O  O47  1  0.93878562  0.28115314  0.52328302  1
  O  O48  1  0.27471288  0.67183874  0.97338453  1
  O  O49  1  0.77181373  0.66866081  0.97060602  1
  O  O50  1  0.06056805  0.44807313  0.97790031  1
  O  O51  1  0.56053668  0.45134661  0.97585716  1
  O  O52  1  0.16404076  0.87537117  0.97240573  1
  O  O53  1  0.65796943  0.87054178  0.97542560  1
  O  O54  1  0.27532846  0.87744536  0.47458364  1
  O  O55  1  0.77531896  0.87753782  0.47467480  1
  O  O56  1  0.16438249  0.45375007  0.47203917  1
  O  O57  1  0.66438564  0.45395453  0.47202145  1
  O  O58  1  0.06330792  0.67402038  0.47195762  1
  O  O59  1  0.56299249  0.67380646  0.47211568  1
  O  O60  1  0.07646092  0.66219043  0.35843440  1
  O  O61  1  0.57629241  0.66205949  0.35858515  1
  O  O62  1  0.25270252  0.84145461  0.36213970  1
  O  O63  1  0.75284159  0.84183548  0.36225205  1
  O  O64  1  0.16943205  0.49108803  0.35869477  1
  O  O65  1  0.66959457  0.49125276  0.35858234  1
  O  O66  1  0.06876270  0.49941441  0.86557296  1
  O  O67  1  0.58257616  0.50527784  0.86446737  1
  O  O68  1  0.16874987  0.84783844  0.85920282  1
  O  O69  1  0.68300778  0.86783421  0.86273374  1
  O  O70  1  0.25015657  0.65569918  0.86078593  1
  O  O71  1  0.75768803  0.64128518  0.85783930  1
  O  O72  1  0.00783058  0.81637179  0.41028177  1
  O  O73  1  0.50733275  0.81587573  0.41048450  1
  O  O74  1  0.39969091  0.98346378  0.41090249  1
  O  O75  1  0.89978643  0.98367038  0.41113501  1
  O  O76  1  0.09258447  0.20089003  0.41022915  1
  O  O77  1  0.59235513  0.20130445  0.41027559  1
  O  O78  1  0.00657042  0.20542724  0.91164169  1
  O  O79  1  0.51051079  0.20621696  0.91015939  1
  O  O80  1  0.09316886  0.98772024  0.91082858  1
  O  O81  1  0.59963725  0.99857147  0.90954279  1
  O  O82  1  0.39884201  0.81405615  0.90954314  1
  O  O83  1  0.90288098  0.79050101  0.91090952  1
  O  O84  1  0.49119192  0.15549186  0.59742019  1
  O  O85  1  0.99216160  0.15654909  0.59663944  1
  O  O86  1  0.08487480  0.01653787  0.59583551  1
  O  O87  1  0.58465909  0.01614410  0.59623579  1
  O  O88  1  0.42218697  0.82960523  0.59749369  1
  O  O89  1  0.92283098  0.82902967  0.59629011  1
  O  O90  1  0.49179084  0.82786675  0.09733243  1
  O  O91  1  0.98173947  0.81534793  0.08748518  1
  O  O92  1  0.42460065  0.01984169  0.09712333  1
  O  O93  1  0.92426209  0.04521684  0.08575033  1
  O  O94  1  0.08500568  0.15054800  0.09801218  1
  O  O95  1  0.59586261  0.14771414  0.08380003  1
  O  O96  1  0.32514231  0.12584305  0.74485289  1
  O  O97  1  0.82398432  0.12454009  0.74360080  1
  O  O98  1  0.23423517  0.33502883  0.74314809  1
  O  O99  1  0.73594079  0.33616010  0.74258037  1
  O  O100  1  0.43070348  0.53813425  0.74321021  1
  O  O101  1  0.92933644  0.53847411  0.74437429  1
  O  O102  1  0.33303339  0.52935949  0.24199366  1
  O  O103  1  0.83384693  0.53378159  0.24160296  1
  O  O104  1  0.43702835  0.34733013  0.24320557  1
  O  O105  1  0.93669519  0.34903315  0.24436233  1
  O  O106  1  0.22963014  0.13937661  0.24143754  1
  O  O107  1  0.73180808  0.14149972  0.24393072  1
  O  O108  1  0.31321357  0.49608309  0.90751272  1
  O  O109  1  0.81191287  0.47738329  0.91727181  1
  O  O110  1  0.43702728  0.37799125  0.90785792  1
  O  O111  1  0.92988907  0.37673215  0.91985672  1
  O  O112  1  0.25223173  0.12953723  0.90773993  1
  O  O113  1  0.75595917  0.14606291  0.92266005  1
  O  O114  1  0.31184778  0.12707674  0.40836166  1
  O  O115  1  0.81201509  0.12732163  0.40853136  1
  O  O116  1  0.25162472  0.37230697  0.40742920  1
  O  O117  1  0.75149080  0.37208492  0.40747996  1
  O  O118  1  0.43546211  0.49793929  0.40766056  1
  O  O119  1  0.93563107  0.49821246  0.40755572  1
  O  O120  1  0.15669875  0.46564278  0.08461423  1
  O  O121  1  0.66038808  0.45917484  0.07718560  1
  O  O122  1  0.06668985  0.67332786  0.07555774  1
  O  O123  1  0.57599976  0.68034704  0.08459397  1
  O  O124  1  0.26821297  0.84514121  0.08306740  1
  O  O125  1  0.76442892  0.87456260  0.07443272  1
  O  O126  1  0.15690548  0.84691525  0.58410577  1
  O  O127  1  0.65676038  0.84686440  0.58414797  1
  O  O128  1  0.26589584  0.68514262  0.58406346  1
  O  O129  1  0.76606428  0.68547020  0.58394978  1
  O  O130  1  0.07755471  0.46622202  0.58229844  1
  O  O131  1  0.57733763  0.46545619  0.58231708  1
  O  O132  1  0.14717723  0.81832450  0.25043930  1
  O  O133  1  0.64830724  0.81948097  0.25152301  1
  O  O134  1  0.25921364  0.69511572  0.25283442  1
  O  O135  1  0.75954232  0.69817521  0.25258254  1
  O  O136  1  0.09307285  0.47759294  0.24884202  1
  O  O137  1  0.59366723  0.48060053  0.24928528  1
  O  O138  1  0.14938116  0.47839703  0.75638966  1
  O  O139  1  0.65346246  0.48494152  0.75433695  1
  O  O140  1  0.08976642  0.70191217  0.75273518  1
  O  O141  1  0.59203764  0.70709932  0.75426716  1
  O  O142  1  0.25969286  0.81259841  0.75036073  1
  O  O143  1  0.75991333  0.81282770  0.75165997  1
loop_
_geom_bond_atom_site_label_1
_geom_bond_atom_site_label_2
_geom_bond_distance
_geom_bond_site_symmetry_2
Na0 O102 2.385133 1_555
Na0 O136 2.435252 1_555
Na0 O34 2.461218 1_555
Na0 O106 2.552066 1_555
Na0 O134 2.706150 1_555
Na0 O64 2.897154 1_555
Na0 O20 2.988436 1_555
Na1 O103 2.396040 1_555
Na1 O35 2.422506 1_555
Na1 O137 2.446162 1_555
Na1 O107 2.565622 1_555
Na1 O135 2.723759 1_555
Na1 O65 2.897171 1_555
Na1 O21 2.928661 1_555
Na2 O105 2.315026 1_555
Na2 O132 2.459495 1_655
Na2 O31 2.500053 1_555
Na2 O103 2.646451 1_555
Na2 O136 2.836262 1_655
Na2 O22 2.852412 1_655
Na2 O60 2.889918 1_655
Na3 O104 2.321273 1_555
Na3 O133 2.465040 1_555
Na3 O30 2.493666 1_555
Na3 O102 2.671768 1_555
Na3 O137 2.800123 1_555
Na3 O23 2.879637 1_555
Na3 O61 2.890514 1_555
Na4 O98 2.374995 1_555
Na4 O142 2.438394 1_555
Na4 O28 2.504173 1_555
Na4 O100 2.588167 1_555
Na4 O138 2.739161 1_555
Na4 O70 2.935963 1_555
Na4 O12 2.964058 1_555
Na5 O99 2.370374 1_555
Na5 O143 2.454164 1_555
Na5 O29 2.523886 1_555
Na5 O101 2.539826 1_555
Na5 O139 2.693073 1_555
Na5 O71 2.766746 1_555
Na5 O13 2.992175 1_555
Na6 O96 2.324277 1_555
Na6 O140 2.487423 1_545
Na6 O26 2.529549 1_555
Na6 O98 2.671817 1_555
Na6 O142 2.835961 1_545
Na6 O16 2.851991 1_545
Na6 O68 2.889952 1_545
Na7 O97 2.306884 1_555
Na7 O141 2.443792 1_545
Na7 O27 2.532408 1_555
Na7 O99 2.679191 1_555
Na7 O17 2.826329 1_545
Na7 O143 2.836446 1_545
Na7 O69 2.929620 1_545
Na8 O130 2.348885 1_555
Na8 O86 2.595415 1_555
Na8 O56 2.675948 1_555
Na8 O85 2.707418 1_455
Na8 O42 2.756259 1_555
Na8 O128 2.821632 1_555
Na8 O14 2.938422 1_555
Na8 O28 2.993861 1_555
Na9 O131 2.347732 1_555
Na9 O87 2.605789 1_555
Na9 O57 2.672928 1_555
Na9 O84 2.732151 1_555
Na9 O43 2.751771 1_555
Na9 O129 2.817873 1_555
Na9 O15 2.924137 1_555
Na9 O29 2.994601 1_555
Na10 O126 2.372800 1_555
Na10 O89 2.577690 1_455
Na10 O58 2.692819 1_555
Na10 O86 2.702729 1_565
Na10 O45 2.763566 1_455
Na10 O130 2.845057 1_555
Na10 O25 2.862898 1_455
Na10 O16 2.938758 1_555
Na11 O127 2.370322 1_555
Na11 O88 2.603126 1_555
Na11 O59 2.680582 1_555
Na11 O87 2.707459 1_565
Na11 O44 2.751806 1_555
Na11 O131 2.841264 1_555
Na11 O24 2.856402 1_555
Na11 O17 2.983968 1_555
Na12 O128 2.362600 1_555
Na12 O54 2.601693 1_555
Na12 O84 2.604052 1_565
Na12 O88 2.682400 1_555
Na12 O126 2.813589 1_555
Na12 O46 2.828994 1_565
Na12 O12 2.959272 1_555
Na12 O26 3.011436 1_565
Na13 O129 2.358182 1_555
Na13 O55 2.607302 1_555
Na13 O85 2.613150 1_565
Na13 O89 2.688240 1_555
Na13 O127 2.819924 1_555
Na13 O13 2.820375 1_555
Na13 O47 2.838447 1_565
Na13 O27 3.012275 1_565
Na14 O122 2.407487 1_555
Na14 O94 2.555391 1_565
Na14 O52 2.595060 1_554
Na14 O91 2.749851 1_455
Na14 O36 2.769673 1_565
Na14 O124 2.903757 1_555
Na14 O22 2.949935 1_555
Na14 O32 3.004881 1_565
Na15 O123 2.358110 1_555
Na15 O95 2.417738 1_565
Na15 O125 2.535408 1_555
Na15 O53 2.541139 1_554
Na15 O90 2.710285 1_555
Na15 O37 2.907004 1_565
Na15 O33 2.994151 1_565
Na15 O23 3.009360 1_555
Na16 O124 2.346996 1_555
Na16 O48 2.586886 1_554
Na16 O90 2.620302 1_555
Na16 O38 2.711552 1_555
Na16 O92 2.783086 1_565
Na16 O120 2.813729 1_555
Na16 O18 2.983860 1_555
Na16 O34 3.014873 1_555
Na17 O120 2.324730 1_555
Na17 O93 2.433119 1_455
Na17 O50 2.496880 1_554
Na17 O122 2.680123 1_555
Na17 O94 2.759590 1_555
Na17 O41 2.867956 1_455
Na17 O20 2.967857 1_555
Na17 O31 2.979910 1_455
Na18 O121 2.349016 1_555
Na18 O51 2.502954 1_554
Na18 O92 2.609039 1_555
Na18 O123 2.773907 1_555
Na18 O95 2.839066 1_555
Na18 O40 2.840809 1_555
Na18 O21 2.968892 1_555
Na19 O8 2.429564 1_555
Na19 O110 2.457468 1_555
Na19 O82 2.484738 1_555
Na19 O81 2.663062 1_555
Na19 O38 2.725175 1_556
Na19 O108 2.766786 1_555
Na20 O83 2.290546 1_555
Na20 O111 2.420902 1_555
Na20 O9 2.441429 1_555
Na20 O80 2.567741 1_655
Na20 O109 2.826462 1_555
Na20 O66 2.901129 1_655
Na20 O39 2.908241 1_556
Na21 O10 2.420651 1_555
Na21 O112 2.443906 1_555
Na21 O79 2.517339 1_555
Na21 O82 2.559178 1_545
Na21 O40 2.561343 1_556
Na21 O110 2.762280 1_555
Na22 O80 2.426294 1_545
Na22 O6 2.456850 1_555
Na22 O108 2.487533 1_555
Na22 O78 2.579868 1_555
Na22 O112 2.725373 1_555
Na22 O36 2.734591 1_556
Na23 O81 2.389225 1_545
Na23 O109 2.394033 1_555
Na23 O7 2.425026 1_555
Na23 O79 2.538839 1_555
Na23 O113 2.672230 1_555
Na23 O37 2.929298 1_556
Na24 O118 2.461836 1_555
Na24 O4 2.489695 1_555
Na24 O74 2.492452 1_545
Na24 O46 2.529258 1_555
Na24 O77 2.553166 1_555
Na24 O114 2.752696 1_555
Na25 O119 2.462352 1_555
Na25 O5 2.473643 1_555
Na25 O75 2.485519 1_545
Na25 O47 2.525899 1_555
Na25 O76 2.562658 1_655
Na25 O115 2.743861 1_555
Na26 O76 2.446296 1_555
Na26 O114 2.455268 1_555
Na26 O0 2.526647 1_555
Na26 O72 2.563672 1_545
Na26 O42 2.680349 1_555
Na26 O116 2.709162 1_555
Na27 O77 2.452829 1_555
Na27 O115 2.456073 1_555
Na27 O1 2.467689 1_555
Na27 O73 2.572692 1_545
Na27 O43 2.679900 1_555
Na27 O117 2.705438 1_555
Na28 O73 2.451821 1_555
Na28 O116 2.463828 1_555
Na28 O2 2.491838 1_555
Na28 O74 2.586909 1_555
Na28 O118 2.680016 1_555
Na28 O44 2.682600 1_555
Na29 O117 2.463486 1_555
Na29 O72 2.465087 1_655
Na29 O3 2.492434 1_555
Na29 O75 2.587681 1_555
Na29 O45 2.681022 1_555
Na29 O119 2.684569 1_555
Na30 O86 2.614260 1_665
Na30 O89 2.629814 1_555
Na30 O85 2.639934 1_565
Na30 O75 2.668636 1_555
Na30 O72 2.681507 1_655
Na30 O76 2.698994 1_665
Na31 O87 2.624017 1_555
Na31 O84 2.658619 1_555
Na31 O88 2.660040 1_545
Na31 O74 2.669935 1_545
Na31 O73 2.674219 1_545
Na31 O77 2.691499 1_555
Na32 O93 2.424069 1_566
Na32 O91 2.520936 1_556
Na32 O83 2.551657 1_555
Na32 O78 2.704572 1_665
Na32 O80 2.829231 1_655
Na32 O94 2.844838 1_666
Na33 O95 2.471063 1_556
Na33 O92 2.652718 1_556
Na33 O90 2.672636 1_546
Na33 O79 2.697090 1_555
Na33 O82 2.711890 1_545
Na33 O81 2.721000 1_545
Na34 O110 2.368629 1_555
Na34 O112 2.492295 1_555
Na34 O108 2.510024 1_555
Na34 O96 2.614322 1_555
Na34 O100 2.643348 1_555
Na34 O98 2.776634 1_555
Na35 O111 2.404784 1_555
Na35 O113 2.572729 1_555
Na35 O97 2.586736 1_555
Na35 O109 2.625647 1_555
Na35 O101 2.719142 1_555
Na35 O99 2.890195 1_555
Na36 O114 2.368874 1_555
Na36 O118 2.490664 1_555
Na36 O116 2.507502 1_555
Na36 O104 2.645860 1_555
Na36 O106 2.684045 1_555
Na36 O102 2.788274 1_555
Na37 O115 2.363968 1_555
Na37 O119 2.493888 1_555
Na37 O117 2.507374 1_555
Na37 O107 2.619000 1_555
Na37 O105 2.622555 1_555
Na37 O103 2.824500 1_555
Na38 O134 2.430226 1_555
Na38 O132 2.437896 1_555
Na38 O136 2.495550 1_555
Na38 O124 2.518490 1_555
Na38 O120 2.613088 1_555
Na38 O122 2.838847 1_555
Na39 O135 2.410062 1_555
Na39 O133 2.537657 1_555
Na39 O137 2.581804 1_555
Na39 O123 2.624889 1_555
Na39 O125 2.630026 1_555
Na39 O121 2.738560 1_555
Na40 O140 2.455958 1_555
Na40 O142 2.501634 1_555
Na40 O138 2.508945 1_555
Na40 O130 2.525358 1_555
Na40 O126 2.606247 1_555
Na40 O128 2.623471 1_555
Na41 O139 2.447655 1_555
Na41 O141 2.468759 1_555
Na41 O143 2.524692 1_555
Na41 O131 2.530434 1_555
Na41 O127 2.612587 1_555
Na41 O129 2.637447 1_555
Ca0 O5 2.194146 1_555
Ca0 O3 2.194992 1_545
Ca0 O0 2.195024 1_655
Ca0 O75 2.283758 1_545
Ca0 O76 2.318761 1_655
Ca0 O72 2.324971 1_645
Ca1 O4 2.197560 1_555
Ca1 O1 2.198362 1_555
Ca1 O2 2.203264 1_545
Ca1 O74 2.283866 1_545
Ca1 O77 2.315211 1_555
Ca1 O73 2.324505 1_545
Ca2 O11 2.141953 1_555
Ca2 O9 2.228164 1_545
Ca2 O6 2.236182 1_655
Ca2 O78 2.254943 1_655
Ca2 O83 2.299943 1_545
Ca2 O80 2.321734 1_645
Ca3 O7 2.198879 1_555
Ca3 O8 2.200300 1_545
Ca3 O10 2.208980 1_555
Ca3 O79 2.291201 1_555
Ca3 O82 2.322095 1_545
Ca3 O81 2.343839 1_545
Ca4 O24 2.162148 1_555
Ca4 O26 2.241502 1_555
Ca4 O28 2.244899 1_555
Ca4 O100 2.266852 1_555
Ca4 O96 2.278585 1_555
Ca4 O98 2.324867 1_555
Ca5 O25 2.161845 1_555
Ca5 O29 2.242581 1_555
Ca5 O27 2.245363 1_555
Ca5 O101 2.271141 1_555
Ca5 O97 2.273320 1_555
Ca5 O99 2.300775 1_555
Ca6 O32 2.149893 1_555
Ca6 O30 2.229889 1_555
Ca6 O34 2.238790 1_555
Ca6 O106 2.258146 1_555
Ca6 O104 2.271880 1_555
Ca6 O102 2.312154 1_555
Ca7 O33 2.139603 1_555
Ca7 O31 2.214952 1_555
Ca7 O35 2.219799 1_555
Ca7 O103 2.273921 1_555
Ca7 O107 2.277479 1_555
Ca7 O105 2.286990 1_555
Ca8 O36 2.365352 1_556
Ca8 O38 2.372011 1_556
Ca8 O40 2.396959 1_556
Ca8 O112 2.426047 1_555
Ca8 O108 2.438585 1_555
Ca8 O110 2.442033 1_555
Ca9 O44 2.358767 1_555
Ca9 O42 2.362692 1_555
Ca9 O46 2.374418 1_555
Ca9 O114 2.447077 1_555
Ca9 O118 2.449080 1_555
Ca9 O116 2.456518 1_555
Ca10 O45 2.352067 1_555
Ca10 O43 2.362222 1_555
Ca10 O47 2.376871 1_555
Ca10 O115 2.439492 1_555
Ca10 O117 2.450874 1_555
Ca10 O119 2.456736 1_555
Ca11 O50 2.187786 1_554
Ca11 O48 2.194496 1_554
Ca11 O52 2.200457 1_554
Ca11 O122 2.296572 1_555
Ca11 O124 2.307812 1_555
Ca11 O120 2.330527 1_555
Ca12 O49 2.136776 1_554
Ca12 O53 2.213243 1_554
Ca12 O51 2.224792 1_554
Ca12 O125 2.240314 1_555
Ca12 O121 2.279179 1_555
Ca12 O123 2.355418 1_555
Ca13 O58 2.196286 1_555
Ca13 O56 2.199433 1_555
Ca13 O54 2.200248 1_555
Ca13 O130 2.293778 1_555
Ca13 O128 2.301634 1_555
Ca13 O126 2.308570 1_555
Ca14 O59 2.197854 1_555
Ca14 O57 2.198570 1_555
Ca14 O55 2.198908 1_555
Ca14 O131 2.299517 1_555
Ca14 O129 2.302433 1_555
Ca14 O127 2.309685 1_555
O0 P0 1.516800 1_545
O1 P1 1.516437 1_545
O2 P2 1.511516 1_555
O3 P3 1.511274 1_555
O4 P5 1.511545 1_555
O5 P4 1.514845 1_655
O6 P6 1.515311 1_555
O7 P7 1.515189 1_555
O8 P9 1.519377 1_555
O9 P8 1.514470 1_655
O10 P10 1.514506 1_545
O11 P11 1.493890 1_545
O12 P10 1.607659 1_555
O12 Ti1 1.980365 1_565
O13 P11 1.605501 1_555
O13 Ti0 1.986002 1_565
O14 P6 1.597099 1_555
O14 Ti0 1.983571 1_455
O15 P7 1.594964 1_555
O15 Ti1 1.990731 1_555
O16 P8 1.606176 1_555
O16 Ti0 2.008042 1_465
O17 P9 1.613228 1_555
O17 Ti1 2.005245 1_565
O18 P2 1.610066 1_555
O18 Ti3 1.941404 1_555
O19 P3 1.608162 1_555
O19 Ti2 1.937740 1_555
O20 P4 1.613153 1_555
O20 Ti2 1.991610 1_445
O21 P5 1.612059 1_555
O21 Ti3 2.005373 1_545
O22 P0 1.623376 1_555
O22 Ti2 2.001365 1_455
O23 P1 1.617545 1_555
O23 Ti3 1.975519 1_555
O24 P12 1.513321 1_555
O25 P13 1.513686 1_555
O26 P14 1.524069 1_555
O27 P15 1.523427 1_555
O28 P16 1.524633 1_555
O29 P17 1.524099 1_555
O30 P18 1.519353 1_555
O31 P19 1.516896 1_555
O32 P20 1.511515 1_555
O33 P21 1.492433 1_555
O34 P22 1.522841 1_555
O35 P23 1.506709 1_555
O36 P22 1.549116 1_555
O37 P23 1.634943 1_555
O37 Ti4 1.969309 1_554
O38 P18 1.549638 1_555
O39 P19 1.613511 1_555
O39 Ti4 2.020076 1_554
O40 P20 1.550411 1_555
O41 P21 1.648362 1_555
O41 Ti4 1.900523 1_554
O42 P14 1.553919 1_555
O43 P15 1.553492 1_555
O44 P16 1.554027 1_555
O45 P17 1.553660 1_555
O46 P12 1.554027 1_555
O47 P13 1.553152 1_555
O48 P24 1.521607 1_555
O49 P25 1.499313 1_555
O50 P26 1.510865 1_555
O51 P27 1.521104 1_555
O52 P28 1.521685 1_555
O53 P29 1.518675 1_555
O54 P30 1.516351 1_555
O55 P31 1.516997 1_555
O56 P32 1.517037 1_555
O57 P33 1.518259 1_555
O58 P34 1.518898 1_555
O59 P35 1.518789 1_555
O60 P34 1.618880 1_555
O60 Ti5 1.931985 1_555
O61 P35 1.615059 1_555
O61 Ti6 1.943270 1_555
O62 P30 1.619898 1_555
O62 Ti5 1.880552 1_555
O63 P31 1.618183 1_555
O63 Ti6 1.881761 1_555
O64 P32 1.618107 1_555
O64 Ti5 1.923554 1_555
O65 P33 1.615673 1_555
O65 Ti6 1.933211 1_555
O66 P26 1.628555 1_555
O66 Ti7 1.920220 1_555
O67 P27 1.625194 1_555
O67 Ti8 1.888041 1_555
O68 P28 1.616081 1_555
O68 Ti7 1.932736 1_555
O69 P29 1.608480 1_555
O69 Ti8 2.027494 1_555
O70 P24 1.617973 1_555
O70 Ti7 1.942343 1_555
O71 P25 1.626035 1_555
O71 Ti8 1.955826 1_555
O72 P34 1.540556 1_555
O73 P35 1.541686 1_555
O74 P30 1.536673 1_555
O75 P31 1.536693 1_555
O76 P32 1.539973 1_555
O77 P33 1.541311 1_555
O78 P26 1.515360 1_555
O79 P27 1.535585 1_555
O80 P28 1.534275 1_555
O81 P29 1.543149 1_555
O82 P24 1.542066 1_555
O83 P25 1.520142 1_555
O84 P12 1.589639 1_555
O84 Ti1 1.982520 1_555
O85 P13 1.589468 1_555
O85 Ti0 1.978260 1_555
O86 P14 1.586160 1_555
O86 Ti0 2.018749 1_455
O87 P15 1.587906 1_555
O87 Ti1 2.017002 1_555
O88 P16 1.587957 1_555
O88 Ti1 2.022515 1_565
O89 P17 1.588161 1_555
O89 Ti0 2.020065 1_565
O90 P18 1.597040 1_555
O90 Ti3 1.971390 1_555
O91 P19 1.578049 1_555
O91 Ti2 2.139382 1_555
O92 P20 1.603379 1_555
O92 Ti3 1.970828 1_545
O93 P21 1.569487 1_555
O93 Ti2 2.184102 1_545
O94 P22 1.599866 1_555
O94 Ti2 1.981966 1_445
O95 P23 1.577531 1_555
O95 Ti3 2.312023 1_545
O96 P10 1.525816 1_545
O97 P11 1.525901 1_545
O98 P6 1.536495 1_555
O99 P7 1.533250 1_555
O100 P9 1.517936 1_555
O101 P8 1.518262 1_655
O102 P2 1.530701 1_555
O103 P3 1.529215 1_555
O104 P5 1.524932 1_555
O105 P4 1.520178 1_655
O106 P0 1.515979 1_545
O107 P1 1.512610 1_545
O108 P24 1.545900 1_555
O109 P25 1.590341 1_555
O109 Ti4 2.199476 1_555
O110 P27 1.539899 1_555
O111 P26 1.575668 1_655
O111 Ti4 2.188438 1_555
O112 P28 1.547818 1_545
O113 P29 1.584401 1_545
O113 Ti4 2.105582 1_555
O114 P30 1.542688 1_545
O115 P31 1.542530 1_545
O116 P32 1.547180 1_555
O117 P33 1.547216 1_555
O118 P35 1.549508 1_555
O119 P34 1.546952 1_655
O120 P22 1.540945 1_555
O121 P23 1.525203 1_555
O122 P19 1.539530 1_455
O123 P18 1.541128 1_555
O124 P20 1.542948 1_565
O125 P21 1.512205 1_565
O126 P14 1.541505 1_565
O127 P15 1.541566 1_565
O128 P16 1.540456 1_555
O129 P17 1.540493 1_555
O130 P13 1.540193 1_455
O131 P12 1.540378 1_555
O132 P0 1.577481 1_555
O132 Ti5 2.171041 1_555
O133 P1 1.578106 1_555
O133 Ti6 2.141748 1_555
O134 P2 1.568879 1_555
O134 Ti5 2.100337 1_555
O135 P3 1.570768 1_555
O135 Ti6 2.091361 1_555
O136 P4 1.586633 1_555
O136 Ti5 2.214302 1_555
O137 P5 1.584608 1_555
O137 Ti6 2.192327 1_555
O138 P6 1.577342 1_555
O138 Ti7 2.073050 1_555
O139 P7 1.575478 1_555
O139 Ti8 2.097089 1_555
O140 P8 1.583957 1_555
O140 Ti7 2.109430 1_555
O141 P9 1.576691 1_555
O141 Ti8 2.191525 1_555
O142 P10 1.580457 1_555
O142 Ti7 2.256068 1_555
O143 P11 1.592601 1_555
O143 Ti8 2.125788 1_555
