# generated using pymatgen
data_Hf3P2
_symmetry_space_group_name_H-M   'P 1'
_cell_length_a   3.57703592
_cell_length_b   9.80707377
_cell_length_c   10.15547581
_cell_angle_alpha   89.99654962
_cell_angle_beta   89.99999807
_cell_angle_gamma   90.00000267
_symmetry_Int_Tables_number   1
_chemical_formula_structural   Hf3P2
_chemical_formula_sum   'Hf12 P8'
_cell_volume   356.25668221
_cell_formula_units_Z   4
loop_
 _symmetry_equiv_pos_site_id
 _symmetry_equiv_pos_as_xyz
  1  'x, y, z'
loop_
 _atom_site_type_symbol
 _atom_site_label
 _atom_site_symmetry_multiplicity
 _atom_site_fract_x
 _atom_site_fract_y
 _atom_site_fract_z
 _atom_site_occupancy
  Hf  Hf0  1  0.24999985  0.79821083  0.21603487  1
  Hf  Hf1  1  0.74999987  0.20177380  0.78397054  1
  Hf  Hf2  1  0.74999985  0.29819595  0.28390033  1
  Hf  Hf3  1  0.24999989  0.70182354  0.71610693  1
  Hf  Hf4  1  0.24999977  0.43423361  0.87456020  1
  Hf  Hf5  1  0.74999981  0.56580260  0.12544950  1
  Hf  Hf6  1  0.74999971  0.93421063  0.62549468  1
  Hf  Hf7  1  0.24999980  0.06575727  0.37450453  1
  Hf  Hf8  1  0.24999963  0.37321020  0.54543365  1
  Hf  Hf9  1  0.74999962  0.62682705  0.45455622  1
  Hf  Hf10  1  0.74999973  0.87319879  0.95459115  1
  Hf  Hf11  1  0.24999967  0.12676583  0.04542268  1
  P  P0  1  0.24999966  0.67783160  0.97255830  1
  P  P1  1  0.74999968  0.32219236  0.02744381  1
  P  P2  1  0.74999962  0.17779917  0.52745194  1
  P  P3  1  0.24999958  0.82218696  0.47253473  1
  P  P4  1  0.24999982  0.99869755  0.80714034  1
  P  P5  1  0.74999986  0.00125765  0.19285755  1
  P  P6  1  0.74999979  0.49873868  0.69288689  1
  P  P7  1  0.24999979  0.50128793  0.30710216  1
loop_
_geom_bond_atom_site_label_1
_geom_bond_atom_site_label_2
_geom_bond_distance
_geom_bond_site_symmetry_2
Hf0 P3 2.615483 1_555
Hf0 P5 2.686894 1_565
Hf0 P5 2.686894 1_465
Hf0 P0 2.740063 1_554
Hf0 P7 3.055227 1_555
Hf1 P2 2.615671 1_555
Hf1 P4 2.687101 1_645
Hf1 P4 2.687101 1_545
Hf1 P1 2.740199 1_556
Hf1 P6 3.055670 1_555
Hf2 P1 2.615035 1_555
Hf2 P7 2.687265 1_655
Hf2 P7 2.687265 1_555
Hf2 P2 2.740696 1_555
Hf2 P5 3.055402 1_555
Hf3 P0 2.614979 1_555
Hf3 P6 2.687229 1_555
Hf3 P6 2.687230 1_455
Hf3 P3 2.740744 1_555
Hf3 P4 3.054772 1_555
Hf4 P0 2.588047 1_555
Hf4 P1 2.610848 1_556
Hf4 P1 2.610849 1_456
Hf4 P6 2.646279 1_555
Hf4 P6 2.646279 1_455
Hf5 P1 2.588187 1_555
Hf5 P0 2.610843 1_654
Hf5 P0 2.610844 1_554
Hf5 P7 2.646155 1_555
Hf5 P7 2.646155 1_655
Hf6 P2 2.588025 1_565
Hf6 P3 2.611316 1_655
Hf6 P3 2.611316 1_555
Hf6 P4 2.646094 1_555
Hf6 P4 2.646094 1_655
Hf7 P3 2.587811 1_545
Hf7 P2 2.611315 1_555
Hf7 P2 2.611316 1_455
Hf7 P5 2.646133 1_455
Hf7 P5 2.646133 1_555
Hf8 P2 2.627701 1_455
Hf8 P2 2.627701 1_555
Hf8 P6 2.637598 1_455
Hf8 P6 2.637599 1_555
Hf8 P7 2.726817 1_555
Hf9 P3 2.627333 1_655
Hf9 P3 2.627334 1_555
Hf9 P7 2.637651 1_555
Hf9 P7 2.637652 1_655
Hf9 P6 2.726857 1_555
Hf10 P0 2.627361 1_655
Hf10 P0 2.627362 1_555
Hf10 P4 2.637364 1_555
Hf10 P4 2.637364 1_655
Hf10 P5 2.726279 1_566
Hf11 P1 2.627794 1_555
Hf11 P1 2.627794 1_455
Hf11 P5 2.637315 1_455
Hf11 P5 2.637316 1_555
Hf11 P4 2.726465 1_544
