# generated using pymatgen
data_SrZnBi2
_symmetry_space_group_name_H-M   'P 1'
_cell_length_a   11.98876843
_cell_length_b   11.98876843
_cell_length_c   11.98876843
_cell_angle_alpha   158.02719045
_cell_angle_beta   158.02719045
_cell_angle_gamma   31.27084811
_symmetry_Int_Tables_number   1
_chemical_formula_structural   SrZnBi2
_chemical_formula_sum   'Sr2 Zn2 Bi4'
_cell_volume   241.07099952
_cell_formula_units_Z   2
loop_
 _symmetry_equiv_pos_site_id
 _symmetry_equiv_pos_as_xyz
  1  'x, y, z'
loop_
 _atom_site_type_symbol
 _atom_site_label
 _atom_site_symmetry_multiplicity
 _atom_site_fract_x
 _atom_site_fract_y
 _atom_site_fract_z
 _atom_site_occupancy
  Sr  Sr0  1  0.88169991  0.88169991  -0.00000000  1
  Sr  Sr1  1  0.11830009  0.11830009  0.00000000  1
  Zn  Zn0  1  0.75000000  0.25000000  0.50000000  1
  Zn  Zn1  1  0.25000000  0.75000000  0.50000000  1
  Bi  Bi0  1  0.32482318  0.32482318  -0.00000000  1
  Bi  Bi1  1  0.67517682  0.67517682  0.00000000  1
  Bi  Bi2  1  0.00000000  0.50000000  0.50000000  1
  Bi  Bi3  1  0.50000000  0.00000000  0.50000000  1
loop_
_geom_bond_atom_site_label_1
_geom_bond_atom_site_label_2
_geom_bond_distance
_geom_bond_site_symmetry_2
Bi0 Zn0 2.864453 1_454
Bi0 Zn0 2.864453 1_555
Bi0 Zn1 2.864453 1_544
Bi0 Zn1 2.864453 1_555
Bi0 Sr0 3.487854 1_545
Bi0 Sr0 3.487854 1_455
Bi0 Sr0 3.487854 1_444
Bi0 Sr0 3.487854 1_556
Bi1 Zn1 2.864453 1_655
Bi1 Zn1 2.864453 1_554
Bi1 Zn0 2.864453 1_554
Bi1 Zn0 2.864453 1_565
Bi1 Sr1 3.487854 1_565
Bi1 Sr1 3.487854 1_655
Bi1 Sr1 3.487854 1_554
Bi1 Sr1 3.487854 1_666
Bi2 Bi3 3.231156 1_555
Bi2 Bi3 3.231156 1_566
Bi2 Bi3 3.231156 1_454
Bi2 Bi3 3.231156 1_465
Bi2 Sr0 3.561141 1_445
Bi2 Sr1 3.561141 1_566
Bi2 Sr1 3.561141 1_555
Bi2 Sr0 3.561141 1_456
Bi3 Sr0 3.561141 1_546
Bi3 Sr0 3.561141 1_445
Bi3 Sr1 3.561141 1_656
Bi3 Sr1 3.561141 1_555
