# generated using pymatgen
data_Ga3B4Pt9
_symmetry_space_group_name_H-M   'P 1'
_cell_length_a   8.72623155
_cell_length_b   8.72625950
_cell_length_c   6.55830020
_cell_angle_alpha   89.99999506
_cell_angle_beta   90.00001250
_cell_angle_gamma   119.99970434
_symmetry_Int_Tables_number   1
_chemical_formula_structural   Ga3B4Pt9
_chemical_formula_sum   'Ga6 B8 Pt18'
_cell_volume   432.49199566
_cell_formula_units_Z   2
loop_
 _symmetry_equiv_pos_site_id
 _symmetry_equiv_pos_as_xyz
  1  'x, y, z'
loop_
 _atom_site_type_symbol
 _atom_site_label
 _atom_site_symmetry_multiplicity
 _atom_site_fract_x
 _atom_site_fract_y
 _atom_site_fract_z
 _atom_site_occupancy
  Ga  Ga0  1  0.49316495  0.05767400  0.75000002  1
  Ga  Ga1  1  0.43550501  0.94233677  0.24999999  1
  Ga  Ga2  1  0.50682611  0.56449707  0.25000023  1
  Ga  Ga3  1  0.56451099  0.50684954  0.74999978  1
  Ga  Ga4  1  0.94232769  0.43548811  0.74999998  1
  Ga  Ga5  1  0.05767855  0.49316323  0.24999996  1
  B  B0  1  0.82021451  -0.00000300  0.50000484  1
  B  B1  1  0.82021459  -0.00000300  -0.00000484  1
  B  B2  1  -0.00000016  0.82021449  0.50000285  1
  B  B3  1  0.17978494  0.17978341  0.50000521  1
  B  B4  1  0.17978498  0.17978340  -0.00000515  1
  B  B5  1  -0.00000030  0.82021445  -0.00000252  1
  B  B6  1  0.66666716  0.33333752  0.24999983  1
  B  B7  1  0.33333213  0.66666659  0.75000021  1
  Pt  Pt0  1  0.81533094  0.54042321  0.47768440  1
  Pt  Pt1  1  0.54042553  0.81532259  0.52232575  1
  Pt  Pt2  1  0.99305646  0.17811089  0.74999995  1
  Pt  Pt3  1  0.27488938  0.45956966  0.52232469  1
  Pt  Pt4  1  0.00693693  0.18505063  0.24999985  1
  Pt  Pt5  1  0.72509485  0.18467164  0.47768044  1
  Pt  Pt6  1  0.81494296  0.82187483  0.25000009  1
  Pt  Pt7  1  0.18467581  0.72510355  0.52232614  1
  Pt  Pt8  1  0.45957864  0.27491130  0.47768688  1
  Pt  Pt9  1  0.81533092  0.54042294  0.02231484  1
  Pt  Pt10  1  0.45957868  0.27491121  0.02231265  1
  Pt  Pt11  1  0.18505240  0.00694584  0.75000017  1
  Pt  Pt12  1  0.17811717  0.99305633  0.25000035  1
  Pt  Pt13  1  0.18467576  0.72510395  0.97767455  1
  Pt  Pt14  1  0.82189247  0.81495361  0.75000009  1
  Pt  Pt15  1  0.72509504  0.18467184  0.02231947  1
  Pt  Pt16  1  0.27488919  0.45956966  0.97767575  1
  Pt  Pt17  1  0.54042572  0.81532272  0.97767454  1
loop_
_geom_bond_atom_site_label_1
_geom_bond_atom_site_label_2
_geom_bond_distance
_geom_bond_site_symmetry_2
Ga0 Pt11 2.496935 1_555
Ga0 Pt15 2.504190 1_556
Ga0 Pt5 2.504191 1_555
Ga0 Pt10 2.724794 1_556
Ga0 Pt8 2.724797 1_555
Ga0 Pt1 2.782845 1_545
Ga0 Pt17 2.782845 1_545
Ga1 Pt12 2.496915 1_555
Ga1 Pt17 2.504245 1_554
Ga1 Pt1 2.504245 1_555
Ga1 Pt13 2.724866 1_554
Ga1 Pt7 2.724870 1_555
Ga1 Pt5 2.782726 1_565
Ga1 Pt15 2.782728 1_565
Ga2 Pt6 2.496949 1_555
Ga2 Pt3 2.504251 1_555
Ga2 Pt16 2.504252 1_554
Ga2 Pt1 2.724832 1_555
Ga2 Pt17 2.724833 1_554
Ga2 Pt8 2.782736 1_555
Ga2 Pt10 2.782740 1_555
Ga3 Pt14 2.496894 1_555
Ga3 Pt8 2.504208 1_555
Ga3 Pt10 2.504208 1_556
Ga3 Pt9 2.724811 1_556
Ga3 Pt0 2.724813 1_555
Ga3 Pt3 2.782862 1_555
Ga3 Pt16 2.782868 1_555
Ga4 Pt2 2.496880 1_555
Ga4 Pt9 2.504173 1_556
Ga4 Pt0 2.504177 1_555
Ga4 Pt15 2.724790 1_556
Ga4 Pt5 2.724791 1_555
Ga4 Pt7 2.782859 1_655
Ga4 Pt13 2.782863 1_655
Ga5 Pt4 2.496902 1_555
Ga5 Pt13 2.504277 1_554
Ga5 Pt7 2.504278 1_555
Ga5 Pt16 2.724695 1_554
Ga5 Pt3 2.724698 1_555
Ga5 Pt0 2.782845 1_455
Ga5 Pt9 2.782846 1_455
B0 Pt1 2.155195 1_545
B0 Pt5 2.155225 1_555
B0 Pt2 2.243764 1_555
B0 Pt6 2.243858 1_545
B0 Pt14 2.306369 1_545
B0 Pt4 2.306452 1_655
B1 Pt17 2.155194 1_544
B1 Pt15 2.155226 1_555
B1 Pt2 2.243765 1_554
B1 Pt6 2.243858 1_545
B1 Pt14 2.306368 1_544
B1 Pt4 2.306450 1_655
B2 Pt7 2.155175 1_555
B2 Pt0 2.155206 1_455
B2 Pt14 2.243761 1_455
B2 Pt12 2.243810 1_555
B2 Pt6 2.306428 1_455
B2 Pt11 2.306440 1_565
B3 Pt3 2.155191 1_555
B3 Pt8 2.155206 1_555
B3 Pt11 2.243720 1_555
B3 Pt4 2.243828 1_555
B3 Pt2 2.306423 1_455
B3 Pt12 2.306480 1_545
B4 Pt16 2.155191 1_554
B4 Pt10 2.155206 1_555
B4 Pt11 2.243719 1_554
B4 Pt4 2.243827 1_555
B4 Pt2 2.306424 1_454
B4 Pt12 2.306482 1_545
B5 Pt13 2.155173 1_554
B5 Pt9 2.155206 1_455
B5 Pt14 2.243760 1_454
B5 Pt12 2.243812 1_555
B5 Pt6 2.306427 1_455
B5 Pt11 2.306441 1_564
B6 Pt0 2.198619 1_555
B6 Pt9 2.198620 1_555
B6 Pt15 2.198634 1_555
B6 Pt10 2.198635 1_555
B6 Pt5 2.198635 1_555
B6 Pt8 2.198635 1_555
B7 Pt7 2.198587 1_555
B7 Pt13 2.198591 1_555
B7 Pt1 2.198595 1_555
B7 Pt17 2.198596 1_555
B7 Pt16 2.198614 1_555
B7 Pt3 2.198614 1_555
