# generated using pymatgen
data_Tb(MnGe)6
_symmetry_space_group_name_H-M   'P 1'
_cell_length_a   5.16782979
_cell_length_b   5.16783880
_cell_length_c   8.17314471
_cell_angle_alpha   90.00000000
_cell_angle_beta   90.00000000
_cell_angle_gamma   119.99831209
_symmetry_Int_Tables_number   1
_chemical_formula_structural   Tb(MnGe)6
_chemical_formula_sum   'Tb1 Mn6 Ge6'
_cell_volume   189.03593341
_cell_formula_units_Z   1
loop_
 _symmetry_equiv_pos_site_id
 _symmetry_equiv_pos_as_xyz
  1  'x, y, z'
loop_
 _atom_site_type_symbol
 _atom_site_label
 _atom_site_symmetry_multiplicity
 _atom_site_fract_x
 _atom_site_fract_y
 _atom_site_fract_z
 _atom_site_occupancy
  Tb  Tb0  1  0.00000000  -0.00000000  -0.00000000  1
  Mn  Mn0  1  0.50000000  -0.00000000  0.25202831  1
  Mn  Mn1  1  0.50000000  0.50000000  0.25202560  1
  Mn  Mn2  1  0.00000000  0.50000000  0.25202831  1
  Mn  Mn3  1  0.50000000  -0.00000000  0.74797169  1
  Mn  Mn4  1  0.50000000  0.50000000  0.74797440  1
  Mn  Mn5  1  0.00000000  0.50000000  0.74797169  1
  Ge  Ge0  1  0.00000000  -0.00000000  0.65571715  1
  Ge  Ge1  1  0.33336255  0.66664045  -0.00000000  1
  Ge  Ge2  1  0.66663745  0.33335955  -0.00000000  1
  Ge  Ge3  1  0.33336756  0.66663444  0.50000000  1
  Ge  Ge4  1  0.66663244  0.33336556  0.50000000  1
  Ge  Ge5  1  0.00000000  -0.00000000  0.34428285  1
loop_
_geom_bond_atom_site_label_1
_geom_bond_atom_site_label_2
_geom_bond_distance
_geom_bond_site_symmetry_2
Ge0 Ge5 2.545398 1_555
Ge0 Mn3 2.691681 1_455
Ge0 Mn3 2.691681 1_555
Ge0 Mn5 2.691685 1_555
Ge0 Mn5 2.691685 1_545
Ge0 Mn4 2.691753 1_555
Ge0 Mn4 2.691753 1_445
Ge0 Tb0 2.813874 1_556
Ge1 Mn1 2.543170 1_555
Ge1 Mn4 2.543170 1_554
Ge1 Mn0 2.543425 1_565
Ge1 Mn3 2.543425 1_564
Ge1 Mn2 2.543431 1_555
Ge1 Mn5 2.543431 1_554
Ge1 Tb0 2.983568 1_665
Ge1 Tb0 2.983587 1_555
Ge1 Tb0 2.983873 1_565
Ge2 Mn1 2.543170 1_555
Ge2 Mn4 2.543170 1_554
Ge2 Mn0 2.543425 1_555
Ge2 Mn3 2.543425 1_554
Ge2 Mn2 2.543431 1_655
Ge2 Mn5 2.543431 1_654
Ge2 Tb0 2.983568 1_555
Ge2 Tb0 2.983587 1_665
Ge2 Tb0 2.983873 1_655
Ge3 Mn4 2.516397 1_555
Ge3 Mn1 2.516397 1_555
Ge3 Mn3 2.516664 1_565
Ge3 Mn0 2.516664 1_565
Ge3 Mn5 2.516668 1_555
Ge3 Mn2 2.516668 1_555
Ge4 Mn4 2.516397 1_555
Ge4 Mn1 2.516397 1_555
Ge4 Mn3 2.516664 1_555
Ge4 Mn0 2.516664 1_555
Ge4 Mn5 2.516668 1_655
Ge4 Mn2 2.516668 1_655
Ge5 Mn0 2.691681 1_555
Ge5 Mn0 2.691681 1_455
Ge5 Mn2 2.691685 1_545
Ge5 Mn2 2.691685 1_555
Ge5 Mn1 2.691753 1_555
Ge5 Mn1 2.691753 1_445
Ge5 Tb0 2.813874 1_555
