# generated using pymatgen
data_Ba6Mg(TiS5)2
_symmetry_space_group_name_H-M   'P 1'
_cell_length_a   8.96829853
_cell_length_b   8.49609219
_cell_length_c   9.15071654
_cell_angle_alpha   117.02399809
_cell_angle_beta   116.94822640
_cell_angle_gamma   86.36823174
_symmetry_Int_Tables_number   1
_chemical_formula_structural   Ba6Mg(TiS5)2
_chemical_formula_sum   'Ba6 Mg1 Ti2 S10'
_cell_volume   544.67639366
_cell_formula_units_Z   1
loop_
 _symmetry_equiv_pos_site_id
 _symmetry_equiv_pos_as_xyz
  1  'x, y, z'
loop_
 _atom_site_type_symbol
 _atom_site_label
 _atom_site_symmetry_multiplicity
 _atom_site_fract_x
 _atom_site_fract_y
 _atom_site_fract_z
 _atom_site_occupancy
  Ba  Ba0  1  0.65357449  0.16790016  0.99342901  1
  Ba  Ba1  1  0.83368691  0.67131729  0.99051348  1
  Ba  Ba2  1  0.12857652  0.31590801  0.97235283  1
  Ba  Ba3  1  0.32986356  0.81458549  0.98269037  1
  Ba  Ba4  1  0.85246440  0.83015462  0.54728948  1
  Ba  Ba5  1  0.18324483  0.19629721  0.42744038  1
  Mg  Mg0  1  0.48979492  0.54906073  0.36930949  1
  Ti  Ti0  1  0.74123941  0.27099911  0.49855509  1
  Ti  Ti1  1  0.23780693  0.73409031  0.47842761  1
  S  S0  1  0.01311783  0.50421767  0.30495878  1
  S  S1  1  0.71371513  0.22472383  0.71280990  1
  S  S2  1  0.98887077  0.48881942  0.68564114  1
  S  S3  1  0.23234561  0.01121300  0.70818395  1
  S  S4  1  0.50575458  0.70300809  0.68290045  1
  S  S5  1  0.79957446  0.02243262  0.29245040  1
  S  S6  1  0.44969906  0.23290615  0.27154676  1
  S  S7  1  0.25079770  0.77687427  0.25990511  1
  S  S8  1  0.99043210  0.99271495  0.98358602  1
  S  S9  1  0.55075278  0.55527707  0.13801373  1
loop_
_geom_bond_atom_site_label_1
_geom_bond_atom_site_label_2
_geom_bond_distance
_geom_bond_site_symmetry_2
Ba0 S1 3.087522 1_555
Ba0 S9 3.193285 1_556
Ba0 S5 3.217109 1_556
Ba0 S8 3.302310 1_545
Ba0 S3 3.376172 1_555
Ba0 S0 3.481702 1_656
Ba0 S4 3.533059 1_545
Ba0 S6 3.596861 1_556
Ba1 S4 3.119370 1_555
Ba1 S5 3.128419 1_566
Ba1 S8 3.187599 1_555
Ba1 S7 3.306428 1_656
Ba1 S1 3.359917 1_555
Ba1 S2 3.382151 1_555
Ba1 S0 3.480007 1_656
Ba1 S9 3.723264 1_556
Ba2 S3 3.075421 1_555
Ba2 S8 3.144557 1_445
Ba2 S6 3.261546 1_556
Ba2 S1 3.281427 1_455
Ba2 S2 3.301704 1_455
Ba2 S0 3.334196 1_556
Ba2 Mg0 3.349877 1_556
Ba2 S7 3.468216 1_556
Ba2 S9 3.706894 1_556
Ba3 S7 3.072143 1_556
Ba3 S6 3.185212 1_566
Ba3 S9 3.246351 1_556
Ba3 S8 3.314338 1_455
Ba3 S2 3.332046 1_455
Ba3 S3 3.391537 1_565
Ba3 S4 3.504597 1_555
Ba3 S5 3.803873 1_566
Ba4 S8 3.179035 1_555
Ba4 S3 3.193807 1_665
Ba4 S9 3.235635 1_555
Ba4 S5 3.269985 1_565
Ba4 S0 3.386994 1_655
Ba4 Mg0 3.403415 1_555
Ba4 S1 3.412642 1_565
Ba4 S2 3.604524 1_555
Ba5 S8 3.179243 1_444
Ba5 S5 3.268159 1_455
Ba5 S7 3.319560 1_545
Ba5 S0 3.322208 1_555
Ba5 S6 3.380716 1_555
Ba5 S3 3.438660 1_555
Ba5 S2 3.556125 1_455
Mg0 S6 2.406614 1_555
Mg0 S9 2.436248 1_555
Mg0 S4 2.491279 1_555
Mg0 S7 2.938203 1_555
S0 Ti1 2.275250 1_555
S1 Ti0 2.282720 1_555
S2 Ti0 2.341657 1_555
S3 Ti1 2.355111 1_545
S4 Ti1 2.374567 1_555
S5 Ti0 2.329277 1_555
S6 Ti0 2.414455 1_555
S7 Ti1 2.240824 1_555
