# generated using pymatgen
data_MgTl6WO12
_symmetry_space_group_name_H-M   'P 1'
_cell_length_a   6.71571452
_cell_length_b   6.71571451
_cell_length_c   6.71571449
_cell_angle_alpha   92.68578500
_cell_angle_beta   92.68578500
_cell_angle_gamma   92.68579951
_symmetry_Int_Tables_number   1
_chemical_formula_structural   MgTl6WO12
_chemical_formula_sum   'Mg1 Tl6 W1 O12'
_cell_volume   301.85374152
_cell_formula_units_Z   1
loop_
 _symmetry_equiv_pos_site_id
 _symmetry_equiv_pos_as_xyz
  1  'x, y, z'
loop_
 _atom_site_type_symbol
 _atom_site_label
 _atom_site_symmetry_multiplicity
 _atom_site_fract_x
 _atom_site_fract_y
 _atom_site_fract_z
 _atom_site_occupancy
  Mg  Mg0  1  0.23041938  0.23041938  0.23041938  1
  Tl  Tl0  1  0.40812367  0.90173690  0.70805975  1
  Tl  Tl1  1  0.38938693  0.68817502  0.17929117  1
  Tl  Tl2  1  0.17929117  0.38938693  0.68817502  1
  Tl  Tl3  1  0.90173690  0.70805975  0.40812367  1
  Tl  Tl4  1  0.70805975  0.40812367  0.90173690  1
  Tl  Tl5  1  0.68817502  0.17929117  0.38938693  1
  W  W0  1  0.96104937  0.96104937  0.96104937  1
  O  O0  1  0.04202094  0.87941530  0.70651852  1
  O  O1  1  0.26280859  0.96552422  0.04282035  1
  O  O2  1  0.16824112  0.52581910  0.36595533  1
  O  O3  1  0.60469070  0.83604988  0.42389276  1
  O  O4  1  0.04282035  0.26280859  0.96552422  1
  O  O5  1  0.42389276  0.60469070  0.83604988  1
  O  O6  1  0.52581910  0.36595533  0.16824112  1
  O  O7  1  0.87941530  0.70651852  0.04202094  1
  O  O8  1  0.36595533  0.16824112  0.52581910  1
  O  O9  1  0.83604988  0.42389276  0.60469070  1
  O  O10  1  0.70651852  0.04202094  0.87941530  1
  O  O11  1  0.96552422  0.04282035  0.26280859  1
loop_
_geom_bond_atom_site_label_1
_geom_bond_atom_site_label_2
_geom_bond_distance
_geom_bond_site_symmetry_2
Mg0 O11 2.156656 1_455
Mg0 O4 2.156657 1_554
Mg0 O1 2.156657 1_545
Mg0 O6 2.209624 1_555
Mg0 O8 2.209624 1_555
Mg0 O2 2.209624 1_555
O0 W0 1.882919 1_455
O0 Tl3 2.394358 1_455
O0 Tl0 2.455692 1_555
O1 W0 2.073099 1_454
O1 Tl1 2.295039 1_555
O1 Tl0 2.518853 1_554
O2 Tl3 2.236434 1_455
O2 Tl1 2.262034 1_555
O2 Tl2 2.388462 1_555
O3 Tl3 2.213941 1_555
O3 Tl1 2.294609 1_555
O3 Tl5 2.371221 1_565
O3 Tl0 2.406437 1_555
O4 W0 2.073099 1_445
O4 Tl2 2.295039 1_555
O4 Tl4 2.518853 1_455
O5 Tl0 2.213941 1_555
O5 Tl2 2.294609 1_555
O5 Tl1 2.371221 1_556
O5 Tl4 2.406437 1_555
O6 Tl4 2.236433 1_554
O6 Tl5 2.262034 1_555
O6 Tl1 2.388463 1_555
O7 W0 1.882918 1_554
O7 Tl4 2.394358 1_554
O7 Tl3 2.455692 1_555
O8 Tl0 2.236434 1_545
O8 Tl2 2.262034 1_555
O8 Tl5 2.388462 1_555
O9 Tl4 2.213941 1_555
O9 Tl5 2.294609 1_555
O9 Tl2 2.371221 1_655
O9 Tl3 2.406437 1_555
O10 W0 1.882919 1_545
O10 Tl0 2.394358 1_545
O10 Tl4 2.455692 1_555
O11 W0 2.073099 1_544
O11 Tl5 2.295039 1_555
O11 Tl3 2.518853 1_545
