# generated using pymatgen
data_Na2Ta2Al6Si3(S3O16)3
_symmetry_space_group_name_H-M   'P 1'
_cell_length_a   17.00789263
_cell_length_b   8.47922260
_cell_length_c   22.01134867
_cell_angle_alpha   89.99899769
_cell_angle_beta   90.21707114
_cell_angle_gamma   120.14589043
_symmetry_Int_Tables_number   1
_chemical_formula_structural   Na2Ta2Al6Si3(S3O16)3
_chemical_formula_sum   'Na6 Ta6 Al18 Si9 S27 O144'
_cell_volume   2744.98103364
_cell_formula_units_Z   3
loop_
 _symmetry_equiv_pos_site_id
 _symmetry_equiv_pos_as_xyz
  1  'x, y, z'
loop_
 _atom_site_type_symbol
 _atom_site_label
 _atom_site_symmetry_multiplicity
 _atom_site_fract_x
 _atom_site_fract_y
 _atom_site_fract_z
 _atom_site_occupancy
  Na  Na0  1  0.99776137  0.98842918  0.49861206  1
  Na  Na1  1  0.50056500  0.00968168  0.99662289  1
  Na  Na2  1  0.33999249  0.33803082  0.83464169  1
  Na  Na3  1  0.83555397  0.34649081  0.83054212  1
  Na  Na4  1  0.33686932  0.32635948  0.33401049  1
  Na  Na5  1  0.83823365  0.33808060  0.33872328  1
  Ta  Ta0  1  0.49582691  0.00817578  0.35742097  1
  Ta  Ta1  1  0.99450779  0.98136861  0.85456039  1
  Ta  Ta2  1  0.50371639  0.99495321  0.63744484  1
  Ta  Ta3  1  0.99807438  0.00319188  0.14107033  1
  Ta  Ta4  1  0.66811847  0.66043145  0.02201085  1
  Ta  Ta5  1  0.16745791  0.67562159  0.52364198  1
  Al  Al0  1  0.00011350  0.99272073  0.35648947  1
  Al  Al1  1  0.50141518  0.01100068  0.85274486  1
  Al  Al2  1  0.99731075  0.99075299  0.64894945  1
  Al  Al3  1  0.50060405  0.00570451  0.15098171  1
  Al  Al4  1  0.33335809  0.33668449  0.68574073  1
  Al  Al5  1  0.83344168  0.33612362  0.68504175  1
  Al  Al6  1  0.33639346  0.32992683  0.18855086  1
  Al  Al7  1  0.83074027  0.32635831  0.18636118  1
  Al  Al8  1  0.33929860  0.33632656  0.97885465  1
  Al  Al9  1  0.83397727  0.33151547  0.97791388  1
  Al  Al10  1  0.33521484  0.33546320  0.47977135  1
  Al  Al11  1  0.83656087  0.34149861  0.48207703  1
  Al  Al12  1  0.16915517  0.66946007  0.01998156  1
  Al  Al13  1  0.67086655  0.67791715  0.52475909  1
  Al  Al14  1  0.16210139  0.67579400  0.31856367  1
  Al  Al15  1  0.66288967  0.66223984  0.31131241  1
  Al  Al16  1  0.16427176  0.66530833  0.80789995  1
  Al  Al17  1  0.66287401  0.64767347  0.81565820  1
  Si  Si0  1  0.50236394  0.30201231  0.24509259  1
  Si  Si1  1  0.99988186  0.69791451  0.74340190  1
  Si  Si2  1  0.70444322  0.05623736  0.58092270  1
  Si  Si3  1  0.32887416  0.59693630  0.58265052  1
  Si  Si4  1  0.82906679  0.06099223  0.08232444  1
  Si  Si5  1  0.80693414  0.64852919  0.91481983  1
  Si  Si6  1  0.51669682  0.36924882  0.91296300  1
  Si  Si7  1  0.30562332  0.96471116  0.41553756  1
  Si  Si8  1  0.01523063  0.65916886  0.41399211  1
  S  S0  1  0.14493641  -0.00036908  0.25126980  1
  S  S1  1  0.64751988  0.00178342  0.24899502  1
  S  S2  1  0.35115411  0.70598595  0.24768147  1
  S  S3  1  0.85488584  0.70698555  0.25143160  1
  S  S4  1  0.00127566  0.29363754  0.25350772  1
  S  S5  1  0.14770905  0.29243630  0.74891225  1
  S  S6  1  0.64427257  0.29143371  0.75166108  1
  S  S7  1  0.50136898  0.71047607  0.75346083  1
  S  S8  1  0.35470202  0.00194437  0.75137370  1
  S  S9  1  0.85057183  0.99540659  0.74813791  1
  S  S10  1  0.47726956  0.34275589  0.58278581  1
  S  S11  1  0.97362217  0.32086892  0.58556128  1
  S  S12  1  0.18870016  0.05614681  0.58566606  1
  S  S13  1  0.83416049  0.62470399  0.58258239  1
  S  S14  1  0.47151604  0.62314701  0.08538635  1
  S  S15  1  0.97903807  0.61185619  0.08273947  1
  S  S16  1  0.33170520  0.04272347  0.08261316  1
  S  S17  1  0.19746372  0.34448038  0.08174133  1
  S  S18  1  0.68849873  0.32177866  0.08547905  1
  S  S19  1  0.30748181  0.66360717  0.91636613  1
  S  S20  1  0.02724633  0.39038053  0.91743945  1
  S  S21  1  0.17106935  0.95331883  0.91871702  1
  S  S22  1  0.66569203  0.95469345  0.91337696  1
  S  S23  1  0.80834744  0.94928983  0.41405842  1
  S  S24  1  0.16586221  0.37718186  0.41326286  1
  S  S25  1  0.67180962  0.39439417  0.41819978  1
  S  S26  1  0.52611111  0.66207820  0.41712440  1
  O  O0  1  0.10274156  0.03470454  0.30394214  1
  O  O1  1  0.60521389  0.03284580  0.30344798  1
  O  O2  1  0.41231859  0.78496603  0.30299325  1
  O  O3  1  0.91627792  0.79329414  0.30338692  1
  O  O4  1  0.48341471  0.16492250  0.30611946  1
  O  O5  1  0.98372542  0.16925277  0.30482822  1
  O  O6  1  0.10517756  0.17786182  0.80433916  1
  O  O7  1  0.60169768  0.17223414  0.80538598  1
  O  O8  1  0.48345948  0.79779607  0.80615135  1
  O  O9  1  0.98148446  0.79579787  0.80619394  1
  O  O10  1  0.41444885  0.03828180  0.80512712  1
  O  O11  1  0.91239349  0.03220372  0.80431133  1
  O  O12  1  0.39463863  0.97134141  0.69636851  1
  O  O13  1  0.89604583  0.97071247  0.69532948  1
  O  O14  1  0.08936352  0.21190554  0.69519773  1
  O  O15  1  0.58571945  0.20453633  0.69739260  1
  O  O16  1  0.01686400  0.83917520  0.68989356  1
  O  O17  1  0.51279573  0.82163005  0.69775081  1
  O  O18  1  0.39691731  0.82197928  0.19420734  1
  O  O19  1  0.89736905  0.82064756  0.19481556  1
  O  O20  1  0.01298924  0.20296845  0.19668318  1
  O  O21  1  0.51698970  0.19734571  0.18936205  1
  O  O22  1  0.08728825  0.97098616  0.19560671  1
  O  O23  1  0.58967501  0.96654634  0.19443458  1
  O  O24  1  0.43704385  0.36828945  0.63867607  1
  O  O25  1  0.93646557  0.35984891  0.63949436  1
  O  O26  1  0.24529919  0.13147628  0.64035770  1
  O  O27  1  0.75719400  0.14601529  0.64308105  1
  O  O28  1  0.31795230  0.49130793  0.64455155  1
  O  O29  1  0.81973115  0.51572212  0.63766415  1
  O  O30  1  0.42986067  0.50753691  0.13878958  1
  O  O31  1  0.93845994  0.50919408  0.13868293  1
  O  O32  1  0.31470731  0.12377346  0.13697939  1
  O  O33  1  0.82044093  0.14590937  0.14449896  1
  O  O34  1  0.25065307  0.37053277  0.13728653  1
  O  O35  1  0.74535560  0.35939059  0.14010598  1
  O  O36  1  0.23533502  0.30493801  0.02798353  1
  O  O37  1  0.72985140  0.30117155  0.02989438  1
  O  O38  1  0.41556807  0.54363078  0.02974218  1
  O  O39  1  0.92120185  0.54196302  0.02888000  1
  O  O40  1  0.34864113  0.16048919  0.02873531  1
  O  O41  1  0.85005750  0.17947984  0.02245510  1
  O  O42  1  0.22981971  0.15778932  0.52976049  1
  O  O43  1  0.74200644  0.18265743  0.52205776  1
  O  O44  1  0.34848882  0.52011339  0.52219369  1
  O  O45  1  0.85629802  0.55088522  0.52850942  1
  O  O46  1  0.41887220  0.29903582  0.52896786  1
  O  O47  1  0.92022227  0.28964318  0.52949496  1
  O  O48  1  0.26832271  0.69994090  0.97169570  1
  O  O49  1  0.76616585  0.69361572  0.97620763  1
  O  O50  1  0.08205990  0.47213052  0.97337040  1
  O  O51  1  0.57881178  0.46233752  0.97546256  1
  O  O52  1  0.15278612  0.83895710  0.97337906  1
  O  O53  1  0.64891204  0.84351057  0.97001185  1
  O  O54  1  0.26562980  0.83768319  0.47610201  1
  O  O55  1  0.77022671  0.83401681  0.46841839  1
  O  O56  1  0.14849430  0.45311415  0.46925518  1
  O  O57  1  0.65350465  0.47058572  0.47241051  1
  O  O58  1  0.07949071  0.69333837  0.47487776  1
  O  O59  1  0.58071562  0.68916646  0.47148000  1
  O  O60  1  0.06035110  0.62030334  0.35556861  1
  O  O61  1  0.56713210  0.63663760  0.36162534  1
  O  O62  1  0.24963726  0.87021079  0.35514785  1
  O  O63  1  0.75170531  0.86274086  0.35898240  1
  O  O64  1  0.18263667  0.49305619  0.35937472  1
  O  O65  1  0.68327037  0.50110617  0.36267353  1
  O  O66  1  0.07038418  0.50301156  0.86354208  1
  O  O67  1  0.56301329  0.50174473  0.85615845  1
  O  O68  1  0.18701054  0.87389027  0.86438296  1
  O  O69  1  0.68297550  0.87355208  0.86006126  1
  O  O70  1  0.25077514  0.63447521  0.86200575  1
  O  O71  1  0.74928364  0.63091703  0.85589286  1
  O  O72  1  0.00946524  0.84427992  0.40774765  1
  O  O73  1  0.51861705  0.82908818  0.40847598  1
  O  O74  1  0.40531362  0.97321961  0.41018671  1
  O  O75  1  0.90098378  0.97389699  0.40546680  1
  O  O76  1  0.08210771  0.19620040  0.40554680  1
  O  O77  1  0.58916188  0.20606682  0.41010245  1
  O  O78  1  0.01982954  0.20932324  0.91023371  1
  O  O79  1  0.50933797  0.17113121  0.90786947  1
  O  O80  1  0.08935740  0.97386176  0.91068423  1
  O  O81  1  0.58250210  0.96846018  0.90662970  1
  O  O82  1  0.39984994  0.82234531  0.90883031  1
  O  O83  1  0.90685528  0.83897977  0.91088112  1
  O  O84  1  0.48566533  0.17593706  0.59204121  1
  O  O85  1  0.98510434  0.15895806  0.59407640  1
  O  O86  1  0.09792700  0.03889653  0.59098856  1
  O  O87  1  0.60042766  0.03367405  0.59271449  1
  O  O88  1  0.41594775  0.80653941  0.59226885  1
  O  O89  1  0.91429160  0.81366492  0.59004016  1
  O  O90  1  0.48276575  0.80769196  0.09333893  1
  O  O91  1  0.99172679  0.80168911  0.09212871  1
  O  O92  1  0.41243678  0.02015915  0.08974599  1
  O  O93  1  0.91829066  0.02785318  0.09214799  1
  O  O94  1  0.10433702  0.17771770  0.09071226  1
  O  O95  1  0.59741507  0.15577734  0.09100755  1
  O  O96  1  0.34475790  0.16621664  0.74279728  1
  O  O97  1  0.84506376  0.16200292  0.74466832  1
  O  O98  1  0.23729798  0.30225379  0.74396320  1
  O  O99  1  0.73390115  0.30768659  0.74457596  1
  O  O100  1  0.41988781  0.52578803  0.74610760  1
  O  O101  1  0.90774144  0.50385031  0.73855014  1
  O  O102  1  0.34132188  0.52309613  0.23985805  1
  O  O103  1  0.84668558  0.52567803  0.24099168  1
  O  O104  1  0.40947505  0.31076247  0.24056060  1
  O  O105  1  0.92037078  0.31412049  0.24496910  1
  O  O106  1  0.23406793  0.16677010  0.24101182  1
  O  O107  1  0.73742099  0.17340599  0.24322613  1
  O  O108  1  0.31260042  0.49526687  0.92565276  1
  O  O109  1  0.82228929  0.48029348  0.92666952  1
  O  O110  1  0.41897947  0.35420355  0.92509884  1
  O  O111  1  0.93608110  0.36836657  0.92280934  1
  O  O112  1  0.24910236  0.13763585  0.92788917  1
  O  O113  1  0.74636501  0.13726212  0.92238663  1
  O  O114  1  0.32169368  0.16439726  0.42652523  1
  O  O115  1  0.81611382  0.12910741  0.42060899  1
  O  O116  1  0.24568607  0.35483610  0.42112562  1
  O  O117  1  0.75068512  0.37059933  0.42315111  1
  O  O118  1  0.43371629  0.50282464  0.42161198  1
  O  O119  1  0.91761153  0.48013412  0.42648695  1
  O  O120  1  0.18339433  0.50054238  0.07271599  1
  O  O121  1  0.67678911  0.48512284  0.08064075  1
  O  O122  1  0.07033596  0.63626809  0.07399337  1
  O  O123  1  0.56192094  0.64198816  0.07793817  1
  O  O124  1  0.24971846  0.86048339  0.07276123  1
  O  O125  1  0.74274395  0.85607078  0.07602611  1
  O  O126  1  0.17668575  0.86833872  0.58103881  1
  O  O127  1  0.68243941  0.85096609  0.57148970  1
  O  O128  1  0.24150471  0.62499610  0.57506426  1
  O  O129  1  0.75152710  0.63563758  0.57216375  1
  O  O130  1  0.06557055  0.48248009  0.57749529  1
  O  O131  1  0.56832807  0.49745884  0.57360105  1
  O  O132  1  0.15279383  0.83680142  0.25656217  1
  O  O133  1  0.66022559  0.84587001  0.25885922  1
  O  O134  1  0.26317632  0.69111731  0.25729673  1
  O  O135  1  0.76724004  0.69343202  0.25925995  1
  O  O136  1  0.08542514  0.46873575  0.25798268  1
  O  O137  1  0.59023134  0.49107942  0.26157431  1
  O  O138  1  0.16034595  0.47471658  0.75973660  1
  O  O139  1  0.65093883  0.46976623  0.75731027  1
  O  O140  1  0.08802471  0.68766811  0.76204453  1
  O  O141  1  0.58469758  0.70226190  0.75968390  1
  O  O142  1  0.26586095  0.83980495  0.76202204  1
  O  O143  1  0.76257905  0.83282162  0.75852072  1
loop_
_geom_bond_atom_site_label_1
_geom_bond_atom_site_label_2
_geom_bond_distance
_geom_bond_site_symmetry_2
Na0 O72 2.404423 1_655
Na0 O89 2.483917 1_555
Na0 O86 2.541926 1_665
Na0 O75 2.588185 1_555
Na0 O76 2.615660 1_665
Na0 O85 2.620830 1_565
Na1 O79 2.347290 1_555
Na1 O82 2.536492 1_545
Na1 O95 2.547287 1_556
Na1 O81 2.549168 1_545
Na1 O92 2.571593 1_556
Na1 O90 2.653494 1_546
Na2 O110 2.362764 1_555
Na2 O100 2.454747 1_555
Na2 O96 2.517115 1_555
Na2 O98 2.562802 1_555
Na2 O108 2.576572 1_555
Na2 O112 2.622084 1_555
Na3 O101 2.400237 1_555
Na3 O109 2.464929 1_555
Na3 O99 2.466123 1_555
Na3 O97 2.510505 1_555
Na3 O111 2.595668 1_555
Na3 O113 2.618301 1_555
Na4 O114 2.397351 1_555
Na4 O104 2.440647 1_555
Na4 O118 2.484074 1_555
Na4 O116 2.557136 1_555
Na4 O106 2.583613 1_555
Na4 O102 2.637737 1_555
Na5 O119 2.313507 1_555
Na5 O115 2.421867 1_555
Na5 O117 2.485982 1_555
Na5 O105 2.560943 1_555
Na5 O107 2.622247 1_555
Na5 O103 2.636506 1_555
Al0 O72 1.755611 1_555
Al0 O76 1.913001 1_565
Al0 O75 1.942605 1_455
Al0 O3 1.955619 1_455
Al0 O0 1.975458 1_565
Al0 O5 2.006969 1_465
Al1 O79 1.774554 1_555
Al1 O7 1.880464 1_555
Al1 O10 1.916187 1_555
Al1 O8 1.963781 1_545
Al1 O81 1.981440 1_545
Al1 O82 2.075456 1_545
Al2 O16 1.732546 1_655
Al2 O13 1.938240 1_555
Al2 O89 1.945874 1_555
Al2 O85 1.957442 1_565
Al2 O86 2.009383 1_665
Al2 O14 2.010733 1_665
Al3 O21 1.724904 1_555
Al3 O18 1.922333 1_545
Al3 O23 1.953005 1_545
Al3 O95 1.996253 1_555
Al3 O90 2.001605 1_545
Al3 O92 2.061481 1_555
Al4 O28 1.718366 1_555
Al4 O26 1.907836 1_555
Al4 O24 1.947828 1_555
Al4 O98 1.983338 1_555
Al4 O96 1.995925 1_555
Al4 O100 2.029185 1_555
Al5 O27 1.739129 1_555
Al5 O101 1.786163 1_555
Al5 O25 1.942967 1_555
Al5 O29 1.953399 1_555
Al5 O97 2.057304 1_555
Al5 O99 2.061143 1_555
Al6 O104 1.753290 1_555
Al6 O30 1.898249 1_555
Al6 O102 1.956191 1_555
Al6 O32 1.956916 1_555
Al6 O106 1.967998 1_555
Al6 O34 2.002543 1_555
Al7 O33 1.717693 1_555
Al7 O35 1.902973 1_555
Al7 O107 1.927505 1_555
Al7 O103 1.978163 1_555
Al7 O31 2.005756 1_555
Al7 O105 2.035392 1_555
Al8 O110 1.750834 1_555
Al8 O40 1.921008 1_556
Al8 O38 1.930272 1_556
Al8 O112 1.959923 1_555
Al8 O36 1.977013 1_556
Al8 O108 2.001094 1_555
Al9 O41 1.746409 1_556
Al9 O109 1.775774 1_555
Al9 O113 1.987039 1_555
Al9 O39 1.993006 1_556
Al9 O111 2.013811 1_555
Al9 O37 2.017248 1_556
Al10 O44 1.737155 1_555
Al10 O114 1.787026 1_555
Al10 O46 1.929307 1_555
Al10 O42 1.999013 1_555
Al10 O118 2.021779 1_555
Al10 O116 2.061132 1_555
Al11 O43 1.734890 1_555
Al11 O119 1.778897 1_555
Al11 O45 1.925687 1_555
Al11 O47 1.981034 1_555
Al11 O117 2.055254 1_555
Al11 O115 2.135952 1_555
Al12 O50 1.882975 1_554
Al12 O52 1.896039 1_554
Al12 O124 1.899874 1_555
Al12 O48 1.901810 1_554
Al12 O120 1.950300 1_555
Al12 O122 1.964033 1_555
Al13 O127 1.719951 1_555
Al13 O129 1.892729 1_555
Al13 O59 1.966885 1_555
Al13 O131 1.967846 1_555
Al13 O55 1.978597 1_555
Al13 O57 1.995391 1_555
Al14 O60 1.752854 1_555
Al14 O62 1.763065 1_555
Al14 O64 1.967471 1_555
Al14 O132 1.991671 1_555
Al14 O136 2.061187 1_555
Al14 O134 2.141014 1_555
Al15 O137 1.737937 1_555
Al15 O61 1.893298 1_555
Al15 O63 1.918788 1_555
Al15 O65 1.933301 1_555
Al15 O133 1.957001 1_555
Al15 O135 2.019023 1_555
Al16 O140 1.724364 1_555
Al16 O138 1.905566 1_555
Al16 O142 1.907814 1_555
Al16 O66 1.936824 1_555
Al16 O70 2.006064 1_555
Al16 O68 2.032904 1_555
Al17 O67 1.763808 1_555
Al17 O71 1.778828 1_555
Al17 O139 1.912281 1_555
Al17 O69 2.019966 1_555
Al17 O141 2.026287 1_555
Al17 O143 2.064983 1_555
O0 S0 1.472524 1_555
O1 S1 1.490168 1_555
O1 Ta0 2.131253 1_555
O2 S2 1.517773 1_555
O2 Ta0 2.078905 1_565
O3 S3 1.468718 1_555
O4 Si0 1.698950 1_555
O4 Ta0 1.834702 1_555
O5 S4 1.471000 1_655
O6 S5 1.502107 1_555
O6 Ta1 2.099201 1_445
O7 S6 1.488516 1_555
O8 S7 1.488397 1_555
O9 Si1 1.720823 1_555
O9 Ta1 1.818393 1_555
O10 S8 1.484549 1_555
O11 S9 1.546731 1_545
O11 Ta1 1.988097 1_545
O12 S8 1.475757 1_565
O12 Ta2 2.192973 1_555
O13 S9 1.470589 1_555
O14 S5 1.469505 1_555
O15 S6 1.488471 1_555
O15 Ta2 2.083538 1_545
O16 Si1 1.600107 1_455
O17 S7 1.499186 1_555
O17 Ta2 2.042562 1_555
O18 S2 1.482083 1_555
O19 S3 1.520286 1_555
O19 Ta3 2.020253 1_565
O20 S4 1.533288 1_555
O20 Ta3 1.999598 1_455
O21 Si0 1.605744 1_555
O22 S0 1.507714 1_565
O22 Ta3 2.054329 1_465
O23 S1 1.481643 1_565
O24 S10 1.477682 1_555
O25 S11 1.460618 1_555
O26 S12 1.468854 1_555
O27 Si2 1.600350 1_555
O28 Si3 1.589947 1_555
O29 S13 1.469204 1_555
O30 S14 1.467426 1_555
O31 S15 1.467438 1_555
O32 S16 1.479903 1_555
O33 Si4 1.587621 1_555
O34 S17 1.467273 1_555
O35 S18 1.471077 1_555
O36 S17 1.466341 1_555
O37 S18 1.467001 1_555
O38 S14 1.485596 1_555
O39 S15 1.459433 1_555
O40 S16 1.483294 1_555
O41 Si4 1.586414 1_555
O42 S12 1.465347 1_555
O43 Si2 1.598256 1_555
O44 Si3 1.590010 1_555
O45 S13 1.479965 1_555
O46 S10 1.465768 1_555
O47 S11 1.472395 1_555
O48 S19 1.494646 1_555
O49 Si5 1.651095 1_555
O49 Ta4 1.848752 1_556
O50 S20 1.485771 1_555
O51 Si6 1.668271 1_555
O51 Ta4 1.898409 1_556
O52 S21 1.478037 1_555
O53 S22 1.502222 1_555
O53 Ta4 2.081593 1_556
O54 Si7 1.634299 1_555
O54 Ta5 1.865432 1_555
O55 S23 1.475381 1_555
O56 S24 1.488146 1_555
O56 Ta5 2.117237 1_555
O57 S25 1.463902 1_555
O58 Si8 1.656916 1_555
O58 Ta5 1.904385 1_555
O59 S26 1.457416 1_555
O60 Si8 1.616404 1_555
O61 S26 1.477583 1_555
O62 Si7 1.593669 1_555
O63 S23 1.489087 1_555
O64 S24 1.474679 1_555
O65 S25 1.474832 1_555
O66 S20 1.469891 1_555
O67 Si6 1.601432 1_555
O68 S21 1.464011 1_555
O69 S22 1.463822 1_555
O70 S19 1.474755 1_555
O71 Si5 1.584101 1_555
O72 Si8 1.626845 1_555
O73 S26 1.496316 1_555
O73 Ta0 2.075305 1_565
O74 Si7 1.665089 1_555
O74 Ta0 1.833553 1_565
O75 S23 1.494564 1_555
O76 S24 1.488456 1_555
O77 S25 1.516973 1_555
O77 Ta0 1.997718 1_555
O78 S20 1.484361 1_555
O78 Ta1 2.140839 1_445
O79 Si6 1.624489 1_555
O80 S21 1.494753 1_555
O80 Ta1 2.054408 1_455
O81 S22 1.483873 1_555
O82 S19 1.478277 1_555
O83 Si5 1.657733 1_555
O83 Ta1 1.850161 1_555
O84 S10 1.505101 1_555
O84 Ta2 1.979618 1_545
O85 S11 1.492335 1_555
O86 S12 1.480939 1_555
O87 Si2 1.702105 1_555
O87 Ta2 1.803488 1_545
O88 Si3 1.658524 1_555
O88 Ta2 1.833829 1_555
O89 S13 1.502190 1_555
O90 S14 1.488247 1_555
O91 S15 1.526755 1_555
O91 Ta3 1.976196 1_565
O92 S16 1.486210 1_555
O93 Si4 1.689482 1_555
O93 Ta3 1.821694 1_555
O94 S17 1.516570 1_555
O94 Ta3 2.003435 1_455
O95 S18 1.485658 1_555
O96 S8 1.496924 1_555
O97 S9 1.463874 1_545
O98 S5 1.488077 1_555
O99 S6 1.468974 1_555
O100 S7 1.489169 1_555
O101 Si1 1.607368 1_555
O102 S2 1.483849 1_555
O103 S3 1.490002 1_555
O104 Si0 1.621080 1_555
O105 S4 1.482229 1_655
O106 S0 1.483998 1_555
O107 S1 1.496099 1_555
O108 S19 1.487107 1_555
O109 Si5 1.595249 1_555
O110 Si6 1.624860 1_555
O111 S20 1.470932 1_655
O112 S21 1.469472 1_545
O113 S22 1.477468 1_545
O114 Si7 1.592091 1_545
O115 S23 1.469886 1_545
O116 S24 1.471604 1_555
O117 S25 1.457043 1_555
O118 S26 1.473923 1_555
O119 Si8 1.615134 1_655
O120 S17 1.471558 1_555
O121 S18 1.498734 1_555
O121 Ta4 2.028667 1_555
O122 S15 1.473254 1_455
O123 S14 1.473698 1_555
O123 Ta4 2.129644 1_555
O124 S16 1.487527 1_565
O125 Si4 1.621751 1_565
O125 Ta4 1.910564 1_555
O126 S12 1.503691 1_565
O126 Ta5 2.007983 1_555
O127 Si2 1.599320 1_565
O128 Si3 1.626600 1_555
O128 Ta5 1.893044 1_555
O129 S13 1.471332 1_555
O130 S11 1.484796 1_455
O130 Ta5 2.062795 1_555
O131 S10 1.456698 1_555
O132 S0 1.457008 1_565
O133 S1 1.458825 1_565
O134 S2 1.453469 1_555
O135 S3 1.447368 1_555
O136 S4 1.458438 1_555
O137 Si0 1.588893 1_555
O138 S5 1.468944 1_555
O139 S6 1.463738 1_555
O140 Si1 1.596705 1_455
O141 S7 1.459407 1_555
O142 S8 1.464358 1_565
O143 S9 1.456984 1_555
