# generated using pymatgen
data_Na3ScAl(PO4)3
_symmetry_space_group_name_H-M   'P 1'
_cell_length_a   8.80231920
_cell_length_b   8.79178633
_cell_length_c   22.09426157
_cell_angle_alpha   89.99415196
_cell_angle_beta   89.96116812
_cell_angle_gamma   119.97988750
_symmetry_Int_Tables_number   1
_chemical_formula_structural   Na3ScAl(PO4)3
_chemical_formula_sum   'Na18 Sc6 Al6 P18 O72'
_cell_volume   1481.05840994
_cell_formula_units_Z   6
loop_
 _symmetry_equiv_pos_site_id
 _symmetry_equiv_pos_as_xyz
  1  'x, y, z'
loop_
 _atom_site_type_symbol
 _atom_site_label
 _atom_site_symmetry_multiplicity
 _atom_site_fract_x
 _atom_site_fract_y
 _atom_site_fract_z
 _atom_site_occupancy
  Na  Na0  1  0.00031358  0.00006681  0.50081275  1
  Na  Na1  1  0.99927475  0.99919719  0.00124283  1
  Na  Na2  1  0.64715094  0.32233692  0.83201389  1
  Na  Na3  1  0.67782070  0.35276965  0.33324166  1
  Na  Na4  1  0.33305293  0.66662047  0.16847574  1
  Na  Na5  1  0.33331323  0.66637908  0.66611191  1
  Na  Na6  1  0.63683792  0.99960933  0.24995039  1
  Na  Na7  1  0.36438242  0.36254765  0.24997032  1
  Na  Na8  1  0.63571904  0.63364555  0.74873043  1
  Na  Na9  1  0.00044674  0.36423167  0.74868497  1
  Na  Na10  1  0.03387898  0.70140941  0.58368414  1
  Na  Na11  1  0.66421615  0.96554494  0.58355277  1
  Na  Na12  1  0.30080378  0.96908885  0.08449370  1
  Na  Na13  1  0.03088479  0.33438428  0.08429608  1
  Na  Na14  1  0.96903968  0.66535083  0.91712557  1
  Na  Na15  1  0.69683174  0.02886728  0.91666611  1
  Na  Na16  1  0.97096934  0.30137674  0.41695780  1
  Na  Na17  1  0.33363898  0.03228174  0.41762459  1
  Sc  Sc0  1  0.99283362  0.99052632  0.34946896  1
  Sc  Sc1  1  0.00966087  0.00756550  0.84869410  1
  Sc  Sc2  1  0.66165932  0.33609642  0.98483828  1
  Sc  Sc3  1  0.34038145  0.66564887  0.02116949  1
  Sc  Sc4  1  0.33408608  0.65970527  0.52051992  1
  Sc  Sc5  1  0.33442491  0.67182790  0.81219358  1
  Al  Al0  1  0.00706519  0.00603761  0.64710259  1
  Al  Al1  1  0.99493681  0.99372167  0.15082388  1
  Al  Al2  1  0.66117581  0.32920882  0.68347191  1
  Al  Al3  1  0.67122437  0.33899917  0.18495396  1
  Al  Al4  1  0.66441313  0.33866441  0.48273585  1
  Al  Al5  1  0.32746657  0.66442644  0.31555060  1
  P  P0  1  0.29484876  0.99700648  0.24815113  1
  P  P1  1  0.70571693  0.70245388  0.24732937  1
  P  P2  1  0.99946616  0.29882445  0.24811496  1
  P  P3  1  0.29692288  0.28614083  0.74462376  1
  P  P4  1  0.99439651  0.70558838  0.74505937  1
  P  P5  1  0.71117589  0.00778891  0.74492083  1
  P  P6  1  0.94716716  0.32612239  0.58473342  1
  P  P7  1  0.37814705  0.05577785  0.58381023  1
  P  P8  1  0.67181397  0.61939453  0.58549574  1
  P  P9  1  0.95305976  0.63057319  0.08727036  1
  P  P10  1  0.67468493  0.04409662  0.08816324  1
  P  P11  1  0.37043720  0.32652840  0.08975139  1
  P  P12  1  0.62794179  0.66541156  0.91472379  1
  P  P13  1  0.03906965  0.37063345  0.91732073  1
  P  P14  1  0.33334121  0.96215416  0.91833188  1
  P  P15  1  0.62199982  0.95992161  0.41625920  1
  P  P16  1  0.34338943  0.38070752  0.41440343  1
  P  P17  1  0.03842817  0.65958873  0.41719003  1
  O  O0  1  0.22029955  0.03839433  0.30524190  1
  O  O1  1  0.81543904  0.77916038  0.30490578  1
  O  O2  1  0.96003724  0.18253136  0.30533918  1
  O  O3  1  0.22124326  0.18311525  0.80358068  1
  O  O4  1  0.96071423  0.77983875  0.80381413  1
  O  O5  1  0.81952302  0.04114023  0.80380730  1
  O  O6  1  0.80482014  0.97571179  0.69082927  1
  O  O7  1  0.16826937  0.19531600  0.69189562  1
  O  O8  1  0.02036722  0.82502525  0.69022366  1
  O  O9  1  0.79624504  0.83177131  0.19417461  1
  O  O10  1  0.03489208  0.20772531  0.19355973  1
  O  O11  1  0.17620635  0.97046085  0.19277788  1
  O  O12  1  0.86122098  0.35830274  0.64077202  1
  O  O13  1  0.50078961  0.14212408  0.63801945  1
  O  O14  1  0.64638776  0.50973174  0.64276098  1
  O  O15  1  0.85830757  0.50041554  0.13893238  1
  O  O16  1  0.64268854  0.13778756  0.14185068  1
  O  O17  1  0.48818202  0.35257586  0.14444902  1
  O  O18  1  0.44694595  0.29013946  0.03222152  1
  O  O19  1  0.85455944  0.55814857  0.02670217  1
  O  O20  1  0.70866569  0.15287465  0.02905008  1
  O  O21  1  0.46122808  0.16084205  0.52468095  1
  O  O22  1  0.70269253  0.53295946  0.52932981  1
  O  O23  1  0.83332107  0.29633497  0.52691919  1
  O  O24  1  0.54178322  0.69781335  0.96993378  1
  O  O25  1  0.14673024  0.45645243  0.97470580  1
  O  O26  1  0.30432460  0.85115385  0.97596785  1
  O  O27  1  0.54256273  0.85236641  0.47436918  1
  O  O28  1  0.30188675  0.45912525  0.47003465  1
  O  O29  1  0.15015111  0.69559327  0.47520876  1
  O  O30  1  0.13115116  0.62857063  0.36241920  1
  O  O31  1  0.50326366  0.86998851  0.36001239  1
  O  O32  1  0.36530113  0.49187248  0.35693609  1
  O  O33  1  0.12214074  0.48387081  0.86000895  1
  O  O34  1  0.36347551  0.87350052  0.86282190  1
  O  O35  1  0.52205040  0.64166945  0.85645189  1
  O  O36  1  0.02461486  0.82697443  0.41012287  1
  O  O37  1  0.81009212  0.98971690  0.41083365  1
  O  O38  1  0.17786660  0.19347077  0.40907623  1
  O  O39  1  0.01270010  0.18439534  0.91304541  1
  O  O40  1  0.16529710  0.97312360  0.91230467  1
  O  O41  1  0.81222131  0.83215564  0.91109495  1
  O  O42  1  0.96460295  0.15874505  0.59131251  1
  O  O43  1  0.18907981  0.02721049  0.59095165  1
  O  O44  1  0.83934425  0.80868402  0.59039618  1
  O  O45  1  0.98001108  0.81789264  0.09533234  1
  O  O46  1  0.84171699  0.02865944  0.09603500  1
  O  O47  1  0.18308956  0.15983992  0.09566569  1
  O  O48  1  0.69376018  0.17368617  0.73782173  1
  O  O49  1  0.48416614  0.31378329  0.73792897  1
  O  O50  1  0.82831158  0.51817850  0.73928524  1
  O  O51  1  0.67872207  0.51531806  0.23895691  1
  O  O52  1  0.83264267  0.31395985  0.23904697  1
  O  O53  1  0.48225234  0.16334295  0.24034882  1
  O  O54  1  0.65251518  0.50449094  0.92035636  1
  O  O55  1  0.85467730  0.35374155  0.92130057  1
  O  O56  1  0.50140382  0.14269806  0.92234359  1
  O  O57  1  0.63833757  0.14596795  0.42236180  1
  O  O58  1  0.50631401  0.35844808  0.42343677  1
  O  O59  1  0.85612210  0.49067662  0.42473651  1
  O  O60  1  0.34571453  0.48780005  0.08397241  1
  O  O61  1  0.13869084  0.64769972  0.08318695  1
  O  O62  1  0.50527223  0.86383912  0.08315138  1
  O  O63  1  0.35704041  0.86750055  0.58004789  1
  O  O64  1  0.51234526  0.64841718  0.58102054  1
  O  O65  1  0.12995835  0.49395711  0.58035078  1
  O  O66  1  0.31799075  0.83370116  0.25702535  1
  O  O67  1  0.52016779  0.68683346  0.25537158  1
  O  O68  1  0.17003407  0.47962154  0.25689779  1
  O  O69  1  0.31352027  0.47177568  0.74989118  1
  O  O70  1  0.15570456  0.67980484  0.74969831  1
  O  O71  1  0.53062117  0.83793520  0.74977039  1
loop_
_geom_bond_atom_site_label_1
_geom_bond_atom_site_label_2
_geom_bond_distance
_geom_bond_site_symmetry_2
Na0 O44 2.523725 1_445
Na0 O43 2.528316 1_555
Na0 O42 2.545798 1_455
Na0 O37 2.572231 1_445
Na0 O36 2.588801 1_545
Na0 O38 2.604057 1_555
Na1 O39 2.503813 1_664
Na1 O40 2.525964 1_654
Na1 O41 2.534419 1_554
Na1 O45 2.572907 1_555
Na1 O47 2.585781 1_665
Na1 O46 2.594621 1_565
Na2 O56 2.468652 1_555
Na2 O49 2.506244 1_555
Na2 O54 2.510350 1_555
Na2 O48 2.596648 1_555
Na2 O55 2.608772 1_555
Na2 O50 2.637383 1_555
Na3 O59 2.474434 1_555
Na3 O58 2.514766 1_555
Na3 O51 2.523871 1_555
Na3 O57 2.582721 1_555
Na3 O52 2.601129 1_555
Na3 O53 2.662635 1_555
Na4 O67 2.478344 1_555
Na4 O60 2.478980 1_555
Na4 O66 2.489554 1_555
Na4 O68 2.493284 1_555
Na4 O61 2.495112 1_555
Na4 O62 2.495385 1_555
Na5 O70 2.459512 1_555
Na5 O69 2.466767 1_555
Na5 O71 2.468752 1_555
Na5 O64 2.507521 1_555
Na5 O65 2.527011 1_555
Na5 O63 2.532922 1_555
Na6 O67 2.410021 1_555
Na6 O52 2.430127 1_565
Na6 O53 2.434467 1_565
Na6 O66 2.436611 1_555
Na6 O16 2.668251 1_565
Na6 O31 2.692756 1_555
Na6 O2 2.758648 1_565
Na6 O9 2.780665 1_555
Na7 O68 2.401841 1_555
Na7 O51 2.409148 1_555
Na7 O53 2.450449 1_555
Na7 O67 2.473100 1_555
Na7 O17 2.592828 1_555
Na7 O32 2.620980 1_555
Na7 O0 2.758010 1_555
Na7 O10 2.806718 1_555
Na8 O50 2.380650 1_555
Na8 O71 2.396402 1_555
Na8 O49 2.448710 1_555
Na8 O69 2.456749 1_555
Na8 O35 2.595755 1_555
Na8 O14 2.603823 1_555
Na8 O4 2.765364 1_555
Na8 O6 2.901616 1_555
Na9 O48 2.373380 1_455
Na9 O70 2.403429 1_555
Na9 O69 2.425916 1_555
Na9 O50 2.494130 1_455
Na9 O12 2.670097 1_455
Na9 O33 2.679854 1_555
Na9 O5 2.750253 1_455
Na9 O7 2.855220 1_555
Na10 O44 2.336097 1_455
Na10 O65 2.364041 1_555
Na10 O63 2.465516 1_555
Na10 O43 2.487246 1_565
Na10 O29 2.615949 1_555
Na10 O8 2.620212 1_555
Na10 O22 2.797198 1_455
Na10 O12 2.900863 1_455
Na11 O42 2.327664 1_565
Na11 O63 2.393929 1_555
Na11 O64 2.416405 1_555
Na11 O44 2.534948 1_555
Na11 O27 2.625880 1_555
Na11 O6 2.655378 1_555
Na11 O23 2.812404 1_565
Na11 O13 2.856144 1_565
Na12 O47 2.383985 1_565
Na12 O62 2.400150 1_555
Na12 O61 2.447755 1_555
Na12 O45 2.458762 1_455
Na12 O26 2.618778 1_554
Na12 O11 2.633729 1_555
Na12 O18 2.706344 1_565
Na12 O16 2.899474 1_565
Na13 O46 2.364507 1_455
Na13 O60 2.400718 1_555
Na13 O61 2.424152 1_555
Na13 O47 2.503591 1_555
Na13 O25 2.637569 1_554
Na13 O10 2.666075 1_555
Na13 O20 2.750029 1_455
Na13 O15 2.847721 1_455
Na14 O40 2.376027 1_655
Na14 O55 2.402280 1_555
Na14 O54 2.414461 1_555
Na14 O41 2.469235 1_555
Na14 O19 2.610002 1_556
Na14 O4 2.712867 1_555
Na14 O33 2.846296 1_655
Na14 O26 2.873371 1_655
Na15 O56 2.386772 1_555
Na15 O41 2.406901 1_545
Na15 O39 2.409724 1_655
Na15 O55 2.476523 1_555
Na15 O20 2.693025 1_556
Na15 O5 2.697316 1_555
Na15 O24 2.783225 1_545
Na15 O34 2.809026 1_545
Na16 O59 2.345763 1_555
Na16 O37 2.377818 1_545
Na16 O38 2.444031 1_655
Na16 O57 2.540728 1_555
Na16 O2 2.661422 1_555
Na16 O23 2.704599 1_555
Na16 O30 2.767393 1_655
Na16 O28 2.784052 1_655
Na17 O57 2.350465 1_555
Na17 O36 2.403838 1_545
Na17 O38 2.422038 1_555
Na17 O58 2.488812 1_555
Na17 O21 2.620907 1_555
Na17 O0 2.687091 1_555
Na17 O31 2.830618 1_545
Na17 O29 2.864944 1_545
Al0 O7 1.845131 1_555
Al0 O8 1.907902 1_545
Al0 O6 1.922737 1_445
Al0 O43 1.959557 1_555
Al0 O42 1.990827 1_455
Al0 O44 2.050063 1_445
Al1 O9 1.874103 1_555
Al1 O45 1.925548 1_555
Al1 O11 1.942944 1_655
Al1 O46 1.948032 1_565
Al1 O10 1.973496 1_665
Al1 O47 1.985111 1_665
Al2 O13 1.840806 1_555
Al2 O14 1.884486 1_555
Al2 O12 1.898334 1_555
Al2 O49 1.918324 1_555
Al2 O48 1.945730 1_555
Al2 O50 2.001350 1_555
Al3 O15 1.849748 1_555
Al3 O17 1.898745 1_555
Al3 O16 1.912073 1_555
Al3 O51 1.931115 1_555
Al3 O52 1.952053 1_555
Al3 O53 2.019746 1_555
Al4 O22 1.875333 1_555
Al4 O21 1.924784 1_555
Al4 O23 1.963885 1_555
Al4 O58 1.981864 1_555
Al4 O59 2.004665 1_555
Al4 O57 2.077118 1_555
Al5 O30 1.900232 1_555
Al5 O32 1.937400 1_555
Al5 O31 1.957866 1_555
Al5 O68 1.998058 1_555
Al5 O66 2.004401 1_555
Al5 O67 2.084891 1_555
O0 P0 1.546508 1_545
O0 Sc0 2.072685 1_445
O1 P1 1.535172 1_555
O1 Sc0 1.990832 1_555
O2 P2 1.552043 1_555
O2 Sc0 2.090606 1_545
O3 P3 1.535106 1_555
O3 Sc1 1.992145 1_555
O4 P4 1.546703 1_555
O4 Sc1 2.077567 1_665
O5 P5 1.552597 1_555
O5 Sc1 2.089910 1_655
O6 P5 1.555098 1_565
O7 P3 1.541271 1_555
O8 P4 1.543444 1_455
O9 P1 1.549156 1_555
O10 P2 1.562336 1_455
O11 P0 1.549220 1_555
O12 P6 1.548566 1_555
O13 P7 1.535945 1_555
O14 P8 1.537587 1_555
O15 P9 1.533810 1_555
O16 P10 1.548048 1_555
O17 P11 1.533512 1_555
O18 P11 1.544598 1_555
O18 Sc2 2.016263 1_554
O19 P9 1.548546 1_555
O19 Sc2 2.059013 1_554
O20 P10 1.556666 1_555
O20 Sc2 2.094410 1_554
O21 P7 1.555031 1_555
O22 P8 1.548372 1_555
O23 P6 1.563326 1_555
O24 P12 1.535908 1_555
O24 Sc3 2.000114 1_556
O25 P13 1.536914 1_555
O25 Sc3 2.052252 1_556
O26 P14 1.545772 1_555
O26 Sc3 2.067713 1_556
O27 P15 1.539228 1_555
O27 Sc4 2.041321 1_555
O28 P16 1.539744 1_555
O28 Sc4 1.983841 1_555
O29 P17 1.549587 1_555
O29 Sc4 2.058103 1_555
O30 P17 1.557586 1_555
O31 P15 1.561403 1_555
O32 P16 1.554204 1_555
O33 P13 1.549256 1_555
O33 Sc5 2.061416 1_555
O34 P14 1.545450 1_555
O34 Sc5 2.002016 1_555
O35 P12 1.541815 1_555
O35 Sc5 2.047890 1_555
O36 P17 1.543901 1_555
O36 Sc0 2.084192 1_455
O37 P15 1.546107 1_555
O37 Sc0 2.100309 1_555
O38 P16 1.565176 1_555
O38 Sc0 2.160974 1_445
O39 P13 1.537532 1_555
O39 Sc1 2.097163 1_555
O40 P14 1.535524 1_555
O40 Sc1 2.088256 1_565
O41 P12 1.552414 1_555
O41 Sc1 2.148780 1_665
O42 P6 1.560714 1_555
O43 P7 1.561904 1_555
O44 P8 1.582246 1_555
O45 P9 1.552372 1_555
O46 P10 1.552458 1_555
O47 P11 1.571195 1_555
O48 P5 1.548826 1_555
O49 P3 1.548153 1_555
O50 P4 1.568857 1_555
O51 P1 1.551442 1_555
O52 P2 1.552359 1_555
O53 P0 1.574209 1_545
O54 P12 1.539387 1_555
O54 Sc2 2.084911 1_555
O55 P13 1.556626 1_655
O55 Sc2 2.148187 1_555
O56 P14 1.539256 1_545
O56 Sc2 2.096077 1_555
O57 P15 1.574578 1_545
O58 P16 1.554246 1_555
O59 P17 1.557634 1_655
O60 P11 1.543492 1_555
O60 Sc3 2.108428 1_555
O61 P9 1.566726 1_455
O61 Sc3 2.184251 1_555
O62 P10 1.544663 1_565
O62 Sc3 2.119862 1_555
O63 P7 1.572936 1_565
O63 Sc4 2.177184 1_555
O64 P8 1.550282 1_555
O64 Sc4 2.101704 1_555
O65 P6 1.550015 1_455
O65 Sc4 2.116387 1_555
O66 P0 1.559996 1_555
O67 P1 1.579057 1_555
O68 P2 1.560077 1_455
O69 P3 1.568529 1_555
O69 Sc5 2.167836 1_555
O70 P4 1.549137 1_455
O70 Sc5 2.121200 1_555
O71 P5 1.547644 1_565
O71 Sc5 2.119716 1_555
