# generated using pymatgen
data_Na2HfMgSi(SO6)2
_symmetry_space_group_name_H-M   'P 1'
_cell_length_a   8.96927672
_cell_length_b   8.96208075
_cell_length_c   22.71793515
_cell_angle_alpha   89.73813477
_cell_angle_beta   90.00000000
_cell_angle_gamma   120.02656444
_symmetry_Int_Tables_number   1
_chemical_formula_structural   Na2HfMgSi(SO6)2
_chemical_formula_sum   'Na12 Hf6 Mg6 Si6 S12 O72'
_cell_volume   1581.04196454
_cell_formula_units_Z   6
loop_
 _symmetry_equiv_pos_site_id
 _symmetry_equiv_pos_as_xyz
  1  'x, y, z'
loop_
 _atom_site_type_symbol
 _atom_site_label
 _atom_site_symmetry_multiplicity
 _atom_site_fract_x
 _atom_site_fract_y
 _atom_site_fract_z
 _atom_site_occupancy
  Na  Na0  1  0.99957028  0.63731081  0.23767743  1
  Na  Na1  1  0.63774053  0.63731081  0.73767743  1
  Na  Na2  1  0.65395579  0.95375830  0.57498638  1
  Na  Na3  1  0.29980350  0.95375830  0.07498638  1
  Na  Na4  1  0.69032320  0.02586072  0.90572985  1
  Na  Na5  1  0.33553652  0.02586072  0.40572985  1
  Na  Na6  1  0.97087816  0.98303475  0.49195924  1
  Na  Na7  1  0.01215659  0.98303475  0.99195924  1
  Na  Na8  1  0.65273816  0.30304663  0.82577641  1
  Na  Na9  1  0.65030947  0.30304663  0.32577641  1
  Na  Na10  1  0.32476594  0.65648267  0.16038399  1
  Na  Na11  1  0.33171572  0.65648267  0.66038399  1
  Hf  Hf0  1  0.99176096  0.99353010  0.64746784  1
  Hf  Hf1  1  0.00176914  0.99353010  0.14746784  1
  Hf  Hf2  1  0.67150208  0.34261834  0.98094122  1
  Hf  Hf3  1  0.67111726  0.34261834  0.48094122  1
  Hf  Hf4  1  0.34664734  0.68393432  0.31444683  1
  Hf  Hf5  1  0.33728598  0.68393432  0.81444683  1
  Mg  Mg0  1  0.99777587  0.00564794  0.35169492  1
  Mg  Mg1  1  0.00787207  0.00564794  0.85169492  1
  Mg  Mg2  1  0.66442812  0.32691851  0.68522283  1
  Mg  Mg3  1  0.66249139  0.32691851  0.18522283  1
  Mg  Mg4  1  0.31344645  0.66579717  0.01830952  1
  Mg  Mg5  1  0.35234971  0.66579717  0.51830952  1
  Si  Si0  1  0.30077605  0.01109696  0.25429321  1
  Si  Si1  1  0.71032092  0.01109696  0.75429321  1
  Si  Si2  1  0.65896802  0.62173262  0.58943262  1
  Si  Si3  1  0.96276560  0.62173262  0.08943262  1
  Si  Si4  1  0.32625817  0.96676533  0.92108500  1
  Si  Si5  1  0.64050617  0.96676533  0.42108500  1
  S  S0  1  0.70810950  0.70792911  0.25161942  1
  S  S1  1  0.99947518  0.29154743  0.25124973  1
  S  S2  1  0.29207225  0.29154743  0.75124973  1
  S  S3  1  -0.00018038  0.70792911  0.75161942  1
  S  S4  1  0.96218905  0.33961849  0.58428187  1
  S  S5  1  0.37294964  0.04226859  0.58317300  1
  S  S6  1  0.66931995  0.04226859  0.08317300  1
  S  S7  1  0.37743044  0.33961849  0.08428187  1
  S  S8  1  0.61941466  0.66447780  0.91791558  1
  S  S9  1  0.04370036  0.37459664  0.91824010  1
  S  S10  1  0.33089528  0.37459664  0.41824010  1
  S  S11  1  0.04506214  0.66447780  0.41791558  1
  O  O0  1  0.20591643  0.01871234  0.31335832  1
  O  O1  1  0.81391357  0.79458010  0.30287505  1
  O  O2  1  0.97943768  0.18788522  0.30345110  1
  O  O3  1  0.20844754  0.18788522  0.80345110  1
  O  O4  1  0.98066652  0.79458010  0.80287505  1
  O  O5  1  0.81279591  0.01871234  0.81335832  1
  O  O6  1  0.80535966  0.97427038  0.69591332  1
  O  O7  1  0.19140621  0.20946250  0.69662878  1
  O  O8  1  0.03179826  0.81639315  0.69702452  1
  O  O9  1  0.78459489  0.81639315  0.19702452  1
  O  O10  1  0.01805628  0.20946250  0.19662878  1
  O  O11  1  0.16891072  0.97427038  0.19591332  1
  O  O12  1  0.87958102  0.35717048  0.63673662  1
  O  O13  1  0.48710970  0.12422457  0.63333944  1
  O  O14  1  0.65145718  0.52128831  0.64881349  1
  O  O15  1  0.86983213  0.52128831  0.14881349  1
  O  O16  1  0.63711588  0.12422457  0.13333944  1
  O  O17  1  0.47759046  0.35717048  0.13673662  1
  O  O18  1  0.45442386  0.30030667  0.03116823  1
  O  O19  1  0.83982643  0.52453163  0.03105837  1
  O  O20  1  0.69067461  0.14429819  0.02754410  1
  O  O21  1  0.45362458  0.14429819  0.52754410  1
  O  O22  1  0.68470620  0.52453163  0.53105837  1
  O  O23  1  0.84588380  0.30030667  0.53116823  1
  O  O24  1  0.52826060  0.68062130  0.96851172  1
  O  O25  1  0.14615407  0.45572074  0.97055015  1
  O  O26  1  0.31612489  0.86398014  0.98049582  1
  O  O27  1  0.54785425  0.86398014  0.48049582  1
  O  O28  1  0.30956567  0.45572074  0.47055015  1
  O  O29  1  0.15235969  0.68062130  0.46851172  1
  O  O30  1  0.12052323  0.63761829  0.36233022  1
  O  O31  1  0.50315225  0.86706399  0.36400670  1
  O  O32  1  0.35220472  0.47735007  0.36397507  1
  O  O33  1  0.12514435  0.47735007  0.86397507  1
  O  O34  1  0.36391074  0.86706399  0.86400670  1
  O  O35  1  0.51709405  0.63761829  0.86233022  1
  O  O36  1  0.02953828  0.81990455  0.41271595  1
  O  O37  1  0.82697572  0.98985055  0.41006181  1
  O  O38  1  0.18627035  0.19735865  0.41318257  1
  O  O39  1  0.01108830  0.19735865  0.91318257  1
  O  O40  1  0.16287483  0.98985055  0.91006181  1
  O  O41  1  0.79036628  0.81990455  0.91271595  1
  O  O42  1  0.97823138  0.17882204  0.58892150  1
  O  O43  1  0.20472305  0.03664858  0.58916419  1
  O  O44  1  0.83942003  0.82282371  0.58901249  1
  O  O45  1  0.98340368  0.82282371  0.08901249  1
  O  O46  1  0.83192553  0.03664858  0.08916419  1
  O  O47  1  0.20059067  0.17882204  0.08892150  1
  O  O48  1  0.68026781  0.17039869  0.74352347  1
  O  O49  1  0.46899412  0.32100239  0.74660214  1
  O  O50  1  0.84550007  0.53821799  0.74550209  1
  O  O51  1  0.69271891  0.53821799  0.24550209  1
  O  O52  1  0.85200926  0.32100239  0.24660214  1
  O  O53  1  0.49013188  0.17039869  0.24352347  1
  O  O54  1  0.64039994  0.50881499  0.92207427  1
  O  O55  1  0.86755705  0.36089180  0.92201916  1
  O  O56  1  0.51487007  0.15518369  0.92222126  1
  O  O57  1  0.64031462  0.15518369  0.42222126  1
  O  O58  1  0.49333576  0.36089180  0.42201916  1
  O  O59  1  0.86841606  0.50881499  0.42207427  1
  O  O60  1  0.35794949  0.48973757  0.07451312  1
  O  O61  1  0.15690126  0.65393250  0.08292125  1
  O  O62  1  0.52298843  0.86581788  0.07729816  1
  O  O63  1  0.34282845  0.86581788  0.57729816  1
  O  O64  1  0.49703023  0.65393250  0.58292125  1
  O  O65  1  0.13178709  0.48973757  0.57451312  1
  O  O66  1  0.30217112  0.82031907  0.25562968  1
  O  O67  1  0.53077219  0.68527483  0.25608097  1
  O  O68  1  0.16064777  0.46624923  0.25488790  1
  O  O69  1  0.30560047  0.46624923  0.75488790  1
  O  O70  1  0.15450164  0.68527483  0.75608097  1
  O  O71  1  0.51814694  0.82031907  0.75562968  1
loop_
_geom_bond_atom_site_label_1
_geom_bond_atom_site_label_2
_geom_bond_distance
_geom_bond_site_symmetry_2
Na0 O15 2.306319 1_555
Na0 O66 2.402874 1_655
Na0 O51 2.438744 1_555
Na0 O52 2.463462 1_555
Na0 O68 2.608000 1_655
Na0 O11 2.776703 1_655
Na1 O14 2.306321 1_555
Na1 O71 2.402881 1_555
Na1 O50 2.438753 1_555
Na1 O49 2.463462 1_555
Na1 O69 2.608007 1_555
Na1 O6 2.776703 1_555
Na2 O27 2.326053 1_555
Na2 O64 2.333314 1_555
Na2 O44 2.489143 1_555
Na2 O63 2.491946 1_555
Na2 O42 2.600514 1_565
Na2 O23 2.867275 1_565
Na2 O13 2.938946 1_565
Na2 O6 3.029827 1_555
Na3 O26 2.326048 1_554
Na3 O61 2.333314 1_555
Na3 O45 2.489151 1_455
Na3 O62 2.491929 1_555
Na3 O47 2.600521 1_565
Na3 O18 2.867275 1_565
Na3 O16 2.938946 1_565
Na3 O11 3.029831 1_555
Na4 O5 2.384557 1_555
Na4 O56 2.406135 1_555
Na4 O41 2.427392 1_545
Na4 O39 2.499034 1_655
Na4 O55 2.629196 1_555
Na4 O34 2.708798 1_545
Na5 O0 2.384552 1_555
Na5 O57 2.406151 1_555
Na5 O36 2.427386 1_545
Na5 O38 2.499026 1_555
Na5 O58 2.629196 1_555
Na5 O31 2.708798 1_545
Na6 O37 2.282349 1_555
Na6 O36 2.539486 1_655
Na6 O44 2.567087 1_555
Na6 O38 2.622849 1_665
Na6 O42 2.802668 1_565
Na6 O43 2.916798 1_665
Na7 O40 2.282349 1_555
Na7 O41 2.539485 1_455
Na7 O45 2.567087 1_456
Na7 O39 2.622849 1_565
Na7 O47 2.802668 1_566
Na7 O46 2.916798 1_466
Na8 O48 2.297832 1_555
Na8 O49 2.497994 1_555
Na8 O56 2.533625 1_555
Na8 O50 2.659897 1_555
Na8 O55 2.787902 1_555
Na8 O54 2.905185 1_555
Na9 O53 2.297832 1_555
Na9 O52 2.497994 1_555
Na9 O57 2.533625 1_555
Na9 O51 2.659897 1_555
Na9 O58 2.787902 1_555
Na9 O59 2.905185 1_555
Na10 O61 2.308729 1_555
Na10 O60 2.568891 1_555
Na10 O62 2.621621 1_555
Na10 O68 2.671649 1_555
Na10 O66 2.684369 1_555
Na10 O67 2.781201 1_555
Na11 O64 2.308729 1_555
Na11 O65 2.568891 1_555
Na11 O63 2.621621 1_555
Na11 O69 2.671649 1_555
Na11 O71 2.684369 1_555
Na11 O70 2.781201 1_555
Hf0 O6 1.935387 1_555
Hf0 O44 1.974230 1_555
Hf0 O8 2.114439 1_655
Hf0 O42 2.173212 1_565
Hf0 O7 2.179564 1_665
Hf0 O43 2.192915 1_665
Hf1 O11 1.935387 1_555
Hf1 O45 1.974230 1_455
Hf1 O9 2.114439 1_455
Hf1 O47 2.173212 1_565
Hf1 O10 2.179564 1_565
Hf1 O46 2.192915 1_465
Hf2 O19 1.946078 1_556
Hf2 O56 2.057580 1_555
Hf2 O54 2.117176 1_555
Hf2 O18 2.119877 1_556
Hf2 O20 2.144332 1_556
Hf2 O55 2.149568 1_555
Hf3 O22 1.946078 1_555
Hf3 O57 2.057580 1_555
Hf3 O59 2.117176 1_555
Hf3 O23 2.119876 1_555
Hf3 O21 2.144332 1_555
Hf3 O58 2.149568 1_555
Hf4 O31 1.908646 1_555
Hf4 O66 1.977785 1_555
Hf4 O67 2.113204 1_555
Hf4 O30 2.149984 1_555
Hf4 O32 2.183942 1_555
Hf4 O68 2.277460 1_555
Hf5 O34 1.908646 1_555
Hf5 O71 1.977785 1_555
Hf5 O70 2.113204 1_555
Hf5 O35 2.149984 1_555
Hf5 O33 2.183942 1_555
Hf5 O69 2.277460 1_555
Mg0 O37 1.976451 1_545
Mg0 O0 2.009413 1_655
Mg0 O2 2.036708 1_555
Mg0 O1 2.103573 1_545
Mg0 O38 2.208253 1_655
Mg0 O36 2.286369 1_645
Mg1 O40 1.976451 1_545
Mg1 O5 2.009413 1_455
Mg1 O3 2.036708 1_555
Mg1 O4 2.103573 1_445
Mg1 O39 2.208253 1_555
Mg1 O41 2.286369 1_445
Mg2 O14 1.980347 1_555
Mg2 O48 1.981050 1_555
Mg2 O13 2.084892 1_555
Mg2 O12 2.117657 1_555
Mg2 O49 2.219497 1_555
Mg2 O50 2.246048 1_555
Mg3 O15 1.980347 1_555
Mg3 O53 1.981050 1_555
Mg3 O16 2.084892 1_555
Mg3 O17 2.117657 1_555
Mg3 O52 2.219497 1_555
Mg3 O51 2.246048 1_555
Mg4 O26 1.958708 1_554
Mg4 O61 1.996626 1_555
Mg4 O25 2.040766 1_554
Mg4 O24 2.179959 1_554
Mg4 O60 2.211600 1_555
Mg4 O62 2.278541 1_555
Mg5 O27 1.958708 1_555
Mg5 O64 1.996626 1_555
Mg5 O28 2.040766 1_555
Mg5 O29 2.179959 1_555
Mg5 O65 2.211600 1_555
Mg5 O63 2.278541 1_555
O0 Si0 1.608737 1_555
O1 S0 1.459533 1_555
O2 S1 1.457601 1_555
O3 S2 1.457601 1_555
O4 S3 1.459533 1_655
O5 Si1 1.608737 1_555
O6 Si1 1.697092 1_565
O7 S2 1.496588 1_555
O8 S3 1.508450 1_555
O9 S0 1.508450 1_555
O10 S1 1.496588 1_455
O11 Si0 1.697092 1_565
O12 S4 1.453323 1_555
O13 S5 1.463476 1_555
O14 Si2 1.600912 1_555
O15 Si3 1.600912 1_555
O16 S6 1.463476 1_555
O17 S7 1.453323 1_555
O18 S7 1.518013 1_555
O19 Si3 1.668120 1_555
O20 S6 1.511320 1_555
O21 S5 1.511320 1_555
O22 Si2 1.668120 1_555
O23 S4 1.518013 1_555
O24 S8 1.459621 1_555
O25 S9 1.457576 1_555
O26 Si4 1.607272 1_555
O27 Si5 1.607272 1_555
O28 S10 1.457576 1_555
O29 S11 1.459621 1_555
O30 S11 1.508809 1_555
O31 Si5 1.704840 1_555
O32 S10 1.489228 1_555
O33 S9 1.489228 1_555
O34 Si4 1.704840 1_555
O35 S8 1.508809 1_555
O36 S11 1.471817 1_555
O37 Si5 1.598745 1_555
O38 S10 1.469185 1_555
O39 S9 1.469188 1_555
O40 Si4 1.598736 1_555
O41 S8 1.471822 1_555
O42 S4 1.521391 1_555
O43 S5 1.490514 1_555
O44 Si2 1.717039 1_555
O45 Si3 1.717042 1_555
O46 S6 1.490505 1_555
O47 S7 1.521396 1_555
O48 Si1 1.597726 1_555
O49 S2 1.476304 1_555
O50 S3 1.464069 1_655
O51 S0 1.464073 1_555
O52 S1 1.476295 1_555
O53 Si0 1.597732 1_555
O54 S8 1.500714 1_555
O55 S9 1.524524 1_655
O56 Si4 1.689805 1_545
O57 Si5 1.689796 1_545
O58 S10 1.524542 1_555
O59 S11 1.500703 1_655
O60 S7 1.456834 1_555
O61 Si3 1.622914 1_455
O62 S6 1.471698 1_565
O63 S5 1.471691 1_565
O64 Si2 1.622932 1_555
O65 S4 1.456823 1_455
O66 Si0 1.716193 1_565
O67 S0 1.502691 1_555
O68 S1 1.511286 1_455
O69 S2 1.511290 1_555
O70 S3 1.502682 1_555
O71 Si1 1.716197 1_565
