# generated using pymatgen
data_Dy2O3
_symmetry_space_group_name_H-M   'P 1'
_cell_length_a   9.17498665
_cell_length_b   9.17498733
_cell_length_c   9.17498716
_cell_angle_alpha   109.47122023
_cell_angle_beta   109.47122174
_cell_angle_gamma   109.47121798
_symmetry_Int_Tables_number   1
_chemical_formula_structural   Dy2O3
_chemical_formula_sum   'Dy16 O24'
_cell_volume   594.55837255
_cell_formula_units_Z   8
loop_
 _symmetry_equiv_pos_site_id
 _symmetry_equiv_pos_as_xyz
  1  'x, y, z'
loop_
 _atom_site_type_symbol
 _atom_site_label
 _atom_site_symmetry_multiplicity
 _atom_site_fract_x
 _atom_site_fract_y
 _atom_site_fract_z
 _atom_site_occupancy
  Dy  Dy0  1  0.25000000  0.71771606  0.46771606  1
  Dy  Dy1  1  0.03228394  0.75000000  0.78228394  1
  Dy  Dy2  1  0.78228394  0.03228394  0.75000000  1
  Dy  Dy3  1  0.46771606  0.25000000  0.71771606  1
  Dy  Dy4  1  0.71771606  0.46771606  0.25000000  1
  Dy  Dy5  1  0.75000000  0.78228394  0.03228394  1
  Dy  Dy6  1  0.75000000  0.28228394  0.53228394  1
  Dy  Dy7  1  0.96771606  0.25000000  0.21771606  1
  Dy  Dy8  1  0.21771606  0.96771606  0.25000000  1
  Dy  Dy9  1  0.53228394  0.75000000  0.28228394  1
  Dy  Dy10  1  0.28228394  0.53228394  0.75000000  1
  Dy  Dy11  1  0.25000000  0.21771606  0.96771606  1
  Dy  Dy12  1  -0.00000000  0.50000000  0.00000000  1
  Dy  Dy13  1  0.50000000  -0.00000000  0.00000000  1
  Dy  Dy14  1  -0.00000000  -0.00000000  0.50000000  1
  Dy  Dy15  1  0.50000000  0.50000000  0.50000000  1
  O  O0  1  0.03093747  0.48823913  0.76033541  1
  O  O1  1  0.22790373  0.27060106  0.73966459  1
  O  O2  1  0.27209627  0.01176087  0.04269733  1
  O  O3  1  0.22939894  0.45730267  0.46906253  1
  O  O4  1  0.45730267  0.46906253  0.22939894  1
  O  O5  1  0.76033541  0.03093747  0.48823913  1
  O  O6  1  0.27060106  0.73966459  0.22790373  1
  O  O7  1  0.04269733  0.27209627  0.01176087  1
  O  O8  1  0.48823913  0.76033541  0.03093747  1
  O  O9  1  0.73966459  0.22790373  0.27060106  1
  O  O10  1  0.01176087  0.04269733  0.27209627  1
  O  O11  1  0.46906253  0.22939894  0.45730267  1
  O  O12  1  0.96906253  0.51176087  0.23966459  1
  O  O13  1  0.77209627  0.72939894  0.26033541  1
  O  O14  1  0.72790373  0.98823913  0.95730267  1
  O  O15  1  0.77060106  0.54269733  0.53093747  1
  O  O16  1  0.53093747  0.77060106  0.54269733  1
  O  O17  1  0.98823913  0.95730267  0.72790373  1
  O  O18  1  0.26033541  0.77209627  0.72939894  1
  O  O19  1  0.51176087  0.23966459  0.96906253  1
  O  O20  1  0.95730267  0.72790373  0.98823913  1
  O  O21  1  0.72939894  0.26033541  0.77209627  1
  O  O22  1  0.23966459  0.96906253  0.51176087  1
  O  O23  1  0.54269733  0.53093747  0.77060106  1
loop_
_geom_bond_atom_site_label_1
_geom_bond_atom_site_label_2
_geom_bond_distance
_geom_bond_site_symmetry_2
Dy0 O22 2.245095 1_555
Dy0 O18 2.245104 1_555
Dy0 O12 2.261458 1_455
Dy0 O16 2.261462 1_555
Dy0 O3 2.337679 1_555
Dy0 O6 2.337683 1_555
Dy1 O15 2.245101 1_455
Dy1 O17 2.245104 1_455
Dy1 O18 2.261453 1_555
Dy1 O20 2.261453 1_455
Dy1 O2 2.337683 1_566
Dy1 O0 2.337686 1_555
Dy2 O16 2.245101 1_545
Dy2 O14 2.245104 1_545
Dy2 O17 2.261453 1_545
Dy2 O21 2.261453 1_555
Dy2 O7 2.337683 1_656
Dy2 O5 2.337686 1_555
Dy3 O19 2.245095 1_555
Dy3 O21 2.245104 1_555
Dy3 O22 2.261458 1_545
Dy3 O23 2.261462 1_555
Dy3 O11 2.337679 1_555
Dy3 O1 2.337683 1_555
Dy4 O12 2.245095 1_555
Dy4 O13 2.245104 1_555
Dy4 O19 2.261458 1_554
Dy4 O15 2.261462 1_555
Dy4 O4 2.337679 1_555
Dy4 O9 2.337683 1_555
Dy5 O23 2.245101 1_554
Dy5 O20 2.245104 1_554
Dy5 O14 2.261453 1_554
Dy5 O13 2.261453 1_555
Dy5 O10 2.337683 1_665
Dy5 O8 2.337686 1_555
Dy6 O5 2.245095 1_555
Dy6 O9 2.245104 1_555
Dy6 O0 2.261458 1_655
Dy6 O11 2.261462 1_555
Dy6 O15 2.337679 1_555
Dy6 O21 2.337683 1_555
Dy7 O3 2.245101 1_655
Dy7 O10 2.245104 1_655
Dy7 O9 2.261453 1_555
Dy7 O7 2.261453 1_655
Dy7 O14 2.337683 1_544
Dy7 O12 2.337686 1_555
Dy8 O11 2.245101 1_565
Dy8 O2 2.245104 1_565
Dy8 O10 2.261453 1_565
Dy8 O6 2.261453 1_555
Dy8 O20 2.337683 1_454
Dy8 O22 2.337686 1_555
Dy9 O8 2.245095 1_555
Dy9 O6 2.245104 1_555
Dy9 O5 2.261458 1_565
Dy9 O4 2.261462 1_555
Dy9 O16 2.337679 1_555
Dy9 O13 2.337683 1_555
Dy10 O0 2.245095 1_555
Dy10 O1 2.245104 1_555
Dy10 O8 2.261458 1_556
Dy10 O3 2.261462 1_555
Dy10 O23 2.337679 1_555
Dy10 O18 2.337683 1_555
Dy11 O4 2.245101 1_556
Dy11 O7 2.245104 1_556
Dy11 O2 2.261453 1_556
Dy11 O1 2.261453 1_555
Dy11 O17 2.337683 1_445
Dy11 O19 2.337686 1_555
Dy12 O6 2.281620 1_555
Dy12 O21 2.281620 1_454
Dy12 O20 2.281620 1_454
Dy12 O7 2.281620 1_555
Dy12 O0 2.281624 1_554
Dy12 O12 2.281624 1_455
Dy13 O14 2.281620 1_544
Dy13 O2 2.281620 1_555
Dy13 O18 2.281620 1_544
Dy13 O9 2.281620 1_555
Dy13 O8 2.281624 1_545
Dy13 O19 2.281624 1_554
Dy14 O17 2.281620 1_445
Dy14 O10 2.281620 1_555
Dy14 O1 2.281620 1_555
Dy14 O13 2.281620 1_445
Dy14 O5 2.281624 1_455
Dy14 O22 2.281624 1_545
Dy15 O15 2.281617 1_555
Dy15 O3 2.281617 1_555
Dy15 O23 2.281617 1_555
Dy15 O4 2.281617 1_555
Dy15 O16 2.281617 1_555
Dy15 O11 2.281617 1_555
