# generated using pymatgen
data_NaSc3TaP3(SO8)3
_symmetry_space_group_name_H-M   'P 1'
_cell_length_a   8.83931354
_cell_length_b   8.82140399
_cell_length_c   23.00846738
_cell_angle_alpha   90.17772068
_cell_angle_beta   90.00270107
_cell_angle_gamma   120.06971225
_symmetry_Int_Tables_number   1
_chemical_formula_structural   NaSc3TaP3(SO8)3
_chemical_formula_sum   'Na3 Sc9 Ta3 P9 S9 O72'
_cell_volume   1552.62378233
_cell_formula_units_Z   3
loop_
 _symmetry_equiv_pos_site_id
 _symmetry_equiv_pos_as_xyz
  1  'x, y, z'
loop_
 _atom_site_type_symbol
 _atom_site_label
 _atom_site_symmetry_multiplicity
 _atom_site_fract_x
 _atom_site_fract_y
 _atom_site_fract_z
 _atom_site_occupancy
  Na  Na0  1  0.00129073  0.00945394  0.99965885  1
  Na  Na1  1  0.67535890  0.33864289  0.83390970  1
  Na  Na2  1  0.66448650  0.33785114  0.33611242  1
  Sc  Sc0  1  0.99830015  0.99703052  0.35672206  1
  Sc  Sc1  1  0.99795116  0.99968617  0.85388923  1
  Sc  Sc2  1  0.99131507  0.99986829  0.14621215  1
  Sc  Sc3  1  0.67242075  0.33833749  0.68391116  1
  Sc  Sc4  1  0.66786951  0.32591227  0.97989230  1
  Sc  Sc5  1  0.66121865  0.33315625  0.48365672  1
  Sc  Sc6  1  0.33392639  0.65803717  0.02295491  1
  Sc  Sc7  1  0.34250054  0.66113499  0.31117244  1
  Sc  Sc8  1  0.31726113  0.65994491  0.81155318  1
  Ta  Ta0  1  0.00259749  0.99448728  0.64388361  1
  Ta  Ta1  1  0.65895110  0.33281463  0.18391479  1
  Ta  Ta2  1  0.32973700  0.65739393  0.52364627  1
  P  P0  1  0.71373690  0.71144283  0.25014747  1
  P  P1  1  0.99724633  0.70991741  0.75099091  1
  P  P2  1  0.95323842  0.32868342  0.58336161  1
  P  P3  1  0.37877304  0.04268102  0.58335486  1
  P  P4  1  0.66671015  0.62302805  0.58344500  1
  P  P5  1  0.66557051  0.04199970  0.08226922  1
  P  P6  1  0.37276776  0.32941796  0.08104178  1
  P  P7  1  0.04255914  0.37596586  0.91696173  1
  P  P8  1  0.33479030  0.37670741  0.41584405  1
  S  S0  1  0.28981526  0.99905047  0.24979369  1
  S  S1  1  0.99727752  0.29053248  0.25006604  1
  S  S2  1  0.28983429  0.28757343  0.74993543  1
  S  S3  1  0.71114767  0.99991077  0.74987170  1
  S  S4  1  0.95559620  0.62296553  0.08303227  1
  S  S5  1  0.62259116  0.66592573  0.91619338  1
  S  S6  1  0.33246842  0.95549487  0.91675911  1
  S  S7  1  0.61991593  0.95523980  0.41678207  1
  S  S8  1  0.04567917  0.66465047  0.41624133  1
  O  O0  1  0.21851028  0.03839094  0.30204820  1
  O  O1  1  0.82811479  0.78956232  0.30453904  1
  O  O2  1  0.96324913  0.18061391  0.30204483  1
  O  O3  1  0.20796760  0.17891253  0.80148414  1
  O  O4  1  0.96991552  0.79926578  0.80357393  1
  O  O5  1  0.82193595  0.03137973  0.80159908  1
  O  O6  1  0.80189042  0.97885158  0.69687021  1
  O  O7  1  0.17658413  0.19955077  0.69676400  1
  O  O8  1  0.01901607  0.83011589  0.69560728  1
  O  O9  1  0.79826952  0.81979019  0.19596835  1
  O  O10  1  0.02553064  0.21210693  0.19797888  1
  O  O11  1  0.18748735  0.97711508  0.19748556  1
  O  O12  1  0.88072787  0.36947299  0.63726971  1
  O  O13  1  0.48858278  0.11853177  0.63761815  1
  O  O14  1  0.62839265  0.51150504  0.63732341  1
  O  O15  1  0.86526693  0.50935970  0.13673523  1
  O  O16  1  0.64686254  0.14352364  0.13786238  1
  O  O17  1  0.49567723  0.35540830  0.13765760  1
  O  O18  1  0.46382671  0.30227395  0.02950437  1
  O  O19  1  0.84496978  0.54363343  0.03187077  1
  O  O20  1  0.70044514  0.16174275  0.03014927  1
  O  O21  1  0.45238157  0.15471846  0.52926485  1
  O  O22  1  0.70412195  0.54983282  0.52914856  1
  O  O23  1  0.84494127  0.29663298  0.52884831  1
  O  O24  1  0.54484491  0.69500833  0.96896135  1
  O  O25  1  0.15546856  0.46262407  0.97133890  1
  O  O26  1  0.30738440  0.85067993  0.96918918  1
  O  O27  1  0.53240092  0.84426027  0.46949876  1
  O  O28  1  0.31259783  0.47531040  0.47087026  1
  O  O29  1  0.15705930  0.68968599  0.46962022  1
  O  O30  1  0.12759778  0.63931164  0.36436816  1
  O  O31  1  0.51101957  0.87598883  0.36467297  1
  O  O32  1  0.36282822  0.49375341  0.36320254  1
  O  O33  1  0.12886621  0.48812204  0.86210084  1
  O  O34  1  0.36073035  0.87676964  0.86389849  1
  O  O35  1  0.51746084  0.64211512  0.86353587  1
  O  O36  1  0.03143405  0.82330972  0.41115288  1
  O  O37  1  0.79176229  0.96876573  0.41068356  1
  O  O38  1  0.16892193  0.19913717  0.40880099  1
  O  O39  1  0.02269721  0.19207146  0.90982554  1
  O  O40  1  0.17535436  0.97523167  0.91044681  1
  O  O41  1  0.80043658  0.82400233  0.91079887  1
  O  O42  1  0.98361368  0.17316009  0.59681453  1
  O  O43  1  0.19196748  0.01788527  0.59554082  1
  O  O44  1  0.82538892  0.81027992  0.59564768  1
  O  O45  1  0.97310476  0.79613303  0.09181834  1
  O  O46  1  0.82904535  0.02647414  0.09143099  1
  O  O47  1  0.19668052  0.16665756  0.09258461  1
  O  O48  1  0.69334030  0.15668135  0.74239067  1
  O  O49  1  0.46240574  0.30278943  0.74226252  1
  O  O50  1  0.83485134  0.52946737  0.74225254  1
  O  O51  1  0.69219198  0.52106873  0.23952153  1
  O  O52  1  0.83623369  0.30938737  0.24130947  1
  O  O53  1  0.47372458  0.16315823  0.24148414  1
  O  O54  1  0.64213296  0.50887615  0.92244217  1
  O  O55  1  0.85937593  0.35778410  0.92228912  1
  O  O56  1  0.48920897  0.13395097  0.92171577  1
  O  O57  1  0.64063287  0.13111146  0.42383511  1
  O  O58  1  0.49791768  0.36004374  0.42402860  1
  O  O59  1  0.87139307  0.50817718  0.42370049  1
  O  O60  1  0.36328062  0.49568459  0.07796812  1
  O  O61  1  0.12534658  0.63577286  0.07878385  1
  O  O62  1  0.50059782  0.86667579  0.07652590  1
  O  O63  1  0.34968746  0.85635042  0.56939357  1
  O  O64  1  0.50771290  0.65116636  0.57077223  1
  O  O65  1  0.14076574  0.49226239  0.57105646  1
  O  O66  1  0.31476507  0.84954379  0.25842501  1
  O  O67  1  0.53123091  0.68490647  0.25849730  1
  O  O68  1  0.14765114  0.46630248  0.25810091  1
  O  O69  1  0.30580248  0.46019565  0.75518075  1
  O  O70  1  0.16379688  0.69964766  0.75555739  1
  O  O71  1  0.54105021  0.84169318  0.75597168  1
loop_
_geom_bond_atom_site_label_1
_geom_bond_atom_site_label_2
_geom_bond_distance
_geom_bond_site_symmetry_2
Na0 O39 2.572617 1_555
Na0 O46 2.650781 1_456
Na0 O47 2.656788 1_556
Na0 O41 2.660231 1_445
Na0 O40 2.670890 1_545
Na0 O45 2.766674 1_446
Na1 O55 2.555706 1_555
Na1 O50 2.629206 1_555
Na1 O54 2.629401 1_555
Na1 O56 2.663648 1_555
Na1 O48 2.696395 1_555
Na1 O49 2.736539 1_555
Na2 O58 2.566050 1_555
Na2 O59 2.625049 1_555
Na2 O57 2.661164 1_555
Na2 O51 2.690164 1_555
Na2 O53 2.708019 1_555
Na2 O52 2.739453 1_555
O0 S0 1.476445 1_545
O0 Sc0 2.189945 1_445
O1 P0 1.536089 1_555
O1 Sc0 2.069126 1_555
O2 S1 1.475103 1_555
O2 Sc0 2.194705 1_545
O3 S2 1.470110 1_555
O3 Sc1 2.114371 1_445
O4 P1 1.525864 1_555
O4 Sc1 2.018820 1_555
O5 S3 1.475802 1_545
O5 Sc1 2.093836 1_545
O6 S3 1.520865 1_555
O6 Ta0 2.099722 1_655
O7 S2 1.522097 1_555
O7 Ta0 2.077531 1_545
O8 P1 1.609058 1_455
O8 Ta0 1.939429 1_555
O9 P0 1.522366 1_555
O9 Sc2 2.010203 1_555
O10 S1 1.464679 1_455
O10 Sc2 2.105734 1_445
O11 S0 1.458466 1_555
O11 Sc2 2.188365 1_455
O12 P2 1.518930 1_555
O12 Sc3 2.027970 1_555
O13 P3 1.514105 1_555
O13 Sc3 2.089103 1_555
O14 P4 1.514269 1_555
O14 Sc3 2.059085 1_555
O15 S4 1.540950 1_555
O15 Ta1 2.023403 1_555
O16 P5 1.614581 1_555
O16 Ta1 1.932005 1_555
O17 P6 1.636517 1_555
O17 Ta1 1.882766 1_555
O18 P6 1.517491 1_555
O18 Sc4 2.055299 1_554
O19 S4 1.463096 1_555
O19 Sc4 2.131260 1_554
O20 P5 1.526587 1_555
O20 Sc4 1.986345 1_554
O21 P3 1.520620 1_555
O21 Sc5 2.021169 1_555
O22 P4 1.515247 1_555
O22 Sc5 2.038129 1_555
O23 P2 1.515243 1_555
O23 Sc5 2.085313 1_555
O24 S5 1.478845 1_555
O24 Sc6 2.125794 1_556
O25 P7 1.541168 1_555
O25 Sc6 2.032844 1_556
O26 S6 1.469974 1_555
O26 Sc6 2.210389 1_556
O27 S7 1.508835 1_555
O27 Ta2 2.128925 1_555
O28 P8 1.600679 1_555
O28 Ta2 1.954859 1_555
O29 S8 1.518805 1_555
O29 Ta2 2.096144 1_555
O30 S8 1.469492 1_555
O30 Sc7 2.186044 1_555
O31 S7 1.474146 1_555
O31 Sc7 2.117199 1_555
O32 P8 1.531620 1_555
O32 Sc7 1.980504 1_555
O33 P7 1.551014 1_555
O33 Sc8 1.976081 1_555
O34 S6 1.480736 1_555
O34 Sc8 2.122683 1_555
O35 S5 1.475904 1_555
O35 Sc8 2.206066 1_555
O36 S8 1.471752 1_555
O36 Sc0 2.112887 1_455
O37 S7 1.469625 1_555
O37 Sc0 2.117227 1_555
O38 P8 1.525287 1_555
O38 Sc0 2.044764 1_445
O39 P7 1.549929 1_555
O39 Sc1 2.049106 1_445
O40 S6 1.490825 1_555
O40 Sc1 2.130605 1_455
O41 S5 1.495173 1_555
O41 Sc1 2.113256 1_555
O42 P2 1.556234 1_555
O42 Ta0 1.990192 1_645
O43 P3 1.578452 1_555
O43 Ta0 1.933162 1_545
O44 P4 1.565250 1_555
O44 Ta0 1.940052 1_655
O45 S4 1.469520 1_555
O45 Sc2 2.125646 1_555
O46 P5 1.532875 1_555
O46 Sc2 2.010014 1_545
O47 P6 1.522358 1_555
O47 Sc2 2.077861 1_445
O48 S3 1.478692 1_545
O48 Sc3 2.173202 1_555
O49 S2 1.473451 1_555
O49 Sc3 2.183234 1_555
O50 P1 1.530701 1_555
O50 Sc3 2.065421 1_555
O51 P0 1.610362 1_555
O51 Ta1 1.994714 1_555
O52 S1 1.527123 1_555
O52 Ta1 2.137357 1_555
O53 S0 1.555114 1_545
O53 Ta1 2.057184 1_555
O54 S5 1.486903 1_555
O54 Sc4 2.187500 1_555
O55 P7 1.549998 1_655
O55 Sc4 2.055903 1_555
O56 S6 1.491301 1_545
O56 Sc4 2.111654 1_555
O57 S7 1.476669 1_545
O57 Sc5 2.182662 1_555
O58 P8 1.532578 1_555
O58 Sc5 2.089745 1_555
O59 S8 1.476015 1_655
O59 Sc5 2.208451 1_555
O60 P6 1.512335 1_555
O60 Sc6 2.025892 1_555
O61 S4 1.450501 1_455
O61 Sc6 2.174113 1_555
O62 P5 1.508164 1_565
O62 Sc6 2.084630 1_555
O63 P3 1.563415 1_565
O63 Ta2 1.974252 1_555
O64 P4 1.572214 1_555
O64 Ta2 1.934022 1_555
O65 P2 1.586092 1_455
O65 Ta2 1.916693 1_555
O66 S0 1.456214 1_555
O66 Sc7 2.171676 1_555
O67 P0 1.521869 1_555
O67 Sc7 1.986732 1_555
O68 S1 1.462190 1_455
O68 Sc7 2.105185 1_555
O69 S2 1.461775 1_555
O69 Sc8 2.145793 1_555
O70 P1 1.523251 1_455
O70 Sc8 2.025205 1_555
O71 S3 1.458301 1_555
O71 Sc8 2.225703 1_555
