# generated using pymatgen
data_Pr3CoBr3
_symmetry_space_group_name_H-M   'P 1'
_cell_length_a   10.40407294
_cell_length_b   10.34548705
_cell_length_c   10.37441895
_cell_angle_alpha   109.39346784
_cell_angle_beta   109.68037493
_cell_angle_gamma   109.51088196
_symmetry_Int_Tables_number   1
_chemical_formula_structural   Pr3CoBr3
_chemical_formula_sum   'Pr12 Co4 Br12'
_cell_volume   857.77601923
_cell_formula_units_Z   4
loop_
 _symmetry_equiv_pos_site_id
 _symmetry_equiv_pos_as_xyz
  1  'x, y, z'
loop_
 _atom_site_type_symbol
 _atom_site_label
 _atom_site_symmetry_multiplicity
 _atom_site_fract_x
 _atom_site_fract_y
 _atom_site_fract_z
 _atom_site_occupancy
  Pr  Pr0  1  0.46736615  0.48219992  0.23170678  1
  Pr  Pr1  1  0.74966386  0.23384350  0.26822791  1
  Pr  Pr2  1  0.75070955  0.01915790  0.48497915  1
  Pr  Pr3  1  0.23169710  0.46339624  0.48169112  1
  Pr  Pr4  1  0.27254252  0.75025661  0.23015230  1
  Pr  Pr5  1  0.03303352  0.26496437  0.01542542  1
  Pr  Pr6  1  0.01883166  0.03766032  0.26882655  1
  Pr  Pr7  1  0.47771072  0.75024980  0.02009949  1
  Pr  Pr8  1  0.48418181  0.23386486  0.46561365  1
  Pr  Pr9  1  0.01483761  0.48221660  0.75050551  1
  Pr  Pr10  1  0.26844377  0.01917416  0.03418198  1
  Pr  Pr11  1  0.23192931  0.26496185  0.74955292  1
  Co  Co0  1  0.25269024  0.25056314  0.24740953  1
  Co  Co1  1  0.50158350  0.00317743  0.25158542  1
  Co  Co2  1  0.99786730  0.25056355  0.50315347  1
  Co  Co3  1  0.24796091  0.49592380  0.99796408  1
  Br  Br0  1  0.24762814  0.75382409  0.74110919  1
  Br  Br1  1  0.51104514  0.50564858  0.75613714  1
  Br  Br2  1  0.99003749  0.74766605  0.99709569  1
  Br  Br3  1  0.74182086  0.24982542  0.75768506  1
  Br  Br4  1  0.99136377  0.98271209  0.74135763  1
  Br  Br5  1  0.24984050  0.99252073  0.50341921  1
  Br  Br6  1  0.75808418  0.51617678  0.50809059  1
  Br  Br7  1  0.50803439  0.24984253  0.99216613  1
  Br  Br8  1  0.75759584  0.74763685  0.25058175  1
  Br  Br9  1  0.74266447  0.99246440  0.98905923  1
  Br  Br10  1  0.99461987  0.50568358  0.24950309  1
  Br  Br11  1  0.50621483  0.75382487  0.51272304  1
loop_
_geom_bond_atom_site_label_1
_geom_bond_atom_site_label_2
_geom_bond_distance
_geom_bond_site_symmetry_2
Co0 Pr10 2.764107 1_555
Co0 Pr0 2.772525 1_555
Co0 Pr5 2.792510 1_555
Co0 Pr8 2.796498 1_555
Co0 Pr3 2.815688 1_555
Co0 Pr6 2.816035 1_555
Co1 Pr4 2.768798 1_545
Co1 Pr7 2.768904 1_545
Co1 Pr1 2.774578 1_555
Co1 Pr8 2.774694 1_555
Co1 Pr2 2.798043 1_555
Co1 Pr10 2.798057 1_555
Co2 Pr2 2.764190 1_555
Co2 Pr9 2.772675 1_655
Co2 Pr11 2.792636 1_655
Co2 Pr1 2.796591 1_555
Co2 Pr3 2.815766 1_655
Co2 Pr6 2.816174 1_655
Co3 Pr7 2.777987 1_556
Co3 Pr4 2.778023 1_556
Co3 Pr11 2.780916 1_555
Co3 Pr5 2.780929 1_556
Co3 Pr0 2.797863 1_556
Co3 Pr9 2.797872 1_555
Br0 Pr9 3.092908 1_555
Br0 Pr7 3.093945 1_556
Br0 Pr3 3.208588 1_555
Br0 Pr10 3.231660 1_566
Br1 Pr3 3.081539 1_555
Br1 Pr11 3.092114 1_555
Br1 Pr8 3.216813 1_555
Br1 Pr7 3.262941 1_556
Br2 Pr10 3.086242 1_666
Br2 Pr4 3.098924 1_656
Br2 Pr6 3.201828 1_666
Br2 Pr9 3.225682 1_655
Br3 Pr2 3.089894 1_555
Br3 Pr9 3.090933 1_655
Br3 Pr8 3.208604 1_555
Br3 Pr5 3.209709 1_656
Br4 Pr11 3.099680 1_665
Br4 Pr5 3.099880 1_666
Br4 Pr10 3.208639 1_666
Br4 Pr2 3.208839 1_565
Br5 Pr6 3.079359 1_565
Br5 Pr8 3.091996 1_565
Br5 Pr11 3.223490 1_565
Br5 Pr4 3.240731 1_555
Br6 Pr8 3.095983 1_555
Br6 Pr1 3.096246 1_555
Br6 Pr0 3.205099 1_555
Br6 Pr9 3.205114 1_655
Br7 Pr10 3.089921 1_556
Br7 Pr0 3.090890 1_556
Br7 Pr1 3.208264 1_556
Br7 Pr11 3.209860 1_555
Br8 Pr2 3.086172 1_565
Br8 Pr7 3.098927 1_555
Br8 Pr6 3.202277 1_665
Br8 Pr0 3.225355 1_555
Br9 Pr6 3.079398 1_666
Br9 Pr1 3.092358 1_566
Br9 Pr5 3.223562 1_666
Br9 Pr7 3.240594 1_556
Br10 Pr3 3.081641 1_655
Br10 Pr5 3.092100 1_655
Br10 Pr1 3.217241 1_555
Br10 Pr4 3.262602 1_655
Br11 Pr0 3.092957 1_555
Br11 Pr4 3.094097 1_555
Br11 Pr3 3.208554 1_555
Br11 Pr2 3.231434 1_565
