# generated using pymatgen
data_Na14Ta5In3(SiO4)12
_symmetry_space_group_name_H-M   'P 1'
_cell_length_a   18.32223640
_cell_length_b   9.15660133
_cell_length_c   22.45602367
_cell_angle_alpha   90.03523423
_cell_angle_beta   89.91084999
_cell_angle_gamma   119.99890375
_symmetry_Int_Tables_number   1
_chemical_formula_structural   Na14Ta5In3(SiO4)12
_chemical_formula_sum   'Na42 Ta15 In9 Si36 O144'
_cell_volume   3262.72553057
_cell_formula_units_Z   3
loop_
 _symmetry_equiv_pos_site_id
 _symmetry_equiv_pos_as_xyz
  1  'x, y, z'
loop_
 _atom_site_type_symbol
 _atom_site_label
 _atom_site_symmetry_multiplicity
 _atom_site_fract_x
 _atom_site_fract_y
 _atom_site_fract_z
 _atom_site_occupancy
  Na  Na0  1  0.31995236  0.01435057  0.24730389  1
  Na  Na1  1  0.81667479  0.01088846  0.24516380  1
  Na  Na2  1  0.18908290  0.36728003  0.24515727  1
  Na  Na3  1  0.68714235  0.35989763  0.24734301  1
  Na  Na4  1  0.99465402  0.62063844  0.24615116  1
  Na  Na5  1  0.49208350  0.62610373  0.24669326  1
  Na  Na6  1  0.31651619  0.62255969  0.74650510  1
  Na  Na7  1  0.81628138  0.62222476  0.74684255  1
  Na  Na8  1  0.99436205  0.36724308  0.74704839  1
  Na  Na9  1  0.49417962  0.36688289  0.74678152  1
  Na  Na10  1  0.18961579  0.01085149  0.74663529  1
  Na  Na11  1  0.68917391  0.01063694  0.74662581  1
  Na  Na12  1  0.15417559  0.34925735  0.57963524  1
  Na  Na13  1  0.65306152  0.34780686  0.57970329  1
  Na  Na14  1  0.02065475  0.69326695  0.57958311  1
  Na  Na15  1  0.52020344  0.69251419  0.57962359  1
  Na  Na16  1  0.32547085  0.95739732  0.57926598  1
  Na  Na17  1  0.82635934  0.95966887  0.58062157  1
  Na  Na18  1  0.15457392  0.95945322  0.07975453  1
  Na  Na19  1  0.65380318  0.95893626  0.07991739  1
  Na  Na20  1  0.32617281  0.69358011  0.08066246  1
  Na  Na21  1  0.82552785  0.69231236  0.08032687  1
  Na  Na22  1  0.02024773  0.34820740  0.07939406  1
  Na  Na23  1  0.52011350  0.34794235  0.07984451  1
  Na  Na24  1  0.34810030  0.02713668  0.91957375  1
  Na  Na25  1  0.84799539  0.02714524  0.91954619  1
  Na  Na26  1  0.48528842  0.29110589  0.41455434  1
  Na  Na27  1  0.65941622  0.02787139  0.41433423  1
  Na  Na28  1  0.35342726  0.68084363  0.41484577  1
  Na  Na29  1  0.84851059  0.67014663  0.41752302  1
  Na  Na30  1  0.00539159  0.01018290  0.49666554  1
  Na  Na31  1  0.49929294  0.99973698  0.49335887  1
  Na  Na32  1  0.00497400  0.99983967  0.99739011  1
  Na  Na33  1  0.50490998  0.00002360  0.99803559  1
  Na  Na34  1  0.33305662  0.34002200  0.83322656  1
  Na  Na35  1  0.83299125  0.33999299  0.83324514  1
  Na  Na36  1  0.33081064  0.32874629  0.32954327  1
  Na  Na37  1  0.83556676  0.33062264  0.32981104  1
  Na  Na38  1  0.16741611  0.66729360  0.15989843  1
  Na  Na39  1  0.66608266  0.66646075  0.15957281  1
  Na  Na40  1  0.16721975  0.66733533  0.66019960  1
  Na  Na41  1  0.66635233  0.66629531  0.66069376  1
  Ta  Ta0  1  0.00251907  0.00383802  0.35397106  1
  Ta  Ta1  1  0.00170442  0.00023895  0.85460337  1
  Ta  Ta2  1  0.50166803  0.00012370  0.85457252  1
  Ta  Ta3  1  0.00007367  0.99973871  0.64542537  1
  Ta  Ta4  1  0.49989000  0.99988811  0.64477946  1
  Ta  Ta5  1  0.99993262  0.00015075  0.14486455  1
  Ta  Ta6  1  0.49986741  0.00009301  0.14624705  1
  Ta  Ta7  1  0.33349931  0.33739639  0.97856498  1
  Ta  Ta8  1  0.83336462  0.33711203  0.97862914  1
  Ta  Ta9  1  0.33035884  0.32855679  0.47900320  1
  Ta  Ta10  1  0.83636970  0.33458794  0.47899449  1
  Ta  Ta11  1  0.16704005  0.66811338  0.31462272  1
  Ta  Ta12  1  0.66603310  0.66584975  0.31340792  1
  Ta  Ta13  1  0.16632191  0.66552853  0.81531043  1
  Ta  Ta14  1  0.66612031  0.66530332  0.81531307  1
  In  In0  1  0.49939701  0.99960884  0.34971039  1
  In  In1  1  0.33322780  0.33308482  0.68566987  1
  In  In2  1  0.83334252  0.33317633  0.68586194  1
  In  In3  1  0.33272375  0.33294029  0.18306364  1
  In  In4  1  0.83384473  0.33400004  0.18406453  1
  In  In5  1  0.16582830  0.66519969  0.01403542  1
  In  In6  1  0.66580812  0.66515037  0.01391941  1
  In  In7  1  0.16368134  0.66335904  0.51446781  1
  In  In8  1  0.66869882  0.66972417  0.51583388  1
  Si  Si0  1  0.14355512  0.99477633  0.24989067  1
  Si  Si1  1  0.64663498  0.99862297  0.25104861  1
  Si  Si2  1  0.35171467  0.70644220  0.25101846  1
  Si  Si3  1  0.85503994  0.71279251  0.25129212  1
  Si  Si4  1  0.00210743  0.29081633  0.25066958  1
  Si  Si5  1  0.50086198  0.29559937  0.25098783  1
  Si  Si6  1  0.14342240  0.29132660  0.75034294  1
  Si  Si7  1  0.64327139  0.29099306  0.75021018  1
  Si  Si8  1  0.00197720  0.71320409  0.75072300  1
  Si  Si9  1  0.50195908  0.71348658  0.75054343  1
  Si  Si10  1  0.35463073  0.99603126  0.75124303  1
  Si  Si11  1  0.85446741  0.99587011  0.75131066  1
  Si  Si12  1  0.47918418  0.33253442  0.58462294  1
  Si  Si13  1  0.97961659  0.33201832  0.58557669  1
  Si  Si14  1  0.18631883  0.04009427  0.58572620  1
  Si  Si15  1  0.68731322  0.04295794  0.58436807  1
  Si  Si16  1  0.33351818  0.62598446  0.58450847  1
  Si  Si17  1  0.83421283  0.62672971  0.58499450  1
  Si  Si18  1  0.47985893  0.62757005  0.08435667  1
  Si  Si19  1  0.97960902  0.62637339  0.08488699  1
  Si  Si20  1  0.33379270  0.04065191  0.08396501  1
  Si  Si21  1  0.83400443  0.04091078  0.08360342  1
  Si  Si22  1  0.18647296  0.33166051  0.08406480  1
  Si  Si23  1  0.68687152  0.33221223  0.08475250  1
  Si  Si24  1  0.31414757  0.66479039  0.91666593  1
  Si  Si25  1  0.81414024  0.66486400  0.91665854  1
  Si  Si26  1  0.01860908  0.37151210  0.91750156  1
  Si  Si27  1  0.51856291  0.37128760  0.91749597  1
  Si  Si28  1  0.16626485  0.96265421  0.91773632  1
  Si  Si29  1  0.66625997  0.96273625  0.91767799  1
  Si  Si30  1  0.31270113  0.96198838  0.41823797  1
  Si  Si31  1  0.81487002  0.96323941  0.41637984  1
  Si  Si32  1  0.16616288  0.37133626  0.41759251  1
  Si  Si33  1  0.66769717  0.37222126  0.41796454  1
  Si  Si34  1  0.01950889  0.66685646  0.41709756  1
  Si  Si35  1  0.51853717  0.66463597  0.41829425  1
  O  O0  1  0.09156879  0.01517124  0.30495233  1
  O  O1  1  0.61009196  0.03468823  0.31047194  1
  O  O2  1  0.40668937  0.77883763  0.31031484  1
  O  O3  1  0.91438052  0.81062292  0.30791976  1
  O  O4  1  0.48320525  0.18721389  0.31053178  1
  O  O5  1  0.99079749  0.16503376  0.30535787  1
  O  O6  1  0.09158200  0.16700229  0.80481836  1
  O  O7  1  0.59168079  0.16705864  0.80486035  1
  O  O8  1  0.49065654  0.81580823  0.80510825  1
  O  O9  1  0.99055861  0.81581333  0.80507613  1
  O  O10  1  0.41420586  0.01817506  0.80747645  1
  O  O11  1  0.91422375  0.01823187  0.80742259  1
  O  O12  1  0.40148989  0.96705902  0.69204942  1
  O  O13  1  0.90132472  0.96710504  0.69197067  1
  O  O14  1  0.08290542  0.19927972  0.69080256  1
  O  O15  1  0.58305484  0.19940517  0.69066806  1
  O  O16  1  0.01683485  0.83447295  0.69105145  1
  O  O17  1  0.51706070  0.83472581  0.69095518  1
  O  O18  1  0.40139830  0.83517386  0.19296241  1
  O  O19  1  0.90146519  0.83547013  0.19220196  1
  O  O20  1  0.01679394  0.19869151  0.19118269  1
  O  O21  1  0.51617966  0.19752763  0.19293690  1
  O  O22  1  0.08277505  0.96634339  0.19076482  1
  O  O23  1  0.58264082  0.96822282  0.19296024  1
  O  O24  1  0.44357230  0.36904624  0.64515771  1
  O  O25  1  0.94423384  0.36910925  0.64594710  1
  O  O26  1  0.23994046  0.11056267  0.64618775  1
  O  O27  1  0.74137466  0.11322151  0.64475387  1
  O  O28  1  0.31540082  0.51805244  0.64497867  1
  O  O29  1  0.81570419  0.51825650  0.64520385  1
  O  O30  1  0.44452886  0.52121541  0.14478882  1
  O  O31  1  0.94513125  0.52081088  0.14600461  1
  O  O32  1  0.31458419  0.11014226  0.14460514  1
  O  O33  1  0.81695576  0.11332325  0.14411428  1
  O  O34  1  0.23873993  0.36713691  0.14490125  1
  O  O35  1  0.74044801  0.37148439  0.14555441  1
  O  O36  1  0.23711950  0.30041600  0.02798979  1
  O  O37  1  0.73747369  0.30083658  0.02846462  1
  O  O38  1  0.41385481  0.52518262  0.02810240  1
  O  O39  1  0.91357476  0.52442592  0.02878545  1
  O  O40  1  0.34942940  0.16738231  0.02599099  1
  O  O41  1  0.84978957  0.16733399  0.02558678  1
  O  O42  1  0.23672791  0.17259648  0.52924915  1
  O  O43  1  0.73565701  0.16975949  0.52620582  1
  O  O44  1  0.34943942  0.53043096  0.52642687  1
  O  O45  1  0.84941749  0.53041350  0.52673585  1
  O  O46  1  0.41519471  0.30129747  0.52686734  1
  O  O47  1  0.91423442  0.30271225  0.52873993  1
  O  O48  1  0.28209231  0.71672901  0.97527775  1
  O  O49  1  0.78218483  0.71688946  0.97529967  1
  O  O50  1  0.07095562  0.43690083  0.97780875  1
  O  O51  1  0.57105406  0.43682402  0.97774003  1
  O  O52  1  0.14830281  0.85848176  0.97818134  1
  O  O53  1  0.64862062  0.85877100  0.97810103  1
  O  O54  1  0.27572982  0.84851541  0.47702071  1
  O  O55  1  0.78351980  0.85211903  0.47610313  1
  O  O56  1  0.14755744  0.43575116  0.47883118  1
  O  O57  1  0.65059976  0.44813799  0.47721550  1
  O  O58  1  0.06937821  0.70387335  0.47856200  1
  O  O59  1  0.57534814  0.70350428  0.47684968  1
  O  O60  1  0.06901099  0.64076692  0.35938117  1
  O  O61  1  0.56909499  0.63629949  0.36006522  1
  O  O62  1  0.25086504  0.86082268  0.35943072  1
  O  O63  1  0.74965557  0.86449068  0.35935289  1
  O  O64  1  0.18119631  0.50091414  0.36029218  1
  O  O65  1  0.68286833  0.50210258  0.35993472  1
  O  O66  1  0.06957068  0.49745397  0.85948253  1
  O  O67  1  0.56954140  0.49746738  0.85948910  1
  O  O68  1  0.18105126  0.86130434  0.86013823  1
  O  O69  1  0.68123575  0.86162364  0.86007675  1
  O  O70  1  0.25110196  0.64037278  0.85868916  1
  O  O71  1  0.75116469  0.64051316  0.85867532  1
  O  O72  1  0.00169512  0.82441039  0.40625847  1
  O  O73  1  0.50451036  0.82449749  0.41310441  1
  O  O74  1  0.40695327  0.98990940  0.41312173  1
  O  O75  1  0.90741637  0.98210320  0.40518076  1
  O  O76  1  0.08628478  0.18211398  0.40582264  1
  O  O77  1  0.58742170  0.18481948  0.41307882  1
  O  O78  1  0.00218158  0.17930773  0.90612560  1
  O  O79  1  0.50216562  0.17924689  0.90607796  1
  O  O80  1  0.08563078  0.98903711  0.90576646  1
  O  O81  1  0.58565337  0.98901728  0.90576704  1
  O  O82  1  0.40670972  0.83253729  0.90481657  1
  O  O83  1  0.90673489  0.83266466  0.90482364  1
  O  O84  1  0.48250509  0.15302801  0.58883995  1
  O  O85  1  0.98247127  0.15253506  0.58860958  1
  O  O86  1  0.09371839  0.03473002  0.58890436  1
  O  O87  1  0.59426945  0.03515878  0.58873514  1
  O  O88  1  0.42326066  0.81215832  0.58907230  1
  O  O89  1  0.92373471  0.81276062  0.58884492  1
  O  O90  1  0.48305317  0.81356289  0.08839889  1
  O  O91  1  0.98243525  0.81178594  0.08861361  1
  O  O92  1  0.42363565  0.03419745  0.08912526  1
  O  O93  1  0.92358900  0.03329046  0.08856733  1
  O  O94  1  0.09347417  0.15249658  0.08830785  1
  O  O95  1  0.59394712  0.15305644  0.08898607  1
  O  O96  1  0.34467516  0.16193950  0.75053589  1
  O  O97  1  0.84460324  0.16185944  0.75048339  1
  O  O98  1  0.23593349  0.31053092  0.75044370  1
  O  O99  1  0.73591997  0.31032078  0.75038429  1
  O  O100  1  0.41895243  0.52824483  0.75043777  1
  O  O101  1  0.91886128  0.52825515  0.75044007  1
  O  O102  1  0.33704924  0.51782206  0.24600326  1
  O  O103  1  0.84513915  0.52736728  0.25083658  1
  O  O104  1  0.42061165  0.32331419  0.24615270  1
  O  O105  1  0.91950014  0.31031780  0.25059746  1
  O  O106  1  0.23595860  0.15941480  0.25037316  1
  O  O107  1  0.74086390  0.15939563  0.24626735  1
  O  O108  1  0.32153697  0.49383134  0.92214163  1
  O  O109  1  0.82166736  0.49403778  0.92226402  1
  O  O110  1  0.42331381  0.34940459  0.92147940  1
  O  O111  1  0.92336444  0.34975150  0.92148218  1
  O  O112  1  0.25554093  0.14525281  0.92128482  1
  O  O113  1  0.75553377  0.14557773  0.92136530  1
  O  O114  1  0.31989262  0.14987275  0.42266684  1
  O  O115  1  0.81744605  0.14587851  0.42193746  1
  O  O116  1  0.25609869  0.36817229  0.42198780  1
  O  O117  1  0.75657175  0.36484543  0.42188748  1
  O  O118  1  0.42644564  0.48656190  0.42212877  1
  O  O119  1  0.92400717  0.49603364  0.42192061  1
  O  O120  1  0.17240440  0.49180929  0.07810299  1
  O  O121  1  0.67246114  0.49180268  0.07811780  1
  O  O122  1  0.07390455  0.65581569  0.07911696  1
  O  O123  1  0.57425421  0.65698940  0.07862717  1
  O  O124  1  0.25428194  0.85098312  0.07860132  1
  O  O125  1  0.75439576  0.85139384  0.07866242  1
  O  O126  1  0.17118163  0.85134619  0.57968672  1
  O  O127  1  0.67271148  0.85409857  0.57893628  1
  O  O128  1  0.25400657  0.65611673  0.57910690  1
  O  O129  1  0.75501777  0.65769257  0.57999433  1
  O  O130  1  0.07379670  0.49117377  0.57981968  1
  O  O131  1  0.57389634  0.49120847  0.57943809  1
  O  O132  1  0.14793665  0.81920677  0.25642893  1
  O  O133  1  0.65079468  0.82046307  0.25529984  1
  O  O134  1  0.25894938  0.70014912  0.25487222  1
  O  O135  1  0.76227556  0.70234652  0.25726458  1
  O  O136  1  0.08922530  0.47569131  0.25735823  1
  O  O137  1  0.59082348  0.48102448  0.25528044  1
  O  O138  1  0.14886814  0.47708928  0.75627041  1
  O  O139  1  0.64902354  0.47715813  0.75628807  1
  O  O140  1  0.08929272  0.70217076  0.75695598  1
  O  O141  1  0.58930690  0.70212613  0.75696138  1
  O  O142  1  0.26118538  0.82113482  0.75639143  1
  O  O143  1  0.76114400  0.82101955  0.75625869  1
loop_
_geom_bond_atom_site_label_1
_geom_bond_atom_site_label_2
_geom_bond_distance
_geom_bond_site_symmetry_2
Na0 O106 2.486196 1_555
Na0 O32 2.487382 1_555
Na0 O104 2.487601 1_555
Na0 O134 2.517903 1_545
Na0 O132 2.745015 1_545
Na0 O62 2.851933 1_545
Na0 O4 2.957103 1_555
Na0 O18 2.974526 1_545
Na1 O107 2.380700 1_555
Na1 O105 2.432399 1_555
Na1 O33 2.454928 1_555
Na1 O135 2.496656 1_545
Na1 O133 2.651128 1_545
Na1 O63 2.868538 1_545
Na2 O102 2.348102 1_555
Na2 O34 2.427177 1_555
Na2 O106 2.451392 1_555
Na2 O136 2.494441 1_555
Na2 O134 2.659839 1_555
Na2 O64 2.893887 1_555
Na2 O20 2.992273 1_555
Na3 O35 2.465689 1_555
Na3 O107 2.479299 1_555
Na3 O103 2.509860 1_555
Na3 O137 2.516422 1_555
Na3 O135 2.731438 1_555
Na3 O65 2.862088 1_555
Na3 O1 2.943679 1_555
Na3 O21 2.977892 1_555
Na4 O31 2.427102 1_555
Na4 O103 2.429961 1_555
Na4 O105 2.463220 1_555
Na4 O132 2.478302 1_655
Na4 O136 2.669972 1_655
Na4 O60 2.848593 1_655
Na5 O104 2.402359 1_555
Na5 O30 2.466764 1_555
Na5 O102 2.497191 1_555
Na5 O133 2.546965 1_555
Na5 O137 2.734874 1_555
Na5 O61 2.891433 1_555
Na5 O2 2.936611 1_555
Na5 O23 2.970402 1_555
Na6 O100 2.428505 1_555
Na6 O28 2.468176 1_555
Na6 O98 2.476393 1_555
Na6 O142 2.495044 1_555
Na6 O138 2.676655 1_555
Na6 O70 2.827557 1_555
Na7 O101 2.428391 1_555
Na7 O29 2.470445 1_555
Na7 O99 2.475039 1_555
Na7 O143 2.493282 1_555
Na7 O139 2.669942 1_555
Na7 O71 2.819248 1_555
Na8 O97 2.431292 1_555
Na8 O25 2.453672 1_555
Na8 O101 2.476293 1_555
Na8 O138 2.494560 1_655
Na8 O140 2.673275 1_655
Na8 O66 2.838901 1_655
Na9 O96 2.427221 1_555
Na9 O24 2.468400 1_555
Na9 O100 2.474990 1_555
Na9 O139 2.500240 1_555
Na9 O141 2.676445 1_555
Na9 O67 2.845747 1_555
Na10 O26 2.434336 1_555
Na10 O98 2.434870 1_555
Na10 O96 2.462399 1_555
Na10 O140 2.495115 1_545
Na10 O142 2.657916 1_545
Na10 O68 2.860841 1_545
Na11 O99 2.433195 1_555
Na11 O97 2.468263 1_555
Na11 O27 2.475450 1_555
Na11 O141 2.492545 1_545
Na11 O143 2.662892 1_545
Na11 O69 2.859742 1_545
Na12 O130 2.402337 1_555
Na12 O56 2.421816 1_555
Na12 O128 2.470110 1_555
Na12 O86 2.524812 1_555
Na12 O85 2.741244 1_455
Na12 O14 2.832640 1_555
Na12 O42 2.936620 1_555
Na12 O28 2.951830 1_555
Na13 O131 2.394296 1_555
Na13 O57 2.487397 1_555
Na13 O129 2.498134 1_555
Na13 O87 2.512651 1_555
Na13 O84 2.722809 1_555
Na13 O15 2.819975 1_555
Na13 O29 2.973158 1_555
Na13 O43 2.974955 1_555
Na14 O126 2.389502 1_555
Na14 O58 2.420722 1_555
Na14 O130 2.484780 1_555
Na14 O89 2.517016 1_455
Na14 O86 2.725141 1_565
Na14 O16 2.833428 1_555
Na14 O45 2.967595 1_455
Na14 O25 2.972308 1_455
Na15 O127 2.421383 1_555
Na15 O131 2.485715 1_555
Na15 O59 2.499742 1_555
Na15 O88 2.518830 1_555
Na15 O87 2.733062 1_565
Na15 O17 2.831930 1_555
Na15 O24 2.958071 1_555
Na15 O44 2.963954 1_555
Na16 O128 2.390162 1_555
Na16 O126 2.487859 1_555
Na16 O54 2.488252 1_555
Na16 O84 2.526071 1_565
Na16 O88 2.722448 1_555
Na16 O12 2.872232 1_555
Na16 O46 2.970694 1_565
Na16 O26 2.978086 1_565
Na17 O129 2.395882 1_555
Na17 O127 2.477926 1_555
Na17 O85 2.506474 1_565
Na17 O55 2.514871 1_555
Na17 O89 2.725432 1_555
Na17 O13 2.839098 1_555
Na17 O27 2.941992 1_565
Na17 O47 2.959338 1_565
Na18 O122 2.409478 1_555
Na18 O52 2.441852 1_554
Na18 O124 2.477673 1_555
Na18 O94 2.528298 1_565
Na18 O91 2.747595 1_455
Na18 O22 2.832218 1_555
Na18 O32 2.930099 1_565
Na18 O36 2.943332 1_565
Na19 O123 2.395781 1_555
Na19 O53 2.447205 1_554
Na19 O125 2.486381 1_555
Na19 O95 2.520279 1_565
Na19 O90 2.725795 1_555
Na19 O23 2.872545 1_555
Na19 O37 2.947176 1_565
Na19 O33 2.966119 1_565
Na20 O124 2.390209 1_555
Na20 O120 2.479851 1_555
Na20 O90 2.518503 1_555
Na20 O48 2.544683 1_554
Na20 O92 2.717255 1_565
Na20 O18 2.856582 1_555
Na20 O34 2.965103 1_555
Na20 O38 2.969949 1_555
Na21 O125 2.391736 1_555
Na21 O121 2.467810 1_555
Na21 O91 2.520493 1_555
Na21 O49 2.535544 1_554
Na21 O93 2.720544 1_565
Na21 O19 2.854591 1_555
Na21 O35 2.936745 1_555
Na21 O39 2.962624 1_555
Na22 O120 2.415799 1_555
Na22 O50 2.442909 1_554
Na22 O122 2.476098 1_555
Na22 O93 2.527214 1_455
Na22 O94 2.730772 1_555
Na22 O20 2.845553 1_555
Na22 O41 2.965476 1_455
Na22 O31 2.965689 1_455
Na23 O121 2.418930 1_555
Na23 O51 2.454945 1_554
Na23 O123 2.487094 1_555
Na23 O92 2.518497 1_555
Na23 O95 2.733479 1_555
Na23 O21 2.873356 1_555
Na23 O30 2.958058 1_555
Na23 O40 2.969021 1_555
Na24 O112 2.425105 1_555
Na24 O79 2.463010 1_555
Na24 O82 2.519844 1_545
Na24 O110 2.557780 1_555
Na24 O40 2.706572 1_556
Na24 O48 2.769160 1_545
Na24 O10 2.810691 1_555
Na24 O68 2.969490 1_545
Na25 O113 2.425796 1_555
Na25 O78 2.464714 1_655
Na25 O83 2.520600 1_545
Na25 O111 2.560423 1_555
Na25 O41 2.696940 1_556
Na25 O49 2.768819 1_545
Na25 O11 2.812111 1_555
Na25 O69 2.965733 1_545
Na26 O74 2.389358 1_545
Na26 O77 2.504190 1_555
Na26 O118 2.514539 1_555
Na26 O4 2.514805 1_555
Na26 O114 2.639841 1_555
Na26 O46 2.851061 1_555
Na26 O57 2.979484 1_555
Na26 O61 2.998549 1_555
Na27 O77 2.387866 1_555
Na27 O73 2.497816 1_545
Na27 O1 2.514668 1_555
Na27 O115 2.540307 1_555
Na27 O117 2.688118 1_555
Na27 O43 2.853504 1_555
Na27 O59 2.930617 1_545
Na27 O63 2.993478 1_545
Na28 O73 2.398586 1_555
Na28 O74 2.489347 1_555
Na28 O116 2.509366 1_555
Na28 O2 2.527324 1_555
Na28 O118 2.713352 1_555
Na28 O44 2.843172 1_555
Na28 O54 2.917173 1_555
Na28 O64 2.997327 1_555
Na29 O117 2.439882 1_555
Na29 O72 2.443468 1_655
Na29 O75 2.513614 1_555
Na29 O119 2.582785 1_555
Na29 O3 2.758835 1_555
Na29 O45 2.770790 1_555
Na29 O55 2.810926 1_555
Na29 O65 2.931020 1_555
Na30 O76 2.549105 1_555
Na30 O86 2.570220 1_555
Na30 O85 2.584514 1_455
Na30 O72 2.626930 1_545
Na30 O75 2.656759 1_445
Na30 O89 2.661119 1_445
Na31 O74 2.444192 1_555
Na31 O73 2.445624 1_555
Na31 O77 2.446973 1_565
Na31 O84 2.662334 1_565
Na31 O88 2.667023 1_555
Na31 O87 2.677119 1_565
Na32 O94 2.547909 1_566
Na32 O80 2.561931 1_555
Na32 O91 2.573451 1_456
Na32 O93 2.637418 1_466
Na32 O78 2.644211 1_565
Na32 O83 2.675160 1_455
Na33 O90 2.551682 1_546
Na33 O95 2.552875 1_556
Na33 O81 2.575111 1_545
Na33 O92 2.637276 1_556
Na33 O79 2.654600 1_555
Na33 O82 2.686967 1_545
Na34 O100 2.487173 1_555
Na34 O98 2.494900 1_555
Na34 O108 2.511426 1_555
Na34 O96 2.548435 1_555
Na34 O110 2.556879 1_555
Na34 O112 2.563349 1_555
Na35 O101 2.487447 1_555
Na35 O99 2.495169 1_555
Na35 O109 2.513277 1_555
Na35 O97 2.549868 1_555
Na35 O111 2.556948 1_555
Na35 O113 2.562846 1_555
Na36 O106 2.428330 1_555
Na36 O104 2.507690 1_555
Na36 O102 2.516975 1_555
Na36 O114 2.602111 1_555
Na36 O116 2.607316 1_555
Na36 O118 2.637584 1_555
Na37 O105 2.416763 1_555
Na37 O103 2.471508 1_555
Na37 O107 2.504933 1_555
Na37 O115 2.586946 1_555
Na37 O119 2.598172 1_555
Na37 O117 2.629021 1_555
Na38 O124 2.452108 1_555
Na38 O122 2.463060 1_555
Na38 O120 2.471199 1_555
Na38 O134 2.637711 1_555
Na38 O132 2.692861 1_555
Na38 O136 2.720632 1_555
Na39 O123 2.450682 1_555
Na39 O125 2.457971 1_555
Na39 O121 2.469774 1_555
Na39 O137 2.656615 1_555
Na39 O133 2.660323 1_555
Na39 O135 2.731103 1_555
Na40 O126 2.448285 1_555
Na40 O128 2.451382 1_555
Na40 O130 2.456626 1_555
Na40 O142 2.682661 1_555
Na40 O138 2.686733 1_555
Na40 O140 2.702991 1_555
Na41 O129 2.459272 1_555
Na41 O131 2.461632 1_555
Na41 O127 2.478770 1_555
Na41 O139 2.675988 1_555
Na41 O143 2.678866 1_555
Na41 O141 2.688209 1_555
In0 O2 2.079245 1_555
In0 O4 2.079725 1_565
In0 O1 2.082410 1_565
In0 O74 2.178685 1_555
In0 O73 2.181688 1_555
In0 O77 2.184323 1_565
In1 O24 2.086264 1_555
In1 O28 2.089546 1_555
In1 O26 2.092635 1_555
In1 O96 2.225767 1_555
In1 O98 2.227197 1_555
In1 O100 2.230013 1_555
In2 O27 2.087300 1_555
In2 O29 2.088195 1_555
In2 O25 2.089496 1_555
In2 O97 2.221826 1_555
In2 O99 2.224444 1_555
In2 O101 2.225751 1_555
In3 O32 2.083008 1_555
In3 O34 2.083703 1_555
In3 O30 2.090958 1_555
In3 O102 2.175551 1_555
In3 O104 2.181089 1_555
In3 O106 2.265012 1_555
In4 O31 2.079109 1_555
In4 O33 2.087340 1_555
In4 O35 2.094346 1_555
In4 O107 2.163623 1_555
In4 O103 2.248870 1_555
In4 O105 2.256163 1_555
In5 O50 2.102858 1_554
In5 O52 2.110547 1_554
In5 O48 2.123113 1_554
In5 O120 2.190824 1_555
In5 O122 2.197216 1_555
In5 O124 2.206814 1_555
In6 O51 2.101877 1_554
In6 O53 2.109542 1_554
In6 O49 2.123156 1_554
In6 O123 2.190465 1_555
In6 O121 2.193051 1_555
In6 O125 2.211989 1_555
In7 O54 2.076564 1_555
In7 O58 2.102107 1_555
In7 O56 2.110503 1_555
In7 O130 2.179579 1_555
In7 O126 2.210826 1_555
In7 O128 2.228809 1_555
In8 O57 2.074775 1_555
In8 O59 2.078825 1_555
In8 O55 2.119843 1_555
In8 O127 2.176420 1_555
In8 O129 2.184227 1_555
In8 O131 2.210215 1_555
O0 Si0 1.626319 1_545
O0 Ta0 1.926079 1_555
O1 Si1 1.598683 1_545
O2 Si2 1.600768 1_555
O3 Si3 1.621910 1_555
O3 Ta0 1.988300 1_665
O4 Si5 1.598976 1_555
O5 Si4 1.624783 1_655
O5 Ta0 1.932907 1_655
O6 Si6 1.615992 1_555
O6 Ta1 1.942998 1_555
O7 Si7 1.616431 1_555
O7 Ta2 1.943753 1_555
O8 Si9 1.616756 1_555
O8 Ta2 1.944418 1_565
O9 Si8 1.615747 1_655
O9 Ta1 1.945239 1_665
O10 Si10 1.615506 1_545
O10 Ta2 1.996043 1_555
O11 Si11 1.614990 1_545
O11 Ta1 1.997082 1_655
O12 Si10 1.672781 1_555
O12 Ta4 1.979928 1_555
O13 Si11 1.674587 1_555
O13 Ta3 1.977176 1_655
O14 Si6 1.672189 1_555
O14 Ta3 1.977288 1_545
O15 Si7 1.669233 1_555
O15 Ta4 1.984993 1_545
O16 Si8 1.673650 1_555
O16 Ta3 1.975265 1_555
O17 Si9 1.671238 1_555
O17 Ta4 1.984950 1_555
O18 Si2 1.686111 1_555
O18 Ta6 1.976765 1_565
O19 Si3 1.670019 1_555
O19 Ta5 1.983515 1_565
O20 Si4 1.671206 1_555
O20 Ta5 1.979729 1_455
O21 Si5 1.683441 1_555
O21 Ta6 1.978688 1_555
O22 Si0 1.668853 1_555
O22 Ta5 1.984252 1_465
O23 Si1 1.682785 1_555
O23 Ta6 1.983303 1_565
O24 Si12 1.612519 1_555
O25 Si13 1.609460 1_555
O26 Si14 1.610642 1_555
O27 Si15 1.612367 1_555
O28 Si16 1.613398 1_555
O29 Si17 1.610286 1_555
O30 Si18 1.605476 1_555
O31 Si19 1.614110 1_555
O32 Si20 1.613827 1_555
O33 Si21 1.608826 1_555
O34 Si22 1.606678 1_555
O35 Si23 1.614851 1_555
O36 Si22 1.670326 1_555
O36 Ta7 1.965022 1_554
O37 Si23 1.673947 1_555
O37 Ta8 1.964772 1_554
O38 Si18 1.675351 1_555
O38 Ta7 1.957799 1_554
O39 Si19 1.672214 1_555
O39 Ta8 1.962745 1_554
O40 Si20 1.670856 1_555
O40 Ta7 2.024909 1_554
O41 Si21 1.669413 1_555
O41 Ta8 2.022394 1_554
O42 Si14 1.676673 1_555
O42 Ta9 1.949789 1_555
O43 Si15 1.675831 1_555
O43 Ta10 2.004465 1_555
O44 Si16 1.674638 1_555
O44 Ta9 2.006426 1_555
O45 Si17 1.676328 1_555
O45 Ta10 1.997871 1_555
O46 Si12 1.675546 1_555
O46 Ta9 2.006783 1_555
O47 Si13 1.678983 1_555
O47 Ta10 1.946834 1_555
O48 Si24 1.606118 1_555
O49 Si25 1.606101 1_555
O50 Si26 1.594115 1_555
O51 Si27 1.594112 1_555
O52 Si28 1.595892 1_555
O53 Si29 1.595097 1_555
O54 Si30 1.604995 1_555
O55 Si31 1.605847 1_555
O56 Si32 1.598065 1_555
O57 Si33 1.602189 1_555
O58 Si34 1.596403 1_555
O59 Si35 1.603872 1_555
O60 Si34 1.664977 1_555
O60 Ta11 1.960586 1_555
O61 Si35 1.694511 1_555
O61 Ta12 1.959482 1_555
O62 Si30 1.685029 1_555
O62 Ta11 1.943605 1_555
O63 Si31 1.675770 1_555
O63 Ta12 1.983985 1_555
O64 Si32 1.677290 1_555
O64 Ta11 1.965393 1_555
O65 Si33 1.691142 1_555
O65 Ta12 1.974912 1_555
O66 Si26 1.679443 1_555
O66 Ta13 1.939899 1_555
O67 Si27 1.680189 1_555
O67 Ta14 1.937579 1_555
O68 Si28 1.690092 1_555
O68 Ta13 1.953100 1_555
O69 Si29 1.690287 1_555
O69 Ta14 1.954336 1_555
O70 Si24 1.680895 1_555
O70 Ta13 1.943620 1_555
O71 Si25 1.680338 1_555
O71 Ta14 1.945863 1_555
O72 Si34 1.648808 1_555
O72 Ta0 2.013874 1_565
O73 Si35 1.612078 1_555
O74 Si30 1.618243 1_555
O75 Si31 1.635292 1_555
O75 Ta0 2.011365 1_665
O76 Si32 1.636697 1_555
O76 Ta0 1.968245 1_555
O77 Si33 1.611325 1_555
O78 Si26 1.650218 1_555
O78 Ta1 2.002634 1_555
O79 Si27 1.649097 1_555
O79 Ta2 2.002672 1_555
O80 Si28 1.634479 1_555
O80 Ta1 1.964301 1_565
O81 Si29 1.633208 1_555
O81 Ta2 1.965202 1_565
O82 Si24 1.643329 1_555
O82 Ta2 1.995275 1_565
O83 Si25 1.643820 1_555
O83 Ta1 1.995037 1_665
O84 Si12 1.677657 1_555
O84 Ta4 2.023803 1_545
O85 Si13 1.671655 1_555
O85 Ta3 2.035678 1_645
O86 Si14 1.674040 1_555
O86 Ta3 2.025223 1_545
O87 Si15 1.672933 1_555
O87 Ta4 2.028240 1_545
O88 Si16 1.678571 1_555
O88 Ta4 2.020015 1_555
O89 Si17 1.675059 1_555
O89 Ta3 2.027360 1_655
O90 Si18 1.676974 1_555
O90 Ta6 2.042539 1_565
O91 Si19 1.674504 1_555
O91 Ta5 2.029508 1_565
O92 Si20 1.680634 1_555
O92 Ta6 2.033719 1_555
O93 Si21 1.681237 1_555
O93 Ta5 2.019240 1_555
O94 Si22 1.675786 1_555
O94 Ta5 2.025097 1_455
O95 Si23 1.675021 1_555
O95 Ta6 2.041459 1_555
O96 Si10 1.618176 1_545
O97 Si11 1.617972 1_545
O98 Si6 1.614294 1_555
O99 Si7 1.616338 1_555
O100 Si9 1.615706 1_555
O101 Si8 1.615006 1_655
O102 Si2 1.613572 1_555
O103 Si3 1.614853 1_555
O104 Si5 1.616114 1_555
O105 Si4 1.610277 1_655
O106 Si0 1.608402 1_545
O107 Si1 1.617880 1_545
O108 Si24 1.641999 1_555
O108 Ta7 2.005563 1_555
O109 Si25 1.642425 1_555
O109 Ta8 2.005929 1_555
O110 Si27 1.656397 1_555
O110 Ta7 2.043545 1_555
O111 Si26 1.656768 1_655
O111 Ta8 2.045040 1_555
O112 Si28 1.656176 1_545
O112 Ta7 2.068856 1_555
O113 Si29 1.657460 1_545
O113 Ta8 2.065192 1_555
O114 Si30 1.661361 1_545
O114 Ta9 1.999661 1_555
O115 Si31 1.653905 1_545
O115 Ta10 2.036470 1_555
O116 Si32 1.665580 1_555
O116 Ta9 2.030184 1_555
O117 Si33 1.665645 1_555
O117 Ta10 2.066471 1_555
O118 Si35 1.661842 1_555
O118 Ta9 2.066899 1_555
O119 Si34 1.668195 1_655
O119 Ta10 2.007135 1_555
O120 Si22 1.616503 1_555
O121 Si23 1.616642 1_555
O122 Si19 1.614937 1_455
O123 Si18 1.616745 1_555
O124 Si20 1.619663 1_565
O125 Si21 1.618767 1_565
O126 Si14 1.613323 1_565
O127 Si15 1.616840 1_565
O128 Si16 1.617320 1_555
O129 Si17 1.615673 1_555
O130 Si13 1.613395 1_455
O131 Si12 1.616874 1_555
O132 Si0 1.655846 1_555
O132 Ta11 2.057231 1_555
O133 Si1 1.673539 1_555
O133 Ta12 2.045391 1_555
O134 Si2 1.673706 1_555
O134 Ta11 2.054668 1_555
O135 Si3 1.659123 1_555
O135 Ta12 2.053049 1_555
O136 Si4 1.653633 1_555
O136 Ta11 2.069229 1_555
O137 Si5 1.676519 1_555
O137 Ta12 2.034139 1_555
O138 Si6 1.658605 1_555
O138 Ta13 2.069778 1_555
O139 Si7 1.660012 1_555
O139 Ta14 2.069243 1_555
O140 Si8 1.658777 1_555
O140 Ta13 2.073996 1_555
O141 Si9 1.661357 1_555
O141 Ta14 2.071775 1_555
O142 Si10 1.663495 1_555
O142 Ta13 2.078570 1_555
O143 Si11 1.661781 1_555
O143 Ta14 2.082219 1_555
