# generated using pymatgen
data_Sr2MgZrMnO6
_symmetry_space_group_name_H-M   'P 1'
_cell_length_a   6.48467481
_cell_length_b   6.48467481
_cell_length_c   6.48467481
_cell_angle_alpha   55.03090440
_cell_angle_beta   55.03090440
_cell_angle_gamma   55.03090440
_symmetry_Int_Tables_number   1
_chemical_formula_structural   Sr2MgZrMnO6
_chemical_formula_sum   'Sr2 Mg1 Zr1 Mn1 O6'
_cell_volume   170.52879568
_cell_formula_units_Z   1
loop_
 _symmetry_equiv_pos_site_id
 _symmetry_equiv_pos_as_xyz
  1  'x, y, z'
loop_
 _atom_site_type_symbol
 _atom_site_label
 _atom_site_symmetry_multiplicity
 _atom_site_fract_x
 _atom_site_fract_y
 _atom_site_fract_z
 _atom_site_occupancy
  Sr  Sr0  1  0.21476353  0.21476353  0.21476353  1
  Sr  Sr1  1  0.80939686  0.80939686  0.80939686  1
  Mg  Mg0  1  0.57169395  0.57169395  0.57169395  1
  Zr  Zr0  1  0.01310027  0.01310027  0.01310027  1
  Mn  Mn0  1  0.39990104  0.39990104  0.39990104  1
  O  O0  1  0.79344991  0.26122401  0.26122401  1
  O  O1  1  0.77914742  0.24790358  0.77914742  1
  O  O2  1  0.77914742  0.77914742  0.24790358  1
  O  O3  1  0.24790358  0.77914742  0.77914742  1
  O  O4  1  0.26122401  0.79344991  0.26122401  1
  O  O5  1  0.26122401  0.26122401  0.79344991  1
loop_
_geom_bond_atom_site_label_1
_geom_bond_atom_site_label_2
_geom_bond_distance
_geom_bond_site_symmetry_2
Mg0 O2 1.904474 1_555
Mg0 O3 1.904474 1_555
Mg0 O1 1.904474 1_555
Mn0 O0 1.948314 1_555
Mn0 O4 1.948314 1_555
Mn0 O5 1.948314 1_555
O0 Zr0 2.218130 1_655
O0 Sr0 2.421325 1_655
O0 Sr1 3.060530 1_554
O0 Sr1 3.060530 1_545
O1 Zr0 2.064985 1_656
O1 Sr1 2.632151 1_545
O2 Zr0 2.064985 1_665
O2 Sr1 2.632151 1_554
O3 Zr0 2.064985 1_566
O3 Sr1 2.632151 1_455
O4 Zr0 2.218130 1_565
O4 Sr0 2.421325 1_565
O4 Sr1 3.060530 1_554
O4 Sr1 3.060530 1_455
O5 Zr0 2.218130 1_556
O5 Sr0 2.421325 1_556
O5 Sr1 3.060530 1_545
O5 Sr1 3.060530 1_455
