# generated using pymatgen
data_Sr11(ReO6)4
_symmetry_space_group_name_H-M   'P 1'
_cell_length_a   11.70476186
_cell_length_b   11.70476186
_cell_length_c   11.70476186
_cell_angle_alpha   119.63399901
_cell_angle_beta   119.63399901
_cell_angle_gamma   90.63511000
_symmetry_Int_Tables_number   1
_chemical_formula_structural   Sr11(ReO6)4
_chemical_formula_sum   'Sr22 Re8 O48'
_cell_volume   1140.09174396
_cell_formula_units_Z   2
loop_
 _symmetry_equiv_pos_site_id
 _symmetry_equiv_pos_as_xyz
  1  'x, y, z'
loop_
 _atom_site_type_symbol
 _atom_site_label
 _atom_site_symmetry_multiplicity
 _atom_site_fract_x
 _atom_site_fract_y
 _atom_site_fract_z
 _atom_site_occupancy
  Sr  Sr0  1  0.50000000  0.50000000  0.00000000  1
  Sr  Sr1  1  0.25000000  0.75000000  0.50000000  1
  Sr  Sr2  1  0.01132800  0.51132800  0.50000000  1
  Sr  Sr3  1  0.26132800  0.26132800  0.00000000  1
  Sr  Sr4  1  0.73867200  0.73867200  0.00000000  1
  Sr  Sr5  1  0.48867200  0.98867200  0.50000000  1
  Sr  Sr6  1  0.02602100  0.96721000  0.46811900  1
  Sr  Sr7  1  0.30790300  0.27602100  0.55881200  1
  Sr  Sr8  1  0.68232200  0.37187000  0.73447900  1
  Sr  Sr9  1  0.69784300  0.93232200  0.81045200  1
  Sr  Sr10  1  0.12187000  0.88739100  0.18954800  1
  Sr  Sr11  1  0.63739100  0.94784300  0.26552100  1
  Sr  Sr12  1  0.06767800  0.87813000  0.76552100  1
  Sr  Sr13  1  0.05215700  0.31767800  0.68954800  1
  Sr  Sr14  1  0.62813000  0.36260900  0.31045200  1
  Sr  Sr15  1  0.11260900  0.30215700  0.23447900  1
  Sr  Sr16  1  0.25090900  0.69209700  0.96811900  1
  Sr  Sr17  1  0.03279000  0.50090900  0.05881200  1
  Sr  Sr18  1  0.44209700  0.97397900  0.94118800  1
  Sr  Sr19  1  0.72397900  0.28279000  0.03188100  1
  Sr  Sr20  1  0.49909100  0.55790300  0.53188100  1
  Sr  Sr21  1  0.71721000  0.74909100  0.44118800  1
  Re  Re0  1  0.87500000  0.62500000  0.25000000  1
  Re  Re1  1  0.37500000  0.12500000  0.75000000  1
  Re  Re2  1  0.37500000  0.62500000  0.25000000  1
  Re  Re3  1  0.37500000  0.62500000  0.75000000  1
  Re  Re4  1  0.37500000  0.12500000  0.25000000  1
  Re  Re5  1  0.87500000  0.62500000  0.75000000  1
  Re  Re6  1  0.87500000  0.12500000  0.25000000  1
  Re  Re7  1  0.87500000  0.12500000  0.75000000  1
  O  O0  1  0.90359700  0.60836900  0.91537500  1
  O  O1  1  0.73822100  0.15359700  0.79522800  1
  O  O2  1  0.35836900  0.94299300  0.20477200  1
  O  O3  1  0.69299300  0.98822100  0.08462500  1
  O  O4  1  0.84640300  0.64163100  0.58462500  1
  O  O5  1  0.01177900  0.09640300  0.70477200  1
  O  O6  1  0.39163100  0.30700700  0.29522800  1
  O  O7  1  0.05700700  0.26177900  0.41537500  1
  O  O8  1  0.72301900  0.00578300  0.52671500  1
  O  O9  1  0.94630400  0.97301900  0.21723600  1
  O  O10  1  0.75578300  0.72906800  0.78276400  1
  O  O11  1  0.47906800  0.19630400  0.47328500  1
  O  O12  1  0.02698100  0.24421700  0.97328500  1
  O  O13  1  0.80369600  0.27698100  0.28276400  1
  O  O14  1  0.99421700  0.52093200  0.71723600  1
  O  O15  1  0.27093200  0.05369600  0.02671500  1
  O  O16  1  0.86991100  0.11859500  0.40715600  1
  O  O17  1  0.21275500  0.11991100  0.25131600  1
  O  O18  1  0.86859500  0.96143900  0.74868400  1
  O  O19  1  0.71143900  0.46275500  0.59284400  1
  O  O20  1  0.88008900  0.13140500  0.09284400  1
  O  O21  1  0.53724500  0.13008900  0.24868400  1
  O  O22  1  0.88140500  0.28856100  0.75131600  1
  O  O23  1  0.03856100  0.78724500  0.90715600  1
  O  O24  1  0.50369900  0.27000400  0.79168500  1
  O  O25  1  0.46201400  0.75369900  0.73369500  1
  O  O26  1  0.02000400  0.72831900  0.26630500  1
  O  O27  1  0.47831900  0.71201400  0.20831500  1
  O  O28  1  0.24630100  0.97999600  0.70831500  1
  O  O29  1  0.28798600  0.49630100  0.76630500  1
  O  O30  1  0.47703000  0.21598200  0.98492600  1
  O  O31  1  0.24210400  0.72703000  0.76104800  1
  O  O32  1  0.96598200  0.48105600  0.23895200  1
  O  O33  1  0.23105600  0.49210400  0.01507400  1
  O  O34  1  0.27297000  0.03401800  0.51507400  1
  O  O35  1  0.50789600  0.52297000  0.73895200  1
  O  O36  1  0.78401800  0.76894400  0.26104800  1
  O  O37  1  0.51894400  0.75789600  0.48492600  1
  O  O38  1  0.49173900  0.01280300  0.74300500  1
  O  O39  1  0.49873400  0.74173900  0.97893600  1
  O  O40  1  0.76280300  0.51979700  0.02106400  1
  O  O41  1  0.26979700  0.74873400  0.25699500  1
  O  O42  1  0.25826100  0.23719700  0.75699500  1
  O  O43  1  0.25126600  0.50826100  0.52106400  1
  O  O44  1  0.98719700  0.73020300  0.47893600  1
  O  O45  1  0.48020300  0.50126600  0.24300500  1
  O  O46  1  0.27168100  0.53798600  0.29168500  1
  O  O47  1  0.72999600  0.52168100  0.23369500  1
loop_
_geom_bond_atom_site_label_1
_geom_bond_atom_site_label_2
_geom_bond_distance
_geom_bond_site_symmetry_2
O0 Re5 1.905285 1_555
O0 Sr17 2.511419 1_656
O0 Sr8 2.734159 1_555
O0 Sr4 2.737872 1_556
O0 Sr10 2.972261 1_656
O1 Re7 1.905296 1_555
O1 Sr19 2.511405 1_556
O1 Sr9 2.734157 1_545
O1 Sr5 2.737867 1_545
O1 Sr8 2.972259 1_555
O2 Re4 1.905296 1_565
O2 Sr16 2.511412 1_554
O2 Sr10 2.734157 1_555
O2 Sr5 2.737867 1_555
O2 Sr11 2.972259 1_555
O3 Re6 1.905296 1_565
O3 Sr18 2.511416 1_554
O3 Sr11 2.734146 1_555
O3 Sr4 2.737866 1_555
O3 Sr9 2.972271 1_554
O4 Re5 1.905285 1_555
O4 Sr21 2.511419 1_555
O4 Sr12 2.734159 1_655
O4 Sr2 2.737872 1_655
O4 Sr14 2.972261 1_555
O5 Re7 1.905296 1_455
O5 Sr6 2.511405 1_545
O5 Sr13 2.734157 1_555
O5 Sr3 2.737867 1_556
O5 Sr12 2.972259 1_545
O6 Re4 1.905296 1_555
O6 Sr20 2.511412 1_555
O6 Sr14 2.734157 1_555
O6 Sr3 2.737867 1_555
O6 Sr15 2.972259 1_555
O7 Re6 1.905296 1_455
O7 Sr7 2.511416 1_555
O7 Sr15 2.734146 1_555
O7 Sr2 2.737866 1_555
O7 Sr13 2.972271 1_555
O8 Re7 1.919089 1_555
O8 Sr11 2.390698 1_545
O8 Sr5 2.596053 1_545
O8 Sr21 2.643418 1_545
O9 Re6 1.919089 1_565
O9 Sr10 2.390698 1_655
O9 Sr4 2.596053 1_555
O9 Sr6 2.643420 1_655
O10 Re5 1.919089 1_555
O10 Sr9 2.390698 1_555
O10 Sr4 2.596053 1_556
O10 Sr20 2.643418 1_555
O11 Re4 1.919089 1_555
O11 Sr8 2.390698 1_555
O11 Sr5 2.596053 1_545
O11 Sr7 2.643416 1_555
O12 Re7 1.919089 1_455
O12 Sr15 2.390698 1_556
O12 Sr3 2.596053 1_556
O12 Sr17 2.643418 1_556
O13 Re6 1.919089 1_555
O13 Sr14 2.390698 1_555
O13 Sr2 2.596053 1_655
O13 Sr19 2.643420 1_555
O14 Re5 1.919089 1_555
O14 Sr13 2.390698 1_655
O14 Sr2 2.596053 1_655
O14 Sr16 2.643418 1_655
O15 Re4 1.919089 1_555
O15 Sr12 2.390698 1_544
O15 Sr3 2.596053 1_555
O15 Sr18 2.643416 1_544
O16 Re6 1.907213 1_555
O16 Sr13 2.491160 1_655
O16 Sr11 2.508147 1_545
O16 Sr6 2.649605 1_645
O17 Re4 1.907213 1_555
O17 Sr15 2.491160 1_555
O17 Sr10 2.508147 1_545
O17 Sr7 2.649611 1_555
O18 Re7 1.907213 1_565
O18 Sr12 2.491160 1_655
O18 Sr9 2.508147 1_555
O18 Sr21 2.649611 1_555
O19 Re5 1.907213 1_555
O19 Sr14 2.491160 1_555
O19 Sr8 2.508147 1_555
O19 Sr20 2.649611 1_555
O20 Re6 1.907213 1_555
O20 Sr9 2.491160 1_544
O20 Sr15 2.508147 1_655
O20 Sr19 2.649605 1_555
O21 Re4 1.907213 1_555
O21 Sr11 2.491160 1_545
O21 Sr14 2.508147 1_555
O21 Sr18 2.649611 1_544
O22 Re7 1.907213 1_555
O22 Sr8 2.491160 1_555
O22 Sr13 2.508147 1_655
O22 Sr17 2.649611 1_656
O23 Re5 1.907213 1_455
O23 Sr10 2.491160 1_556
O23 Sr12 2.508147 1_555
O23 Sr16 2.649611 1_555
O24 Re1 1.945621 1_555
O24 Sr7 2.588941 1_555
O24 Sr0 2.609593 1_556
O24 Sr19 2.642204 1_556
O24 Sr8 2.891332 1_555
O25 Re3 1.945621 1_555
O25 Sr20 2.588948 1_555
O25 Sr1 2.609593 1_555
O25 Sr18 2.642205 1_555
O25 Sr9 2.891332 1_555
O26 Re0 1.945621 1_455
O26 Sr6 2.588953 1_555
O26 Sr1 2.609593 1_555
O26 Sr17 2.642199 1_555
O26 Sr10 2.891332 1_555
O27 Re2 1.945621 1_555
O27 Sr21 2.588948 1_555
O27 Sr0 2.609593 1_555
O27 Sr16 2.642199 1_554
O27 Sr11 2.891332 1_555
O28 Re1 1.945621 1_565
O28 Sr18 2.588941 1_555
O28 Sr1 2.609593 1_555
O28 Sr6 2.642204 1_555
O28 Sr12 2.891332 1_555
O29 Re3 1.945621 1_555
O29 Sr16 2.588948 1_555
O29 Sr0 2.609593 1_556
O29 Sr7 2.642205 1_555
O29 Sr13 2.891332 1_555
O30 Re1 1.987445 1_555
O30 Sr18 2.605013 1_545
O30 Sr3 2.657965 1_556
O30 Sr19 2.687434 1_556
O30 Sr14 2.719012 1_556
O30 Sr0 3.241610 1_556
O31 Re3 1.987445 1_555
O31 Sr16 2.605025 1_555
O31 Sr2 2.657965 1_555
O31 Sr18 2.687431 1_555
O31 Sr12 2.719012 1_555
O31 Sr1 3.241610 1_555
O32 Re0 1.987445 1_555
O32 Sr19 2.605017 1_555
O32 Sr2 2.657965 1_655
O32 Sr17 2.687423 1_655
O32 Sr15 2.719012 1_655
O32 Sr1 3.241610 1_655
O33 Re2 1.987445 1_555
O33 Sr17 2.605025 1_555
O33 Sr3 2.657965 1_555
O33 Sr16 2.687423 1_554
O33 Sr13 2.719012 1_554
O33 Sr0 3.241610 1_555
O34 Re1 1.987445 1_555
O34 Sr7 2.605013 1_555
O34 Sr5 2.657965 1_545
O34 Sr6 2.687434 1_545
O34 Sr10 2.719012 1_545
O34 Sr1 3.241610 1_545
O35 Re3 1.987445 1_555
O35 Sr20 2.605025 1_555
O35 Sr4 2.657965 1_556
O35 Sr7 2.687431 1_555
O35 Sr8 2.719012 1_555
O35 Sr0 3.241610 1_556
O36 Re0 1.987445 1_555
O36 Sr6 2.605017 1_655
O36 Sr4 2.657965 1_555
O36 Sr21 2.687423 1_555
O36 Sr11 2.719012 1_555
O36 Sr0 3.241610 1_555
O37 Re2 1.987445 1_555
O37 Sr21 2.605025 1_555
O37 Sr5 2.657965 1_555
O37 Sr20 2.687423 1_555
O37 Sr9 2.719012 1_555
O37 Sr1 3.241610 1_555
O38 Re1 1.908518 1_555
O38 Sr9 2.496544 1_545
O38 Sr5 2.697319 1_545
O38 Sr18 2.880026 1_545
O38 Sr1 2.958759 1_545
O38 Sr19 2.993641 1_556
O39 Re3 1.908518 1_555
O39 Sr11 2.496544 1_556
O39 Sr4 2.697319 1_556
O39 Sr16 2.880033 1_555
O39 Sr0 2.958759 1_556
O39 Sr18 2.993648 1_555
O40 Re0 1.908517 1_555
O40 Sr8 2.496543 1_554
O40 Sr4 2.697331 1_555
O40 Sr19 2.880019 1_555
O40 Sr0 2.958759 1_555
O40 Sr17 2.993635 1_655
O41 Re2 1.908526 1_555
O41 Sr10 2.496537 1_555
O41 Sr5 2.697324 1_555
O41 Sr17 2.880026 1_555
O41 Sr1 2.958753 1_555
O41 Sr16 2.993643 1_554
O42 Re1 1.908518 1_555
O42 Sr13 2.496544 1_555
O42 Sr3 2.697319 1_556
O42 Sr7 2.880026 1_555
O42 Sr0 2.958759 1_556
O42 Sr6 2.993641 1_545
O43 Re3 1.908518 1_555
O43 Sr15 2.496544 1_555
O43 Sr2 2.697319 1_555
O43 Sr20 2.880033 1_555
O43 Sr1 2.958759 1_555
O43 Sr7 2.993648 1_555
O44 Re0 1.908517 1_555
O44 Sr12 2.496543 1_655
O44 Sr2 2.697331 1_655
O44 Sr6 2.880019 1_655
O44 Sr1 2.958759 1_655
O44 Sr21 2.993635 1_555
O45 Re2 1.908526 1_555
O45 Sr14 2.496537 1_555
O45 Sr3 2.697324 1_555
O45 Sr21 2.880026 1_555
O45 Sr0 2.958753 1_555
O45 Sr20 2.993643 1_555
O46 Re2 1.945621 1_555
O46 Sr17 2.588948 1_555
O46 Sr1 2.609593 1_555
O46 Sr20 2.642199 1_555
O46 Sr15 2.891332 1_555
O47 Re0 1.945621 1_555
O47 Sr19 2.588953 1_555
O47 Sr0 2.609593 1_555
O47 Sr21 2.642199 1_555
O47 Sr14 2.891332 1_555
