# generated using pymatgen
data_Na3La2Mg2PS5O24
_symmetry_space_group_name_H-M   'P 1'
_cell_length_a   9.12409203
_cell_length_b   9.16458328
_cell_length_c   23.89544994
_cell_angle_alpha   90.28609841
_cell_angle_beta   89.77517721
_cell_angle_gamma   119.98279674
_symmetry_Int_Tables_number   1
_chemical_formula_structural   Na3La2Mg2PS5O24
_chemical_formula_sum   'Na9 La6 Mg6 P3 S15 O72'
_cell_volume   1730.68280191
_cell_formula_units_Z   3
loop_
 _symmetry_equiv_pos_site_id
 _symmetry_equiv_pos_as_xyz
  1  'x, y, z'
loop_
 _atom_site_type_symbol
 _atom_site_label
 _atom_site_symmetry_multiplicity
 _atom_site_fract_x
 _atom_site_fract_y
 _atom_site_fract_z
 _atom_site_occupancy
  Na  Na0  1  0.36693792  0.99176447  0.75002541  1
  Na  Na1  1  0.65653847  0.97144458  0.58866083  1
  Na  Na2  1  0.67447032  0.69232667  0.08258893  1
  Na  Na3  1  0.02885156  0.00187300  0.51002621  1
  Na  Na4  1  0.01818164  0.00358425  0.00837455  1
  Na  Na5  1  0.68215553  0.33632761  0.83284916  1
  Na  Na6  1  0.66739722  0.33385202  0.33270391  1
  Na  Na7  1  0.30569369  0.66393808  0.16734263  1
  Na  Na8  1  0.33075327  0.65857298  0.66748921  1
  La  La0  1  0.00074980  0.99948187  0.35528424  1
  La  La1  1  0.98526864  0.00023547  0.85479527  1
  La  La2  1  0.67070961  0.33397572  0.67868904  1
  La  La3  1  0.67650871  0.33611149  0.18104568  1
  La  La4  1  0.67374911  0.33627988  0.98311034  1
  La  La5  1  0.65460034  0.32831891  0.48257537  1
  Mg  Mg0  1  0.00182326  0.99957377  0.65259856  1
  Mg  Mg1  1  0.01132056  0.99944875  0.15232757  1
  Mg  Mg2  1  0.31962398  0.66930229  0.01692414  1
  Mg  Mg3  1  0.32700154  0.66920698  0.51640736  1
  Mg  Mg4  1  0.33281144  0.66617240  0.31505167  1
  Mg  Mg5  1  0.34482385  0.66831714  0.81492363  1
  P  P0  1  0.69008627  0.98599078  0.74594843  1
  P  P1  1  0.34618798  0.01086424  0.58509111  1
  P  P2  1  0.98306332  0.65573568  0.08349232  1
  S  S0  1  0.29268381  0.98534640  0.24863899  1
  S  S1  1  0.69128940  0.70819110  0.24792190  1
  S  S2  1  0.01718957  0.30415263  0.24913604  1
  S  S3  1  0.28913555  0.30102787  0.74890737  1
  S  S4  1  0.01336001  0.70966245  0.74970226  1
  S  S5  1  0.98638022  0.33133612  0.58160581  1
  S  S6  1  0.66699242  0.65368979  0.58251059  1
  S  S7  1  0.66723232  0.01308638  0.08288152  1
  S  S8  1  0.35027539  0.33573748  0.08285942  1
  S  S9  1  0.60495225  0.66150126  0.91924683  1
  S  S10  1  0.06064175  0.39638322  0.91587709  1
  S  S11  1  0.33569811  0.94550628  0.91505038  1
  S  S12  1  0.60641875  0.94185724  0.41732590  1
  S  S13  1  0.33487150  0.39669484  0.41636368  1
  S  S14  1  0.05503040  0.66217419  0.41635193  1
  O  O0  1  0.21736251  0.01063780  0.30058149  1
  O  O1  1  0.79774021  0.79017272  0.29803475  1
  O  O2  1  0.99551592  0.20571620  0.30078130  1
  O  O3  1  0.21598498  0.19638004  0.79991150  1
  O  O4  1  0.99137007  0.78568365  0.80176953  1
  O  O5  1  0.79866923  0.01091075  0.79851700  1
  O  O6  1  0.77965395  0.97743074  0.69205069  1
  O  O7  1  0.18694187  0.21348410  0.69907836  1
  O  O8  1  0.03047050  0.81651177  0.70078054  1
  O  O9  1  0.77684296  0.80438033  0.19650323  1
  O  O10  1  0.02654088  0.21292158  0.19927346  1
  O  O11  1  0.18984124  0.97345168  0.19928928  1
  O  O12  1  0.91509714  0.36903447  0.63238879  1
  O  O13  1  0.46341251  0.08904888  0.63790444  1
  O  O14  1  0.63847190  0.54913887  0.63295687  1
  O  O15  1  0.90002499  0.53885926  0.13483372  1
  O  O16  1  0.63195855  0.08804852  0.13253986  1
  O  O17  1  0.46616429  0.37095687  0.13159847  1
  O  O18  1  0.42718695  0.29955882  0.03309512  1
  O  O19  1  0.85541855  0.56866896  0.03357964  1
  O  O20  1  0.69617359  0.12200927  0.03324818  1
  O  O21  1  0.43934520  0.13567312  0.53570676  1
  O  O22  1  0.69892633  0.57340302  0.53336530  1
  O  O23  1  0.86616005  0.29738585  0.53412547  1
  O  O24  1  0.51970928  0.66388398  0.97172293  1
  O  O25  1  0.14683426  0.48192675  0.96768692  1
  O  O26  1  0.33253757  0.85162899  0.96482438  1
  O  O27  1  0.52496105  0.85678615  0.47022424  1
  O  O28  1  0.33353872  0.48392728  0.46782736  1
  O  O29  1  0.14559974  0.66772846  0.46763550  1
  O  O30  1  0.14015850  0.65782122  0.36448758  1
  O  O31  1  0.51334190  0.85316541  0.36689765  1
  O  O32  1  0.33739461  0.48374022  0.36470263  1
  O  O33  1  0.14726562  0.48479334  0.86435135  1
  O  O34  1  0.34101568  0.86450960  0.86163642  1
  O  O35  1  0.51571953  0.66031508  0.86831858  1
  O  O36  1  0.03530535  0.81589778  0.41755054  1
  O  O37  1  0.78019357  0.96223248  0.41753197  1
  O  O38  1  0.18244372  0.22251308  0.41801910  1
  O  O39  1  0.04096575  0.22365345  0.91778459  1
  O  O40  1  0.18233714  0.96562024  0.91678471  1
  O  O41  1  0.77906878  0.81437974  0.92074487  1
  O  O42  1  0.99040020  0.17251478  0.59006245  1
  O  O43  1  0.17144781  0.99456879  0.59390819  1
  O  O44  1  0.81740573  0.82514473  0.58987208  1
  O  O45  1  0.98767138  0.82570617  0.09271141  1
  O  O46  1  0.82069429  0.99836187  0.09141921  1
  O  O47  1  0.18186747  0.18773058  0.09279238  1
  O  O48  1  0.66191043  0.14322004  0.74546679  1
  O  O49  1  0.46174598  0.31789206  0.74436173  1
  O  O50  1  0.86391312  0.53778102  0.74547110  1
  O  O51  1  0.66960726  0.53476684  0.24576121  1
  O  O52  1  0.86349602  0.32403549  0.24706457  1
  O  O53  1  0.46586828  0.13642780  0.24484520  1
  O  O54  1  0.62576004  0.50875392  0.91743285  1
  O  O55  1  0.88489276  0.37350582  0.91452219  1
  O  O56  1  0.48987520  0.11886909  0.91590669  1
  O  O57  1  0.62784908  0.11601827  0.41635197  1
  O  O58  1  0.48880839  0.37546436  0.41527420  1
  O  O59  1  0.88068112  0.50979477  0.41646744  1
  O  O60  1  0.34248069  0.49201391  0.07412559  1
  O  O61  1  0.15754150  0.67455538  0.07330078  1
  O  O62  1  0.51991691  0.84108453  0.07398323  1
  O  O63  1  0.34193027  0.84246198  0.57449763  1
  O  O64  1  0.51544893  0.67126175  0.57420852  1
  O  O65  1  0.15491212  0.47603642  0.57132037  1
  O  O66  1  0.30528722  0.83039879  0.25318240  1
  O  O67  1  0.52358332  0.69532673  0.25415403  1
  O  O68  1  0.17052881  0.47354050  0.25327444  1
  O  O69  1  0.30604252  0.46943465  0.75518046  1
  O  O70  1  0.17062331  0.69889471  0.75368601  1
  O  O71  1  0.51131924  0.82806341  0.75271053  1
loop_
_geom_bond_atom_site_label_1
_geom_bond_atom_site_label_2
_geom_bond_distance
_geom_bond_site_symmetry_2
Na0 O48 2.333958 1_565
Na0 O70 2.369818 1_555
Na0 O71 2.442792 1_555
Na0 O49 2.668088 1_565
Na0 O13 2.822888 1_565
Na0 O34 2.877383 1_555
Na0 O8 2.910375 1_555
Na1 O64 2.408131 1_555
Na1 O44 2.433210 1_555
Na1 O63 2.522682 1_555
Na1 O42 2.658162 1_565
Na1 O6 2.706896 1_555
Na1 O13 2.742354 1_565
Na1 O23 2.930568 1_565
Na1 O27 3.048112 1_555
Na2 O62 2.411635 1_555
Na2 O46 2.438670 1_555
Na2 O45 2.496028 1_555
Na2 O60 2.651355 1_555
Na2 O19 2.687593 1_555
Na2 O17 2.842586 1_555
Na2 O9 2.893066 1_555
Na2 O24 2.955443 1_554
Na3 O43 2.413235 1_545
Na3 O42 2.596082 1_455
Na3 O44 2.620007 1_445
Na3 O36 2.802331 1_545
Na3 O38 2.841528 1_555
Na4 O45 2.524107 1_445
Na4 O47 2.572585 1_555
Na4 O46 2.659624 1_445
Na4 O40 2.764373 1_544
Na4 O41 2.893032 1_444
Na4 O39 2.901338 1_554
Na5 O55 2.595838 1_555
Na5 O48 2.676834 1_555
Na5 O50 2.733028 1_555
Na5 O56 2.739754 1_555
Na5 O54 2.760361 1_555
Na5 O49 2.869479 1_555
Na6 O59 2.693578 1_555
Na6 O58 2.698493 1_555
Na6 O57 2.724899 1_555
Na6 O52 2.743618 1_555
Na6 O51 2.776276 1_555
Na6 O53 2.780187 1_555
Na7 O66 2.551270 1_555
Na7 O68 2.578200 1_555
Na7 O61 2.654049 1_555
Na7 O67 2.791597 1_555
Na7 O60 2.836277 1_555
Na7 O62 2.874583 1_555
Na8 O71 2.590551 1_555
Na8 O70 2.649907 1_555
Na8 O69 2.662361 1_555
Na8 O64 2.756623 1_555
Na8 O63 2.766223 1_555
Na8 O65 2.821588 1_555
La0 O2 2.320783 1_465
La0 O0 2.324719 1_565
La0 O1 2.329035 1_455
La0 O37 2.381937 1_455
La0 O36 2.388049 1_555
La0 O38 2.403238 1_565
La1 O5 2.214156 1_555
La1 O4 2.357710 1_545
La1 O3 2.366941 1_655
La1 O39 2.377264 1_655
La1 O41 2.392680 1_545
La1 O40 2.474581 1_645
La2 O13 2.305412 1_555
La2 O48 2.344231 1_555
La2 O12 2.359550 1_555
La2 O14 2.402659 1_555
La2 O49 2.411937 1_555
La2 O50 2.417465 1_555
La3 O15 2.246421 1_555
La3 O52 2.371337 1_555
La3 O16 2.393900 1_555
La3 O51 2.407406 1_555
La3 O17 2.411543 1_555
La3 O53 2.420002 1_555
La4 O19 2.280227 1_556
La4 O20 2.400070 1_556
La4 O18 2.413929 1_556
La4 O55 2.416157 1_555
La4 O54 2.423857 1_555
La4 O56 2.451849 1_555
La5 O21 2.263491 1_555
La5 O58 2.395936 1_555
La5 O22 2.397947 1_555
La5 O57 2.418029 1_555
La5 O23 2.427515 1_555
La5 O59 2.467439 1_555
Mg0 O43 2.101780 1_555
Mg0 O7 2.147809 1_565
Mg0 O6 2.148206 1_455
Mg0 O8 2.160660 1_555
Mg0 O44 2.222788 1_455
Mg0 O42 2.223931 1_465
Mg1 O45 2.060977 1_455
Mg1 O11 2.091420 1_555
Mg1 O47 2.178568 1_565
Mg1 O10 2.193838 1_565
Mg1 O9 2.250714 1_455
Mg1 O46 2.268463 1_455
Mg2 O61 2.014698 1_555
Mg2 O25 2.026602 1_554
Mg2 O26 2.044185 1_554
Mg2 O24 2.139273 1_554
Mg2 O62 2.190835 1_555
Mg2 O60 2.216925 1_555
Mg3 O29 2.022476 1_555
Mg3 O63 2.056649 1_555
Mg3 O28 2.077342 1_555
Mg3 O27 2.082157 1_555
Mg3 O65 2.133081 1_555
Mg3 O64 2.202366 1_555
Mg4 O32 2.072377 1_555
Mg4 O30 2.083569 1_555
Mg4 O31 2.087660 1_555
Mg4 O67 2.176663 1_555
Mg4 O68 2.206055 1_555
Mg4 O66 2.217398 1_555
Mg5 O35 2.048278 1_555
Mg5 O71 2.107657 1_555
Mg5 O33 2.108548 1_555
Mg5 O34 2.126532 1_555
Mg5 O69 2.195162 1_555
Mg5 O70 2.283322 1_555
O0 S0 1.488695 1_545
O1 S1 1.487470 1_555
O2 S2 1.485534 1_655
O3 S3 1.488678 1_555
O4 S4 1.484152 1_655
O5 P0 1.546724 1_545
O6 P0 1.545164 1_555
O7 S3 1.477266 1_555
O8 S4 1.485612 1_555
O9 S1 1.487143 1_555
O10 S2 1.478693 1_555
O11 S0 1.479233 1_555
O12 S5 1.493024 1_555
O13 P1 1.576583 1_555
O14 S6 1.482815 1_555
O15 P2 1.556006 1_555
O16 S7 1.481025 1_555
O17 S8 1.497806 1_555
O18 S8 1.496163 1_555
O19 P2 1.577391 1_555
O20 S7 1.489539 1_555
O21 P1 1.567553 1_555
O22 S6 1.486050 1_555
O23 S5 1.500787 1_555
O24 S9 1.478786 1_555
O25 S10 1.465436 1_555
O26 S11 1.463143 1_555
O27 S12 1.476929 1_555
O28 S13 1.466740 1_555
O29 S14 1.467127 1_555
O30 S14 1.470959 1_555
O31 S12 1.463645 1_555
O32 S13 1.466993 1_555
O33 S10 1.469479 1_555
O34 S11 1.486097 1_555
O35 S9 1.463817 1_555
O36 S14 1.506963 1_555
O37 S12 1.500986 1_555
O38 S13 1.505074 1_555
O39 S10 1.502265 1_555
O40 S11 1.500318 1_555
O41 S9 1.504456 1_555
O42 S5 1.488995 1_555
O43 P1 1.538938 1_565
O44 S6 1.492386 1_555
O45 P2 1.551754 1_555
O46 S7 1.487199 1_565
O47 S8 1.474606 1_555
O48 P0 1.585233 1_545
O49 S3 1.507177 1_555
O50 S4 1.484436 1_655
O51 S1 1.500957 1_555
O52 S2 1.502720 1_655
O53 S0 1.495192 1_545
O54 S9 1.504163 1_555
O55 S10 1.510195 1_655
O56 S11 1.506531 1_545
O57 S12 1.508230 1_545
O58 S13 1.511307 1_555
O59 S14 1.503472 1_655
O60 S8 1.484837 1_555
O61 P2 1.531771 1_455
O62 S7 1.489261 1_565
O63 P1 1.543932 1_565
O64 S6 1.483969 1_555
O65 S5 1.464819 1_455
O66 S0 1.485377 1_555
O67 S1 1.481743 1_555
O68 S2 1.485210 1_555
O69 S3 1.479254 1_555
O70 S4 1.490095 1_555
O71 P0 1.556311 1_555
