# generated using pymatgen
data_NaHf2Al2P3(SO8)3
_symmetry_space_group_name_H-M   'P 1'
_cell_length_a   8.60700043
_cell_length_b   8.61769030
_cell_length_c   22.27277311
_cell_angle_alpha   90.16580033
_cell_angle_beta   89.50575104
_cell_angle_gamma   120.04290336
_symmetry_Int_Tables_number   1
_chemical_formula_structural   NaHf2Al2P3(SO8)3
_chemical_formula_sum   'Na3 Hf6 Al6 P9 S9 O72'
_cell_volume   1430.02281708
_cell_formula_units_Z   3
loop_
 _symmetry_equiv_pos_site_id
 _symmetry_equiv_pos_as_xyz
  1  'x, y, z'
loop_
 _atom_site_type_symbol
 _atom_site_label
 _atom_site_symmetry_multiplicity
 _atom_site_fract_x
 _atom_site_fract_y
 _atom_site_fract_z
 _atom_site_occupancy
  Na  Na0  1  0.67968553  0.33540502  0.83406904  1
  Na  Na1  1  0.66197367  0.34072293  0.32998072  1
  Na  Na2  1  0.34848330  0.67632374  0.17282032  1
  Hf  Hf0  1  0.00572176  0.99274191  0.35445740  1
  Hf  Hf1  1  0.99302993  0.00150603  0.85420647  1
  Hf  Hf2  1  0.99383303  0.99222833  0.64708752  1
  Hf  Hf3  1  0.99974004  0.99848158  0.14375381  1
  Hf  Hf4  1  0.33439935  0.66311264  0.02501715  1
  Hf  Hf5  1  0.32816433  0.66326646  0.52230303  1
  Al  Al0  1  0.67188301  0.33202530  0.68923429  1
  Al  Al1  1  0.64964125  0.32702692  0.18704378  1
  Al  Al2  1  0.67072355  0.32514714  0.98210283  1
  Al  Al3  1  0.66514734  0.33937861  0.47471973  1
  Al  Al4  1  0.33250445  0.66185364  0.31427163  1
  Al  Al5  1  0.32078593  0.66746626  0.81140761  1
  P  P0  1  0.30249260  0.99461700  0.24948264  1
  P  P1  1  0.69623289  0.69579149  0.24979759  1
  P  P2  1  0.99778421  0.69652411  0.75024797  1
  P  P3  1  0.69117249  0.99580424  0.75070706  1
  P  P4  1  0.66720479  0.06147203  0.08457428  1
  P  P5  1  0.39516762  0.33119258  0.08248329  1
  P  P6  1  0.03981254  0.38988002  0.91501099  1
  P  P7  1  0.34426315  0.38508435  0.41468944  1
  P  P8  1  0.03961924  0.65045080  0.41517150  1
  S  S0  1  0.99885798  0.30043436  0.25016196  1
  S  S1  1  0.30190792  0.30237114  0.74942178  1
  S  S2  1  0.93728487  0.32974689  0.58320388  1
  S  S3  1  0.39607779  0.06459974  0.58349270  1
  S  S4  1  0.66676959  0.60525059  0.58376412  1
  S  S5  1  0.93872998  0.60634967  0.08392648  1
  S  S6  1  0.61392475  0.65200831  0.91458425  1
  S  S7  1  0.34396779  0.96137880  0.91515595  1
  S  S8  1  0.61751428  0.96319403  0.41618651  1
  O  O0  1  0.21428417  0.03190473  0.30487034  1
  O  O1  1  0.81750896  0.78732438  0.30497144  1
  O  O2  1  0.96572079  0.18514085  0.30351642  1
  O  O3  1  0.22069987  0.18068349  0.80189959  1
  O  O4  1  0.96038973  0.78746728  0.80407717  1
  O  O5  1  0.82355146  0.04070511  0.80376429  1
  O  O6  1  0.78511212  0.96478642  0.69501193  1
  O  O7  1  0.18458268  0.21696211  0.69623400  1
  O  O8  1  0.03235279  0.82154642  0.69474916  1
  O  O9  1  0.78559474  0.81895768  0.19467651  1
  O  O10  1  0.03234272  0.21714214  0.19665699  1
  O  O11  1  0.18037080  0.96368427  0.19484226  1
  O  O12  1  0.85691156  0.35613355  0.63781465  1
  O  O13  1  0.50173826  0.14622545  0.63772826  1
  O  O14  1  0.64133105  0.49912660  0.63804398  1
  O  O15  1  0.86082624  0.50117681  0.13827555  1
  O  O16  1  0.64137447  0.14674192  0.14070701  1
  O  O17  1  0.50479512  0.36574967  0.13916664  1
  O  O18  1  0.48218823  0.31489338  0.02454246  1
  O  O19  1  0.84095905  0.52815576  0.02796116  1
  O  O20  1  0.69383362  0.16430486  0.02605981  1
  O  O21  1  0.47801597  0.16966771  0.52874710  1
  O  O22  1  0.69374391  0.52640350  0.52893251  1
  O  O23  1  0.83264083  0.30534365  0.52898517  1
  O  O24  1  0.53890622  0.68756898  0.96963057  1
  O  O25  1  0.15370067  0.47149215  0.97156422  1
  O  O26  1  0.31339445  0.85366098  0.96975069  1
  O  O27  1  0.54041594  0.85335640  0.47160977  1
  O  O28  1  0.31557172  0.46844634  0.47317116  1
  O  O29  1  0.15449810  0.68773678  0.47290536  1
  O  O30  1  0.13485928  0.62688040  0.36104806  1
  O  O31  1  0.50421902  0.87897924  0.36387036  1
  O  O32  1  0.37576143  0.50803944  0.36135689  1
  O  O33  1  0.13460228  0.50721404  0.85992890  1
  O  O34  1  0.37263813  0.87539653  0.86210147  1
  O  O35  1  0.50346576  0.62903488  0.86192862  1
  O  O36  1  0.01593132  0.81517547  0.40909251  1
  O  O37  1  0.79723700  0.98502331  0.40916217  1
  O  O38  1  0.17484052  0.20170265  0.40733890  1
  O  O39  1  0.02061249  0.20301890  0.90606350  1
  O  O40  1  0.18311705  0.97939853  0.90713342  1
  O  O41  1  0.79533695  0.81419577  0.90867919  1
  O  O42  1  0.96029737  0.17138707  0.58993444  1
  O  O43  1  0.21527812  0.04505383  0.59026041  1
  O  O44  1  0.82943521  0.78653093  0.58939519  1
  O  O45  1  0.95951538  0.78641131  0.08823132  1
  O  O46  1  0.83032444  0.03541752  0.09201948  1
  O  O47  1  0.20744973  0.16579738  0.08968083  1
  O  O48  1  0.67207308  0.16176838  0.73978652  1
  O  O49  1  0.47966616  0.31900078  0.73932476  1
  O  O50  1  0.82882421  0.51344783  0.73953606  1
  O  O51  1  0.68368145  0.51274525  0.24096650  1
  O  O52  1  0.84072782  0.32090633  0.24179810  1
  O  O53  1  0.48816939  0.16301999  0.24234519  1
  O  O54  1  0.63400794  0.49313229  0.92204411  1
  O  O55  1  0.85154939  0.36855734  0.92364483  1
  O  O56  1  0.50417288  0.14182132  0.92167905  1
  O  O57  1  0.63398402  0.14078795  0.42555018  1
  O  O58  1  0.50955162  0.36254553  0.42429566  1
  O  O59  1  0.85478504  0.48221801  0.42520734  1
  O  O60  1  0.36914915  0.49907242  0.07804843  1
  O  O61  1  0.12376887  0.63079916  0.07953156  1
  O  O62  1  0.49609251  0.87098412  0.07922661  1
  O  O63  1  0.37653539  0.88427406  0.57793627  1
  O  O64  1  0.50873222  0.62907915  0.57872830  1
  O  O65  1  0.11878356  0.49193113  0.57867223  1
  O  O66  1  0.31615139  0.82635373  0.26073214  1
  O  O67  1  0.51084398  0.67737370  0.25982694  1
  O  O68  1  0.16192676  0.47732279  0.25765782  1
  O  O69  1  0.31889767  0.47654746  0.75993759  1
  O  O70  1  0.16371110  0.68130200  0.75995276  1
  O  O71  1  0.51410277  0.82835910  0.76427449  1
loop_
_geom_bond_atom_site_label_1
_geom_bond_atom_site_label_2
_geom_bond_distance
_geom_bond_site_symmetry_2
Na0 O55 2.423765 1_555
Na0 O56 2.513426 1_555
Na0 O54 2.519508 1_555
Na0 O50 2.536738 1_555
Na0 O48 2.557164 1_555
Na0 O49 2.693336 1_555
Na1 O51 2.428268 1_555
Na1 O53 2.476303 1_555
Na1 O58 2.523172 1_555
Na1 O52 2.542212 1_555
Na1 O59 2.599792 1_555
Na1 O57 2.674767 1_555
Na2 O67 2.396299 1_555
Na2 O66 2.432938 1_555
Na2 O68 2.509757 1_555
Na2 O62 2.571817 1_555
Na2 O60 2.658460 1_555
Na2 O61 2.741681 1_555
Hf0 O0 1.979242 1_565
Hf0 O36 1.994322 1_555
Hf0 O1 2.029992 1_455
Hf0 O38 2.035064 1_565
Hf0 O37 2.133588 1_455
Hf0 O2 2.178103 1_465
Hf1 O39 1.996597 1_655
Hf1 O5 2.006991 1_555
Hf1 O41 2.048996 1_545
Hf1 O4 2.049981 1_545
Hf1 O40 2.109353 1_645
Hf1 O3 2.126669 1_655
Hf2 O8 1.975783 1_655
Hf2 O6 1.991369 1_555
Hf2 O44 2.074182 1_555
Hf2 O7 2.116461 1_665
Hf2 O43 2.129531 1_665
Hf2 O42 2.133402 1_565
Hf3 O46 2.012738 1_565
Hf3 O47 2.029136 1_665
Hf3 O9 2.048398 1_555
Hf3 O11 2.073901 1_655
Hf3 O45 2.085633 1_555
Hf3 O10 2.116909 1_665
Hf4 O60 1.980428 1_555
Hf4 O25 2.003029 1_554
Hf4 O62 2.030720 1_555
Hf4 O24 2.063269 1_554
Hf4 O61 2.072892 1_555
Hf4 O26 2.134744 1_554
Hf5 O29 1.958202 1_555
Hf5 O28 1.958867 1_555
Hf5 O27 2.067438 1_555
Hf5 O65 2.076400 1_555
Hf5 O63 2.130118 1_555
Hf5 O64 2.139135 1_555
Al0 O50 1.850824 1_555
Al0 O48 1.852694 1_555
Al0 O12 1.878719 1_555
Al0 O13 1.922196 1_555
Al0 O49 1.943528 1_555
Al0 O14 1.958725 1_555
Al1 O17 1.801185 1_555
Al1 O16 1.834471 1_555
Al1 O53 1.860093 1_555
Al1 O51 1.901360 1_555
Al1 O15 1.994994 1_555
Al1 O52 2.077704 1_555
Al2 O20 1.790701 1_556
Al2 O18 1.834388 1_556
Al2 O55 1.908498 1_555
Al2 O19 1.923419 1_556
Al2 O56 2.028635 1_555
Al2 O54 2.112220 1_555
Al3 O59 1.833166 1_555
Al3 O58 1.841094 1_555
Al3 O22 1.926880 1_555
Al3 O57 1.932547 1_555
Al3 O21 1.949165 1_555
Al3 O23 2.020047 1_555
Al4 O32 1.871997 1_555
Al4 O30 1.878295 1_555
Al4 O67 1.899411 1_555
Al4 O66 1.914129 1_555
Al4 O68 1.989198 1_555
Al4 O31 2.037888 1_555
Al5 O70 1.828744 1_555
Al5 O33 1.845508 1_555
Al5 O71 1.860452 1_555
Al5 O34 1.970051 1_555
Al5 O69 1.996003 1_555
Al5 O35 2.098132 1_555
O0 P0 1.557993 1_545
O1 P1 1.553702 1_555
O2 S0 1.482544 1_555
O3 S1 1.487775 1_555
O4 P2 1.547807 1_555
O5 P3 1.556775 1_545
O6 P3 1.568811 1_555
O7 S1 1.495398 1_555
O8 P2 1.567700 1_455
O9 P1 1.548944 1_555
O10 S0 1.488186 1_455
O11 P0 1.548090 1_555
O12 S2 1.466668 1_555
O13 S3 1.467840 1_555
O14 S4 1.465351 1_555
O15 S5 1.456096 1_555
O16 P4 1.518535 1_555
O17 P5 1.519839 1_555
O18 P5 1.527653 1_555
O19 S5 1.470182 1_555
O20 P4 1.527922 1_555
O21 S3 1.468381 1_555
O22 S4 1.468099 1_555
O23 S2 1.463343 1_555
O24 S6 1.481984 1_555
O25 P6 1.538818 1_555
O26 S7 1.471723 1_555
O27 S8 1.491246 1_555
O28 P7 1.562168 1_555
O29 P8 1.560718 1_555
O30 P8 1.521399 1_555
O31 S8 1.463362 1_555
O32 P7 1.523595 1_555
O33 P6 1.535267 1_555
O34 S7 1.476231 1_555
O35 S6 1.465579 1_555
O36 P8 1.538309 1_555
O37 S8 1.468777 1_555
O38 P7 1.531604 1_555
O39 P6 1.546732 1_555
O40 S7 1.480682 1_555
O41 S6 1.490355 1_555
O42 S2 1.482042 1_555
O43 S3 1.485368 1_555
O44 S4 1.492745 1_555
O45 S5 1.473259 1_555
O46 P4 1.539130 1_555
O47 P5 1.535801 1_555
O48 P3 1.539434 1_545
O49 S1 1.478720 1_555
O50 P2 1.538617 1_555
O51 P1 1.538376 1_555
O52 S0 1.470785 1_555
O53 P0 1.536246 1_545
O54 S6 1.473372 1_555
O55 P6 1.546956 1_655
O56 S7 1.481775 1_545
O57 S8 1.478951 1_545
O58 P7 1.545825 1_555
O59 P8 1.539164 1_655
O60 P5 1.574346 1_555
O61 S5 1.500625 1_455
O62 P4 1.568145 1_565
O63 S3 1.481897 1_565
O64 S4 1.478991 1_555
O65 S2 1.488581 1_455
O66 P0 1.533792 1_555
O67 P1 1.536761 1_555
O68 S0 1.477083 1_455
O69 S1 1.451900 1_555
O70 P2 1.515443 1_455
O71 P3 1.512873 1_555
