# generated using pymatgen
data_Na10Y4Zn4Si3(S3O16)3
_symmetry_space_group_name_H-M   'P 1'
_cell_length_a   18.46910572
_cell_length_b   9.17057325
_cell_length_c   23.04919709
_cell_angle_alpha   90.10254689
_cell_angle_beta   89.95062795
_cell_angle_gamma   120.03432036
_symmetry_Int_Tables_number   1
_chemical_formula_structural   Na10Y4Zn4Si3(S3O16)3
_chemical_formula_sum   'Na30 Y12 Zn12 Si9 S27 O144'
_cell_volume   3379.69718986
_cell_formula_units_Z   3
loop_
 _symmetry_equiv_pos_site_id
 _symmetry_equiv_pos_as_xyz
  1  'x, y, z'
loop_
 _atom_site_type_symbol
 _atom_site_label
 _atom_site_symmetry_multiplicity
 _atom_site_fract_x
 _atom_site_fract_y
 _atom_site_fract_z
 _atom_site_occupancy
  Na  Na0  1  0.19111974  0.36249428  0.24173219  1
  Na  Na1  1  0.69057398  0.36734444  0.24170113  1
  Na  Na2  1  0.99006093  0.63928080  0.25369994  1
  Na  Na3  1  0.49129310  0.63153047  0.26259556  1
  Na  Na4  1  0.32464336  0.65173584  0.74040550  1
  Na  Na5  1  0.82194918  0.64666360  0.73984113  1
  Na  Na6  1  0.99097040  0.34520103  0.75146418  1
  Na  Na7  1  0.19204272  0.01271842  0.73805625  1
  Na  Na8  1  0.69308382  0.01250990  0.73791682  1
  Na  Na9  1  0.52243844  0.70029766  0.56857022  1
  Na  Na10  1  0.32481431  0.96545914  0.58903484  1
  Na  Na11  1  0.82457805  0.96089970  0.58821484  1
  Na  Na12  1  0.15480989  0.98328057  0.07534003  1
  Na  Na13  1  0.65467898  0.98247091  0.07502644  1
  Na  Na14  1  0.32692728  0.68228245  0.09276684  1
  Na  Na15  1  0.82636691  0.68275492  0.09332696  1
  Na  Na16  1  0.65764279  0.01318041  0.42592066  1
  Na  Na17  1  0.35691650  0.67757165  0.40628320  1
  Na  Na18  1  0.02322327  0.00458155  0.49496553  1
  Na  Na19  1  0.51470366  0.01812282  0.49349131  1
  Na  Na20  1  0.01154652  0.03494884  0.99435399  1
  Na  Na21  1  0.51169895  0.03470386  0.99364255  1
  Na  Na22  1  0.34921247  0.32191352  0.82642133  1
  Na  Na23  1  0.83373271  0.31411848  0.82936813  1
  Na  Na24  1  0.34534926  0.33770945  0.33012670  1
  Na  Na25  1  0.84073315  0.34789367  0.32661498  1
  Na  Na26  1  0.17559279  0.65469225  0.16055388  1
  Na  Na27  1  0.67633179  0.65469009  0.16305378  1
  Na  Na28  1  0.16845711  0.67924306  0.65464965  1
  Na  Na29  1  0.66813894  0.66447974  0.65611438  1
  Y  Y0  1  0.00329976  0.99843992  0.64718782  1
  Y  Y1  1  0.50326928  0.00797784  0.65025136  1
  Y  Y2  1  0.99575184  0.00633909  0.15101454  1
  Y  Y3  1  0.49632097  0.00580817  0.15037442  1
  Y  Y4  1  0.33013323  0.33067923  0.98114853  1
  Y  Y5  1  0.83030208  0.33189235  0.98101170  1
  Y  Y6  1  0.32813227  0.32781997  0.48079262  1
  Y  Y7  1  0.83150057  0.33743238  0.48430500  1
  Y  Y8  1  0.17272140  0.67447876  0.31531073  1
  Y  Y9  1  0.67049716  0.67100505  0.31873911  1
  Y  Y10  1  0.17272790  0.67745006  0.82047893  1
  Y  Y11  1  0.66671107  0.66918402  0.81817590  1
  Zn  Zn0  1  0.98652804  0.97439911  0.34726465  1
  Zn  Zn1  1  0.49355776  0.96911579  0.34681058  1
  Zn  Zn2  1  0.98973115  0.00699131  0.84931599  1
  Zn  Zn3  1  0.49195894  0.01316633  0.84823486  1
  Zn  Zn4  1  0.33357411  0.27726173  0.67596143  1
  Zn  Zn5  1  0.83169579  0.29303835  0.67392876  1
  Zn  Zn6  1  0.33065043  0.36333035  0.17825823  1
  Zn  Zn7  1  0.82918752  0.36198876  0.17781137  1
  Zn  Zn8  1  0.16269739  0.62964944  0.01444295  1
  Zn  Zn9  1  0.66224643  0.63014872  0.01473490  1
  Zn  Zn10  1  0.15765589  0.68260685  0.51498358  1
  Zn  Zn11  1  0.66335776  0.68991609  0.50939290  1
  Si  Si0  1  0.34871468  0.68895992  0.24818348  1
  Si  Si1  1  0.84960795  0.69204026  0.24713372  1
  Si  Si2  1  0.35177969  0.00483574  0.74942957  1
  Si  Si3  1  0.85235236  0.00605275  0.74819296  1
  Si  Si4  1  0.18059068  0.01901496  0.58356955  1
  Si  Si5  1  0.68071683  0.02049632  0.58218988  1
  Si  Si6  1  0.18150332  0.33560627  0.08503848  1
  Si  Si7  1  0.68137507  0.33610681  0.08456122  1
  Si  Si8  1  0.51481429  0.67322974  0.41456905  1
  S  S0  1  0.14759920  0.00527696  0.25085302  1
  S  S1  1  0.65075578  0.00545489  0.25041660  1
  S  S2  1  0.99672732  0.29771509  0.25492737  1
  S  S3  1  0.49798376  0.29601166  0.25451109  1
  S  S4  1  0.14807095  0.29367824  0.75476771  1
  S  S5  1  0.65232180  0.29628846  0.75452963  1
  S  S6  1  0.99774166  0.70113930  0.75504640  1
  S  S7  1  0.49751114  0.70269762  0.75274337  1
  S  S8  1  0.48351509  0.34226863  0.58388268  1
  S  S9  1  0.98537857  0.34382154  0.58581886  1
  S  S10  1  0.33142585  0.62851428  0.58696561  1
  S  S11  1  0.82888374  0.62838369  0.58821533  1
  S  S12  1  0.48626580  0.62975080  0.08493151  1
  S  S13  1  0.98658237  0.63045407  0.08484736  1
  S  S14  1  0.32952181  0.03607185  0.08461045  1
  S  S15  1  0.82988747  0.03711969  0.08436598  1
  S  S16  1  0.32308095  0.67991448  0.91859140  1
  S  S17  1  0.82158939  0.67956033  0.91719186  1
  S  S18  1  0.01754631  0.36065131  0.91512670  1
  S  S19  1  0.51775928  0.35952359  0.91757551  1
  S  S20  1  0.15922985  0.96376619  0.91925117  1
  S  S21  1  0.66015822  0.96292122  0.91862515  1
  S  S22  1  0.31892142  0.96135185  0.42044185  1
  S  S23  1  0.82360826  0.96982661  0.42009281  1
  S  S24  1  0.15900486  0.36600622  0.41829137  1
  S  S25  1  0.66486139  0.36610372  0.41772550  1
  S  S26  1  0.01796213  0.67606111  0.41462866  1
  O  O0  1  0.10534765  0.03276101  0.30039683  1
  O  O1  1  0.60996665  0.02871493  0.30244064  1
  O  O2  1  0.40384941  0.78158897  0.30608138  1
  O  O3  1  0.91548301  0.78952242  0.29963418  1
  O  O4  1  0.49335593  0.19627522  0.30554103  1
  O  O5  1  0.99229788  0.19960020  0.30629659  1
  O  O6  1  0.10842520  0.18461702  0.80533153  1
  O  O7  1  0.60934094  0.19039348  0.80500277  1
  O  O8  1  0.49150200  0.79480337  0.80305498  1
  O  O9  1  0.99077497  0.78809650  0.80642272  1
  O  O10  1  0.40616174  0.01468528  0.80514686  1
  O  O11  1  0.91633843  0.04526893  0.80192831  1
  O  O12  1  0.38831990  0.97222228  0.68864643  1
  O  O13  1  0.88820560  0.96711190  0.68872384  1
  O  O14  1  0.09771568  0.21535079  0.70151548  1
  O  O15  1  0.60518044  0.21950864  0.70035954  1
  O  O16  1  0.01611635  0.80823774  0.70248021  1
  O  O17  1  0.51338601  0.80497041  0.69847181  1
  O  O18  1  0.39006264  0.78944138  0.18786330  1
  O  O19  1  0.88807048  0.78603096  0.18489833  1
  O  O20  1  0.01463092  0.22684060  0.20199213  1
  O  O21  1  0.51160609  0.22154889  0.20084101  1
  O  O22  1  0.09988449  0.98531425  0.19586543  1
  O  O23  1  0.60001375  0.98808326  0.19752671  1
  O  O24  1  0.44484108  0.37005822  0.63641884  1
  O  O25  1  0.94975472  0.36704725  0.64129006  1
  O  O26  1  0.23172084  0.09643987  0.64527404  1
  O  O27  1  0.73413682  0.10622278  0.64184353  1
  O  O28  1  0.32805173  0.53586232  0.64011353  1
  O  O29  1  0.82800016  0.54014260  0.64250334  1
  O  O30  1  0.44953288  0.53377890  0.13907658  1
  O  O31  1  0.95000537  0.53514748  0.13922673  1
  O  O32  1  0.32724551  0.12910714  0.13600558  1
  O  O33  1  0.82769768  0.13005044  0.13584082  1
  O  O34  1  0.23412667  0.36566983  0.14574020  1
  O  O35  1  0.73350307  0.36546971  0.14528264  1
  O  O36  1  0.23352415  0.30906507  0.03270332  1
  O  O37  1  0.73336122  0.30934202  0.03215752  1
  O  O38  1  0.43315717  0.54002201  0.03446118  1
  O  O39  1  0.93319412  0.53954807  0.03455182  1
  O  O40  1  0.34179075  0.13312032  0.03067743  1
  O  O41  1  0.84204441  0.13456421  0.03046256  1
  O  O42  1  0.23426207  0.14003855  0.53058720  1
  O  O43  1  0.72841574  0.13050327  0.52444780  1
  O  O44  1  0.34356884  0.54866653  0.53441068  1
  O  O45  1  0.83879977  0.54242759  0.53706657  1
  O  O46  1  0.43314446  0.32515725  0.53206304  1
  O  O47  1  0.93052377  0.32805654  0.53665754  1
  O  O48  1  0.27672523  0.68892823  0.96983783  1
  O  O49  1  0.77680130  0.68872686  0.96924606  1
  O  O50  1  0.06835690  0.45841847  0.96528827  1
  O  O51  1  0.56521254  0.44901566  0.97002956  1
  O  O52  1  0.15575953  0.86550014  0.97128910  1
  O  O53  1  0.65689844  0.86628097  0.97112061  1
  O  O54  1  0.27591579  0.86091087  0.47259320  1
  O  O55  1  0.78438089  0.87467987  0.47405442  1
  O  O56  1  0.15319589  0.45980896  0.46835156  1
  O  O57  1  0.66438834  0.46402520  0.46801914  1
  O  O58  1  0.06819627  0.68233808  0.46511858  1
  O  O59  1  0.57135041  0.69677428  0.47276568  1
  O  O60  1  0.05611022  0.66015618  0.35956711  1
  O  O61  1  0.56110242  0.66149966  0.35571666  1
  O  O62  1  0.26853706  0.87525248  0.36794518  1
  O  O63  1  0.76914033  0.88232728  0.36954212  1
  O  O64  1  0.16828807  0.46102180  0.36307401  1
  O  O65  1  0.67378329  0.45625108  0.36229804  1
  O  O66  1  0.05549011  0.45044254  0.85977500  1
  O  O67  1  0.55901184  0.45712501  0.86464059  1
  O  O68  1  0.16489957  0.87827837  0.86538118  1
  O  O69  1  0.66602867  0.87671203  0.86513619  1
  O  O70  1  0.27423395  0.66028680  0.86450375  1
  O  O71  1  0.77269391  0.66239026  0.86350880  1
  O  O72  1  0.01261395  0.83217067  0.41383570  1
  O  O73  1  0.51110354  0.85102097  0.41373792  1
  O  O74  1  0.40145024  0.97331324  0.41638618  1
  O  O75  1  0.90761024  0.99158374  0.41360047  1
  O  O76  1  0.08676525  0.19443053  0.41449742  1
  O  O77  1  0.58971359  0.19671692  0.41628641  1
  O  O78  1  0.01218111  0.19407997  0.91534252  1
  O  O79  1  0.51260372  0.19322302  0.91537447  1
  O  O80  1  0.08493343  0.98332562  0.91630381  1
  O  O81  1  0.58607020  0.98302464  0.91550291  1
  O  O82  1  0.40619444  0.83185647  0.91616887  1
  O  O83  1  0.90519800  0.83200724  0.91445366  1
  O  O84  1  0.48503141  0.18140253  0.58787124  1
  O  O85  1  0.98499925  0.18065027  0.58754852  1
  O  O86  1  0.08693473  0.99538213  0.58413960  1
  O  O87  1  0.58515928  0.99032344  0.58440860  1
  O  O88  1  0.40839300  0.80311407  0.58741578  1
  O  O89  1  0.90210824  0.80417383  0.58669268  1
  O  O90  1  0.48967907  0.79776799  0.08690262  1
  O  O91  1  0.99035384  0.79860187  0.08647354  1
  O  O92  1  0.39942296  0.99758996  0.08639364  1
  O  O93  1  0.90015126  -0.00019110  0.08601329  1
  O  O94  1  0.08994659  0.16159810  0.08526819  1
  O  O95  1  0.59014554  0.16130810  0.08478840  1
  O  O96  1  0.33831628  0.16873408  0.74777046  1
  O  O97  1  0.84329042  0.17699340  0.74442898  1
  O  O98  1  0.23472470  0.32864997  0.74857656  1
  O  O99  1  0.73778578  0.31919031  0.75065821  1
  O  O100  1  0.41981545  0.53918426  0.74704537  1
  O  O101  1  0.91961994  0.53682137  0.74789856  1
  O  O102  1  0.34374608  0.50270798  0.24829737  1
  O  O103  1  0.84295775  0.50374057  0.24708963  1
  O  O104  1  0.42402891  0.31571779  0.24925133  1
  O  O105  1  0.92166794  0.31237514  0.24839098  1
  O  O106  1  0.23355219  0.14739540  0.24641110  1
  O  O107  1  0.73533776  0.15264964  0.24586502  1
  O  O108  1  0.33187323  0.52696521  0.92072333  1
  O  O109  1  0.83070043  0.52646809  0.91885662  1
  O  O110  1  0.43244294  0.33794858  0.91953411  1
  O  O111  1  0.93246264  0.34014700  0.91857524  1
  O  O112  1  0.23759531  0.13230279  0.91887098  1
  O  O113  1  0.73879042  0.13222864  0.91791274  1
  O  O114  1  0.32865422  0.13138610  0.42062367  1
  O  O115  1  0.82849412  0.13844266  0.42140143  1
  O  O116  1  0.23902857  0.36036271  0.42086193  1
  O  O117  1  0.73961238  0.33877653  0.41901710  1
  O  O118  1  0.41857094  0.51414383  0.41707347  1
  O  O119  1  0.93257308  0.52439506  0.41853633  1
  O  O120  1  0.17976592  0.51264185  0.07770192  1
  O  O121  1  0.67998965  0.51352354  0.07772636  1
  O  O122  1  0.07329366  0.66395458  0.07810421  1
  O  O123  1  0.57317222  0.66469435  0.07827817  1
  O  O124  1  0.24944697  0.87099421  0.08122531  1
  O  O125  1  0.74997381  0.87201376  0.08098772  1
  O  O126  1  0.17881705  0.83745172  0.57822824  1
  O  O127  1  0.67598964  0.83505565  0.57918941  1
  O  O128  1  0.25724728  0.64803371  0.58203671  1
  O  O129  1  0.75218458  0.63977507  0.58375349  1
  O  O130  1  0.07043432  0.48557635  0.57906522  1
  O  O131  1  0.56856676  0.48748609  0.57980468  1
  O  O132  1  0.14753615  0.84206684  0.25576072  1
  O  O133  1  0.65379459  0.84621932  0.25302381  1
  O  O134  1  0.25161163  0.65475982  0.25124422  1
  O  O135  1  0.75397966  0.66093533  0.25301930  1
  O  O136  1  0.07086251  0.47522474  0.25799597  1
  O  O137  1  0.57448706  0.47033014  0.25610241  1
  O  O138  1  0.15027763  0.46016923  0.75954227  1
  O  O139  1  0.66261238  0.46893961  0.75770140  1
  O  O140  1  0.06944219  0.66719483  0.75932790  1
  O  O141  1  0.57214593  0.67934729  0.75697513  1
  O  O142  1  0.25494424  0.83352886  0.75357792  1
  O  O143  1  0.75685570  0.84002990  0.75606166  1
loop_
_geom_bond_atom_site_label_1
_geom_bond_atom_site_label_2
_geom_bond_distance
_geom_bond_site_symmetry_2
Na0 O134 2.341097 1_555
Na0 O34 2.345449 1_555
Na0 O102 2.448261 1_555
Na0 O106 2.462777 1_555
Na0 O136 2.904822 1_555
Na1 O135 2.351643 1_555
Na1 O35 2.361847 1_555
Na1 O103 2.444764 1_555
Na1 O107 2.489870 1_555
Na1 O137 2.761091 1_555
Na1 O65 2.954818 1_555
Na1 O21 3.029361 1_555
Na1 O1 3.033812 1_555
Na2 O103 2.359892 1_555
Na2 O132 2.550523 1_655
Na2 O136 2.597819 1_655
Na2 O105 2.608871 1_555
Na2 O3 2.609307 1_555
Na2 O60 2.692354 1_655
Na2 O31 2.776355 1_555
Na3 O102 2.389082 1_555
Na3 O61 2.447999 1_555
Na3 O104 2.534086 1_555
Na3 O137 2.615580 1_555
Na3 O133 2.649117 1_555
Na3 O2 2.779140 1_555
Na3 O30 2.967572 1_555
Na4 O100 2.448598 1_555
Na4 O28 2.556321 1_555
Na4 O98 2.578366 1_555
Na4 O142 2.583500 1_555
Na4 O138 2.826417 1_555
Na4 O12 2.827441 1_555
Na5 O29 2.470081 1_555
Na5 O101 2.474555 1_555
Na5 O139 2.585536 1_555
Na5 O99 2.612693 1_555
Na5 O143 2.619268 1_555
Na5 O13 2.816319 1_555
Na6 O97 2.373453 1_555
Na6 O140 2.562666 1_655
Na6 O138 2.588069 1_655
Na6 O11 2.651762 1_555
Na6 O101 2.673964 1_555
Na6 O25 2.688137 1_555
Na6 O66 2.725633 1_655
Na7 O26 2.267129 1_555
Na7 O96 2.350779 1_555
Na7 O142 2.468159 1_545
Na7 O98 2.604983 1_555
Na7 O140 2.868666 1_545
Na7 O16 2.940401 1_545
Na8 O27 2.359812 1_555
Na8 O97 2.409331 1_555
Na8 O143 2.435608 1_545
Na8 O99 2.520070 1_555
Na8 O141 2.772814 1_545
Na9 O87 2.337143 1_555
Na9 O59 2.391413 1_555
Na9 O127 2.474176 1_555
Na9 O131 2.503639 1_555
Na9 O88 2.738489 1_555
Na10 O126 2.354218 1_555
Na10 O128 2.533640 1_555
Na10 O12 2.565599 1_555
Na10 O84 2.610085 1_565
Na10 O88 2.626959 1_555
Na10 O54 2.840121 1_555
Na10 O26 2.852587 1_565
Na11 O127 2.395004 1_555
Na11 O89 2.485407 1_555
Na11 O129 2.555052 1_555
Na11 O13 2.586172 1_555
Na11 O85 2.619702 1_565
Na11 O55 2.740150 1_555
Na11 O27 2.883244 1_565
Na12 O124 2.436467 1_555
Na12 O94 2.474033 1_565
Na12 O122 2.536405 1_555
Na12 O52 2.632180 1_554
Na12 O91 2.647731 1_455
Na12 O36 2.768642 1_565
Na12 O22 2.959841 1_555
Na13 O125 2.434783 1_555
Na13 O95 2.473032 1_565
Na13 O123 2.524554 1_555
Na13 O53 2.628158 1_554
Na13 O90 2.657768 1_555
Na13 O37 2.778705 1_565
Na13 O23 3.006809 1_555
Na14 O120 2.386415 1_555
Na14 O18 2.445286 1_555
Na14 O92 2.510171 1_555
Na14 O90 2.643537 1_555
Na14 O124 2.755868 1_555
Na14 O34 2.808257 1_555
Na14 O48 2.992214 1_554
Na15 O19 2.359467 1_555
Na15 O121 2.376178 1_555
Na15 O93 2.524760 1_565
Na15 O91 2.665594 1_555
Na15 O125 2.745488 1_555
Na15 O35 2.802731 1_555
Na15 O49 3.012586 1_554
Na16 O73 2.363485 1_545
Na16 O77 2.563574 1_555
Na16 O43 2.571385 1_555
Na16 O117 2.590187 1_555
Na16 O59 2.739396 1_545
Na16 O115 2.767445 1_555
Na16 O1 3.004555 1_555
Na17 O118 2.305402 1_555
Na17 O74 2.418960 1_555
Na17 O73 2.476800 1_555
Na17 O2 2.484377 1_555
Na17 O116 2.641527 1_555
Na18 O72 2.390612 1_545
Na18 O86 2.391761 1_545
Na18 O76 2.410582 1_555
Na18 O75 2.800361 1_445
Na18 O89 2.956652 1_445
Na18 O85 2.964021 1_455
Na19 O77 2.345887 1_555
Na19 O73 2.370660 1_545
Na19 O87 2.547226 1_545
Na19 O74 2.616462 1_545
Na19 O84 2.842965 1_555
Na19 O88 2.926122 1_545
Na20 O78 2.332104 1_555
Na20 O80 2.435705 1_545
Na20 O94 2.479867 1_556
Na20 O83 2.654791 1_445
Na20 O93 2.851539 1_456
Na20 O91 2.919780 1_446
Na21 O79 2.313666 1_555
Na21 O81 2.449375 1_545
Na21 O95 2.484607 1_556
Na21 O82 2.609921 1_545
Na21 O92 2.876564 1_546
Na21 O90 2.939030 1_546
Na22 O96 2.238016 1_555
Na22 O100 2.534903 1_555
Na22 O110 2.601716 1_555
Na22 O98 2.798559 1_555
Na22 O112 2.869028 1_555
Na22 O108 2.991668 1_555
Na23 O97 2.378699 1_555
Na23 O99 2.553823 1_555
Na23 O101 2.641784 1_555
Na23 O113 2.664655 1_555
Na23 O111 2.679314 1_555
Na23 O109 2.853848 1_555
Na24 O102 2.429605 1_555
Na24 O104 2.431988 1_555
Na24 O118 2.503136 1_555
Na24 O106 2.723983 1_555
Na24 O114 2.730391 1_555
Na24 O116 2.944935 1_555
Na25 O103 2.314013 1_555
Na25 O105 2.464136 1_555
Na25 O107 2.639036 1_555
Na25 O119 2.689152 1_555
Na25 O117 2.805077 1_555
Na25 O115 2.844853 1_555
Na26 O120 2.332620 1_555
Na26 O134 2.518912 1_555
Na26 O124 2.537465 1_555
Na26 O122 2.712172 1_555
Na26 O136 2.883307 1_555
Na26 O132 2.985402 1_555
Na27 O121 2.372072 1_555
Na27 O135 2.506456 1_555
Na27 O125 2.587554 1_555
Na27 O123 2.763810 1_555
Na27 O137 2.796214 1_555
Na27 O133 2.876809 1_555
Na28 O126 2.230472 1_555
Na28 O128 2.456759 1_555
Na28 O130 2.498529 1_555
Na28 O142 2.735895 1_555
Na29 O127 2.322534 1_555
Na29 O129 2.364060 1_555
Na29 O131 2.473351 1_555
Na29 O143 2.817128 1_555
Na29 O139 2.922337 1_555
Na29 O141 2.966484 1_555
O0 S0 1.473373 1_555
O0 Zn0 2.256428 1_445
O1 S1 1.486364 1_555
O1 Zn1 2.188355 1_545
O2 Si0 1.634557 1_555
O2 Zn1 1.930933 1_555
O3 Si1 1.628999 1_555
O3 Zn0 1.889528 1_555
O4 S3 1.467221 1_555
O4 Zn1 2.293332 1_545
O5 S2 1.465654 1_555
O5 Zn0 2.225909 1_545
O6 S4 1.471173 1_555
O6 Zn2 2.216826 1_455
O7 S5 1.468808 1_555
O7 Zn3 2.193022 1_555
O8 S7 1.469917 1_555
O8 Zn3 2.251709 1_565
O9 S6 1.467596 1_555
O9 Zn2 2.244779 1_565
O10 Si2 1.605370 1_555
O10 Zn3 1.876789 1_555
O11 Si3 1.623395 1_555
O11 Zn2 1.906262 1_555
O12 Si2 1.645182 1_565
O12 Y1 2.167677 1_565
O13 Si3 1.636541 1_565
O13 Y0 2.214449 1_655
O14 S4 1.489141 1_555
O14 Y0 2.255709 1_545
O15 S5 1.482503 1_555
O15 Y1 2.231680 1_555
O16 S6 1.489190 1_455
O16 Y0 2.268146 1_555
O17 S7 1.502899 1_555
O17 Y1 2.256568 1_565
O18 Si0 1.632068 1_555
O18 Y3 2.154135 1_565
O19 Si1 1.641656 1_555
O19 Y2 2.151229 1_565
O20 S2 1.494012 1_455
O20 Y2 2.208522 1_455
O21 S3 1.492758 1_555
O21 Y3 2.186393 1_555
O22 S0 1.502020 1_565
O22 Y2 2.275973 1_465
O23 S1 1.497197 1_565
O23 Y3 2.278399 1_565
O24 S8 1.490328 1_555
O24 Zn4 2.006703 1_555
O25 S9 1.500281 1_555
O25 Zn5 2.073285 1_555
O26 Si4 1.657156 1_555
O26 Zn4 1.914216 1_555
O27 Si5 1.644393 1_555
O27 Zn5 1.906890 1_555
O28 S10 1.475494 1_555
O28 Zn4 2.562517 1_555
O29 S11 1.487015 1_555
O29 Zn5 2.413557 1_555
O30 S12 1.482272 1_555
O30 Zn6 2.155419 1_555
O31 S13 1.484147 1_555
O31 Zn7 2.178596 1_555
O32 S14 1.471467 1_555
O32 Zn6 2.328852 1_555
O33 S15 1.471870 1_555
O33 Zn7 2.322681 1_555
O34 Si6 1.646480 1_555
O34 Zn6 1.944460 1_555
O35 Si7 1.643074 1_555
O35 Zn7 1.935205 1_555
O36 Si6 1.633555 1_555
O36 Y4 2.068370 1_554
O37 Si7 1.635204 1_555
O37 Y5 2.065107 1_554
O38 S12 1.477518 1_555
O38 Y4 2.270457 1_554
O39 S13 1.478784 1_555
O39 Y5 2.265749 1_554
O40 S14 1.479985 1_555
O40 Y4 2.242827 1_554
O41 S15 1.481637 1_555
O41 Y5 2.240881 1_554
O42 Si4 1.614676 1_555
O42 Y6 2.074487 1_555
O43 Si5 1.636540 1_555
O43 Y7 2.113899 1_555
O44 S10 1.488154 1_555
O44 Y6 2.263637 1_555
O45 S11 1.478382 1_555
O45 Y7 2.183946 1_555
O46 S8 1.473698 1_555
O46 Y6 2.282577 1_555
O47 S9 1.478534 1_555
O47 Y7 2.229312 1_555
O48 S16 1.484514 1_555
O48 Zn8 2.154057 1_556
O49 S17 1.482698 1_555
O49 Zn9 2.173625 1_556
O50 S18 1.475525 1_555
O50 Zn8 2.010843 1_556
O51 S19 1.477039 1_555
O51 Zn9 2.012412 1_556
O52 S20 1.483491 1_555
O52 Zn8 2.443194 1_556
O53 S21 1.484387 1_555
O53 Zn9 2.435500 1_556
O54 S22 1.481273 1_555
O54 Zn10 2.196774 1_555
O55 S23 1.484157 1_555
O55 Zn11 2.177399 1_555
O56 S24 1.473594 1_555
O56 Zn10 2.271665 1_555
O57 S25 1.467785 1_555
O57 Zn11 2.287675 1_555
O58 S26 1.471926 1_555
O58 Zn10 2.012483 1_555
O59 Si8 1.646790 1_555
O59 Zn11 1.927154 1_555
O60 S26 1.492992 1_555
O60 Y8 2.325890 1_555
O61 Si8 1.634643 1_555
O61 Y9 2.153398 1_555
O62 S22 1.488789 1_555
O62 Y8 2.174286 1_555
O63 S23 1.484609 1_555
O63 Y9 2.215217 1_555
O64 S24 1.504158 1_555
O64 Y8 2.213075 1_555
O65 S25 1.486539 1_555
O65 Y9 2.239896 1_555
O66 S18 1.490441 1_555
O66 Y10 2.309477 1_555
O67 S19 1.479844 1_555
O67 Y11 2.239855 1_555
O68 S20 1.498588 1_555
O68 Y10 2.177939 1_555
O69 S21 1.496281 1_555
O69 Y11 2.193248 1_555
O70 S16 1.496354 1_555
O70 Y10 2.206421 1_555
O71 S17 1.493395 1_555
O71 Y11 2.247878 1_555
O72 S26 1.483665 1_555
O72 Zn0 2.219292 1_455
O73 Si8 1.665952 1_555
O73 Zn1 2.003929 1_555
O74 S22 1.475289 1_555
O74 Zn1 2.351112 1_555
O75 S23 1.469356 1_555
O75 Zn0 2.170783 1_555
O76 S24 1.470276 1_555
O76 Zn0 2.480850 1_445
O77 S25 1.477188 1_555
O77 Zn1 2.521332 1_545
O78 S18 1.480463 1_555
O78 Zn2 2.170542 1_455
O79 S19 1.480490 1_555
O79 Zn3 2.151358 1_555
O80 S20 1.471829 1_555
O80 Zn2 2.431169 1_465
O81 S21 1.471145 1_555
O81 Zn3 2.447177 1_565
O82 S16 1.469693 1_555
O82 Zn3 2.256999 1_565
O83 S17 1.477176 1_555
O83 Zn2 2.182507 1_565
O84 S8 1.492447 1_555
O84 Y1 2.292472 1_555
O85 S9 1.493483 1_555
O85 Y0 2.317414 1_645
O86 Si4 1.632131 1_565
O86 Y0 2.130244 1_555
O87 Si5 1.644678 1_565
O87 Y1 2.203891 1_565
O88 S10 1.518583 1_555
O88 Y1 2.323111 1_565
O89 S11 1.498907 1_555
O89 Y0 2.296425 1_655
O90 S12 1.510850 1_555
O90 Y3 2.356112 1_565
O91 S13 1.508752 1_555
O91 Y2 2.377440 1_565
O92 S14 1.499718 1_565
O92 Y3 2.291792 1_565
O93 S15 1.499061 1_555
O93 Y2 2.294386 1_555
O94 Si6 1.644593 1_555
O94 Y2 2.207675 1_455
O95 Si7 1.644658 1_555
O95 Y3 2.202528 1_555
O96 Si2 1.642187 1_555
O96 Zn4 1.957322 1_555
O97 Si3 1.660161 1_555
O97 Zn5 2.013413 1_555
O98 S4 1.473269 1_555
O99 S5 1.487120 1_555
O100 S7 1.473281 1_555
O101 S6 1.484153 1_555
O102 Si0 1.664011 1_555
O102 Zn6 1.995535 1_555
O103 Si1 1.668730 1_555
O103 Zn7 1.991646 1_555
O104 S3 1.469844 1_555
O104 Zn6 2.569780 1_555
O105 S2 1.466132 1_555
O105 Zn7 2.560516 1_555
O106 S0 1.469099 1_555
O106 Zn6 2.460971 1_555
O107 S1 1.470646 1_555
O107 Zn7 2.413589 1_555
O108 S16 1.491451 1_555
O108 Y4 2.265387 1_555
O109 S17 1.495841 1_555
O109 Y5 2.287452 1_555
O110 S19 1.487242 1_555
O110 Y4 2.336963 1_555
O111 S18 1.488315 1_655
O111 Y5 2.342983 1_555
O112 S20 1.498135 1_545
O112 Y4 2.274537 1_555
O113 S21 1.504298 1_545
O113 Y5 2.285008 1_555
O114 S22 1.477557 1_545
O114 Y6 2.275288 1_555
O115 S23 1.503420 1_545
O115 Y7 2.307496 1_555
O116 S24 1.505758 1_555
O116 Y6 2.280887 1_555
O117 S25 1.521887 1_555
O117 Y7 2.273809 1_555
O118 Si8 1.641809 1_555
O118 Y6 2.239274 1_555
O119 S26 1.494719 1_655
O119 Y7 2.350075 1_555
O120 Si6 1.648811 1_555
O120 Zn8 1.929179 1_555
O121 Si7 1.647800 1_555
O121 Zn9 1.927824 1_555
O122 S13 1.480035 1_455
O122 Zn8 2.343656 1_555
O123 S12 1.478975 1_555
O123 Zn9 2.338335 1_555
O124 S14 1.497872 1_565
O124 Zn8 2.505445 1_555
O125 S15 1.496567 1_565
O125 Zn9 2.504296 1_555
O126 Si4 1.653257 1_565
O126 Zn10 1.931893 1_555
O127 Si5 1.659939 1_565
O127 Zn11 2.023919 1_555
O128 S10 1.472316 1_555
O128 Zn10 2.542215 1_555
O129 S11 1.475321 1_555
O129 Zn11 2.569687 1_555
O130 S9 1.462174 1_455
O130 Zn10 2.265651 1_555
O131 S8 1.468313 1_555
O131 Zn11 2.428500 1_555
O132 S0 1.500620 1_565
O132 Y8 2.277412 1_555
O133 S1 1.490485 1_565
O133 Y9 2.340297 1_555
O134 Si0 1.660257 1_555
O134 Y8 2.143670 1_555
O135 Si1 1.647582 1_555
O135 Y9 2.195088 1_555
O136 S2 1.515994 1_455
O136 Y8 2.275463 1_555
O137 S3 1.513964 1_555
O137 Y9 2.311628 1_555
O138 S4 1.510649 1_555
O138 Y10 2.297608 1_555
O139 S5 1.498904 1_555
O139 Y11 2.274362 1_555
O140 S6 1.507731 1_455
O140 Y10 2.336445 1_555
O141 S7 1.500415 1_555
O141 Y11 2.283989 1_555
O142 Si2 1.692163 1_565
O142 Y10 2.135518 1_555
O143 Si3 1.665552 1_565
O143 Y11 2.160796 1_555
