# generated using pymatgen
data_AlH12(ClO2)3
_symmetry_space_group_name_H-M   'P 1'
_cell_length_a   7.87524396
_cell_length_b   7.87524396
_cell_length_c   7.87524372
_cell_angle_alpha   96.50648313
_cell_angle_beta   96.50648313
_cell_angle_gamma   96.50648594
_symmetry_Int_Tables_number   1
_chemical_formula_structural   AlH12(ClO2)3
_chemical_formula_sum   'Al2 H24 Cl6 O12'
_cell_volume   478.19347354
_cell_formula_units_Z   2
loop_
 _symmetry_equiv_pos_site_id
 _symmetry_equiv_pos_as_xyz
  1  'x, y, z'
loop_
 _atom_site_type_symbol
 _atom_site_label
 _atom_site_symmetry_multiplicity
 _atom_site_fract_x
 _atom_site_fract_y
 _atom_site_fract_z
 _atom_site_occupancy
  Al  Al0  1  0.50000000  0.50000000  0.50000000  1
  Al  Al1  1  -0.00000000  -0.00000000  -0.00000000  1
  H  H0  1  0.88733177  0.29071398  0.08519014  1
  H  H1  1  0.08519014  0.88733177  0.29071398  1
  H  H2  1  0.29071398  0.08519014  0.88733177  1
  H  H3  1  0.61266823  0.41480986  0.20928602  1
  H  H4  1  0.20928602  0.61266823  0.41480986  1
  H  H5  1  0.41480986  0.20928602  0.61266823  1
  H  H6  1  0.11266823  0.70928602  0.91480986  1
  H  H7  1  0.91480986  0.11266823  0.70928602  1
  H  H8  1  0.70928602  0.91480986  0.11266823  1
  H  H9  1  0.38733177  0.58519014  0.79071398  1
  H  H10  1  0.79071398  0.38733177  0.58519014  1
  H  H11  1  0.58519014  0.79071398  0.38733177  1
  H  H12  1  0.95817332  0.21359817  0.25775538  1
  H  H13  1  0.25775538  0.95817332  0.21359817  1
  H  H14  1  0.21359817  0.25775538  0.95817332  1
  H  H15  1  0.54182668  0.24224462  0.28640183  1
  H  H16  1  0.28640183  0.54182668  0.24224462  1
  H  H17  1  0.24224462  0.28640183  0.54182668  1
  H  H18  1  0.04182668  0.78640183  0.74224462  1
  H  H19  1  0.74224462  0.04182668  0.78640183  1
  H  H20  1  0.75775538  0.71359817  0.45817332  1
  H  H21  1  0.71359817  0.45817332  0.75775538  1
  H  H22  1  0.45817332  0.75775538  0.71359817  1
  H  H23  1  0.78640183  0.74224462  0.04182668  1
  Cl  Cl0  1  0.51756524  0.98243476  0.25000000  1
  Cl  Cl1  1  0.75000000  0.48243476  0.01756524  1
  Cl  Cl2  1  0.01756524  0.75000000  0.48243476  1
  Cl  Cl3  1  0.48243476  0.01756524  0.75000000  1
  Cl  Cl4  1  0.98243476  0.25000000  0.51756524  1
  Cl  Cl5  1  0.25000000  0.51756524  0.98243476  1
  O  O0  1  0.94422450  0.19625487  0.13008471  1
  O  O1  1  0.13008471  0.94422450  0.19625487  1
  O  O2  1  0.19625487  0.13008471  0.94422450  1
  O  O3  1  0.55577550  0.36991529  0.30374513  1
  O  O4  1  0.30374513  0.55577550  0.36991529  1
  O  O5  1  0.36991529  0.30374513  0.55577550  1
  O  O6  1  0.05577550  0.80374513  0.86991529  1
  O  O7  1  0.86991529  0.05577550  0.80374513  1
  O  O8  1  0.80374513  0.86991529  0.05577550  1
  O  O9  1  0.44422450  0.63008471  0.69625487  1
  O  O10  1  0.69625487  0.44422450  0.63008471  1
  O  O11  1  0.63008471  0.69625487  0.44422450  1
loop_
_geom_bond_atom_site_label_1
_geom_bond_atom_site_label_2
_geom_bond_distance
_geom_bond_site_symmetry_2
Al0 O11 1.878343 1_555
Al0 O5 1.878343 1_555
Al0 O9 1.878343 1_555
Al0 O3 1.878343 1_555
Al0 O10 1.878343 1_555
Al0 O4 1.878343 1_555
Al1 O2 1.878343 1_554
Al1 O8 1.878343 1_445
Al1 O1 1.878343 1_545
Al1 O7 1.878343 1_454
Al1 O6 1.878343 1_544
Al1 O0 1.878343 1_455
H0 O0 0.989119 1_555
H1 O1 0.989118 1_555
H2 O2 0.989119 1_555
H3 O3 0.989118 1_555
H4 O4 0.989119 1_555
H5 O5 0.989119 1_555
H6 O6 0.989119 1_555
H7 O7 0.989118 1_555
H8 O8 0.989119 1_555
H9 O9 0.989118 1_555
H10 O10 0.989119 1_555
H11 O11 0.989119 1_555
H12 O0 0.990996 1_555
H13 O1 0.990996 1_555
H14 O2 0.990996 1_555
H15 O3 0.990996 1_555
H16 O4 0.990996 1_555
H17 O5 0.990996 1_555
H18 O6 0.990996 1_555
H19 O7 0.990996 1_555
H20 O11 0.990996 1_555
H21 O10 0.990996 1_555
H22 O9 0.990996 1_555
H23 O8 0.990996 1_555
Cl0 H15 2.017705 1_565
Cl0 H13 2.017705 1_555
Cl0 H11 2.038314 1_555
Cl0 H8 2.038314 1_555
Cl1 H21 2.017705 1_554
Cl1 H23 2.017705 1_555
Cl1 H3 2.038314 1_555
Cl1 H0 2.038314 1_555
Cl2 H18 2.017705 1_555
Cl2 H20 2.017705 1_455
Cl2 H1 2.038314 1_555
Cl2 H4 2.038314 1_555
Cl3 H22 2.017705 1_545
Cl3 H19 2.017705 1_555
Cl3 H5 2.038314 1_555
Cl3 H2 2.038314 1_555
Cl4 H12 2.017705 1_555
Cl4 H17 2.017705 1_655
Cl4 H7 2.038314 1_555
Cl4 H10 2.038314 1_555
Cl5 H16 2.017705 1_556
Cl5 H14 2.017705 1_555
Cl5 H9 2.038314 1_555
Cl5 H6 2.038314 1_555
