# generated using pymatgen
data_YHfP(SO6)2
_symmetry_space_group_name_H-M   'P 1'
_cell_length_a   9.09130799
_cell_length_b   9.09393252
_cell_length_c   23.29972175
_cell_angle_alpha   89.88126069
_cell_angle_beta   90.00000000
_cell_angle_gamma   119.99045352
_symmetry_Int_Tables_number   1
_chemical_formula_structural   YHfP(SO6)2
_chemical_formula_sum   'Y6 Hf6 P6 S12 O72'
_cell_volume   1668.39926937
_cell_formula_units_Z   6
loop_
 _symmetry_equiv_pos_site_id
 _symmetry_equiv_pos_as_xyz
  1  'x, y, z'
loop_
 _atom_site_type_symbol
 _atom_site_label
 _atom_site_symmetry_multiplicity
 _atom_site_fract_x
 _atom_site_fract_y
 _atom_site_fract_z
 _atom_site_occupancy
  Y  Y0  1  0.00086148  0.00037301  0.35822228  1
  Y  Y1  1  0.99951153  0.00037301  0.85822228  1
  Y  Y2  1  0.67662965  0.33825204  0.69173041  1
  Y  Y3  1  0.66162339  0.33825204  0.19173041  1
  Y  Y4  1  0.32917793  0.65557248  0.02473574  1
  Y  Y5  1  0.32639355  0.65557248  0.52473574  1
  Hf  Hf0  1  0.00026192  0.99959662  0.64507248  1
  Hf  Hf1  1  0.99933470  0.99959662  0.14507248  1
  Hf  Hf2  1  0.66337708  0.33201382  0.97876336  1
  Hf  Hf3  1  0.66863774  0.33201382  0.47876336  1
  Hf  Hf4  1  0.34370073  0.66036709  0.31176909  1
  Hf  Hf5  1  0.31666536  0.66036709  0.81176909  1
  P  P0  1  0.71245628  0.72298848  0.25009806  1
  P  P1  1  0.01053220  0.72298848  0.75009806  1
  P  P2  1  0.94479758  0.31796564  0.58333020  1
  P  P3  1  0.37316906  0.31796564  0.08333020  1
  P  P4  1  0.03692832  0.38437552  0.91713638  1
  P  P5  1  0.34744620  0.38437552  0.41713638  1
  S  S0  1  0.28047696  0.98417638  0.25018457  1
  S  S1  1  0.01155122  0.29344871  0.24944884  1
  S  S2  1  0.28189749  0.29344871  0.74944884  1
  S  S3  1  0.70369942  0.98417638  0.75018457  1
  S  S4  1  0.37442675  0.05245951  0.58338188  1
  S  S5  1  0.67912110  0.62701220  0.58326395  1
  S  S6  1  0.94789210  0.62701220  0.08326395  1
  S  S7  1  0.67803376  0.05245951  0.08338188  1
  S  S8  1  0.61367943  0.65473065  0.91638507  1
  S  S9  1  0.34660649  0.95928240  0.91689612  1
  S  S10  1  0.61267491  0.95928240  0.41689612  1
  S  S11  1  0.04105021  0.65473065  0.41638507  1
  O  O0  1  0.20744320  0.01829486  0.30086370  1
  O  O1  1  0.81872304  0.80389660  0.30303316  1
  O  O2  1  0.98203557  0.19000559  0.30073216  1
  O  O3  1  0.20797002  0.19000559  0.80073216  1
  O  O4  1  0.98517356  0.80389660  0.80303316  1
  O  O5  1  0.81085167  0.01829486  0.80086370  1
  O  O6  1  0.78940571  0.96114668  0.69846635  1
  O  O7  1  0.17073004  0.21078301  0.69810215  1
  O  O8  1  0.03523563  0.83859183  0.69657531  1
  O  O9  1  0.80335621  0.83859183  0.19657531  1
  O  O10  1  0.04005297  0.21078301  0.19810215  1
  O  O11  1  0.17174098  0.96114668  0.19846635  1
  O  O12  1  0.86386286  0.34651044  0.63585165  1
  O  O13  1  0.47664027  0.12779518  0.63457857  1
  O  O14  1  0.64471456  0.52093243  0.63414361  1
  O  O15  1  0.87621888  0.52093243  0.13414361  1
  O  O16  1  0.65115591  0.12779518  0.13457857  1
  O  O17  1  0.48264857  0.34651044  0.13585165  1
  O  O18  1  0.46520579  0.29417747  0.02974416  1
  O  O19  1  0.83855491  0.54333343  0.03185067  1
  O  O20  1  0.70523455  0.16340675  0.03181919  1
  O  O21  1  0.45817320  0.16340675  0.53181919  1
  O  O22  1  0.70477952  0.54333343  0.53185067  1
  O  O23  1  0.82897268  0.29417747  0.52974416  1
  O  O24  1  0.54096765  0.68640557  0.96758966  1
  O  O25  1  0.14892130  0.46536312  0.96901487  1
  O  O26  1  0.31928259  0.85657342  0.96796472  1
  O  O27  1  0.53728983  0.85657342  0.46796472  1
  O  O28  1  0.31644081  0.46536312  0.46901487  1
  O  O29  1  0.14543692  0.68640557  0.46758966  1
  O  O30  1  0.12393665  0.62964284  0.36503551  1
  O  O31  1  0.50359821  0.87577293  0.36518978  1
  O  O32  1  0.37344301  0.50239272  0.36313774  1
  O  O33  1  0.12894871  0.50239272  0.86313774  1
  O  O34  1  0.37217372  0.87577293  0.86518978  1
  O  O35  1  0.50570519  0.62964284  0.86503551  1
  O  O36  1  0.01286851  0.79842166  0.40823195  1
  O  O37  1  0.78379059  0.98620359  0.40812785  1
  O  O38  1  0.19867019  0.20885286  0.40559429  1
  O  O39  1  0.01018266  0.20885286  0.90559429  1
  O  O40  1  0.20241300  0.98620359  0.90812785  1
  O  O41  1  0.78555315  0.79842166  0.90823195  1
  O  O42  1  0.95907775  0.15523541  0.59398721  1
  O  O43  1  0.20381695  0.03941914  0.59112786  1
  O  O44  1  0.83769359  0.79530969  0.59164591  1
  O  O45  1  0.95761611  0.79530969  0.09164591  1
  O  O46  1  0.83560220  0.03941914  0.09112786  1
  O  O47  1  0.19615766  0.15523541  0.09398721  1
  O  O48  1  0.67418661  0.12667405  0.74114202  1
  O  O49  1  0.45090024  0.31758132  0.73964891  1
  O  O50  1  0.86131102  0.54592300  0.74081221  1
  O  O51  1  0.68461298  0.54592300  0.24081221  1
  O  O52  1  0.86668208  0.31758132  0.23964891  1
  O  O53  1  0.45248844  0.12667405  0.24114202  1
  O  O54  1  0.62616455  0.49735542  0.92528120  1
  O  O55  1  0.86127177  0.37172144  0.92818861  1
  O  O56  1  0.50422490  0.12947234  0.92422528  1
  O  O57  1  0.62524844  0.12947234  0.42422528  1
  O  O58  1  0.51045067  0.37172144  0.42818861  1
  O  O59  1  0.87119187  0.49735542  0.42528120  1
  O  O60  1  0.34722365  0.46866205  0.07390376  1
  O  O61  1  0.12026773  0.65847982  0.07412191  1
  O  O62  1  0.53327977  0.88315549  0.07360791  1
  O  O63  1  0.34987472  0.88315549  0.57360791  1
  O  O64  1  0.53821109  0.65847982  0.57412191  1
  O  O65  1  0.12143740  0.46866205  0.57390376  1
  O  O66  1  0.28938955  0.82626865  0.25914074  1
  O  O67  1  0.53381807  0.70952087  0.25931266  1
  O  O68  1  0.16764179  0.46410377  0.25778833  1
  O  O69  1  0.29646099  0.46410377  0.75778833  1
  O  O70  1  0.17570181  0.70952087  0.75931266  1
  O  O71  1  0.53687810  0.82626865  0.75914074  1
loop_
_geom_bond_atom_site_label_1
_geom_bond_atom_site_label_2
_geom_bond_distance
_geom_bond_site_symmetry_2
Hf0 O42 2.020646 1_465
Hf0 O8 2.035438 1_555
Hf0 O44 2.109486 1_455
Hf0 O43 2.112751 1_565
Hf0 O7 2.156655 1_565
Hf0 O6 2.161664 1_455
Hf1 O47 2.020646 1_665
Hf1 O9 2.035438 1_555
Hf1 O45 2.109486 1_555
Hf1 O46 2.112750 1_565
Hf1 O10 2.156655 1_665
Hf1 O11 2.161664 1_655
Hf2 O55 2.025973 1_555
Hf2 O18 2.038092 1_556
Hf2 O54 2.104488 1_555
Hf2 O56 2.108619 1_555
Hf2 O20 2.144629 1_556
Hf2 O19 2.170153 1_556
Hf3 O58 2.025973 1_555
Hf3 O23 2.038092 1_555
Hf3 O59 2.104488 1_555
Hf3 O57 2.108619 1_555
Hf3 O21 2.144629 1_555
Hf3 O22 2.170153 1_555
Hf4 O67 1.976463 1_555
Hf4 O32 1.987632 1_555
Hf4 O68 2.117246 1_555
Hf4 O31 2.159398 1_555
Hf4 O66 2.181891 1_555
Hf4 O30 2.247364 1_555
Hf5 O70 1.976463 1_555
Hf5 O33 1.987632 1_555
Hf5 O69 2.117246 1_555
Hf5 O34 2.159398 1_555
Hf5 O71 2.181891 1_555
Hf5 O35 2.247364 1_555
O0 S0 1.462501 1_545
O0 Y0 2.243430 1_555
O1 P0 1.512964 1_555
O1 Y0 2.153984 1_665
O2 S1 1.458655 1_655
O2 Y0 2.254546 1_655
O3 S2 1.458655 1_555
O3 Y1 2.254546 1_455
O4 P1 1.512964 1_655
O4 Y1 2.153984 1_565
O5 S3 1.462501 1_545
O5 Y1 2.243430 1_555
O6 S3 1.505737 1_555
O7 S2 1.504005 1_555
O8 P1 1.571416 1_555
O9 P0 1.571416 1_555
O10 S1 1.504005 1_555
O11 S0 1.505737 1_555
O12 P2 1.516107 1_555
O12 Y2 2.114238 1_555
O13 S4 1.456966 1_555
O13 Y2 2.296453 1_555
O14 S5 1.458567 1_555
O14 Y2 2.262079 1_555
O15 S6 1.458567 1_555
O15 Y3 2.262079 1_555
O16 S7 1.456966 1_555
O16 Y3 2.296453 1_555
O17 P3 1.516107 1_555
O17 Y3 2.114238 1_555
O18 P3 1.577292 1_555
O19 S6 1.499909 1_555
O20 S7 1.505996 1_555
O21 S4 1.505996 1_555
O22 S5 1.499909 1_555
O23 P2 1.577292 1_555
O24 S8 1.461202 1_555
O24 Y4 2.239988 1_556
O25 P4 1.514662 1_555
O25 Y4 2.130399 1_556
O26 S9 1.453747 1_555
O26 Y4 2.292009 1_556
O27 S10 1.453747 1_555
O27 Y5 2.292009 1_555
O28 P5 1.514662 1_555
O28 Y5 2.130399 1_555
O29 S11 1.461202 1_555
O29 Y5 2.239988 1_555
O30 S11 1.491419 1_555
O31 S10 1.504138 1_555
O32 P5 1.591061 1_555
O33 P4 1.591061 1_555
O34 S9 1.504138 1_555
O35 S8 1.491419 1_555
O36 S11 1.463866 1_555
O36 Y0 2.221268 1_565
O37 S10 1.463152 1_555
O37 Y0 2.237940 1_665
O38 P5 1.514277 1_555
O38 Y0 2.155673 1_555
O39 P4 1.514280 1_555
O39 Y1 2.155673 1_455
O40 S9 1.463143 1_555
O40 Y1 2.237940 1_465
O41 S8 1.463872 1_555
O41 Y1 2.221268 1_565
O42 P2 1.568131 1_555
O43 S4 1.506144 1_555
O44 S5 1.501435 1_555
O45 S6 1.501440 1_555
O46 S7 1.506135 1_555
O47 P3 1.568136 1_555
O48 S3 1.463593 1_545
O48 Y2 2.230717 1_555
O49 S2 1.457291 1_555
O49 Y2 2.259819 1_555
O50 P1 1.515801 1_655
O50 Y2 2.128953 1_555
O51 P0 1.515804 1_555
O51 Y3 2.128953 1_555
O52 S1 1.457282 1_655
O52 Y3 2.259819 1_555
O53 S0 1.463599 1_545
O53 Y3 2.230717 1_555
O54 S8 1.505070 1_555
O55 P4 1.563956 1_655
O56 S9 1.503943 1_545
O57 S10 1.503935 1_545
O58 P5 1.563974 1_555
O59 S11 1.505060 1_655
O60 P3 1.517843 1_555
O60 Y4 2.121127 1_555
O61 S6 1.461010 1_455
O61 Y4 2.232110 1_555
O62 S7 1.459480 1_565
O62 Y4 2.278959 1_555
O63 S4 1.459473 1_565
O63 Y5 2.278959 1_555
O64 S5 1.461028 1_555
O64 Y5 2.232110 1_555
O65 P2 1.517832 1_455
O65 Y5 2.121127 1_555
O66 S0 1.492412 1_555
O67 P0 1.581042 1_555
O68 S1 1.503190 1_555
O69 S2 1.503194 1_555
O70 P1 1.581033 1_555
O71 S3 1.492417 1_555
