# generated using pymatgen
data_MgMn3TeO8
_symmetry_space_group_name_H-M   'P 1'
_cell_length_a   6.38355447
_cell_length_b   6.39027842
_cell_length_c   6.22321935
_cell_angle_alpha   57.90294876
_cell_angle_beta   57.92643612
_cell_angle_gamma   55.39482787
_symmetry_Int_Tables_number   1
_chemical_formula_structural   MgMn3TeO8
_chemical_formula_sum   'Mg1 Mn3 Te1 O8'
_cell_volume   167.17184982
_cell_formula_units_Z   1
loop_
 _symmetry_equiv_pos_site_id
 _symmetry_equiv_pos_as_xyz
  1  'x, y, z'
loop_
 _atom_site_type_symbol
 _atom_site_label
 _atom_site_symmetry_multiplicity
 _atom_site_fract_x
 _atom_site_fract_y
 _atom_site_fract_z
 _atom_site_occupancy
  Mg  Mg0  1  0.00000000  0.00000000  0.00000000  1
  Mn  Mn0  1  0.00000000  0.50000000  0.50000000  1
  Mn  Mn1  1  0.50000000  0.00000000  0.50000000  1
  Mn  Mn2  1  0.50000000  0.50000000  0.00000000  1
  Te  Te0  1  0.50000000  0.50000000  0.50000000  1
  O  O0  1  0.28403900  0.28423900  0.26037000  1
  O  O1  1  0.24934300  0.24881600  0.71352200  1
  O  O2  1  0.26467100  0.72579000  0.22726300  1
  O  O3  1  0.72605700  0.26486900  0.22704800  1
  O  O4  1  0.27394300  0.73513100  0.77295200  1
  O  O5  1  0.73532900  0.27421000  0.77273700  1
  O  O6  1  0.75065700  0.75118400  0.28647900  1
  O  O7  1  0.71596100  0.71576100  0.73963000  1
loop_
_geom_bond_atom_site_label_1
_geom_bond_atom_site_label_2
_geom_bond_distance
_geom_bond_site_symmetry_2
Mg0 O2 2.113444 1_545
Mg0 O5 2.113444 1_454
Mg0 O3 2.115388 1_455
Mg0 O4 2.115388 1_544
Mg0 O1 2.255767 1_554
Mg0 O6 2.255767 1_445
Mn0 O0 1.971398 1_555
Mn0 O7 1.971398 1_455
Mn0 O6 1.988278 1_455
Mn0 O1 1.988282 1_555
Mn0 O5 2.222183 1_455
Mn0 O2 2.222183 1_555
Mn1 O7 1.970845 1_545
Mn1 O0 1.970845 1_555
Mn1 O6 1.987857 1_545
Mn1 O1 1.987861 1_555
Mn1 O4 2.224466 1_545
Mn1 O3 2.224466 1_555
Mn2 O3 1.944989 1_555
Mn2 O4 1.944989 1_554
Mn2 O5 1.946565 1_554
Mn2 O2 1.946565 1_555
Mn2 O7 1.959467 1_554
Mn2 O0 1.959467 1_555
O1 Te0 2.301078 1_555
O2 Te0 2.205170 1_555
O3 Te0 2.207208 1_555
O4 Te0 2.207208 1_555
O5 Te0 2.205170 1_555
O6 Te0 2.301079 1_555
