# generated using pymatgen
data_Na4Zr2Nb2Si5SO24
_symmetry_space_group_name_H-M   'P 1'
_cell_length_a   9.04845102
_cell_length_b   9.06732380
_cell_length_c   22.92372656
_cell_angle_alpha   89.78758273
_cell_angle_beta   90.24504159
_cell_angle_gamma   119.89799040
_symmetry_Int_Tables_number   1
_chemical_formula_structural   Na4Zr2Nb2Si5SO24
_chemical_formula_sum   'Na12 Zr6 Nb6 Si15 S3 O72'
_cell_volume   1630.45954700
_cell_formula_units_Z   3
loop_
 _symmetry_equiv_pos_site_id
 _symmetry_equiv_pos_as_xyz
  1  'x, y, z'
loop_
 _atom_site_type_symbol
 _atom_site_label
 _atom_site_symmetry_multiplicity
 _atom_site_fract_x
 _atom_site_fract_y
 _atom_site_fract_z
 _atom_site_occupancy
  Na  Na0  1  0.64540459  0.00011498  0.25109757  1
  Na  Na1  1  0.99212152  0.35828237  0.74928807  1
  Na  Na2  1  0.29595896  0.33614848  0.58114687  1
  Na  Na3  1  0.66768459  0.96649787  0.57980995  1
  Na  Na4  1  0.02482664  0.33140043  0.08533967  1
  Na  Na5  1  0.96033429  0.66532990  0.91255653  1
  Na  Na6  1  0.99842623  0.99975741  0.49222427  1
  Na  Na7  1  0.97415792  0.99056448  0.00200340  1
  Na  Na8  1  0.64796276  0.32963707  0.83228863  1
  Na  Na9  1  0.65850698  0.34180259  0.33508320  1
  Na  Na10  1  0.32661684  0.67835616  0.16744114  1
  Na  Na11  1  0.32914963  0.68053023  0.66418812  1
  Zr  Zr0  1  0.00168129  0.00612219  0.35138516  1
  Zr  Zr1  1  0.99183221  0.00602920  0.85211064  1
  Zr  Zr2  1  0.99353575  0.98817691  0.14979515  1
  Zr  Zr3  1  0.68052560  0.34003809  0.97782304  1
  Zr  Zr4  1  0.34378417  0.67264813  0.02277806  1
  Zr  Zr5  1  0.33389867  0.66459599  0.52062923  1
  Nb  Nb0  1  0.99584031  0.99249279  0.64656538  1
  Nb  Nb1  1  0.66655658  0.33718055  0.68724957  1
  Nb  Nb2  1  0.67734133  0.33338544  0.18985935  1
  Nb  Nb3  1  0.65451078  0.32297468  0.47935749  1
  Nb  Nb4  1  0.34476140  0.66678116  0.31257071  1
  Nb  Nb5  1  0.33704670  0.65347684  0.80830803  1
  Si  Si0  1  0.29333872  0.00005478  0.25094143  1
  Si  Si1  1  0.71083383  0.70304512  0.25171621  1
  Si  Si2  1  0.01090032  0.29842247  0.24763123  1
  Si  Si3  1  0.29056905  0.28144568  0.74883239  1
  Si  Si4  1  0.00163089  0.71064697  0.75245591  1
  Si  Si5  1  0.70267812  0.99751017  0.74734998  1
  Si  Si6  1  0.95297062  0.33341036  0.58449613  1
  Si  Si7  1  0.37542102  0.04516033  0.58506269  1
  Si  Si8  1  0.67415359  0.62207958  0.58167892  1
  Si  Si9  1  0.95922188  0.62877175  0.08255206  1
  Si  Si10  1  0.66704677  0.04205280  0.08466994  1
  Si  Si11  1  0.62423495  0.66499982  0.91649546  1
  Si  Si12  1  0.04945073  0.37690825  0.91746663  1
  Si  Si13  1  0.62819202  0.95988134  0.41825763  1
  Si  Si14  1  0.33412215  0.37331589  0.41893344  1
  S  S0  1  0.37948988  0.33148703  0.08354883  1
  S  S1  1  0.33416034  0.95284367  0.91465702  1
  S  S2  1  0.04026816  0.66154610  0.41644207  1
  O  O0  1  0.20837111  0.03307059  0.30729433  1
  O  O1  1  0.82621947  0.78663846  0.30852303  1
  O  O2  1  0.95893264  0.16486865  0.30144365  1
  O  O3  1  0.20351417  0.16984676  0.80590055  1
  O  O4  1  0.97291386  0.78881609  0.81131202  1
  O  O5  1  0.82992092  0.04128745  0.80281100  1
  O  O6  1  0.79526952  0.97077549  0.68946576  1
  O  O7  1  0.16676224  0.19858972  0.69122893  1
  O  O8  1  0.02342134  0.83632849  0.69610845  1
  O  O9  1  0.78545701  0.83114525  0.19579399  1
  O  O10  1  0.03919157  0.22232676  0.18769005  1
  O  O11  1  0.17477079  0.96698361  0.19383134  1
  O  O12  1  0.86296204  0.35376011  0.64324438  1
  O  O13  1  0.50191415  0.14543557  0.63968014  1
  O  O14  1  0.64657129  0.50166389  0.63863724  1
  O  O15  1  0.84584567  0.49910089  0.13671829  1
  O  O16  1  0.65125724  0.14036279  0.14306418  1
  O  O17  1  0.47897042  0.34760257  0.13623688  1
  O  O18  1  0.46174543  0.31812633  0.03017729  1
  O  O19  1  0.85110904  0.54270077  0.02202394  1
  O  O20  1  0.68413424  0.16179442  0.02840423  1
  O  O21  1  0.46458369  0.16758082  0.52678600  1
  O  O22  1  0.69517892  0.52585130  0.52531409  1
  O  O23  1  0.82552424  0.30134821  0.52873754  1
  O  O24  1  0.53287971  0.69149457  0.97306699  1
  O  O25  1  0.15394586  0.47458207  0.97588921  1
  O  O26  1  0.31267129  0.85063832  0.96819588  1
  O  O27  1  0.53138277  0.85273740  0.47692301  1
  O  O28  1  0.31307753  0.45973622  0.47848160  1
  O  O29  1  0.14161245  0.67933659  0.46996043  1
  O  O30  1  0.12587263  0.64483652  0.36442219  1
  O  O31  1  0.50786248  0.86375734  0.36050736  1
  O  O32  1  0.35091013  0.50017828  0.36381807  1
  O  O33  1  0.14690693  0.49822631  0.85890792  1
  O  O34  1  0.35451861  0.87031869  0.86242230  1
  O  O35  1  0.50587710  0.65571763  0.85868326  1
  O  O36  1  0.02144046  0.81316292  0.41345576  1
  O  O37  1  0.81395816  0.97704578  0.41367551  1
  O  O38  1  0.17286085  0.18395708  0.41265518  1
  O  O39  1  0.03072980  0.19025065  0.91321102  1
  O  O40  1  0.17605469  0.96283304  0.91122624  1
  O  O41  1  0.81881827  0.82470703  0.91225959  1
  O  O42  1  0.96559931  0.15744359  0.59035843  1
  O  O43  1  0.19261450  0.03914866  0.59178900  1
  O  O44  1  0.83953041  0.81353017  0.58947114  1
  O  O45  1  0.98225899  0.81671491  0.08741737  1
  O  O46  1  0.84683723  0.04137337  0.08711096  1
  O  O47  1  0.20559429  0.18257155  0.08631155  1
  O  O48  1  0.68976571  0.16992305  0.74016667  1
  O  O49  1  0.48274856  0.31528641  0.74093299  1
  O  O50  1  0.84013231  0.51814435  0.74128212  1
  O  O51  1  0.67715951  0.51181434  0.23953552  1
  O  O52  1  0.83558080  0.31568135  0.24156659  1
  O  O53  1  0.48881010  0.16292034  0.24073826  1
  O  O54  1  0.63406835  0.49003663  0.91672990  1
  O  O55  1  0.86194286  0.36754666  0.91701406  1
  O  O56  1  0.48397287  0.12437820  0.91973124  1
  O  O57  1  0.64300226  0.15032019  0.42426902  1
  O  O58  1  0.51476091  0.36799923  0.42264379  1
  O  O59  1  0.87076544  0.50466900  0.42095093  1
  O  O60  1  0.35985646  0.48655789  0.08087278  1
  O  O61  1  0.13840903  0.62471551  0.08229266  1
  O  O62  1  0.49822744  0.85422039  0.08264364  1
  O  O63  1  0.36536675  0.86290691  0.58082771  1
  O  O64  1  0.50395365  0.64197677  0.57941062  1
  O  O65  1  0.14512089  0.49399796  0.58064877  1
  O  O66  1  0.32615239  0.83720032  0.26027631  1
  O  O67  1  0.52036968  0.68721701  0.26037197  1
  O  O68  1  0.16832400  0.48888251  0.26127429  1
  O  O69  1  0.30118231  0.47067085  0.75558193  1
  O  O70  1  0.16865443  0.68344184  0.75620338  1
  O  O71  1  0.51490311  0.82994855  0.75596636  1
loop_
_geom_bond_atom_site_label_1
_geom_bond_atom_site_label_2
_geom_bond_distance
_geom_bond_site_symmetry_2
Na0 O67 2.484397 1_545
Na0 O52 2.507218 1_555
Na0 O66 2.513964 1_545
Na0 O53 2.514570 1_555
Na0 O2 2.715091 1_555
Na0 O9 2.743033 1_545
Na0 O16 2.768353 1_555
Na0 O31 2.799596 1_545
Na1 O48 2.405234 1_555
Na1 O50 2.451397 1_555
Na1 O69 2.456916 1_655
Na1 O70 2.564294 1_655
Na1 O12 2.684315 1_555
Na1 O5 2.775748 1_555
Na1 O33 2.847491 1_655
Na1 O7 2.945934 1_655
Na2 O43 2.381757 1_555
Na2 O65 2.420471 1_555
Na2 O64 2.455681 1_555
Na2 O28 2.574705 1_555
Na2 O42 2.603822 1_455
Na2 O7 2.799758 1_555
Na2 O21 2.927870 1_555
Na3 O42 2.380643 1_565
Na3 O63 2.409292 1_555
Na3 O64 2.551004 1_555
Na3 O44 2.556464 1_555
Na3 O27 2.621594 1_555
Na3 O6 2.753961 1_555
Na3 O23 2.879926 1_565
Na4 O46 2.299707 1_455
Na4 O61 2.325686 1_555
Na4 O10 2.570655 1_555
Na4 O47 2.587847 1_555
Na4 O60 2.632411 1_555
Na4 O25 2.799007 1_554
Na4 O15 2.967621 1_455
Na4 O20 2.970865 1_455
Na5 O41 2.360665 1_555
Na5 O55 2.386600 1_555
Na5 O40 2.416296 1_655
Na5 O4 2.551309 1_555
Na5 O54 2.564056 1_555
Na5 O19 2.723089 1_556
Na6 O37 2.388537 1_555
Na6 O38 2.445778 1_665
Na6 O36 2.558023 1_655
Na6 O44 2.732634 1_555
Na6 O42 2.765174 1_565
Na6 O43 2.787543 1_665
Na7 O46 2.429159 1_565
Na7 O41 2.522014 1_554
Na7 O45 2.532809 1_555
Na7 O39 2.596353 1_664
Na7 O47 2.739952 1_665
Na7 O40 2.867981 1_654
Na8 O54 2.466431 1_555
Na8 O49 2.533534 1_555
Na8 O56 2.632183 1_555
Na8 O55 2.636002 1_555
Na8 O48 2.697313 1_555
Na8 O50 2.709062 1_555
Na9 O58 2.472037 1_555
Na9 O59 2.627905 1_555
Na9 O51 2.630793 1_555
Na9 O57 2.635783 1_555
Na9 O53 2.679692 1_555
Na9 O52 2.762319 1_555
Na10 O61 2.469736 1_555
Na10 O62 2.503400 1_555
Na10 O66 2.575310 1_555
Na10 O68 2.678755 1_555
Na10 O67 2.728957 1_555
Na10 O60 2.757750 1_555
Na11 O63 2.436257 1_555
Na11 O65 2.547520 1_555
Na11 O70 2.573674 1_555
Na11 O71 2.609160 1_555
Na11 O64 2.642615 1_555
Na11 O69 2.751224 1_555
Nb0 O8 1.922265 1_655
Nb0 O6 1.989266 1_555
Nb0 O7 2.012908 1_665
Nb0 O44 2.014572 1_555
Nb0 O43 2.046988 1_665
Nb0 O42 2.088717 1_565
Nb1 O14 1.937448 1_555
Nb1 O13 1.961968 1_555
Nb1 O12 1.986552 1_555
Nb1 O49 2.001636 1_555
Nb1 O48 2.029115 1_555
Nb1 O50 2.030427 1_555
Nb2 O52 1.922000 1_555
Nb2 O15 1.945475 1_555
Nb2 O16 1.967124 1_555
Nb2 O51 1.982581 1_555
Nb2 O53 2.008625 1_555
Nb2 O17 2.227126 1_555
Nb3 O21 1.926509 1_555
Nb3 O57 1.976724 1_555
Nb3 O58 1.988106 1_555
Nb3 O22 1.991337 1_555
Nb3 O23 2.000040 1_555
Nb3 O59 2.264518 1_555
Nb4 O67 1.926686 1_555
Nb4 O32 1.932696 1_555
Nb4 O31 1.987078 1_555
Nb4 O68 1.991033 1_555
Nb4 O66 2.024140 1_555
Nb4 O30 2.236230 1_555
Nb5 O35 1.903107 1_555
Nb5 O69 1.946530 1_555
Nb5 O33 1.969170 1_555
Nb5 O71 2.006268 1_555
Nb5 O70 2.053499 1_555
Nb5 O34 2.266320 1_555
O0 Si0 1.609447 1_555
O0 Zr0 2.034150 1_555
O1 Si1 1.602227 1_555
O1 Zr0 2.073152 1_665
O2 Si2 1.623424 1_655
O2 Zr0 2.017729 1_655
O3 Si3 1.600073 1_555
O3 Zr1 2.041226 1_455
O4 Si4 1.607462 1_655
O4 Zr1 2.111701 1_565
O5 Si5 1.623321 1_545
O5 Zr1 1.993954 1_555
O6 Si5 1.654017 1_555
O7 Si3 1.648866 1_555
O8 Si4 1.665319 1_555
O9 Si1 1.631854 1_555
O9 Zr2 2.004360 1_555
O10 Si2 1.617349 1_555
O10 Zr2 2.137550 1_445
O11 Si0 1.620203 1_565
O11 Zr2 2.010917 1_455
O12 Si6 1.634648 1_555
O13 Si7 1.631883 1_555
O14 Si8 1.637016 1_555
O15 Si9 1.665609 1_555
O16 Si10 1.656609 1_555
O17 S0 1.466728 1_555
O18 S0 1.471157 1_555
O18 Zr3 2.241696 1_554
O19 Si9 1.651245 1_555
O19 Zr3 1.989654 1_554
O20 Si10 1.640223 1_555
O20 Zr3 1.999000 1_554
O21 Si7 1.665285 1_555
O22 Si8 1.625717 1_555
O23 Si6 1.644408 1_555
O24 Si11 1.622418 1_555
O24 Zr4 1.994780 1_556
O25 Si12 1.623314 1_555
O25 Zr4 2.062628 1_556
O26 S1 1.488923 1_555
O26 Zr4 2.164357 1_556
O27 Si13 1.634541 1_555
O27 Zr5 2.017625 1_555
O28 Si14 1.634810 1_555
O28 Zr5 2.020468 1_555
O29 S2 1.488771 1_555
O29 Zr5 2.146534 1_555
O30 S2 1.473503 1_555
O31 Si13 1.657678 1_555
O32 Si14 1.661097 1_555
O33 Si12 1.679825 1_555
O34 S1 1.474315 1_555
O35 Si11 1.676067 1_555
O36 S2 1.468454 1_555
O36 Zr0 2.325721 1_565
O37 Si13 1.612841 1_555
O37 Zr0 2.136644 1_665
O38 Si14 1.612545 1_555
O38 Zr0 2.116661 1_555
O39 Si12 1.618019 1_555
O39 Zr1 2.074354 1_455
O40 S1 1.479596 1_555
O40 Zr1 2.322953 1_465
O41 Si11 1.632506 1_555
O41 Zr1 2.119158 1_565
O42 Si6 1.660400 1_555
O43 Si7 1.635566 1_555
O44 Si8 1.641642 1_555
O45 Si9 1.614641 1_555
O45 Zr2 2.080697 1_555
O46 Si10 1.630625 1_555
O46 Zr2 2.162479 1_545
O47 S0 1.478254 1_555
O47 Zr2 2.353653 1_445
O48 Si5 1.632411 1_545
O49 Si3 1.618999 1_555
O50 Si4 1.644701 1_655
O51 Si1 1.628973 1_555
O52 Si2 1.675061 1_655
O53 Si0 1.661607 1_555
O54 Si11 1.632611 1_555
O54 Zr3 2.130423 1_555
O55 Si12 1.655969 1_655
O55 Zr3 2.075775 1_555
O56 S1 1.472530 1_545
O56 Zr3 2.300488 1_555
O57 Si13 1.670210 1_545
O58 Si14 1.660869 1_555
O59 S2 1.487191 1_655
O60 S0 1.503551 1_555
O60 Zr4 2.206384 1_555
O61 Si9 1.640045 1_455
O61 Zr4 2.171565 1_555
O62 Si10 1.625616 1_565
O62 Zr4 2.062398 1_555
O63 Si7 1.612409 1_565
O63 Zr5 2.173329 1_555
O64 Si8 1.638056 1_555
O64 Zr5 2.126105 1_555
O65 Si6 1.620943 1_455
O65 Zr5 2.138641 1_555
O66 Si0 1.657907 1_565
O67 Si1 1.669201 1_555
O68 Si2 1.630053 1_555
O69 Si3 1.677675 1_555
O70 Si4 1.650048 1_555
O71 Si5 1.631377 1_555
