# generated using pymatgen
data_Na6Mg3GeP4(SO12)2
_symmetry_space_group_name_H-M   'P 1'
_cell_length_a   8.85497177
_cell_length_b   8.84657099
_cell_length_c   21.92359066
_cell_angle_alpha   90.49219515
_cell_angle_beta   89.61000132
_cell_angle_gamma   120.06627810
_symmetry_Int_Tables_number   1
_chemical_formula_structural   Na6Mg3GeP4(SO12)2
_chemical_formula_sum   'Na18 Mg9 Ge3 P12 S6 O72'
_cell_volume   1486.26478002
_cell_formula_units_Z   3
loop_
 _symmetry_equiv_pos_site_id
 _symmetry_equiv_pos_as_xyz
  1  'x, y, z'
loop_
 _atom_site_type_symbol
 _atom_site_label
 _atom_site_symmetry_multiplicity
 _atom_site_fract_x
 _atom_site_fract_y
 _atom_site_fract_z
 _atom_site_occupancy
  Na  Na0  1  0.36401459  0.36380215  0.25302031  1
  Na  Na1  1  0.63980671  0.63832099  0.74739071  1
  Na  Na2  1  0.99579457  0.35260369  0.75016202  1
  Na  Na3  1  0.29643422  0.33913461  0.58364616  1
  Na  Na4  1  0.03018015  0.69561527  0.58060528  1
  Na  Na5  1  0.67059084  0.96163851  0.58186532  1
  Na  Na6  1  0.29207449  0.96222308  0.08020144  1
  Na  Na7  1  0.66496787  0.69503446  0.08200448  1
  Na  Na8  1  0.04151476  0.33971018  0.08255407  1
  Na  Na9  1  0.32419709  0.29666057  0.91308225  1
  Na  Na10  1  0.97908649  0.30631680  0.41432996  1
  Na  Na11  1  0.69394081  0.67421803  0.41446403  1
  Na  Na12  1  0.00502578  0.00033892  0.49497939  1
  Na  Na13  1  0.99473788  0.98903166  0.99285494  1
  Na  Na14  1  0.65917119  0.31424385  0.83177359  1
  Na  Na15  1  0.66500879  0.32060962  0.33245956  1
  Na  Na16  1  0.32598080  0.67049012  0.17021143  1
  Na  Na17  1  0.33730241  0.66991825  0.66774454  1
  Mg  Mg0  1  0.00433478  0.99783313  0.35307506  1
  Mg  Mg1  1  0.99706890  0.00197197  0.85255657  1
  Mg  Mg2  1  0.99155931  0.00428204  0.65246110  1
  Mg  Mg3  1  0.00348896  0.99572692  0.14967719  1
  Mg  Mg4  1  0.66034966  0.32777015  0.68653449  1
  Mg  Mg5  1  0.67293357  0.33843999  0.18524310  1
  Mg  Mg6  1  0.33087073  0.66557958  0.01534464  1
  Mg  Mg7  1  0.33261136  0.66438394  0.51330515  1
  Mg  Mg8  1  0.33430146  0.67539258  0.32125508  1
  Ge  Ge0  1  0.67032124  0.34412959  0.97651699  1
  Ge  Ge1  1  0.67246260  0.33750165  0.47917374  1
  Ge  Ge2  1  0.34287319  0.67162227  0.82204825  1
  P  P0  1  0.29659580  0.29992754  0.75311492  1
  P  P1  1  0.69633587  0.99462065  0.75219710  1
  P  P2  1  0.95669033  0.33500703  0.58356047  1
  P  P3  1  0.66678214  0.62278478  0.58376823  1
  P  P4  1  0.95446653  0.61960427  0.08225335  1
  P  P5  1  0.37857127  0.33425745  0.08312697  1
  P  P6  1  0.62938374  0.66781710  0.91957029  1
  P  P7  1  0.03617837  0.37711165  0.91825518  1
  P  P8  1  0.33860507  0.96104602  0.91974971  1
  P  P9  1  0.62680119  0.96758217  0.41956978  1
  P  P10  1  0.33844257  0.36741748  0.41813301  1
  P  P11  1  0.03710650  0.66635572  0.41965610  1
  S  S0  1  0.29595850  0.99770789  0.24879974  1
  S  S1  1  0.70322505  0.70566625  0.24974607  1
  S  S2  1  0.99864929  0.29492268  0.24987307  1
  S  S3  1  0.00845726  0.71022108  0.75053656  1
  S  S4  1  0.37684869  0.04404284  0.58272413  1
  S  S5  1  0.66702238  0.04610195  0.08282654  1
  O  O0  1  0.20792761  0.02603704  0.30094879  1
  O  O1  1  0.80767933  0.79212307  0.30445667  1
  O  O2  1  0.98066041  0.19034506  0.30454264  1
  O  O3  1  0.21044146  0.19111134  0.80922924  1
  O  O4  1  0.98049893  0.79498496  0.80333034  1
  O  O5  1  0.81853244  0.02349637  0.80475721  1
  O  O6  1  0.76126341  0.94914061  0.69231770  1
  O  O7  1  0.18509923  0.22626379  0.69456049  1
  O  O8  1  0.03245910  0.80872508  0.69344765  1
  O  O9  1  0.78616278  0.80690323  0.19355935  1
  O  O10  1  0.02398376  0.21137265  0.19379648  1
  O  O11  1  0.19707268  0.97646177  0.19121358  1
  O  O12  1  0.87139669  0.36126683  0.64016282  1
  O  O13  1  0.48585640  0.12439979  0.63667093  1
  O  O14  1  0.63685332  0.50968231  0.63966563  1
  O  O15  1  0.87206401  0.50142447  0.13648428  1
  O  O16  1  0.63722604  0.12516126  0.13685859  1
  O  O17  1  0.48893314  0.36046703  0.13949572  1
  O  O18  1  0.46531346  0.29865954  0.02412020  1
  O  O19  1  0.83101170  0.53370900  0.02397334  1
  O  O20  1  0.70174404  0.15786262  0.02717056  1
  O  O21  1  0.45640683  0.15692436  0.52731053  1
  O  O22  1  0.69691844  0.53280647  0.52495424  1
  O  O23  1  0.83547286  0.30095600  0.52539841  1
  O  O24  1  0.54563928  0.68843451  0.97656490  1
  O  O25  1  0.14662743  0.45790990  0.97468902  1
  O  O26  1  0.31719780  0.86086400  0.97758146  1
  O  O27  1  0.55174892  0.85989850  0.47777706  1
  O  O28  1  0.30793681  0.44994883  0.47532009  1
  O  O29  1  0.13740694  0.69098399  0.47872103  1
  O  O30  1  0.11603337  0.62260814  0.36504254  1
  O  O31  1  0.51461889  0.88539489  0.36364709  1
  O  O32  1  0.37950414  0.48369875  0.36116456  1
  O  O33  1  0.12494656  0.49661621  0.85937346  1
  O  O34  1  0.37177821  0.87151685  0.86205679  1
  O  O35  1  0.50413391  0.62491899  0.86154829  1
  O  O36  1  -0.00011378  0.81654841  0.41141794  1
  O  O37  1  0.81383793  0.99516912  0.41195434  1
  O  O38  1  0.17602954  0.18729376  0.41021188  1
  O  O39  1  0.01868810  0.19770129  0.90970616  1
  O  O40  1  0.18439659  0.99043690  0.91035368  1
  O  O41  1  0.81059227  0.82138879  0.90951262  1
  O  O42  1  0.97555320  0.16978474  0.58562813  1
  O  O43  1  0.20081059  0.02514313  0.58832162  1
  O  O44  1  0.83577913  0.80383486  0.58623984  1
  O  O45  1  0.96837635  0.80167087  0.08630428  1
  O  O46  1  0.82445999  0.02608070  0.08806951  1
  O  O47  1  0.19358470  0.16940429  0.08557917  1
  O  O48  1  0.67977130  0.15838069  0.74519923  1
  O  O49  1  0.48489076  0.33653947  0.74665703  1
  O  O50  1  0.85110018  0.53106069  0.74590131  1
  O  O51  1  0.68179773  0.52678900  0.24632153  1
  O  O52  1  0.84256346  0.31293542  0.24512410  1
  O  O53  1  0.47146289  0.15986285  0.24450164  1
  O  O54  1  0.63356314  0.48825312  0.92137054  1
  O  O55  1  0.84984998  0.36052497  0.92244461  1
  O  O56  1  0.50948426  0.15269639  0.92256305  1
  O  O57  1  0.65084012  0.15895809  0.42592161  1
  O  O58  1  0.51147583  0.35542902  0.42592830  1
  O  O59  1  0.84562747  0.49069490  0.42431014  1
  O  O60  1  0.35994306  0.49814930  0.07711456  1
  O  O61  1  0.14013727  0.64658088  0.07566979  1
  O  O62  1  0.51126044  0.86877548  0.07674330  1
  O  O63  1  0.35739663  0.86816000  0.57627749  1
  O  O64  1  0.50588241  0.64586267  0.57719085  1
  O  O65  1  0.13923328  0.49892402  0.57713686  1
  O  O66  1  0.31402422  0.84136520  0.25482714  1
  O  O67  1  0.52452087  0.68285461  0.25360806  1
  O  O68  1  0.16155709  0.46951935  0.25420431  1
  O  O69  1  0.30918151  0.49092528  0.75995024  1
  O  O70  1  0.16551069  0.68693658  0.75642864  1
  O  O71  1  0.50925580  0.82024682  0.76139176  1
loop_
_geom_bond_atom_site_label_1
_geom_bond_atom_site_label_2
_geom_bond_distance
_geom_bond_site_symmetry_2
Na0 O68 2.401721 1_555
Na0 O53 2.430422 1_555
Na0 O51 2.439560 1_555
Na0 O67 2.442708 1_555
Na0 O32 2.565250 1_555
Na0 O17 2.722656 1_555
Na0 O0 2.799806 1_555
Na0 O10 2.919747 1_555
Na1 O49 2.310725 1_555
Na1 O71 2.423176 1_555
Na1 O50 2.485888 1_555
Na1 O69 2.552920 1_555
Na1 O14 2.607359 1_555
Na1 O6 2.692851 1_555
Na1 O35 2.746368 1_555
Na1 O4 2.890976 1_555
Na2 O69 2.417704 1_655
Na2 O48 2.445015 1_555
Na2 O50 2.484703 1_555
Na2 O70 2.562688 1_655
Na2 O12 2.675612 1_555
Na2 O33 2.681169 1_655
Na2 O7 2.714983 1_655
Na2 O5 2.797899 1_555
Na3 O64 2.404822 1_555
Na3 O65 2.436007 1_555
Na3 O42 2.460474 1_455
Na3 O43 2.467858 1_555
Na3 O28 2.558945 1_555
Na3 O7 2.627651 1_555
Na3 O14 2.886653 1_555
Na3 O21 2.891423 1_555
Na4 O44 2.354040 1_455
Na4 O65 2.376220 1_555
Na4 O29 2.429202 1_555
Na4 O63 2.510283 1_555
Na4 O43 2.528123 1_565
Na4 O8 2.657033 1_555
Na4 O22 2.833995 1_455
Na4 O12 2.881812 1_455
Na5 O42 2.389093 1_565
Na5 O64 2.419946 1_555
Na5 O63 2.468818 1_555
Na5 O44 2.479513 1_555
Na5 O27 2.484619 1_555
Na5 O6 2.576940 1_555
Na5 O23 2.884919 1_565
Na5 O13 2.914869 1_565
Na6 O47 2.393820 1_565
Na6 O61 2.418656 1_555
Na6 O62 2.461879 1_555
Na6 O26 2.464453 1_554
Na6 O45 2.483923 1_455
Na6 O11 2.592276 1_555
Na6 O18 2.861056 1_565
Na6 O16 2.927159 1_565
Na7 O45 2.362068 1_555
Na7 O60 2.372211 1_555
Na7 O62 2.515869 1_555
Na7 O24 2.536256 1_554
Na7 O46 2.537833 1_565
Na7 O9 2.653759 1_555
Na7 O19 2.804143 1_555
Na7 O17 2.862372 1_555
Na8 O61 2.405207 1_555
Na8 O60 2.442864 1_555
Na8 O46 2.462938 1_455
Na8 O47 2.474541 1_555
Na8 O25 2.566957 1_554
Na8 O10 2.669613 1_555
Na8 O15 2.791729 1_455
Na8 O20 2.877620 1_455
Na9 O40 2.347937 1_545
Na9 O39 2.391429 1_555
Na9 O54 2.399859 1_555
Na9 O3 2.474419 1_555
Na9 O56 2.541681 1_555
Na9 O18 2.739773 1_556
Na9 O35 2.764740 1_555
Na9 O25 2.918387 1_555
Na10 O37 2.383977 1_545
Na10 O38 2.448322 1_655
Na10 O59 2.454958 1_555
Na10 O57 2.532061 1_555
Na10 O2 2.611042 1_555
Na10 O30 2.664892 1_655
Na10 O23 2.729134 1_555
Na10 O28 2.863264 1_655
Na11 O36 2.347400 1_655
Na11 O58 2.463347 1_555
Na11 O37 2.484615 1_555
Na11 O59 2.584900 1_555
Na11 O1 2.622293 1_555
Na11 O32 2.695711 1_555
Na11 O22 2.742160 1_555
Na11 O27 2.867003 1_555
Na12 O36 2.424375 1_545
Na12 O38 2.446850 1_555
Na12 O37 2.478771 1_445
Na12 O42 2.568745 1_455
Na12 O44 2.584470 1_445
Na12 O43 2.626956 1_555
Na13 O41 2.401613 1_555
Na13 O40 2.455649 1_655
Na13 O39 2.536935 1_665
Na13 O45 2.581337 1_556
Na13 O47 2.637564 1_666
Na13 O46 2.679349 1_566
Na14 O48 2.395693 1_555
Na14 O56 2.424049 1_555
Na14 O49 2.500646 1_555
Na14 O55 2.511776 1_555
Na14 O54 2.563455 1_555
Na14 O50 2.619895 1_555
Na15 O57 2.475153 1_555
Na15 O52 2.491264 1_555
Na15 O53 2.496771 1_555
Na15 O59 2.541148 1_555
Na15 O58 2.552088 1_555
Na15 O51 2.588227 1_555
Na16 O66 2.418090 1_555
Na16 O68 2.469336 1_555
Na16 O67 2.508640 1_555
Na16 O61 2.595968 1_555
Na16 O60 2.641644 1_555
Na16 O62 2.664598 1_555
Na17 O71 2.503766 1_555
Na17 O70 2.510207 1_555
Na17 O69 2.511738 1_555
Na17 O64 2.546690 1_555
Na17 O65 2.578326 1_555
Na17 O63 2.621334 1_555
Mg0 O38 2.031341 1_565
Mg0 O0 2.035802 1_565
Mg0 O36 2.044719 1_555
Mg0 O1 2.072892 1_455
Mg0 O37 2.107920 1_455
Mg0 O2 2.113862 1_465
Mg1 O5 1.990327 1_555
Mg1 O3 2.026571 1_655
Mg1 O41 2.049620 1_545
Mg1 O4 2.058700 1_545
Mg1 O39 2.058767 1_655
Mg1 O40 2.137290 1_645
Mg2 O6 2.036266 1_545
Mg2 O7 2.064830 1_655
Mg2 O42 2.135006 1_555
Mg2 O8 2.142538 1_645
Mg2 O44 2.164969 1_545
Mg2 O43 2.251890 1_655
Mg3 O11 2.028138 1_555
Mg3 O9 2.049548 1_455
Mg3 O10 2.057112 1_565
Mg3 O45 2.098625 1_455
Mg3 O47 2.140636 1_565
Mg3 O46 2.207144 1_465
Mg4 O13 2.005768 1_555
Mg4 O12 2.009538 1_555
Mg4 O14 2.013896 1_555
Mg4 O48 2.055149 1_555
Mg4 O49 2.061185 1_555
Mg4 O50 2.174230 1_555
Mg5 O15 1.945291 1_555
Mg5 O17 2.010544 1_555
Mg5 O16 2.039008 1_555
Mg5 O52 2.098118 1_555
Mg5 O51 2.099441 1_555
Mg5 O53 2.132128 1_555
Mg6 O25 1.954404 1_554
Mg6 O26 1.979950 1_554
Mg6 O24 1.994013 1_554
Mg6 O61 2.078188 1_555
Mg6 O60 2.124939 1_555
Mg6 O62 2.169180 1_555
Mg7 O28 1.974825 1_555
Mg7 O27 2.000816 1_555
Mg7 O29 2.011603 1_555
Mg7 O65 2.127017 1_555
Mg7 O64 2.151219 1_555
Mg7 O63 2.183779 1_555
Mg8 O31 1.970503 1_555
Mg8 O30 1.988285 1_555
Mg8 O32 2.124153 1_555
Mg8 O66 2.147905 1_555
Mg8 O67 2.212976 1_555
Mg8 O68 2.238496 1_555
Ge0 O19 1.875869 1_556
Ge0 O54 1.908125 1_555
Ge0 O55 1.923494 1_555
Ge0 O18 1.948374 1_556
Ge0 O56 1.966550 1_555
Ge0 O20 2.126274 1_556
Ge1 O59 1.885548 1_555
Ge1 O57 1.887542 1_555
Ge1 O22 1.907283 1_555
Ge1 O58 1.916333 1_555
Ge1 O23 1.925676 1_555
Ge1 O21 2.065188 1_555
Ge2 O34 1.866795 1_555
Ge2 O35 1.890461 1_555
Ge2 O71 1.931356 1_555
Ge2 O33 1.948613 1_555
Ge2 O69 1.997018 1_555
Ge2 O70 2.191319 1_555
O0 S0 1.468422 1_545
O1 S1 1.472983 1_555
O2 S2 1.478716 1_555
O3 P0 1.514550 1_555
O4 S3 1.459604 1_655
O5 P1 1.516194 1_545
O6 P1 1.558277 1_555
O7 P0 1.550993 1_555
O8 S3 1.483433 1_555
O9 S1 1.485399 1_555
O10 S2 1.501614 1_455
O11 S0 1.497336 1_555
O12 P2 1.523942 1_555
O13 S4 1.466088 1_555
O14 P3 1.524499 1_555
O15 P4 1.511353 1_555
O16 S5 1.458910 1_555
O17 P5 1.523309 1_555
O18 P5 1.607639 1_555
O19 P4 1.604678 1_555
O20 S5 1.507289 1_555
O21 S4 1.507880 1_555
O22 P3 1.599356 1_555
O23 P2 1.599019 1_555
O24 P6 1.504488 1_555
O25 P7 1.516244 1_555
O26 P8 1.508846 1_555
O27 P9 1.533822 1_555
O28 P10 1.534668 1_555
O29 P11 1.526438 1_555
O30 P11 1.524302 1_555
O31 P9 1.515298 1_555
O32 P10 1.546416 1_555
O33 P7 1.605903 1_555
O34 P8 1.588790 1_555
O35 P6 1.606665 1_555
O36 P11 1.533098 1_555
O37 P9 1.556400 1_555
O38 P10 1.529711 1_555
O39 P7 1.525513 1_555
O40 P8 1.528125 1_555
O41 P6 1.511649 1_555
O42 P2 1.553141 1_555
O43 S4 1.486441 1_555
O44 P3 1.551020 1_555
O45 P4 1.554415 1_555
O46 S5 1.496016 1_555
O47 P5 1.555456 1_555
O48 P1 1.536513 1_545
O49 P0 1.536701 1_555
O50 S3 1.500075 1_655
O51 S1 1.497694 1_555
O52 S2 1.472909 1_555
O53 S0 1.499467 1_545
O54 P6 1.608212 1_555
O55 P7 1.583611 1_655
O56 P8 1.611463 1_545
O57 P9 1.601958 1_545
O58 P10 1.598377 1_555
O59 P11 1.631074 1_655
O60 P5 1.545949 1_555
O61 P4 1.544374 1_455
O62 S5 1.487266 1_565
O63 S4 1.482789 1_565
O64 P3 1.545053 1_555
O65 P2 1.545047 1_455
O66 S0 1.476867 1_555
O67 S1 1.493465 1_555
O68 S2 1.497477 1_455
O69 P0 1.642276 1_555
O70 S3 1.510999 1_555
O71 P1 1.613931 1_555
