# generated using pymatgen
data_Na6MgSi4Sn3(SO12)2
_symmetry_space_group_name_H-M   'P 1'
_cell_length_a   9.04966986
_cell_length_b   9.04347249
_cell_length_c   22.62982646
_cell_angle_alpha   90.55922627
_cell_angle_beta   89.87597914
_cell_angle_gamma   120.10812237
_symmetry_Int_Tables_number   1
_chemical_formula_structural   Na6MgSi4Sn3(SO12)2
_chemical_formula_sum   'Na18 Mg3 Si12 Sn9 S6 O72'
_cell_volume   1602.07469264
_cell_formula_units_Z   3
loop_
 _symmetry_equiv_pos_site_id
 _symmetry_equiv_pos_as_xyz
  1  'x, y, z'
loop_
 _atom_site_type_symbol
 _atom_site_label
 _atom_site_symmetry_multiplicity
 _atom_site_fract_x
 _atom_site_fract_y
 _atom_site_fract_z
 _atom_site_occupancy
  Na  Na0  1  0.99163710  0.35286517  0.75413970  1
  Na  Na1  1  0.38866818  0.01877871  0.75083060  1
  Na  Na2  1  0.31696848  0.33443543  0.58528481  1
  Na  Na3  1  0.02928134  0.70316552  0.57645987  1
  Na  Na4  1  0.65704145  0.96205390  0.58817247  1
  Na  Na5  1  0.31100619  0.97442478  0.08327833  1
  Na  Na6  1  0.66237608  0.68661103  0.08548398  1
  Na  Na7  1  0.02447735  0.33488215  0.08339909  1
  Na  Na8  1  0.33083489  0.29581067  0.92256927  1
  Na  Na9  1  0.96797122  0.29413566  0.41176781  1
  Na  Na10  1  0.32472266  0.03251982  0.41430397  1
  Na  Na11  1  0.70859250  0.67692086  0.41471006  1
  Na  Na12  1  0.00027087  0.99377142  0.49126503  1
  Na  Na13  1  -0.00072860  0.99821104  0.00017097  1
  Na  Na14  1  0.66454560  0.32126346  0.83315327  1
  Na  Na15  1  0.66676474  0.33371050  0.32850692  1
  Na  Na16  1  0.33321255  0.66713981  0.16444415  1
  Na  Na17  1  0.36144768  0.67236455  0.66924807  1
  Mg  Mg0  1  0.00092491  0.99805726  0.35426575  1
  Mg  Mg1  1  0.64578924  0.32593048  0.68688183  1
  Mg  Mg2  1  0.66379175  0.33228272  0.17801230  1
  Si  Si0  1  0.29853664  0.29871551  0.75060610  1
  Si  Si1  1  0.70554953  0.99950582  0.75009720  1
  Si  Si2  1  0.37265321  0.03677786  0.58524151  1
  Si  Si3  1  0.66687394  0.62515540  0.58503977  1
  Si  Si4  1  0.95205682  0.61836431  0.08587276  1
  Si  Si5  1  0.66477326  0.03892207  0.08656407  1
  Si  Si6  1  0.37956255  0.33798679  0.08378526  1
  Si  Si7  1  0.03570032  0.37739507  0.91588211  1
  Si  Si8  1  0.33207017  0.96137427  0.91595457  1
  Si  Si9  1  0.63055332  0.96426627  0.41629580  1
  Si  Si10  1  0.33097892  0.37478570  0.41614117  1
  Si  Si11  1  0.03890918  0.66335782  0.41736385  1
  Sn  Sn0  1  0.00534403  0.01289372  0.85386987  1
  Sn  Sn1  1  0.99657974  0.99868059  0.65044784  1
  Sn  Sn2  1  0.00276627  0.00085779  0.14796173  1
  Sn  Sn3  1  0.67188939  0.32076825  0.98416594  1
  Sn  Sn4  1  0.65667554  0.33679690  0.47998606  1
  Sn  Sn5  1  0.32375153  0.66800251  0.01920363  1
  Sn  Sn6  1  0.34420130  0.67500408  0.51471743  1
  Sn  Sn7  1  0.33324565  0.66836587  0.31767397  1
  Sn  Sn8  1  0.33836467  0.66934483  0.81581324  1
  S  S0  1  0.29458283  -0.00139007  0.25212317  1
  S  S1  1  0.70400475  0.70555183  0.25184165  1
  S  S2  1  0.00167634  0.29639832  0.25217179  1
  S  S3  1  0.99610478  0.70449703  0.75042932  1
  S  S4  1  0.95724434  0.33422126  0.58474411  1
  S  S5  1  0.63070398  0.66810981  0.91718582  1
  O  O0  1  0.20502667  0.01182097  0.30414932  1
  O  O1  1  0.80653282  0.79558329  0.30411723  1
  O  O2  1  0.98942304  0.19461174  0.30397083  1
  O  O3  1  0.20901075  0.17235312  0.80719097  1
  O  O4  1  0.97180551  0.78621853  0.80214326  1
  O  O5  1  0.82947244  0.02391525  0.80593412  1
  O  O6  1  0.78128430  0.96117791  0.68815689  1
  O  O7  1  0.17089308  0.21601084  0.69067876  1
  O  O8  1  0.03205789  0.81223905  0.69531677  1
  O  O9  1  0.78282952  0.81060514  0.19648495  1
  O  O10  1  0.02863054  0.21733838  0.19617440  1
  O  O11  1  0.18895449  0.97044800  0.19624886  1
  O  O12  1  0.87860219  0.35761497  0.63732068  1
  O  O13  1  0.49354419  0.11249986  0.64161085  1
  O  O14  1  0.63524480  0.50123656  0.63830919  1
  O  O15  1  0.87689939  0.49858641  0.14144397  1
  O  O16  1  0.61464703  0.11419978  0.14145047  1
  O  O17  1  0.50017729  0.38048420  0.13940550  1
  O  O18  1  0.45001927  0.29258026  0.02207274  1
  O  O19  1  0.82967049  0.54587930  0.02622103  1
  O  O20  1  0.72095762  0.15812701  0.02691401  1
  O  O21  1  0.44821466  0.15451840  0.52472617  1
  O  O22  1  0.71339533  0.55664171  0.52292743  1
  O  O23  1  0.85465843  0.30586641  0.52993010  1
  O  O24  1  0.55619500  0.69789397  0.97070358  1
  O  O25  1  0.16499052  0.45892960  0.97270876  1
  O  O26  1  0.30721626  0.85147137  0.97527266  1
  O  O27  1  0.55875623  0.84950346  0.47694009  1
  O  O28  1  0.29130164  0.45179617  0.47732546  1
  O  O29  1  0.15540212  0.70024101  0.47795997  1
  O  O30  1  0.12051650  0.61423910  0.36091672  1
  O  O31  1  0.49401965  0.88282029  0.36121310  1
  O  O32  1  0.38221272  0.50855545  0.36129597  1
  O  O33  1  0.12498435  0.48748435  0.85528909  1
  O  O34  1  0.36440270  0.87909040  0.85552786  1
  O  O35  1  0.52017143  0.63698684  0.86372427  1
  O  O36  1  0.01968708  0.83006478  0.41025178  1
  O  O37  1  0.81551857  0.98396487  0.40772141  1
  O  O38  1  0.16630825  0.18762018  0.40914844  1
  O  O39  1  0.02470601  0.18848632  0.91381060  1
  O  O40  1  0.15625847  0.97592322  0.91123015  1
  O  O41  1  0.80238201  0.82050929  0.91032930  1
  O  O42  1  0.97685757  0.17808119  0.58656551  1
  O  O43  1  0.17958166  0.02001739  0.59030193  1
  O  O44  1  0.83829945  0.82259179  0.58816857  1
  O  O45  1  0.97857935  0.81543432  0.09148924  1
  O  O46  1  0.83599454  0.01587265  0.09321837  1
  O  O47  1  0.18438608  0.16428047  0.09032321  1
  O  O48  1  0.69927244  0.17512466  0.74632522  1
  O  O49  1  0.48051377  0.31187768  0.74726429  1
  O  O50  1  0.85197043  0.53241146  0.74250353  1
  O  O51  1  0.68574329  0.53606529  0.24669581  1
  O  O52  1  0.85009302  0.31335192  0.24718012  1
  O  O53  1  0.46328629  0.15073486  0.24741390  1
  O  O54  1  0.64063000  0.51032202  0.92078875  1
  O  O55  1  0.85022357  0.36424102  0.92012724  1
  O  O56  1  0.49611065  0.15840507  0.91994831  1
  O  O57  1  0.64516299  0.15250145  0.42382281  1
  O  O58  1  0.50623044  0.36221314  0.41970008  1
  O  O59  1  0.85215847  0.48684123  0.42284658  1
  O  O60  1  0.35229151  0.50444398  0.07517554  1
  O  O61  1  0.14804069  0.64943827  0.07870826  1
  O  O62  1  0.50128176  0.84361117  0.07577302  1
  O  O63  1  0.34098422  0.83932642  0.57804874  1
  O  O64  1  0.49234973  0.64310852  0.57862193  1
  O  O65  1  0.13182703  0.48791784  0.57982285  1
  O  O66  1  0.30617597  0.83596675  0.25316734  1
  O  O67  1  0.52903936  0.69304851  0.25350582  1
  O  O68  1  0.16468601  0.47129294  0.25334425  1
  O  O69  1  0.29701846  0.48161772  0.75534570  1
  O  O70  1  0.15802260  0.69482803  0.75413764  1
  O  O71  1  0.50989222  0.83151587  0.75453570  1
loop_
_geom_bond_atom_site_label_1
_geom_bond_atom_site_label_2
_geom_bond_distance
_geom_bond_site_symmetry_2
Na0 O48 2.311925 1_555
Na0 O69 2.401110 1_655
Na0 O50 2.524307 1_555
Na0 O33 2.580986 1_655
Na0 O70 2.675677 1_655
Na0 O5 2.838638 1_555
Na0 O12 2.845141 1_555
Na0 O7 2.862726 1_655
Na1 O49 2.348780 1_555
Na1 O48 2.434088 1_555
Na1 O71 2.438353 1_545
Na1 O70 2.610317 1_545
Na1 O13 2.636619 1_555
Na1 O34 2.652436 1_545
Na1 O3 2.901866 1_555
Na2 O64 2.428237 1_555
Na2 O43 2.470362 1_555
Na2 O65 2.662043 1_555
Na2 O42 2.666030 1_455
Na2 O7 2.683052 1_555
Na2 O28 2.729389 1_555
Na2 O14 2.762611 1_555
Na2 O21 2.797220 1_555
Na3 O63 2.447303 1_555
Na3 O44 2.467577 1_455
Na3 O43 2.496606 1_565
Na3 O29 2.508008 1_555
Na3 O65 2.543958 1_555
Na3 O22 2.752941 1_455
Na3 O8 2.851632 1_555
Na4 O64 2.502784 1_555
Na4 O63 2.505623 1_555
Na4 O44 2.521292 1_555
Na4 O6 2.530620 1_555
Na4 O42 2.553972 1_565
Na4 O27 2.686014 1_555
Na4 O13 2.735417 1_565
Na5 O47 2.500814 1_565
Na5 O62 2.536125 1_555
Na5 O61 2.543543 1_555
Na5 O45 2.610600 1_455
Na5 O26 2.668422 1_554
Na5 O16 2.716595 1_565
Na5 O11 2.776095 1_555
Na5 O18 2.866758 1_565
Na6 O60 2.449544 1_555
Na6 O45 2.493609 1_555
Na6 O62 2.504728 1_555
Na6 O46 2.581285 1_565
Na6 O17 2.699836 1_555
Na6 O9 2.736054 1_555
Na6 O19 2.757069 1_555
Na6 O24 2.791934 1_554
Na7 O61 2.483527 1_555
Na7 O46 2.521048 1_455
Na7 O60 2.574111 1_555
Na7 O47 2.597056 1_555
Na7 O20 2.702601 1_455
Na7 O15 2.763855 1_455
Na7 O10 2.781724 1_555
Na7 O25 2.785656 1_554
Na8 O56 2.376458 1_555
Na8 O39 2.440739 1_555
Na8 O54 2.483827 1_555
Na8 O18 2.505586 1_556
Na8 O40 2.516466 1_545
Na8 O25 2.810196 1_555
Na8 O3 2.828409 1_555
Na9 O38 2.426117 1_655
Na9 O37 2.427531 1_545
Na9 O59 2.453812 1_555
Na9 O57 2.549200 1_555
Na9 O2 2.632291 1_555
Na9 O30 2.767473 1_655
Na9 O23 2.881797 1_555
Na9 O28 2.930436 1_655
Na10 O36 2.430630 1_545
Na10 O38 2.461209 1_555
Na10 O57 2.544481 1_555
Na10 O58 2.585159 1_555
Na10 O0 2.687283 1_555
Na10 O21 2.726100 1_555
Na10 O31 2.768520 1_545
Na11 O36 2.438012 1_655
Na11 O37 2.446198 1_555
Na11 O58 2.498560 1_555
Na11 O59 2.631469 1_555
Na11 O22 2.698568 1_555
Na11 O1 2.699858 1_555
Na11 O32 2.823289 1_555
Na11 O27 2.886144 1_555
Na12 O36 2.406313 1_555
Na12 O38 2.488571 1_565
Na12 O37 2.497840 1_455
Na12 O44 2.670148 1_455
Na12 O43 2.707651 1_565
Na12 O42 2.785024 1_465
Na13 O40 2.525267 1_554
Na13 O39 2.549442 1_564
Na13 O47 2.579707 1_565
Na13 O45 2.606189 1_455
Na13 O46 2.619028 1_465
Na13 O41 2.640073 1_454
Na14 O48 2.463650 1_555
Na14 O56 2.478246 1_555
Na14 O55 2.488484 1_555
Na14 O49 2.535273 1_555
Na14 O54 2.684447 1_555
Na14 O50 2.746512 1_555
Na15 O53 2.528827 1_555
Na15 O52 2.541675 1_555
Na15 O51 2.560345 1_555
Na15 O58 2.605408 1_555
Na15 O59 2.630051 1_555
Na15 O57 2.668724 1_555
Na16 O61 2.517331 1_555
Na16 O60 2.543799 1_555
Na16 O62 2.549670 1_555
Na16 O66 2.595181 1_555
Na16 O67 2.616711 1_555
Na16 O68 2.618486 1_555
Na17 O71 2.370326 1_555
Na17 O64 2.443903 1_555
Na17 O69 2.482622 1_555
Na17 O63 2.629929 1_555
Na17 O70 2.733669 1_555
Na17 O65 2.769565 1_555
Mg0 O37 2.018545 1_455
Mg0 O38 2.028237 1_565
Mg0 O36 2.058975 1_555
Mg0 O1 2.114663 1_455
Mg0 O0 2.115744 1_565
Mg0 O2 2.165991 1_465
Mg1 O14 1.979138 1_555
Mg1 O49 1.980971 1_555
Mg1 O13 1.993190 1_555
Mg1 O48 2.145847 1_555
Mg1 O50 2.240850 1_555
Mg1 O12 2.273613 1_555
Mg2 O15 1.942544 1_555
Mg2 O17 1.950955 1_555
Mg2 O16 1.965143 1_555
Mg2 O51 2.330175 1_555
Mg2 O53 2.346018 1_555
Mg2 O52 2.372351 1_555
O0 S0 1.465439 1_555
O1 S1 1.466733 1_555
O2 S2 1.466894 1_655
O3 Si0 1.642311 1_555
O3 Sn0 1.986758 1_555
O4 S3 1.452290 1_555
O4 Sn0 2.234959 1_665
O5 Si1 1.629528 1_545
O5 Sn0 1.971939 1_655
O6 Si1 1.667134 1_555
O6 Sn1 1.993692 1_555
O7 Si0 1.689101 1_555
O7 Sn1 2.010206 1_445
O8 S3 1.521390 1_455
O8 Sn1 2.134215 1_455
O9 S1 1.523212 1_555
O9 Sn2 2.172392 1_665
O10 S2 1.527240 1_555
O10 Sn2 2.139527 1_555
O11 S0 1.527116 1_565
O11 Sn2 2.141832 1_565
O12 S4 1.452361 1_555
O13 Si2 1.590729 1_555
O14 Si3 1.579252 1_555
O15 Si4 1.581504 1_555
O16 Si5 1.582038 1_555
O17 Si6 1.580832 1_555
O18 Si6 1.665272 1_555
O18 Sn3 2.077406 1_554
O19 Si4 1.655126 1_555
O19 Sn3 2.034870 1_554
O20 Si5 1.648737 1_555
O20 Sn3 1.995315 1_554
O21 Si2 1.664535 1_555
O21 Sn4 2.050774 1_555
O22 Si3 1.667028 1_555
O22 Sn4 2.025133 1_555
O23 S4 1.492057 1_555
O23 Sn4 2.254664 1_555
O24 S5 1.471827 1_555
O24 Sn5 2.264477 1_556
O25 Si7 1.639776 1_555
O25 Sn5 1.997129 1_556
O26 Si8 1.625059 1_555
O26 Sn5 2.011365 1_556
O27 Si9 1.652304 1_555
O27 Sn6 1.983998 1_555
O28 Si10 1.661614 1_555
O28 Sn6 2.004681 1_555
O29 Si11 1.657587 1_555
O29 Sn6 2.016010 1_555
O30 Si11 1.639638 1_555
O30 Sn7 1.989752 1_555
O31 Si9 1.642763 1_555
O31 Sn7 1.996728 1_555
O32 Si10 1.637974 1_555
O32 Sn7 1.982888 1_555
O33 Si7 1.655011 1_555
O33 Sn8 2.016616 1_555
O34 Si8 1.645024 1_555
O34 Sn8 1.995100 1_555
O35 S5 1.503195 1_555
O35 Sn8 2.113076 1_555
O36 Si11 1.611527 1_555
O37 Si9 1.603542 1_555
O38 Si10 1.604974 1_555
O39 Si7 1.660910 1_555
O39 Sn0 2.017950 1_555
O40 Si8 1.664685 1_555
O40 Sn0 2.033763 1_565
O41 S5 1.480616 1_555
O41 Sn0 2.204591 1_665
O42 S4 1.509867 1_555
O42 Sn1 2.256403 1_545
O43 Si2 1.680086 1_555
O43 Sn1 2.075393 1_445
O44 Si3 1.678913 1_555
O44 Sn1 2.061656 1_555
O45 Si4 1.678255 1_555
O45 Sn2 2.020925 1_665
O46 Si5 1.671146 1_555
O46 Sn2 2.011939 1_655
O47 Si6 1.681984 1_555
O47 Sn2 2.044085 1_555
O48 Si1 1.620520 1_545
O49 Si0 1.592142 1_555
O50 S3 1.454122 1_555
O51 S1 1.460361 1_555
O52 S2 1.459473 1_655
O53 S0 1.459383 1_555
O54 S5 1.477092 1_555
O54 Sn3 2.368929 1_555
O55 Si7 1.624794 1_655
O55 Sn3 2.055165 1_555
O56 Si8 1.652434 1_545
O56 Sn3 2.103170 1_555
O57 Si9 1.647105 1_545
O57 Sn4 2.046708 1_555
O58 Si10 1.648137 1_555
O58 Sn4 2.023805 1_555
O59 Si11 1.648077 1_655
O59 Sn4 2.063692 1_555
O60 Si6 1.656384 1_555
O60 Sn5 2.068860 1_555
O61 Si4 1.658458 1_455
O61 Sn5 2.024172 1_555
O62 Si5 1.655224 1_565
O62 Sn5 2.037515 1_555
O63 Si2 1.666813 1_565
O63 Sn6 2.065145 1_555
O64 Si3 1.673509 1_555
O64 Sn6 2.092014 1_555
O65 S4 1.496523 1_455
O65 Sn6 2.345437 1_555
O66 S0 1.526597 1_565
O66 Sn7 2.214844 1_555
O67 S1 1.530194 1_555
O67 Sn7 2.212773 1_555
O68 S2 1.528725 1_555
O68 Sn7 2.203163 1_555
O69 Si0 1.663422 1_555
O69 Sn8 2.052853 1_555
O70 S3 1.513613 1_455
O70 Sn8 2.249030 1_555
O71 Si1 1.660329 1_555
O71 Sn8 2.056638 1_555
