# generated using pymatgen
data_Na3Zr3ZnP5SO24
_symmetry_space_group_name_H-M   'P 1'
_cell_length_a   8.92124914
_cell_length_b   8.92306763
_cell_length_c   23.28243697
_cell_angle_alpha   89.88808816
_cell_angle_beta   89.99963646
_cell_angle_gamma   119.95796400
_symmetry_Int_Tables_number   1
_chemical_formula_structural   Na3Zr3ZnP5SO24
_chemical_formula_sum   'Na9 Zr9 Zn3 P15 S3 O72'
_cell_volume   1605.76362914
_cell_formula_units_Z   3
loop_
 _symmetry_equiv_pos_site_id
 _symmetry_equiv_pos_as_xyz
  1  'x, y, z'
loop_
 _atom_site_type_symbol
 _atom_site_label
 _atom_site_symmetry_multiplicity
 _atom_site_fract_x
 _atom_site_fract_y
 _atom_site_fract_z
 _atom_site_occupancy
  Na  Na0  1  0.99018416  0.36338786  0.74595328  1
  Na  Na1  1  0.30980383  0.97379236  0.08538382  1
  Na  Na2  1  0.32514805  0.03132512  0.41155114  1
  Na  Na3  1  0.98631293  0.99899711  0.49471023  1
  Na  Na4  1  0.99130247  0.00055803  0.99864132  1
  Na  Na5  1  0.65675543  0.33299117  0.82816650  1
  Na  Na6  1  0.66808413  0.33497133  0.32641556  1
  Na  Na7  1  0.33327329  0.66124913  0.16752658  1
  Na  Na8  1  0.34118178  0.66915035  0.66576255  1
  Zr  Zr0  1  0.00272151  0.99958453  0.85190913  1
  Zr  Zr1  1  0.99370548  0.99735794  0.64723645  1
  Zr  Zr2  1  0.99901699  0.99822551  0.14875727  1
  Zr  Zr3  1  0.67021121  0.33537831  0.98088318  1
  Zr  Zr4  1  0.68063699  0.34495189  0.48062462  1
  Zr  Zr5  1  0.33290810  0.66005101  0.01904335  1
  Zr  Zr6  1  0.33503267  0.65878745  0.51848155  1
  Zr  Zr7  1  0.33343705  0.67194522  0.31398006  1
  Zr  Zr8  1  0.33916922  0.67176097  0.81372216  1
  Zn  Zn0  1  0.00146317  0.00192914  0.35149365  1
  Zn  Zn1  1  0.66756686  0.34618036  0.68510537  1
  Zn  Zn2  1  0.65768316  0.32458530  0.18129231  1
  P  P0  1  0.29768908  0.00823228  0.25194281  1
  P  P1  1  0.29624333  0.29009448  0.74923237  1
  P  P2  1  0.99713137  0.70556537  0.74973884  1
  P  P3  1  0.70760129  0.00395799  0.74964192  1
  P  P4  1  0.95754367  0.33459921  0.58655653  1
  P  P5  1  0.66646098  0.62192271  0.58549630  1
  P  P6  1  0.95428784  0.61999003  0.08606839  1
  P  P7  1  0.66766146  0.04431715  0.08467744  1
  P  P8  1  0.37946298  0.33479021  0.08560751  1
  P  P9  1  0.62622201  0.66710461  0.91665021  1
  P  P10  1  0.04132543  0.37424917  0.91541842  1
  P  P11  1  0.33420607  0.95911560  0.91785364  1
  P  P12  1  0.63009203  0.95823734  0.41675997  1
  P  P13  1  0.32997302  0.37047100  0.41548497  1
  P  P14  1  0.04415344  0.67102782  0.41630472  1
  S  S0  1  0.70990327  0.70492194  0.25160366  1
  S  S1  1  0.99557486  0.29021734  0.25132182  1
  S  S2  1  0.37732006  0.04281332  0.58386331  1
  O  O0  1  0.21031360  0.02422864  0.30627129  1
  O  O1  1  0.81236482  0.78998541  0.30277733  1
  O  O2  1  0.97472644  0.18648526  0.30263550  1
  O  O3  1  0.20269656  0.17996554  0.80334534  1
  O  O4  1  0.97823982  0.79790379  0.80318776  1
  O  O5  1  0.82317873  0.02737261  0.80278391  1
  O  O6  1  0.79375937  0.97297374  0.69628428  1
  O  O7  1  0.17414183  0.20479586  0.69684378  1
  O  O8  1  0.02650185  0.82093072  0.69655593  1
  O  O9  1  0.79020312  0.81609732  0.19882574  1
  O  O10  1  0.02239586  0.20712289  0.19874723  1
  O  O11  1  0.18162247  0.97783122  0.19657531  1
  O  O12  1  0.88128136  0.36022213  0.64134659  1
  O  O13  1  0.48138591  0.12045741  0.63470439  1
  O  O14  1  0.63394909  0.51291029  0.63832905  1
  O  O15  1  0.87654945  0.51318144  0.13911375  1
  O  O16  1  0.62751389  0.11737044  0.13712618  1
  O  O17  1  0.48526064  0.36484280  0.13887767  1
  O  O18  1  0.45858706  0.30025092  0.03092910  1
  O  O19  1  0.84646691  0.54007218  0.03071008  1
  O  O20  1  0.69425698  0.15420609  0.02973414  1
  O  O21  1  0.45450632  0.14490303  0.52995126  1
  O  O22  1  0.69057435  0.53665867  0.53028433  1
  O  O23  1  0.84471771  0.30864173  0.53199258  1
  O  O24  1  0.53872075  0.69173974  0.97017551  1
  O  O25  1  0.15443167  0.46310773  0.96865510  1
  O  O26  1  0.30900137  0.85108368  0.97277378  1
  O  O27  1  0.53653374  0.84587733  0.47013979  1
  O  O28  1  0.30993364  0.46181213  0.46932853  1
  O  O29  1  0.15829593  0.69447096  0.46951079  1
  O  O30  1  0.12954517  0.64028542  0.36289295  1
  O  O31  1  0.50800825  0.87271852  0.36385142  1
  O  O32  1  0.36014763  0.48806565  0.36291865  1
  O  O33  1  0.12487203  0.48295566  0.86072642  1
  O  O34  1  0.35816109  0.86949471  0.86469076  1
  O  O35  1  0.51346999  0.64168332  0.86319903  1
  O  O36  1  0.03070638  0.83397748  0.41104949  1
  O  O37  1  0.80735913  0.97835614  0.40968262  1
  O  O38  1  0.17313763  0.18891462  0.41161564  1
  O  O39  1  0.02280839  0.19362189  0.91030924  1
  O  O40  1  0.17151939  0.97652475  0.91090028  1
  O  O41  1  0.80595856  0.82932298  0.91028224  1
  O  O42  1  0.97953841  0.17183960  0.58951440  1
  O  O43  1  0.20138550  0.02412249  0.58876787  1
  O  O44  1  0.83087152  0.80477869  0.58932594  1
  O  O45  1  0.98303055  0.80963739  0.09069238  1
  O  O46  1  0.82807860  0.02133272  0.09078759  1
  O  O47  1  0.19589305  0.16650291  0.09081664  1
  O  O48  1  0.69652679  0.16791270  0.74397836  1
  O  O49  1  0.47325468  0.30861466  0.74431392  1
  O  O50  1  0.84199446  0.52311963  0.74627485  1
  O  O51  1  0.69040156  0.53424690  0.24402248  1
  O  O52  1  0.84652408  0.31405677  0.24378574  1
  O  O53  1  0.47792966  0.16431198  0.24413004  1
  O  O54  1  0.64295496  0.50438475  0.92343529  1
  O  O55  1  0.86181913  0.35744810  0.92285631  1
  O  O56  1  0.49617124  0.13960084  0.92347668  1
  O  O57  1  0.63217502  0.13404719  0.42432930  1
  O  O58  1  0.49316939  0.35002776  0.42407292  1
  O  O59  1  0.86427422  0.50540715  0.42226690  1
  O  O60  1  0.35107062  0.49089896  0.07609208  1
  O  O61  1  0.14359505  0.65434057  0.07636840  1
  O  O62  1  0.50245187  0.86231983  0.07492661  1
  O  O63  1  0.35444905  0.86589970  0.57623649  1
  O  O64  1  0.50796511  0.64856293  0.57619217  1
  O  O65  1  0.13965947  0.49575102  0.57598761  1
  O  O66  1  0.30848063  0.83592429  0.25595356  1
  O  O67  1  0.53398458  0.69146492  0.25558177  1
  O  O68  1  0.15976692  0.46430443  0.25539053  1
  O  O69  1  0.30026006  0.46745613  0.75654117  1
  O  O70  1  0.16206174  0.68661611  0.75641436  1
  O  O71  1  0.52870649  0.83815837  0.75596996  1
loop_
_geom_bond_atom_site_label_1
_geom_bond_atom_site_label_2
_geom_bond_distance
_geom_bond_site_symmetry_2
Na0 O48 2.311789 1_555
Na0 O50 2.379339 1_555
Na0 O69 2.451671 1_655
Na0 O70 2.512951 1_655
Na0 O12 2.617107 1_555
Na0 O7 2.886000 1_655
Na0 O33 2.907503 1_655
Na0 O5 2.912606 1_555
Na1 O62 2.389715 1_555
Na1 O47 2.398277 1_565
Na1 O61 2.479728 1_555
Na1 O45 2.528626 1_455
Na1 O16 2.739655 1_565
Na1 O18 2.824676 1_565
Na1 O11 2.837674 1_555
Na1 O26 2.841892 1_554
Na2 O36 2.319786 1_545
Na2 O38 2.391852 1_555
Na2 O57 2.434088 1_555
Na2 O58 2.482945 1_555
Na2 O0 2.645304 1_555
Na2 O31 2.865229 1_545
Na2 O29 2.930361 1_545
Na2 O21 2.966624 1_555
Na3 O37 2.491890 1_555
Na3 O38 2.561026 1_665
Na3 O36 2.590888 1_655
Na3 O42 2.713068 1_565
Na3 O44 2.713662 1_555
Na3 O43 2.845999 1_665
Na4 O39 2.603628 1_655
Na4 O41 2.605740 1_545
Na4 O46 2.651145 1_556
Na4 O40 2.673955 1_645
Na4 O45 2.713127 1_546
Na4 O47 2.728150 1_656
Na5 O49 2.486922 1_555
Na5 O50 2.536081 1_555
Na5 O48 2.582807 1_555
Na5 O56 2.733197 1_555
Na5 O54 2.734101 1_555
Na5 O55 2.803199 1_555
Na6 O53 2.509679 1_555
Na6 O51 2.552345 1_555
Na6 O52 2.562843 1_555
Na6 O59 2.776946 1_555
Na6 O58 2.798808 1_555
Na6 O57 2.815009 1_555
Na7 O68 2.634060 1_555
Na7 O67 2.646137 1_555
Na7 O66 2.659652 1_555
Na7 O60 2.668574 1_555
Na7 O61 2.695945 1_555
Na7 O62 2.724975 1_555
Na8 O64 2.621268 1_555
Na8 O71 2.641361 1_555
Na8 O69 2.677373 1_555
Na8 O63 2.686820 1_555
Na8 O65 2.688783 1_555
Na8 O70 2.698590 1_555
O0 P0 1.529633 1_555
O0 Zn0 2.061211 1_555
O1 S0 1.463501 1_555
O1 Zn0 2.128630 1_665
O2 S1 1.463697 1_555
O2 Zn0 2.108992 1_655
O3 P1 1.557416 1_555
O3 Zr0 2.043743 1_545
O4 P2 1.548728 1_555
O4 Zr0 2.046579 1_655
O5 P3 1.556770 1_555
O5 Zr0 2.081062 1_645
O6 P3 1.556955 1_565
O6 Zr1 2.035832 1_555
O7 P1 1.558601 1_555
O7 Zr1 2.093778 1_445
O8 P2 1.545052 1_455
O8 Zr1 2.082173 1_455
O9 S0 1.514174 1_555
O9 Zr2 2.106960 1_555
O10 S1 1.511978 1_455
O10 Zr2 2.119635 1_445
O11 P0 1.590084 1_565
O11 Zr2 2.054696 1_455
O12 P4 1.516217 1_555
O12 Zn1 2.109429 1_555
O13 S2 1.450483 1_555
O13 Zn1 2.204692 1_555
O14 P5 1.502315 1_555
O14 Zn1 1.982093 1_555
O15 P6 1.499949 1_555
O15 Zn2 2.078624 1_555
O16 P7 1.510184 1_555
O16 Zn2 2.014700 1_555
O17 P8 1.499844 1_555
O17 Zn2 2.005207 1_555
O18 P8 1.559713 1_555
O18 Zr3 2.104236 1_554
O19 P6 1.553549 1_555
O19 Zr3 2.072279 1_554
O20 P7 1.554637 1_555
O20 Zr3 2.071771 1_554
O21 S2 1.499526 1_555
O21 Zr4 2.229470 1_555
O22 P5 1.563594 1_555
O22 Zr4 2.031531 1_555
O23 P4 1.564923 1_555
O23 Zr4 2.037210 1_555
O24 P9 1.543742 1_555
O24 Zr5 2.055709 1_556
O25 P10 1.545306 1_555
O25 Zr5 2.052631 1_556
O26 P11 1.547100 1_555
O26 Zr5 2.113662 1_556
O27 P12 1.551062 1_555
O27 Zr6 2.068981 1_555
O28 P13 1.554769 1_555
O28 Zr6 2.015897 1_555
O29 P14 1.550326 1_555
O29 Zr6 2.094605 1_555
O30 P14 1.553078 1_555
O30 Zr7 2.042268 1_555
O31 P12 1.568310 1_555
O31 Zr7 2.050564 1_555
O32 P13 1.544098 1_555
O32 Zr7 2.104839 1_555
O33 P10 1.546280 1_555
O33 Zr8 2.113512 1_555
O34 P11 1.546539 1_555
O34 Zr8 2.063879 1_555
O35 P9 1.544415 1_555
O35 Zr8 2.057324 1_555
O36 P14 1.522177 1_555
O36 Zn0 2.149194 1_565
O37 P12 1.508868 1_555
O37 Zn0 2.124469 1_665
O38 P13 1.525471 1_555
O38 Zn0 2.132116 1_555
O39 P10 1.540782 1_555
O39 Zr0 2.139624 1_545
O40 P11 1.543337 1_555
O40 Zr0 2.122454 1_555
O41 P9 1.539295 1_555
O41 Zr0 2.136579 1_655
O42 P4 1.560989 1_555
O42 Zr1 2.105800 1_545
O43 S2 1.497614 1_555
O43 Zr1 2.213519 1_445
O44 P5 1.559471 1_555
O44 Zr1 2.096913 1_555
O45 P6 1.583775 1_555
O45 Zr2 2.109245 1_555
O46 P7 1.550302 1_555
O46 Zr2 2.121953 1_545
O47 P8 1.579500 1_555
O47 Zr2 2.125427 1_445
O48 P3 1.520217 1_555
O48 Zn1 2.208581 1_555
O49 P1 1.507801 1_555
O49 Zn1 2.106075 1_555
O50 P2 1.523989 1_555
O50 Zn1 2.120749 1_555
O51 S0 1.455064 1_555
O51 Zn2 2.276747 1_555
O52 S1 1.458268 1_555
O52 Zn2 2.263100 1_555
O53 P0 1.523389 1_555
O53 Zn2 2.111544 1_555
O54 P9 1.539807 1_555
O54 Zr3 2.116765 1_555
O55 P10 1.541795 1_655
O55 Zr3 2.109198 1_555
O56 P11 1.541222 1_545
O56 Zr3 2.132868 1_555
O57 P12 1.569836 1_545
O57 Zr4 2.154876 1_555
O58 P13 1.567817 1_555
O58 Zr4 2.146665 1_555
O59 P14 1.552144 1_655
O59 Zr4 2.056623 1_555
O60 P8 1.550736 1_555
O60 Zr5 2.074858 1_555
O61 P6 1.574776 1_455
O61 Zr5 2.133097 1_555
O62 P7 1.572289 1_565
O62 Zr5 2.126241 1_555
O63 S2 1.498195 1_565
O63 Zr6 2.223408 1_555
O64 P5 1.561497 1_555
O64 Zr6 2.081820 1_555
O65 P4 1.559894 1_455
O65 Zr6 2.099260 1_555
O66 P0 1.590351 1_565
O66 Zr7 2.081669 1_555
O67 S0 1.515850 1_555
O67 Zr7 2.183533 1_555
O68 S1 1.515155 1_455
O68 Zr7 2.199328 1_555
O69 P1 1.574582 1_555
O69 Zr8 2.143314 1_555
O70 P2 1.570380 1_455
O70 Zr8 2.121981 1_555
O71 P3 1.548731 1_565
O71 Zr8 2.087212 1_555
