# generated using pymatgen
data_Pr7FeI12
_symmetry_space_group_name_H-M   'P 1'
_cell_length_a   9.97409892
_cell_length_b   9.96958522
_cell_length_c   10.08782187
_cell_angle_alpha   107.60212811
_cell_angle_beta   107.82765432
_cell_angle_gamma   107.39028735
_symmetry_Int_Tables_number   1
_chemical_formula_structural   Pr7FeI12
_chemical_formula_sum   'Pr7 Fe1 I12'
_cell_volume   821.17174806
_cell_formula_units_Z   1
loop_
 _symmetry_equiv_pos_site_id
 _symmetry_equiv_pos_as_xyz
  1  'x, y, z'
loop_
 _atom_site_type_symbol
 _atom_site_label
 _atom_site_symmetry_multiplicity
 _atom_site_fract_x
 _atom_site_fract_y
 _atom_site_fract_z
 _atom_site_occupancy
  Pr  Pr0  1  0.80016020  0.53188477  0.60206128  1
  Pr  Pr1  1  0.53381634  0.60759668  0.81378479  1
  Pr  Pr2  1  0.19983980  0.46811523  0.39793872  1
  Pr  Pr3  1  0.46618366  0.39240332  0.18621521  1
  Pr  Pr4  1  0.00000000  -0.00000000  0.00000000  1
  Pr  Pr5  1  0.60182034  0.79981059  0.53271734  1
  Pr  Pr6  1  0.39817966  0.20018941  0.46728266  1
  Fe  Fe0  1  0.50000000  0.50000000  0.50000000  1
  I  I0  1  0.72764997  0.18343031  0.57396709  1
  I  I1  1  0.97582636  0.89297327  0.65712847  1
  I  I2  1  0.57492419  0.72889690  0.18682178  1
  I  I3  1  0.10809682  0.34710437  0.02679835  1
  I  I4  1  0.65309744  0.97555768  0.89010628  1
  I  I5  1  0.89190318  0.65289563  0.97320165  1
  I  I6  1  0.02417364  0.10702673  0.34287153  1
  I  I7  1  0.81711641  0.42780704  0.27435534  1
  I  I8  1  0.34690256  0.02444232  0.10989372  1
  I  I9  1  0.27235003  0.81656969  0.42603291  1
  I  I10  1  0.18288359  0.57219296  0.72564466  1
  I  I11  1  0.42507581  0.27110310  0.81317822  1
loop_
_geom_bond_atom_site_label_1
_geom_bond_atom_site_label_2
_geom_bond_distance
_geom_bond_site_symmetry_2
Fe0 Pr5 2.730927 1_555
Fe0 Pr6 2.730927 1_555
Fe0 Pr0 2.733111 1_555
Fe0 Pr2 2.733111 1_555
Fe0 Pr1 2.891466 1_555
Fe0 Pr3 2.891466 1_555
I0 Pr6 3.202579 1_555
I0 Pr0 3.232472 1_555
I0 Pr5 3.496254 1_545
I1 Pr4 3.203683 1_666
I1 Pr5 3.272718 1_555
I1 Pr0 3.280551 1_555
I2 Pr3 3.199842 1_555
I2 Pr5 3.250953 1_555
I2 Pr1 3.434849 1_554
I3 Pr4 3.199375 1_555
I3 Pr3 3.259767 1_555
I3 Pr2 3.289502 1_555
I4 Pr4 3.200652 1_666
I4 Pr1 3.253854 1_555
I4 Pr5 3.293071 1_555
I5 Pr4 3.199375 1_666
I5 Pr1 3.259767 1_555
I5 Pr0 3.289502 1_555
I6 Pr4 3.203683 1_555
I6 Pr6 3.272718 1_555
I6 Pr2 3.280551 1_555
I7 Pr3 3.214480 1_555
I7 Pr0 3.225902 1_555
I7 Pr2 3.486216 1_655
I8 Pr4 3.200652 1_555
I8 Pr3 3.253854 1_555
I8 Pr6 3.293071 1_555
I9 Pr5 3.202579 1_555
I9 Pr2 3.232472 1_555
I9 Pr6 3.496254 1_565
I10 Pr1 3.214480 1_555
I10 Pr2 3.225902 1_555
I10 Pr0 3.486216 1_455
I11 Pr1 3.199842 1_555
I11 Pr6 3.250953 1_555
I11 Pr3 3.434849 1_556
