# generated using pymatgen
data_Mg3B7ClO13
_symmetry_space_group_name_H-M   'P 1'
_cell_length_a   8.53478917
_cell_length_b   8.52864255
_cell_length_c   12.07782810
_cell_angle_alpha   90.00000000
_cell_angle_beta   90.00000000
_cell_angle_gamma   90.00000000
_symmetry_Int_Tables_number   1
_chemical_formula_structural   Mg3B7ClO13
_chemical_formula_sum   'Mg12 B28 Cl4 O52'
_cell_volume   879.14711317
_cell_formula_units_Z   4
loop_
 _symmetry_equiv_pos_site_id
 _symmetry_equiv_pos_as_xyz
  1  'x, y, z'
loop_
 _atom_site_type_symbol
 _atom_site_label
 _atom_site_symmetry_multiplicity
 _atom_site_fract_x
 _atom_site_fract_y
 _atom_site_fract_z
 _atom_site_occupancy
  Mg  Mg0  1  0.98367734  0.46970432  0.25027528  1
  Mg  Mg1  1  0.01632266  0.53029568  0.75027528  1
  Mg  Mg2  1  0.51632266  0.46970432  0.75027528  1
  Mg  Mg3  1  0.48367734  0.53029568  0.25027528  1
  Mg  Mg4  1  0.98387150  0.03087145  0.25297915  1
  Mg  Mg5  1  0.01612850  0.96912855  0.75297915  1
  Mg  Mg6  1  0.51612850  0.03087145  0.75297915  1
  Mg  Mg7  1  0.48387150  0.96912855  0.25297915  1
  Mg  Mg8  1  0.75823700  0.25102738  0.97518245  1
  Mg  Mg9  1  0.74176300  0.25102738  0.47518245  1
  Mg  Mg10  1  0.24176300  0.74897262  0.47518245  1
  Mg  Mg11  1  0.25823700  0.74897262  0.97518245  1
  B  B0  1  0.90563592  0.74992526  0.57273926  1
  B  B1  1  0.09436408  0.25007474  0.07273926  1
  B  B2  1  0.59436408  0.74992526  0.07273926  1
  B  B3  1  0.40563592  0.25007474  0.57273926  1
  B  B4  1  0.95515687  0.75092020  0.10125901  1
  B  B5  1  0.04484313  0.24907980  0.60125901  1
  B  B6  1  0.54484313  0.75092020  0.60125901  1
  B  B7  1  0.45515687  0.24907980  0.10125901  1
  B  B8  1  0.25293047  0.09649270  0.42034123  1
  B  B9  1  0.74706953  0.90350730  0.92034123  1
  B  B10  1  0.24706953  0.09649270  0.92034123  1
  B  B11  1  0.75293047  0.90350730  0.42034123  1
  B  B12  1  0.25270102  0.40344245  0.41966520  1
  B  B13  1  0.74729898  0.59655755  0.91966520  1
  B  B14  1  0.24729898  0.40344245  0.91966520  1
  B  B15  1  0.75270102  0.59655755  0.41966520  1
  B  B16  1  0.50233146  0.49657533  0.99991147  1
  B  B17  1  0.49766854  0.50342467  0.49991147  1
  B  B18  1  0.99766854  0.49657533  0.49991147  1
  B  B19  1  0.00233146  0.50342467  0.99991147  1
  B  B20  1  0.75623653  0.75286293  0.24766960  1
  B  B21  1  0.24376347  0.24713707  0.74766960  1
  B  B22  1  0.74376347  0.75286293  0.74766960  1
  B  B23  1  0.25623653  0.24713707  0.24766960  1
  B  B24  1  0.00168867  0.99765876  0.00056324  1
  B  B25  1  0.99831133  0.00234124  0.50056324  1
  B  B26  1  0.49831133  0.99765876  0.50056324  1
  B  B27  1  0.50168867  0.00234124  0.00056324  1
  Cl  Cl0  1  0.27535386  0.74978255  0.26201809  1
  Cl  Cl1  1  0.72464614  0.25021745  0.76201809  1
  Cl  Cl2  1  0.22464614  0.74978255  0.76201809  1
  Cl  Cl3  1  0.77535386  0.25021745  0.26201809  1
  O  O0  1  0.54297462  0.32934675  0.02504600  1
  O  O1  1  0.61666990  0.67026423  0.68535059  1
  O  O2  1  0.11666990  0.32973577  0.68535059  1
  O  O3  1  0.88333010  0.67026423  0.18535059  1
  O  O4  1  0.46264742  0.08880525  0.10484957  1
  O  O5  1  0.53735258  0.91119475  0.60484957  1
  O  O6  1  0.03735258  0.08880525  0.60484957  1
  O  O7  1  0.96264742  0.91119475  0.10484957  1
  O  O8  1  0.46668845  0.83707677  0.02144158  1
  O  O9  1  0.53331155  0.16292223  0.52144158  1
  O  O10  1  0.03331155  0.83707677  0.52144158  1
  O  O11  1  0.96668845  0.16292223  0.02144158  1
  O  O12  1  0.64024502  0.82504182  0.17504196  1
  O  O13  1  0.35975498  0.17495818  0.67504196  1
  O  O14  1  0.85975498  0.82504182  0.67504196  1
  O  O15  1  0.14024502  0.17495818  0.17504196  1
  O  O16  1  0.54920026  0.59032415  0.09487873  1
  O  O17  1  0.66408907  0.48037675  0.47988867  1
  O  O18  1  0.95079974  0.59032415  0.59487873  1
  O  O19  1  0.04920026  0.40967585  0.09487873  1
  O  O20  1  0.38333010  0.32973577  0.18535059  1
  O  O21  1  0.45702538  0.67065325  0.52504600  1
  O  O22  1  0.95702538  0.32934675  0.52504600  1
  O  O23  1  0.04297462  0.67065325  0.02504600  1
  O  O24  1  0.23191451  0.25035427  0.98899254  1
  O  O25  1  0.76808549  0.74964573  0.48899254  1
  O  O26  1  0.26808549  0.25035427  0.48899254  1
  O  O27  1  0.73191451  0.74964573  0.98899254  1
  O  O28  1  0.33237574  0.97223574  0.47840262  1
  O  O29  1  0.66762426  0.02776426  0.97840262  1
  O  O30  1  0.16762426  0.97223574  0.97840262  1
  O  O31  1  0.83237574  0.02776426  0.47840262  1
  O  O32  1  0.41045963  0.46115751  0.40066384  1
  O  O33  1  0.58954037  0.53884249  0.90066384  1
  O  O34  1  0.08954037  0.46115751  0.90066384  1
  O  O35  1  0.91045963  0.53884249  0.40066384  1
  O  O36  1  0.32788372  0.12491209  0.31457784  1
  O  O37  1  0.67211628  0.87508791  0.81457784  1
  O  O38  1  0.17211628  0.12491209  0.81457784  1
  O  O39  1  0.82788372  0.87508791  0.31457784  1
  O  O40  1  0.17710515  0.36480845  0.31602054  1
  O  O41  1  0.82289485  0.63519255  0.81602054  1
  O  O42  1  0.32289485  0.36480845  0.81602054  1
  O  O43  1  0.67710515  0.63519255  0.31602054  1
  O  O44  1  0.08892191  0.05758509  0.40524455  1
  O  O45  1  0.91107809  0.94241491  0.90524455  1
  O  O46  1  0.41107809  0.05758509  0.90524455  1
  O  O47  1  0.58892191  0.94241491  0.40524455  1
  O  O48  1  0.16408907  0.51962325  0.47988867  1
  O  O49  1  0.83591093  0.48037675  0.97988867  1
  O  O50  1  0.33591093  0.51962325  0.97988867  1
  O  O51  1  0.45079974  0.40967585  0.59487873  1
loop_
_geom_bond_atom_site_label_1
_geom_bond_atom_site_label_2
_geom_bond_distance
_geom_bond_site_symmetry_2
Mg0 O35 2.009323 1_555
Mg0 O19 2.024207 1_655
Mg0 O40 2.038684 1_655
Mg0 O3 2.067416 1_555
Mg1 O34 2.009323 1_555
Mg1 O18 2.024207 1_455
Mg1 O41 2.038688 1_455
Mg1 O2 2.067416 1_555
Mg2 O33 2.009323 1_555
Mg2 O51 2.024207 1_555
Mg2 O42 2.038684 1_555
Mg2 O1 2.067416 1_555
Mg3 O32 2.009323 1_555
Mg3 O16 2.024207 1_555
Mg3 O43 2.038688 1_555
Mg3 O20 2.067416 1_555
Mg4 O39 2.022662 1_545
Mg4 O15 2.043862 1_655
Mg4 O44 2.058596 1_655
Mg4 O7 2.067709 1_545
Mg5 O38 2.022662 1_565
Mg5 O14 2.043862 1_455
Mg5 O45 2.058596 1_455
Mg5 O6 2.067709 1_565
Mg6 O37 2.022662 1_545
Mg6 O13 2.043862 1_555
Mg6 O46 2.058596 1_555
Mg6 O5 2.067709 1_545
Mg7 O36 2.022662 1_565
Mg7 O12 2.043862 1_555
Mg7 O47 2.058596 1_555
Mg7 O4 2.067709 1_565
Mg8 O11 2.010458 1_556
Mg8 O0 2.045541 1_556
Mg8 O29 2.055557 1_555
Mg8 O49 2.066106 1_555
Mg9 O9 2.010458 1_555
Mg9 O22 2.045541 1_555
Mg9 O31 2.055557 1_555
Mg9 O17 2.066106 1_555
Mg10 O10 2.010455 1_555
Mg10 O21 2.045541 1_555
Mg10 O28 2.055557 1_555
Mg10 O48 2.066106 1_555
Mg11 O8 2.010455 1_556
Mg11 O23 2.045541 1_556
Mg11 O30 2.055557 1_555
Mg11 O50 2.066106 1_555
B0 O18 1.439756 1_555
B0 O14 1.445840 1_555
B0 O10 1.457307 1_655
B0 O25 1.549608 1_555
B1 O19 1.439756 1_555
B1 O15 1.445840 1_555
B1 O11 1.457311 1_455
B1 O24 1.549608 1_554
B2 O16 1.439756 1_555
B2 O12 1.445840 1_555
B2 O8 1.457307 1_555
B2 O27 1.549608 1_554
B3 O51 1.439756 1_555
B3 O13 1.445840 1_555
B3 O9 1.457311 1_555
B3 O26 1.549608 1_555
B4 O7 1.369106 1_555
B4 O23 1.370288 1_655
B4 O3 1.371321 1_555
B5 O6 1.369106 1_555
B5 O22 1.370288 1_455
B5 O2 1.371321 1_555
B6 O5 1.369106 1_555
B6 O21 1.370288 1_555
B6 O1 1.371321 1_555
B7 O4 1.369106 1_555
B7 O0 1.370288 1_555
B7 O20 1.371321 1_555
B8 O28 1.440335 1_545
B8 O36 1.449037 1_555
B8 O44 1.450082 1_555
B8 O26 1.557621 1_555
B9 O29 1.440335 1_565
B9 O37 1.449037 1_555
B9 O45 1.450082 1_555
B9 O27 1.557621 1_555
B10 O30 1.440335 1_545
B10 O38 1.449037 1_555
B10 O46 1.450082 1_555
B10 O24 1.557621 1_555
B11 O31 1.440335 1_565
B11 O39 1.449037 1_555
B11 O47 1.450082 1_555
B11 O25 1.557621 1_555
B12 O48 1.443206 1_555
B12 O40 1.446324 1_555
B12 O32 1.451844 1_555
B12 O26 1.556609 1_555
B13 O49 1.443206 1_555
B13 O41 1.446326 1_555
B13 O33 1.451844 1_555
B13 O27 1.556609 1_555
B14 O50 1.443206 1_555
B14 O42 1.446324 1_555
B14 O34 1.451844 1_555
B14 O24 1.556609 1_555
B15 O17 1.443206 1_555
B15 O43 1.446326 1_555
B15 O35 1.451844 1_555
B15 O25 1.556609 1_555
B16 O50 1.454151 1_555
B16 O16 1.454269 1_556
B16 O33 1.456302 1_555
B16 O0 1.498873 1_556
B17 O17 1.454151 1_555
B17 O51 1.454269 1_555
B17 O32 1.456302 1_555
B17 O21 1.498873 1_555
B18 O48 1.454151 1_655
B18 O18 1.454269 1_555
B18 O35 1.456302 1_555
B18 O22 1.498873 1_555
B19 O49 1.454151 1_455
B19 O19 1.454269 1_556
B19 O34 1.456302 1_555
B19 O23 1.498873 1_556
B20 O39 1.453818 1_555
B20 O12 1.458913 1_555
B20 O43 1.464505 1_555
B20 O3 1.496460 1_555
B21 O38 1.453818 1_555
B21 O13 1.458913 1_555
B21 O42 1.464511 1_555
B21 O2 1.496460 1_555
B22 O37 1.453818 1_555
B22 O14 1.458913 1_555
B22 O41 1.464505 1_555
B22 O1 1.496460 1_555
B23 O36 1.453818 1_555
B23 O15 1.458913 1_555
B23 O40 1.464511 1_555
B23 O20 1.496460 1_555
B24 O30 1.457513 1_554
B24 O11 1.462681 1_465
B24 O45 1.464720 1_454
B24 O7 1.497094 1_455
B25 O31 1.457513 1_555
B25 O10 1.462689 1_645
B25 O44 1.464720 1_655
B25 O6 1.497094 1_655
B26 O28 1.457513 1_555
B26 O9 1.462681 1_565
B26 O47 1.464720 1_555
B26 O5 1.497094 1_555
B27 O29 1.457513 1_554
B27 O8 1.462689 1_545
B27 O46 1.464720 1_554
B27 O4 1.497094 1_555
Cl0 Mg7 2.584317 1_555
Cl0 Mg3 2.585632 1_555
Cl0 Mg10 2.590485 1_555
Cl1 Mg6 2.584317 1_555
Cl1 Mg2 2.585632 1_555
Cl1 Mg8 2.590485 1_555
Cl2 Mg5 2.584317 1_555
Cl2 Mg1 2.585632 1_555
Cl2 Mg11 2.590485 1_555
Cl3 Mg4 2.584317 1_555
Cl3 Mg0 2.585632 1_555
Cl3 Mg9 2.590485 1_555
