# generated using pymatgen
data_LiPWO4F
_symmetry_space_group_name_H-M   'P 1'
_cell_length_a   5.28562200
_cell_length_b   5.63568460
_cell_length_c   7.67367708
_cell_angle_alpha   106.77923687
_cell_angle_beta   108.12026302
_cell_angle_gamma   97.31728071
_symmetry_Int_Tables_number   1
_chemical_formula_structural   LiPWO4F
_chemical_formula_sum   'Li2 P2 W2 O8 F2'
_cell_volume   201.98882970
_cell_formula_units_Z   2
loop_
 _symmetry_equiv_pos_site_id
 _symmetry_equiv_pos_as_xyz
  1  'x, y, z'
loop_
 _atom_site_type_symbol
 _atom_site_label
 _atom_site_symmetry_multiplicity
 _atom_site_fract_x
 _atom_site_fract_y
 _atom_site_fract_z
 _atom_site_occupancy
  Li  Li0  1  0.27167600  0.60029200  0.17104000  1
  Li  Li1  1  0.72832400  0.39970800  0.82896000  1
  P  P0  1  0.31772500  0.63214700  0.76770500  1
  P  P1  1  0.68227500  0.36785300  0.23229500  1
  W  W0  1  0.00000000  0.00000000  0.00000000  1
  W  W1  1  0.00000000  0.00000000  0.50000000  1
  O  O0  1  0.38386400  0.25573400  0.08259300  1
  O  O1  1  0.68540600  0.65132500  0.33001200  1
  O  O2  1  0.31459400  0.34867500  0.66998800  1
  O  O3  1  0.75525100  0.22793500  0.37746000  1
  O  O4  1  0.61613600  0.74426600  0.91740700  1
  O  O5  1  0.24474900  0.77206500  0.62254000  1
  O  O6  1  0.88096000  0.35157000  0.11424400  1
  O  O7  1  0.11904000  0.64843000  0.88575600  1
  F  F0  1  0.15216100  0.91615700  0.26445500  1
  F  F1  1  0.84783900  0.08384300  0.73554500  1
loop_
_geom_bond_atom_site_label_1
_geom_bond_atom_site_label_2
_geom_bond_distance
_geom_bond_site_symmetry_2
Li0 O1 2.081081 1_555
Li0 O0 2.089417 1_555
Li0 O6 2.183975 1_455
Li0 O7 2.194774 1_554
Li1 O2 2.081081 1_555
Li1 O4 2.089417 1_555
Li1 O7 2.183975 1_655
Li1 O6 2.194774 1_556
O0 P1 1.551361 1_555
O0 W0 2.126823 1_555
O1 P1 1.551980 1_555
O1 W1 2.160183 1_665
O2 P0 1.551980 1_555
O2 W1 2.160183 1_555
O3 P1 1.526045 1_555
O3 W1 2.138207 1_655
O4 P0 1.551361 1_555
O4 W0 2.126823 1_666
O5 P0 1.526045 1_555
O5 W1 2.138207 1_565
O6 P1 1.581209 1_555
O6 W0 2.178975 1_655
O7 P0 1.581209 1_555
O7 W0 2.178975 1_566
F0 Li0 1.978153 1_555
F0 W0 2.150245 1_565
F0 W1 2.155247 1_565
F1 Li1 1.978153 1_555
F1 W0 2.150245 1_656
F1 W1 2.155247 1_655
