# generated using pymatgen
data_MgTi4Bi2O11
_symmetry_space_group_name_H-M   'P 1'
_cell_length_a   3.68179759
_cell_length_b   8.50980943
_cell_length_c   8.09393297
_cell_angle_alpha   85.24892943
_cell_angle_beta   76.85349849
_cell_angle_gamma   77.50662637
_symmetry_Int_Tables_number   1
_chemical_formula_structural   MgTi4Bi2O11
_chemical_formula_sum   'Mg1 Ti4 Bi2 O11'
_cell_volume   240.94963201
_cell_formula_units_Z   1
loop_
 _symmetry_equiv_pos_site_id
 _symmetry_equiv_pos_as_xyz
  1  'x, y, z'
loop_
 _atom_site_type_symbol
 _atom_site_label
 _atom_site_symmetry_multiplicity
 _atom_site_fract_x
 _atom_site_fract_y
 _atom_site_fract_z
 _atom_site_occupancy
  Mg  Mg0  1  0.00000000  0.50000000  0.50000000  1
  Ti  Ti0  1  0.64310900  0.21333100  0.50045100  1
  Ti  Ti1  1  0.35689100  0.78666900  0.49954900  1
  Ti  Ti2  1  0.65870700  0.86669700  0.81588900  1
  Ti  Ti3  1  0.34129300  0.13330300  0.18411100  1
  Bi  Bi0  1  0.11277500  0.65200200  0.12244800  1
  Bi  Bi1  1  0.88722500  0.34799800  0.87755200  1
  O  O0  1  0.71030000  0.63277400  0.94662500  1
  O  O1  1  0.28970000  0.36722600  0.05337500  1
  O  O2  1  0.64511200  0.05473800  0.65503900  1
  O  O3  1  0.35488800  0.94526200  0.34496100  1
  O  O4  1  0.48232800  0.39769400  0.63764900  1
  O  O5  1  0.51767200  0.60230600  0.36235100  1
  O  O6  1  0.79302100  0.16910700  0.24485200  1
  O  O7  1  0.20697900  0.83089300  0.75514800  1
  O  O8  1  0.14772300  0.27015500  0.43439800  1
  O  O9  1  0.85227700  0.72984500  0.56560200  1
  O  O10  1  0.50000000  0.00000000  0.00000000  1
loop_
_geom_bond_atom_site_label_1
_geom_bond_atom_site_label_2
_geom_bond_distance
_geom_bond_site_symmetry_2
Mg0 O9 1.995960 1_455
Mg0 O8 1.995960 1_555
Mg0 O4 2.285434 1_555
Mg0 O5 2.285434 1_455
Mg0 O5 2.285438 1_555
Mg0 O4 2.285438 1_455
Bi0 O0 2.313122 1_554
Bi0 O0 2.313124 1_454
Bi0 O1 2.446527 1_555
Bi0 O5 2.660740 1_455
Bi0 O5 2.660743 1_555
Bi1 O1 2.313122 1_556
Bi1 O1 2.313124 1_656
Bi1 O0 2.446527 1_555
Bi1 O4 2.660740 1_655
Bi1 O4 2.660743 1_555
O0 Ti2 2.167336 1_555
O1 Ti3 2.167336 1_555
O2 Ti0 1.762722 1_555
O2 Ti2 1.976859 1_545
O3 Ti1 1.762722 1_555
O3 Ti3 1.976859 1_565
O4 Ti0 1.905980 1_555
O5 Ti1 1.905980 1_555
O6 Ti3 1.927865 1_655
O6 Ti3 1.927869 1_555
O6 Ti0 2.060558 1_555
O7 Ti2 1.927865 1_455
O7 Ti2 1.927869 1_555
O7 Ti1 2.060558 1_555
O8 Ti0 1.966074 1_455
O8 Ti0 1.966077 1_555
O8 Ti3 2.311502 1_555
O9 Ti1 1.966074 1_655
O9 Ti1 1.966077 1_555
O9 Ti2 2.311502 1_555
O10 Ti3 1.856356 1_555
O10 Ti2 1.856356 1_544
