# generated using pymatgen
data_NaLuCl4
_symmetry_space_group_name_H-M   'P 1'
_cell_length_a   6.20404542
_cell_length_b   6.52895042
_cell_length_c   15.77700072
_cell_angle_alpha   90.00000000
_cell_angle_beta   90.00000000
_cell_angle_gamma   90.00000000
_symmetry_Int_Tables_number   1
_chemical_formula_structural   NaLuCl4
_chemical_formula_sum   'Na4 Lu4 Cl16'
_cell_volume   639.06169157
_cell_formula_units_Z   4
loop_
 _symmetry_equiv_pos_site_id
 _symmetry_equiv_pos_as_xyz
  1  'x, y, z'
loop_
 _atom_site_type_symbol
 _atom_site_label
 _atom_site_symmetry_multiplicity
 _atom_site_fract_x
 _atom_site_fract_y
 _atom_site_fract_z
 _atom_site_occupancy
  Na  Na0  1  0.00000000  0.25000000  0.31892745  1
  Na  Na1  1  0.50000000  0.75000000  0.18107255  1
  Na  Na2  1  0.00000000  0.75000000  0.68107255  1
  Na  Na3  1  0.50000000  0.25000000  0.81892745  1
  Lu  Lu0  1  0.00000000  0.25000000  0.07220053  1
  Lu  Lu1  1  0.50000000  0.25000000  0.57220053  1
  Lu  Lu2  1  0.00000000  0.75000000  0.92779947  1
  Lu  Lu3  1  0.50000000  0.75000000  0.42779947  1
  Cl  Cl0  1  0.26182006  0.59696116  0.31779729  1
  Cl  Cl1  1  0.76788273  0.42413780  0.94973281  1
  Cl  Cl2  1  0.26788273  0.57586220  0.55026719  1
  Cl  Cl3  1  0.73211727  0.92413780  0.55026719  1
  Cl  Cl4  1  0.76182006  0.40303884  0.18220271  1
  Cl  Cl5  1  0.23817994  0.59696116  0.81779729  1
  Cl  Cl6  1  0.73817994  0.90303884  0.31779729  1
  Cl  Cl7  1  0.23817994  0.09696116  0.18220271  1
  Cl  Cl8  1  0.26182006  0.09696116  0.68220271  1
  Cl  Cl9  1  0.73817994  0.40303884  0.68220271  1
  Cl  Cl10  1  0.23211727  0.57586220  0.05026719  1
  Cl  Cl11  1  0.76182006  0.90303884  0.81779729  1
  Cl  Cl12  1  0.76788273  0.92413780  0.05026719  1
  Cl  Cl13  1  0.26788273  0.07586220  0.44973281  1
  Cl  Cl14  1  0.73211727  0.42413780  0.44973281  1
  Cl  Cl15  1  0.23211727  0.07586220  0.94973281  1
loop_
_geom_bond_atom_site_label_1
_geom_bond_atom_site_label_2
_geom_bond_distance
_geom_bond_site_symmetry_2
Cl0 Lu3 2.488750 1_555
Cl0 Na0 2.787536 1_555
Cl0 Na1 2.799109 1_555
Cl1 Lu2 2.592287 1_655
Cl1 Lu0 2.664528 1_656
Cl1 Na3 2.883340 1_555
Cl2 Lu1 2.592287 1_555
Cl2 Lu3 2.664528 1_555
Cl2 Na2 2.883340 1_555
Cl3 Lu1 2.592287 1_565
Cl3 Lu3 2.664528 1_555
Cl3 Na2 2.883340 1_655
Cl4 Lu0 2.488750 1_655
Cl4 Na1 2.787536 1_555
Cl4 Na0 2.799109 1_655
Cl5 Lu2 2.488750 1_555
Cl5 Na3 2.787536 1_555
Cl5 Na2 2.799109 1_555
Cl6 Lu3 2.488750 1_555
Cl6 Na0 2.787536 1_665
Cl6 Na1 2.799109 1_555
Cl7 Lu0 2.488750 1_555
Cl7 Na1 2.787536 1_545
Cl7 Na0 2.799109 1_555
Cl8 Lu1 2.488750 1_555
Cl8 Na2 2.787536 1_545
Cl8 Na3 2.799109 1_555
Cl9 Lu1 2.488750 1_555
Cl9 Na2 2.787536 1_655
Cl9 Na3 2.799109 1_555
Cl10 Lu0 2.592287 1_555
Cl10 Lu2 2.664528 1_554
Cl10 Na1 2.883340 1_555
Cl11 Lu2 2.488750 1_655
Cl11 Na3 2.787536 1_565
Cl11 Na2 2.799109 1_655
Cl12 Lu0 2.592287 1_665
Cl12 Lu2 2.664528 1_654
Cl12 Na1 2.883340 1_555
Cl13 Lu3 2.592287 1_545
Cl13 Lu1 2.664528 1_555
Cl13 Na0 2.883340 1_555
Cl14 Lu3 2.592287 1_555
Cl14 Lu1 2.664528 1_555
Cl14 Na0 2.883340 1_655
Cl15 Lu2 2.592287 1_545
Cl15 Lu0 2.664528 1_556
Cl15 Na3 2.883340 1_555
