# generated using pymatgen
data_UZnNi4
_symmetry_space_group_name_H-M   'P 1'
_cell_length_a   4.83007717
_cell_length_b   4.83120538
_cell_length_c   4.83120538
_cell_angle_alpha   60.09246554
_cell_angle_beta   60.06065714
_cell_angle_gamma   60.06065714
_symmetry_Int_Tables_number   1
_chemical_formula_structural   UZnNi4
_chemical_formula_sum   'U1 Zn1 Ni4'
_cell_volume   79.84555908
_cell_formula_units_Z   1
loop_
 _symmetry_equiv_pos_site_id
 _symmetry_equiv_pos_as_xyz
  1  'x, y, z'
loop_
 _atom_site_type_symbol
 _atom_site_label
 _atom_site_symmetry_multiplicity
 _atom_site_fract_x
 _atom_site_fract_y
 _atom_site_fract_z
 _atom_site_occupancy
  U  U0  1  1.00047578  0.00261194  0.00261194  1
  Zn  Zn0  1  0.75035613  0.75105094  0.75105094  1
  Ni  Ni0  1  0.37596018  0.87057437  0.37551254  1
  Ni  Ni1  1  0.37596018  0.37551254  0.87057437  1
  Ni  Ni2  1  0.87151068  0.37492730  0.37492730  1
  Ni  Ni3  1  0.37573605  0.37532291  0.37532291  1
loop_
_geom_bond_atom_site_label_1
_geom_bond_atom_site_label_2
_geom_bond_distance
_geom_bond_site_symmetry_2
U0 Zn0 2.955343 1_545
U0 Zn0 2.955343 1_554
U0 Zn0 2.959398 1_644
U0 Zn0 2.969455 1_544
Ni0 Ni3 2.393659 1_555
Ni0 Ni1 2.395087 1_555
Ni0 Ni2 2.396256 1_555
Ni0 Ni3 2.437547 1_565
Ni0 Ni2 2.438818 1_465
Ni0 Ni1 2.442869 1_564
Ni0 U0 2.811104 1_465
Ni0 Zn0 2.820385 1_554
Ni0 Zn0 2.824994 1_455
Ni0 Zn0 2.843092 1_555
Ni0 U0 2.846377 1_565
Ni0 U0 2.857055 1_466
Ni1 Ni3 2.393659 1_555
Ni1 Ni2 2.396256 1_555
Ni1 Ni3 2.437547 1_556
Ni1 Ni2 2.438818 1_456
Ni1 U0 2.811104 1_456
Ni1 Zn0 2.820385 1_545
Ni1 Zn0 2.824994 1_455
Ni1 Zn0 2.843092 1_555
Ni1 U0 2.846377 1_556
Ni1 U0 2.857055 1_466
Ni2 Ni3 2.392723 1_555
Ni2 Ni3 2.437357 1_655
Ni2 U0 2.801516 1_555
Ni2 Zn0 2.822508 1_545
Ni2 Zn0 2.822508 1_554
Ni2 Zn0 2.848909 1_555
Ni2 U0 2.854312 1_565
Ni2 U0 2.854312 1_556
Ni3 U0 2.824241 1_555
Ni3 Zn0 2.834992 1_545
Ni3 Zn0 2.834992 1_554
Ni3 U0 2.836375 1_456
Ni3 U0 2.836375 1_465
Ni3 Zn0 2.837951 1_455
