# generated using pymatgen
data_Na6Ti4Si5SO24
_symmetry_space_group_name_H-M   'P 1'
_cell_length_a   8.93955425
_cell_length_b   8.93533161
_cell_length_c   22.07869835
_cell_angle_alpha   89.90333803
_cell_angle_beta   89.83349650
_cell_angle_gamma   119.97030686
_symmetry_Int_Tables_number   1
_chemical_formula_structural   Na6Ti4Si5SO24
_chemical_formula_sum   'Na18 Ti12 Si15 S3 O72'
_cell_volume   1527.76240384
_cell_formula_units_Z   3
loop_
 _symmetry_equiv_pos_site_id
 _symmetry_equiv_pos_as_xyz
  1  'x, y, z'
loop_
 _atom_site_type_symbol
 _atom_site_label
 _atom_site_symmetry_multiplicity
 _atom_site_fract_x
 _atom_site_fract_y
 _atom_site_fract_z
 _atom_site_occupancy
  Na  Na0  1  0.63631757  0.00331281  0.24986223  1
  Na  Na1  1  0.36369607  0.36665408  0.25009230  1
  Na  Na2  1  0.00022623  0.63064652  0.25001254  1
  Na  Na3  1  0.63110405  0.63029836  0.75041012  1
  Na  Na4  1  0.99684550  0.36590026  0.75008931  1
  Na  Na5  1  0.37159233  0.00462450  0.74951628  1
  Na  Na6  1  0.29678927  0.33212633  0.58287431  1
  Na  Na7  1  0.03259994  0.70249980  0.58358098  1
  Na  Na8  1  0.67126387  0.96630841  0.58391101  1
  Na  Na9  1  0.03452301  0.33135575  0.08690536  1
  Na  Na10  1  0.96767072  0.66670819  0.91648316  1
  Na  Na11  1  0.33300786  0.03553351  0.41678431  1
  Na  Na12  1  0.98669514  0.99366486  0.49750201  1
  Na  Na13  1  0.01112873  0.00394017  0.00002298  1
  Na  Na14  1  0.65974474  0.31819313  0.83529216  1
  Na  Na15  1  0.68141925  0.33869778  0.33680320  1
  Na  Na16  1  0.34250290  0.67126786  0.16401429  1
  Na  Na17  1  0.33546650  0.66451760  0.66677542  1
  Ti  Ti0  1  0.98282795  0.98693266  0.35247581  1
  Ti  Ti1  1  0.01411316  0.01648218  0.85309587  1
  Ti  Ti2  1  0.99935837  0.99982051  0.64735309  1
  Ti  Ti3  1  0.01177723  0.99458137  0.14710197  1
  Ti  Ti4  1  0.66794590  0.33458198  0.68617523  1
  Ti  Ti5  1  0.66763328  0.34714054  0.18775760  1
  Ti  Ti6  1  0.65619097  0.32979425  0.97923176  1
  Ti  Ti7  1  0.68359256  0.33655088  0.48090185  1
  Ti  Ti8  1  0.30923740  0.65319009  0.02038780  1
  Ti  Ti9  1  0.33861913  0.68302528  0.52079359  1
  Ti  Ti10  1  0.32732563  0.67513524  0.31260281  1
  Ti  Ti11  1  0.32252579  0.67289901  0.81271797  1
  Si  Si0  1  0.29107492  0.00420432  0.25275819  1
  Si  Si1  1  0.71074647  0.71491189  0.24839973  1
  Si  Si2  1  0.99980831  0.28555100  0.24861221  1
  Si  Si3  1  0.29197470  0.29263173  0.74864103  1
  Si  Si4  1  0.99584852  0.71228673  0.75169536  1
  Si  Si5  1  0.71280229  0.99934085  0.75092617  1
  Si  Si6  1  0.95956593  0.33352984  0.58426176  1
  Si  Si7  1  0.37949526  0.05013695  0.58210397  1
  Si  Si8  1  0.66615408  0.62032665  0.58287836  1
  Si  Si9  1  0.94994569  0.62655206  0.08173230  1
  Si  Si10  1  0.37677419  0.33596282  0.08339235  1
  Si  Si11  1  0.03688078  0.36896052  0.91646157  1
  Si  Si12  1  0.33556803  0.95962810  0.91738962  1
  Si  Si13  1  0.62760455  0.95962722  0.41616685  1
  Si  Si14  1  0.03839338  0.66566973  0.41688298  1
  S  S0  1  0.66282576  0.04220677  0.08301703  1
  S  S1  1  0.61871498  0.66667507  0.91728138  1
  S  S2  1  0.33321951  0.37927407  0.41673040  1
  O  O0  1  0.20698314  0.04124508  0.31212847  1
  O  O1  1  0.83866415  0.79657121  0.30756171  1
  O  O2  1  0.96380525  0.15320667  0.30573434  1
  O  O3  1  0.20032402  0.16136520  0.80653311  1
  O  O4  1  0.96419231  0.79894673  0.81135333  1
  O  O5  1  0.84544466  0.03459822  0.80683084  1
  O  O6  1  0.79862044  0.96489651  0.68980838  1
  O  O7  1  0.16688248  0.20427247  0.68942202  1
  O  O8  1  0.03391323  0.83517093  0.69131742  1
  O  O9  1  0.80410614  0.84565034  0.19177272  1
  O  O10  1  0.03689158  0.20262012  0.18819080  1
  O  O11  1  0.16146738  0.96221313  0.19430386  1
  O  O12  1  0.87158803  0.37080461  0.64365014  1
  O  O13  1  0.50317184  0.13512203  0.64195574  1
  O  O14  1  0.63197197  0.49981262  0.64389314  1
  O  O15  1  0.86360809  0.50027440  0.14197337  1
  O  O16  1  0.64014283  0.12000129  0.13962695  1
  O  O17  1  0.49560095  0.35667353  0.14372422  1
  O  O18  1  0.47853618  0.30907912  0.02595768  1
  O  O19  1  0.83576298  0.52532449  0.02232676  1
  O  O20  1  0.68935442  0.15699711  0.02994863  1
  O  O21  1  0.46653881  0.16911288  0.52227922  1
  O  O22  1  0.70130091  0.52286978  0.52670229  1
  O  O23  1  0.82864893  0.29444921  0.52663833  1
  O  O24  1  0.53045613  0.68195608  0.97071332  1
  O  O25  1  0.15603170  0.46278841  0.97716429  1
  O  O26  1  0.30872396  0.82481350  0.97297614  1
  O  O27  1  0.53161900  0.84066106  0.47702256  1
  O  O28  1  0.31659966  0.46454994  0.47216891  1
  O  O29  1  0.16596004  0.69175377  0.47534643  1
  O  O30  1  0.13491644  0.64254226  0.35633156  1
  O  O31  1  0.50024298  0.85805088  0.35792514  1
  O  O32  1  0.35012367  0.48104568  0.36121394  1
  O  O33  1  0.13913528  0.50013406  0.85835003  1
  O  O34  1  0.36022916  0.86775940  0.85546362  1
  O  O35  1  0.52119135  0.64591502  0.86029873  1
  O  O36  1  0.03735422  0.84796061  0.41264428  1
  O  O37  1  0.81778976  0.97783009  0.41118737  1
  O  O38  1  0.17751550  0.20486094  0.41467378  1
  O  O39  1  0.02136719  0.18009865  0.91137932  1
  O  O40  1  0.15430946  0.96252978  0.91259048  1
  O  O41  1  0.79529430  0.81901847  0.91449243  1
  O  O42  1  0.97497632  0.15944322  0.58822080  1
  O  O43  1  0.18583721  0.02462629  0.58827096  1
  O  O44  1  0.83803156  0.81200206  0.58797320  1
  O  O45  1  0.97015901  0.81706512  0.08823105  1
  O  O46  1  0.82450659  0.03387118  0.08563315  1
  O  O47  1  0.18148044  0.16773456  0.08796262  1
  O  O48  1  0.69162247  0.17057162  0.74536565  1
  O  O49  1  0.48140683  0.30745195  0.74456720  1
  O  O50  1  0.82751764  0.51870436  0.74560360  1
  O  O51  1  0.69357620  0.52216857  0.24353773  1
  O  O52  1  0.82769846  0.30662192  0.24344666  1
  O  O53  1  0.48489008  0.17001379  0.24354632  1
  O  O54  1  0.63979432  0.50914081  0.92024639  1
  O  O55  1  0.85286288  0.36542387  0.92157864  1
  O  O56  1  0.50713387  0.15003382  0.92391232  1
  O  O57  1  0.62951416  0.14340926  0.42050999  1
  O  O58  1  0.48856754  0.35988460  0.41882625  1
  O  O59  1  0.84870251  0.49356052  0.42182672  1
  O  O60  1  0.35870600  0.50965979  0.07764411  1
  O  O61  1  0.14222981  0.63870184  0.07771751  1
  O  O62  1  0.51082246  0.86950940  0.07664353  1
  O  O63  1  0.35955413  0.85500103  0.57845830  1
  O  O64  1  0.49246247  0.63771499  0.57685126  1
  O  O65  1  0.15036321  0.50447691  0.57657319  1
  O  O66  1  0.30901024  0.82850511  0.25548017  1
  O  O67  1  0.51708521  0.68672189  0.25653242  1
  O  O68  1  0.17203131  0.47808107  0.25686679  1
  O  O69  1  0.31204391  0.48351144  0.75648756  1
  O  O70  1  0.17169087  0.69340919  0.75496700  1
  O  O71  1  0.52153741  0.82553923  0.75675055  1
loop_
_geom_bond_atom_site_label_1
_geom_bond_atom_site_label_2
_geom_bond_distance
_geom_bond_site_symmetry_2
Na0 O52 2.378414 1_555
Na0 O53 2.466897 1_555
Na0 O67 2.478977 1_545
Na0 O66 2.539202 1_545
Na0 O16 2.639556 1_555
Na0 O31 2.692974 1_545
Na0 O9 2.825863 1_545
Na0 O2 2.827615 1_555
Na1 O68 2.377562 1_555
Na1 O67 2.482743 1_555
Na1 O53 2.486716 1_555
Na1 O51 2.559500 1_555
Na1 O17 2.646390 1_555
Na1 O32 2.685028 1_555
Na1 O0 2.863328 1_555
Na1 O10 2.881498 1_555
Na2 O51 2.413042 1_455
Na2 O66 2.426267 1_555
Na2 O52 2.514684 1_455
Na2 O68 2.516474 1_555
Na2 O30 2.619294 1_555
Na2 O15 2.672723 1_455
Na2 O1 2.834357 1_455
Na2 O11 2.842300 1_555
Na3 O71 2.393665 1_555
Na3 O50 2.415999 1_555
Na3 O69 2.476527 1_555
Na3 O49 2.504896 1_555
Na3 O14 2.628384 1_555
Na3 O35 2.644924 1_555
Na3 O6 2.910856 1_555
Na3 O4 2.914589 1_555
Na4 O48 2.397163 1_555
Na4 O69 2.471495 1_655
Na4 O50 2.496129 1_555
Na4 O70 2.539799 1_655
Na4 O12 2.615799 1_555
Na4 O33 2.696846 1_655
Na4 O5 2.852935 1_555
Na4 O7 2.894546 1_655
Na5 O49 2.375246 1_555
Na5 O70 2.444087 1_545
Na5 O48 2.480250 1_555
Na5 O71 2.554664 1_545
Na5 O34 2.615817 1_545
Na5 O13 2.643290 1_555
Na5 O3 2.833281 1_555
Na5 O8 2.918691 1_545
Na6 O64 2.399728 1_555
Na6 O43 2.413043 1_555
Na6 O65 2.473620 1_555
Na6 O42 2.496702 1_455
Na6 O7 2.614814 1_555
Na6 O28 2.680312 1_555
Na6 O21 2.901273 1_555
Na6 O14 2.929681 1_555
Na7 O44 2.385742 1_455
Na7 O65 2.474681 1_555
Na7 O43 2.496874 1_565
Na7 O63 2.535914 1_555
Na7 O8 2.656943 1_555
Na7 O29 2.690661 1_555
Na7 O22 2.864222 1_455
Na7 O12 2.885884 1_455
Na8 O42 2.383175 1_565
Na8 O63 2.449884 1_555
Na8 O44 2.487103 1_555
Na8 O64 2.552248 1_555
Na8 O6 2.606279 1_555
Na8 O27 2.648405 1_555
Na8 O23 2.833901 1_565
Na8 O13 2.904411 1_565
Na9 O46 2.367652 1_455
Na9 O47 2.404775 1_555
Na9 O61 2.421818 1_555
Na9 O10 2.518010 1_555
Na9 O60 2.522147 1_555
Na9 O25 2.670267 1_554
Na9 O15 2.896603 1_455
Na9 O20 2.959059 1_455
Na10 O40 2.317364 1_655
Na10 O55 2.356079 1_555
Na10 O41 2.514788 1_555
Na10 O54 2.540766 1_555
Na10 O4 2.610106 1_555
Na10 O19 2.633092 1_556
Na10 O33 2.913182 1_655
Na10 O26 2.927765 1_655
Na11 O36 2.319282 1_545
Na11 O57 2.326072 1_555
Na11 O58 2.511868 1_555
Na11 O38 2.514932 1_555
Na11 O0 2.585187 1_555
Na11 O21 2.622351 1_555
Na12 O37 2.394968 1_555
Na12 O36 2.450026 1_655
Na12 O44 2.491851 1_555
Na12 O42 2.526031 1_565
Na12 O38 2.563080 1_665
Na12 O43 2.606261 1_665
Na13 O40 2.441905 1_544
Na13 O47 2.455785 1_555
Na13 O45 2.467598 1_445
Na13 O39 2.482131 1_554
Na13 O46 2.618526 1_455
Na13 O41 2.620221 1_444
Na14 O56 2.423589 1_555
Na14 O55 2.466133 1_555
Na14 O48 2.478760 1_555
Na14 O49 2.535662 1_555
Na14 O50 2.581991 1_555
Na14 O54 2.602673 1_555
Na15 O59 2.373318 1_555
Na15 O57 2.418886 1_555
Na15 O52 2.530106 1_555
Na15 O58 2.568408 1_555
Na15 O51 2.597861 1_555
Na15 O53 2.642667 1_555
Na16 O60 2.441161 1_555
Na16 O61 2.534063 1_555
Na16 O67 2.536044 1_555
Na16 O62 2.536064 1_555
Na16 O66 2.562828 1_555
Na16 O68 2.616588 1_555
Na17 O69 2.496272 1_555
Na17 O64 2.508021 1_555
Na17 O70 2.522765 1_555
Na17 O63 2.523031 1_555
Na17 O65 2.532579 1_555
Na17 O71 2.533973 1_555
O0 Si0 1.623953 1_555
O0 Ti0 2.015204 1_445
O1 Si1 1.650614 1_555
O1 Ti0 1.833153 1_555
O2 Si2 1.644664 1_555
O2 Ti0 1.884022 1_545
O3 Si3 1.646050 1_555
O3 Ti1 1.826563 1_555
O4 Si4 1.623215 1_555
O4 Ti1 1.992106 1_665
O5 Si5 1.632599 1_545
O5 Ti1 1.896149 1_655
O6 Si5 1.653921 1_555
O6 Ti2 1.904213 1_555
O7 Si3 1.647193 1_555
O7 Ti2 1.929576 1_445
O8 Si4 1.648518 1_455
O8 Ti2 1.911291 1_455
O9 Si1 1.624581 1_555
O9 Ti3 1.925305 1_655
O10 Si2 1.638543 1_455
O10 Ti3 1.979594 1_545
O11 Si0 1.650708 1_565
O11 Ti3 1.831443 1_555
O12 Si6 1.644984 1_555
O12 Ti4 1.923734 1_555
O13 Si7 1.648731 1_555
O13 Ti4 1.921105 1_555
O14 Si8 1.652771 1_555
O14 Ti4 1.904231 1_555
O15 Si9 1.660344 1_555
O15 Ti5 1.885035 1_555
O16 S0 1.492909 1_555
O16 Ti5 2.195279 1_555
O17 Si10 1.658206 1_555
O17 Ti5 1.859256 1_555
O18 Si10 1.644979 1_555
O18 Ti6 1.821243 1_554
O19 Si9 1.633914 1_555
O19 Ti6 1.935740 1_554
O20 S0 1.494129 1_555
O20 Ti6 2.044291 1_554
O21 Si7 1.625763 1_555
O21 Ti7 1.980567 1_555
O22 Si8 1.634044 1_555
O22 Ti7 1.887470 1_555
O23 Si6 1.646844 1_555
O23 Ti7 1.826600 1_555
O24 S1 1.461381 1_555
O24 Ti8 2.158333 1_556
O25 Si11 1.659386 1_555
O25 Ti8 1.834669 1_556
O26 Si12 1.649053 1_555
O26 Ti8 1.857172 1_556
O27 Si13 1.657928 1_555
O27 Ti9 1.858060 1_555
O28 S2 1.488646 1_555
O28 Ti9 2.150945 1_555
O29 Si14 1.662824 1_555
O29 Ti9 1.877315 1_555
O30 Si14 1.657386 1_555
O30 Ti10 1.861304 1_555
O31 Si13 1.659404 1_555
O31 Ti10 1.884788 1_555
O32 S2 1.486627 1_555
O32 Ti10 2.132887 1_555
O33 Si11 1.665289 1_555
O33 Ti11 1.882138 1_555
O34 Si12 1.665727 1_555
O34 Ti11 1.859286 1_555
O35 S1 1.490934 1_555
O35 Ti11 2.180287 1_555
O36 Si14 1.636013 1_555
O36 Ti0 2.036484 1_455
O37 Si13 1.628402 1_555
O37 Ti0 1.931914 1_555
O38 S2 1.483770 1_555
O38 Ti0 2.311625 1_445
O39 Si11 1.626816 1_555
O39 Ti1 1.926027 1_555
O40 Si12 1.637212 1_555
O40 Ti1 2.034619 1_565
O41 S1 1.483531 1_555
O41 Ti1 2.303332 1_665
O42 Si6 1.630944 1_555
O42 Ti2 2.022933 1_545
O43 Si7 1.634584 1_555
O43 Ti2 2.036411 1_445
O44 Si8 1.636845 1_555
O44 Ti2 2.053146 1_555
O45 Si9 1.626255 1_555
O45 Ti3 1.940096 1_655
O46 S0 1.485247 1_555
O46 Ti3 2.316586 1_645
O47 Si10 1.641399 1_555
O47 Ti3 2.009172 1_545
O48 Si5 1.637303 1_545
O48 Ti4 2.050695 1_555
O49 Si3 1.633519 1_555
O49 Ti4 2.020947 1_555
O50 Si4 1.635808 1_555
O50 Ti4 2.033857 1_555
O51 Si1 1.654614 1_555
O51 Ti5 1.913681 1_555
O52 Si2 1.645012 1_555
O52 Ti5 2.053454 1_555
O53 Si0 1.634204 1_555
O53 Ti5 2.022221 1_555
O54 S1 1.511941 1_555
O54 Ti6 2.124700 1_555
O55 Si11 1.633059 1_655
O55 Ti6 2.058923 1_555
O56 Si12 1.631768 1_545
O56 Ti6 1.930022 1_555
O57 Si13 1.636670 1_545
O57 Ti7 2.041539 1_555
O58 S2 1.483743 1_555
O58 Ti7 2.310311 1_555
O59 Si14 1.626457 1_655
O59 Ti7 1.939531 1_555
O60 Si10 1.643454 1_555
O60 Ti8 2.000708 1_555
O61 Si9 1.669436 1_455
O61 Ti8 1.908730 1_555
O62 S0 1.467761 1_565
O62 Ti8 2.251057 1_555
O63 Si7 1.663859 1_565
O63 Ti9 1.933378 1_555
O64 Si8 1.641635 1_555
O64 Ti9 2.037571 1_555
O65 Si6 1.632685 1_455
O65 Ti9 2.047684 1_555
O66 Si0 1.656872 1_565
O66 Ti10 1.927431 1_555
O67 Si1 1.629495 1_555
O67 Ti10 2.057381 1_555
O68 Si2 1.649103 1_455
O68 Ti10 2.029009 1_555
O69 Si3 1.632984 1_555
O69 Ti11 2.064729 1_555
O70 Si4 1.664403 1_455
O70 Ti11 1.932266 1_555
O71 Si5 1.642219 1_555
O71 Ti11 2.027186 1_555
