# generated using pymatgen
data_Ti5Si
_symmetry_space_group_name_H-M   'P 1'
_cell_length_a   8.73993743
_cell_length_b   5.04469900
_cell_length_c   5.31181392
_cell_angle_alpha   90.00000000
_cell_angle_beta   123.27540409
_cell_angle_gamma   90.00000000
_symmetry_Int_Tables_number   1
_chemical_formula_structural   Ti5Si
_chemical_formula_sum   'Ti10 Si2'
_cell_volume   195.80105770
_cell_formula_units_Z   2
loop_
 _symmetry_equiv_pos_site_id
 _symmetry_equiv_pos_as_xyz
  1  'x, y, z'
loop_
 _atom_site_type_symbol
 _atom_site_label
 _atom_site_symmetry_multiplicity
 _atom_site_fract_x
 _atom_site_fract_y
 _atom_site_fract_z
 _atom_site_occupancy
  Ti  Ti0  1  0.34835800  0.96635400  0.04568100  1
  Ti  Ti1  1  0.69743500  0.76904000  0.50001800  1
  Ti  Ti2  1  0.30256500  0.76904000  0.49998200  1
  Ti  Ti3  1  0.15164200  0.46635400  0.95431900  1
  Ti  Ti4  1  0.00000000  0.86164800  0.50000000  1
  Ti  Ti5  1  0.84835800  0.46635400  0.04568100  1
  Ti  Ti6  1  0.19743500  0.26904000  0.50001800  1
  Ti  Ti7  1  0.80256500  0.26904000  0.49998200  1
  Ti  Ti8  1  0.65164200  0.96635400  0.95431900  1
  Ti  Ti9  1  0.50000000  0.36164800  0.50000000  1
  Si  Si0  1  0.00000000  0.96605300  0.00000000  1
  Si  Si1  1  0.50000000  0.46605300  0.00000000  1
loop_
_geom_bond_atom_site_label_1
_geom_bond_atom_site_label_2
_geom_bond_distance
_geom_bond_site_symmetry_2
Ti0 Ti2 2.834458 1_555
Ti0 Ti1 2.836122 1_555
Ti0 Ti9 2.836768 1_565
Ti0 Ti4 2.875142 1_554
Ti0 Ti6 2.877021 1_564
Ti0 Ti2 2.877522 1_554
Ti0 Ti3 2.939070 1_554
Ti0 Ti3 2.939070 1_564
Ti0 Ti8 2.945031 1_554
Ti1 Ti9 2.683493 1_555
Ti1 Ti7 2.684527 1_565
Ti1 Ti7 2.684527 1_555
Ti1 Ti4 2.685401 1_655
Ti1 Ti8 2.834458 1_555
Ti1 Ti5 2.877021 1_556
Ti1 Ti8 2.877522 1_554
Ti2 Ti9 2.683493 1_555
Ti2 Ti6 2.684527 1_565
Ti2 Ti6 2.684527 1_555
Ti2 Ti4 2.685401 1_555
Ti2 Ti8 2.836122 1_555
Ti2 Ti3 2.877021 1_554
Ti3 Ti6 2.834458 1_555
Ti3 Ti7 2.836122 1_455
Ti3 Ti4 2.836768 1_555
Ti3 Ti9 2.875142 1_556
Ti3 Ti6 2.877522 1_556
Ti3 Ti5 2.945031 1_456
Ti4 Ti6 2.683493 1_565
Ti4 Ti7 2.683493 1_465
Ti4 Ti5 2.836768 1_455
Ti4 Ti8 2.875142 1_454
Ti5 Ti7 2.834458 1_555
Ti5 Ti6 2.836122 1_655
Ti5 Ti9 2.875142 1_554
Ti5 Ti7 2.877522 1_554
Ti5 Ti8 2.939070 1_554
Ti5 Ti8 2.939070 1_544
Ti6 Ti9 2.685401 1_555
Ti7 Ti9 2.685401 1_555
Ti7 Ti8 2.877021 1_544
Ti8 Ti9 2.836768 1_565
Si0 Ti2 2.706917 1_555
Si0 Ti1 2.706917 1_454
Si0 Ti4 2.707627 1_554
Si0 Ti4 2.707627 1_555
Si0 Ti6 2.709059 1_565
Si0 Ti7 2.709059 1_464
Si0 Ti0 2.918554 1_555
Si0 Ti8 2.918554 1_454
Si0 Ti5 2.919399 1_455
Si0 Ti3 2.919399 1_554
Si0 Ti5 2.922022 1_465
Si0 Ti3 2.922022 1_564
Si1 Ti6 2.706917 1_554
Si1 Ti7 2.706917 1_555
Si1 Ti9 2.707627 1_554
Si1 Ti9 2.707627 1_555
Si1 Ti1 2.709059 1_555
Si1 Ti2 2.709059 1_554
Si1 Ti3 2.918554 1_554
Si1 Ti5 2.918554 1_555
Si1 Ti8 2.919399 1_544
Si1 Ti0 2.919399 1_545
Si1 Ti8 2.922022 1_554
Si1 Ti0 2.922022 1_555
