# generated using pymatgen
data_Na6Mg(CoO3)2
_symmetry_space_group_name_H-M   'P 1'
_cell_length_a   7.42657048
_cell_length_b   7.42656280
_cell_length_c   4.21687600
_cell_angle_alpha   90.00000000
_cell_angle_beta   90.00000000
_cell_angle_gamma   78.96724342
_symmetry_Int_Tables_number   1
_chemical_formula_structural   Na6Mg(CoO3)2
_chemical_formula_sum   'Na6 Mg1 Co2 O6'
_cell_volume   228.27861838
_cell_formula_units_Z   1
loop_
 _symmetry_equiv_pos_site_id
 _symmetry_equiv_pos_as_xyz
  1  'x, y, z'
loop_
 _atom_site_type_symbol
 _atom_site_label
 _atom_site_symmetry_multiplicity
 _atom_site_fract_x
 _atom_site_fract_y
 _atom_site_fract_z
 _atom_site_occupancy
  Na  Na0  1  0.08555700  0.59112200  0.25000000  1
  Na  Na1  1  0.32820700  0.85832100  0.75000000  1
  Na  Na2  1  0.58785500  0.58785500  0.25000000  1
  Na  Na3  1  0.42109000  0.42109000  0.75000000  1
  Na  Na4  1  0.59112200  0.08555600  0.25000000  1
  Na  Na5  1  0.85832000  0.32820700  0.75000000  1
  Mg  Mg0  1  0.99374400  0.99374400  0.25000000  1
  Co  Co0  1  0.22384700  0.22384700  0.25000000  1
  Co  Co1  1  0.79361000  0.79361000  0.75000000  1
  O  O0  1  0.05043400  0.74673600  0.75000000  1
  O  O1  1  0.26855300  0.96534900  0.25000000  1
  O  O2  1  0.38146100  0.38146100  0.25000000  1
  O  O3  1  0.63411500  0.63411500  0.75000000  1
  O  O4  1  0.96534900  0.26855300  0.25000000  1
  O  O5  1  0.74673600  0.05043400  0.75000000  1
loop_
_geom_bond_atom_site_label_1
_geom_bond_atom_site_label_2
_geom_bond_distance
_geom_bond_site_symmetry_2
Na0 O0 2.394528 1_554
Na0 O0 2.394528 1_555
Na0 O2 2.438040 1_555
Na0 O4 2.711882 1_455
Na1 O1 2.266890 1_556
Na1 O1 2.266890 1_555
Na1 O0 2.365711 1_555
Na1 O3 2.546753 1_555
Na2 O3 2.174107 1_555
Na2 O3 2.174107 1_554
Na2 O2 2.366048 1_555
Na3 O2 2.156826 1_555
Na3 O2 2.156826 1_556
Na3 O3 2.442064 1_555
Na4 O5 2.394528 1_555
Na4 O5 2.394528 1_554
Na4 O2 2.438045 1_555
Na4 O1 2.711880 1_545
Na5 O4 2.266893 1_556
Na5 O4 2.266893 1_555
Na5 O5 2.365706 1_555
Na5 O3 2.546748 1_555
Mg0 O4 2.011209 1_565
Mg0 O1 2.011212 1_655
Co0 O2 1.806846 1_555
Co0 O1 1.884603 1_545
Co0 O4 1.884605 1_455
Co1 O3 1.828410 1_555
Co1 O5 1.872145 1_565
Co1 O0 1.872147 1_655
