# generated using pymatgen
data_TiBe2
_symmetry_space_group_name_H-M   'P 1'
_cell_length_a   4.55209750
_cell_length_b   4.55211019
_cell_length_c   4.55199874
_cell_angle_alpha   60.00224305
_cell_angle_beta   60.00253567
_cell_angle_gamma   60.00272047
_symmetry_Int_Tables_number   1
_chemical_formula_structural   TiBe2
_chemical_formula_sum   'Ti2 Be4'
_cell_volume   66.70157199
_cell_formula_units_Z   2
loop_
 _symmetry_equiv_pos_site_id
 _symmetry_equiv_pos_as_xyz
  1  'x, y, z'
loop_
 _atom_site_type_symbol
 _atom_site_label
 _atom_site_symmetry_multiplicity
 _atom_site_fract_x
 _atom_site_fract_y
 _atom_site_fract_z
 _atom_site_occupancy
  Ti  Ti0  1  0.87500425  0.87500187  0.87499045  1
  Ti  Ti1  1  0.12499507  0.12499708  0.12501118  1
  Be  Be0  1  0.49999852  0.49999851  0.49999826  1
  Be  Be1  1  0.49999853  0.49999850  0.00000493  1
  Be  Be2  1  0.00000496  0.49999814  0.49999856  1
  Be  Be3  1  0.49999866  0.00000490  0.49999862  1
loop_
_geom_bond_atom_site_label_1
_geom_bond_atom_site_label_2
_geom_bond_distance
_geom_bond_site_symmetry_2
Ti0 Ti1 2.787523 1_665
Ti0 Ti1 2.787534 1_666
Ti0 Ti1 2.787691 1_656
Ti0 Ti1 2.787708 1_566
Be0 Be1 2.275969 1_555
Be0 Be2 2.276020 1_555
Be0 Be3 2.276025 1_555
Be0 Be1 2.276030 1_556
Be0 Be2 2.276078 1_655
Be0 Be3 2.276085 1_565
Be0 Ti1 2.668965 1_565
Be0 Ti1 2.668969 1_655
Be0 Ti0 2.668975 1_545
Be0 Ti0 2.668978 1_455
Be0 Ti0 2.668999 1_554
Be0 Ti1 2.669001 1_556
Be1 Be3 2.276075 1_555
Be1 Be2 2.276082 1_555
Be1 Be3 2.276133 1_564
Be1 Be2 2.276140 1_654
Be1 Ti1 2.668901 1_555
Be1 Ti0 2.668902 1_554
Be1 Ti1 2.668961 1_655
Be1 Ti0 2.668968 1_454
Be1 Ti1 2.668980 1_565
Be1 Ti0 2.668988 1_544
Be2 Be3 2.276116 1_555
Be2 Be3 2.276175 1_465
Be2 Ti1 2.668842 1_555
Be2 Ti0 2.668850 1_455
Be2 Ti1 2.668934 1_556
Be2 Ti0 2.668937 1_454
Be2 Ti1 2.668938 1_565
Be2 Ti0 2.668948 1_445
Be3 Ti1 2.668837 1_555
Be3 Ti0 2.668841 1_545
Be3 Ti1 2.668932 1_655
Be3 Ti0 2.668946 1_445
Be3 Ti1 2.668949 1_556
Be3 Ti0 2.668954 1_544
