# generated using pymatgen
data_Rb4Mg(WO4)2
_symmetry_space_group_name_H-M   'P 1'
_cell_length_a   6.39625800
_cell_length_b   7.21003013
_cell_length_c   9.78307267
_cell_angle_alpha   110.19370632
_cell_angle_beta   90.00000000
_cell_angle_gamma   116.33166179
_symmetry_Int_Tables_number   1
_chemical_formula_structural   Rb4Mg(WO4)2
_chemical_formula_sum   'Rb4 Mg1 W2 O8'
_cell_volume   373.15963544
_cell_formula_units_Z   1
loop_
 _symmetry_equiv_pos_site_id
 _symmetry_equiv_pos_as_xyz
  1  'x, y, z'
loop_
 _atom_site_type_symbol
 _atom_site_label
 _atom_site_symmetry_multiplicity
 _atom_site_fract_x
 _atom_site_fract_y
 _atom_site_fract_z
 _atom_site_occupancy
  Rb  Rb0  1  0.84398500  0.68797000  0.21777700  1
  Rb  Rb1  1  0.16263000  0.32525900  0.80232200  1
  Rb  Rb2  1  0.51082600  0.02165000  0.82997300  1
  Rb  Rb3  1  0.49840100  0.99680300  0.20223500  1
  Mg  Mg0  1  0.25017700  0.50035300  0.48694300  1
  W  W0  1  0.16323900  0.32648000  0.17203200  1
  W  W1  1  0.83328000  0.66655800  0.82260500  1
  O  O0  1  0.39055800  0.28452400  0.07177700  1
  O  O1  1  0.09179600  0.72314600  0.94206800  1
  O  O2  1  0.63135000  0.72314600  0.94206800  1
  O  O3  1  0.89396700  0.28452400  0.07177700  1
  O  O4  1  0.68493600  0.36987100  0.70270900  1
  O  O5  1  0.31263700  0.62527300  0.33265100  1
  O  O6  1  0.10006500  0.20013000  0.32618600  1
  O  O7  1  0.92382100  0.84764200  0.71854400  1
loop_
_geom_bond_atom_site_label_1
_geom_bond_atom_site_label_2
_geom_bond_distance
_geom_bond_site_symmetry_2
Mg0 O5 1.966889 1_555
Mg0 O6 1.971488 1_555
Mg0 Rb1 3.672715 1_555
Mg0 Rb2 3.728434 1_565
O0 W0 1.831101 1_555
O0 Rb2 2.824550 1_554
O0 Rb0 2.925803 1_555
O0 Rb3 3.083098 1_545
O0 Rb1 3.174126 1_554
O1 W1 1.827248 1_455
O1 Rb1 2.957968 1_555
O1 Rb3 3.019229 1_556
O1 Rb2 3.087127 1_565
O1 Rb0 3.157171 1_456
O2 W1 1.827258 1_555
O2 Rb1 2.957964 1_555
O2 Rb3 3.019232 1_556
O2 Rb2 3.087120 1_565
O2 Rb0 3.157171 1_556
O3 W0 1.831084 1_655
O3 Rb2 2.824546 1_554
O3 Rb0 2.925806 1_555
O3 Rb3 3.083105 1_545
O3 Rb1 3.174126 1_654
O4 W1 1.821842 1_555
O4 Rb2 2.961671 1_555
O4 Rb1 3.387807 1_655
O4 Rb1 3.387807 1_555
O5 W0 1.964677 1_555
O5 Rb3 3.122699 1_555
O5 Rb0 3.464947 1_555
O5 Rb0 3.464952 1_455
O6 W0 1.972176 1_555
O6 Rb0 3.061708 1_445
O6 Rb3 3.492484 1_545
O6 Rb3 3.492491 1_445
O7 W1 1.822992 1_555
O7 Rb1 2.872036 1_665
O7 Rb2 3.425851 1_565
O7 Rb2 3.425864 1_665
