# generated using pymatgen
data_Na10Zn4In4Si3(S3O16)3
_symmetry_space_group_name_H-M   'P 1'
_cell_length_a   18.04481938
_cell_length_b   9.02752733
_cell_length_c   22.85440321
_cell_angle_alpha   89.81936225
_cell_angle_beta   88.67903762
_cell_angle_gamma   120.16101734
_symmetry_Int_Tables_number   1
_chemical_formula_structural   Na10Zn4In4Si3(S3O16)3
_chemical_formula_sum   'Na30 Zn12 In12 Si9 S27 O144'
_cell_volume   3217.63207705
_cell_formula_units_Z   3
loop_
 _symmetry_equiv_pos_site_id
 _symmetry_equiv_pos_as_xyz
  1  'x, y, z'
loop_
 _atom_site_type_symbol
 _atom_site_label
 _atom_site_symmetry_multiplicity
 _atom_site_fract_x
 _atom_site_fract_y
 _atom_site_fract_z
 _atom_site_occupancy
  Na  Na0  1  0.19087282  0.37378762  0.24539435  1
  Na  Na1  1  0.69019231  0.37560336  0.24559900  1
  Na  Na2  1  0.99133950  0.63469383  0.25250408  1
  Na  Na3  1  0.49307968  0.63063380  0.25732759  1
  Na  Na4  1  0.32195284  0.64871396  0.74565178  1
  Na  Na5  1  0.81921800  0.64281120  0.74526532  1
  Na  Na6  1  0.99259077  0.35106277  0.75038635  1
  Na  Na7  1  0.19220050  0.00793496  0.74250489  1
  Na  Na8  1  0.69111104  0.00835794  0.74361152  1
  Na  Na9  1  0.52349469  0.70699789  0.57617252  1
  Na  Na10  1  0.32671362  0.96795537  0.58725359  1
  Na  Na11  1  0.82607063  0.96323674  0.58604430  1
  Na  Na12  1  0.15405354  0.98049568  0.07981153  1
  Na  Na13  1  0.65366843  0.97985663  0.07970203  1
  Na  Na14  1  0.32845117  0.68925254  0.08958720  1
  Na  Na15  1  0.82801298  0.68922996  0.08977560  1
  Na  Na16  1  0.65984906  0.01937483  0.42276125  1
  Na  Na17  1  0.35681409  0.67184833  0.41136447  1
  Na  Na18  1  0.01245074  0.00261003  0.49858414  1
  Na  Na19  1  0.50980229  0.01071645  0.49644607  1
  Na  Na20  1  0.00669281  0.02065945  0.99727774  1
  Na  Na21  1  0.50696502  0.02163725  0.99675321  1
  Na  Na22  1  0.34144025  0.32250049  0.83051287  1
  Na  Na23  1  0.83258182  0.32020907  0.83309819  1
  Na  Na24  1  0.33909479  0.33530440  0.33314635  1
  Na  Na25  1  0.83759595  0.34498816  0.33057932  1
  Na  Na26  1  0.17297927  0.65832171  0.16465319  1
  Na  Na27  1  0.67237975  0.65753288  0.16558897  1
  Na  Na28  1  0.16846444  0.68051618  0.65856301  1
  Na  Na29  1  0.66692079  0.66673734  0.66125353  1
  Zn  Zn0  1  0.98980318  0.98015058  0.34848428  1
  Zn  Zn1  1  0.49331180  0.97297779  0.34998679  1
  Zn  Zn2  1  0.99171967  0.00324677  0.84965485  1
  Zn  Zn3  1  0.49279468  0.00739725  0.84872534  1
  Zn  Zn4  1  0.33230861  0.29208935  0.67976425  1
  Zn  Zn5  1  0.82981137  0.30399995  0.67765893  1
  Zn  Zn6  1  0.32899447  0.35377524  0.18209273  1
  Zn  Zn7  1  0.82796702  0.35399667  0.18200442  1
  Zn  Zn8  1  0.16204682  0.63573340  0.01701725  1
  Zn  Zn9  1  0.66134148  0.63458442  0.01676768  1
  Zn  Zn10  1  0.15940749  0.68315299  0.51888917  1
  Zn  Zn11  1  0.66254837  0.68222607  0.51406299  1
  In  In0  1  0.00232633  0.99872687  0.64826219  1
  In  In1  1  0.50281811  0.00755456  0.65172171  1
  In  In2  1  0.99740469  0.00910268  0.15240124  1
  In  In3  1  0.49746107  0.00893495  0.15184919  1
  In  In4  1  0.32981161  0.32990705  0.98354392  1
  In  In5  1  0.82936468  0.32946163  0.98351697  1
  In  In6  1  0.33082574  0.32834044  0.48221735  1
  In  In7  1  0.83194790  0.33719553  0.48575504  1
  In  In8  1  0.17254679  0.67351506  0.31809647  1
  In  In9  1  0.67014443  0.66972284  0.32020512  1
  In  In10  1  0.17309331  0.67697233  0.82168340  1
  In  In11  1  0.66723506  0.66920999  0.81997799  1
  Si  Si0  1  0.35157216  0.70248615  0.24990305  1
  Si  Si1  1  0.85227814  0.70472267  0.25035750  1
  Si  Si2  1  0.35459807  0.00565841  0.75141906  1
  Si  Si3  1  0.85412638  0.00265643  0.75052354  1
  Si  Si4  1  0.18349037  0.03430428  0.58395145  1
  Si  Si5  1  0.68299755  0.03223977  0.58425713  1
  Si  Si6  1  0.18301645  0.33241459  0.08493159  1
  Si  Si7  1  0.68271595  0.33280819  0.08471568  1
  Si  Si8  1  0.51757015  0.66552464  0.41734925  1
  S  S0  1  0.14752368  0.00065930  0.25130229  1
  S  S1  1  0.64939288  0.00193492  0.25009993  1
  S  S2  1  0.99872049  0.29718359  0.25286575  1
  S  S3  1  0.49861374  0.29441541  0.25228569  1
  S  S4  1  0.14668760  0.29426297  0.75288244  1
  S  S5  1  0.64780697  0.29629713  0.75276150  1
  S  S6  1  0.99940908  0.70429940  0.75279761  1
  S  S7  1  0.49930475  0.70289384  0.75198914  1
  S  S8  1  0.48233618  0.33721857  0.58346336  1
  S  S9  1  0.98264441  0.33920020  0.58373255  1
  S  S10  1  0.33160044  0.62571783  0.58516244  1
  S  S11  1  0.83182946  0.62620638  0.58499889  1
  S  S12  1  0.48281168  0.62691794  0.08314913  1
  S  S13  1  0.98273638  0.62662672  0.08301350  1
  S  S14  1  0.33316151  0.04279190  0.08331013  1
  S  S15  1  0.83336688  0.04330485  0.08325151  1
  S  S16  1  0.31799797  0.66878791  0.91794390  1
  S  S17  1  0.81710080  0.66894731  0.91707840  1
  S  S18  1  0.01824417  0.37075202  0.91722787  1
  S  S19  1  0.51802713  0.37047972  0.91815120  1
  S  S20  1  0.16443497  0.96337856  0.91850984  1
  S  S21  1  0.66479071  0.96177126  0.91789527  1
  S  S22  1  0.31431436  0.96117501  0.41793439  1
  S  S23  1  0.81905676  0.96815604  0.41845319  1
  S  S24  1  0.16199208  0.36841780  0.41785230  1
  S  S25  1  0.66744243  0.37080784  0.41770171  1
  S  S26  1  0.01917683  0.66779263  0.41686245  1
  O  O0  1  0.10602540  0.03128149  0.30193844  1
  O  O1  1  0.60899348  0.03120326  0.30234628  1
  O  O2  1  0.40864760  0.78553297  0.30656601  1
  O  O3  1  0.91719868  0.79214912  0.30273054  1
  O  O4  1  0.48914634  0.18952284  0.30379320  1
  O  O5  1  0.98882505  0.19217410  0.30440880  1
  O  O6  1  0.10725507  0.18149883  0.80430489  1
  O  O7  1  0.60751777  0.18364097  0.80403381  1
  O  O8  1  0.48808155  0.78851617  0.80307669  1
  O  O9  1  0.98742804  0.78530570  0.80464661  1
  O  O10  1  0.40999733  0.02259383  0.80636255  1
  O  O11  1  0.91662609  0.04019219  0.80400955  1
  O  O12  1  0.38969395  0.95837746  0.69055773  1
  O  O13  1  0.89158927  0.95794328  0.69052114  1
  O  O14  1  0.09466887  0.22291256  0.70016015  1
  O  O15  1  0.59949873  0.22651359  0.69909610  1
  O  O16  1  0.01981190  0.81257622  0.69950780  1
  O  O17  1  0.51901581  0.81017029  0.69692604  1
  O  O18  1  0.39061623  0.80968680  0.18801543  1
  O  O19  1  0.88946210  0.80950448  0.18733188  1
  O  O20  1  0.02069064  0.23181099  0.19885039  1
  O  O21  1  0.51829368  0.22658241  0.19783593  1
  O  O22  1  0.09718953  0.96900015  0.19672344  1
  O  O23  1  0.59731704  0.97352193  0.19683161  1
  O  O24  1  0.44358203  0.36961452  0.63585116  1
  O  O25  1  0.94544887  0.36580913  0.63839715  1
  O  O26  1  0.23780598  0.10645708  0.64358583  1
  O  O27  1  0.73908934  0.11188021  0.64203512  1
  O  O28  1  0.32378135  0.52677829  0.63851530  1
  O  O29  1  0.82406760  0.52855788  0.63905537  1
  O  O30  1  0.44484508  0.52389513  0.13693255  1
  O  O31  1  0.94493362  0.52401128  0.13699337  1
  O  O32  1  0.32262209  0.12546282  0.13528980  1
  O  O33  1  0.82305409  0.12622833  0.13525522  1
  O  O34  1  0.23966138  0.36773040  0.14287471  1
  O  O35  1  0.73947725  0.36878211  0.14259176  1
  O  O36  1  0.22310918  0.28479424  0.02821726  1
  O  O37  1  0.72279486  0.28480666  0.02800816  1
  O  O38  1  0.42889914  0.54676555  0.03153844  1
  O  O39  1  0.92892044  0.54588140  0.03149606  1
  O  O40  1  0.34966304  0.14577751  0.02901026  1
  O  O41  1  0.85010951  0.14652120  0.02894183  1
  O  O42  1  0.22779631  0.15295278  0.52621149  1
  O  O43  1  0.72321270  0.14268458  0.52337720  1
  O  O44  1  0.34876585  0.55265873  0.53149477  1
  O  O45  1  0.84856103  0.55179789  0.53210170  1
  O  O46  1  0.42989531  0.30704199  0.53139706  1
  O  O47  1  0.92760214  0.31120295  0.53259840  1
  O  O48  1  0.27362363  0.68881324  0.96953206  1
  O  O49  1  0.77382270  0.68871244  0.96932737  1
  O  O50  1  0.07090620  0.46059469  0.96676345  1
  O  O51  1  0.56947771  0.45667946  0.96882779  1
  O  O52  1  0.15493117  0.85757077  0.97051860  1
  O  O53  1  0.65564465  0.85779211  0.97041253  1
  O  O54  1  0.27296490  0.85042184  0.47048391  1
  O  O55  1  0.77893709  0.86440841  0.47219941  1
  O  O56  1  0.15272063  0.45745927  0.46833436  1
  O  O57  1  0.65909519  0.45853683  0.46877343  1
  O  O58  1  0.07110789  0.68198492  0.46666466  1
  O  O59  1  0.57499978  0.69884901  0.47402352  1
  O  O60  1  0.05620925  0.64056775  0.36057825  1
  O  O61  1  0.55861837  0.63863278  0.35595153  1
  O  O62  1  0.26217654  0.88447495  0.36516343  1
  O  O63  1  0.76430703  0.89144599  0.36671229  1
  O  O64  1  0.17825270  0.47289673  0.36161151  1
  O  O65  1  0.68223316  0.46886692  0.36180744  1
  O  O66  1  0.05627853  0.47268435  0.86065754  1
  O  O67  1  0.55627187  0.47474649  0.86303475  1
  O  O68  1  0.17697239  0.88710437  0.86299012  1
  O  O69  1  0.67790741  0.88529405  0.86296366  1
  O  O70  1  0.26647681  0.63812548  0.86369436  1
  O  O71  1  0.76622231  0.64144101  0.86318564  1
  O  O72  1  0.01198822  0.82198238  0.41239747  1
  O  O73  1  0.51081150  0.84221029  0.41394794  1
  O  O74  1  0.39952288  0.97584006  0.41143977  1
  O  O75  1  0.90485874  0.98946985  0.41096040  1
  O  O76  1  0.08674397  0.19749655  0.41139160  1
  O  O77  1  0.59112733  0.19755016  0.41298257  1
  O  O78  1  0.01147790  0.20222204  0.91297021  1
  O  O79  1  0.51148622  0.20166697  0.91333795  1
  O  O80  1  0.08779117  0.98022659  0.91271907  1
  O  O81  1  0.58847580  0.97968497  0.91212821  1
  O  O82  1  0.40329341  0.82222706  0.91198994  1
  O  O83  1  0.90306980  0.82290720  0.91135554  1
  O  O84  1  0.48548548  0.17461019  0.58931218  1
  O  O85  1  0.98416561  0.17504616  0.58777042  1
  O  O86  1  0.08780616  0.01443526  0.58687628  1
  O  O87  1  0.58469087  0.00225907  0.58866377  1
  O  O88  1  0.41050450  0.80294367  0.58685607  1
  O  O89  1  0.90791302  0.80530460  0.58614347  1
  O  O90  1  0.48855574  0.79850273  0.08687426  1
  O  O91  1  0.98855935  0.79811544  0.08666639  1
  O  O92  1  0.40687152  0.01084246  0.08565921  1
  O  O93  1  0.90730824  0.01168817  0.08565326  1
  O  O94  1  0.08916077  0.15171307  0.08945331  1
  O  O95  1  0.58914600  0.15188113  0.08907453  1
  O  O96  1  0.33838018  0.16786943  0.74855556  1
  O  O97  1  0.84391732  0.17431860  0.74624685  1
  O  O98  1  0.23501096  0.32660093  0.74524956  1
  O  O99  1  0.73643260  0.32307343  0.74634605  1
  O  O100  1  0.42036678  0.53693697  0.74501714  1
  O  O101  1  0.92098364  0.53482582  0.74585170  1
  O  O102  1  0.34438678  0.51215203  0.24728674  1
  O  O103  1  0.84413969  0.51293775  0.24727773  1
  O  O104  1  0.42234984  0.31247508  0.24517062  1
  O  O105  1  0.92230273  0.31388315  0.24524854  1
  O  O106  1  0.23446270  0.14856952  0.24414829  1
  O  O107  1  0.73577871  0.15368955  0.24336634  1
  O  O108  1  0.32592093  0.51205644  0.92183002  1
  O  O109  1  0.82577380  0.51245983  0.92084171  1
  O  O110  1  0.43110612  0.35346323  0.92304357  1
  O  O111  1  0.93159634  0.35465784  0.92209572  1
  O  O112  1  0.24500286  0.13447314  0.91978814  1
  O  O113  1  0.74564018  0.13416524  0.91905706  1
  O  O114  1  0.32311835  0.13227709  0.42118978  1
  O  O115  1  0.82410460  0.13986410  0.42203425  1
  O  O116  1  0.24344882  0.36146322  0.42005903  1
  O  O117  1  0.74537160  0.34783786  0.41996428  1
  O  O118  1  0.41818961  0.50017356  0.42134612  1
  O  O119  1  0.93162826  0.50855158  0.42214581  1
  O  O120  1  0.18099064  0.51127325  0.07793574  1
  O  O121  1  0.68105044  0.51194692  0.07781519  1
  O  O122  1  0.07134068  0.65795157  0.07523216  1
  O  O123  1  0.57133610  0.65855439  0.07529549  1
  O  O124  1  0.25282917  0.87179354  0.07803276  1
  O  O125  1  0.75317370  0.87255260  0.07793579  1
  O  O126  1  0.18142123  0.84973064  0.57854664  1
  O  O127  1  0.67662257  0.84299946  0.58067638  1
  O  O128  1  0.25581101  0.64517803  0.57923727  1
  O  O129  1  0.75425134  0.64083932  0.57910771  1
  O  O130  1  0.06929279  0.48660019  0.57577490  1
  O  O131  1  0.56913789  0.48679520  0.57716734  1
  O  O132  1  0.14950319  0.83618930  0.25792644  1
  O  O133  1  0.65358314  0.84142813  0.25510471  1
  O  O134  1  0.25250083  0.66980868  0.25291129  1
  O  O135  1  0.75346212  0.67241205  0.25566343  1
  O  O136  1  0.07568059  0.47527439  0.25692304  1
  O  O137  1  0.57682315  0.47076666  0.25454859  1
  O  O138  1  0.15143401  0.46593219  0.75927845  1
  O  O139  1  0.65774211  0.47113224  0.75871465  1
  O  O140  1  0.07516374  0.67684662  0.75771354  1
  O  O141  1  0.57749101  0.68561991  0.75680997  1
  O  O142  1  0.25590924  0.82545324  0.75458175  1
  O  O143  1  0.75676262  0.82750948  0.75579287  1
loop_
_geom_bond_atom_site_label_1
_geom_bond_atom_site_label_2
_geom_bond_distance
_geom_bond_site_symmetry_2
Na0 O134 2.330886 1_555
Na0 O102 2.400962 1_555
Na0 O34 2.494375 1_555
Na0 O106 2.521823 1_555
Na0 O136 2.668218 1_555
Na0 O64 2.845862 1_555
Na0 O20 2.899800 1_555
Na0 O0 2.949753 1_555
Na1 O135 2.340475 1_555
Na1 O103 2.408310 1_555
Na1 O35 2.509231 1_555
Na1 O107 2.519380 1_555
Na1 O137 2.590886 1_555
Na1 O65 2.810904 1_555
Na1 O21 2.931757 1_555
Na1 O1 2.967253 1_555
Na2 O103 2.315051 1_555
Na2 O132 2.504122 1_655
Na2 O105 2.520733 1_555
Na2 O136 2.569970 1_655
Na2 O3 2.641666 1_555
Na2 O60 2.746915 1_655
Na2 O31 2.818971 1_555
Na2 O22 2.907327 1_655
Na3 O102 2.354150 1_555
Na3 O104 2.508659 1_555
Na3 O133 2.542926 1_555
Na3 O61 2.553905 1_555
Na3 O137 2.560868 1_555
Na3 O2 2.759473 1_555
Na3 O30 2.922585 1_555
Na3 O23 3.005610 1_555
Na4 O142 2.430869 1_555
Na4 O100 2.443707 1_555
Na4 O98 2.516700 1_555
Na4 O138 2.671738 1_555
Na4 O28 2.694052 1_555
Na4 O12 2.714316 1_555
Na4 O70 2.840253 1_555
Na4 O8 2.948199 1_555
Na5 O143 2.446715 1_555
Na5 O101 2.474379 1_555
Na5 O99 2.495738 1_555
Na5 O139 2.530720 1_555
Na5 O29 2.657120 1_555
Na5 O13 2.744636 1_555
Na5 O71 2.836680 1_555
Na6 O97 2.337390 1_555
Na6 O138 2.524623 1_655
Na6 O140 2.551260 1_655
Na6 O101 2.567386 1_555
Na6 O11 2.700369 1_555
Na6 O25 2.739371 1_555
Na6 O66 2.785783 1_655
Na6 O14 2.846246 1_655
Na7 O96 2.291881 1_555
Na7 O26 2.396928 1_555
Na7 O142 2.454868 1_545
Na7 O98 2.578124 1_555
Na7 O140 2.670421 1_545
Na7 O16 2.896832 1_545
Na7 O68 2.914231 1_545
Na8 O97 2.389212 1_555
Na8 O27 2.468352 1_555
Na8 O143 2.470271 1_545
Na8 O99 2.532443 1_555
Na8 O141 2.597419 1_545
Na8 O69 2.901106 1_545
Na8 O17 2.926579 1_545
Na8 O7 3.000402 1_555
Na9 O87 2.338224 1_565
Na9 O127 2.399579 1_555
Na9 O131 2.505269 1_555
Na9 O59 2.507805 1_555
Na9 O88 2.592269 1_555
Na9 O17 2.927765 1_555
Na9 O44 2.944151 1_555
Na9 O24 2.947197 1_555
Na10 O126 2.294778 1_555
Na10 O84 2.515304 1_565
Na10 O128 2.535576 1_555
Na10 O88 2.601536 1_555
Na10 O12 2.663514 1_555
Na10 O26 2.779438 1_565
Na10 O54 2.879505 1_555
Na10 O46 2.933475 1_565
Na11 O127 2.353814 1_555
Na11 O85 2.514049 1_565
Na11 O89 2.515891 1_555
Na11 O129 2.529344 1_555
Na11 O13 2.699563 1_555
Na11 O55 2.764630 1_555
Na11 O27 2.817140 1_565
Na11 O47 2.967442 1_565
Na12 O94 2.370199 1_565
Na12 O124 2.428174 1_555
Na12 O122 2.521728 1_555
Na12 O91 2.586402 1_455
Na12 O36 2.638484 1_565
Na12 O52 2.739369 1_554
Na12 O22 2.822733 1_555
Na12 O32 2.959888 1_565
Na13 O95 2.370787 1_565
Na13 O125 2.430783 1_555
Na13 O123 2.511799 1_555
Na13 O90 2.580393 1_555
Na13 O37 2.644111 1_565
Na13 O53 2.739894 1_554
Na13 O23 2.831659 1_555
Na13 O33 2.971773 1_565
Na14 O120 2.339250 1_555
Na14 O92 2.510612 1_565
Na14 O18 2.531198 1_555
Na14 O90 2.539950 1_555
Na14 O124 2.630756 1_555
Na14 O34 2.773026 1_555
Na14 O48 2.937430 1_554
Na14 O38 2.990446 1_555
Na15 O121 2.332396 1_555
Na15 O19 2.509772 1_555
Na15 O93 2.517285 1_565
Na15 O91 2.548056 1_555
Na15 O125 2.625960 1_555
Na15 O35 2.760967 1_555
Na15 O49 2.941696 1_554
Na15 O39 3.005178 1_555
Na16 O73 2.352870 1_545
Na16 O77 2.487928 1_555
Na16 O117 2.564003 1_555
Na16 O43 2.587018 1_555
Na16 O115 2.593541 1_555
Na16 O59 2.744732 1_545
Na16 O63 2.934795 1_545
Na16 O1 2.939416 1_555
Na17 O118 2.326947 1_555
Na17 O73 2.409237 1_555
Na17 O74 2.449477 1_555
Na17 O116 2.508660 1_555
Na17 O2 2.565399 1_555
Na18 O86 2.431905 1_555
Na18 O76 2.519557 1_555
Na18 O72 2.558559 1_545
Na18 O89 2.676308 1_445
Na18 O85 2.758411 1_455
Na18 O75 2.782643 1_445
Na19 O73 2.431791 1_545
Na19 O77 2.449566 1_555
Na19 O87 2.551049 1_555
Na19 O74 2.717717 1_545
Na19 O88 2.725043 1_545
Na19 O84 2.741430 1_555
Na20 O78 2.497345 1_555
Na20 O80 2.533831 1_545
Na20 O94 2.538336 1_556
Na20 O93 2.643528 1_456
Na20 O83 2.715980 1_445
Na20 O91 2.756719 1_446
Na21 O79 2.474358 1_555
Na21 O95 2.537966 1_556
Na21 O81 2.545703 1_545
Na21 O92 2.655751 1_556
Na21 O82 2.701507 1_545
Na21 O90 2.771293 1_546
Na22 O96 2.324637 1_555
Na22 O100 2.582859 1_555
Na22 O110 2.622059 1_555
Na22 O112 2.630347 1_555
Na22 O98 2.780362 1_555
Na22 O108 2.799891 1_555
Na23 O97 2.446395 1_555
Na23 O113 2.516116 1_555
Na23 O101 2.645303 1_555
Na23 O111 2.653169 1_555
Na23 O99 2.673053 1_555
Na23 O109 2.696922 1_555
Na24 O102 2.495363 1_555
Na24 O118 2.516445 1_555
Na24 O104 2.552755 1_555
Na24 O114 2.628745 1_555
Na24 O116 2.689709 1_555
Na24 O106 2.746652 1_555
Na25 O103 2.393477 1_555
Na25 O105 2.552597 1_555
Na25 O117 2.613414 1_555
Na25 O119 2.665397 1_555
Na25 O107 2.707955 1_555
Na25 O115 2.712221 1_555
Na26 O120 2.430465 1_555
Na26 O134 2.474615 1_555
Na26 O124 2.600606 1_555
Na26 O136 2.674339 1_555
Na26 O122 2.776151 1_555
Na26 O132 2.822299 1_555
Na27 O121 2.446366 1_555
Na27 O135 2.517878 1_555
Na27 O137 2.616273 1_555
Na27 O125 2.627457 1_555
Na27 O133 2.758931 1_555
Na27 O123 2.788059 1_555
Na28 O126 2.310024 1_555
Na28 O128 2.499991 1_555
Na28 O130 2.622202 1_555
Na28 O142 2.668437 1_555
Na28 O140 2.781734 1_555
Na28 O138 2.913133 1_555
Na29 O127 2.374998 1_555
Na29 O129 2.509820 1_555
Na29 O131 2.596353 1_555
Na29 O143 2.687000 1_555
Na29 O141 2.742055 1_555
Na29 O139 2.787699 1_555
In0 O86 2.011648 1_565
In0 O13 2.056880 1_455
In0 O16 2.198338 1_555
In0 O14 2.235365 1_565
In0 O85 2.254656 1_465
In0 O89 2.259383 1_455
In1 O12 2.038417 1_545
In1 O87 2.057934 1_555
In1 O15 2.181373 1_555
In1 O17 2.203082 1_545
In1 O84 2.210789 1_555
In1 O88 2.328877 1_545
In2 O19 2.017543 1_545
In2 O94 2.050625 1_655
In2 O20 2.128553 1_655
In2 O93 2.263415 1_555
In2 O22 2.266301 1_645
In2 O91 2.373592 1_545
In3 O18 2.016957 1_545
In3 O95 2.047990 1_555
In3 O21 2.096534 1_555
In3 O23 2.251233 1_545
In3 O92 2.258969 1_555
In3 O90 2.358340 1_545
In4 O36 2.008560 1_556
In4 O40 2.139086 1_556
In4 O110 2.188404 1_555
In4 O108 2.191830 1_555
In4 O38 2.195287 1_556
In4 O112 2.232429 1_555
In5 O37 2.005681 1_556
In5 O41 2.138617 1_556
In5 O39 2.196406 1_556
In5 O109 2.209544 1_555
In5 O111 2.209592 1_555
In5 O113 2.236864 1_555
In6 O42 1.979927 1_555
In6 O118 2.062728 1_555
In6 O44 2.201447 1_555
In6 O114 2.207849 1_555
In6 O46 2.220991 1_555
In6 O116 2.273284 1_555
In7 O43 2.030546 1_555
In7 O45 2.099774 1_555
In7 O47 2.161271 1_555
In7 O119 2.193396 1_555
In7 O117 2.229108 1_555
In7 O115 2.255392 1_555
In8 O134 2.061989 1_555
In8 O62 2.097102 1_555
In8 O64 2.111974 1_555
In8 O60 2.171381 1_555
In8 O132 2.201776 1_555
In8 O136 2.279857 1_555
In9 O61 2.037498 1_555
In9 O135 2.073069 1_555
In9 O65 2.153035 1_555
In9 O63 2.168502 1_555
In9 O133 2.275329 1_555
In9 O137 2.325408 1_555
In10 O142 2.061623 1_555
In10 O68 2.091776 1_555
In10 O70 2.133227 1_555
In10 O66 2.152794 1_555
In10 O138 2.260786 1_555
In10 O140 2.318891 1_555
In11 O143 2.088429 1_555
In11 O67 2.103688 1_555
In11 O69 2.109687 1_555
In11 O71 2.181335 1_555
In11 O139 2.215009 1_555
In11 O141 2.253029 1_555
O0 S0 1.465091 1_555
O0 Zn0 2.159690 1_445
O1 S1 1.477308 1_555
O1 Zn1 2.146687 1_545
O2 Si0 1.609824 1_555
O2 Zn1 1.914398 1_555
O3 Si1 1.602965 1_555
O3 Zn0 1.878918 1_555
O4 S3 1.460385 1_555
O4 Zn1 2.253888 1_545
O5 S2 1.459917 1_555
O5 Zn0 2.168223 1_545
O6 S4 1.466215 1_555
O6 Zn2 2.128105 1_455
O7 S5 1.464990 1_555
O7 Zn3 2.107786 1_555
O8 S7 1.467583 1_555
O8 Zn3 2.201879 1_565
O9 S6 1.462264 1_555
O9 Zn2 2.190514 1_565
O10 Si2 1.582721 1_555
O10 Zn3 1.860169 1_555
O11 Si3 1.600982 1_555
O11 Zn2 1.884882 1_555
O12 Si2 1.659140 1_565
O13 Si3 1.653900 1_565
O14 S4 1.482345 1_555
O15 S5 1.470840 1_555
O16 S6 1.478003 1_455
O17 S7 1.507843 1_555
O18 Si0 1.641267 1_555
O19 Si1 1.651919 1_555
O20 S2 1.498848 1_455
O21 S3 1.500875 1_555
O22 S0 1.502065 1_565
O23 S1 1.497811 1_565
O24 S8 1.475531 1_555
O24 Zn4 2.004819 1_555
O25 S9 1.481301 1_555
O25 Zn5 2.052114 1_555
O26 Si4 1.633429 1_555
O26 Zn4 1.897917 1_555
O27 Si5 1.619079 1_555
O27 Zn5 1.888952 1_555
O28 S10 1.470732 1_555
O28 Zn4 2.392239 1_555
O29 S11 1.477861 1_555
O29 Zn5 2.258927 1_555
O30 S12 1.469332 1_555
O30 Zn6 2.111495 1_555
O31 S13 1.471203 1_555
O31 Zn7 2.122127 1_555
O32 S14 1.463630 1_555
O32 Zn6 2.277480 1_555
O33 S15 1.463894 1_555
O33 Zn7 2.283054 1_555
O34 Si6 1.624097 1_555
O34 Zn6 1.920351 1_555
O35 Si7 1.623290 1_555
O35 Zn7 1.912749 1_555
O36 Si6 1.631281 1_555
O37 Si7 1.632705 1_555
O38 S12 1.487353 1_555
O39 S13 1.485754 1_555
O40 S14 1.480061 1_555
O41 S15 1.480763 1_555
O42 Si4 1.615477 1_555
O43 Si5 1.635321 1_555
O44 S10 1.492721 1_555
O45 S11 1.481882 1_555
O46 S8 1.476671 1_555
O47 S9 1.489707 1_555
O48 S16 1.472141 1_555
O48 Zn8 2.094659 1_556
O49 S17 1.471735 1_555
O49 Zn9 2.105368 1_556
O50 S18 1.457195 1_555
O50 Zn8 2.002319 1_556
O51 S19 1.462250 1_555
O51 Zn9 1.986769 1_556
O52 S20 1.474266 1_555
O52 Zn8 2.325437 1_556
O53 S21 1.475480 1_555
O53 Zn9 2.322267 1_556
O54 S22 1.483316 1_555
O54 Zn10 2.116269 1_555
O55 S23 1.476657 1_555
O55 Zn11 2.111326 1_555
O56 S24 1.461956 1_555
O56 Zn10 2.296729 1_555
O57 S25 1.459416 1_555
O57 Zn11 2.245612 1_555
O58 S26 1.455849 1_555
O58 Zn10 2.008567 1_555
O59 Si8 1.610340 1_555
O59 Zn11 1.913024 1_555
O60 S26 1.512952 1_555
O61 Si8 1.646663 1_555
O62 S22 1.490673 1_555
O63 S23 1.491801 1_555
O64 S24 1.524694 1_555
O65 S25 1.492123 1_555
O66 S18 1.518653 1_555
O67 S19 1.499559 1_555
O68 S20 1.511340 1_555
O69 S21 1.504907 1_555
O70 S16 1.508265 1_555
O71 S17 1.498863 1_555
O72 S26 1.464897 1_555
O72 Zn0 2.218311 1_455
O73 Si8 1.661379 1_555
O73 Zn1 2.003784 1_555
O74 S22 1.479356 1_555
O74 Zn1 2.184495 1_555
O75 S23 1.466879 1_555
O75 Zn0 2.103515 1_555
O76 S24 1.466873 1_555
O76 Zn0 2.379412 1_445
O77 S25 1.482542 1_555
O77 Zn1 2.416226 1_545
O78 S18 1.467611 1_555
O78 Zn2 2.200953 1_455
O79 S19 1.472888 1_555
O79 Zn3 2.194305 1_555
O80 S20 1.474140 1_555
O80 Zn2 2.366685 1_465
O81 S21 1.473741 1_555
O81 Zn3 2.385447 1_565
O82 S16 1.467307 1_555
O82 Zn3 2.158115 1_565
O83 S17 1.475901 1_555
O83 Zn2 2.112446 1_565
O84 S8 1.502970 1_555
O85 S9 1.498480 1_555
O86 Si4 1.643534 1_555
O87 Si5 1.655098 1_555
O88 S10 1.517343 1_555
O89 S11 1.506999 1_555
O90 S12 1.502416 1_555
O91 S13 1.500814 1_555
O92 S14 1.497960 1_555
O93 S15 1.500226 1_555
O94 Si6 1.659746 1_555
O95 Si7 1.657878 1_555
O96 Si2 1.632543 1_555
O96 Zn4 1.965092 1_555
O97 Si3 1.652804 1_555
O97 Zn5 2.049089 1_555
O98 S4 1.474825 1_555
O98 Zn4 2.418876 1_555
O99 S5 1.495991 1_555
O99 Zn5 2.346158 1_555
O100 S7 1.471890 1_555
O100 Zn4 2.497069 1_555
O101 S6 1.484870 1_555
O101 Zn5 2.484260 1_555
O102 Si0 1.658280 1_555
O102 Zn6 1.993693 1_555
O103 Si1 1.664278 1_555
O103 Zn7 1.995535 1_555
O104 S3 1.477317 1_555
O104 Zn6 2.407232 1_555
O105 S2 1.474557 1_555
O105 Zn7 2.418189 1_555
O106 S0 1.467188 1_555
O106 Zn6 2.247101 1_555
O107 S1 1.473805 1_555
O107 Zn7 2.203992 1_555
O108 S16 1.494432 1_555
O109 S17 1.499873 1_555
O110 S19 1.498633 1_555
O111 S18 1.497252 1_655
O112 S20 1.498646 1_545
O113 S21 1.507212 1_545
O114 S22 1.473546 1_545
O115 S23 1.508995 1_545
O116 S24 1.504373 1_555
O117 S25 1.522965 1_555
O118 Si8 1.659564 1_555
O119 S26 1.511596 1_655
O120 Si6 1.640717 1_555
O120 Zn8 1.927604 1_555
O121 Si7 1.639663 1_555
O121 Zn9 1.925505 1_555
O122 S13 1.483291 1_455
O122 Zn8 2.172690 1_555
O123 S12 1.481052 1_555
O123 Zn9 2.174549 1_555
O124 S14 1.503152 1_565
O124 Zn8 2.405315 1_555
O125 S15 1.500908 1_565
O125 Zn9 2.421539 1_555
O126 Si4 1.652881 1_565
O126 Zn10 1.927630 1_555
O127 Si5 1.655990 1_565
O127 Zn11 2.037183 1_555
O128 S10 1.472876 1_555
O128 Zn10 2.398506 1_555
O129 S11 1.479747 1_555
O129 Zn11 2.412232 1_555
O130 S9 1.463939 1_455
O130 Zn10 2.114593 1_555
O131 S8 1.469857 1_555
O131 Zn11 2.217514 1_555
O132 S0 1.510240 1_565
O133 S1 1.492578 1_565
O134 Si0 1.658908 1_555
O135 Si1 1.657245 1_555
O136 S2 1.511709 1_455
O137 S3 1.508334 1_555
O138 S4 1.516262 1_555
O139 S5 1.503302 1_555
O140 S6 1.513277 1_455
O141 S7 1.501703 1_555
O142 Si2 1.704474 1_565
O143 Si3 1.672979 1_565
