# generated using pymatgen
data_Na2Sc3Nb5Si6(SO8)6
_symmetry_space_group_name_H-M   'P 1'
_cell_length_a   17.82182673
_cell_length_b   8.91139507
_cell_length_c   23.06519173
_cell_angle_alpha   89.99888470
_cell_angle_beta   89.83869522
_cell_angle_gamma   120.16496604
_symmetry_Int_Tables_number   1
_chemical_formula_structural   Na2Sc3Nb5Si6(SO8)6
_chemical_formula_sum   'Na6 Sc9 Nb15 Si18 S18 O144'
_cell_volume   3167.07948432
_cell_formula_units_Z   3
loop_
 _symmetry_equiv_pos_site_id
 _symmetry_equiv_pos_as_xyz
  1  'x, y, z'
loop_
 _atom_site_type_symbol
 _atom_site_label
 _atom_site_symmetry_multiplicity
 _atom_site_fract_x
 _atom_site_fract_y
 _atom_site_fract_z
 _atom_site_occupancy
  Na  Na0  1  0.99614529  0.98630948  0.49860483  1
  Na  Na1  1  0.50100901  0.99950397  0.99894484  1
  Na  Na2  1  0.33420520  0.32357438  0.83800121  1
  Na  Na3  1  0.83299669  0.33702643  0.83722978  1
  Na  Na4  1  0.32920018  0.32464870  0.33618832  1
  Na  Na5  1  0.83573322  0.34101977  0.34173910  1
  Sc  Sc0  1  0.00537823  0.00109668  0.35341697  1
  Sc  Sc1  1  0.50246948  0.02161957  0.85231934  1
  Sc  Sc2  1  0.99903014  0.00505616  0.64772050  1
  Sc  Sc3  1  0.49403550  0.98300125  0.14636306  1
  Sc  Sc4  1  0.34048694  0.33872760  0.97729962  1
  Sc  Sc5  1  0.83571124  0.33028727  0.97650113  1
  Sc  Sc6  1  0.33373022  0.33813040  0.48012286  1
  Sc  Sc7  1  0.83104034  0.34460907  0.47843989  1
  Sc  Sc8  1  0.67005953  0.66130946  0.31422389  1
  Nb  Nb0  1  0.49447376  0.99257081  0.36120389  1
  Nb  Nb1  1  0.00574361  0.00859168  0.86273116  1
  Nb  Nb2  1  0.49839461  0.00424937  0.64299644  1
  Nb  Nb3  1  0.00280685  0.01367263  0.14771246  1
  Nb  Nb4  1  0.32753205  0.33628421  0.69044477  1
  Nb  Nb5  1  0.82459343  0.32736333  0.68277512  1
  Nb  Nb6  1  0.33902870  0.34723395  0.19027003  1
  Nb  Nb7  1  0.83240166  0.31800151  0.18705640  1
  Nb  Nb8  1  0.16259323  0.66566033  0.01832509  1
  Nb  Nb9  1  0.66674471  0.66304943  0.02354014  1
  Nb  Nb10  1  0.17020697  0.67507481  0.51990235  1
  Nb  Nb11  1  0.67243899  0.66258301  0.52487610  1
  Nb  Nb12  1  0.16307411  0.67783727  0.30701453  1
  Nb  Nb13  1  0.16581944  0.67139522  0.80783696  1
  Nb  Nb14  1  0.66490536  0.64692627  0.81300103  1
  Si  Si0  1  0.14429074  0.00503928  0.24898170  1
  Si  Si1  1  0.35620413  0.71752110  0.25143948  1
  Si  Si2  1  0.00009661  0.28729892  0.25387845  1
  Si  Si3  1  0.13943735  0.28445954  0.75040656  1
  Si  Si4  1  0.64329119  0.28347771  0.74959884  1
  Si  Si5  1  0.35789537  0.00320297  0.74970509  1
  Si  Si6  1  0.68669672  0.04083689  0.57988589  1
  Si  Si7  1  0.33233753  0.62121414  0.58181039  1
  Si  Si8  1  0.83977801  0.63045429  0.58179634  1
  Si  Si9  1  0.47799533  0.62620715  0.08071716  1
  Si  Si10  1  0.83448979  0.04074573  0.07994198  1
  Si  Si11  1  0.81008322  0.66297334  0.91779632  1
  Si  Si12  1  0.02193735  0.38345531  0.91476362  1
  Si  Si13  1  0.52119589  0.37350512  0.91847773  1
  Si  Si14  1  0.17061126  0.95934095  0.91507886  1
  Si  Si15  1  0.30673048  0.95855307  0.41528537  1
  Si  Si16  1  0.66851020  0.37954866  0.41560111  1
  Si  Si17  1  0.02019600  0.66555221  0.41651507  1
  S  S0  1  0.64350668  0.99825337  0.25047764  1
  S  S1  1  0.85536465  0.70996158  0.24892279  1
  S  S2  1  0.50159101  0.28852590  0.25001086  1
  S  S3  1  0.99838002  0.70987453  0.75021569  1
  S  S4  1  0.50119067  0.71360655  0.74995129  1
  S  S5  1  0.85546781  0.00165030  0.75133786  1
  S  S6  1  0.47669728  0.33449319  0.58319469  1
  S  S7  1  0.97821646  0.33403129  0.58256220  1
  S  S8  1  0.18875478  0.04494220  0.58325775  1
  S  S9  1  0.97738419  0.62320772  0.08350894  1
  S  S10  1  0.33281867  0.04331373  0.08290250  1
  S  S11  1  0.19022292  0.33532688  0.08340794  1
  S  S12  1  0.68887009  0.33217507  0.08323871  1
  S  S13  1  0.30981439  0.66691591  0.91635604  1
  S  S14  1  0.66498169  0.95000887  0.91652003  1
  S  S15  1  0.81083132  0.95464858  0.41679733  1
  S  S16  1  0.16661123  0.38060224  0.41675965  1
  S  S17  1  0.52334059  0.66580407  0.41612489  1
  O  O0  1  0.10470982  0.04242021  0.30538368  1
  O  O1  1  0.60668540  0.03468470  0.30243060  1
  O  O2  1  0.42167842  0.80771416  0.30695882  1
  O  O3  1  0.90849739  0.78074095  0.30093746  1
  O  O4  1  0.48467354  0.17723708  0.30216699  1
  O  O5  1  0.97489718  0.16034920  0.30748434  1
  O  O6  1  0.09585619  0.15953419  0.80708828  1
  O  O7  1  0.60679761  0.17130570  0.80717977  1
  O  O8  1  0.48179936  0.78114085  0.80239980  1
  O  O9  1  0.98379959  0.78704722  0.80251467  1
  O  O10  1  0.41404031  0.03698646  0.80695013  1
  O  O11  1  0.91052364  0.02910331  0.80261995  1
  O  O12  1  0.40275013  0.97234259  0.69260366  1
  O  O13  1  0.89170170  0.96928888  0.69867327  1
  O  O14  1  0.08594677  0.20205298  0.69294383  1
  O  O15  1  0.58356119  0.19386869  0.69286261  1
  O  O16  1  0.01332137  0.81458410  0.69808157  1
  O  O17  1  0.51368078  0.81773985  0.69755073  1
  O  O18  1  0.39849682  0.82912228  0.19425120  1
  O  O19  1  0.89796959  0.81929387  0.19630374  1
  O  O20  1  0.01144989  0.19230786  0.19428850  1
  O  O21  1  0.51430021  0.21226308  0.19754871  1
  O  O22  1  0.08261241  0.97379516  0.19182185  1
  O  O23  1  0.59382763  0.97787715  0.19770219  1
  O  O24  1  0.43646135  0.36035626  0.63545200  1
  O  O25  1  0.93784369  0.36185016  0.63619801  1
  O  O26  1  0.24397687  0.12608419  0.63602875  1
  O  O27  1  0.74992971  0.13304375  0.63969869  1
  O  O28  1  0.32002494  0.49561130  0.63942486  1
  O  O29  1  0.82003829  0.50031500  0.63984288  1
  O  O30  1  0.42891703  0.49703070  0.13902172  1
  O  O31  1  0.93658106  0.51131530  0.13590830  1
  O  O32  1  0.31710295  0.12043265  0.13543098  1
  O  O33  1  0.82025513  0.14180740  0.13922159  1
  O  O34  1  0.24382088  0.36132761  0.13608136  1
  O  O35  1  0.74458771  0.36033210  0.13611940  1
  O  O36  1  0.22587761  0.30093315  0.03143320  1
  O  O37  1  0.72901146  0.30599037  0.03170698  1
  O  O38  1  0.41480376  0.53224640  0.02743348  1
  O  O39  1  0.92535246  0.54742227  0.03151994  1
  O  O40  1  0.34505917  0.14795063  0.03084152  1
  O  O41  1  0.85243841  0.17107404  0.02822020  1
  O  O42  1  0.22930219  0.15078950  0.53142991  1
  O  O43  1  0.73222815  0.16314801  0.52670003  1
  O  O44  1  0.34895428  0.53183996  0.52707032  1
  O  O45  1  0.85268230  0.54266624  0.52641571  1
  O  O46  1  0.42388836  0.30165157  0.53112703  1
  O  O47  1  0.92445333  0.30305707  0.53142709  1
  O  O48  1  0.26637756  0.69186891  0.97032167  1
  O  O49  1  0.76450319  0.69874354  0.97339614  1
  O  O50  1  0.08487937  0.47453717  0.97384046  1
  O  O51  1  0.58566729  0.48030092  0.97296378  1
  O  O52  1  0.15430100  0.82978880  0.97341023  1
  O  O53  1  0.65382012  0.84481991  0.96969190  1
  O  O54  1  0.26547987  0.83456207  0.47384471  1
  O  O55  1  0.76561048  0.84087952  0.46965826  1
  O  O56  1  0.15499923  0.46433291  0.47044740  1
  O  O57  1  0.65097600  0.47473386  0.47230271  1
  O  O58  1  0.08577017  0.68960544  0.47355176  1
  O  O59  1  0.57519630  0.69497321  0.46862560  1
  O  O60  1  0.07310174  0.64459657  0.36040699  1
  O  O61  1  0.56285324  0.64314059  0.36333957  1
  O  O62  1  0.24952601  0.85814330  0.35948626  1
  O  O63  1  0.75713384  0.87296945  0.36470191  1
  O  O64  1  0.18070402  0.48576058  0.36478774  1
  O  O65  1  0.67886733  0.49769179  0.35953206  1
  O  O66  1  0.07428733  0.50617702  0.86030995  1
  O  O67  1  0.57087134  0.49966318  0.85990349  1
  O  O68  1  0.18046505  0.85705466  0.86012028  1
  O  O69  1  0.67901570  0.87026207  0.86369062  1
  O  O70  1  0.25633785  0.64309812  0.86455481  1
  O  O71  1  0.74881677  0.64267158  0.85981062  1
  O  O72  1  0.01419926  0.84082286  0.41234423  1
  O  O73  1  0.51540005  0.82636063  0.40848491  1
  O  O74  1  0.40348207  0.97273111  0.40594842  1
  O  O75  1  0.89578705  0.96503510  0.41303101  1
  O  O76  1  0.08768148  0.20764428  0.41382132  1
  O  O77  1  0.57999670  0.18783482  0.40222821  1
  O  O78  1  0.01519890  0.19415395  0.90716998  1
  O  O79  1  0.51519409  0.18745321  0.91473351  1
  O  O80  1  0.07969675  0.96159919  0.90733320  1
  O  O81  1  0.58599655  0.96269335  0.91136688  1
  O  O82  1  0.39621454  0.82127974  0.91271476  1
  O  O83  1  0.90310293  0.83587001  0.90143930  1
  O  O84  1  0.48835464  0.18119946  0.59103249  1
  O  O85  1  0.98898409  0.18105461  0.59091232  1
  O  O86  1  0.10211069  0.02304678  0.59085028  1
  O  O87  1  0.59311952  0.01795549  0.59848728  1
  O  O88  1  0.41609134  0.81036255  0.59705546  1
  O  O89  1  0.91874604  0.82223157  0.59301933  1
  O  O90  1  0.49246182  0.81851509  0.09022059  1
  O  O91  1  0.98936186  0.79661807  0.09360349  1
  O  O92  1  0.41040934  0.02599458  0.08967846  1
  O  O93  1  0.91684091  0.01619534  0.09764068  1
  O  O94  1  0.10129829  0.18049191  0.09300220  1
  O  O95  1  0.60179199  0.18231966  0.09207954  1
  O  O96  1  0.34476242  0.17134327  0.73551744  1
  O  O97  1  0.84834399  0.16178933  0.74397527  1
  O  O98  1  0.23925123  0.30904161  0.74208866  1
  O  O99  1  0.74343612  0.31461775  0.73996385  1
  O  O100  1  0.42308784  0.53135577  0.74080864  1
  O  O101  1  0.92268359  0.53068705  0.74334206  1
  O  O102  1  0.34664451  0.51970369  0.24152691  1
  O  O103  1  0.84432942  0.53268343  0.23819461  1
  O  O104  1  0.41935060  0.30193545  0.24361166  1
  O  O105  1  0.91514057  0.31609208  0.23703363  1
  O  O106  1  0.24221944  0.16978589  0.23508675  1
  O  O107  1  0.73405041  0.16431431  0.24234908  1
  O  O108  1  0.31437821  0.50822260  0.92327431  1
  O  O109  1  0.81856102  0.49368047  0.92282700  1
  O  O110  1  0.42876144  0.36414896  0.92020726  1
  O  O111  1  0.92804684  0.36045456  0.92132502  1
  O  O112  1  0.25035931  0.14814994  0.92399887  1
  O  O113  1  0.74266070  0.12450552  0.92227028  1
  O  O114  1  0.32271762  0.15074514  0.42331553  1
  O  O115  1  0.81941075  0.12476861  0.42381873  1
  O  O116  1  0.24412573  0.36051848  0.42382462  1
  O  O117  1  0.74920608  0.35063525  0.42006223  1
  O  O118  1  0.43484121  0.51440722  0.42168382  1
  O  O119  1  0.92937163  0.48827099  0.42067544  1
  O  O120  1  0.18012774  0.49041943  0.07616991  1
  O  O121  1  0.68249834  0.49198801  0.07761859  1
  O  O122  1  0.06560708  0.63915298  0.07606497  1
  O  O123  1  0.57275287  0.63975037  0.07213999  1
  O  O124  1  0.25452951  0.86480236  0.07431838  1
  O  O125  1  0.74805379  0.85328918  0.07370050  1
  O  O126  1  0.18141670  0.87124226  0.57691139  1
  O  O127  1  0.67465381  0.84706043  0.57025745  1
  O  O128  1  0.24590394  0.63844635  0.57239793  1
  O  O129  1  0.74899138  0.64162629  0.57385021  1
  O  O130  1  0.06588079  0.49123400  0.57555178  1
  O  O131  1  0.56396741  0.49069843  0.57560910  1
  O  O132  1  0.15510161  0.83531067  0.25600491  1
  O  O133  1  0.65764420  0.85259775  0.25873100  1
  O  O134  1  0.26031295  0.68114739  0.26469411  1
  O  O135  1  0.76964592  0.69346257  0.25482937  1
  O  O136  1  0.08391549  0.47661229  0.25895408  1
  O  O137  1  0.57430313  0.46433747  0.25870750  1
  O  O138  1  0.15734050  0.47899870  0.76402342  1
  O  O139  1  0.65602783  0.48027892  0.75846617  1
  O  O140  1  0.07732643  0.69222583  0.75788413  1
  O  O141  1  0.57816227  0.69390457  0.75747727  1
  O  O142  1  0.26068312  0.83401130  0.76040512  1
  O  O143  1  0.76668439  0.85082006  0.76035745  1
loop_
_geom_bond_atom_site_label_1
_geom_bond_atom_site_label_2
_geom_bond_distance
_geom_bond_site_symmetry_2
Na0 O72 2.481675 1_655
Na0 O89 2.595957 1_555
Na0 O75 2.609564 1_555
Na0 O76 2.669083 1_665
Na0 O86 2.757144 1_665
Na0 O85 2.789679 1_565
Na1 O79 2.492684 1_565
Na1 O90 2.609204 1_556
Na1 O81 2.638988 1_555
Na1 O82 2.646945 1_555
Na1 O92 2.721516 1_566
Na1 O95 2.752447 1_566
Na2 O110 2.443639 1_555
Na2 O112 2.499355 1_555
Na2 O108 2.698415 1_555
Na2 O98 2.752334 1_555
Na2 O96 2.778032 1_555
Na2 O100 2.827614 1_555
Na3 O109 2.504223 1_555
Na3 O111 2.517645 1_555
Na3 O113 2.635126 1_555
Na3 O99 2.705637 1_555
Na3 O101 2.725964 1_555
Na3 O97 2.750639 1_555
Na4 O114 2.504425 1_555
Na4 O116 2.637549 1_555
Na4 O118 2.667262 1_555
Na4 O102 2.708901 1_555
Na4 O104 2.736657 1_555
Na4 O106 2.759696 1_555
Na5 O119 2.374482 1_555
Na5 O117 2.401254 1_555
Na5 O115 2.610718 1_555
Na5 O107 2.859135 1_555
Na5 O105 2.860294 1_555
Na5 O103 2.894713 1_555
Nb0 O74 1.851625 1_555
Nb0 O77 1.894497 1_565
Nb0 O2 1.955416 1_555
Nb0 O73 2.019802 1_555
Nb0 O4 2.209738 1_565
Nb0 O1 2.282163 1_565
Nb1 O80 1.879647 1_545
Nb1 O78 1.880014 1_555
Nb1 O83 1.916643 1_445
Nb1 O6 1.962898 1_555
Nb1 O11 2.271671 1_455
Nb1 O9 2.281877 1_445
Nb2 O87 1.924003 1_555
Nb2 O88 1.929114 1_545
Nb2 O12 1.948715 1_545
Nb2 O15 1.978476 1_555
Nb2 O84 2.059071 1_555
Nb2 O17 2.208368 1_545
Nb3 O20 1.861853 1_555
Nb3 O22 1.923624 1_545
Nb3 O93 1.930324 1_455
Nb3 O94 2.061181 1_555
Nb3 O19 2.117329 1_445
Nb3 O91 2.211866 1_445
Nb4 O98 1.886470 1_555
Nb4 O28 1.900094 1_555
Nb4 O96 1.947023 1_555
Nb4 O100 2.075462 1_555
Nb4 O26 2.123417 1_555
Nb4 O24 2.234106 1_555
Nb5 O27 1.856943 1_555
Nb5 O29 1.867813 1_555
Nb5 O99 1.915460 1_555
Nb5 O25 2.164864 1_555
Nb5 O97 2.231544 1_555
Nb5 O101 2.263000 1_555
Nb6 O102 1.889357 1_555
Nb6 O30 1.893587 1_555
Nb6 O106 1.947781 1_555
Nb6 O104 2.077606 1_555
Nb6 O34 2.164049 1_555
Nb6 O32 2.246483 1_555
Nb7 O33 1.841012 1_555
Nb7 O105 1.881009 1_555
Nb7 O107 2.036985 1_555
Nb7 O35 2.139041 1_555
Nb7 O31 2.140061 1_555
Nb7 O103 2.165466 1_555
Nb8 O52 1.858048 1_554
Nb8 O50 1.873291 1_554
Nb8 O48 2.062981 1_554
Nb8 O122 2.096127 1_555
Nb8 O124 2.142826 1_555
Nb8 O120 2.192984 1_555
Nb9 O123 1.935340 1_555
Nb9 O51 1.935344 1_554
Nb9 O125 1.962925 1_555
Nb9 O49 1.976345 1_554
Nb9 O121 2.095342 1_555
Nb9 O53 2.143832 1_554
Nb10 O54 1.896327 1_555
Nb10 O58 1.905011 1_555
Nb10 O128 1.960692 1_555
Nb10 O56 2.095667 1_555
Nb10 O126 2.115531 1_555
Nb10 O130 2.171107 1_555
Nb11 O129 1.853893 1_555
Nb11 O127 1.932579 1_555
Nb11 O57 1.943759 1_555
Nb11 O55 2.059217 1_555
Nb11 O131 2.112808 1_555
Nb11 O59 2.299008 1_555
Nb12 O132 1.890762 1_555
Nb12 O60 1.920156 1_555
Nb12 O134 1.973828 1_555
Nb12 O136 1.975125 1_555
Nb12 O62 1.985691 1_555
Nb12 O64 2.312354 1_555
Nb13 O142 1.918985 1_555
Nb13 O138 1.929824 1_555
Nb13 O68 1.956415 1_555
Nb13 O66 1.966899 1_555
Nb13 O140 2.038054 1_555
Nb13 O70 2.190460 1_555
Nb14 O71 1.862683 1_555
Nb14 O67 1.865616 1_555
Nb14 O139 1.891482 1_555
Nb14 O143 2.177444 1_555
Nb14 O141 2.206077 1_555
Nb14 O69 2.211330 1_555
O0 Si0 1.591214 1_555
O0 Sc0 1.957215 1_555
O1 S0 1.477043 1_545
O2 Si1 1.647226 1_555
O3 S1 1.462885 1_555
O3 Sc0 2.215138 1_665
O4 S2 1.489647 1_555
O5 Si2 1.580034 1_655
O5 Sc0 2.051705 1_655
O6 Si3 1.636180 1_555
O7 Si4 1.589913 1_555
O7 Sc1 1.953690 1_555
O8 S4 1.466894 1_555
O8 Sc1 2.294123 1_565
O9 S3 1.474267 1_555
O10 Si5 1.593716 1_555
O10 Sc1 1.955418 1_555
O11 S5 1.478848 1_555
O12 Si5 1.632274 1_565
O13 S5 1.469169 1_565
O13 Sc2 2.125123 1_565
O14 Si3 1.583767 1_555
O14 Sc2 1.961022 1_455
O15 Si4 1.623867 1_555
O16 S3 1.461509 1_455
O16 Sc2 2.175151 1_465
O17 S4 1.470481 1_555
O18 Si1 1.593146 1_555
O18 Sc3 1.908509 1_555
O19 S1 1.500028 1_555
O20 Si2 1.678464 1_555
O21 S2 1.459650 1_555
O21 Sc3 2.226938 1_545
O22 Si0 1.650633 1_565
O23 S0 1.463941 1_555
O23 Sc3 2.158876 1_555
O24 S6 1.476944 1_555
O25 S7 1.511254 1_555
O26 S8 1.504837 1_555
O27 Si6 1.710736 1_555
O28 Si7 1.678805 1_555
O29 Si8 1.687755 1_555
O30 Si9 1.697088 1_555
O31 S9 1.500021 1_555
O32 S10 1.486684 1_555
O33 Si10 1.724135 1_555
O34 S11 1.492070 1_555
O35 S12 1.514297 1_555
O36 S11 1.458186 1_555
O36 Sc4 2.266871 1_554
O37 S12 1.463546 1_555
O37 Sc5 2.203828 1_554
O38 Si9 1.593737 1_555
O38 Sc4 1.943855 1_554
O39 S9 1.459737 1_555
O39 Sc5 2.193541 1_554
O40 S10 1.467323 1_555
O40 Sc4 2.135828 1_554
O41 Si10 1.580763 1_555
O41 Sc5 1.987948 1_554
O42 S8 1.466633 1_555
O42 Sc6 2.125149 1_555
O43 Si6 1.567435 1_555
O43 Sc7 2.020437 1_555
O44 Si7 1.597227 1_555
O44 Sc6 1.938314 1_555
O45 Si8 1.573456 1_555
O45 Sc7 1.951079 1_555
O46 S6 1.463989 1_555
O46 Sc6 2.146381 1_555
O47 S7 1.458053 1_555
O47 Sc7 2.243496 1_555
O48 S13 1.538065 1_555
O49 Si11 1.631089 1_555
O50 Si12 1.693360 1_555
O51 Si13 1.647583 1_555
O52 Si14 1.699408 1_555
O53 S14 1.494505 1_555
O54 Si15 1.662432 1_555
O55 S15 1.528796 1_555
O56 S16 1.512213 1_555
O57 Si16 1.670840 1_555
O58 Si17 1.702738 1_555
O59 S17 1.467280 1_555
O60 Si17 1.663968 1_555
O61 S17 1.468705 1_555
O61 Sc8 2.153357 1_555
O62 Si15 1.608440 1_555
O63 S15 1.481863 1_555
O63 Sc8 2.095247 1_555
O64 S16 1.462860 1_555
O65 Si16 1.618110 1_555
O65 Sc8 1.863753 1_555
O66 Si12 1.616134 1_555
O67 Si13 1.692900 1_555
O68 Si14 1.621186 1_555
O69 S14 1.493093 1_555
O70 S13 1.477851 1_555
O71 Si11 1.680303 1_555
O72 Si17 1.621122 1_555
O72 Sc0 2.034396 1_565
O73 S17 1.517180 1_555
O74 Si15 1.677642 1_555
O75 S15 1.472050 1_555
O75 Sc0 2.272150 1_665
O76 S16 1.476670 1_555
O76 Sc0 2.186055 1_555
O77 Si16 1.672315 1_555
O78 Si12 1.639328 1_555
O79 Si13 1.609234 1_555
O79 Sc1 1.993213 1_555
O80 Si14 1.640723 1_555
O81 S14 1.472841 1_555
O81 Sc1 2.267940 1_565
O82 S13 1.463177 1_555
O82 Sc1 2.302443 1_565
O83 Si11 1.641338 1_555
O84 S6 1.492444 1_555
O85 S7 1.481700 1_555
O85 Sc2 2.119485 1_555
O86 S8 1.465892 1_555
O86 Sc2 2.193542 1_455
O87 Si6 1.631304 1_555
O88 Si7 1.633180 1_555
O89 Si8 1.597892 1_555
O89 Sc2 1.990219 1_565
O90 Si9 1.614836 1_555
O90 Sc3 1.945555 1_555
O91 S9 1.468535 1_555
O92 S10 1.475162 1_555
O92 Sc3 2.159213 1_545
O93 Si10 1.641511 1_555
O94 S11 1.504930 1_555
O95 S12 1.465861 1_555
O95 Sc3 2.229099 1_545
O96 Si5 1.661271 1_555
O97 S5 1.504546 1_555
O98 Si3 1.689856 1_555
O99 Si4 1.676844 1_555
O100 S4 1.532785 1_555
O101 S3 1.493712 1_555
O102 Si1 1.699197 1_555
O103 S1 1.511194 1_555
O104 S2 1.536718 1_555
O105 Si2 1.703802 1_655
O106 Si0 1.651017 1_555
O107 S0 1.558008 1_545
O108 S13 1.465483 1_555
O108 Sc4 2.181791 1_555
O109 Si11 1.594190 1_555
O109 Sc5 2.048294 1_555
O110 Si13 1.607452 1_555
O110 Sc4 1.972449 1_555
O111 Si12 1.587054 1_655
O111 Sc5 1.985817 1_555
O112 Si14 1.578507 1_545
O112 Sc4 2.060433 1_555
O113 S14 1.479779 1_545
O113 Sc5 2.152457 1_555
O114 Si15 1.599600 1_545
O114 Sc6 2.053276 1_555
O115 S15 1.454331 1_545
O115 Sc7 2.249820 1_555
O116 S16 1.488870 1_555
O116 Sc6 2.146620 1_555
O117 Si16 1.586971 1_555
O117 Sc7 2.008165 1_555
O118 S17 1.478047 1_555
O118 Sc6 2.161733 1_555
O119 Si17 1.598213 1_655
O119 Sc7 2.053600 1_555
O120 S11 1.490125 1_555
O121 S12 1.490142 1_555
O122 S9 1.515166 1_455
O123 Si9 1.642826 1_555
O124 S10 1.512446 1_565
O125 Si10 1.612263 1_565
O126 S8 1.493729 1_565
O127 Si6 1.644720 1_565
O128 Si7 1.638038 1_555
O129 Si8 1.680752 1_555
O130 S7 1.492831 1_455
O131 S6 1.486593 1_555
O132 Si0 1.626072 1_565
O133 S0 1.453767 1_555
O133 Sc8 2.230162 1_555
O134 Si1 1.599817 1_555
O135 S1 1.465276 1_555
O135 Sc8 2.141035 1_555
O136 Si2 1.599876 1_555
O137 S2 1.461241 1_555
O137 Sc8 2.152909 1_555
O138 Si3 1.628054 1_555
O139 Si4 1.664115 1_555
O140 S3 1.503119 1_455
O141 S4 1.478550 1_555
O142 Si5 1.645643 1_565
O143 S5 1.488054 1_565
