# generated using pymatgen
data_MgV4SnO12
_symmetry_space_group_name_H-M   'P 1'
_cell_length_a   7.15156485
_cell_length_b   7.15156504
_cell_length_c   5.87247162
_cell_angle_alpha   70.35534508
_cell_angle_beta   109.64465672
_cell_angle_gamma   99.94828389
_symmetry_Int_Tables_number   1
_chemical_formula_structural   MgV4SnO12
_chemical_formula_sum   'Mg1 V4 Sn1 O12'
_cell_volume   265.79651854
_cell_formula_units_Z   1
loop_
 _symmetry_equiv_pos_site_id
 _symmetry_equiv_pos_as_xyz
  1  'x, y, z'
loop_
 _atom_site_type_symbol
 _atom_site_label
 _atom_site_symmetry_multiplicity
 _atom_site_fract_x
 _atom_site_fract_y
 _atom_site_fract_z
 _atom_site_occupancy
  Mg  Mg0  1  0.25836854  0.25836854  0.25000000  1
  V  V0  1  0.21359157  0.62046230  0.81507206  1
  V  V1  1  0.39321899  0.80156211  0.31769267  1
  V  V2  1  0.62046230  0.21359157  0.68492794  1
  V  V3  1  0.80156211  0.39321899  0.18230733  1
  Sn  Sn0  1  0.90750749  0.90750749  0.25000000  1
  O  O0  1  0.02131490  0.77590322  0.63717619  1
  O  O1  1  0.14006056  0.37925788  0.85460261  1
  O  O2  1  0.20036599  0.97219263  0.21406186  1
  O  O3  1  0.39259533  0.68369695  0.65052953  1
  O  O4  1  0.37925788  0.14006056  0.64539739  1
  O  O5  1  0.30806993  0.60326370  0.15148401  1
  O  O6  1  0.68369695  0.39259533  0.84947047  1
  O  O7  1  0.62477819  0.89818174  0.27632541  1
  O  O8  1  0.60326370  0.30806993  0.34851599  1
  O  O9  1  0.77590322  0.02131490  0.86282381  1
  O  O10  1  0.89818174  0.62477819  0.22367459  1
  O  O11  1  0.97219263  0.20036599  0.28593814  1
loop_
_geom_bond_atom_site_label_1
_geom_bond_atom_site_label_2
_geom_bond_distance
_geom_bond_site_symmetry_2
Mg0 O11 2.084089 1_455
Mg0 O2 2.084089 1_545
Mg0 O4 2.106388 1_555
Mg0 O1 2.106388 1_554
Mg0 O8 2.328249 1_555
Mg0 O5 2.328250 1_555
O0 V0 1.731881 1_555
O0 Sn0 2.073514 1_455
O1 V0 1.674939 1_555
O2 V1 1.810930 1_555
O2 Sn0 2.131157 1_455
O3 V0 1.764898 1_555
O3 V1 1.851403 1_555
O4 V2 1.674939 1_555
O5 V0 1.828214 1_554
O5 V1 1.888731 1_555
O6 V2 1.764898 1_555
O6 V3 1.851403 1_556
O7 V1 1.743875 1_555
O7 Sn0 2.067197 1_555
O8 V2 1.828214 1_555
O8 V3 1.888731 1_555
O9 V2 1.731881 1_555
O9 Sn0 2.073514 1_546
O10 V3 1.743875 1_555
O10 Sn0 2.067197 1_555
O11 V3 1.810930 1_555
O11 Sn0 2.131157 1_545
