# generated using pymatgen
data_MgTe4Mo2W2(SeS)2
_symmetry_space_group_name_H-M   'P 1'
_cell_length_a   6.78502200
_cell_length_b   6.78480784
_cell_length_c   94.58989646
_cell_angle_alpha   89.99046908
_cell_angle_beta   89.99900423
_cell_angle_gamma   120.00045468
_symmetry_Int_Tables_number   1
_chemical_formula_structural   MgTe4Mo2W2(SeS)2
_chemical_formula_sum   'Mg8 Te32 Mo16 W16 Se16 S16'
_cell_volume   3771.04917339
_cell_formula_units_Z   8
loop_
 _symmetry_equiv_pos_site_id
 _symmetry_equiv_pos_as_xyz
  1  'x, y, z'
loop_
 _atom_site_type_symbol
 _atom_site_label
 _atom_site_symmetry_multiplicity
 _atom_site_fract_x
 _atom_site_fract_y
 _atom_site_fract_z
 _atom_site_occupancy
  Mg  Mg0_0  1  0.00002450  0.00007850  0.09350950  1
  Mg  Mg0_1  1  0.00002450  0.00007850  0.59350950  1
  Mg  Mg0_2  1  0.00002450  0.50007850  0.09350950  1
  Mg  Mg0_3  1  0.00002450  0.50007850  0.59350950  1
  Mg  Mg0_4  1  0.50002450  0.00007850  0.09350950  1
  Mg  Mg0_5  1  0.50002450  0.00007850  0.59350950  1
  Mg  Mg0_6  1  0.50002450  0.50007850  0.09350950  1
  Mg  Mg0_7  1  0.50002450  0.50007850  0.59350950  1
  Te  Te0_0  1  0.16664600  0.33329450  0.16451950  1
  Te  Te0_1  1  0.16664600  0.33329450  0.66451950  1
  Te  Te0_2  1  0.16664600  0.83329450  0.16451950  1
  Te  Te0_3  1  0.16664600  0.83329450  0.66451950  1
  Te  Te0_4  1  0.66664600  0.33329450  0.16451950  1
  Te  Te0_5  1  0.66664600  0.33329450  0.66451950  1
  Te  Te0_6  1  0.66664600  0.83329450  0.16451950  1
  Te  Te0_7  1  0.66664600  0.83329450  0.66451950  1
  Te  Te1_0  1  0.16665400  0.33330650  0.34869050  1
  Te  Te1_1  1  0.16665400  0.33330650  0.84869050  1
  Te  Te1_2  1  0.16665400  0.83330650  0.34869050  1
  Te  Te1_3  1  0.16665400  0.83330650  0.84869050  1
  Te  Te1_4  1  0.66665400  0.33330650  0.34869050  1
  Te  Te1_5  1  0.66665400  0.33330650  0.84869050  1
  Te  Te1_6  1  0.66665400  0.83330650  0.34869050  1
  Te  Te1_7  1  0.66665400  0.83330650  0.84869050  1
  Te  Te2_0  1  0.16671700  0.33342650  0.12462800  1
  Te  Te2_1  1  0.16671700  0.33342650  0.62462800  1
  Te  Te2_2  1  0.16671700  0.83342650  0.12462800  1
  Te  Te2_3  1  0.16671700  0.83342650  0.62462800  1
  Te  Te2_4  1  0.66671700  0.33342650  0.12462800  1
  Te  Te2_5  1  0.66671700  0.33342650  0.62462800  1
  Te  Te2_6  1  0.66671700  0.83342650  0.12462800  1
  Te  Te2_7  1  0.66671700  0.83342650  0.62462800  1
  Te  Te3_0  1  0.16672400  0.33343350  0.30876450  1
  Te  Te3_1  1  0.16672400  0.33343350  0.80876450  1
  Te  Te3_2  1  0.16672400  0.83343350  0.30876450  1
  Te  Te3_3  1  0.16672400  0.83343350  0.80876450  1
  Te  Te3_4  1  0.66672400  0.33343350  0.30876450  1
  Te  Te3_5  1  0.66672400  0.33343350  0.80876450  1
  Te  Te3_6  1  0.66672400  0.83343350  0.30876450  1
  Te  Te3_7  1  0.66672400  0.83343350  0.80876450  1
  Mo  Mo0_0  1  0.16664700  0.33330750  0.23485350  1
  Mo  Mo0_1  1  0.16664700  0.33330750  0.73485350  1
  Mo  Mo0_2  1  0.16664700  0.83330750  0.23485350  1
  Mo  Mo0_3  1  0.16664700  0.83330750  0.73485350  1
  Mo  Mo0_4  1  0.66664700  0.33330750  0.23485350  1
  Mo  Mo0_5  1  0.66664700  0.33330750  0.73485350  1
  Mo  Mo0_6  1  0.66664700  0.83330750  0.23485350  1
  Mo  Mo0_7  1  0.66664700  0.83330750  0.73485350  1
  Mo  Mo1_0  1  0.33335150  0.16670000  0.14467250  1
  Mo  Mo1_1  1  0.33335150  0.16670000  0.64467250  1
  Mo  Mo1_2  1  0.33335150  0.66670000  0.14467250  1
  Mo  Mo1_3  1  0.33335150  0.66670000  0.64467250  1
  Mo  Mo1_4  1  0.83335150  0.16670000  0.14467250  1
  Mo  Mo1_5  1  0.83335150  0.16670000  0.64467250  1
  Mo  Mo1_6  1  0.83335150  0.66670000  0.14467250  1
  Mo  Mo1_7  1  0.83335150  0.66670000  0.64467250  1
  W  W0_0  1  0.16662500  0.33324800  0.04215000  1
  W  W0_1  1  0.16662500  0.33324800  0.54215000  1
  W  W0_2  1  0.16662500  0.83324800  0.04215000  1
  W  W0_3  1  0.16662500  0.83324800  0.54215000  1
  W  W0_4  1  0.66662500  0.33324800  0.04215000  1
  W  W0_5  1  0.66662500  0.33324800  0.54215000  1
  W  W0_6  1  0.66662500  0.83324800  0.04215000  1
  W  W0_7  1  0.66662500  0.83324800  0.54215000  1
  W  W1_0  1  0.33335600  0.16670000  0.32873200  1
  W  W1_1  1  0.33335600  0.16670000  0.82873200  1
  W  W1_2  1  0.33335600  0.66670000  0.32873200  1
  W  W1_3  1  0.33335600  0.66670000  0.82873200  1
  W  W1_4  1  0.83335600  0.16670000  0.32873200  1
  W  W1_5  1  0.83335600  0.16670000  0.82873200  1
  W  W1_6  1  0.83335600  0.66670000  0.32873200  1
  W  W1_7  1  0.83335600  0.66670000  0.82873200  1
  Se  Se0_0  1  0.33332200  0.16662250  0.02463400  1
  Se  Se0_1  1  0.33332200  0.16662250  0.52463400  1
  Se  Se0_2  1  0.33332200  0.66662250  0.02463400  1
  Se  Se0_3  1  0.33332200  0.66662250  0.52463400  1
  Se  Se0_4  1  0.83332200  0.16662250  0.02463400  1
  Se  Se0_5  1  0.83332200  0.16662250  0.52463400  1
  Se  Se0_6  1  0.83332200  0.66662250  0.02463400  1
  Se  Se0_7  1  0.83332200  0.66662250  0.52463400  1
  Se  Se1_0  1  0.33326900  0.16654300  0.05978500  1
  Se  Se1_1  1  0.33326900  0.16654300  0.55978500  1
  Se  Se1_2  1  0.33326900  0.66654300  0.05978500  1
  Se  Se1_3  1  0.33326900  0.66654300  0.55978500  1
  Se  Se1_4  1  0.83326900  0.16654300  0.05978500  1
  Se  Se1_5  1  0.83326900  0.16654300  0.55978500  1
  Se  Se1_6  1  0.83326900  0.66654300  0.05978500  1
  Se  Se1_7  1  0.83326900  0.66654300  0.55978500  1
  S  S0_0  1  0.33336150  0.16672350  0.21895450  1
  S  S0_1  1  0.33336150  0.16672350  0.71895450  1
  S  S0_2  1  0.33336150  0.66672350  0.21895450  1
  S  S0_3  1  0.33336150  0.66672350  0.71895450  1
  S  S0_4  1  0.83336150  0.16672350  0.21895450  1
  S  S0_5  1  0.83336150  0.16672350  0.71895450  1
  S  S0_6  1  0.83336150  0.66672350  0.21895450  1
  S  S0_7  1  0.83336150  0.66672350  0.71895450  1
  S  S1_0  1  0.33330300  0.16661650  0.25075850  1
  S  S1_1  1  0.33330300  0.16661650  0.75075850  1
  S  S1_2  1  0.33330300  0.66661650  0.25075850  1
  S  S1_3  1  0.33330300  0.66661650  0.75075850  1
  S  S1_4  1  0.83330300  0.16661650  0.25075850  1
  S  S1_5  1  0.83330300  0.16661650  0.75075850  1
  S  S1_6  1  0.83330300  0.66661650  0.25075850  1
  S  S1_7  1  0.83330300  0.66661650  0.75075850  1
loop_
_geom_bond_atom_site_label_1
_geom_bond_atom_site_label_2
_geom_bond_distance
_geom_bond_site_symmetry_2
Mg0_0 Mg0_2 3.392404 1_545
Mg0_0 Mg0_2 3.392404 1_555
Mg0_0 Mg0_6 3.392434 1_445
Mg0_0 Mg0_6 3.392434 1_555
Mg0_0 Mg0_4 3.392511 1_455
Mg0_0 Mg0_4 3.392511 1_555
Mg0_0 Te2_6 3.535332 1_445
Mg0_0 Te2_2 3.535492 1_545
Mg0_0 Te2_0 3.535949 1_555
Mg0_1 Mg0_3 3.392404 1_545
Mg0_1 Mg0_3 3.392404 1_555
Mg0_1 Mg0_7 3.392434 1_555
Mg0_1 Mg0_7 3.392434 1_445
Mg0_1 Mg0_5 3.392511 1_455
Mg0_1 Mg0_5 3.392511 1_555
Mg0_1 Te2_7 3.535332 1_445
Mg0_1 Te2_3 3.535492 1_545
Mg0_1 Te2_1 3.535949 1_555
Mg0_2 Mg0_4 3.392434 1_455
Mg0_2 Mg0_4 3.392434 1_565
Mg0_2 Mg0_6 3.392511 1_455
Mg0_2 Mg0_6 3.392511 1_555
Mg0_2 Te2_4 3.535332 1_455
Mg0_2 Te2_0 3.535492 1_555
Mg0_2 Te2_2 3.535949 1_555
Mg0_3 Mg0_5 3.392434 1_455
Mg0_3 Mg0_5 3.392434 1_565
Mg0_3 Mg0_7 3.392511 1_555
Mg0_3 Mg0_7 3.392511 1_455
Mg0_3 Te2_5 3.535332 1_455
Mg0_3 Te2_1 3.535492 1_555
Mg0_3 Te2_3 3.535949 1_555
Mg0_4 Mg0_6 3.392404 1_545
Mg0_4 Mg0_6 3.392404 1_555
Mg0_4 Te2_2 3.535332 1_545
Mg0_4 Te2_6 3.535492 1_545
Mg0_4 Te2_4 3.535949 1_555
Mg0_5 Mg0_7 3.392404 1_545
Mg0_5 Mg0_7 3.392404 1_555
Mg0_5 Te2_3 3.535332 1_545
Mg0_5 Te2_7 3.535492 1_545
Mg0_5 Te2_5 3.535949 1_555
Mg0_6 Te2_0 3.535332 1_555
Mg0_6 Te2_4 3.535492 1_555
Mg0_6 Te2_6 3.535949 1_555
Mg0_7 Te2_1 3.535332 1_555
Mg0_7 Te2_5 3.535492 1_555
Mg0_7 Te2_7 3.535949 1_555
Te1_0 W1_2 2.720304 1_555
Te1_0 W1_0 2.720368 1_555
Te1_0 W1_4 2.720377 1_455
Te1_1 W1_3 2.720304 1_555
Te1_1 W1_1 2.720368 1_555
Te1_1 W1_5 2.720377 1_455
Te1_2 W1_0 2.720304 1_565
Te1_2 W1_2 2.720368 1_555
Te1_2 W1_6 2.720377 1_455
Te1_3 W1_1 2.720304 1_565
Te1_3 W1_3 2.720368 1_555
Te1_3 W1_7 2.720377 1_455
Te1_4 W1_6 2.720304 1_555
Te1_4 W1_4 2.720368 1_555
Te1_4 W1_0 2.720377 1_555
Te1_5 W1_7 2.720304 1_555
Te1_5 W1_5 2.720368 1_555
Te1_5 W1_1 2.720377 1_555
Te1_6 W1_4 2.720304 1_565
Te1_6 W1_6 2.720368 1_555
Te1_6 W1_2 2.720377 1_555
Te1_7 W1_5 2.720304 1_565
Te1_7 W1_7 2.720368 1_555
Te1_7 W1_3 2.720377 1_555
Te3_0 W1_2 2.720907 1_555
Te3_0 W1_4 2.720948 1_455
Te3_0 W1_0 2.720966 1_555
Te3_1 W1_3 2.720907 1_555
Te3_1 W1_5 2.720948 1_455
Te3_1 W1_1 2.720966 1_555
Te3_2 W1_0 2.720907 1_565
Te3_2 W1_6 2.720948 1_455
Te3_2 W1_2 2.720966 1_555
Te3_3 W1_1 2.720907 1_565
Te3_3 W1_7 2.720948 1_455
Te3_3 W1_3 2.720966 1_555
Te3_4 W1_6 2.720907 1_555
Te3_4 W1_0 2.720948 1_555
Te3_4 W1_4 2.720966 1_555
Te3_5 W1_7 2.720907 1_555
Te3_5 W1_1 2.720948 1_555
Te3_5 W1_5 2.720966 1_555
Te3_6 W1_4 2.720907 1_565
Te3_6 W1_2 2.720948 1_555
Te3_6 W1_6 2.720966 1_555
Te3_7 W1_5 2.720907 1_565
Te3_7 W1_3 2.720948 1_555
Te3_7 W1_7 2.720966 1_555
Mo0_0 S0_4 2.469331 1_455
Mo0_0 S0_0 2.469342 1_555
Mo0_0 S0_2 2.469510 1_555
Mo0_0 S1_4 2.469672 1_455
Mo0_0 S1_0 2.469708 1_555
Mo0_0 S1_2 2.469840 1_555
Mo0_1 S0_5 2.469331 1_455
Mo0_1 S0_1 2.469342 1_555
Mo0_1 S0_3 2.469510 1_555
Mo0_1 S1_5 2.469672 1_455
Mo0_1 S1_1 2.469708 1_555
Mo0_1 S1_3 2.469840 1_555
Mo0_2 S0_6 2.469331 1_455
Mo0_2 S0_2 2.469342 1_555
Mo0_2 S0_0 2.469510 1_565
Mo0_2 S1_6 2.469672 1_455
Mo0_2 S1_2 2.469708 1_555
Mo0_2 S1_0 2.469840 1_565
Mo0_3 S0_7 2.469331 1_455
Mo0_3 S0_3 2.469342 1_555
Mo0_3 S0_1 2.469510 1_565
Mo0_3 S1_7 2.469672 1_455
Mo0_3 S1_3 2.469708 1_555
Mo0_3 S1_1 2.469840 1_565
Mo0_4 S0_0 2.469331 1_555
Mo0_4 S0_4 2.469342 1_555
Mo0_4 S0_6 2.469510 1_555
Mo0_4 S1_0 2.469672 1_555
Mo0_4 S1_4 2.469708 1_555
Mo0_4 S1_6 2.469840 1_555
Mo0_5 S0_1 2.469331 1_555
Mo0_5 S0_5 2.469342 1_555
Mo0_5 S0_7 2.469510 1_555
Mo0_5 S1_1 2.469672 1_555
Mo0_5 S1_5 2.469708 1_555
Mo0_5 S1_7 2.469840 1_555
Mo0_6 S0_2 2.469331 1_555
Mo0_6 S0_6 2.469342 1_555
Mo0_6 S0_4 2.469510 1_565
Mo0_6 S1_2 2.469672 1_555
Mo0_6 S1_6 2.469708 1_555
Mo0_6 S1_4 2.469840 1_565
Mo0_7 S0_3 2.469331 1_555
Mo0_7 S0_7 2.469342 1_555
Mo0_7 S0_5 2.469510 1_565
Mo0_7 S1_3 2.469672 1_555
Mo0_7 S1_7 2.469708 1_555
Mo0_7 S1_5 2.469840 1_565
Mo1_0 Te0_0 2.713022 1_555
Mo1_0 Te0_2 2.713047 1_545
Mo1_0 Te0_4 2.713052 1_555
Mo1_0 Te2_4 2.725998 1_555
Mo1_0 Te2_2 2.725998 1_545
Mo1_0 Te2_0 2.726007 1_555
Mo1_1 Te0_1 2.713022 1_555
Mo1_1 Te0_3 2.713047 1_545
Mo1_1 Te0_5 2.713052 1_555
Mo1_1 Te2_5 2.725998 1_555
Mo1_1 Te2_3 2.725998 1_545
Mo1_1 Te2_1 2.726007 1_555
Mo1_2 Te0_2 2.713022 1_555
Mo1_2 Te0_0 2.713047 1_555
Mo1_2 Te0_6 2.713052 1_555
Mo1_2 Te2_6 2.725998 1_555
Mo1_2 Te2_0 2.725998 1_555
Mo1_2 Te2_2 2.726007 1_555
Mo1_3 Te0_3 2.713022 1_555
Mo1_3 Te0_1 2.713047 1_555
Mo1_3 Te0_7 2.713052 1_555
Mo1_3 Te2_7 2.725998 1_555
Mo1_3 Te2_1 2.725998 1_555
Mo1_3 Te2_3 2.726007 1_555
Mo1_4 Te0_4 2.713022 1_555
Mo1_4 Te0_6 2.713047 1_545
Mo1_4 Te0_0 2.713052 1_655
Mo1_4 Te2_0 2.725998 1_655
Mo1_4 Te2_6 2.725998 1_545
Mo1_4 Te2_4 2.726007 1_555
Mo1_5 Te0_5 2.713022 1_555
Mo1_5 Te0_7 2.713047 1_545
Mo1_5 Te0_1 2.713052 1_655
Mo1_5 Te2_1 2.725998 1_655
Mo1_5 Te2_7 2.725998 1_545
Mo1_5 Te2_5 2.726007 1_555
Mo1_6 Te0_6 2.713022 1_555
Mo1_6 Te0_4 2.713047 1_555
Mo1_6 Te0_2 2.713052 1_655
Mo1_6 Te2_2 2.725998 1_655
Mo1_6 Te2_4 2.725998 1_555
Mo1_6 Te2_6 2.726007 1_555
Mo1_7 Te0_7 2.713022 1_555
Mo1_7 Te0_5 2.713047 1_555
Mo1_7 Te0_3 2.713052 1_655
Mo1_7 Te2_3 2.725998 1_655
Mo1_7 Te2_5 2.725998 1_555
Mo1_7 Te2_7 2.726007 1_555
Se0_0 W0_2 2.565315 1_545
Se0_0 W0_4 2.565444 1_555
Se0_0 W0_0 2.565480 1_555
Se0_1 W0_3 2.565315 1_545
Se0_1 W0_5 2.565444 1_555
Se0_1 W0_1 2.565480 1_555
Se0_2 W0_0 2.565315 1_555
Se0_2 W0_6 2.565444 1_555
Se0_2 W0_2 2.565480 1_555
Se0_3 W0_1 2.565315 1_555
Se0_3 W0_7 2.565444 1_555
Se0_3 W0_3 2.565480 1_555
Se0_4 W0_6 2.565315 1_545
Se0_4 W0_0 2.565444 1_655
Se0_4 W0_4 2.565480 1_555
Se0_5 W0_7 2.565315 1_545
Se0_5 W0_1 2.565444 1_655
Se0_5 W0_5 2.565480 1_555
Se0_6 W0_4 2.565315 1_555
Se0_6 W0_2 2.565444 1_655
Se0_6 W0_6 2.565480 1_555
Se0_7 W0_5 2.565315 1_555
Se0_7 W0_3 2.565444 1_655
Se0_7 W0_7 2.565480 1_555
Se1_0 W0_0 2.572665 1_555
Se1_0 W0_4 2.572671 1_555
Se1_0 W0_2 2.572756 1_545
Se1_1 W0_1 2.572665 1_555
Se1_1 W0_5 2.572671 1_555
Se1_1 W0_3 2.572756 1_545
Se1_2 W0_2 2.572665 1_555
Se1_2 W0_6 2.572671 1_555
Se1_2 W0_0 2.572756 1_555
Se1_3 W0_3 2.572665 1_555
Se1_3 W0_7 2.572671 1_555
Se1_3 W0_1 2.572756 1_555
Se1_4 W0_4 2.572665 1_555
Se1_4 W0_0 2.572671 1_655
Se1_4 W0_6 2.572756 1_545
Se1_5 W0_5 2.572665 1_555
Se1_5 W0_1 2.572671 1_655
Se1_5 W0_7 2.572756 1_545
Se1_6 W0_6 2.572665 1_555
Se1_6 W0_2 2.572671 1_655
Se1_6 W0_4 2.572756 1_555
Se1_7 W0_7 2.572665 1_555
Se1_7 W0_3 2.572671 1_655
Se1_7 W0_5 2.572756 1_555
