# generated using pymatgen
data_InAg(PSe3)2
_symmetry_space_group_name_H-M   'P 1'
_cell_length_a   6.58871872
_cell_length_b   6.58871872
_cell_length_c   14.51090600
_cell_angle_alpha   90.00000000
_cell_angle_beta   90.00000000
_cell_angle_gamma   120.00000725
_symmetry_Int_Tables_number   1
_chemical_formula_structural   InAg(PSe3)2
_chemical_formula_sum   'In2 Ag2 P4 Se12'
_cell_volume   545.54058347
_cell_formula_units_Z   2
loop_
 _symmetry_equiv_pos_site_id
 _symmetry_equiv_pos_as_xyz
  1  'x, y, z'
loop_
 _atom_site_type_symbol
 _atom_site_label
 _atom_site_symmetry_multiplicity
 _atom_site_fract_x
 _atom_site_fract_y
 _atom_site_fract_z
 _atom_site_occupancy
  In  In0  1  0.00000000  0.00000000  0.25000000  1
  In  In1  1  0.00000000  0.00000000  0.75000000  1
  Ag  Ag0  1  0.66666700  0.33333300  0.25000000  1
  Ag  Ag1  1  0.33333300  0.66666700  0.75000000  1
  P  P0  1  0.66666700  0.33333300  0.67128600  1
  P  P1  1  0.66666700  0.33333300  0.82871400  1
  P  P2  1  0.33333300  0.66666700  0.32871400  1
  P  P3  1  0.33333300  0.66666700  0.17128600  1
  Se  Se0  1  0.98188100  0.32059600  0.87306800  1
  Se  Se1  1  0.33871500  0.32059600  0.62693200  1
  Se  Se2  1  0.98188100  0.66128500  0.62693200  1
  Se  Se3  1  0.67940400  0.01811900  0.62693200  1
  Se  Se4  1  0.32059600  0.33871500  0.12693200  1
  Se  Se5  1  0.66128500  0.98188100  0.12693200  1
  Se  Se6  1  0.01811900  0.67940400  0.12693200  1
  Se  Se7  1  0.66128500  0.67940400  0.37306800  1
  Se  Se8  1  0.01811900  0.33871500  0.37306800  1
  Se  Se9  1  0.32059600  0.98188100  0.37306800  1
  Se  Se10  1  0.67940400  0.66128500  0.87306800  1
  Se  Se11  1  0.33871500  0.01811900  0.87306800  1
loop_
_geom_bond_atom_site_label_1
_geom_bond_atom_site_label_2
_geom_bond_distance
_geom_bond_site_symmetry_2
In0 Se4 2.813803 1_555
In0 Se7 2.813803 1_445
In0 Se8 2.813803 1_555
In0 Se5 2.813803 1_445
In0 Se9 2.813803 1_545
In0 Se6 2.813803 1_545
In1 Se10 2.813803 1_445
In1 Se1 2.813803 1_555
In1 Se11 2.813803 1_555
In1 Se2 2.813803 1_445
In1 Se3 2.813803 1_455
In1 Se0 2.813803 1_455
Ag0 Se5 2.910398 1_545
Ag0 Se8 2.910398 1_655
Ag0 Se6 2.910400 1_655
Ag0 Se9 2.910400 1_545
Ag0 Se7 2.910403 1_555
Ag0 Se4 2.910403 1_555
Ag1 Se2 2.910398 1_455
Ag1 Se11 2.910398 1_565
Ag1 Se3 2.910400 1_565
Ag1 Se0 2.910400 1_455
Ag1 Se10 2.910403 1_555
Ag1 Se1 2.910403 1_555
P0 Se3 2.215606 1_555
P0 Se2 2.215609 1_555
P0 Se1 2.215612 1_555
P0 P1 2.284423 1_555
P1 Se0 2.215606 1_555
P1 Se11 2.215609 1_555
P1 Se10 2.215612 1_555
P2 Se9 2.215606 1_555
P2 Se8 2.215609 1_555
P2 Se7 2.215612 1_555
P2 P3 2.284423 1_555
P3 Se6 2.215606 1_555
P3 Se5 2.215609 1_555
P3 Se4 2.215612 1_555
