# generated using pymatgen
data_MgMn12O17F7
_symmetry_space_group_name_H-M   'P 1'
_cell_length_a   4.64183940
_cell_length_b   5.75310994
_cell_length_c   15.43272307
_cell_angle_alpha   86.39601579
_cell_angle_beta   90.63131422
_cell_angle_gamma   92.90153556
_symmetry_Int_Tables_number   1
_chemical_formula_structural   MgMn12O17F7
_chemical_formula_sum   'Mg1 Mn12 O17 F7'
_cell_volume   410.77601155
_cell_formula_units_Z   1
loop_
 _symmetry_equiv_pos_site_id
 _symmetry_equiv_pos_as_xyz
  1  'x, y, z'
loop_
 _atom_site_type_symbol
 _atom_site_label
 _atom_site_symmetry_multiplicity
 _atom_site_fract_x
 _atom_site_fract_y
 _atom_site_fract_z
 _atom_site_occupancy
  Mg  Mg0  1  0.60187000  0.96201500  0.11422400  1
  Mn  Mn0  1  0.99239300  0.20710300  0.42233600  1
  Mn  Mn1  1  0.02400800  0.90462800  0.25815300  1
  Mn  Mn2  1  0.15926600  0.22435300  0.05408800  1
  Mn  Mn3  1  0.03661400  0.13749700  0.73643900  1
  Mn  Mn4  1  0.02950800  0.82656700  0.57973300  1
  Mn  Mn5  1  0.03608000  0.79003600  0.90064600  1
  Mn  Mn6  1  0.52591100  0.29069700  0.90528700  1
  Mn  Mn7  1  0.49818300  0.36953700  0.58922100  1
  Mn  Mn8  1  0.44654900  0.42948700  0.26936200  1
  Mn  Mn9  1  0.69385000  0.49769900  0.10782200  1
  Mn  Mn10  1  0.47603800  0.67098800  0.42883900  1
  Mn  Mn11  1  0.50588200  0.60747800  0.75045500  1
  O  O0  1  0.19421800  0.18402400  0.31455200  1
  O  O1  1  0.23761400  0.11095600  0.63299600  1
  O  O2  1  0.26015500  0.04216500  0.95623500  1
  O  O3  1  0.17265400  0.97053100  0.13474700  1
  O  O4  1  0.22452400  0.89758000  0.47508800  1
  O  O5  1  0.25099900  0.84423900  0.79417100  1
  O  O6  1  0.25894900  0.42033700  0.48492400  1
  O  O7  1  0.28016800  0.43864600  0.14355800  1
  O  O8  1  0.25415200  0.66064700  0.32179400  1
  O  O9  1  0.28691900  0.58774200  0.64561400  1
  O  O10  1  0.28725700  0.35717900  0.80464300  1
  O  O11  1  0.70384000  0.25509200  0.03004900  1
  O  O12  1  0.70584800  0.69093200  0.20155400  1
  O  O13  1  0.68875600  0.44286400  0.36759800  1
  O  O14  1  0.72342000  0.62525300  0.52871600  1
  O  O15  1  0.72815700  0.57932600  0.85839000  1
  O  O16  1  0.73263300  0.37482500  0.69113900  1
  F  F0  1  0.21943500  0.51038200  0.97475400  1
  F  F1  1  0.70608500  0.19389100  0.20680600  1
  F  F2  1  0.74724600  0.14699200  0.52963100  1
  F  F3  1  0.73651300  0.92645500  0.36971500  1
  F  F4  1  0.76417900  0.77080600  0.02164700  1
  F  F5  1  0.80085700  0.07821400  0.84199000  1
  F  F6  1  0.77316400  0.85378500  0.68641700  1
loop_
_geom_bond_atom_site_label_1
_geom_bond_atom_site_label_2
_geom_bond_distance
_geom_bond_site_symmetry_2
Mg0 O3 2.024332 1_555
Mg0 O12 2.068631 1_555
Mg0 O11 2.100453 1_565
Mn0 O0 1.933106 1_655
Mn0 O6 1.984391 1_655
Mn0 O13 2.136137 1_555
Mn0 O4 2.233257 1_645
Mn1 O0 1.999425 1_565
Mn1 O8 2.007853 1_555
Mn1 O3 2.039269 1_555
Mn1 O12 2.092431 1_455
Mn2 O3 1.861369 1_545
Mn2 O2 1.965380 1_554
Mn2 O7 1.966794 1_555
Mn2 O11 2.156451 1_455
Mn3 O1 1.876227 1_555
Mn3 O10 2.012520 1_555
Mn3 O16 2.096975 1_455
Mn3 O5 2.142904 1_545
Mn4 O4 1.872504 1_555
Mn4 O14 1.975696 1_455
Mn4 O1 2.068160 1_565
Mn4 O9 2.076792 1_555
Mn5 O5 1.932045 1_555
Mn5 O15 1.959898 1_455
Mn5 O2 1.976332 1_565
Mn6 O10 1.927759 1_555
Mn6 O15 1.966854 1_555
Mn6 O2 1.971259 1_555
Mn6 O11 2.088979 1_556
Mn7 O9 1.890982 1_555
Mn7 O16 1.903719 1_555
Mn7 O14 1.955099 1_555
Mn7 O1 1.960079 1_555
Mn7 O6 1.960533 1_555
Mn8 O8 1.868795 1_555
Mn8 O13 1.880610 1_555
Mn8 O0 1.891888 1_555
Mn8 O7 2.080115 1_555
Mn8 O12 2.110158 1_555
Mn9 O12 1.877648 1_555
Mn9 O11 1.899801 1_555
Mn9 O7 2.010138 1_555
Mn10 O6 1.886593 1_555
Mn10 O14 1.924649 1_555
Mn10 O8 1.939614 1_555
Mn10 O4 1.965014 1_555
Mn10 O13 1.974427 1_555
Mn11 O10 1.876743 1_555
Mn11 O9 1.907612 1_555
Mn11 O15 1.952065 1_555
Mn11 O5 2.001642 1_555
Mn11 O16 2.013762 1_555
F0 Mn2 1.998145 1_556
F0 Mn5 2.122909 1_555
F0 Mn6 2.270794 1_555
F1 Mg0 2.052827 1_545
F1 Mn8 2.139150 1_555
F1 Mn9 2.250373 1_555
F1 Mn1 2.373241 1_645
F2 Mn0 2.021393 1_555
F2 Mn7 2.035403 1_555
F2 Mn4 2.399123 1_645
F3 Mn10 2.032327 1_555
F3 Mn0 2.150955 1_565
F3 Mn1 2.203570 1_655
F4 Mn9 2.009701 1_555
F4 Mg0 2.030806 1_555
F4 Mn5 2.259227 1_654
F5 Mn3 1.974591 1_655
F5 Mn6 2.100704 1_555
F5 Mn5 2.175570 1_645
F6 Mn11 2.048642 1_555
F6 Mn4 2.060476 1_655
F6 Mn3 2.165896 1_665
