# generated using pymatgen
data_Li3Co2P5O16
_symmetry_space_group_name_H-M   'P 1'
_cell_length_a   6.93199000
_cell_length_b   5.05767900
_cell_length_c   18.20156259
_cell_angle_alpha   87.62632417
_cell_angle_beta   90.00000000
_cell_angle_gamma   90.00000000
_symmetry_Int_Tables_number   1
_chemical_formula_structural   Li3Co2P5O16
_chemical_formula_sum   'Li6 Co4 P10 O32'
_cell_volume   637.59523536
_cell_formula_units_Z   2
loop_
 _symmetry_equiv_pos_site_id
 _symmetry_equiv_pos_as_xyz
  1  'x, y, z'
loop_
 _atom_site_type_symbol
 _atom_site_label
 _atom_site_symmetry_multiplicity
 _atom_site_fract_x
 _atom_site_fract_y
 _atom_site_fract_z
 _atom_site_occupancy
  Li  Li0  1  0.32778100  0.73975500  0.53425200  1
  Li  Li1  1  0.97921800  0.50000000  0.75000000  1
  Li  Li2  1  0.67221900  0.26024500  0.46574800  1
  Li  Li3  1  0.32778100  0.26024500  0.96574800  1
  Li  Li4  1  0.02078200  0.50000000  0.25000000  1
  Li  Li5  1  0.67221900  0.73975500  0.03425200  1
  Co  Co0  1  0.82680200  0.73257900  0.58937400  1
  Co  Co1  1  0.17319800  0.73257900  0.08937400  1
  Co  Co2  1  0.82680200  0.26742100  0.91062600  1
  Co  Co3  1  0.17319800  0.26742100  0.41062600  1
  P  P0  1  0.53170900  0.26119700  0.62433800  1
  P  P1  1  0.24506900  0.00000000  0.25000000  1
  P  P2  1  0.87432500  0.77293700  0.41363000  1
  P  P3  1  0.46829100  0.73880300  0.37566200  1
  P  P4  1  0.75493100  0.00000000  0.75000000  1
  P  P5  1  0.53170900  0.73880300  0.87566200  1
  P  P6  1  0.87432500  0.22706300  0.08637000  1
  P  P7  1  0.46829100  0.26119700  0.12433800  1
  P  P8  1  0.12567500  0.22706300  0.58637000  1
  P  P9  1  0.12567500  0.77293700  0.91363000  1
  O  O0  1  0.08149600  0.06178900  0.92902300  1
  O  O1  1  0.13408900  0.82264800  0.20087800  1
  O  O2  1  0.61264800  0.80656800  0.79467600  1
  O  O3  1  0.02304400  0.62123700  0.37011000  1
  O  O4  1  0.97695600  0.37876300  0.62989000  1
  O  O5  1  0.91850400  0.06178900  0.42902300  1
  O  O6  1  0.38735200  0.19343200  0.20532400  1
  O  O7  1  0.55262800  0.44429200  0.89214900  1
  O  O8  1  0.79641500  0.61706600  0.48167000  1
  O  O9  1  0.68843000  0.80143100  0.35686500  1
  O  O10  1  0.44737200  0.44429200  0.39214900  1
  O  O11  1  0.38288800  0.08137900  0.06831200  1
  O  O12  1  0.44737200  0.55570800  0.10785100  1
  O  O13  1  0.55262800  0.55570800  0.60785100  1
  O  O14  1  0.91850400  0.93821100  0.07097700  1
  O  O15  1  0.68843000  0.19856900  0.14313500  1
  O  O16  1  0.02304400  0.37876300  0.12989000  1
  O  O17  1  0.38288800  0.91862100  0.43168800  1
  O  O18  1  0.86591100  0.17735200  0.79912200  1
  O  O19  1  0.61711200  0.08137900  0.56831200  1
  O  O20  1  0.86591100  0.82264800  0.70087800  1
  O  O21  1  0.61264800  0.19343200  0.70532400  1
  O  O22  1  0.31157000  0.19856900  0.64313500  1
  O  O23  1  0.97695600  0.62123700  0.87011000  1
  O  O24  1  0.31157000  0.80143100  0.85686500  1
  O  O25  1  0.13408900  0.17735200  0.29912200  1
  O  O26  1  0.79641500  0.38293400  0.01833000  1
  O  O27  1  0.38735200  0.80656800  0.29467600  1
  O  O28  1  0.61711200  0.91862100  0.93168800  1
  O  O29  1  0.20358500  0.61706600  0.98167000  1
  O  O30  1  0.08149600  0.93821100  0.57097700  1
  O  O31  1  0.20358500  0.38293400  0.51833000  1
loop_
_geom_bond_atom_site_label_1
_geom_bond_atom_site_label_2
_geom_bond_distance
_geom_bond_site_symmetry_2
Li0 O31 2.031107 1_555
Li0 O17 2.075923 1_555
Li0 O30 2.103463 1_555
Li0 O13 2.233185 1_555
Li1 O18 1.989575 1_555
Li1 O20 1.989575 1_555
Li1 O4 2.294929 1_555
Li1 O23 2.294929 1_555
Li2 O8 2.031107 1_555
Li2 O19 2.075923 1_555
Li2 O5 2.103463 1_555
Li2 O10 2.233185 1_555
Li3 O29 2.031107 1_555
Li3 O11 2.075923 1_556
Li3 O0 2.103463 1_555
Li3 O7 2.233185 1_555
Li4 O25 1.989575 1_555
Li4 O1 1.989575 1_555
Li4 O16 2.294929 1_555
Li4 O3 2.294929 1_555
Li5 O26 2.031107 1_555
Li5 O28 2.075923 1_554
Li5 O14 2.103463 1_555
Li5 O12 2.233185 1_555
Co0 O30 2.069309 1_655
Co0 O8 2.079340 1_555
Co0 O20 2.115811 1_555
Co0 O13 2.121459 1_555
Co0 O4 2.172601 1_555
Co0 O19 2.305629 1_565
Co1 O14 2.069309 1_455
Co1 O29 2.079340 1_554
Co1 O1 2.115811 1_555
Co1 O12 2.121459 1_555
Co1 O16 2.172601 1_555
Co1 O11 2.305629 1_565
Co2 O0 2.069309 1_655
Co2 O26 2.079340 1_556
Co2 O18 2.115811 1_555
Co2 O7 2.121459 1_555
Co2 O23 2.172601 1_555
Co2 O28 2.305629 1_545
Co3 O5 2.069309 1_455
Co3 O31 2.079340 1_555
Co3 O25 2.115811 1_555
Co3 O10 2.121459 1_555
Co3 O3 2.172601 1_555
Co3 O17 2.305629 1_545
O0 P9 1.529863 1_545
O1 P1 1.504085 1_565
O2 P4 1.589105 1_565
O2 P5 1.601032 1_555
O3 P2 1.526198 1_455
O4 P8 1.526198 1_655
O5 P2 1.529863 1_545
O6 P1 1.589105 1_555
O6 P7 1.601032 1_555
O7 P5 1.514197 1_555
O8 P2 1.538185 1_555
O9 P3 1.592825 1_555
O9 P2 1.654240 1_555
O10 P3 1.514197 1_555
O11 P7 1.514706 1_555
O12 P7 1.514197 1_555
O13 P0 1.514197 1_555
O14 P6 1.529863 1_565
O15 P7 1.592825 1_555
O15 P6 1.654240 1_555
O16 P6 1.526198 1_455
O17 P3 1.514706 1_555
O18 P4 1.504085 1_555
O19 P0 1.514706 1_555
O20 P4 1.504085 1_565
O21 P4 1.589105 1_555
O21 P0 1.601032 1_555
O22 P0 1.592825 1_555
O22 P8 1.654240 1_555
O23 P9 1.526198 1_655
O24 P5 1.592825 1_555
O24 P9 1.654240 1_555
O25 P1 1.504085 1_555
O26 P6 1.538185 1_555
O27 P1 1.589105 1_565
O27 P3 1.601032 1_555
O28 P5 1.514706 1_555
O29 P9 1.538185 1_555
O30 P8 1.529863 1_565
O31 P8 1.538185 1_555
