# generated using pymatgen
data_MgTi2(SiO4)2
_symmetry_space_group_name_H-M   'P 1'
_cell_length_a   5.03229323
_cell_length_b   5.03229323
_cell_length_c   6.28096438
_cell_angle_alpha   93.54286130
_cell_angle_beta   86.45713870
_cell_angle_gamma   112.02687894
_symmetry_Int_Tables_number   1
_chemical_formula_structural   MgTi2(SiO4)2
_chemical_formula_sum   'Mg1 Ti2 Si2 O8'
_cell_volume   147.03890233
_cell_formula_units_Z   1
loop_
 _symmetry_equiv_pos_site_id
 _symmetry_equiv_pos_as_xyz
  1  'x, y, z'
loop_
 _atom_site_type_symbol
 _atom_site_label
 _atom_site_symmetry_multiplicity
 _atom_site_fract_x
 _atom_site_fract_y
 _atom_site_fract_z
 _atom_site_occupancy
  Mg  Mg0  1  0.50000000  0.50000000  0.50000000  1
  Ti  Ti0  1  0.00000000  0.00000000  0.50000000  1
  Ti  Ti1  1  0.00000000  0.00000000  0.00000000  1
  Si  Si0  1  0.66514500  0.33485500  0.79562900  1
  Si  Si1  1  0.33485500  0.66514500  0.20437100  1
  O  O0  1  0.77044500  0.22955500  0.56356900  1
  O  O1  1  0.22955500  0.77044500  0.43643100  1
  O  O2  1  0.76817600  0.23182400  0.99739600  1
  O  O3  1  0.23182400  0.76817600  0.00260400  1
  O  O4  1  0.76727800  0.69222600  0.75607100  1
  O  O5  1  0.69222600  0.76727800  0.24392900  1
  O  O6  1  0.23272200  0.30777400  0.24392900  1
  O  O7  1  0.30777400  0.23272200  0.75607100  1
loop_
_geom_bond_atom_site_label_1
_geom_bond_atom_site_label_2
_geom_bond_distance
_geom_bond_site_symmetry_2
Mg0 O6 2.104956 1_555
Mg0 O5 2.104956 1_555
Mg0 O7 2.104956 1_555
Mg0 O4 2.104956 1_555
Mg0 O1 2.321091 1_555
Mg0 O0 2.321091 1_555
O0 Si0 1.644925 1_555
O0 Ti0 1.927508 1_655
O1 Si1 1.644925 1_555
O1 Ti0 1.927508 1_565
O2 Si0 1.583581 1_555
O2 Ti1 1.935915 1_656
O3 Si1 1.583581 1_555
O3 Ti1 1.935915 1_565
O4 Si0 1.704773 1_555
O4 Ti1 2.164636 1_666
O4 Ti0 2.252054 1_665
O5 Si1 1.704773 1_555
O5 Ti1 2.164636 1_665
O5 Ti0 2.252054 1_665
O6 Si1 1.704773 1_555
O6 Ti1 2.164636 1_555
O6 Ti0 2.252054 1_555
O7 Si0 1.704773 1_555
O7 Ti1 2.164636 1_556
O7 Ti0 2.252054 1_555
