# generated using pymatgen
data_K4MgV2(CuS4)2
_symmetry_space_group_name_H-M   'P 1'
_cell_length_a   5.59391010
_cell_length_b   7.19179302
_cell_length_c   11.80927615
_cell_angle_alpha   84.40994426
_cell_angle_beta   77.14768032
_cell_angle_gamma   65.04875958
_symmetry_Int_Tables_number   1
_chemical_formula_structural   K4MgV2(CuS4)2
_chemical_formula_sum   'K4 Mg1 V2 Cu2 S8'
_cell_volume   419.95339730
_cell_formula_units_Z   1
loop_
 _symmetry_equiv_pos_site_id
 _symmetry_equiv_pos_as_xyz
  1  'x, y, z'
loop_
 _atom_site_type_symbol
 _atom_site_label
 _atom_site_symmetry_multiplicity
 _atom_site_fract_x
 _atom_site_fract_y
 _atom_site_fract_z
 _atom_site_occupancy
  K  K0  1  0.44934800  0.73458700  0.09932400  1
  K  K1  1  0.15047700  0.25577000  0.64742200  1
  K  K2  1  0.80565100  0.72175500  0.38401000  1
  K  K3  1  0.54660800  0.23382300  0.89330900  1
  Mg  Mg0  1  0.73060400  0.24293400  0.49310500  1
  V  V0  1  0.39237100  0.23217000  0.24406200  1
  V  V1  1  0.59435200  0.74698000  0.74491000  1
  Cu  Cu0  1  0.09613500  0.74913600  0.73971200  1
  Cu  Cu1  1  0.89762600  0.22807800  0.23972600  1
  S  S0  1  0.11526900  0.41513000  0.13069700  1
  S  S1  1  0.88171800  0.56270100  0.85437500  1
  S  S2  1  0.20558400  0.93767500  0.85126600  1
  S  S3  1  0.53208200  0.53507400  0.63361300  1
  S  S4  1  0.18363600  0.06952700  0.37762800  1
  S  S5  1  0.46650600  0.44243200  0.35040500  1
  S  S6  1  0.78183700  0.01593400  0.14937500  1
  S  S7  1  0.77019700  0.95036600  0.62817300  1
loop_
_geom_bond_atom_site_label_1
_geom_bond_atom_site_label_2
_geom_bond_distance
_geom_bond_site_symmetry_2
K0 S1 3.287414 1_554
K0 S6 3.356031 1_465
K0 S6 3.435099 1_565
K0 S2 3.440514 1_554
K0 S5 3.458088 1_555
K0 S0 3.472267 1_555
K0 S0 3.538302 1_655
K1 S1 3.118056 1_455
K1 S2 3.128195 1_545
K1 S7 3.196285 1_545
K1 S3 3.217532 1_455
K1 S3 3.466588 1_555
K1 S4 3.512602 1_555
K2 S6 3.309967 1_565
K2 S5 3.331094 1_655
K2 S4 3.332525 1_565
K2 S7 3.383854 1_555
K2 S5 3.390823 1_555
K2 S3 3.433450 1_555
K2 S0 3.545303 1_655
K3 S0 3.229486 1_556
K3 S2 3.337518 1_645
K3 S6 3.526848 1_556
K3 S1 3.530604 1_555
K3 S2 3.532303 1_545
K3 S1 3.572957 1_455
K3 S3 3.574038 1_555
K3 S7 3.588006 1_545
Mg0 S5 2.434975 1_555
Mg0 S4 2.442263 1_655
Mg0 S7 2.476003 1_545
Mg0 S3 2.508319 1_555
Cu0 S1 2.313117 1_455
Cu0 S2 2.314325 1_555
Cu0 S7 2.371612 1_455
Cu0 S3 2.394980 1_555
Cu1 S0 2.301454 1_655
Cu1 S6 2.311725 1_555
Cu1 S5 2.398848 1_555
Cu1 S4 2.402124 1_655
S0 V0 2.187601 1_555
S1 V1 2.191991 1_555
S2 V1 2.189043 1_555
S3 V1 2.283228 1_555
S4 V0 2.278821 1_555
S5 V0 2.272987 1_555
S6 V0 2.193567 1_555
S7 V1 2.285909 1_555
