# generated using pymatgen
data_TlFeI3
_symmetry_space_group_name_H-M   'P 1'
_cell_length_a   4.00976100
_cell_length_b   9.82446900
_cell_length_c   16.12710400
_cell_angle_alpha   90.00000000
_cell_angle_beta   90.00000000
_cell_angle_gamma   90.00000000
_symmetry_Int_Tables_number   1
_chemical_formula_structural   TlFeI3
_chemical_formula_sum   'Tl4 Fe4 I12'
_cell_volume   635.30746835
_cell_formula_units_Z   4
loop_
 _symmetry_equiv_pos_site_id
 _symmetry_equiv_pos_as_xyz
  1  'x, y, z'
loop_
 _atom_site_type_symbol
 _atom_site_label
 _atom_site_symmetry_multiplicity
 _atom_site_fract_x
 _atom_site_fract_y
 _atom_site_fract_z
 _atom_site_occupancy
  Tl  Tl0  1  0.75000000  0.55692000  0.17273800  1
  Tl  Tl1  1  0.75000000  0.05692000  0.32726200  1
  Tl  Tl2  1  0.25000000  0.44308000  0.82726200  1
  Tl  Tl3  1  0.25000000  0.94308000  0.67273800  1
  Fe  Fe0  1  0.25000000  0.64917500  0.45101800  1
  Fe  Fe1  1  0.75000000  0.35082500  0.54898200  1
  Fe  Fe2  1  0.75000000  0.85082500  0.95101800  1
  Fe  Fe3  1  0.25000000  0.14917500  0.04898200  1
  I  I0  1  0.25000000  0.68895800  0.99976100  1
  I  I1  1  0.75000000  0.73311800  0.80069300  1
  I  I2  1  0.75000000  0.48709200  0.41017100  1
  I  I3  1  0.75000000  0.23311800  0.69930700  1
  I  I4  1  0.25000000  0.01290800  0.91017100  1
  I  I5  1  0.25000000  0.18895800  0.50023900  1
  I  I6  1  0.25000000  0.51290800  0.58982900  1
  I  I7  1  0.75000000  0.31104200  0.00023900  1
  I  I8  1  0.75000000  0.81104200  0.49976100  1
  I  I9  1  0.75000000  0.98709200  0.08982900  1
  I  I10  1  0.25000000  0.26688200  0.19930700  1
  I  I11  1  0.25000000  0.76688200  0.30069300  1
loop_
_geom_bond_atom_site_label_1
_geom_bond_atom_site_label_2
_geom_bond_distance
_geom_bond_site_symmetry_2
Fe0 I6 2.608385 1_555
Fe0 I2 2.643702 1_455
Fe0 I2 2.643702 1_555
Fe0 I8 2.677012 1_555
Fe0 I8 2.677012 1_455
Fe0 I11 2.685991 1_555
Fe1 I2 2.608385 1_555
Fe1 I6 2.643702 1_555
Fe1 I6 2.643702 1_655
Fe1 I5 2.677012 1_555
Fe1 I5 2.677012 1_655
Fe1 I3 2.685991 1_555
Fe2 I9 2.608385 1_556
Fe2 I4 2.643702 1_565
Fe2 I4 2.643702 1_665
Fe2 I0 2.677012 1_655
Fe2 I0 2.677012 1_555
Fe2 I1 2.685991 1_555
Fe3 I4 2.608385 1_554
Fe3 I9 2.643702 1_545
Fe3 I9 2.643702 1_445
Fe3 I7 2.677012 1_455
Fe3 I7 2.677012 1_555
Fe3 I10 2.685991 1_555
I1 Tl2 3.510359 1_655
I1 Tl2 3.510359 1_555
I1 Tl3 3.540164 1_555
I1 Tl3 3.540164 1_655
I3 Tl3 3.510359 1_645
I3 Tl3 3.510359 1_545
I3 Tl2 3.540164 1_555
I3 Tl2 3.540164 1_655
I10 Tl0 3.510359 1_555
I10 Tl0 3.510359 1_455
I10 Tl1 3.540164 1_455
I10 Tl1 3.540164 1_555
I11 Tl1 3.510359 1_465
I11 Tl1 3.510359 1_565
I11 Tl0 3.540164 1_555
I11 Tl0 3.540164 1_455
