# generated using pymatgen
data_P2Os
_symmetry_space_group_name_H-M   'P 1'
_cell_length_a   2.94564109
_cell_length_b   5.09488199
_cell_length_c   5.90694818
_cell_angle_alpha   90.00000000
_cell_angle_beta   90.00000000
_cell_angle_gamma   90.00000000
_symmetry_Int_Tables_number   1
_chemical_formula_structural   P2Os
_chemical_formula_sum   'P4 Os2'
_cell_volume   88.64966921
_cell_formula_units_Z   2
loop_
 _symmetry_equiv_pos_site_id
 _symmetry_equiv_pos_as_xyz
  1  'x, y, z'
loop_
 _atom_site_type_symbol
 _atom_site_label
 _atom_site_symmetry_multiplicity
 _atom_site_fract_x
 _atom_site_fract_y
 _atom_site_fract_z
 _atom_site_occupancy
  P  P0  1  0.50000000  0.33695504  0.87318119  1
  P  P1  1  0.50000000  0.66304496  0.12681881  1
  P  P2  1  -0.00000000  0.16304496  0.37318119  1
  P  P3  1  -0.00000000  0.83695504  0.62681881  1
  Os  Os0  1  0.50000000  0.50000000  0.50000000  1
  Os  Os1  1  0.00000000  -0.00000000  -0.00000000  1
loop_
_geom_bond_atom_site_label_1
_geom_bond_atom_site_label_2
_geom_bond_distance
_geom_bond_site_symmetry_2
P0 P1 2.237162 1_556
P2 P3 2.237162 1_545
Os0 P1 2.355688 1_555
Os0 P0 2.355688 1_555
Os0 P3 2.382769 1_555
Os0 P3 2.382769 1_655
Os0 P2 2.382769 1_555
Os0 P2 2.382769 1_655
Os1 P2 2.355688 1_555
Os1 P3 2.355688 1_544
Os1 P1 2.382769 1_445
Os1 P0 2.382769 1_554
Os1 P1 2.382769 1_545
Os1 P0 2.382769 1_454
