# generated using pymatgen
data_Na14Nb5Ga3(SiO4)12
_symmetry_space_group_name_H-M   'P 1'
_cell_length_a   18.09959697
_cell_length_b   9.04847598
_cell_length_c   22.36082899
_cell_angle_alpha   90.03707836
_cell_angle_beta   89.89408263
_cell_angle_gamma   120.05420444
_symmetry_Int_Tables_number   1
_chemical_formula_structural   Na14Nb5Ga3(SiO4)12
_chemical_formula_sum   'Na42 Nb15 Ga9 Si36 O144'
_cell_volume   3169.74728665
_cell_formula_units_Z   3
loop_
 _symmetry_equiv_pos_site_id
 _symmetry_equiv_pos_as_xyz
  1  'x, y, z'
loop_
 _atom_site_type_symbol
 _atom_site_label
 _atom_site_symmetry_multiplicity
 _atom_site_fract_x
 _atom_site_fract_y
 _atom_site_fract_z
 _atom_site_occupancy
  Na  Na0  1  0.31935190  0.01027504  0.24760174  1
  Na  Na1  1  0.81598813  0.00872921  0.24633818  1
  Na  Na2  1  0.18875059  0.36858988  0.24609179  1
  Na  Na3  1  0.68578630  0.36132539  0.24782898  1
  Na  Na4  1  0.99558343  0.62424972  0.24677598  1
  Na  Na5  1  0.49444434  0.62682885  0.24742108  1
  Na  Na6  1  0.31715405  0.62567266  0.74711462  1
  Na  Na7  1  0.81698899  0.62540920  0.74732103  1
  Na  Na8  1  0.99537885  0.36594474  0.74742968  1
  Na  Na9  1  0.49527523  0.36566058  0.74729369  1
  Na  Na10  1  0.18787860  0.00888087  0.74714096  1
  Na  Na11  1  0.68756953  0.00868871  0.74710550  1
  Na  Na12  1  0.15230095  0.34515048  0.58033029  1
  Na  Na13  1  0.65178926  0.34351053  0.58039550  1
  Na  Na14  1  0.02028550  0.69596026  0.58020359  1
  Na  Na15  1  0.51965046  0.69577841  0.58039928  1
  Na  Na16  1  0.32794067  0.95927187  0.58026610  1
  Na  Na17  1  0.82789680  0.95982852  0.58092967  1
  Na  Na18  1  0.15288646  0.96065847  0.08045699  1
  Na  Na19  1  0.65191329  0.96013421  0.08083539  1
  Na  Na20  1  0.32843189  0.69701264  0.08132501  1
  Na  Na21  1  0.82765555  0.69537415  0.08087229  1
  Na  Na22  1  0.01979562  0.34429324  0.08018199  1
  Na  Na23  1  0.51953002  0.34328157  0.08074398  1
  Na  Na24  1  0.34879751  0.03089632  0.91912862  1
  Na  Na25  1  0.84871029  0.03089024  0.91904834  1
  Na  Na26  1  0.48429166  0.29272472  0.41493037  1
  Na  Na27  1  0.66118377  0.03161824  0.41475167  1
  Na  Na28  1  0.35387325  0.67757448  0.41516392  1
  Na  Na29  1  0.84814822  0.66624195  0.41762991  1
  Na  Na30  1  0.00350078  0.00672883  0.49748880  1
  Na  Na31  1  0.49957041  0.99990153  0.49410855  1
  Na  Na32  1  0.00329580  0.99977985  0.99801928  1
  Na  Na33  1  0.50319921  0.99984175  0.99882162  1
  Na  Na34  1  0.33316006  0.33856112  0.83247324  1
  Na  Na35  1  0.83312543  0.33853269  0.83242932  1
  Na  Na36  1  0.33142200  0.32953391  0.32969804  1
  Na  Na37  1  0.83502417  0.33145359  0.32977914  1
  Na  Na38  1  0.16734643  0.66711267  0.16133895  1
  Na  Na39  1  0.66622667  0.66659760  0.16110235  1
  Na  Na40  1  0.16699425  0.66694667  0.66159231  1
  Na  Na41  1  0.66657711  0.66672238  0.66178874  1
  Nb  Nb0  1  0.00289724  0.00457351  0.35494865  1
  Nb  Nb1  1  0.00208815  0.00009803  0.85574958  1
  Nb  Nb2  1  0.50203850  -0.00000114  0.85573147  1
  Nb  Nb3  1  0.99986648  0.99953328  0.64566888  1
  Nb  Nb4  1  0.49987194  0.99971066  0.64507513  1
  Nb  Nb5  1  0.99981238  0.00022481  0.14511592  1
  Nb  Nb6  1  0.49982744  0.00007195  0.14658431  1
  Nb  Nb7  1  0.33340374  0.33773719  0.97867221  1
  Nb  Nb8  1  0.83322439  0.33782166  0.97856985  1
  Nb  Nb9  1  0.33033893  0.32835322  0.47871659  1
  Nb  Nb10  1  0.83628780  0.33381968  0.47905271  1
  Nb  Nb11  1  0.16772022  0.66853685  0.31457419  1
  Nb  Nb12  1  0.66542121  0.66529164  0.31356701  1
  Nb  Nb13  1  0.16649613  0.66597172  0.81519702  1
  Nb  Nb14  1  0.66627084  0.66569222  0.81519192  1
  Ga  Ga0  1  0.49944965  0.99988099  0.35106237  1
  Ga  Ga1  1  0.33345933  0.33335894  0.68366573  1
  Ga  Ga2  1  0.83319277  0.33294419  0.68373348  1
  Ga  Ga3  1  0.33425140  0.33488692  0.18351139  1
  Ga  Ga4  1  0.83214282  0.33173510  0.18338664  1
  Ga  Ga5  1  0.16633946  0.66629166  0.01839759  1
  Ga  Ga6  1  0.66601479  0.66579021  0.01840515  1
  Ga  Ga7  1  0.16646239  0.66709638  0.51767327  1
  Ga  Ga8  1  0.66617181  0.66591710  0.51789731  1
  Si  Si0  1  0.14803990  0.00373505  0.24885373  1
  Si  Si1  1  0.64612612  0.00521042  0.25199506  1
  Si  Si2  1  0.35601450  0.70708560  0.25212492  1
  Si  Si3  1  0.85459346  0.70465657  0.25016775  1
  Si  Si4  1  0.99811891  0.29144552  0.24963039  1
  Si  Si5  1  0.49720870  0.28739403  0.25201374  1
  Si  Si6  1  0.14778102  0.29178957  0.74931564  1
  Si  Si7  1  0.64764797  0.29150831  0.74923004  1
  Si  Si8  1  0.99800672  0.70449579  0.74970759  1
  Si  Si9  1  0.49800675  0.70481866  0.74958625  1
  Si  Si10  1  0.35446498  0.00416122  0.75019009  1
  Si  Si11  1  0.85432409  0.00408490  0.75030816  1
  Si  Si12  1  0.47891656  0.33879371  0.58471631  1
  Si  Si13  1  0.98004437  0.33908191  0.58579814  1
  Si  Si14  1  0.18961537  0.04036743  0.58582360  1
  Si  Si15  1  0.69043862  0.04215311  0.58466643  1
  Si  Si16  1  0.33048200  0.61897104  0.58475742  1
  Si  Si17  1  0.83055871  0.61953415  0.58506019  1
  Si  Si18  1  0.47960575  0.62069705  0.08517100  1
  Si  Si19  1  0.97919939  0.61924708  0.08550456  1
  Si  Si20  1  0.33079442  0.04235358  0.08468527  1
  Si  Si21  1  0.83054401  0.04229915  0.08431218  1
  Si  Si22  1  0.19042820  0.33877217  0.08513225  1
  Si  Si23  1  0.68986952  0.33829573  0.08515600  1
  Si  Si24  1  0.30996723  0.66412435  0.91939863  1
  Si  Si25  1  0.80990015  0.66431664  0.91937498  1
  Si  Si26  1  0.02330210  0.38016101  0.92018427  1
  Si  Si27  1  0.52324892  0.37991924  0.92017266  1
  Si  Si28  1  0.16572617  0.95326931  0.92018461  1
  Si  Si29  1  0.66566313  0.95312717  0.92017728  1
  Si  Si30  1  0.31249144  0.95496095  0.41920749  1
  Si  Si31  1  0.81088433  0.95433824  0.41893750  1
  Si  Si32  1  0.16535735  0.37930015  0.41996747  1
  Si  Si33  1  0.66410169  0.37302288  0.41889878  1
  Si  Si34  1  0.02461962  0.66828502  0.41955314  1
  Si  Si35  1  0.52209050  0.67150060  0.41928216  1
  O  O0  1  0.09741526  0.02984182  0.30543360  1
  O  O1  1  0.60299086  0.03674363  0.30987020  1
  O  O2  1  0.41502835  0.79353007  0.30985821  1
  O  O3  1  0.91571409  0.80023708  0.30803340  1
  O  O4  1  0.48185870  0.17001132  0.30987525  1
  O  O5  1  0.98459538  0.16312140  0.30581778  1
  O  O6  1  0.09720905  0.16389008  0.80534271  1
  O  O7  1  0.59734945  0.16405041  0.80536698  1
  O  O8  1  0.48431541  0.80535069  0.80563247  1
  O  O9  1  0.98424237  0.80539383  0.80558605  1
  O  O10  1  0.41568528  0.03148205  0.80775186  1
  O  O11  1  0.91570948  0.03150563  0.80768809  1
  O  O12  1  0.39967580  0.96579147  0.69206422  1
  O  O13  1  0.89957033  0.96579837  0.69206106  1
  O  O14  1  0.08359658  0.20180443  0.69119394  1
  O  O15  1  0.58372161  0.20198261  0.69112581  1
  O  O16  1  0.01731654  0.83293060  0.69139716  1
  O  O17  1  0.51746229  0.83312488  0.69137886  1
  O  O18  1  0.39945076  0.83370644  0.19259428  1
  O  O19  1  0.89970273  0.83342237  0.19221286  1
  O  O20  1  0.01727827  0.20138531  0.19158033  1
  O  O21  1  0.51740713  0.20107601  0.19249816  1
  O  O22  1  0.08340409  0.96521181  0.19124279  1
  O  O23  1  0.58318057  0.96551276  0.19250535  1
  O  O24  1  0.43697726  0.37059836  0.64358610  1
  O  O25  1  0.93709135  0.37046230  0.64414302  1
  O  O26  1  0.24794199  0.12529894  0.64431617  1
  O  O27  1  0.74845788  0.12611946  0.64336662  1
  O  O28  1  0.31487311  0.50311443  0.64355340  1
  O  O29  1  0.81495766  0.50349465  0.64364649  1
  O  O30  1  0.43753069  0.50481948  0.14388808  1
  O  O31  1  0.93692659  0.50355795  0.14445085  1
  O  O32  1  0.31462636  0.12629377  0.14355520  1
  O  O33  1  0.81553395  0.12652542  0.14342251  1
  O  O34  1  0.24775914  0.36971941  0.14404891  1
  O  O35  1  0.74809329  0.37177936  0.14401428  1
  O  O36  1  0.23457080  0.29712571  0.02729897  1
  O  O37  1  0.73499595  0.29780253  0.02753288  1
  O  O38  1  0.41448621  0.53012859  0.02749301  1
  O  O39  1  0.91436387  0.53026362  0.02768540  1
  O  O40  1  0.35102834  0.16682760  0.02532515  1
  O  O41  1  0.85155294  0.16699012  0.02512860  1
  O  O42  1  0.23427362  0.17077188  0.52791236  1
  O  O43  1  0.73325743  0.16843711  0.52553211  1
  O  O44  1  0.35114299  0.53426955  0.52560939  1
  O  O45  1  0.85095074  0.53484859  0.52569592  1
  O  O46  1  0.41602101  0.29823162  0.52579414  1
  O  O47  1  0.91472583  0.29863566  0.52778997  1
  O  O48  1  0.27080712  0.70753303  0.97645377  1
  O  O49  1  0.77087225  0.70766114  0.97652058  1
  O  O50  1  0.08029720  0.46063521  0.97799176  1
  O  O51  1  0.58036055  0.46053845  0.97788596  1
  O  O52  1  0.15044914  0.84006839  0.97819090  1
  O  O53  1  0.65072141  0.84019470  0.97817698  1
  O  O54  1  0.26970094  0.83498839  0.47664505  1
  O  O55  1  0.77098385  0.83577666  0.47684774  1
  O  O56  1  0.15043105  0.46014477  0.47865215  1
  O  O57  1  0.64867809  0.46093250  0.47654494  1
  O  O58  1  0.07936447  0.69884316  0.47831728  1
  O  O59  1  0.58254657  0.70470914  0.47646181  1
  O  O60  1  0.06711668  0.63771719  0.35835251  1
  O  O61  1  0.56682775  0.63362827  0.35962518  1
  O  O62  1  0.25147702  0.86534740  0.35892139  1
  O  O63  1  0.75054315  0.86754509  0.35872372  1
  O  O64  1  0.18237342  0.49853458  0.35913669  1
  O  O65  1  0.68379579  0.50080307  0.35936981  1
  O  O66  1  0.06746051  0.49607808  0.85867361  1
  O  O67  1  0.56748317  0.49615101  0.85867813  1
  O  O68  1  0.18198099  0.86560666  0.85913276  1
  O  O69  1  0.68214501  0.86578566  0.85909557  1
  O  O70  1  0.25191590  0.63842222  0.85821648  1
  O  O71  1  0.75195974  0.63848047  0.85818995  1
  O  O72  1  0.00801199  0.83093867  0.40974122  1
  O  O73  1  0.51089903  0.83736527  0.41141350  1
  O  O74  1  0.40715745  0.97768342  0.41127816  1
  O  O75  1  0.90480091  0.97067228  0.40954431  1
  O  O76  1  0.08262836  0.18701582  0.40976309  1
  O  O77  1  0.58115352  0.18490063  0.41136889  1
  O  O78  1  0.00848710  0.18536478  0.90955554  1
  O  O79  1  0.50849014  0.18534167  0.90949861  1
  O  O80  1  0.08232087  0.97704441  0.90954192  1
  O  O81  1  0.58236708  0.97705253  0.90954798  1
  O  O82  1  0.40398492  0.83796594  0.90880092  1
  O  O83  1  0.90401924  0.83802996  0.90883619  1
  O  O84  1  0.48612094  0.16150922  0.58923474  1
  O  O85  1  0.98599986  0.16064813  0.58902188  1
  O  O86  1  0.09433129  0.02782884  0.58920448  1
  O  O87  1  0.59478964  0.02797804  0.58922616  1
  O  O88  1  0.41943994  0.81094239  0.58936847  1
  O  O89  1  0.91949656  0.81138937  0.58915236  1
  O  O90  1  0.48627254  0.81165185  0.08880988  1
  O  O91  1  0.98597974  0.81070232  0.08917353  1
  O  O92  1  0.41950692  0.02750613  0.08926699  1
  O  O93  1  0.91942845  0.02725159  0.08926219  1
  O  O94  1  0.09447747  0.16112169  0.08917442  1
  O  O95  1  0.59441921  0.16091407  0.08905010  1
  O  O96  1  0.34522159  0.17174528  0.74508969  1
  O  O97  1  0.84524293  0.17175735  0.74505019  1
  O  O98  1  0.24051561  0.30936928  0.74513671  1
  O  O99  1  0.74055142  0.30933452  0.74510438  1
  O  O100  1  0.41398368  0.51908001  0.74519239  1
  O  O101  1  0.91389575  0.51905686  0.74514411  1
  O  O102  1  0.34376173  0.51791626  0.24456293  1
  O  O103  1  0.84545492  0.51871063  0.24557976  1
  O  O104  1  0.41485675  0.31179423  0.24467167  1
  O  O105  1  0.91406601  0.30855265  0.24564401  1
  O  O106  1  0.24065603  0.17166571  0.24551706  1
  O  O107  1  0.74095124  0.17039455  0.24449186  1
  O  O108  1  0.32069451  0.49522161  0.92193601  1
  O  O109  1  0.82078117  0.49548790  0.92194415  1
  O  O110  1  0.42559399  0.35113758  0.92204247  1
  O  O111  1  0.92560166  0.35126082  0.92209606  1
  O  O112  1  0.25389310  0.14136328  0.92201545  1
  O  O113  1  0.75388475  0.14141729  0.92212360  1
  O  O114  1  0.32278373  0.14790242  0.42249661  1
  O  O115  1  0.81706505  0.14221508  0.42227270  1
  O  O116  1  0.25374140  0.36685883  0.42257085  1
  O  O117  1  0.75276730  0.36059593  0.42230952  1
  O  O118  1  0.42756281  0.49438117  0.42231955  1
  O  O119  1  0.92619997  0.49980224  0.42246913  1
  O  O120  1  0.17770019  0.50313794  0.07794871  1
  O  O121  1  0.67784018  0.50349746  0.07785402  1
  O  O122  1  0.07417673  0.64530913  0.07865878  1
  O  O123  1  0.57443906  0.64550863  0.07837084  1
  O  O124  1  0.24855464  0.85133677  0.07841837  1
  O  O125  1  0.74867945  0.85132763  0.07842130  1
  O  O126  1  0.17731238  0.85133053  0.57833423  1
  O  O127  1  0.67761657  0.85197648  0.57778417  1
  O  O128  1  0.24872777  0.64584991  0.57847398  1
  O  O129  1  0.74839320  0.64532678  0.57822768  1
  O  O130  1  0.07449559  0.50326283  0.57861142  1
  O  O131  1  0.57425720  0.50340219  0.57804740  1
  O  O132  1  0.15284038  0.82710760  0.25521864  1
  O  O133  1  0.65319593  0.82806543  0.25590569  1
  O  O134  1  0.26046706  0.69350235  0.25566662  1
  O  O135  1  0.76099652  0.69412107  0.25559915  1
  O  O136  1  0.08623163  0.47809840  0.25574612  1
  O  O137  1  0.58626593  0.47839710  0.25584586  1
  O  O138  1  0.15305188  0.47876192  0.75508470  1
  O  O139  1  0.65323266  0.47884379  0.75512176  1
  O  O140  1  0.08616170  0.69385698  0.75549340  1
  O  O141  1  0.58615299  0.69374783  0.75555792  1
  O  O142  1  0.26030266  0.82756581  0.75515577  1
  O  O143  1  0.76032837  0.82749466  0.75503887  1
loop_
_geom_bond_atom_site_label_1
_geom_bond_atom_site_label_2
_geom_bond_distance
_geom_bond_site_symmetry_2
Na0 O104 2.389954 1_555
Na0 O106 2.499474 1_555
Na0 O134 2.514802 1_545
Na0 O32 2.572183 1_555
Na0 O132 2.618042 1_545
Na0 O62 2.793617 1_545
Na0 O4 2.904084 1_555
Na0 O18 2.911735 1_545
Na1 O105 2.384883 1_555
Na1 O107 2.444659 1_555
Na1 O135 2.509848 1_545
Na1 O33 2.538517 1_555
Na1 O133 2.563856 1_545
Na1 O63 2.797837 1_545
Na1 O19 2.945339 1_545
Na1 O5 2.962417 1_555
Na2 O106 2.394676 1_555
Na2 O102 2.429205 1_555
Na2 O136 2.512255 1_555
Na2 O34 2.515417 1_555
Na2 O134 2.559668 1_555
Na2 O64 2.813628 1_555
Na2 O20 2.952176 1_555
Na2 O0 2.968250 1_555
Na3 O107 2.390518 1_555
Na3 O103 2.501916 1_555
Na3 O137 2.511716 1_555
Na3 O35 2.559941 1_555
Na3 O135 2.616377 1_555
Na3 O65 2.802854 1_555
Na3 O1 2.895723 1_555
Na3 O21 2.916586 1_555
Na4 O103 2.386901 1_555
Na4 O105 2.473061 1_555
Na4 O132 2.504938 1_655
Na4 O31 2.529719 1_555
Na4 O136 2.579889 1_655
Na4 O60 2.787367 1_655
Na4 O22 2.944928 1_655
Na4 O3 2.966050 1_555
Na5 O102 2.392038 1_555
Na5 O104 2.468148 1_555
Na5 O133 2.523623 1_555
Na5 O30 2.550679 1_555
Na5 O137 2.615078 1_555
Na5 O61 2.818928 1_555
Na5 O2 2.907258 1_555
Na5 O23 2.923450 1_555
Na6 O100 2.386721 1_555
Na6 O98 2.478104 1_555
Na6 O142 2.512008 1_555
Na6 O28 2.558362 1_555
Na6 O138 2.581550 1_555
Na6 O70 2.775731 1_555
Na6 O8 2.931599 1_555
Na6 O12 2.934523 1_555
Na7 O101 2.386451 1_555
Na7 O99 2.476466 1_555
Na7 O143 2.510462 1_555
Na7 O29 2.559087 1_555
Na7 O139 2.575902 1_555
Na7 O71 2.770133 1_555
Na7 O9 2.930435 1_555
Na7 O13 2.938414 1_555
Na8 O97 2.385863 1_555
Na8 O101 2.478723 1_555
Na8 O138 2.509825 1_655
Na8 O25 2.549729 1_555
Na8 O140 2.579376 1_655
Na8 O66 2.783124 1_655
Na8 O11 2.946153 1_555
Na8 O14 2.949932 1_655
Na9 O96 2.384217 1_555
Na9 O100 2.477987 1_555
Na9 O139 2.514365 1_555
Na9 O24 2.559196 1_555
Na9 O141 2.581117 1_555
Na9 O67 2.787132 1_555
Na9 O10 2.946391 1_555
Na9 O15 2.949331 1_555
Na10 O98 2.389099 1_555
Na10 O96 2.465760 1_555
Na10 O140 2.508493 1_545
Na10 O26 2.534734 1_555
Na10 O142 2.568553 1_545
Na10 O68 2.797829 1_545
Na10 O6 2.940997 1_555
Na10 O16 2.950818 1_545
Na11 O99 2.389372 1_555
Na11 O97 2.470914 1_555
Na11 O141 2.507192 1_545
Na11 O27 2.558386 1_555
Na11 O143 2.572480 1_545
Na11 O69 2.797985 1_545
Na11 O7 2.937529 1_555
Na11 O17 2.944209 1_545
Na12 O128 2.386271 1_555
Na12 O130 2.459630 1_555
Na12 O56 2.508335 1_555
Na12 O86 2.523271 1_555
Na12 O85 2.617221 1_455
Na12 O14 2.784128 1_555
Na12 O42 2.898414 1_555
Na12 O28 2.915463 1_555
Na13 O129 2.394735 1_555
Na13 O131 2.469640 1_555
Na13 O87 2.510877 1_555
Na13 O57 2.566749 1_555
Na13 O84 2.606601 1_555
Na13 O15 2.775067 1_555
Na13 O43 2.918788 1_555
Na13 O29 2.923766 1_555
Na14 O130 2.391147 1_555
Na14 O126 2.460349 1_555
Na14 O58 2.509523 1_555
Na14 O89 2.523019 1_455
Na14 O86 2.612128 1_565
Na14 O16 2.789847 1_555
Na14 O45 2.922412 1_455
Na14 O25 2.922567 1_455
Na15 O131 2.394296 1_555
Na15 O127 2.475377 1_555
Na15 O88 2.511455 1_555
Na15 O59 2.569506 1_555
Na15 O87 2.613331 1_565
Na15 O17 2.783761 1_555
Na15 O24 2.912132 1_555
Na15 O44 2.913025 1_555
Na16 O126 2.392030 1_555
Na16 O128 2.455075 1_555
Na16 O84 2.517859 1_565
Na16 O54 2.561805 1_555
Na16 O88 2.610261 1_555
Na16 O12 2.806037 1_555
Na16 O46 2.920981 1_565
Na16 O26 2.927969 1_565
Na17 O127 2.386966 1_555
Na17 O129 2.463954 1_555
Na17 O85 2.513269 1_565
Na17 O55 2.566123 1_555
Na17 O89 2.611221 1_555
Na17 O13 2.793302 1_555
Na17 O27 2.904725 1_565
Na17 O47 2.907264 1_565
Na18 O124 2.386246 1_555
Na18 O122 2.470137 1_555
Na18 O94 2.522962 1_565
Na18 O52 2.524033 1_554
Na18 O91 2.626330 1_455
Na18 O22 2.785739 1_555
Na18 O36 2.890925 1_565
Na18 O32 2.902527 1_565
Na19 O125 2.401347 1_555
Na19 O123 2.464870 1_555
Na19 O95 2.511916 1_565
Na19 O53 2.534014 1_554
Na19 O90 2.605541 1_555
Na19 O23 2.798958 1_555
Na19 O37 2.900562 1_565
Na19 O33 2.922709 1_565
Na20 O120 2.394353 1_555
Na20 O124 2.463117 1_555
Na20 O90 2.509756 1_555
Na20 O48 2.589348 1_554
Na20 O92 2.598937 1_565
Na20 O18 2.790697 1_555
Na20 O38 2.915767 1_555
Na20 O34 2.921677 1_555
Na21 O121 2.378369 1_555
Na21 O125 2.461390 1_555
Na21 O91 2.518245 1_555
Na21 O49 2.576239 1_554
Na21 O93 2.610813 1_565
Na21 O19 2.799225 1_555
Na21 O35 2.900870 1_555
Na21 O39 2.906673 1_555
Na22 O122 2.388177 1_555
Na22 O120 2.474179 1_555
Na22 O93 2.520010 1_455
Na22 O50 2.523498 1_554
Na22 O94 2.619174 1_555
Na22 O20 2.797105 1_555
Na22 O41 2.912049 1_455
Na22 O31 2.923377 1_455
Na23 O123 2.397245 1_555
Na23 O121 2.480881 1_555
Na23 O92 2.509196 1_555
Na23 O51 2.540001 1_554
Na23 O95 2.614665 1_555
Na23 O21 2.802865 1_555
Na23 O30 2.914669 1_555
Na23 O40 2.918945 1_555
Na24 O112 2.381843 1_555
Na24 O82 2.417409 1_545
Na24 O110 2.509717 1_555
Na24 O79 2.511136 1_555
Na24 O40 2.664623 1_556
Na24 O10 2.765971 1_555
Na24 O48 2.838664 1_545
Na24 O68 2.939751 1_545
Na25 O113 2.381049 1_555
Na25 O83 2.418282 1_545
Na25 O111 2.510783 1_555
Na25 O78 2.512204 1_655
Na25 O41 2.660643 1_556
Na25 O11 2.766459 1_555
Na25 O49 2.839256 1_545
Na25 O69 2.935804 1_545
Na26 O77 2.396756 1_555
Na26 O74 2.468957 1_545
Na26 O118 2.507311 1_555
Na26 O114 2.540200 1_555
Na26 O4 2.588678 1_555
Na26 O46 2.779393 1_555
Na26 O57 2.922985 1_555
Na26 O61 2.942549 1_555
Na27 O73 2.388645 1_545
Na27 O77 2.457741 1_555
Na27 O115 2.482627 1_555
Na27 O1 2.582607 1_555
Na27 O117 2.587523 1_555
Na27 O43 2.785852 1_555
Na27 O59 2.908741 1_545
Na27 O63 2.963906 1_545
Na28 O74 2.385067 1_555
Na28 O73 2.461373 1_555
Na28 O116 2.472308 1_555
Na28 O2 2.588642 1_555
Na28 O118 2.601501 1_555
Na28 O44 2.778946 1_555
Na28 O54 2.898801 1_555
Na28 O64 2.967180 1_555
Na29 O75 2.417202 1_555
Na29 O117 2.420205 1_555
Na29 O72 2.510682 1_655
Na29 O119 2.531282 1_555
Na29 O45 2.705525 1_555
Na29 O3 2.734767 1_555
Na29 O55 2.862482 1_555
Na29 O65 2.887634 1_555
Na30 O76 2.492766 1_555
Na30 O72 2.551883 1_545
Na30 O75 2.567743 1_445
Na30 O86 2.577340 1_555
Na30 O85 2.581677 1_455
Na30 O89 2.634083 1_445
Na31 O73 2.433399 1_555
Na31 O77 2.433840 1_565
Na31 O74 2.437780 1_555
Na31 O84 2.659466 1_565
Na31 O88 2.659624 1_555
Na31 O87 2.670728 1_565
Na32 O80 2.507201 1_555
Na32 O78 2.566570 1_565
Na32 O94 2.570008 1_566
Na32 O91 2.577780 1_456
Na32 O83 2.592870 1_455
Na32 O93 2.625746 1_466
Na33 O81 2.523002 1_555
Na33 O95 2.553237 1_566
Na33 O90 2.553841 1_556
Na33 O79 2.580405 1_565
Na33 O82 2.607105 1_555
Na33 O92 2.610619 1_566
Na34 O100 2.493443 1_555
Na34 O98 2.502639 1_555
Na34 O108 2.525308 1_555
Na34 O96 2.543363 1_555
Na34 O110 2.577733 1_555
Na34 O112 2.584764 1_555
Na35 O101 2.493288 1_555
Na35 O99 2.501634 1_555
Na35 O109 2.527035 1_555
Na35 O97 2.543441 1_555
Na35 O111 2.579525 1_555
Na35 O113 2.586991 1_555
Na36 O106 2.437222 1_555
Na36 O104 2.480495 1_555
Na36 O102 2.490139 1_555
Na36 O114 2.603301 1_555
Na36 O116 2.620597 1_555
Na36 O118 2.636632 1_555
Na37 O105 2.432184 1_555
Na37 O103 2.476655 1_555
Na37 O107 2.486550 1_555
Na37 O115 2.599976 1_555
Na37 O119 2.613455 1_555
Na37 O117 2.635951 1_555
Na38 O124 2.432460 1_555
Na38 O122 2.445099 1_555
Na38 O120 2.446874 1_555
Na38 O132 2.635585 1_555
Na38 O134 2.637429 1_555
Na38 O136 2.648605 1_555
Na39 O123 2.431473 1_555
Na39 O125 2.436074 1_555
Na39 O121 2.448081 1_555
Na39 O137 2.647162 1_555
Na39 O133 2.650179 1_555
Na39 O135 2.655933 1_555
Na40 O128 2.439571 1_555
Na40 O130 2.442076 1_555
Na40 O126 2.444393 1_555
Na40 O142 2.625295 1_555
Na40 O138 2.627905 1_555
Na40 O140 2.636919 1_555
Na41 O129 2.449100 1_555
Na41 O131 2.452944 1_555
Na41 O127 2.458746 1_555
Na41 O143 2.622991 1_555
Na41 O139 2.625914 1_555
Na41 O141 2.630529 1_555
Nb0 O0 1.950981 1_555
Nb0 O5 1.963207 1_455
Nb0 O76 1.981869 1_555
Nb0 O3 2.022464 1_445
Nb0 O72 2.031441 1_545
Nb0 O75 2.045437 1_445
Nb1 O6 1.967296 1_555
Nb1 O9 1.973622 1_445
Nb1 O80 1.977213 1_545
Nb1 O78 2.018579 1_555
Nb1 O83 2.024229 1_445
Nb1 O11 2.032648 1_455
Nb2 O7 1.969205 1_555
Nb2 O8 1.973020 1_545
Nb2 O81 1.978451 1_545
Nb2 O79 2.018273 1_555
Nb2 O82 2.023771 1_545
Nb2 O10 2.031650 1_555
Nb3 O16 1.974325 1_655
Nb3 O13 1.975629 1_555
Nb3 O14 1.976817 1_665
Nb3 O89 2.033435 1_555
Nb3 O86 2.033957 1_665
Nb3 O85 2.040298 1_565
Nb4 O12 1.980627 1_555
Nb4 O17 1.982278 1_555
Nb4 O15 1.983566 1_565
Nb4 O88 2.025275 1_555
Nb4 O87 2.031937 1_565
Nb4 O84 2.032958 1_565
Nb5 O20 1.978623 1_655
Nb5 O19 1.981406 1_545
Nb5 O22 1.984852 1_645
Nb5 O93 2.024827 1_555
Nb5 O94 2.028769 1_655
Nb5 O91 2.033877 1_545
Nb6 O18 1.970016 1_545
Nb6 O21 1.970379 1_555
Nb6 O23 1.976589 1_545
Nb6 O92 2.046093 1_555
Nb6 O95 2.050101 1_555
Nb6 O90 2.053106 1_545
Nb7 O38 1.954614 1_556
Nb7 O36 1.962694 1_556
Nb7 O108 2.006188 1_555
Nb7 O40 2.019664 1_556
Nb7 O110 2.047478 1_555
Nb7 O112 2.067820 1_555
Nb8 O39 1.958858 1_556
Nb8 O37 1.959389 1_556
Nb8 O109 2.003622 1_555
Nb8 O41 2.024921 1_556
Nb8 O111 2.047864 1_555
Nb8 O113 2.064252 1_555
Nb9 O42 1.943743 1_555
Nb9 O44 2.002269 1_555
Nb9 O46 2.004306 1_555
Nb9 O114 2.009838 1_555
Nb9 O116 2.027432 1_555
Nb9 O118 2.071263 1_555
Nb10 O47 1.939963 1_555
Nb10 O45 1.995507 1_555
Nb10 O43 1.999187 1_555
Nb10 O119 2.012858 1_555
Nb10 O115 2.033093 1_555
Nb10 O117 2.080424 1_555
Nb11 O62 1.937018 1_555
Nb11 O60 1.958777 1_555
Nb11 O64 1.959876 1_555
Nb11 O134 2.053399 1_555
Nb11 O132 2.069701 1_555
Nb11 O136 2.081740 1_555
Nb12 O61 1.951590 1_555
Nb12 O65 1.968210 1_555
Nb12 O63 1.980314 1_555
Nb12 O137 2.038513 1_555
Nb12 O133 2.051986 1_555
Nb12 O135 2.069015 1_555
Nb13 O66 1.938251 1_555
Nb13 O70 1.941558 1_555
Nb13 O68 1.948950 1_555
Nb13 O138 2.078672 1_555
Nb13 O142 2.081026 1_555
Nb13 O140 2.082118 1_555
Nb14 O67 1.934943 1_555
Nb14 O71 1.943907 1_555
Nb14 O69 1.949892 1_555
Nb14 O139 2.077732 1_555
Nb14 O141 2.078866 1_555
Nb14 O143 2.085295 1_555
Ga0 O4 1.952753 1_565
Ga0 O2 1.953267 1_555
Ga0 O1 1.959501 1_565
Ga0 O74 2.073575 1_555
Ga0 O77 2.081527 1_565
Ga0 O73 2.082153 1_555
Ga1 O24 1.946548 1_555
Ga1 O28 1.948725 1_555
Ga1 O26 1.948947 1_555
Ga1 O96 2.094231 1_555
Ga1 O100 2.095756 1_555
Ga1 O98 2.095830 1_555
Ga2 O25 1.946821 1_555
Ga2 O27 1.948656 1_555
Ga2 O29 1.951157 1_555
Ga2 O99 2.091290 1_555
Ga2 O97 2.092125 1_555
Ga2 O101 2.096614 1_555
Ga3 O30 1.939142 1_555
Ga3 O32 1.953038 1_555
Ga3 O34 1.956627 1_555
Ga3 O102 2.085303 1_555
Ga3 O104 2.086991 1_555
Ga3 O106 2.112185 1_555
Ga4 O33 1.943328 1_555
Ga4 O35 1.943737 1_555
Ga4 O31 1.953019 1_555
Ga4 O107 2.074410 1_555
Ga4 O103 2.108149 1_555
Ga4 O105 2.121367 1_555
Ga5 O50 1.950576 1_554
Ga5 O52 1.954296 1_554
Ga5 O48 1.970091 1_554
Ga5 O120 2.074254 1_555
Ga5 O122 2.075851 1_555
Ga5 O124 2.080373 1_555
Ga6 O51 1.947475 1_554
Ga6 O53 1.953577 1_554
Ga6 O49 1.973909 1_554
Ga6 O123 2.065508 1_555
Ga6 O121 2.070705 1_555
Ga6 O125 2.084851 1_555
Ga7 O54 1.947627 1_555
Ga7 O58 1.949660 1_555
Ga7 O56 1.951082 1_555
Ga7 O126 2.080296 1_555
Ga7 O130 2.085120 1_555
Ga7 O128 2.096884 1_555
Ga8 O57 1.950940 1_555
Ga8 O59 1.952014 1_555
Ga8 O55 1.969400 1_555
Ga8 O131 2.069536 1_555
Ga8 O127 2.078293 1_555
Ga8 O129 2.086801 1_555
O0 Si0 1.645654 1_555
O1 Si1 1.607687 1_555
O2 Si2 1.608182 1_555
O3 Si3 1.640593 1_555
O4 Si5 1.607543 1_555
O5 Si4 1.644007 1_555
O6 Si6 1.638077 1_555
O7 Si7 1.637248 1_555
O8 Si9 1.637886 1_555
O9 Si8 1.637682 1_555
O10 Si10 1.635880 1_555
O11 Si11 1.634314 1_555
O12 Si10 1.661184 1_565
O13 Si11 1.663343 1_565
O14 Si6 1.660842 1_555
O15 Si7 1.657832 1_555
O16 Si8 1.663201 1_455
O17 Si9 1.660333 1_555
O18 Si2 1.672908 1_555
O19 Si3 1.657935 1_555
O20 Si4 1.658094 1_455
O21 Si5 1.672609 1_555
O22 Si0 1.657164 1_565
O23 Si1 1.670814 1_565
O24 Si12 1.614467 1_555
O25 Si13 1.613689 1_555
O26 Si14 1.614609 1_555
O27 Si15 1.614787 1_555
O28 Si16 1.615879 1_555
O29 Si17 1.613020 1_555
O30 Si18 1.612913 1_555
O31 Si19 1.616906 1_555
O32 Si20 1.617186 1_555
O33 Si21 1.614444 1_555
O34 Si22 1.613786 1_555
O35 Si23 1.618432 1_555
O36 Si22 1.658263 1_555
O37 Si23 1.660377 1_555
O38 Si18 1.661609 1_555
O39 Si19 1.659756 1_555
O40 Si20 1.658762 1_555
O41 Si21 1.655079 1_555
O42 Si14 1.662924 1_555
O43 Si15 1.663111 1_555
O44 Si16 1.661459 1_555
O45 Si17 1.663022 1_555
O46 Si12 1.659211 1_555
O47 Si13 1.669071 1_555
O48 Si24 1.599743 1_555
O49 Si25 1.599736 1_555
O50 Si26 1.586377 1_555
O51 Si27 1.585725 1_555
O52 Si28 1.588940 1_555
O53 Si29 1.588385 1_555
O54 Si30 1.607433 1_555
O55 Si31 1.603616 1_555
O56 Si32 1.589175 1_555
O57 Si33 1.609967 1_555
O58 Si34 1.585815 1_555
O59 Si35 1.611752 1_555
O60 Si34 1.658204 1_555
O61 Si35 1.681054 1_555
O62 Si30 1.673752 1_555
O63 Si31 1.663545 1_555
O64 Si32 1.666313 1_555
O65 Si33 1.680236 1_555
O66 Si26 1.669988 1_555
O67 Si27 1.671023 1_555
O68 Si28 1.676394 1_555
O69 Si29 1.677002 1_555
O70 Si24 1.670289 1_555
O71 Si25 1.669004 1_555
O72 Si34 1.657824 1_555
O73 Si35 1.621554 1_555
O74 Si30 1.629592 1_555
O75 Si31 1.643938 1_555
O76 Si32 1.646995 1_555
O77 Si33 1.618850 1_555
O78 Si26 1.661765 1_555
O79 Si27 1.660347 1_555
O80 Si28 1.645752 1_555
O81 Si29 1.644567 1_555
O82 Si24 1.656524 1_555
O83 Si25 1.656846 1_555
O84 Si12 1.676395 1_555
O85 Si13 1.672752 1_555
O86 Si14 1.672240 1_555
O87 Si15 1.673583 1_555
O88 Si16 1.679099 1_555
O89 Si17 1.677671 1_555
O90 Si18 1.672623 1_555
O91 Si19 1.676255 1_555
O92 Si20 1.680293 1_555
O93 Si21 1.684940 1_555
O94 Si22 1.676763 1_555
O95 Si23 1.670499 1_555
O96 Si10 1.610841 1_555
O97 Si11 1.610204 1_555
O98 Si6 1.607255 1_555
O99 Si7 1.609284 1_555
O100 Si9 1.608499 1_555
O101 Si8 1.607866 1_555
O102 Si2 1.620867 1_555
O103 Si3 1.609307 1_555
O104 Si5 1.621104 1_555
O105 Si4 1.607087 1_555
O106 Si0 1.604011 1_555
O107 Si1 1.624074 1_555
O108 Si24 1.635247 1_555
O109 Si25 1.636241 1_555
O110 Si27 1.652983 1_555
O111 Si26 1.653416 1_655
O112 Si28 1.650643 1_545
O113 Si29 1.652128 1_545
O114 Si30 1.661972 1_545
O115 Si31 1.648470 1_545
O116 Si32 1.660087 1_555
O117 Si33 1.665861 1_555
O118 Si35 1.659387 1_555
O119 Si34 1.667684 1_655
O120 Si22 1.623097 1_555
O121 Si23 1.623270 1_555
O122 Si19 1.620865 1_455
O123 Si18 1.622591 1_555
O124 Si20 1.626710 1_565
O125 Si21 1.623160 1_565
O126 Si14 1.619160 1_565
O127 Si15 1.624347 1_565
O128 Si16 1.621650 1_555
O129 Si17 1.624191 1_555
O130 Si13 1.615785 1_455
O131 Si12 1.625849 1_555
O132 Si0 1.649700 1_565
O133 Si1 1.673006 1_565
O134 Si2 1.672933 1_555
O135 Si3 1.652633 1_555
O136 Si4 1.648381 1_455
O137 Si5 1.674058 1_555
O138 Si6 1.651084 1_555
O139 Si7 1.651992 1_555
O140 Si8 1.651204 1_455
O141 Si9 1.653508 1_555
O142 Si10 1.655913 1_565
O143 Si11 1.653911 1_565
