# generated using pymatgen
data_Na4Ta2Si5Sn2SO24
_symmetry_space_group_name_H-M   'P 1'
_cell_length_a   8.95641050
_cell_length_b   8.96461202
_cell_length_c   22.77065994
_cell_angle_alpha   90.21786270
_cell_angle_beta   89.87439449
_cell_angle_gamma   119.93901596
_symmetry_Int_Tables_number   1
_chemical_formula_structural   Na4Ta2Si5Sn2SO24
_chemical_formula_sum   'Na12 Ta6 Si15 Sn6 S3 O72'
_cell_volume   1584.29162490
_cell_formula_units_Z   3
loop_
 _symmetry_equiv_pos_site_id
 _symmetry_equiv_pos_as_xyz
  1  'x, y, z'
loop_
 _atom_site_type_symbol
 _atom_site_label
 _atom_site_symmetry_multiplicity
 _atom_site_fract_x
 _atom_site_fract_y
 _atom_site_fract_z
 _atom_site_occupancy
  Na  Na0  1  0.64026018  0.99941593  0.25038084  1
  Na  Na1  1  0.99399376  0.35982170  0.75014506  1
  Na  Na2  1  0.30009729  0.33709026  0.58080178  1
  Na  Na3  1  0.66678014  0.96695750  0.58057856  1
  Na  Na4  1  0.02509843  0.33104791  0.08405550  1
  Na  Na5  1  0.96127517  0.66398289  0.91565305  1
  Na  Na6  1  0.99878869  0.00025984  0.49420453  1
  Na  Na7  1  0.98392876  0.99380574  0.00124792  1
  Na  Na8  1  0.65737763  0.33086276  0.83351048  1
  Na  Na9  1  0.66035074  0.33676665  0.33391025  1
  Na  Na10  1  0.33127709  0.67454728  0.16650976  1
  Na  Na11  1  0.33225239  0.67467237  0.66465106  1
  Ta  Ta0  1  0.99762622  0.99451403  0.64630623  1
  Ta  Ta1  1  0.66538261  0.33539641  0.68705605  1
  Ta  Ta2  1  0.67579501  0.33213165  0.18959285  1
  Ta  Ta3  1  0.65592729  0.32435575  0.47840949  1
  Ta  Ta4  1  0.34221700  0.66668474  0.31101931  1
  Ta  Ta5  1  0.33651271  0.65544509  0.81008861  1
  Si  Si0  1  0.28562997  0.99990243  0.25028824  1
  Si  Si1  1  0.71539459  0.70791316  0.25162210  1
  Si  Si2  1  0.00847784  0.29266241  0.24829884  1
  Si  Si3  1  0.28889626  0.27964661  0.75046742  1
  Si  Si4  1  0.00148814  0.71302248  0.75198899  1
  Si  Si5  1  0.70447816  0.99821331  0.74877090  1
  Si  Si6  1  0.95652509  0.33856351  0.58275558  1
  Si  Si7  1  0.37515319  0.04089344  0.58350110  1
  Si  Si8  1  0.67137511  0.62179634  0.58202485  1
  Si  Si9  1  0.96106444  0.63193955  0.08286012  1
  Si  Si10  1  0.66463237  0.03899499  0.08293811  1
  Si  Si11  1  0.62373149  0.66451436  0.91806303  1
  Si  Si12  1  0.04644373  0.37274011  0.91746515  1
  Si  Si13  1  0.62794394  0.95602169  0.41702849  1
  Si  Si14  1  0.32980369  0.37263244  0.41719958  1
  Sn  Sn0  1  0.00033668  0.00837025  0.35130871  1
  Sn  Sn1  1  0.98910297  0.00358384  0.85146471  1
  Sn  Sn2  1  0.99013591  0.98773385  0.14980953  1
  Sn  Sn3  1  0.68127712  0.34154581  0.98045981  1
  Sn  Sn4  1  0.33917392  0.67128650  0.02066716  1
  Sn  Sn5  1  0.33577920  0.66409961  0.51903772  1
  S  S0  1  0.37787136  0.33056584  0.08325726  1
  S  S1  1  0.33543782  0.95811622  0.91539166  1
  S  S2  1  0.04254383  0.66571215  0.41684663  1
  O  O0  1  0.21059193  0.03875973  0.30901032  1
  O  O1  1  0.82971656  0.78612364  0.30968849  1
  O  O2  1  0.94700644  0.16557174  0.30422072  1
  O  O3  1  0.20727223  0.16769787  0.80848852  1
  O  O4  1  0.96711108  0.78859342  0.81190167  1
  O  O5  1  0.83061871  0.05275151  0.80509693  1
  O  O6  1  0.79645398  0.96833339  0.69047270  1
  O  O7  1  0.16532869  0.20086016  0.69188850  1
  O  O8  1  0.02928384  0.83707319  0.69473445  1
  O  O9  1  0.77565383  0.83204453  0.19427388  1
  O  O10  1  0.04201481  0.21914865  0.18731513  1
  O  O11  1  0.17286002  0.96205493  0.19111124  1
  O  O12  1  0.86605134  0.36079366  0.64216231  1
  O  O13  1  0.50303620  0.13679449  0.63918648  1
  O  O14  1  0.63745454  0.49746577  0.63889546  1
  O  O15  1  0.85686699  0.49726202  0.13750490  1
  O  O16  1  0.64027831  0.13588985  0.14116736  1
  O  O17  1  0.48643391  0.35510356  0.13562128  1
  O  O18  1  0.45467922  0.30574050  0.02897939  1
  O  O19  1  0.85029252  0.55531816  0.02213211  1
  O  O20  1  0.70011274  0.16278798  0.02558338  1
  O  O21  1  0.46575692  0.16917233  0.52658647  1
  O  O22  1  0.69850294  0.52762457  0.52537403  1
  O  O23  1  0.82673352  0.29956588  0.52712787  1
  O  O24  1  0.54173834  0.70437236  0.97504371  1
  O  O25  1  0.15665589  0.46206546  0.97720062  1
  O  O26  1  0.30128925  0.85158130  0.96954651  1
  O  O27  1  0.54293567  0.84911079  0.47760929  1
  O  O28  1  0.29700789  0.44994865  0.47804459  1
  O  O29  1  0.14646837  0.69402639  0.47097222  1
  O  O30  1  0.12564707  0.63990935  0.36444983  1
  O  O31  1  0.50243094  0.86495253  0.35959124  1
  O  O32  1  0.35527709  0.50115035  0.36174444  1
  O  O33  1  0.13995452  0.50219593  0.85993975  1
  O  O34  1  0.36055703  0.87478198  0.86348411  1
  O  O35  1  0.50144144  0.64462210  0.86021449  1
  O  O36  1  0.02264343  0.81820853  0.41193633  1
  O  O37  1  0.81604877  0.97267452  0.41222424  1
  O  O38  1  0.16562640  0.18020604  0.41223369  1
  O  O39  1  0.03120952  0.18522410  0.91284817  1
  O  O40  1  0.17662921  0.97090847  0.91044817  1
  O  O41  1  0.82147153  0.82678830  0.91165177  1
  O  O42  1  0.97242369  0.16265890  0.59095503  1
  O  O43  1  0.19096600  0.03504527  0.59108234  1
  O  O44  1  0.83787659  0.81530957  0.59016969  1
  O  O45  1  0.98468016  0.82233207  0.08756750  1
  O  O46  1  0.84742545  0.03863725  0.08829582  1
  O  O47  1  0.20404322  0.18060814  0.08769469  1
  O  O48  1  0.69085953  0.17169931  0.73976978  1
  O  O49  1  0.48225614  0.31275938  0.74139334  1
  O  O50  1  0.83696554  0.51854347  0.74145119  1
  O  O51  1  0.68236398  0.51411666  0.23975987  1
  O  O52  1  0.83155820  0.30964748  0.24077845  1
  O  O53  1  0.48439367  0.16571124  0.24047797  1
  O  O54  1  0.63657756  0.48707783  0.92057132  1
  O  O55  1  0.85782062  0.36489655  0.91781086  1
  O  O56  1  0.48934888  0.13013695  0.92138986  1
  O  O57  1  0.64497291  0.14905848  0.42394401  1
  O  O58  1  0.51077511  0.36487965  0.42333113  1
  O  O59  1  0.87114491  0.50689249  0.42247878  1
  O  O60  1  0.36019361  0.48789037  0.08047682  1
  O  O61  1  0.14394165  0.62779781  0.07949023  1
  O  O62  1  0.49158027  0.84993422  0.08040272  1
  O  O63  1  0.36305307  0.85566068  0.57758374  1
  O  O64  1  0.49941804  0.64175420  0.58016109  1
  O  O65  1  0.15023730  0.50275158  0.57862236  1
  O  O66  1  0.31922224  0.83479902  0.25955201  1
  O  O67  1  0.52151248  0.69013897  0.25973777  1
  O  O68  1  0.16885043  0.48625213  0.25939499  1
  O  O69  1  0.30096156  0.47158718  0.75706801  1
  O  O70  1  0.16937706  0.68535666  0.75809749  1
  O  O71  1  0.51515261  0.82924441  0.75781330  1
loop_
_geom_bond_atom_site_label_1
_geom_bond_atom_site_label_2
_geom_bond_distance
_geom_bond_site_symmetry_2
Na0 O67 2.433875 1_555
Na0 O52 2.442270 1_565
Na0 O66 2.500663 1_555
Na0 O53 2.510638 1_565
Na0 O9 2.673714 1_555
Na0 O2 2.680630 1_565
Na0 O31 2.772200 1_555
Na0 O16 2.775648 1_565
Na1 O48 2.387602 1_555
Na1 O69 2.416334 1_655
Na1 O50 2.458167 1_555
Na1 O70 2.537375 1_655
Na1 O5 2.698547 1_555
Na1 O12 2.716900 1_555
Na1 O33 2.813025 1_655
Na1 O7 2.881785 1_655
Na2 O43 2.388304 1_555
Na2 O64 2.404168 1_555
Na2 O65 2.449479 1_555
Na2 O42 2.555516 1_455
Na2 O28 2.558415 1_555
Na2 O7 2.808129 1_555
Na2 O21 2.863323 1_555
Na2 O14 2.934865 1_555
Na3 O63 2.385653 1_555
Na3 O42 2.415243 1_565
Na3 O44 2.515405 1_555
Na3 O64 2.526664 1_555
Na3 O27 2.582023 1_555
Na3 O6 2.758452 1_555
Na3 O23 2.860157 1_565
Na3 O13 2.907677 1_565
Na4 O46 2.291424 1_455
Na4 O61 2.322916 1_555
Na4 O47 2.559930 1_555
Na4 O10 2.594032 1_555
Na4 O60 2.603612 1_555
Na4 O25 2.704791 1_554
Na4 O20 2.852987 1_455
Na4 O15 2.861986 1_455
Na5 O41 2.351995 1_555
Na5 O55 2.360255 1_555
Na5 O40 2.451352 1_655
Na5 O54 2.526112 1_555
Na5 O4 2.606378 1_555
Na5 O19 2.618502 1_556
Na5 O26 2.914937 1_655
Na5 O33 2.927092 1_655
Na6 O37 2.414653 1_545
Na6 O38 2.433856 1_655
Na6 O36 2.557622 1_645
Na6 O44 2.688815 1_545
Na6 O42 2.710211 1_555
Na6 O43 2.720627 1_655
Na7 O46 2.461474 1_565
Na7 O45 2.501955 1_555
Na7 O41 2.517220 1_554
Na7 O39 2.544210 1_664
Na7 O47 2.694870 1_665
Na7 O40 2.762330 1_654
Na8 O54 2.482652 1_555
Na8 O55 2.542580 1_555
Na8 O49 2.577587 1_555
Na8 O56 2.611170 1_555
Na8 O48 2.661422 1_555
Na8 O50 2.668893 1_555
Na9 O58 2.515024 1_555
Na9 O57 2.616723 1_555
Na9 O51 2.621816 1_555
Na9 O53 2.634216 1_555
Na9 O59 2.660255 1_555
Na9 O52 2.694737 1_555
Na10 O62 2.477032 1_555
Na10 O61 2.494699 1_555
Na10 O66 2.587420 1_555
Na10 O68 2.646069 1_555
Na10 O60 2.666502 1_555
Na10 O67 2.684213 1_555
Na11 O63 2.492891 1_555
Na11 O65 2.520610 1_555
Na11 O64 2.540497 1_555
Na11 O70 2.605610 1_555
Na11 O71 2.613601 1_555
Na11 O69 2.709022 1_555
O0 Si0 1.608466 1_545
O0 Sn0 2.007500 1_555
O1 Si1 1.603289 1_555
O1 Sn0 2.038596 1_665
O2 Si2 1.613849 1_655
O2 Sn0 2.012317 1_655
O3 Si3 1.600205 1_555
O3 Sn1 2.018264 1_455
O4 Si4 1.616871 1_655
O4 Sn1 2.042924 1_565
O5 Si5 1.615756 1_545
O5 Sn1 1.989595 1_555
O6 Si5 1.650857 1_555
O6 Ta0 1.970960 1_555
O7 Si3 1.649848 1_555
O7 Ta0 1.993510 1_445
O8 Si4 1.652764 1_555
O8 Ta0 1.923832 1_455
O9 Si1 1.625833 1_555
O9 Sn2 1.997332 1_555
O10 Si2 1.625315 1_555
O10 Sn2 2.067632 1_445
O11 Si0 1.615994 1_555
O11 Sn2 2.000053 1_455
O12 Si6 1.637236 1_555
O12 Ta1 1.977956 1_555
O13 Si7 1.635235 1_555
O13 Ta1 1.969866 1_555
O14 Si8 1.637930 1_555
O14 Ta1 1.937049 1_555
O15 Si9 1.660886 1_555
O15 Ta2 1.958790 1_555
O16 Si10 1.655065 1_555
O16 Ta2 1.959641 1_555
O17 S0 1.484972 1_555
O17 Ta2 2.188346 1_555
O18 S0 1.482335 1_555
O18 Sn3 2.187506 1_554
O19 Si9 1.639167 1_555
O19 Sn3 1.990304 1_554
O20 Si10 1.641764 1_555
O20 Sn3 1.983763 1_554
O21 Si7 1.654017 1_555
O21 Ta3 1.917843 1_555
O22 Si8 1.621990 1_555
O22 Ta3 1.975589 1_555
O23 Si6 1.635685 1_555
O23 Ta3 1.992241 1_555
O24 Si11 1.613892 1_555
O24 Sn4 1.978813 1_556
O25 Si12 1.635363 1_555
O25 Sn4 2.025417 1_556
O26 S1 1.497342 1_555
O26 Sn4 2.155442 1_556
O27 Si13 1.636537 1_555
O27 Sn5 2.003946 1_555
O28 Si14 1.637182 1_555
O28 Sn5 1.999957 1_555
O29 S2 1.488833 1_555
O29 Sn5 2.146895 1_555
O30 S2 1.482183 1_555
O30 Ta4 2.197132 1_555
O31 Si13 1.650163 1_555
O31 Ta4 1.971728 1_555
O32 Si14 1.649662 1_555
O32 Ta4 1.933083 1_555
O33 Si12 1.673514 1_555
O33 Ta5 1.965743 1_555
O34 S1 1.471613 1_555
O34 Ta5 2.225129 1_555
O35 Si11 1.666183 1_555
O35 Ta5 1.909326 1_555
O36 S2 1.468882 1_555
O36 Sn0 2.282747 1_565
O37 Si13 1.618915 1_555
O37 Sn0 2.053506 1_665
O38 Si14 1.618046 1_555
O38 Sn0 2.050766 1_555
O39 Si12 1.620258 1_555
O39 Sn1 2.029638 1_455
O40 S1 1.487457 1_555
O40 Sn1 2.283546 1_465
O41 Si11 1.644073 1_555
O41 Sn1 2.068010 1_565
O42 Si6 1.663817 1_555
O42 Ta0 2.065659 1_545
O43 Si7 1.632914 1_555
O43 Ta0 2.019341 1_445
O44 Si8 1.638359 1_555
O44 Ta0 1.989983 1_555
O45 Si9 1.614851 1_555
O45 Sn2 2.030195 1_555
O46 Si10 1.643575 1_555
O46 Sn2 2.097343 1_545
O47 S0 1.467148 1_555
O47 Sn2 2.315342 1_445
O48 Si5 1.633256 1_545
O48 Ta1 1.998795 1_555
O49 Si3 1.617327 1_555
O49 Ta1 1.980651 1_555
O50 Si4 1.643936 1_655
O50 Ta1 2.016399 1_555
O51 Si1 1.631716 1_555
O51 Ta2 1.964753 1_555
O52 Si2 1.674984 1_655
O52 Ta2 1.906548 1_555
O53 Si0 1.669732 1_545
O53 Ta2 1.989641 1_555
O54 Si11 1.652289 1_555
O54 Sn3 2.063809 1_555
O55 Si12 1.655418 1_655
O55 Sn3 2.059385 1_555
O56 S1 1.474563 1_545
O56 Sn3 2.257172 1_555
O57 Si13 1.666516 1_545
O57 Ta3 1.961912 1_555
O58 Si14 1.662829 1_555
O58 Ta3 1.969023 1_555
O59 S2 1.489645 1_655
O59 Ta3 2.207247 1_555
O60 S0 1.497259 1_555
O60 Sn4 2.218177 1_555
O61 Si9 1.658370 1_455
O61 Sn4 2.077711 1_555
O62 Si10 1.629642 1_565
O62 Sn4 2.021833 1_555
O63 Si7 1.614320 1_565
O63 Sn5 2.085961 1_555
O64 Si8 1.637425 1_555
O64 Sn5 2.104622 1_555
O65 Si6 1.623818 1_455
O65 Sn5 2.073731 1_555
O66 Si0 1.665178 1_555
O66 Ta4 2.002863 1_555
O67 Si1 1.672593 1_555
O67 Ta4 1.908698 1_555
O68 Si2 1.627543 1_555
O68 Ta4 1.973775 1_555
O69 Si3 1.675557 1_555
O69 Ta5 1.933472 1_555
O70 Si4 1.647830 1_555
O70 Ta5 2.031037 1_555
O71 Si5 1.627643 1_555
O71 Ta5 1.980367 1_555
