# generated using pymatgen
data_Mg(MoS2)2
_symmetry_space_group_name_H-M   'P 1'
_cell_length_a   4.70709502
_cell_length_b   3.61136792
_cell_length_c   12.41450023
_cell_angle_alpha   90.00000000
_cell_angle_beta   90.00000000
_cell_angle_gamma   130.67029569
_symmetry_Int_Tables_number   1
_chemical_formula_structural   Mg(MoS2)2
_chemical_formula_sum   'Mg1 Mo2 S4'
_cell_volume   160.06400196
_cell_formula_units_Z   1
loop_
 _symmetry_equiv_pos_site_id
 _symmetry_equiv_pos_as_xyz
  1  'x, y, z'
loop_
 _atom_site_type_symbol
 _atom_site_label
 _atom_site_symmetry_multiplicity
 _atom_site_fract_x
 _atom_site_fract_y
 _atom_site_fract_z
 _atom_site_occupancy
  Mg  Mg0  1  0.48025485  0.96050871  0.75000000  1
  Mo  Mo0  1  0.99863117  0.99726333  0.25000000  1
  Mo  Mo1  1  0.99546324  0.99092547  0.75000000  1
  S  S0  1  0.33287104  0.66574108  0.36540075  1
  S  S1  1  0.76328783  0.52657666  0.60094340  1
  S  S2  1  0.76328783  0.52657666  0.89905660  1
  S  S3  1  0.33287104  0.66574108  0.13459925  1
loop_
_geom_bond_atom_site_label_1
_geom_bond_atom_site_label_2
_geom_bond_distance
_geom_bond_site_symmetry_2
Mg0 Mo1 2.355022 1_455
Mg0 Mo1 2.355022 1_555
Mg0 S1 2.414199 1_565
Mg0 S2 2.414199 1_565
Mg0 Mo1 2.655807 1_445
Mo0 S3 2.324905 1_665
Mo0 S0 2.324905 1_665
Mo0 S3 2.901075 1_555
Mo0 S0 2.901075 1_555
Mo0 S0 2.901083 1_655
Mo0 S3 2.901083 1_655
Mo1 S2 2.245432 1_555
Mo1 S1 2.245432 1_555
