# generated using pymatgen
data_Li3Mo2(PO4)3
_symmetry_space_group_name_H-M   'P 1'
_cell_length_a   8.94618800
_cell_length_b   8.96234800
_cell_length_c   15.40031597
_cell_angle_alpha   54.54295933
_cell_angle_beta   90.00000000
_cell_angle_gamma   90.00000000
_symmetry_Int_Tables_number   1
_chemical_formula_structural   Li3Mo2(PO4)3
_chemical_formula_sum   'Li12 Mo8 P12 O48'
_cell_volume   1005.79059647
_cell_formula_units_Z   4
loop_
 _symmetry_equiv_pos_site_id
 _symmetry_equiv_pos_as_xyz
  1  'x, y, z'
loop_
 _atom_site_type_symbol
 _atom_site_label
 _atom_site_symmetry_multiplicity
 _atom_site_fract_x
 _atom_site_fract_y
 _atom_site_fract_z
 _atom_site_occupancy
  Li  Li0  1  0.29622800  0.69119200  0.24378900  1
  Li  Li1  1  0.90221000  0.60680700  0.30677200  1
  Li  Li2  1  0.23119500  0.97347000  0.82201200  1
  Li  Li3  1  0.73119500  0.02653000  0.67798800  1
  Li  Li4  1  0.40221000  0.39319300  0.19322800  1
  Li  Li5  1  0.79622800  0.30880800  0.25621100  1
  Li  Li6  1  0.20377200  0.69119200  0.74378900  1
  Li  Li7  1  0.59779000  0.60680700  0.80677200  1
  Li  Li8  1  0.26880500  0.97347000  0.32201200  1
  Li  Li9  1  0.76880500  0.02653000  0.17798800  1
  Li  Li10  1  0.09779000  0.39319300  0.69322800  1
  Li  Li11  1  0.70377200  0.30880800  0.75621100  1
  Mo  Mo0  1  0.54677900  0.86256000  0.88852900  1
  Mo  Mo1  1  0.96024500  0.63627600  0.11178100  1
  Mo  Mo2  1  0.46024500  0.36372400  0.38821900  1
  Mo  Mo3  1  0.04677900  0.13744000  0.61147100  1
  Mo  Mo4  1  0.95322100  0.86256000  0.38852900  1
  Mo  Mo5  1  0.53975500  0.63627600  0.61178100  1
  Mo  Mo6  1  0.03975500  0.36372400  0.88821900  1
  Mo  Mo7  1  0.45322100  0.13744000  0.11147100  1
  P  P0  1  0.75195300  0.44927400  0.50881500  1
  P  P1  1  0.60876000  0.74640600  0.15140900  1
  P  P2  1  0.90342600  0.04881600  0.84893100  1
  P  P3  1  0.40342600  0.95118400  0.65106900  1
  P  P4  1  0.10876000  0.25359400  0.34859100  1
  P  P5  1  0.25195300  0.55072600  0.99118500  1
  P  P6  1  0.74804700  0.44927400  0.00881500  1
  P  P7  1  0.89124000  0.74640600  0.65140900  1
  P  P8  1  0.59657400  0.04881600  0.34893100  1
  P  P9  1  0.09657400  0.95118400  0.15106900  1
  P  P10  1  0.39124000  0.25359400  0.84859100  1
  P  P11  1  0.24804700  0.55072600  0.49118500  1
  O  O0  1  0.13608800  0.39522100  0.56717200  1
  O  O1  1  0.30578800  0.53151600  0.40292400  1
  O  O2  1  0.41041400  0.10230100  0.82963000  1
  O  O3  1  0.10954400  0.77141300  0.15726100  1
  O  O4  1  0.62906300  0.45918900  0.43723700  1
  O  O5  1  0.76902800  0.66637100  0.19081300  1
  O  O6  1  0.94133200  0.88094500  0.95808300  1
  O  O7  1  0.58941300  0.82053600  0.03506800  1
  O  O8  1  0.74787200  0.03314000  0.80796900  1
  O  O9  1  0.02941600  0.08502300  0.76824800  1
  O  O10  1  0.83026400  0.25964600  0.56759900  1
  O  O11  1  0.48543900  0.59563100  0.21911300  1
  O  O12  1  0.98543900  0.40436900  0.28088700  1
  O  O13  1  0.33026400  0.74035400  0.93240100  1
  O  O14  1  0.52941600  0.91497700  0.73175200  1
  O  O15  1  0.24787200  0.96686000  0.69203100  1
  O  O16  1  0.44133200  0.11905500  0.54191700  1
  O  O17  1  0.08941300  0.17946400  0.46493200  1
  O  O18  1  0.26902800  0.33362900  0.30918700  1
  O  O19  1  0.12906300  0.54081100  0.06276300  1
  O  O20  1  0.91041400  0.89769900  0.67037000  1
  O  O21  1  0.60954400  0.22858700  0.34273900  1
  O  O22  1  0.80578800  0.46848400  0.09707600  1
  O  O23  1  0.63608800  0.60477900  0.93282800  1
  O  O24  1  0.36391200  0.39522100  0.06717200  1
  O  O25  1  0.19421200  0.53151600  0.90292400  1
  O  O26  1  0.39045600  0.77141300  0.65726100  1
  O  O27  1  0.08958600  0.10230100  0.32963000  1
  O  O28  1  0.87093700  0.45918900  0.93723700  1
  O  O29  1  0.73097200  0.66637100  0.69081300  1
  O  O30  1  0.91058700  0.82053600  0.53506800  1
  O  O31  1  0.55866800  0.88094500  0.45808300  1
  O  O32  1  0.75212800  0.03314000  0.30796900  1
  O  O33  1  0.47058400  0.08502300  0.26824800  1
  O  O34  1  0.66973600  0.25964600  0.06759900  1
  O  O35  1  0.01456100  0.59563100  0.71911300  1
  O  O36  1  0.51456100  0.40436900  0.78088700  1
  O  O37  1  0.16973600  0.74035400  0.43240100  1
  O  O38  1  0.97058400  0.91497700  0.23175200  1
  O  O39  1  0.25212800  0.96686000  0.19203100  1
  O  O40  1  0.41058700  0.17946400  0.96493200  1
  O  O41  1  0.05866800  0.11905500  0.04191700  1
  O  O42  1  0.23097200  0.33362900  0.80918700  1
  O  O43  1  0.37093700  0.54081100  0.56276300  1
  O  O44  1  0.89045600  0.22858700  0.84273900  1
  O  O45  1  0.58958600  0.89769900  0.17037000  1
  O  O46  1  0.69421200  0.46848400  0.59707600  1
  O  O47  1  0.86391200  0.60477900  0.43282800  1
loop_
_geom_bond_atom_site_label_1
_geom_bond_atom_site_label_2
_geom_bond_distance
_geom_bond_site_symmetry_2
Li0 O3 1.992576 1_555
Li0 O1 1.998097 1_555
Li0 O11 2.029979 1_555
Li0 O39 2.147151 1_555
Li1 O5 1.946189 1_555
Li1 O47 1.960979 1_555
Li1 O12 2.200950 1_555
Li1 O38 2.373839 1_555
Li2 O13 1.979869 1_555
Li2 O9 1.995817 1_565
Li2 O2 2.018600 1_565
Li2 O15 2.042143 1_555
Li3 O10 1.979869 1_555
Li3 O14 1.995817 1_545
Li3 O20 2.018600 1_545
Li3 O8 2.042143 1_555
Li4 O18 1.946189 1_555
Li4 O24 1.960979 1_555
Li4 O11 2.200950 1_555
Li4 O33 2.373839 1_555
Li5 O21 1.992576 1_555
Li5 O22 1.998097 1_555
Li5 O12 2.029979 1_555
Li5 O32 2.147151 1_555
Li6 O26 1.992576 1_555
Li6 O25 1.998097 1_555
Li6 O35 2.029979 1_555
Li6 O15 2.147151 1_555
Li7 O29 1.946189 1_555
Li7 O23 1.960979 1_555
Li7 O36 2.200950 1_555
Li7 O14 2.373839 1_555
Li8 O37 1.979869 1_555
Li8 O33 1.995817 1_565
Li8 O27 2.018600 1_565
Li8 O39 2.042143 1_555
Li9 O34 1.979869 1_555
Li9 O38 1.995817 1_545
Li9 O45 2.018600 1_545
Li9 O32 2.042143 1_555
Li10 O42 1.946189 1_555
Li10 O0 1.960979 1_555
Li10 O35 2.200950 1_555
Li10 O9 2.373839 1_555
Li11 O44 1.992576 1_555
Li11 O46 1.998097 1_555
Li11 O36 2.029979 1_555
Li11 O8 2.147151 1_555
Mo0 O7 2.096215 1_556
Mo0 O13 2.132942 1_555
Mo0 O23 2.147733 1_555
Mo0 O2 2.160220 1_565
Mo0 O14 2.181351 1_555
Mo0 O8 2.216386 1_565
Mo1 O19 2.081388 1_655
Mo1 O6 2.101886 1_554
Mo1 O22 2.148770 1_555
Mo1 O3 2.173844 1_655
Mo1 O5 2.204850 1_555
Mo1 O12 2.207510 1_555
Mo2 O4 2.081388 1_555
Mo2 O16 2.101886 1_555
Mo2 O1 2.148770 1_555
Mo2 O21 2.173844 1_555
Mo2 O18 2.204850 1_555
Mo2 O11 2.207510 1_555
Mo3 O17 2.096215 1_555
Mo3 O10 2.132942 1_455
Mo3 O0 2.147733 1_555
Mo3 O20 2.160220 1_445
Mo3 O9 2.181351 1_555
Mo3 O15 2.216386 1_545
Mo4 O30 2.096215 1_555
Mo4 O37 2.132942 1_655
Mo4 O47 2.147733 1_555
Mo4 O27 2.160220 1_665
Mo4 O38 2.181351 1_555
Mo4 O32 2.216386 1_565
Mo5 O43 2.081388 1_555
Mo5 O31 2.101886 1_555
Mo5 O46 2.148770 1_555
Mo5 O26 2.173844 1_555
Mo5 O29 2.204850 1_555
Mo5 O36 2.207510 1_555
Mo6 O28 2.081388 1_455
Mo6 O41 2.101886 1_556
Mo6 O25 2.148770 1_555
Mo6 O44 2.173844 1_455
Mo6 O42 2.204850 1_555
Mo6 O35 2.207510 1_555
Mo7 O40 2.096215 1_554
Mo7 O34 2.132942 1_555
Mo7 O24 2.147733 1_555
Mo7 O45 2.160220 1_545
Mo7 O33 2.181351 1_555
Mo7 O39 2.216386 1_545
O0 P11 1.556545 1_555
O1 P11 1.554199 1_555
O2 P10 1.553265 1_555
O3 P9 1.562106 1_555
O4 P0 1.522512 1_555
O5 P1 1.559970 1_555
O6 P2 1.506677 1_565
O7 P1 1.516729 1_555
O8 P2 1.567514 1_555
O9 P2 1.565837 1_455
O10 P0 1.553611 1_555
O11 P1 1.579772 1_555
O12 P4 1.579772 1_655
O13 P5 1.553611 1_555
O14 P3 1.565837 1_555
O15 P3 1.567514 1_555
O16 P3 1.506677 1_545
O17 P4 1.516729 1_555
O18 P4 1.559970 1_555
O19 P5 1.522512 1_554
O20 P7 1.553265 1_555
O21 P8 1.562106 1_555
O22 P6 1.554199 1_555
O23 P6 1.556545 1_556
O24 P5 1.556545 1_554
O25 P5 1.554199 1_555
O26 P3 1.562106 1_555
O27 P4 1.553265 1_555
O28 P6 1.522512 1_556
O29 P7 1.559970 1_555
O30 P7 1.516729 1_555
O31 P8 1.506677 1_565
O32 P8 1.567514 1_555
O33 P8 1.565837 1_555
O34 P6 1.553611 1_555
O35 P7 1.579772 1_455
O36 P10 1.579772 1_555
O37 P11 1.553611 1_555
O38 P9 1.565837 1_655
O39 P9 1.567514 1_555
O40 P10 1.516729 1_555
O41 P9 1.506677 1_545
O42 P10 1.559970 1_555
O43 P11 1.522512 1_555
O44 P2 1.562106 1_555
O45 P1 1.553265 1_555
O46 P0 1.554199 1_555
O47 P0 1.556545 1_555
