# generated using pymatgen
data_Ca(Fe2O3)2
_symmetry_space_group_name_H-M   'P 1'
_cell_length_a   5.37227754
_cell_length_b   5.37227754
_cell_length_c   15.34596400
_cell_angle_alpha   90.00000000
_cell_angle_beta   90.00000000
_cell_angle_gamma   146.81696450
_symmetry_Int_Tables_number   1
_chemical_formula_structural   Ca(Fe2O3)2
_chemical_formula_sum   'Ca2 Fe8 O12'
_cell_volume   242.40901129
_cell_formula_units_Z   2
loop_
 _symmetry_equiv_pos_site_id
 _symmetry_equiv_pos_as_xyz
  1  'x, y, z'
loop_
 _atom_site_type_symbol
 _atom_site_label
 _atom_site_symmetry_multiplicity
 _atom_site_fract_x
 _atom_site_fract_y
 _atom_site_fract_z
 _atom_site_occupancy
  Ca  Ca0  1  0.34475600  0.65524400  0.75000000  1
  Ca  Ca1  1  0.65524400  0.34475600  0.25000000  1
  Fe  Fe0  1  0.13464900  0.86535100  0.04365200  1
  Fe  Fe1  1  0.86535100  0.13464900  0.95634800  1
  Fe  Fe2  1  0.13464900  0.86535100  0.45634800  1
  Fe  Fe3  1  0.86535100  0.13464900  0.54365200  1
  Fe  Fe4  1  0.59674300  0.40325700  0.63334500  1
  Fe  Fe5  1  0.40325700  0.59674300  0.36665500  1
  Fe  Fe6  1  0.40325700  0.59674300  0.13334500  1
  Fe  Fe7  1  0.59674300  0.40325700  0.86665500  1
  O  O0  1  0.50000000  0.50000000  0.50000000  1
  O  O1  1  0.50000000  0.50000000  0.00000000  1
  O  O2  1  0.96617700  0.03382300  0.84200400  1
  O  O3  1  0.03382300  0.96617700  0.15799600  1
  O  O4  1  0.03382300  0.96617700  0.34200400  1
  O  O5  1  0.96617700  0.03382300  0.65799600  1
  O  O6  1  0.21444300  0.78555700  0.91523000  1
  O  O7  1  0.78555700  0.21444300  0.08477000  1
  O  O8  1  0.78555700  0.21444300  0.41523000  1
  O  O9  1  0.21444300  0.78555700  0.58477000  1
  O  O10  1  0.67741700  0.32258300  0.75000000  1
  O  O11  1  0.32258300  0.67741700  0.25000000  1
loop_
_geom_bond_atom_site_label_1
_geom_bond_atom_site_label_2
_geom_bond_distance
_geom_bond_site_symmetry_2
Ca0 O10 2.307037 1_455
Ca0 O10 2.307037 1_565
Ca0 O5 2.431037 1_455
Ca0 O2 2.431037 1_455
Ca0 O2 2.431037 1_565
Ca0 O5 2.431037 1_565
Ca0 O9 2.868784 1_555
Ca0 O6 2.868784 1_555
Ca1 O11 2.307037 1_655
Ca1 O11 2.307037 1_545
Ca1 O3 2.431037 1_545
Ca1 O4 2.431037 1_545
Ca1 O3 2.431037 1_655
Ca1 O4 2.431037 1_655
Ca1 O7 2.868784 1_555
Ca1 O8 2.868784 1_555
Fe0 O3 2.038860 1_555
Fe0 O6 2.135184 1_554
Fe0 O1 2.173571 1_455
Fe0 O1 2.173571 1_565
Fe0 O7 2.272910 1_565
Fe0 O7 2.272910 1_455
Fe1 O2 2.038860 1_555
Fe1 O7 2.135184 1_556
Fe1 O1 2.173571 1_656
Fe1 O1 2.173571 1_546
Fe1 O6 2.272910 1_655
Fe1 O6 2.272910 1_545
Fe2 O4 2.038860 1_555
Fe2 O9 2.135184 1_555
Fe2 O0 2.173571 1_565
Fe2 O0 2.173571 1_455
Fe2 O8 2.272910 1_565
Fe2 O8 2.272910 1_455
Fe3 O5 2.038860 1_555
Fe3 O8 2.135184 1_555
Fe3 O0 2.173571 1_545
Fe3 O0 2.173571 1_655
Fe3 O9 2.272910 1_655
Fe3 O9 2.272910 1_545
Fe4 O10 1.973537 1_555
Fe4 O5 2.074597 1_565
Fe4 O5 2.074597 1_455
Fe4 O9 2.092326 1_655
Fe4 O9 2.092326 1_545
Fe4 O0 2.275907 1_555
Fe5 O11 1.973537 1_555
Fe5 O4 2.074597 1_655
Fe5 O4 2.074597 1_545
Fe5 O8 2.092326 1_455
Fe5 O8 2.092326 1_565
Fe5 O0 2.275907 1_555
Fe6 O11 1.973537 1_555
Fe6 O3 2.074597 1_655
Fe6 O3 2.074597 1_545
Fe6 O7 2.092326 1_565
Fe6 O7 2.092326 1_455
Fe6 O1 2.275907 1_555
Fe7 O10 1.973537 1_555
Fe7 O2 2.074597 1_565
Fe7 O2 2.074597 1_455
Fe7 O6 2.092326 1_655
Fe7 O6 2.092326 1_545
Fe7 O1 2.275907 1_556
