# generated using pymatgen
data_Cs2UO4
_symmetry_space_group_name_H-M   'P 1'
_cell_length_a   4.39260596
_cell_length_b   4.39260457
_cell_length_c   8.09378613
_cell_angle_alpha   105.74501324
_cell_angle_beta   105.74500990
_cell_angle_gamma   89.99998981
_symmetry_Int_Tables_number   1
_chemical_formula_structural   Cs2UO4
_chemical_formula_sum   'Cs2 U1 O4'
_cell_volume   144.21224791
_cell_formula_units_Z   1
loop_
 _symmetry_equiv_pos_site_id
 _symmetry_equiv_pos_as_xyz
  1  'x, y, z'
loop_
 _atom_site_type_symbol
 _atom_site_label
 _atom_site_symmetry_multiplicity
 _atom_site_fract_x
 _atom_site_fract_y
 _atom_site_fract_z
 _atom_site_occupancy
  Cs  Cs0  1  0.34315269  0.34315269  0.68630639  1
  Cs  Cs1  1  0.65684731  0.65684731  0.31369361  1
  U  U0  1  -0.00000000  -0.00000000  -0.00000000  1
  O  O0  1  0.87080726  0.87080726  0.74161452  1
  O  O1  1  0.12919274  0.12919274  0.25838548  1
  O  O2  1  -0.00000000  0.50000000  -0.00000000  1
  O  O3  1  0.50000000  -0.00000000  -0.00000000  1
loop_
_geom_bond_atom_site_label_1
_geom_bond_atom_site_label_2
_geom_bond_distance
_geom_bond_site_symmetry_2
Cs0 O0 3.133425 1_445
Cs0 O0 3.133428 1_455
Cs0 O0 3.133428 1_545
Cs0 O0 3.133431 1_555
Cs0 O1 3.198315 1_555
Cs0 O3 3.212592 1_556
Cs0 O2 3.212593 1_556
Cs0 O3 3.212595 1_566
Cs0 O2 3.212596 1_656
Cs1 O1 3.133425 1_665
Cs1 O1 3.133428 1_655
Cs1 O1 3.133428 1_565
Cs1 O1 3.133431 1_555
Cs1 O0 3.198315 1_555
Cs1 O3 3.212592 1_565
Cs1 O2 3.212593 1_655
Cs1 O3 3.212595 1_555
Cs1 O2 3.212596 1_555
O0 U0 1.931194 1_666
O1 U0 1.931194 1_555
O2 U0 2.196302 1_565
O2 U0 2.196302 1_555
O3 U0 2.196303 1_555
O3 U0 2.196303 1_655
