# generated using pymatgen
data_MgMn6(O2F)4
_symmetry_space_group_name_H-M   'P 1'
_cell_length_a   7.64567273
_cell_length_b   5.86924688
_cell_length_c   5.64241193
_cell_angle_alpha   74.95389103
_cell_angle_beta   69.70842058
_cell_angle_gamma   69.76642008
_symmetry_Int_Tables_number   1
_chemical_formula_structural   MgMn6(O2F)4
_chemical_formula_sum   'Mg1 Mn6 O8 F4'
_cell_volume   220.00717474
_cell_formula_units_Z   1
loop_
 _symmetry_equiv_pos_site_id
 _symmetry_equiv_pos_as_xyz
  1  'x, y, z'
loop_
 _atom_site_type_symbol
 _atom_site_label
 _atom_site_symmetry_multiplicity
 _atom_site_fract_x
 _atom_site_fract_y
 _atom_site_fract_z
 _atom_site_occupancy
  Mg  Mg0  1  0.33674600  0.16355700  0.66351200  1
  Mn  Mn0  1  0.83677000  0.66353400  0.66359300  1
  Mn  Mn1  1  0.69786800  0.38604400  0.28262300  1
  Mn  Mn2  1  0.33677100  0.66349300  0.66361900  1
  Mn  Mn3  1  0.14488400  0.30780200  0.28804200  1
  Mn  Mn4  1  0.52855600  0.01930000  0.03905000  1
  Mn  Mn5  1  0.97564000  0.94103900  0.04437100  1
  O  O0  1  0.32963000  0.33504900  0.94301900  1
  O  O1  1  0.62991900  0.56214500  0.56740200  1
  O  O2  1  0.95632300  0.16506400  0.26089000  1
  O  O3  1  0.71727000  0.16205500  0.06591000  1
  O  O4  1  0.04352000  0.76483300  0.75975200  1
  O  O5  1  0.34379400  0.99208900  0.38411300  1
  O  O6  1  0.68151900  0.68799900  0.02125800  1
  O  O7  1  0.99195400  0.63908900  0.30585700  1
  F  F0  1  0.61960000  0.04235900  0.64281700  1
  F  F1  1  0.28838100  0.88602200  0.93359700  1
  F  F2  1  0.38514400  0.44116400  0.39356200  1
  F  F3  1  0.05385800  0.28450600  0.68415700  1
loop_
_geom_bond_atom_site_label_1
_geom_bond_atom_site_label_2
_geom_bond_distance
_geom_bond_site_symmetry_2
Mg0 O5 2.056287 1_545
Mg0 O0 2.056710 1_555
Mn0 O6 1.968083 1_556
Mn0 O7 1.968289 1_555
Mn0 O4 2.135192 1_655
Mn0 O1 2.136329 1_555
Mn1 O2 1.934883 1_555
Mn1 O3 1.954333 1_555
Mn1 O1 1.957545 1_555
Mn1 O6 1.987206 1_555
Mn2 O1 2.018309 1_555
Mn2 O4 2.019050 1_555
Mn2 O0 2.153987 1_555
Mn2 O5 2.154844 1_555
Mn3 O7 1.898776 1_455
Mn3 O2 1.964434 1_455
Mn3 O0 1.974331 1_554
Mn3 O5 2.035026 1_545
Mn4 O6 1.898892 1_545
Mn4 O3 1.964837 1_555
Mn4 O5 1.974526 1_545
Mn4 O0 2.035148 1_554
Mn5 O3 1.934583 1_565
Mn5 O2 1.953899 1_565
Mn5 O4 1.957270 1_654
Mn5 O7 1.987546 1_555
F0 Mg0 2.000105 1_555
F0 Mn4 2.080844 1_556
F0 Mn0 2.271646 1_545
F0 Mn1 2.533868 1_555
F1 Mg0 1.962001 1_565
F1 Mn2 2.114493 1_555
F1 Mn5 2.178645 1_456
F1 Mn4 2.516146 1_566
F2 Mg0 1.961969 1_555
F2 Mn2 2.114022 1_555
F2 Mn1 2.178376 1_555
F2 Mn3 2.517268 1_555
F3 Mg0 2.000417 1_555
F3 Mn3 2.080083 1_555
F3 Mn0 2.272178 1_455
F3 Mn5 2.532980 1_446
