# generated using pymatgen
data_Na4Ca2La2SiS5O24
_symmetry_space_group_name_H-M   'P 1'
_cell_length_a   9.47087986
_cell_length_b   9.42593250
_cell_length_c   24.56464985
_cell_angle_alpha   90.22679396
_cell_angle_beta   89.45236302
_cell_angle_gamma   119.81566876
_symmetry_Int_Tables_number   1
_chemical_formula_structural   Na4Ca2La2SiS5O24
_chemical_formula_sum   'Na12 Ca6 La6 Si3 S15 O72'
_cell_volume   1902.56510620
_cell_formula_units_Z   3
loop_
 _symmetry_equiv_pos_site_id
 _symmetry_equiv_pos_as_xyz
  1  'x, y, z'
loop_
 _atom_site_type_symbol
 _atom_site_label
 _atom_site_symmetry_multiplicity
 _atom_site_fract_x
 _atom_site_fract_y
 _atom_site_fract_z
 _atom_site_occupancy
  Na  Na0  1  0.99291848  0.62990912  0.23607923  1
  Na  Na1  1  0.98160151  0.33982138  0.76295086  1
  Na  Na2  1  0.37563565  0.99639745  0.75413017  1
  Na  Na3  1  0.65271049  0.97623665  0.59282169  1
  Na  Na4  1  0.68106799  0.67791681  0.07423680  1
  Na  Na5  1  0.33877842  0.03598314  0.42318092  1
  Na  Na6  1  0.02593244  0.00357273  0.50268662  1
  Na  Na7  1  0.01550451  0.98652604  0.00605621  1
  Na  Na8  1  0.66530307  0.32659290  0.84698817  1
  Na  Na9  1  0.66638650  0.33362120  0.32820085  1
  Na  Na10  1  0.30877131  0.66223055  0.16149823  1
  Na  Na11  1  0.36811042  0.69963769  0.67188167  1
  Ca  Ca0  1  0.99293205  0.00554931  0.34749544  1
  Ca  Ca1  1  0.67028084  0.32943799  0.18068429  1
  Ca  Ca2  1  0.68217323  0.34096011  0.98744287  1
  Ca  Ca3  1  0.66259153  0.33413538  0.48266042  1
  Ca  Ca4  1  0.34010919  0.66081872  0.31746667  1
  Ca  Ca5  1  0.35627906  0.67880158  0.82067240  1
  La  La0  1  0.97320907  0.98849135  0.85224929  1
  La  La1  1  0.00337617  0.99240247  0.64855218  1
  La  La2  1  0.00869155  0.00629806  0.15092743  1
  La  La3  1  0.65438230  0.32647532  0.67852341  1
  La  La4  1  0.30857026  0.66936275  0.01910999  1
  La  La5  1  0.32512094  0.66514479  0.51366986  1
  Si  Si0  1  0.69307532  0.00105900  0.74355882  1
  Si  Si1  1  0.35960434  0.02363397  0.57848117  1
  Si  Si2  1  0.96130639  0.63584175  0.09067377  1
  S  S0  1  0.30249609  0.99510469  0.25624930  1
  S  S1  1  0.70015457  0.69567005  0.25095527  1
  S  S2  1  0.99839606  0.31218315  0.25301638  1
  S  S3  1  0.29451940  0.30286241  0.75251702  1
  S  S4  1  0.01115533  0.69090827  0.75249954  1
  S  S5  1  0.96286560  0.32926349  0.58178252  1
  S  S6  1  0.66806259  0.64242104  0.57985728  1
  S  S7  1  0.66648294  0.02904697  0.08285994  1
  S  S8  1  0.37782833  0.33854190  0.08267430  1
  S  S9  1  0.62914222  0.65281471  0.92071257  1
  S  S10  1  0.02603844  0.36856469  0.91167580  1
  S  S11  1  0.34004996  0.98193013  0.91220644  1
  S  S12  1  0.63417782  0.97087081  0.41587854  1
  S  S13  1  0.33304866  0.35403413  0.41424764  1
  S  S14  1  0.03039729  0.67296192  0.41108979  1
  O  O0  1  0.22402577  0.01255184  0.30645468  1
  O  O1  1  0.80771782  0.79098163  0.29658045  1
  O  O2  1  0.99247773  0.21652313  0.30101895  1
  O  O3  1  0.21231406  0.19347396  0.79966710  1
  O  O4  1  0.99482302  0.77639493  0.80084669  1
  O  O5  1  0.82222585  0.02543271  0.79292511  1
  O  O6  1  0.77433179  0.99337283  0.68457212  1
  O  O7  1  0.20267666  0.22421265  0.70184752  1
  O  O8  1  0.03170432  0.79010239  0.70288495  1
  O  O9  1  0.77314274  0.78621989  0.19871402  1
  O  O10  1  0.01104310  0.23225610  0.20213905  1
  O  O11  1  0.19842192  0.97908522  0.20787256  1
  O  O12  1  0.89526743  0.34624749  0.63508534  1
  O  O13  1  0.46145752  0.11320258  0.63566272  1
  O  O14  1  0.66755931  0.56271279  0.63199248  1
  O  O15  1  0.88809804  0.55234371  0.14964670  1
  O  O16  1  0.65083834  0.10742685  0.13276076  1
  O  O17  1  0.46619999  0.34102215  0.13222248  1
  O  O18  1  0.45491853  0.32029235  0.03290015  1
  O  O19  1  0.84305059  0.53843056  0.04009823  1
  O  O20  1  0.67006467  0.11749148  0.03334010  1
  O  O21  1  0.45352442  0.12476311  0.52389879  1
  O  O22  1  0.67622055  0.55061961  0.53267411  1
  O  O23  1  0.86271525  0.33153406  0.53670834  1
  O  O24  1  0.54806302  0.66234917  0.97163668  1
  O  O25  1  0.12416333  0.46175793  0.95945855  1
  O  O26  1  0.32795253  0.87941591  0.96016075  1
  O  O27  1  0.56406551  0.88253933  0.46878461  1
  O  O28  1  0.32120492  0.43355920  0.46538954  1
  O  O29  1  0.13285276  0.69022540  0.46032222  1
  O  O30  1  0.11210131  0.65541206  0.36197082  1
  O  O31  1  0.52401381  0.87369500  0.37109437  1
  O  O32  1  0.33998104  0.45163560  0.36663395  1
  O  O33  1  0.10845217  0.45135623  0.85999222  1
  O  O34  1  0.34529392  0.89929088  0.86080353  1
  O  O35  1  0.53970348  0.65631499  0.87194902  1
  O  O36  1  0.02626378  0.82949174  0.40937937  1
  O  O37  1  0.79914626  0.99390611  0.40952544  1
  O  O38  1  0.18847213  0.18463514  0.41227963  1
  O  O39  1  0.01080439  0.20292170  0.91422666  1
  O  O40  1  0.19155494  0.99969548  0.91280182  1
  O  O41  1  0.79670924  0.80192224  0.91951044  1
  O  O42  1  0.96057016  0.16913200  0.58075353  1
  O  O43  1  0.17385753  0.99734329  0.58201070  1
  O  O44  1  0.80988552  0.81303441  0.57844089  1
  O  O45  1  0.97478720  0.82149129  0.08815789  1
  O  O46  1  0.81738144  0.01398806  0.08450176  1
  O  O47  1  0.20532078  0.20247180  0.08532526  1
  O  O48  1  0.67860829  0.17153188  0.74717640  1
  O  O49  1  0.46158238  0.32540790  0.74873778  1
  O  O50  1  0.86606658  0.52469253  0.74850810  1
  O  O51  1  0.69237609  0.53317945  0.24967446  1
  O  O52  1  0.84960902  0.32956210  0.25201731  1
  O  O53  1  0.46781835  0.13730924  0.24976992  1
  O  O54  1  0.64618972  0.50554741  0.91919134  1
  O  O55  1  0.86164267  0.35073161  0.91467634  1
  O  O56  1  0.48872101  0.14370182  0.91607314  1
  O  O57  1  0.63976158  0.13244867  0.41728665  1
  O  O58  1  0.48120042  0.33522392  0.41490185  1
  O  O59  1  0.86559992  0.53061727  0.41762578  1
  O  O60  1  0.37844694  0.49941928  0.08071446  1
  O  O61  1  0.14925327  0.66362385  0.08510881  1
  O  O62  1  0.52628117  0.85516866  0.08090753  1
  O  O63  1  0.35953357  0.84564081  0.57993023  1
  O  O64  1  0.51843424  0.65791446  0.57925055  1
  O  O65  1  0.13302803  0.46470040  0.57765357  1
  O  O66  1  0.30690019  0.83857152  0.25766079  1
  O  O67  1  0.53505530  0.67364792  0.25686533  1
  O  O68  1  0.14260050  0.48192292  0.25477393  1
  O  O69  1  0.29893445  0.46094333  0.75861125  1
  O  O70  1  0.15846020  0.67357110  0.75686928  1
  O  O71  1  0.50920418  0.84523945  0.75062338  1
loop_
_geom_bond_atom_site_label_1
_geom_bond_atom_site_label_2
_geom_bond_distance
_geom_bond_site_symmetry_2
Na0 O15 2.309595 1_555
Na0 O68 2.479968 1_655
Na0 O52 2.487541 1_555
Na0 O51 2.539352 1_555
Na0 O66 2.682917 1_655
Na0 O11 2.953477 1_655
Na1 O50 2.503642 1_555
Na1 O48 2.528020 1_555
Na1 O69 2.632508 1_655
Na1 O33 2.647632 1_655
Na1 O5 2.673991 1_555
Na1 O70 2.735615 1_655
Na2 O71 2.329599 1_555
Na2 O48 2.504062 1_565
Na2 O70 2.696228 1_555
Na2 O34 2.744063 1_555
Na2 O49 2.790816 1_565
Na3 O63 2.437239 1_555
Na3 O6 2.508843 1_555
Na3 O42 2.571196 1_565
Na3 O64 2.633819 1_555
Na3 O44 2.640069 1_555
Na3 O13 2.886769 1_565
Na4 O45 2.440818 1_555
Na4 O60 2.503736 1_555
Na4 O19 2.599597 1_555
Na4 O62 2.719601 1_555
Na4 O46 2.774566 1_565
Na4 O24 2.798991 1_554
Na5 O58 2.456133 1_555
Na5 O38 2.460739 1_555
Na5 O57 2.527682 1_555
Na5 O36 2.636076 1_545
Na5 O21 2.670791 1_555
Na6 O43 2.428581 1_545
Na6 O44 2.678527 1_445
Na6 O42 2.722189 1_455
Na6 O38 2.750740 1_555
Na6 O36 2.814468 1_545
Na7 O45 2.459579 1_455
Na7 O47 2.750161 1_565
Na7 O46 2.776887 1_465
Na7 O40 2.786840 1_554
Na7 O41 2.882847 1_454
Na8 O56 2.398057 1_555
Na8 O55 2.430969 1_555
Na8 O54 2.509531 1_555
Na8 O48 2.883147 1_555
Na9 O52 2.553087 1_555
Na9 O51 2.622785 1_555
Na9 O53 2.693175 1_555
Na9 O58 2.750810 1_555
Na9 O57 2.827551 1_555
Na9 O59 2.897625 1_555
Na10 O61 2.424440 1_555
Na10 O60 2.772445 1_555
Na10 O62 2.774027 1_555
Na10 O68 2.813783 1_555
Na10 O66 2.888000 1_555
Na11 O71 2.369653 1_555
Na11 O63 2.672419 1_555
Na11 O70 2.793027 1_555
Na11 O64 2.801258 1_555
Na11 O69 2.928438 1_555
Ca0 O1 2.285988 1_545
Ca0 O2 2.298838 1_555
Ca0 O37 2.334484 1_545
Ca0 O0 2.371846 1_655
Ca0 O36 2.390521 1_645
Ca0 O38 2.395430 1_655
Ca1 O15 2.218994 1_555
Ca1 O16 2.323887 1_555
Ca1 O17 2.328043 1_555
Ca1 O52 2.451510 1_555
Ca1 O51 2.487043 1_555
Ca1 O53 2.519015 1_555
Ca2 O19 2.158134 1_556
Ca2 O18 2.335823 1_556
Ca2 O20 2.344639 1_556
Ca2 O55 2.424917 1_555
Ca2 O54 2.427164 1_555
Ca2 O56 2.556476 1_555
Ca3 O21 2.221078 1_555
Ca3 O22 2.326201 1_555
Ca3 O23 2.334571 1_555
Ca3 O58 2.407108 1_555
Ca3 O57 2.411109 1_555
Ca3 O59 2.470337 1_555
Ca4 O31 2.311462 1_555
Ca4 O32 2.315805 1_555
Ca4 O67 2.316556 1_555
Ca4 O68 2.368974 1_555
Ca4 O66 2.369981 1_555
Ca4 O30 2.388887 1_555
Ca5 O35 2.249317 1_555
Ca5 O71 2.287800 1_555
Ca5 O34 2.344970 1_555
Ca5 O69 2.391238 1_555
Ca5 O70 2.435693 1_555
Ca5 O33 2.450989 1_555
La0 O5 2.197416 1_565
La0 O41 2.379865 1_555
La0 O39 2.408372 1_665
La0 O4 2.452579 1_555
La0 O3 2.478416 1_665
La0 O40 2.518009 1_655
La1 O43 2.270753 1_555
La1 O6 2.339148 1_455
La1 O7 2.444257 1_565
La1 O8 2.454627 1_555
La1 O44 2.477725 1_455
La1 O42 2.533685 1_465
La2 O45 2.224196 1_445
La2 O11 2.400141 1_545
La2 O9 2.454633 1_445
La2 O47 2.454800 1_555
La2 O10 2.459985 1_555
La2 O46 2.477644 1_455
La3 O13 2.203564 1_555
La3 O48 2.321606 1_555
La3 O12 2.431110 1_555
La3 O14 2.453893 1_555
La3 O49 2.496175 1_555
La3 O50 2.604082 1_555
La4 O61 2.186504 1_555
La4 O25 2.377889 1_554
La4 O26 2.388928 1_554
La4 O62 2.463941 1_555
La4 O60 2.527165 1_555
La4 O24 2.570412 1_554
La5 O63 2.255414 1_555
La5 O29 2.359072 1_555
La5 O27 2.427910 1_555
La5 O65 2.429117 1_555
La5 O28 2.464321 1_555
La5 O64 2.476528 1_555
O0 S0 1.484167 1_545
O1 S1 1.484847 1_555
O2 S2 1.470886 1_555
O3 S3 1.484827 1_555
O4 S4 1.482077 1_655
O5 Si0 1.663185 1_555
O6 Si0 1.652377 1_565
O7 S3 1.492504 1_555
O8 S4 1.490308 1_555
O9 S1 1.502718 1_555
O10 S2 1.491080 1_455
O11 S0 1.509806 1_555
O12 S5 1.494716 1_555
O13 Si1 1.680174 1_555
O14 S6 1.486136 1_555
O15 Si2 1.626632 1_555
O16 S7 1.472609 1_555
O17 S8 1.477244 1_555
O18 S8 1.470977 1_555
O19 Si2 1.623537 1_555
O20 S7 1.467991 1_555
O21 Si1 1.625348 1_555
O22 S6 1.467971 1_555
O23 S5 1.471919 1_555
O24 S9 1.487260 1_555
O25 S10 1.487923 1_555
O26 S11 1.493594 1_555
O27 S12 1.505143 1_555
O28 S13 1.492043 1_555
O29 S14 1.514759 1_555
O30 S14 1.479821 1_555
O31 S12 1.483724 1_555
O32 S13 1.471620 1_555
O33 S10 1.487706 1_555
O34 S11 1.494361 1_555
O35 S9 1.483568 1_555
O36 S14 1.496055 1_555
O37 S12 1.473377 1_555
O38 S13 1.501099 1_555
O39 S10 1.496367 1_555
O40 S11 1.496641 1_555
O41 S9 1.508708 1_555
O42 S5 1.498814 1_555
O43 Si1 1.651484 1_565
O44 S6 1.497710 1_555
O45 Si2 1.691411 1_555
O46 S7 1.505687 1_555
O47 S8 1.494454 1_555
O48 Si0 1.681149 1_555
O49 S3 1.490041 1_555
O50 S4 1.487604 1_655
O51 S1 1.496580 1_555
O52 S2 1.497787 1_555
O53 S0 1.477662 1_545
O54 S9 1.475370 1_555
O55 S10 1.481722 1_655
O56 S11 1.477534 1_545
O57 S12 1.497703 1_545
O58 S13 1.499436 1_555
O59 S14 1.475295 1_655
O60 S8 1.514469 1_555
O61 Si2 1.669682 1_455
O62 S7 1.512650 1_565
O63 Si1 1.677937 1_565
O64 S6 1.495319 1_555
O65 S5 1.479612 1_455
O66 S0 1.497194 1_555
O67 S1 1.477245 1_555
O68 S2 1.501538 1_455
O69 S3 1.476765 1_555
O70 S4 1.488042 1_555
O71 Si0 1.634833 1_565
