# generated using pymatgen
data_Zr2Al
_symmetry_space_group_name_H-M   'P 1'
_cell_length_a   4.89977641
_cell_length_b   4.89977715
_cell_length_c   5.93565595
_cell_angle_alpha   90.00000000
_cell_angle_beta   90.00000000
_cell_angle_gamma   120.00000884
_symmetry_Int_Tables_number   1
_chemical_formula_structural   Zr2Al
_chemical_formula_sum   'Zr4 Al2'
_cell_volume   123.41044070
_cell_formula_units_Z   2
loop_
 _symmetry_equiv_pos_site_id
 _symmetry_equiv_pos_as_xyz
  1  'x, y, z'
loop_
 _atom_site_type_symbol
 _atom_site_label
 _atom_site_symmetry_multiplicity
 _atom_site_fract_x
 _atom_site_fract_y
 _atom_site_fract_z
 _atom_site_occupancy
  Zr  Zr0  1  -0.00000000  -0.00000000  0.00000000  1
  Zr  Zr1  1  -0.00000000  -0.00000000  0.50000000  1
  Zr  Zr2  1  0.33333300  0.66666700  0.75000000  1
  Zr  Zr3  1  0.66666700  0.33333300  0.25000000  1
  Al  Al0  1  0.33333300  0.66666700  0.25000000  1
  Al  Al1  1  0.66666700  0.33333300  0.75000000  1
loop_
_geom_bond_atom_site_label_1
_geom_bond_atom_site_label_2
_geom_bond_distance
_geom_bond_site_symmetry_2
Zr0 Zr1 2.967828 1_555
Zr0 Zr1 2.967828 1_554
Zr0 Zr3 3.194462 1_455
Zr0 Zr2 3.194462 1_544
Zr0 Zr3 3.194466 1_555
Zr0 Zr2 3.194466 1_444
Zr0 Zr2 3.194466 1_554
Zr0 Zr3 3.194466 1_445
Zr1 Zr3 3.194462 1_455
Zr1 Zr2 3.194462 1_545
Zr1 Zr2 3.194466 1_445
Zr1 Zr3 3.194466 1_555
Zr1 Zr2 3.194466 1_555
Zr1 Zr3 3.194466 1_445
Al0 Zr3 2.828884 1_455
Al0 Zr3 2.828885 1_565
Al0 Zr3 2.828893 1_555
Al0 Zr2 2.967828 1_554
Al0 Zr2 2.967828 1_555
Al0 Zr1 3.194462 1_565
Al0 Zr0 3.194462 1_565
Al0 Zr0 3.194466 1_665
Al0 Zr1 3.194466 1_665
Al0 Zr0 3.194466 1_555
Al0 Zr1 3.194466 1_555
Al1 Zr2 2.828884 1_655
Al1 Zr2 2.828885 1_545
Al1 Zr2 2.828893 1_555
Al1 Zr3 2.967828 1_555
Al1 Zr3 2.967828 1_556
Al1 Zr1 3.194462 1_655
Al1 Zr0 3.194462 1_656
Al1 Zr0 3.194466 1_556
Al1 Zr1 3.194466 1_555
Al1 Zr0 3.194466 1_666
Al1 Zr1 3.194466 1_665
