# generated using pymatgen
data_MgFeP2O7
_symmetry_space_group_name_H-M   'P 1'
_cell_length_a   5.37772847
_cell_length_b   5.37544195
_cell_length_c   4.96481965
_cell_angle_alpha   84.85076823
_cell_angle_beta   95.13317907
_cell_angle_gamma   78.76543436
_symmetry_Int_Tables_number   1
_chemical_formula_structural   MgFeP2O7
_chemical_formula_sum   'Mg1 Fe1 P2 O7'
_cell_volume   139.36017409
_cell_formula_units_Z   1
loop_
 _symmetry_equiv_pos_site_id
 _symmetry_equiv_pos_as_xyz
  1  'x, y, z'
loop_
 _atom_site_type_symbol
 _atom_site_label
 _atom_site_symmetry_multiplicity
 _atom_site_fract_x
 _atom_site_fract_y
 _atom_site_fract_z
 _atom_site_occupancy
  Mg  Mg0  1  0.50252800  0.50250800  0.99998600  1
  Fe  Fe0  1  0.10854500  0.10868700  0.99999200  1
  P  P0  1  0.24797300  0.66848900  0.56379800  1
  P  P1  1  0.66842000  0.24792900  0.43619700  1
  O  O0  1  0.54648400  0.54655000  0.49999000  1
  O  O1  1  0.84460000  0.32243500  0.22147900  1
  O  O2  1  0.44349800  0.18231500  0.26173800  1
  O  O3  1  0.32247600  0.84466500  0.77851900  1
  O  O4  1  0.18242000  0.44336400  0.73825700  1
  O  O5  1  0.09861300  0.78125500  0.29731900  1
  O  O6  1  0.78117900  0.09853900  0.70272400  1
loop_
_geom_bond_atom_site_label_1
_geom_bond_atom_site_label_2
_geom_bond_distance
_geom_bond_site_symmetry_2
Mg0 O3 2.069280 1_555
Mg0 O1 2.069632 1_556
Mg0 O2 2.153436 1_556
Mg0 O4 2.154100 1_555
Mg0 O0 2.509084 1_555
Mg0 O0 2.509318 1_556
Fe0 O1 2.101136 1_456
Fe0 O3 2.101696 1_545
Fe0 O5 2.205500 1_546
Fe0 O6 2.206228 1_455
Fe0 O4 2.243706 1_555
Fe0 O2 2.245279 1_556
O0 P0 1.680862 1_555
O0 P1 1.680866 1_555
O1 P1 1.564112 1_555
O2 P1 1.539897 1_555
O3 P0 1.564123 1_555
O4 P0 1.540025 1_555
O5 P0 1.496380 1_555
O6 P1 1.496502 1_555
