# generated using pymatgen
data_Ag5BiO4
_symmetry_space_group_name_H-M   'P 1'
_cell_length_a   8.89877888
_cell_length_b   5.90509976
_cell_length_c   13.73023396
_cell_angle_alpha   65.76872192
_cell_angle_beta   90.00000000
_cell_angle_gamma   90.00000000
_symmetry_Int_Tables_number   1
_chemical_formula_structural   Ag5BiO4
_chemical_formula_sum   'Ag20 Bi4 O16'
_cell_volume   657.93198299
_cell_formula_units_Z   4
loop_
 _symmetry_equiv_pos_site_id
 _symmetry_equiv_pos_as_xyz
  1  'x, y, z'
loop_
 _atom_site_type_symbol
 _atom_site_label
 _atom_site_symmetry_multiplicity
 _atom_site_fract_x
 _atom_site_fract_y
 _atom_site_fract_z
 _atom_site_occupancy
  Ag  Ag0  1  0.72772320  0.87442848  0.87681672  1
  Ag  Ag1  1  0.77227680  0.87442848  0.37681672  1
  Ag  Ag2  1  0.50000000  0.00000000  -0.00000000  1
  Ag  Ag3  1  0.00000000  0.00000000  0.50000000  1
  Ag  Ag4  1  0.14131966  0.61199711  0.35230695  1
  Ag  Ag5  1  0.64131966  0.38800289  0.14769305  1
  Ag  Ag6  1  0.85868034  0.38800289  0.64769305  1
  Ag  Ag7  1  0.35868034  0.61199711  0.85230695  1
  Ag  Ag8  1  0.99179533  0.71089658  0.75444670  1
  Ag  Ag9  1  0.49179533  0.28910342  0.74555330  1
  Ag  Ag10  1  0.00820467  0.28910342  0.24555330  1
  Ag  Ag11  1  0.50820467  0.71089658  0.25444670  1
  Ag  Ag12  1  0.00000000  0.50000000  -0.00000000  1
  Ag  Ag13  1  0.50000000  0.50000000  0.50000000  1
  Ag  Ag14  1  0.26867542  0.61476758  0.12648575  1
  Ag  Ag15  1  0.76867542  0.38523242  0.37351425  1
  Ag  Ag16  1  0.73132458  0.38523242  0.87351425  1
  Ag  Ag17  1  0.23132458  0.61476758  0.62648575  1
  Ag  Ag18  1  0.27227680  0.12557152  0.12318328  1
  Ag  Ag19  1  0.22772320  0.12557152  0.62318328  1
  Bi  Bi0  1  0.38061698  0.08241006  0.37738346  1
  Bi  Bi1  1  0.88061698  0.91758994  0.12261654  1
  Bi  Bi2  1  0.61938302  0.91758994  0.62261654  1
  Bi  Bi3  1  0.11938302  0.08241006  0.87738346  1
  O  O0  1  0.36289672  0.02952492  0.87104859  1
  O  O1  1  0.86289672  0.97047508  0.62895141  1
  O  O2  1  0.63710328  0.97047508  0.12895141  1
  O  O3  1  0.13710328  0.02952492  0.37104859  1
  O  O4  1  0.90752876  0.69557723  0.30542339  1
  O  O5  1  0.40752876  0.30442277  0.19457661  1
  O  O6  1  0.13648379  0.93088962  0.05984857  1
  O  O7  1  0.63648379  0.06911038  0.44015143  1
  O  O8  1  0.86351621  0.06911038  0.94015143  1
  O  O9  1  0.36351621  0.93088962  0.55984857  1
  O  O10  1  0.13392015  0.44764581  0.87959450  1
  O  O11  1  0.63392015  0.55235419  0.62040550  1
  O  O12  1  0.86607985  0.55235419  0.12040550  1
  O  O13  1  0.36607985  0.44764581  0.37959450  1
  O  O14  1  0.09247124  0.30442277  0.69457661  1
  O  O15  1  0.59247124  0.69557723  0.80542339  1
loop_
_geom_bond_atom_site_label_1
_geom_bond_atom_site_label_2
_geom_bond_distance
_geom_bond_site_symmetry_2
Ag0 O8 2.087734 1_565
Ag0 O15 2.091578 1_555
Ag1 O7 2.087734 1_565
Ag1 O4 2.091578 1_555
Ag2 O0 2.097696 1_554
Ag2 O2 2.097696 1_545
Ag3 O3 2.097696 1_555
Ag3 O1 2.097696 1_445
Ag4 O4 2.173814 1_455
Ag4 O13 2.187272 1_555
Ag4 O3 2.582114 1_565
Ag5 O5 2.173814 1_555
Ag5 O12 2.187272 1_555
Ag5 O2 2.582114 1_545
Ag6 O14 2.173814 1_655
Ag6 O11 2.187272 1_555
Ag6 O1 2.582114 1_545
Ag7 O15 2.173814 1_555
Ag7 O10 2.187272 1_555
Ag7 O0 2.582114 1_565
Ag8 O1 2.113359 1_555
Ag8 O10 2.185427 1_655
Ag9 O0 2.113359 1_555
Ag9 O11 2.185427 1_555
Ag10 O3 2.113359 1_555
Ag10 O12 2.185427 1_455
Ag11 O2 2.113359 1_555
Ag11 O13 2.185427 1_555
Ag12 O12 2.160642 1_455
Ag12 O10 2.160642 1_554
Ag13 O13 2.160642 1_555
Ag13 O11 2.160642 1_555
Ag14 O6 2.074521 1_555
Ag14 O5 2.086369 1_555
Ag15 O7 2.074521 1_555
Ag15 O4 2.086369 1_555
Ag16 O8 2.074521 1_555
Ag16 O15 2.086369 1_555
Ag17 O9 2.074521 1_555
Ag17 O14 2.086369 1_555
Ag18 O6 2.087734 1_545
Ag18 O5 2.091578 1_555
Ag19 O9 2.087734 1_545
Ag19 O14 2.091578 1_555
Bi0 O13 2.173243 1_555
Bi0 O3 2.196171 1_555
Bi0 O9 2.293513 1_545
Bi0 O5 2.318411 1_555
Bi0 O7 2.424381 1_555
Bi1 O12 2.173243 1_555
Bi1 O2 2.196171 1_555
Bi1 O8 2.293513 1_564
Bi1 O4 2.318411 1_555
Bi1 O6 2.424381 1_655
Bi2 O11 2.173243 1_555
Bi2 O1 2.196171 1_555
Bi2 O7 2.293513 1_565
Bi2 O15 2.318411 1_555
Bi2 O9 2.424381 1_555
Bi3 O10 2.173243 1_555
Bi3 O0 2.196171 1_555
Bi3 O6 2.293513 1_546
Bi3 O14 2.318411 1_555
Bi3 O8 2.424381 1_455
