# generated using pymatgen
data_Na7Y2Si3Sn2(PO8)3
_symmetry_space_group_name_H-M   'P 1'
_cell_length_a   9.24925543
_cell_length_b   9.25878334
_cell_length_c   22.85577821
_cell_angle_alpha   89.98525942
_cell_angle_beta   89.74744223
_cell_angle_gamma   120.00521828
_symmetry_Int_Tables_number   1
_chemical_formula_structural   Na7Y2Si3Sn2(PO8)3
_chemical_formula_sum   'Na21 Y6 Si9 Sn6 P9 O72'
_cell_volume   1694.95638295
_cell_formula_units_Z   3
loop_
 _symmetry_equiv_pos_site_id
 _symmetry_equiv_pos_as_xyz
  1  'x, y, z'
loop_
 _atom_site_type_symbol
 _atom_site_label
 _atom_site_symmetry_multiplicity
 _atom_site_fract_x
 _atom_site_fract_y
 _atom_site_fract_z
 _atom_site_occupancy
  Na  Na0  1  0.63288144  0.00427099  0.25458812  1
  Na  Na1  1  0.36664604  0.37127883  0.24609788  1
  Na  Na2  1  0.00016517  0.62001683  0.25014580  1
  Na  Na3  1  0.63410905  0.63743686  0.74791983  1
  Na  Na4  1  0.99257198  0.36194001  0.74664392  1
  Na  Na5  1  0.37625092  0.00238683  0.74472651  1
  Na  Na6  1  0.03386695  0.69389122  0.58142618  1
  Na  Na7  1  0.66356703  0.97163000  0.58123513  1
  Na  Na8  1  0.66590772  0.68762237  0.08155057  1
  Na  Na9  1  0.03053518  0.33898175  0.08709508  1
  Na  Na10  1  0.95835148  0.66410012  0.92212859  1
  Na  Na11  1  0.69987464  0.02922907  0.91770965  1
  Na  Na12  1  0.34107653  0.30504875  0.92036420  1
  Na  Na13  1  0.96456699  0.30405739  0.41693898  1
  Na  Na14  1  0.33598982  0.02707566  0.42025436  1
  Na  Na15  1  0.99902990  0.00010950  0.50012324  1
  Na  Na16  1  0.00988460  0.99481970  0.00392036  1
  Na  Na17  1  0.66634135  0.33322514  0.83334354  1
  Na  Na18  1  0.67711089  0.34222041  0.33787380  1
  Na  Na19  1  0.32327888  0.66464020  0.16357352  1
  Na  Na20  1  0.33440861  0.66139039  0.66131349  1
  Y  Y0  1  0.99597217  0.99920301  0.85190837  1
  Y  Y1  1  0.66796393  0.33084523  0.67706542  1
  Y  Y2  1  0.66892749  0.33435099  0.18109445  1
  Y  Y3  1  0.66363388  0.33629446  0.98934087  1
  Y  Y4  1  0.32984930  0.66358888  0.31970276  1
  Y  Y5  1  0.33844471  0.66887678  0.81409143  1
  Si  Si0  1  0.99921976  0.28676185  0.25109322  1
  Si  Si1  1  0.70597624  0.00244625  0.74738373  1
  Si  Si2  1  0.97393890  0.33601989  0.58129317  1
  Si  Si3  1  0.36321577  0.02974384  0.58187849  1
  Si  Si4  1  0.97870802  0.64569581  0.08372736  1
  Si  Si5  1  0.35672029  0.33360280  0.08333006  1
  Si  Si6  1  0.62958516  0.66419396  0.91801323  1
  Si  Si7  1  0.63301696  0.96786735  0.41772730  1
  Si  Si8  1  0.02687529  0.66490825  0.41756955  1
  Sn  Sn0  1  0.99162144  0.99463064  0.35536763  1
  Sn  Sn1  1  0.00376273  0.00634103  0.64495175  1
  Sn  Sn2  1  0.00716250  0.00304223  0.14782534  1
  Sn  Sn3  1  0.66516901  0.33161232  0.48469508  1
  Sn  Sn4  1  0.33502279  0.66962149  0.01905634  1
  Sn  Sn5  1  0.33331780  0.66811628  0.51461503  1
  P  P0  1  0.28469518  0.99961613  0.25228090  1
  P  P1  1  0.71523242  0.71440933  0.24946913  1
  P  P2  1  0.29335823  0.29298946  0.74872100  1
  P  P3  1  0.99843854  0.70697046  0.74716923  1
  P  P4  1  0.66407276  0.63263017  0.58266543  1
  P  P5  1  0.66623483  0.02427692  0.08436591  1
  P  P6  1  0.03915261  0.37306044  0.91833647  1
  P  P7  1  0.33559433  0.96086934  0.91754814  1
  P  P8  1  0.33660567  0.36801084  0.41701212  1
  O  O0  1  0.20334085  0.02315530  0.30888315  1
  O  O1  1  0.82806349  0.79747584  0.30352437  1
  O  O2  1  0.97631686  0.17348400  0.31024345  1
  O  O3  1  0.22218786  0.19550822  0.80612683  1
  O  O4  1  0.98273923  0.78826578  0.80368422  1
  O  O5  1  0.81039221  0.02734697  0.80739270  1
  O  O6  1  0.80110417  0.97354828  0.69006832  1
  O  O7  1  0.17864998  0.19785046  0.69590115  1
  O  O8  1  0.02309222  0.81888099  0.69212250  1
  O  O9  1  0.79615053  0.81854373  0.19279499  1
  O  O10  1  0.02139162  0.19672533  0.19208424  1
  O  O11  1  0.17240419  0.97000986  0.19812143  1
  O  O12  1  0.90530927  0.37922547  0.64056888  1
  O  O13  1  0.47242025  0.10228387  0.64074528  1
  O  O14  1  0.63785143  0.54076138  0.64085115  1
  O  O15  1  0.89940565  0.52380586  0.14085006  1
  O  O16  1  0.64129967  0.10420937  0.13940312  1
  O  O17  1  0.47426184  0.36916587  0.14072136  1
  O  O18  1  0.43417510  0.30547868  0.02376291  1
  O  O19  1  0.86226031  0.56646333  0.02610228  1
  O  O20  1  0.69893203  0.13230759  0.02943066  1
  O  O21  1  0.45198066  0.15066769  0.52449040  1
  O  O22  1  0.69732819  0.54139775  0.53168515  1
  O  O23  1  0.84367956  0.29872748  0.52623459  1
  O  O24  1  0.53487332  0.69298233  0.97532587  1
  O  O25  1  0.14841972  0.46460704  0.97305970  1
  O  O26  1  0.30751233  0.84215402  0.97031497  1
  O  O27  1  0.54380206  0.84896139  0.47534797  1
  O  O28  1  0.30119869  0.45678925  0.46818957  1
  O  O29  1  0.15504179  0.70339168  0.47326151  1
  O  O30  1  0.09821403  0.62194793  0.35881964  1
  O  O31  1  0.52432314  0.89383961  0.35857577  1
  O  O32  1  0.36346321  0.46231127  0.35918208  1
  O  O33  1  0.11415046  0.47436938  0.86196889  1
  O  O34  1  0.35267519  0.88418084  0.86006077  1
  O  O35  1  0.52363431  0.64012020  0.85856874  1
  O  O36  1  0.02776360  0.84477264  0.41229557  1
  O  O37  1  0.82634768  0.99949469  0.41503189  1
  O  O38  1  0.17505470  0.19008666  0.41416065  1
  O  O39  1  0.03302705  0.20245880  0.91754766  1
  O  O40  1  0.17984714  0.98213128  0.91742413  1
  O  O41  1  0.81514624  0.83277501  0.91932395  1
  O  O42  1  0.97473180  0.15747143  0.58561366  1
  O  O43  1  0.16906122  0.99571402  0.58700870  1
  O  O44  1  0.82807783  0.80890613  0.58495696  1
  O  O45  1  0.98072892  0.82403146  0.09111469  1
  O  O46  1  0.82381899  0.00375209  0.08994587  1
  O  O47  1  0.16423141  0.17394535  0.08827867  1
  O  O48  1  0.68777095  0.16994479  0.74531144  1
  O  O49  1  0.47105115  0.31879848  0.74304639  1
  O  O50  1  0.83717946  0.53509030  0.74421994  1
  O  O51  1  0.69507233  0.53821498  0.24674072  1
  O  O52  1  0.82981461  0.30231950  0.25019699  1
  O  O53  1  0.45741763  0.15928672  0.24731207  1
  O  O54  1  0.64863014  0.49735314  0.91980424  1
  O  O55  1  0.86088712  0.34579389  0.92333741  1
  O  O56  1  0.49709018  0.13126401  0.92261682  1
  O  O57  1  0.64735162  0.15449791  0.42398324  1
  O  O58  1  0.48899829  0.34258182  0.42590851  1
  O  O59  1  0.84250703  0.49671083  0.42699839  1
  O  O60  1  0.34168233  0.50559478  0.07869693  1
  O  O61  1  0.16203820  0.65850146  0.07648634  1
  O  O62  1  0.51150257  0.84552591  0.07895512  1
  O  O63  1  0.34987840  0.84420668  0.57529708  1
  O  O64  1  0.51288932  0.65987753  0.57344837  1
  O  O65  1  0.15805891  0.50415759  0.57187979  1
  O  O66  1  0.30500542  0.84352996  0.25449958  1
  O  O67  1  0.54221948  0.70102332  0.25378957  1
  O  O68  1  0.16877034  0.47169050  0.25101057  1
  O  O69  1  0.30002226  0.46388688  0.74905128  1
  O  O70  1  0.15443792  0.68611906  0.74822158  1
  O  O71  1  0.52057151  0.83354497  0.74641191  1
loop_
_geom_bond_atom_site_label_1
_geom_bond_atom_site_label_2
_geom_bond_distance
_geom_bond_site_symmetry_2
Na0 O52 2.431878 1_555
Na0 O67 2.496415 1_545
Na0 O31 2.579402 1_545
Na0 O66 2.626342 1_545
Na0 O53 2.655818 1_555
Na0 O16 2.778119 1_555
Na1 O68 2.434462 1_555
Na1 O53 2.491289 1_555
Na1 O17 2.605800 1_555
Na1 O51 2.630838 1_555
Na1 O67 2.652011 1_555
Na1 O32 2.723385 1_555
Na2 O51 2.531222 1_455
Na2 O66 2.531625 1_555
Na2 O68 2.541773 1_555
Na2 O52 2.549417 1_455
Na2 O30 2.644958 1_555
Na2 O15 2.663383 1_455
Na3 O50 2.492326 1_555
Na3 O71 2.511607 1_555
Na3 O49 2.557777 1_555
Na3 O14 2.611944 1_555
Na3 O69 2.676623 1_555
Na3 O35 2.728191 1_555
Na4 O48 2.469256 1_555
Na4 O69 2.509452 1_655
Na4 O12 2.588656 1_555
Na4 O70 2.599597 1_655
Na4 O50 2.635168 1_555
Na4 O33 2.855271 1_655
Na5 O48 2.497723 1_555
Na5 O71 2.512894 1_545
Na5 O13 2.540112 1_555
Na5 O70 2.603844 1_545
Na5 O49 2.604472 1_555
Na5 O34 2.819379 1_545
Na6 O43 2.428136 1_555
Na6 O63 2.535253 1_555
Na6 O65 2.543479 1_555
Na6 O44 2.605642 1_455
Na6 O29 2.693037 1_555
Na6 O8 2.804453 1_555
Na6 O12 2.871959 1_455
Na6 O22 2.934536 1_455
Na7 O64 2.506918 1_555
Na7 O42 2.510683 1_565
Na7 O63 2.531473 1_555
Na7 O44 2.624186 1_555
Na7 O27 2.672229 1_555
Na7 O6 2.794890 1_555
Na7 O23 2.908780 1_565
Na7 O13 2.925365 1_565
Na8 O62 2.503890 1_555
Na8 O45 2.539565 1_555
Na8 O46 2.542500 1_565
Na8 O60 2.604727 1_555
Na8 O24 2.729802 1_554
Na8 O9 2.820170 1_555
Na8 O19 2.860212 1_555
Na8 O17 2.900738 1_555
Na9 O47 2.398939 1_555
Na9 O60 2.500703 1_555
Na9 O61 2.586174 1_555
Na9 O46 2.712383 1_455
Na9 O10 2.717584 1_555
Na9 O15 2.823582 1_455
Na9 O25 2.835464 1_554
Na9 O20 2.995445 1_455
Na10 O54 2.484108 1_555
Na10 O41 2.503417 1_555
Na10 O19 2.535962 1_556
Na10 O55 2.615635 1_555
Na10 O40 2.616035 1_655
Na10 O4 2.904267 1_555
Na11 O56 2.488648 1_555
Na11 O41 2.527152 1_545
Na11 O55 2.541928 1_555
Na11 O39 2.669166 1_655
Na11 O5 2.719868 1_555
Na11 O20 2.727730 1_556
Na12 O54 2.489241 1_555
Na12 O39 2.513829 1_555
Na12 O18 2.518134 1_556
Na12 O40 2.590192 1_545
Na12 O56 2.645138 1_555
Na12 O3 2.822462 1_555
Na13 O37 2.446012 1_545
Na13 O57 2.546382 1_555
Na13 O59 2.553654 1_555
Na13 O38 2.638453 1_655
Na13 O23 2.722671 1_555
Na13 O2 2.747867 1_555
Na13 O30 2.880993 1_655
Na13 O28 2.948835 1_655
Na14 O36 2.490284 1_545
Na14 O57 2.509351 1_555
Na14 O58 2.533769 1_555
Na14 O38 2.600335 1_555
Na14 O21 2.632928 1_555
Na14 O0 2.822959 1_555
Na14 O29 2.866021 1_545
Na14 O31 2.944806 1_545
Na15 O42 2.513226 1_555
Na15 O37 2.520254 1_545
Na15 O43 2.551464 1_645
Na15 O36 2.558856 1_645
Na15 O44 2.562266 1_545
Na15 O38 2.590494 1_655
Na16 O45 2.472242 1_455
Na16 O47 2.482733 1_565
Na16 O40 2.559451 1_554
Na16 O41 2.561864 1_454
Na16 O46 2.635724 1_465
Na16 O39 2.687312 1_564
Na17 O54 2.547321 1_555
Na17 O48 2.582792 1_555
Na17 O56 2.674442 1_555
Na17 O50 2.674936 1_555
Na17 O55 2.702863 1_555
Na17 O49 2.707681 1_555
Na18 O59 2.525099 1_555
Na18 O57 2.546583 1_555
Na18 O52 2.577662 1_555
Na18 O58 2.655331 1_555
Na18 O51 2.711579 1_555
Na18 O53 2.806912 1_555
Na19 O61 2.476024 1_555
Na19 O60 2.491982 1_555
Na19 O62 2.574621 1_555
Na19 O68 2.578201 1_555
Na19 O66 2.714667 1_555
Na19 O67 2.796574 1_555
Na20 O63 2.550330 1_555
Na20 O71 2.564098 1_555
Na20 O65 2.571784 1_555
Na20 O64 2.598513 1_555
Na20 O69 2.622438 1_555
Na20 O70 2.668550 1_555
O0 P0 1.562985 1_545
O0 Sn0 2.120733 1_445
O1 P1 1.554385 1_555
O1 Sn0 2.068746 1_555
O2 Si0 1.657444 1_555
O2 Sn0 2.015141 1_545
O3 P2 1.538498 1_555
O3 Y0 2.225404 1_445
O4 P3 1.537618 1_555
O4 Y0 2.192565 1_555
O5 Si1 1.629775 1_555
O5 Y0 2.124143 1_545
O6 Si1 1.669517 1_565
O6 Sn1 2.020550 1_665
O7 P2 1.560809 1_555
O7 Sn1 2.065344 1_555
O8 P3 1.571309 1_455
O8 Sn1 2.125534 1_565
O9 P1 1.561001 1_555
O9 Sn2 2.104883 1_665
O10 Si0 1.650786 1_455
O10 Sn2 2.005611 1_555
O11 P0 1.553351 1_555
O11 Sn2 2.057602 1_565
O12 Si2 1.626373 1_555
O12 Y1 2.171595 1_555
O13 Si3 1.617247 1_555
O13 Y1 2.150505 1_555
O14 P4 1.530085 1_555
O14 Y1 2.254492 1_555
O15 Si4 1.636788 1_555
O15 Y2 2.170095 1_555
O16 P5 1.533590 1_555
O16 Y2 2.229874 1_555
O17 Si5 1.632710 1_555
O17 Y2 2.189110 1_555
O18 Si5 1.616400 1_555
O18 Y3 2.141065 1_554
O19 Si4 1.629610 1_555
O19 Y3 2.172873 1_554
O20 P5 1.536844 1_555
O20 Y3 2.265326 1_554
O21 Si3 1.648757 1_555
O21 Sn3 2.049769 1_555
O22 P4 1.556604 1_555
O22 Sn3 2.107307 1_555
O23 Si2 1.658880 1_555
O23 Sn3 2.058315 1_555
O24 Si6 1.666718 1_555
O24 Sn4 2.011550 1_556
O25 P6 1.568157 1_555
O25 Sn4 2.104171 1_556
O26 P7 1.562413 1_555
O26 Sn4 2.065364 1_556
O27 Si7 1.645727 1_555
O27 Sn5 2.030458 1_555
O28 P8 1.554814 1_555
O28 Sn5 2.113068 1_555
O29 Si8 1.656367 1_555
O29 Sn5 2.066680 1_555
O30 Si8 1.628371 1_555
O30 Y4 2.166764 1_555
O31 Si7 1.622206 1_555
O31 Y4 2.179318 1_555
O32 P8 1.533179 1_555
O32 Y4 2.228207 1_555
O33 P6 1.536729 1_555
O33 Y5 2.233110 1_555
O34 P7 1.538293 1_555
O34 Y5 2.198853 1_555
O35 Si6 1.627691 1_555
O35 Y5 2.123567 1_555
O36 Si8 1.665566 1_555
O36 Sn0 2.048576 1_455
O37 Si7 1.662043 1_555
O37 Sn0 2.061296 1_555
O38 P8 1.577895 1_555
O38 Sn0 2.215782 1_445
O39 P6 1.552119 1_555
O39 Y0 2.295785 1_445
O40 P7 1.548418 1_555
O40 Y0 2.334700 1_455
O41 Si6 1.644389 1_555
O41 Y0 2.223587 1_555
O42 Si2 1.659738 1_555
O42 Sn1 2.060933 1_655
O43 Si3 1.664360 1_565
O43 Sn1 2.057599 1_565
O44 P4 1.578650 1_555
O44 Sn1 2.216391 1_665
O45 Si4 1.650614 1_555
O45 Sn2 2.021257 1_665
O46 P5 1.566985 1_555
O46 Sn2 2.157935 1_655
O47 Si5 1.653367 1_555
O47 Sn2 2.036902 1_555
O48 Si1 1.642221 1_555
O48 Y1 2.227152 1_555
O49 P2 1.542858 1_555
O49 Y1 2.318683 1_555
O50 P3 1.545543 1_555
O50 Y1 2.333238 1_555
O51 P1 1.547857 1_555
O51 Y2 2.328215 1_555
O52 Si0 1.643859 1_555
O52 Y2 2.293188 1_555
O53 P0 1.544927 1_545
O53 Y2 2.355024 1_555
O54 Si6 1.640463 1_555
O54 Y3 2.230824 1_555
O55 P6 1.541888 1_655
O55 Y3 2.329650 1_555
O56 P7 1.542164 1_545
O56 Y3 2.323740 1_555
O57 Si7 1.671845 1_545
O57 Sn3 2.091576 1_555
O58 P8 1.554970 1_555
O58 Sn3 2.157652 1_555
O59 Si8 1.649280 1_655
O59 Sn3 2.058697 1_555
O60 Si5 1.669726 1_555
O60 Sn4 2.064357 1_555
O61 Si4 1.647172 1_455
O61 Sn4 2.027345 1_555
O62 P5 1.560541 1_565
O62 Sn4 2.133815 1_555
O63 Si3 1.666492 1_565
O63 Sn5 2.087694 1_555
O64 P4 1.555235 1_555
O64 Sn5 2.172312 1_555
O65 Si2 1.647712 1_455
O65 Sn5 2.040666 1_555
O66 P0 1.548529 1_555
O66 Y4 2.331097 1_555
O67 P1 1.544707 1_555
O67 Y4 2.353876 1_555
O68 Si0 1.644813 1_455
O68 Y4 2.283854 1_555
O69 P2 1.552418 1_555
O69 Y5 2.295616 1_555
O70 P3 1.548759 1_455
O70 Y5 2.341537 1_555
O71 Si1 1.644677 1_565
O71 Y5 2.227571 1_555
