# generated using pymatgen
data_Na4CaSc(PO4)3
_symmetry_space_group_name_H-M   'P 1'
_cell_length_a   9.29365012
_cell_length_b   9.29364978
_cell_length_c   22.73011629
_cell_angle_alpha   90.00000000
_cell_angle_beta   90.00000000
_cell_angle_gamma   120.00000120
_symmetry_Int_Tables_number   1
_chemical_formula_structural   Na4CaSc(PO4)3
_chemical_formula_sum   'Na24 Ca6 Sc6 P18 O72'
_cell_volume   1700.21915750
_cell_formula_units_Z   6
loop_
 _symmetry_equiv_pos_site_id
 _symmetry_equiv_pos_as_xyz
  1  'x, y, z'
loop_
 _atom_site_type_symbol
 _atom_site_label
 _atom_site_symmetry_multiplicity
 _atom_site_fract_x
 _atom_site_fract_y
 _atom_site_fract_z
 _atom_site_occupancy
  Na  Na0  1  0.63784875  0.00595548  0.24829809  1
  Na  Na1  1  0.36810673  0.36215125  0.24829809  1
  Na  Na2  1  0.99404452  0.63189327  0.24829809  1
  Na  Na3  1  0.63784875  0.63189327  0.74829809  1
  Na  Na4  1  0.99404452  0.36215125  0.74829809  1
  Na  Na5  1  0.36810673  0.00595548  0.74829809  1
  Na  Na6  1  0.30451575  0.33928848  0.58163109  1
  Na  Na7  1  0.03477373  0.69548425  0.58163109  1
  Na  Na8  1  0.66071152  0.96522627  0.58163109  1
  Na  Na9  1  0.30451575  0.96522627  0.08163109  1
  Na  Na10  1  0.66071152  0.69548425  0.08163109  1
  Na  Na11  1  0.03477373  0.33928848  0.08163109  1
  Na  Na12  1  0.97118175  0.67262248  0.91496509  1
  Na  Na13  1  0.70143973  0.02881825  0.91496509  1
  Na  Na14  1  0.32737752  0.29856027  0.91496509  1
  Na  Na15  1  0.97118175  0.29856027  0.41496509  1
  Na  Na16  1  0.32737752  0.02881825  0.41496509  1
  Na  Na17  1  0.70143973  0.67262248  0.41496509  1
  Na  Na18  1  -0.00000000  -0.00000000  0.49903015  1
  Na  Na19  1  -0.00000000  -0.00000000  0.99903015  1
  Na  Na20  1  0.66666700  0.33333300  0.83236315  1
  Na  Na21  1  0.66666700  0.33333300  0.33236315  1
  Na  Na22  1  0.33333300  0.66666700  0.16569715  1
  Na  Na23  1  0.33333300  0.66666700  0.66569715  1
  Ca  Ca0  1  -0.00000000  -0.00000000  0.34818816  1
  Ca  Ca1  1  -0.00000000  -0.00000000  0.84818816  1
  Ca  Ca2  1  0.66666700  0.33333300  0.68152116  1
  Ca  Ca3  1  0.66666700  0.33333300  0.18152116  1
  Ca  Ca4  1  0.33333300  0.66666700  0.01485516  1
  Ca  Ca5  1  0.33333300  0.66666700  0.51485516  1
  Sc  Sc0  1  -0.00000000  -0.00000000  0.65104886  1
  Sc  Sc1  1  -0.00000000  -0.00000000  0.15104886  1
  Sc  Sc2  1  0.66666700  0.33333300  0.98438186  1
  Sc  Sc3  1  0.66666700  0.33333300  0.48438186  1
  Sc  Sc4  1  0.33333300  0.66666700  0.31771586  1
  Sc  Sc5  1  0.33333300  0.66666700  0.81771586  1
  P  P0  1  0.29694449  0.99295922  0.25060094  1
  P  P1  1  0.69601474  0.70305551  0.25060094  1
  P  P2  1  0.00704078  0.30398526  0.25060094  1
  P  P3  1  0.29694449  0.30398526  0.75060094  1
  P  P4  1  0.00704078  0.70305551  0.75060094  1
  P  P5  1  0.69601474  0.99295922  0.75060094  1
  P  P6  1  0.96361149  0.32629222  0.58393394  1
  P  P7  1  0.36268174  0.03638851  0.58393394  1
  P  P8  1  0.67370778  0.63731826  0.58393394  1
  P  P9  1  0.96361149  0.63731826  0.08393394  1
  P  P10  1  0.67370778  0.03638851  0.08393394  1
  P  P11  1  0.36268174  0.32629222  0.08393394  1
  P  P12  1  0.63027749  0.65962622  0.91726794  1
  P  P13  1  0.02934774  0.36972251  0.91726794  1
  P  P14  1  0.34037378  0.97065226  0.91726794  1
  P  P15  1  0.63027749  0.97065226  0.41726794  1
  P  P16  1  0.34037378  0.36972251  0.41726794  1
  P  P17  1  0.02934774  0.65962622  0.41726794  1
  O  O0  1  0.22298507  0.01976060  0.30667036  1
  O  O1  1  0.79677553  0.77701493  0.30667036  1
  O  O2  1  0.98023940  0.20322447  0.30667036  1
  O  O3  1  0.22298507  0.20322447  0.80667036  1
  O  O4  1  0.98023940  0.77701493  0.80667036  1
  O  O5  1  0.79677553  0.01976060  0.80667036  1
  O  O6  1  0.78853927  0.97197537  0.69599734  1
  O  O7  1  0.18343611  0.21146073  0.69599734  1
  O  O8  1  0.02802463  0.81656389  0.69599734  1
  O  O9  1  0.78853927  0.81656389  0.19599734  1
  O  O10  1  0.02802463  0.21146073  0.19599734  1
  O  O11  1  0.18343611  0.97197537  0.19599734  1
  O  O12  1  0.88965207  0.35309360  0.64000336  1
  O  O13  1  0.46344253  0.11034793  0.64000336  1
  O  O14  1  0.64690640  0.53655747  0.64000336  1
  O  O15  1  0.88965207  0.53655747  0.14000336  1
  O  O16  1  0.64690640  0.11034793  0.14000336  1
  O  O17  1  0.46344253  0.35309360  0.14000336  1
  O  O18  1  0.45520627  0.30530837  0.02933034  1
  O  O19  1  0.85010311  0.54479373  0.02933034  1
  O  O20  1  0.69469163  0.14989689  0.02933034  1
  O  O21  1  0.45520627  0.14989689  0.52933034  1
  O  O22  1  0.69469163  0.54479373  0.52933034  1
  O  O23  1  0.85010311  0.30530837  0.52933034  1
  O  O24  1  0.55631807  0.68642760  0.97333736  1
  O  O25  1  0.13010853  0.44368193  0.97333736  1
  O  O26  1  0.31357240  0.86989147  0.97333736  1
  O  O27  1  0.55631807  0.86989147  0.47333736  1
  O  O28  1  0.31357240  0.44368193  0.47333736  1
  O  O29  1  0.13010853  0.68642760  0.47333736  1
  O  O30  1  0.12187227  0.63864237  0.36266434  1
  O  O31  1  0.51676911  0.87812773  0.36266434  1
  O  O32  1  0.36135763  0.48323089  0.36266434  1
  O  O33  1  0.12187227  0.48323089  0.86266434  1
  O  O34  1  0.36135763  0.87812773  0.86266434  1
  O  O35  1  0.51676911  0.63864237  0.86266434  1
  O  O36  1  0.00350069  0.81064042  0.41194466  1
  O  O37  1  0.80713973  0.99649931  0.41194466  1
  O  O38  1  0.18935958  0.19286027  0.41194466  1
  O  O39  1  0.00350069  0.19286027  0.91194466  1
  O  O40  1  0.18935958  0.99649931  0.91194466  1
  O  O41  1  0.80713973  0.81064042  0.91194466  1
  O  O42  1  0.97318198  0.16185818  0.58706622  1
  O  O43  1  0.18867620  0.02681802  0.58706622  1
  O  O44  1  0.83814182  0.81132380  0.58706622  1
  O  O45  1  0.97318198  0.81132380  0.08706622  1
  O  O46  1  0.83814182  0.02681802  0.08706622  1
  O  O47  1  0.18867620  0.16185818  0.08706622  1
  O  O48  1  0.67016769  0.14397342  0.74527766  1
  O  O49  1  0.47380673  0.32983231  0.74527766  1
  O  O50  1  0.85602658  0.52619327  0.74527766  1
  O  O51  1  0.67016769  0.52619327  0.24527766  1
  O  O52  1  0.85602658  0.32983231  0.24527766  1
  O  O53  1  0.47380673  0.14397342  0.24527766  1
  O  O54  1  0.63984898  0.49519118  0.92039922  1
  O  O55  1  0.85534320  0.36015102  0.92039922  1
  O  O56  1  0.50480882  0.14465680  0.92039922  1
  O  O57  1  0.63984898  0.14465680  0.42039922  1
  O  O58  1  0.50480882  0.36015102  0.42039922  1
  O  O59  1  0.85534320  0.49519118  0.42039922  1
  O  O60  1  0.33683369  0.47730742  0.07861166  1
  O  O61  1  0.14047273  0.66316631  0.07861166  1
  O  O62  1  0.52269258  0.85952727  0.07861166  1
  O  O63  1  0.33683369  0.85952727  0.57861166  1
  O  O64  1  0.52269258  0.66316631  0.57861166  1
  O  O65  1  0.14047273  0.47730742  0.57861166  1
  O  O66  1  0.30651498  0.82852518  0.25373322  1
  O  O67  1  0.52200920  0.69348502  0.25373322  1
  O  O68  1  0.17147482  0.47799080  0.25373322  1
  O  O69  1  0.30651498  0.47799080  0.75373322  1
  O  O70  1  0.17147482  0.69348502  0.75373322  1
  O  O71  1  0.52200920  0.82852518  0.75373322  1
loop_
_geom_bond_atom_site_label_1
_geom_bond_atom_site_label_2
_geom_bond_distance
_geom_bond_site_symmetry_2
Na0 O53 2.435115 1_555
Na0 O67 2.545796 1_545
Na0 O16 2.631714 1_555
Na0 O52 2.659504 1_555
Na0 O66 2.671850 1_545
Na0 O31 2.845776 1_545
Na1 O51 2.435122 1_555
Na1 O68 2.545805 1_555
Na1 O17 2.631717 1_555
Na1 O53 2.659511 1_555
Na1 O67 2.671850 1_555
Na1 O32 2.845778 1_555
Na2 O52 2.435123 1_555
Na2 O66 2.545798 1_655
Na2 O15 2.631715 1_555
Na2 O51 2.659502 1_555
Na2 O68 2.671842 1_655
Na2 O30 2.845775 1_655
Na3 O49 2.435122 1_555
Na3 O71 2.545805 1_555
Na3 O14 2.631717 1_555
Na3 O50 2.659511 1_555
Na3 O69 2.671850 1_555
Na3 O35 2.845778 1_555
Na4 O50 2.435115 1_555
Na4 O69 2.545796 1_655
Na4 O12 2.631714 1_555
Na4 O48 2.659504 1_555
Na4 O70 2.671850 1_655
Na4 O33 2.845776 1_655
Na5 O48 2.435123 1_555
Na5 O70 2.545797 1_545
Na5 O13 2.631715 1_555
Na5 O49 2.659502 1_555
Na5 O71 2.671842 1_545
Na5 O34 2.845775 1_545
Na6 O65 2.435130 1_555
Na6 O43 2.545796 1_555
Na6 O28 2.631697 1_555
Na6 O64 2.659509 1_555
Na6 O42 2.671850 1_455
Na6 O7 2.845776 1_555
Na7 O63 2.435114 1_555
Na7 O44 2.545805 1_455
Na7 O29 2.631691 1_555
Na7 O65 2.659495 1_555
Na7 O43 2.671850 1_565
Na7 O8 2.845778 1_555
Na8 O64 2.435113 1_555
Na8 O42 2.545798 1_565
Na8 O27 2.631694 1_555
Na8 O63 2.659512 1_555
Na8 O44 2.671842 1_555
Na8 O6 2.845775 1_555
Na9 O61 2.435114 1_555
Na9 O47 2.545805 1_565
Na9 O26 2.631691 1_554
Na9 O62 2.659495 1_555
Na9 O45 2.671850 1_455
Na9 O11 2.845778 1_555
Na10 O62 2.435130 1_555
Na10 O45 2.545796 1_555
Na10 O24 2.631697 1_554
Na10 O60 2.659509 1_555
Na10 O46 2.671850 1_565
Na10 O9 2.845776 1_555
Na11 O60 2.435113 1_555
Na11 O46 2.545797 1_455
Na11 O25 2.631694 1_554
Na11 O61 2.659512 1_555
Na11 O47 2.671842 1_555
Na11 O10 2.845775 1_555
Na12 O41 2.435115 1_555
Na12 O55 2.545805 1_555
Na12 O4 2.631714 1_555
Na12 O40 2.659504 1_655
Na12 O54 2.671841 1_555
Na12 O19 2.845756 1_556
Na13 O39 2.435122 1_655
Na13 O56 2.545788 1_555
Na13 O5 2.631717 1_555
Na13 O41 2.659511 1_545
Na13 O55 2.671840 1_555
Na13 O20 2.845752 1_556
Na14 O40 2.435123 1_545
Na14 O54 2.545802 1_555
Na14 O3 2.631715 1_555
Na14 O39 2.659502 1_555
Na14 O56 2.671857 1_555
Na14 O18 2.845759 1_556
Na15 O37 2.435122 1_545
Na15 O59 2.545788 1_555
Na15 O2 2.631717 1_555
Na15 O38 2.659511 1_655
Na15 O57 2.671840 1_555
Na15 O23 2.845752 1_555
Na16 O38 2.435115 1_555
Na16 O57 2.545805 1_555
Na16 O0 2.631714 1_555
Na16 O36 2.659504 1_545
Na16 O58 2.671841 1_555
Na16 O21 2.845756 1_555
Na17 O36 2.435123 1_655
Na17 O58 2.545802 1_555
Na17 O1 2.631715 1_555
Na17 O37 2.659502 1_555
Na17 O59 2.671857 1_555
Na17 O22 2.845759 1_555
Na18 O44 2.589227 1_445
Na18 O42 2.589227 1_455
Na18 O43 2.589227 1_555
Na18 O38 2.659630 1_555
Na18 O36 2.659630 1_545
Na18 O37 2.659630 1_445
Na19 O45 2.589227 1_446
Na19 O47 2.589227 1_556
Na19 O46 2.589227 1_456
Na19 O39 2.659630 1_555
Na19 O41 2.659630 1_445
Na19 O40 2.659630 1_545
Na20 O56 2.589227 1_555
Na20 O54 2.589227 1_555
Na20 O55 2.589227 1_555
Na20 O50 2.659630 1_555
Na20 O48 2.659630 1_555
Na20 O49 2.659630 1_555
Na21 O57 2.589227 1_555
Na21 O59 2.589227 1_555
Na21 O58 2.589227 1_555
Na21 O51 2.659630 1_555
Na21 O53 2.659630 1_555
Na21 O52 2.659630 1_555
Na22 O68 2.589227 1_555
Na22 O66 2.589227 1_555
Na22 O67 2.589227 1_555
Na22 O62 2.659630 1_555
Na22 O60 2.659630 1_555
Na22 O61 2.659630 1_555
Na23 O69 2.589227 1_555
Na23 O71 2.589227 1_555
Na23 O70 2.589227 1_555
Na23 O63 2.659630 1_555
Na23 O65 2.659630 1_555
Na23 O64 2.659630 1_555
Ca0 O1 2.199622 1_445
Ca0 O2 2.199622 1_455
Ca0 O0 2.199622 1_555
Ca0 O38 2.292491 1_555
Ca0 O36 2.292491 1_545
Ca0 O37 2.292491 1_445
Ca1 O4 2.199622 1_445
Ca1 O3 2.199622 1_555
Ca1 O5 2.199622 1_455
Ca1 O39 2.292491 1_555
Ca1 O41 2.292491 1_445
Ca1 O40 2.292491 1_545
Ca2 O13 2.199622 1_555
Ca2 O14 2.199622 1_555
Ca2 O12 2.199622 1_555
Ca2 O50 2.292491 1_555
Ca2 O48 2.292491 1_555
Ca2 O49 2.292491 1_555
Ca3 O16 2.199622 1_555
Ca3 O15 2.199622 1_555
Ca3 O17 2.199622 1_555
Ca3 O51 2.292491 1_555
Ca3 O53 2.292491 1_555
Ca3 O52 2.292491 1_555
Ca4 O25 2.199622 1_554
Ca4 O26 2.199622 1_554
Ca4 O24 2.199622 1_554
Ca4 O62 2.292491 1_555
Ca4 O60 2.292491 1_555
Ca4 O61 2.292491 1_555
Ca5 O28 2.199622 1_555
Ca5 O27 2.199622 1_555
Ca5 O29 2.199622 1_555
Ca5 O63 2.292491 1_555
Ca5 O65 2.292491 1_555
Ca5 O64 2.292491 1_555
O0 P0 1.526422 1_545
O1 P1 1.526422 1_555
O2 P2 1.526422 1_655
O3 P3 1.526422 1_555
O4 P4 1.526422 1_655
O5 P5 1.526422 1_545
O6 P5 1.576572 1_555
O6 Sc0 2.112345 1_665
O7 P3 1.576572 1_555
O7 Sc0 2.112345 1_555
O8 P4 1.576572 1_555
O8 Sc0 2.112345 1_565
O9 P1 1.576572 1_555
O9 Sc1 2.112345 1_665
O10 P2 1.576572 1_555
O10 Sc1 2.112345 1_555
O11 P0 1.576572 1_555
O11 Sc1 2.112345 1_565
O12 P6 1.526422 1_555
O13 P7 1.526422 1_555
O14 P8 1.526422 1_555
O15 P9 1.526422 1_555
O16 P10 1.526422 1_555
O17 P11 1.526422 1_555
O18 P11 1.576572 1_555
O18 Sc2 2.112345 1_554
O19 P9 1.576572 1_555
O19 Sc2 2.112345 1_554
O20 P10 1.576572 1_555
O20 Sc2 2.112345 1_554
O21 P7 1.576572 1_555
O21 Sc3 2.112345 1_555
O22 P8 1.576572 1_555
O22 Sc3 2.112345 1_555
O23 P6 1.576572 1_555
O23 Sc3 2.112345 1_555
O24 P12 1.526422 1_555
O25 P13 1.526422 1_555
O26 P14 1.526422 1_555
O27 P15 1.526422 1_555
O28 P16 1.526422 1_555
O29 P17 1.526422 1_555
O30 P17 1.576572 1_555
O30 Sc4 2.112345 1_555
O31 P15 1.576572 1_555
O31 Sc4 2.112345 1_555
O32 P16 1.576572 1_555
O32 Sc4 2.112345 1_555
O33 P13 1.576572 1_555
O33 Sc5 2.112345 1_555
O34 P14 1.576572 1_555
O34 Sc5 2.112345 1_555
O35 P12 1.576572 1_555
O35 Sc5 2.112345 1_555
O36 P17 1.542470 1_555
O37 P15 1.542479 1_555
O38 P16 1.542475 1_555
O39 P13 1.542479 1_555
O40 P14 1.542470 1_555
O41 P12 1.542475 1_555
O42 P6 1.576159 1_555
O42 Sc0 2.194287 1_655
O43 P7 1.576168 1_555
O43 Sc0 2.194287 1_555
O44 P8 1.576164 1_555
O44 Sc0 2.194287 1_665
O45 P9 1.576168 1_555
O45 Sc1 2.194287 1_665
O46 P10 1.576159 1_555
O46 Sc1 2.194287 1_655
O47 P11 1.576164 1_555
O47 Sc1 2.194287 1_555
O48 P5 1.542470 1_545
O49 P3 1.542479 1_555
O50 P4 1.542475 1_655
O51 P1 1.542479 1_555
O52 P2 1.542470 1_655
O53 P0 1.542475 1_545
O54 P12 1.576172 1_555
O54 Sc2 2.194287 1_555
O55 P13 1.576154 1_655
O55 Sc2 2.194287 1_555
O56 P14 1.576162 1_545
O56 Sc2 2.194287 1_555
O57 P15 1.576154 1_545
O57 Sc3 2.194287 1_555
O58 P16 1.576172 1_555
O58 Sc3 2.194287 1_555
O59 P17 1.576162 1_655
O59 Sc3 2.194287 1_555
O60 P11 1.542483 1_555
O61 P9 1.542464 1_455
O62 P10 1.542471 1_565
O63 P7 1.542464 1_565
O64 P8 1.542483 1_555
O65 P6 1.542471 1_455
O66 P0 1.576159 1_555
O66 Sc4 2.194287 1_555
O67 P1 1.576168 1_555
O67 Sc4 2.194287 1_555
O68 P2 1.576164 1_555
O68 Sc4 2.194287 1_555
O69 P3 1.576168 1_555
O69 Sc5 2.194287 1_555
O70 P4 1.576159 1_555
O70 Sc5 2.194287 1_555
O71 P5 1.576164 1_555
O71 Sc5 2.194287 1_555
