# generated using pymatgen
data_EuMg(ReO4)2
_symmetry_space_group_name_H-M   'P 1'
_cell_length_a   5.97061522
_cell_length_b   5.97281602
_cell_length_c   6.34020000
_cell_angle_alpha   89.99934491
_cell_angle_beta   89.99918005
_cell_angle_gamma   120.01910300
_symmetry_Int_Tables_number   1
_chemical_formula_structural   EuMg(ReO4)2
_chemical_formula_sum   'Eu1 Mg1 Re2 O8'
_cell_volume   195.77091900
_cell_formula_units_Z   1
loop_
 _symmetry_equiv_pos_site_id
 _symmetry_equiv_pos_as_xyz
  1  'x, y, z'
loop_
 _atom_site_type_symbol
 _atom_site_label
 _atom_site_symmetry_multiplicity
 _atom_site_fract_x
 _atom_site_fract_y
 _atom_site_fract_z
 _atom_site_occupancy
  Eu  Eu0  1  0.99997800  0.99996200  0.99998800  1
  Mg  Mg0  1  0.99999500  0.99998300  0.50000000  1
  Re  Re0  1  0.33316000  0.66649800  0.36015900  1
  Re  Re1  1  0.66684600  0.33361200  0.63959800  1
  O  O0  1  0.16228700  0.83781000  0.28166600  1
  O  O1  1  0.16220600  0.32441600  0.28175200  1
  O  O2  1  0.33285400  0.66648300  0.63643200  1
  O  O3  1  0.32473300  0.16250400  0.71830400  1
  O  O4  1  0.67524900  0.83749200  0.28174300  1
  O  O5  1  0.66707500  0.33356500  0.36371500  1
  O  O6  1  0.83771600  0.67551400  0.71827400  1
  O  O7  1  0.83769800  0.16216100  0.71837000  1
loop_
_geom_bond_atom_site_label_1
_geom_bond_atom_site_label_2
_geom_bond_distance
_geom_bond_site_symmetry_2
Eu0 O7 2.450431 1_565
Eu0 O0 2.450645 1_656
Eu0 O6 2.450669 1_555
Eu0 O1 2.450922 1_666
Eu0 O3 2.451140 1_665
Eu0 O4 2.451376 1_556
Mg0 O1 2.174806 1_665
Mg0 O6 2.175054 1_555
Mg0 O0 2.175437 1_655
Mg0 O7 2.175622 1_565
Mg0 O4 2.175661 1_555
Mg0 O3 2.175819 1_665
O0 Re0 1.838474 1_555
O1 Re0 1.837644 1_555
O2 Re0 1.751627 1_555
O3 Re1 1.837663 1_555
O4 Re0 1.837045 1_555
O5 Re1 1.749154 1_555
O6 Re1 1.837210 1_555
O7 Re1 1.839541 1_555
