# generated using pymatgen
data_InO
_symmetry_space_group_name_H-M   'P 1'
_cell_length_a   3.45361400
_cell_length_b   3.45361360
_cell_length_c   15.87710000
_cell_angle_alpha   90.00000000
_cell_angle_beta   90.00000000
_cell_angle_gamma   120.00000381
_symmetry_Int_Tables_number   1
_chemical_formula_structural   InO
_chemical_formula_sum   'In2 O2'
_cell_volume   164.00207297
_cell_formula_units_Z   2
loop_
 _symmetry_equiv_pos_site_id
 _symmetry_equiv_pos_as_xyz
  1  'x, y, z'
loop_
 _atom_site_type_symbol
 _atom_site_label
 _atom_site_symmetry_multiplicity
 _atom_site_fract_x
 _atom_site_fract_y
 _atom_site_fract_z
 _atom_site_occupancy
  In  In0  1  0.66666700  0.33333300  0.59002100  1
  In  In1  1  0.66666700  0.33333300  0.40997900  1
  O  O0  1  0.00000000  0.00000000  0.63986700  1
  O  O1  1  0.00000000  0.00000000  0.36013300  1
loop_
_geom_bond_atom_site_label_1
_geom_bond_atom_site_label_2
_geom_bond_distance
_geom_bond_site_symmetry_2
In0 O0 2.145259 1_655
In0 O0 2.145262 1_665
In0 O0 2.145262 1_555
In1 O1 2.145259 1_655
In1 O1 2.145262 1_665
In1 O1 2.145262 1_555
