# generated using pymatgen
data_Na5Ti2Al2SiP5O24
_symmetry_space_group_name_H-M   'P 1'
_cell_length_a   8.66938684
_cell_length_b   8.65318443
_cell_length_c   21.76174521
_cell_angle_alpha   90.04905915
_cell_angle_beta   89.95296505
_cell_angle_gamma   119.90370080
_symmetry_Int_Tables_number   1
_chemical_formula_structural   Na5Ti2Al2SiP5O24
_chemical_formula_sum   'Na15 Ti6 Al6 Si3 P15 O72'
_cell_volume   1415.17159175
_cell_formula_units_Z   3
loop_
 _symmetry_equiv_pos_site_id
 _symmetry_equiv_pos_as_xyz
  1  'x, y, z'
loop_
 _atom_site_type_symbol
 _atom_site_label
 _atom_site_symmetry_multiplicity
 _atom_site_fract_x
 _atom_site_fract_y
 _atom_site_fract_z
 _atom_site_occupancy
  Na  Na0  1  0.00061592  0.63596908  0.25175395  1
  Na  Na1  1  0.63234278  0.63685610  0.75115205  1
  Na  Na2  1  0.36513331  0.00067343  0.75300001  1
  Na  Na3  1  0.66526062  0.96625576  0.58377740  1
  Na  Na4  1  0.29903874  0.96766527  0.08465304  1
  Na  Na5  1  0.67118668  0.69970705  0.08255785  1
  Na  Na6  1  0.03219654  0.33474475  0.08506037  1
  Na  Na7  1  0.96954483  0.30031789  0.41515951  1
  Na  Na8  1  0.33724543  0.03443612  0.41717997  1
  Na  Na9  1  0.00090592  0.98783578  0.49973197  1
  Na  Na10  1  0.00054372  0.99590354  0.99686661  1
  Na  Na11  1  0.67893559  0.33503561  0.83864382  1
  Na  Na12  1  0.65462381  0.33471882  0.33323800  1
  Na  Na13  1  0.34504022  0.66819848  0.17208590  1
  Na  Na14  1  0.31227046  0.64769699  0.66729486  1
  Ti  Ti0  1  0.99309946  0.00177915  0.85707066  1
  Ti  Ti1  1  0.00586616  0.99896518  0.64621260  1
  Ti  Ti2  1  0.66943342  0.32578040  0.68587712  1
  Ti  Ti3  1  0.66909673  0.33318797  0.18949337  1
  Ti  Ti4  1  0.32770539  0.66666140  0.01643932  1
  Ti  Ti5  1  0.33219053  0.66796511  0.51991668  1
  Al  Al0  1  0.99668850  0.99577235  0.35158417  1
  Al  Al1  1  0.99852256  0.99640659  0.15012589  1
  Al  Al2  1  0.66839960  0.33786633  0.97824272  1
  Al  Al3  1  0.66337077  0.33923638  0.47914820  1
  Al  Al4  1  0.33921392  0.66645348  0.31309271  1
  Al  Al5  1  0.33232444  0.66679485  0.81522209  1
  Si  Si0  1  0.70678015  0.99857289  0.75049490  1
  Si  Si1  1  0.37543305  0.04823957  0.57899458  1
  Si  Si2  1  0.95225791  0.62521718  0.08246896  1
  P  P0  1  0.28685364  0.99856225  0.25226995  1
  P  P1  1  0.70918798  0.71875836  0.25061323  1
  P  P2  1  0.00595062  0.28589781  0.25124841  1
  P  P3  1  0.28422455  0.29312138  0.75202513  1
  P  P4  1  0.00297460  0.70862558  0.75259270  1
  P  P5  1  0.95476415  0.33574681  0.57951561  1
  P  P6  1  0.66697854  0.61688049  0.58192710  1
  P  P7  1  0.67168972  0.04986550  0.08219092  1
  P  P8  1  0.37877199  0.32883316  0.08260731  1
  P  P9  1  0.61886489  0.65778403  0.91541344  1
  P  P10  1  0.04004428  0.38107684  0.91495944  1
  P  P11  1  0.34113126  0.96467494  0.91483341  1
  P  P12  1  0.62651991  0.95459858  0.41420780  1
  P  P13  1  0.33764220  0.38022482  0.41373086  1
  P  P14  1  0.03891698  0.66598023  0.41383843  1
  O  O0  1  0.20034199  0.02562518  0.30998085  1
  O  O1  1  0.83635936  0.80372776  0.30509845  1
  O  O2  1  0.97822279  0.17350953  0.30908869  1
  O  O3  1  0.20399400  0.16681006  0.80719916  1
  O  O4  1  0.96802138  0.79773144  0.80793677  1
  O  O5  1  0.83779902  0.02999570  0.80882268  1
  O  O6  1  0.79387515  0.96087986  0.68915765  1
  O  O7  1  0.17030904  0.20354327  0.69377442  1
  O  O8  1  0.04087967  0.83087056  0.69465175  1
  O  O9  1  0.79074407  0.82381491  0.19037581  1
  O  O10  1  0.02724752  0.19951966  0.19214159  1
  O  O11  1  0.17011924  0.96557113  0.19389966  1
  O  O12  1  0.86759259  0.36417783  0.63798429  1
  O  O13  1  0.50007178  0.13245557  0.64162780  1
  O  O14  1  0.64073778  0.51200921  0.64253926  1
  O  O15  1  0.87012734  0.49785590  0.14477762  1
  O  O16  1  0.62918109  0.12942277  0.13982435  1
  O  O17  1  0.50039912  0.36656531  0.13978709  1
  O  O18  1  0.45870935  0.28779644  0.02645425  1
  O  O19  1  0.81897919  0.53007571  0.02587126  1
  O  O20  1  0.70388168  0.16838093  0.02616084  1
  O  O21  1  0.46967541  0.16341401  0.51852046  1
  O  O22  1  0.69611255  0.52898306  0.52603735  1
  O  O23  1  0.83848115  0.30449217  0.52223370  1
  O  O24  1  0.53301500  0.68859935  0.97435543  1
  O  O25  1  0.15394822  0.46501057  0.97527684  1
  O  O26  1  0.31060937  0.84404446  0.97375570  1
  O  O27  1  0.54496076  0.84571124  0.47458747  1
  O  O28  1  0.30105150  0.46496959  0.47130960  1
  O  O29  1  0.16523564  0.70231524  0.47024254  1
  O  O30  1  0.12254713  0.62861047  0.35673222  1
  O  O31  1  0.49563049  0.86340425  0.36102859  1
  O  O32  1  0.36117392  0.49623905  0.35768547  1
  O  O33  1  0.13737376  0.50024877  0.86011423  1
  O  O34  1  0.36375138  0.87268731  0.85776754  1
  O  O35  1  0.50801146  0.63914615  0.85773168  1
  O  O36  1  0.02627000  0.83720990  0.40840732  1
  O  O37  1  0.81459293  0.97755645  0.40767674  1
  O  O38  1  0.16833402  0.18979076  0.40939272  1
  O  O39  1  0.02993236  0.19642231  0.91208204  1
  O  O40  1  0.16992818  0.97739898  0.91209166  1
  O  O41  1  0.80649533  0.82847309  0.91246419  1
  O  O42  1  0.96636998  0.16408226  0.58690208  1
  O  O43  1  0.17886097  0.02419254  0.58779246  1
  O  O44  1  0.83057497  0.80825828  0.58672692  1
  O  O45  1  0.97944272  0.82464195  0.09173429  1
  O  O46  1  0.83858296  0.03059921  0.09087528  1
  O  O47  1  0.18929458  0.16737171  0.09195754  1
  O  O48  1  0.68521558  0.17615813  0.74694698  1
  O  O49  1  0.47393168  0.31596442  0.74469017  1
  O  O50  1  0.83105645  0.52803538  0.74490460  1
  O  O51  1  0.69266048  0.52886872  0.24528540  1
  O  O52  1  0.83565088  0.30780870  0.24693533  1
  O  O53  1  0.47342183  0.16598121  0.24561391  1
  O  O54  1  0.63362937  0.48957472  0.92189636  1
  O  O55  1  0.85598864  0.36051152  0.92266320  1
  O  O56  1  0.50897711  0.14549307  0.92400354  1
  O  O57  1  0.64868460  0.14542423  0.41990056  1
  O  O58  1  0.50367490  0.35817468  0.42030735  1
  O  O59  1  0.85590535  0.49618343  0.42348047  1
  O  O60  1  0.36147571  0.49953140  0.07753078  1
  O  O61  1  0.15330787  0.64651682  0.07773972  1
  O  O62  1  0.50590371  0.85888299  0.07743650  1
  O  O63  1  0.36135876  0.85059135  0.57614120  1
  O  O64  1  0.49977167  0.63952660  0.57667682  1
  O  O65  1  0.14099651  0.50094210  0.57587568  1
  O  O66  1  0.30266466  0.82725723  0.25806274  1
  O  O67  1  0.52340506  0.69783045  0.25818036  1
  O  O68  1  0.16816775  0.47824362  0.25598673  1
  O  O69  1  0.30482262  0.47892154  0.75847355  1
  O  O70  1  0.16973139  0.69157885  0.75899098  1
  O  O71  1  0.50999910  0.82300867  0.75779375  1
loop_
_geom_bond_atom_site_label_1
_geom_bond_atom_site_label_2
_geom_bond_distance
_geom_bond_site_symmetry_2
Na0 O66 2.300886 1_555
Na0 O51 2.353678 1_455
Na0 O68 2.440978 1_555
Na0 O52 2.463798 1_455
Na0 O30 2.532146 1_555
Na0 O15 2.603672 1_455
Na0 O1 2.745581 1_455
Na0 O11 2.775464 1_555
Na1 O71 2.333120 1_555
Na1 O50 2.343039 1_555
Na1 O49 2.411109 1_555
Na1 O69 2.466936 1_555
Na1 O35 2.561005 1_555
Na1 O14 2.613955 1_555
Na1 O6 2.780473 1_555
Na1 O4 2.810231 1_555
Na2 O70 2.350102 1_545
Na2 O49 2.408430 1_555
Na2 O48 2.412812 1_555
Na2 O71 2.424313 1_545
Na2 O34 2.532938 1_545
Na2 O13 2.685690 1_555
Na2 O3 2.721447 1_555
Na2 O8 2.749124 1_545
Na3 O42 2.300834 1_565
Na3 O63 2.311251 1_555
Na3 O44 2.425138 1_555
Na3 O64 2.455758 1_555
Na3 O6 2.561355 1_555
Na3 O27 2.595576 1_555
Na3 O13 2.784164 1_565
Na3 O23 2.869863 1_565
Na4 O47 2.356991 1_565
Na4 O62 2.410291 1_555
Na4 O45 2.410970 1_455
Na4 O61 2.416672 1_555
Na4 O11 2.622406 1_555
Na4 O26 2.660946 1_554
Na4 O18 2.715447 1_565
Na4 O16 2.756948 1_565
Na5 O45 2.338832 1_555
Na5 O60 2.363142 1_555
Na5 O62 2.435411 1_555
Na5 O46 2.488681 1_565
Na5 O9 2.573440 1_555
Na5 O24 2.622603 1_554
Na5 O19 2.680960 1_555
Na5 O17 2.792985 1_555
Na6 O46 2.314188 1_455
Na6 O61 2.362656 1_555
Na6 O47 2.437724 1_555
Na6 O60 2.479940 1_555
Na6 O10 2.599166 1_555
Na6 O25 2.628036 1_554
Na6 O15 2.761578 1_455
Na6 O20 2.780998 1_455
Na7 O59 2.353720 1_555
Na7 O38 2.354445 1_655
Na7 O57 2.413928 1_555
Na7 O37 2.426958 1_545
Na7 O2 2.572080 1_555
Na7 O23 2.599663 1_555
Na7 O30 2.773515 1_655
Na7 O28 2.775372 1_655
Na8 O36 2.372750 1_545
Na8 O57 2.372857 1_555
Na8 O58 2.429767 1_555
Na8 O38 2.438003 1_555
Na8 O21 2.479838 1_555
Na8 O0 2.602043 1_555
Na8 O29 2.747032 1_545
Na8 O31 2.754862 1_545
Na9 O43 2.381462 1_565
Na9 O44 2.427298 1_455
Na9 O36 2.444892 1_555
Na9 O42 2.542335 1_465
Na9 O37 2.547889 1_455
Na9 O38 2.549064 1_565
Na10 O40 2.411428 1_555
Na10 O41 2.423438 1_455
Na10 O39 2.458402 1_565
Na10 O45 2.495211 1_456
Na10 O46 2.580980 1_466
Na10 O47 2.596302 1_566
Na11 O55 2.326854 1_555
Na11 O54 2.396509 1_555
Na11 O56 2.429567 1_555
Na11 O48 2.438183 1_555
Na11 O50 2.548529 1_555
Na11 O49 2.660676 1_555
Na12 O58 2.367282 1_555
Na12 O53 2.439038 1_555
Na12 O51 2.459000 1_555
Na12 O57 2.482632 1_555
Na12 O52 2.530466 1_555
Na12 O59 2.534503 1_555
Na13 O67 2.361287 1_555
Na13 O68 2.423663 1_555
Na13 O66 2.455327 1_555
Na13 O60 2.566371 1_555
Na13 O62 2.572290 1_555
Na13 O61 2.589881 1_555
Na14 O65 2.428103 1_555
Na14 O69 2.446401 1_555
Na14 O70 2.472976 1_555
Na14 O63 2.541268 1_555
Na14 O71 2.554584 1_555
Na14 O64 2.577831 1_555
Al0 O1 1.847494 1_555
Al0 O2 1.869340 1_565
Al0 O0 1.883242 1_665
Al0 O37 1.938066 1_555
Al0 O36 1.957479 1_655
Al0 O38 2.030768 1_665
Al1 O10 1.883694 1_665
Al1 O9 1.886709 1_555
Al1 O11 1.894793 1_655
Al1 O45 1.898195 1_555
Al1 O46 2.021221 1_565
Al1 O47 2.021494 1_665
Al2 O19 1.838239 1_556
Al2 O54 1.927611 1_555
Al2 O56 1.944155 1_555
Al2 O20 1.945730 1_556
Al2 O18 1.950768 1_556
Al2 O55 1.955896 1_555
Al3 O21 1.822399 1_555
Al3 O22 1.830451 1_555
Al3 O23 1.931850 1_555
Al3 O58 1.952618 1_555
Al3 O59 1.958899 1_555
Al3 O57 2.067580 1_555
Al4 O32 1.851951 1_555
Al4 O31 1.877895 1_555
Al4 O67 1.901761 1_555
Al4 O66 1.978329 1_555
Al4 O30 1.980322 1_555
Al4 O68 1.996802 1_555
Al5 O33 1.859802 1_555
Al5 O35 1.897071 1_555
Al5 O34 1.902429 1_555
Al5 O71 1.919726 1_555
Al5 O70 1.958322 1_555
Al5 O69 1.958422 1_555
O0 P0 1.538726 1_545
O1 P1 1.534395 1_555
O2 P2 1.535062 1_655
O3 P3 1.537181 1_555
O3 Ti0 1.988973 1_455
O4 P4 1.538719 1_655
O4 Ti0 1.980529 1_565
O5 Si0 1.633733 1_545
O5 Ti0 1.818035 1_555
O6 Si0 1.643582 1_555
O6 Ti1 1.937378 1_655
O7 P3 1.555681 1_555
O7 Ti1 1.928833 1_545
O8 P4 1.572199 1_555
O8 Ti1 1.939697 1_555
O9 P1 1.550595 1_555
O10 P2 1.543636 1_555
O11 P0 1.559681 1_555
O12 P5 1.560084 1_555
O12 Ti2 1.891139 1_555
O13 Si1 1.664932 1_555
O13 Ti2 1.852582 1_555
O14 P6 1.552676 1_555
O14 Ti2 1.987686 1_555
O15 Si2 1.666943 1_555
O15 Ti3 1.880993 1_555
O16 P7 1.559964 1_555
O16 Ti3 1.945757 1_555
O17 P8 1.557235 1_555
O17 Ti3 1.953639 1_555
O18 P8 1.530636 1_555
O19 Si2 1.606846 1_555
O20 P7 1.527265 1_555
O21 Si1 1.606640 1_555
O22 P6 1.520210 1_555
O23 P5 1.540438 1_555
O24 P9 1.570360 1_555
O24 Ti4 1.924462 1_556
O25 P10 1.584598 1_555
O25 Ti4 1.869491 1_556
O26 P11 1.590634 1_555
O26 Ti4 1.862866 1_556
O27 P12 1.565426 1_555
O27 Ti5 1.977878 1_555
O28 P13 1.561453 1_555
O28 Ti5 1.949803 1_555
O29 P14 1.569389 1_555
O29 Ti5 1.945237 1_555
O30 P14 1.551194 1_555
O31 P12 1.535372 1_555
O32 P13 1.527887 1_555
O33 P10 1.527335 1_555
O34 P11 1.538764 1_555
O35 P9 1.540244 1_555
O36 P14 1.543915 1_555
O37 P12 1.547522 1_555
O38 P13 1.570690 1_555
O39 P10 1.557209 1_555
O39 Ti0 1.957765 1_455
O40 P11 1.543278 1_555
O40 Ti0 2.038174 1_465
O41 P9 1.560786 1_555
O41 Ti0 1.974864 1_565
O42 P5 1.546599 1_555
O42 Ti1 2.077564 1_645
O43 Si1 1.621750 1_555
O43 Ti1 1.893172 1_545
O44 P6 1.556577 1_555
O44 Ti1 2.051212 1_655
O45 Si2 1.633422 1_555
O46 P7 1.548526 1_555
O47 P8 1.550270 1_555
O48 Si0 1.639807 1_545
O48 Ti2 1.908159 1_555
O49 P3 1.563613 1_555
O49 Ti2 2.090692 1_555
O50 P4 1.539161 1_655
O50 Ti2 2.056779 1_555
O51 P1 1.580780 1_555
O51 Ti3 2.008724 1_555
O52 P2 1.582360 1_655
O52 Ti3 2.003833 1_555
O53 P0 1.549010 1_545
O53 Ti3 2.003747 1_555
O54 P9 1.530049 1_555
O55 P10 1.523928 1_655
O56 P11 1.528120 1_545
O57 P12 1.569144 1_545
O58 P13 1.550159 1_555
O59 P14 1.547813 1_655
O60 P8 1.561285 1_555
O60 Ti4 2.090642 1_555
O61 Si2 1.661916 1_455
O61 Ti4 1.957079 1_555
O62 P7 1.561787 1_565
O62 Ti4 2.086321 1_555
O63 Si1 1.653959 1_565
O63 Ti5 1.912353 1_555
O64 P6 1.560860 1_555
O64 Ti5 2.014180 1_555
O65 P5 1.534642 1_455
O65 Ti5 1.982495 1_555
O66 P0 1.560428 1_555
O67 P1 1.537145 1_555
O68 P2 1.557141 1_555
O69 P3 1.532929 1_555
O70 P4 1.531055 1_555
O71 Si0 1.630744 1_555
