# generated using pymatgen
data_Na14Ca2Zr6Si9(SO16)3
_symmetry_space_group_name_H-M   'P 1'
_cell_length_a   18.62846659
_cell_length_b   9.33781058
_cell_length_c   22.98754138
_cell_angle_alpha   90.05397339
_cell_angle_beta   90.02287711
_cell_angle_gamma   120.05992029
_symmetry_Int_Tables_number   1
_chemical_formula_structural   Na14Ca2Zr6Si9(SO16)3
_chemical_formula_sum   'Na42 Ca6 Zr18 Si27 S9 O144'
_cell_volume   3460.84674226
_cell_formula_units_Z   3
loop_
 _symmetry_equiv_pos_site_id
 _symmetry_equiv_pos_as_xyz
  1  'x, y, z'
loop_
 _atom_site_type_symbol
 _atom_site_label
 _atom_site_symmetry_multiplicity
 _atom_site_fract_x
 _atom_site_fract_y
 _atom_site_fract_z
 _atom_site_occupancy
  Na  Na0  1  0.31140966  0.00385445  0.24409578  1
  Na  Na1  1  0.81723244  0.01714019  0.24653939  1
  Na  Na2  1  0.18829802  0.36615002  0.25379376  1
  Na  Na3  1  0.69587738  0.36857455  0.24922442  1
  Na  Na4  1  0.99059141  0.61796079  0.25596711  1
  Na  Na5  1  0.49536161  0.63760795  0.24702288  1
  Na  Na6  1  0.31678213  0.61701462  0.74036864  1
  Na  Na7  1  0.81199729  0.62130440  0.73959045  1
  Na  Na8  1  0.99380347  0.34494076  0.74080199  1
  Na  Na9  1  0.49261661  0.36856037  0.75177247  1
  Na  Na10  1  0.19573646  0.02676388  0.74417349  1
  Na  Na11  1  0.69039542  0.00929043  0.74934441  1
  Na  Na12  1  0.15714553  0.34079414  0.58577446  1
  Na  Na13  1  0.66062616  0.35699783  0.57664831  1
  Na  Na14  1  0.01042611  0.69055620  0.57854357  1
  Na  Na15  1  0.51271772  0.69290185  0.56973707  1
  Na  Na16  1  0.32719788  0.96475903  0.58373967  1
  Na  Na17  1  0.83153305  0.95486982  0.57133458  1
  Na  Na18  1  0.16026317  0.96497882  0.08409281  1
  Na  Na19  1  0.65907972  0.97372709  0.08934947  1
  Na  Na20  1  0.33378135  0.70557549  0.08501492  1
  Na  Na21  1  0.82652178  0.68915676  0.08787709  1
  Na  Na22  1  0.01143765  0.32852777  0.07498729  1
  Na  Na23  1  0.51388816  0.33488265  0.08371635  1
  Na  Na24  1  0.98524171  0.67081871  0.91902091  1
  Na  Na25  1  0.34961336  0.03783372  0.91200361  1
  Na  Na26  1  0.16085701  0.29138759  0.91431916  1
  Na  Na27  1  0.48880850  0.30485328  0.41893755  1
  Na  Na28  1  0.66849149  0.03170320  0.41344603  1
  Na  Na29  1  0.84776316  0.67353126  0.41934637  1
  Na  Na30  1  0.99808179  0.99612704  0.49614819  1
  Na  Na31  1  0.49074832  0.97929188  0.49261782  1
  Na  Na32  1  0.98727769  -0.00043538  0.99431774  1
  Na  Na33  1  0.50922030  0.01936074  0.00336910  1
  Na  Na34  1  0.33754679  0.33872405  0.82458198  1
  Na  Na35  1  0.82626693  0.31791712  0.83087277  1
  Na  Na36  1  0.32651320  0.33453763  0.33202623  1
  Na  Na37  1  0.83680773  0.32875250  0.32925455  1
  Na  Na38  1  0.17478026  0.68175881  0.17119937  1
  Na  Na39  1  0.67154910  0.68050344  0.16857561  1
  Na  Na40  1  0.16981584  0.66041746  0.66026865  1
  Na  Na41  1  0.67737019  0.66917706  0.66571624  1
  Ca  Ca0  1  0.32918119  0.33392794  0.68406545  1
  Ca  Ca1  1  0.83644716  0.33369191  0.68141353  1
  Ca  Ca2  1  0.33614192  0.33667487  0.18315651  1
  Ca  Ca3  1  0.82869059  0.32350769  0.18529807  1
  Ca  Ca4  1  0.16507502  0.67102352  0.01208719  1
  Ca  Ca5  1  0.66923900  0.66548563  0.50984417  1
  Zr  Zr0  1  0.99888046  0.99777086  0.35140774  1
  Zr  Zr1  1  0.49597708  0.98225138  0.35520651  1
  Zr  Zr2  1  0.99480995  0.00758795  0.85513129  1
  Zr  Zr3  1  0.50437797  0.00951449  0.84987957  1
  Zr  Zr4  1  0.99762352  0.01112030  0.64390677  1
  Zr  Zr5  1  0.49611730  0.98819424  0.65346205  1
  Zr  Zr6  1  0.99575712  0.00313122  0.15443113  1
  Zr  Zr7  1  0.49919751  0.98692513  0.14586405  1
  Zr  Zr8  1  0.34232093  0.32808293  0.98116654  1
  Zr  Zr9  1  0.82835324  0.32110138  0.97975693  1
  Zr  Zr10  1  0.32840576  0.33544053  0.47992553  1
  Zr  Zr11  1  0.84287858  0.34937790  0.47741457  1
  Zr  Zr12  1  0.66805794  0.65660188  0.01644242  1
  Zr  Zr13  1  0.16810736  0.67909736  0.51576818  1
  Zr  Zr14  1  0.16647140  0.68159828  0.31337059  1
  Zr  Zr15  1  0.67141174  0.67787489  0.32084948  1
  Zr  Zr16  1  0.16522211  0.66840675  0.81660053  1
  Zr  Zr17  1  0.66635422  0.65134287  0.81308856  1
  Si  Si0  1  0.14629904  0.00099949  0.24873371  1
  Si  Si1  1  0.64443305  0.99053903  0.25208687  1
  Si  Si2  1  0.35032875  0.70686050  0.24866197  1
  Si  Si3  1  0.84884227  0.70393401  0.25251196  1
  Si  Si4  1  0.00456745  0.30135187  0.25186576  1
  Si  Si5  1  0.14425151  0.29502641  0.75290055  1
  Si  Si6  1  0.64764527  0.29441009  0.74749909  1
  Si  Si7  1  0.50373656  0.70861814  0.75329954  1
  Si  Si8  1  0.35066452  0.99426251  0.75358402  1
  Si  Si9  1  0.85020067  0.99391456  0.74923443  1
  Si  Si10  1  0.98473012  0.33959284  0.58448835  1
  Si  Si11  1  0.18505200  0.03577586  0.58645856  1
  Si  Si12  1  0.33550046  0.63733362  0.58416590  1
  Si  Si13  1  0.83136955  0.63186992  0.58710177  1
  Si  Si14  1  0.48408660  0.63139045  0.08351412  1
  Si  Si15  1  0.33259642  0.02749984  0.08653706  1
  Si  Si16  1  0.83602903  0.03365535  0.08329280  1
  Si  Si17  1  0.68512589  0.33365415  0.08565185  1
  Si  Si18  1  0.81424300  0.65994354  0.91628027  1
  Si  Si19  1  0.01547138  0.37027437  0.92007942  1
  Si  Si20  1  0.51977002  0.36556544  0.91577870  1
  Si  Si21  1  0.16658507  0.97098498  0.91812174  1
  Si  Si22  1  0.31483437  0.96877109  0.41643446  1
  Si  Si23  1  0.82117615  0.97594087  0.41988998  1
  Si  Si24  1  0.66524947  0.36409935  0.41794824  1
  Si  Si25  1  0.02073183  0.67512828  0.41546964  1
  Si  Si26  1  0.51510342  0.65946043  0.41968729  1
  S  S0  1  0.50311479  0.29210088  0.25117632  1
  S  S1  1  0.00311190  0.71333088  0.75200423  1
  S  S2  1  0.48094014  0.32955773  0.58419977  1
  S  S3  1  0.68117640  0.03499704  0.58359636  1
  S  S4  1  0.98041615  0.63193351  0.08344436  1
  S  S5  1  0.18303163  0.32867369  0.08182091  1
  S  S6  1  0.31662275  0.66490419  0.91628136  1
  S  S7  1  0.66564159  0.95764382  0.91626412  1
  S  S8  1  0.16699110  0.37570580  0.41605381  1
  O  O0  1  0.09431414  0.01556654  0.30276822  1
  O  O1  1  0.59405617  0.00812316  0.30691583  1
  O  O2  1  0.41091559  0.81619705  0.30149452  1
  O  O3  1  0.90695839  0.80421658  0.30835004  1
  O  O4  1  0.49508806  0.19323228  0.30321985  1
  O  O5  1  0.99433499  0.17538035  0.30381262  1
  O  O6  1  0.09547576  0.17910505  0.80878289  1
  O  O7  1  0.59500670  0.17784923  0.80324962  1
  O  O8  1  0.49332393  0.81242534  0.80680585  1
  O  O9  1  0.99587189  0.79558104  0.80462245  1
  O  O10  1  0.40668625  0.00764891  0.81108066  1
  O  O11  1  0.91035212  0.00642443  0.80289965  1
  O  O12  1  0.39672218  0.96803582  0.69557134  1
  O  O13  1  0.89466636  0.96970141  0.69051518  1
  O  O14  1  0.08706570  0.20562220  0.69424063  1
  O  O15  1  0.58954268  0.20420534  0.68922250  1
  O  O16  1  0.01317342  0.81157236  0.69900580  1
  O  O17  1  0.51555752  0.82261611  0.69363042  1
  O  O18  1  0.39355826  0.81652380  0.18837803  1
  O  O19  1  0.89544596  0.82301896  0.19363396  1
  O  O20  1  0.01654829  0.21332111  0.19066140  1
  O  O21  1  0.51036463  0.20902949  0.19749211  1
  O  O22  1  0.09055062  0.97581703  0.18808841  1
  O  O23  1  0.58842499  0.97185286  0.19251437  1
  O  O24  1  0.44173581  0.34428126  0.63744501  1
  O  O25  1  0.95877179  0.38361614  0.64607411  1
  O  O26  1  0.23824078  0.09038586  0.64582820  1
  O  O27  1  0.72850919  0.10901318  0.63739238  1
  O  O28  1  0.31659178  0.53869775  0.64482964  1
  O  O29  1  0.81892416  0.52956867  0.64639886  1
  O  O30  1  0.45563080  0.52851155  0.14342089  1
  O  O31  1  0.94096470  0.53742110  0.13610795  1
  O  O32  1  0.31439108  0.10512127  0.14316747  1
  O  O33  1  0.81648446  0.09556933  0.14351813  1
  O  O34  1  0.23167200  0.34987104  0.13473847  1
  O  O35  1  0.73930751  0.38598300  0.14428156  1
  O  O36  1  0.22613798  0.31377212  0.02898934  1
  O  O37  1  0.73563661  0.30443014  0.03141339  1
  O  O38  1  0.41601557  0.52827648  0.03062157  1
  O  O39  1  0.92942058  0.54824369  0.03029704  1
  O  O40  1  0.34315346  0.14894328  0.02791533  1
  O  O41  1  0.85173654  0.16657068  0.02984320  1
  O  O42  1  0.23617999  0.16771888  0.53310928  1
  O  O43  1  0.72364029  0.13678496  0.53187887  1
  O  O44  1  0.35135515  0.53524503  0.53136826  1
  O  O45  1  0.84215903  0.53236061  0.52991643  1
  O  O46  1  0.42861153  0.30885658  0.53174290  1
  O  O47  1  0.91733477  0.30916250  0.53280061  1
  O  O48  1  0.28152230  0.69194491  0.96977853  1
  O  O49  1  0.77023567  0.68789858  0.97313751  1
  O  O50  1  0.06822626  0.43216731  0.97940933  1
  O  O51  1  0.57392798  0.46112381  0.97297965  1
  O  O52  1  0.14878709  0.86742571  0.97735979  1
  O  O53  1  0.65795487  0.86195875  0.96908611  1
  O  O54  1  0.27110524  0.85307022  0.47356346  1
  O  O55  1  0.78693271  0.86651403  0.47783402  1
  O  O56  1  0.15980512  0.45735195  0.46917242  1
  O  O57  1  0.64092500  0.42280883  0.47694442  1
  O  O58  1  0.07474317  0.68498354  0.47290196  1
  O  O59  1  0.56604299  0.69897216  0.47963870  1
  O  O60  1  0.06463936  0.64904493  0.35741301  1
  O  O61  1  0.56447417  0.63455707  0.36342072  1
  O  O62  1  0.25807479  0.87456141  0.35872758  1
  O  O63  1  0.75703082  0.87597474  0.36333389  1
  O  O64  1  0.17699736  0.47536541  0.36323368  1
  O  O65  1  0.68150304  0.49287505  0.36251453  1
  O  O66  1  0.06829325  0.49804501  0.86491431  1
  O  O67  1  0.56332207  0.47495914  0.85718311  1
  O  O68  1  0.18442217  0.87468777  0.86300561  1
  O  O69  1  0.67485493  0.87793717  0.86329581  1
  O  O70  1  0.26218606  0.64534949  0.86499096  1
  O  O71  1  0.75734855  0.64094588  0.85877852  1
  O  O72  1  0.00778408  0.83611475  0.41373514  1
  O  O73  1  0.50527651  0.82371899  0.40962355  1
  O  O74  1  0.41032527  0.00320383  0.41116817  1
  O  O75  1  0.91214230  0.99383883  0.40947460  1
  O  O76  1  0.09380311  0.20862916  0.41273616  1
  O  O77  1  0.58534304  0.17942596  0.40516506  1
  O  O78  1  0.00568770  0.18693644  0.90959275  1
  O  O79  1  0.50266449  0.17311047  0.91465256  1
  O  O80  1  0.08459285  0.98801864  0.90656264  1
  O  O81  1  0.59153250  0.97844382  0.91313682  1
  O  O82  1  0.39999402  0.81207059  0.90923107  1
  O  O83  1  0.90983970  0.81701964  0.91120641  1
  O  O84  1  0.48778581  0.17480003  0.58592697  1
  O  O85  1  0.98923672  0.16516377  0.58530508  1
  O  O86  1  0.09310199  0.02068310  0.59011567  1
  O  O87  1  0.59762658  0.02706666  0.58603870  1
  O  O88  1  0.42158502  0.82584523  0.58545479  1
  O  O89  1  0.92100708  0.81282579  0.58806402  1
  O  O90  1  0.48779926  0.81349289  0.08506886  1
  O  O91  1  0.98806867  0.80037981  0.08489813  1
  O  O92  1  0.42280743  0.03188884  0.08685809  1
  O  O93  1  0.92235235  0.01778172  0.08468625  1
  O  O94  1  0.10016019  0.17087685  0.08391164  1
  O  O95  1  0.59300510  0.16466912  0.08858156  1
  O  O96  1  0.34512657  0.16107050  0.75244095  1
  O  O97  1  0.84263590  0.15938933  0.75025241  1
  O  O98  1  0.23640539  0.31874435  0.75273333  1
  O  O99  1  0.73859966  0.31352180  0.75038174  1
  O  O100  1  0.42334395  0.52590240  0.75023337  1
  O  O101  1  0.93040028  0.54525412  0.74996479  1
  O  O102  1  0.34259377  0.52607806  0.24972754  1
  O  O103  1  0.84417214  0.52712600  0.25095787  1
  O  O104  1  0.42886412  0.31096102  0.24889866  1
  O  O105  1  0.92447222  0.32398761  0.24909665  1
  O  O106  1  0.23833473  0.16187972  0.24990803  1
  O  O107  1  0.73608577  0.15207173  0.25239171  1
  O  O108  1  0.31917972  0.50871397  0.91947839  1
  O  O109  1  0.82473829  0.49548097  0.92418787  1
  O  O110  1  0.42499873  0.34269136  0.92074037  1
  O  O111  1  0.92607145  0.36588760  0.92145433  1
  O  O112  1  0.24969199  0.15983721  0.92202334  1
  O  O113  1  0.74150079  0.12616798  0.92010294  1
  O  O114  1  0.32418780  0.15305303  0.42487911  1
  O  O115  1  0.81897672  0.14952823  0.42261153  1
  O  O116  1  0.24351018  0.36080013  0.42029310  1
  O  O117  1  0.74981698  0.35029207  0.42319282  1
  O  O118  1  0.42454259  0.48582148  0.42202240  1
  O  O119  1  0.92643652  0.51178361  0.42020293  1
  O  O120  1  0.17049842  0.47244732  0.07771247  1
  O  O121  1  0.66897960  0.49106733  0.07367850  1
  O  O122  1  0.06410553  0.65049176  0.07952870  1
  O  O123  1  0.57864664  0.66974034  0.06946194  1
  O  O124  1  0.25558910  0.83830187  0.08001687  1
  O  O125  1  0.75476757  0.84924762  0.07128545  1
  O  O126  1  0.16982372  0.84707469  0.57412828  1
  O  O127  1  0.66694182  0.86452095  0.57984371  1
  O  O128  1  0.25448117  0.66014208  0.57260277  1
  O  O129  1  0.75181305  0.66041930  0.58311289  1
  O  O130  1  0.07998413  0.49039461  0.57103829  1
  O  O131  1  0.56406719  0.47745420  0.58000217  1
  O  O132  1  0.15084212  0.82706176  0.25199860  1
  O  O133  1  0.64662238  0.81451701  0.25486117  1
  O  O134  1  0.25908343  0.69395814  0.25372960  1
  O  O135  1  0.75689491  0.69138208  0.25447318  1
  O  O136  1  0.09240002  0.47891563  0.25624737  1
  O  O137  1  0.57986003  0.45803985  0.25370738  1
  O  O138  1  0.14930075  0.47905976  0.75826572  1
  O  O139  1  0.65129218  0.47571894  0.75160577  1
  O  O140  1  0.08116702  0.70097178  0.75582605  1
  O  O141  1  0.59096086  0.70535335  0.75786823  1
  O  O142  1  0.25890609  0.82195267  0.75691958  1
  O  O143  1  0.75855410  0.82513482  0.75485067  1
loop_
_geom_bond_atom_site_label_1
_geom_bond_atom_site_label_2
_geom_bond_distance
_geom_bond_site_symmetry_2
Na0 O106 2.461801 1_555
Na0 O32 2.496342 1_555
Na0 O134 2.559017 1_545
Na0 O104 2.595489 1_555
Na0 O132 2.599867 1_545
Na0 O62 2.862674 1_545
Na1 O107 2.408021 1_555
Na1 O33 2.481613 1_555
Na1 O105 2.543496 1_555
Na1 O135 2.669374 1_545
Na1 O133 2.773876 1_545
Na1 O63 2.954933 1_545
Na2 O136 2.487520 1_555
Na2 O102 2.490136 1_555
Na2 O106 2.509187 1_555
Na2 O134 2.657994 1_555
Na2 O64 2.761171 1_555
Na2 O34 2.879235 1_555
Na3 O103 2.393200 1_555
Na3 O107 2.484088 1_555
Na3 O35 2.524100 1_555
Na3 O135 2.638067 1_555
Na3 O137 2.681085 1_555
Na3 O65 2.916730 1_555
Na4 O105 2.385209 1_555
Na4 O103 2.419541 1_555
Na4 O132 2.625554 1_655
Na4 O60 2.649571 1_655
Na4 O136 2.783805 1_655
Na4 O31 2.882583 1_555
Na5 O133 2.457023 1_555
Na5 O102 2.493661 1_555
Na5 O30 2.548736 1_555
Na5 O104 2.656113 1_555
Na5 O137 2.820875 1_555
Na5 O61 2.975210 1_555
Na5 O23 2.984180 1_555
Na6 O28 2.313551 1_555
Na6 O98 2.429814 1_555
Na6 O100 2.531357 1_555
Na6 O142 2.652393 1_555
Na6 O138 2.745595 1_555
Na7 O29 2.333912 1_555
Na7 O99 2.501174 1_555
Na7 O143 2.575696 1_555
Na7 O139 2.609750 1_555
Na7 O101 2.644847 1_555
Na8 O25 2.352555 1_555
Na8 O97 2.468283 1_555
Na8 O138 2.546402 1_655
Na8 O101 2.674097 1_555
Na8 O14 2.849466 1_655
Na8 O140 2.897854 1_655
Na9 O100 2.392611 1_555
Na9 O96 2.443382 1_555
Na9 O139 2.602967 1_555
Na9 O67 2.697303 1_555
Na9 O141 2.737402 1_555
Na9 O24 2.763755 1_555
Na10 O26 2.371377 1_555
Na10 O96 2.419963 1_555
Na10 O98 2.444548 1_555
Na10 O140 2.716453 1_545
Na10 O142 2.717277 1_545
Na11 O97 2.454711 1_555
Na11 O141 2.501812 1_545
Na11 O99 2.514281 1_555
Na11 O143 2.602462 1_545
Na11 O27 2.708830 1_555
Na11 O69 2.846183 1_545
Na12 O130 2.478792 1_555
Na12 O86 2.606968 1_555
Na12 O128 2.618613 1_555
Na12 O85 2.708190 1_455
Na12 O14 2.805727 1_555
Na12 O56 2.884987 1_555
Na12 O28 2.928041 1_555
Na12 O42 2.937124 1_555
Na13 O57 2.448119 1_555
Na13 O129 2.472361 1_555
Na13 O131 2.556059 1_555
Na13 O87 2.700875 1_555
Na13 O84 2.796474 1_555
Na13 O15 2.933051 1_555
Na14 O89 2.455854 1_455
Na14 O126 2.572198 1_555
Na14 O86 2.680933 1_565
Na14 O58 2.720310 1_555
Na14 O130 2.761885 1_555
Na14 O45 2.934694 1_455
Na14 O25 2.966006 1_455
Na14 O16 2.980556 1_555
Na15 O59 2.285841 1_555
Na15 O127 2.502479 1_555
Na15 O88 2.581592 1_555
Na15 O131 2.635657 1_555
Na15 O87 2.726132 1_565
Na15 O44 2.746461 1_555
Na16 O128 2.475820 1_555
Na16 O126 2.573423 1_555
Na16 O84 2.630625 1_565
Na16 O88 2.657191 1_555
Na16 O54 2.737734 1_555
Na16 O26 2.847015 1_565
Na16 O12 2.871319 1_555
Na17 O55 2.302000 1_555
Na17 O129 2.397856 1_555
Na17 O85 2.609305 1_565
Na17 O89 2.626879 1_555
Na17 O127 2.749592 1_555
Na17 O13 2.956630 1_555
Na17 O47 2.998926 1_565
Na18 O122 2.563759 1_555
Na18 O124 2.581791 1_555
Na18 O52 2.587583 1_554
Na18 O94 2.665831 1_565
Na18 O22 2.746885 1_555
Na18 O91 2.777244 1_455
Na18 O32 2.833666 1_565
Na19 O123 2.499534 1_555
Na19 O125 2.603126 1_555
Na19 O95 2.625452 1_565
Na19 O23 2.708542 1_555
Na19 O90 2.765090 1_555
Na19 O33 2.845192 1_565
Na19 O53 2.950438 1_554
Na19 O37 2.990134 1_565
Na20 O124 2.340858 1_555
Na20 O90 2.520086 1_555
Na20 O18 2.607011 1_555
Na20 O92 2.640821 1_565
Na20 O120 2.717443 1_555
Na20 O48 2.802552 1_554
Na21 O125 2.483817 1_555
Na21 O121 2.588558 1_555
Na21 O91 2.647417 1_555
Na21 O93 2.668580 1_565
Na21 O19 2.739552 1_555
Na21 O35 2.781372 1_555
Na21 O49 2.835801 1_554
Na22 O50 2.421399 1_554
Na22 O93 2.529999 1_455
Na22 O120 2.569073 1_555
Na22 O122 2.656403 1_555
Na22 O94 2.716358 1_555
Na22 O41 2.775227 1_455
Na22 O20 2.888732 1_555
Na23 O92 2.465817 1_555
Na23 O121 2.511417 1_555
Na23 O95 2.656674 1_555
Na23 O123 2.750112 1_555
Na23 O51 2.794196 1_554
Na23 O21 2.855606 1_555
Na23 O30 2.879720 1_555
Na24 O83 2.406308 1_555
Na24 O111 2.486330 1_555
Na24 O109 2.594401 1_555
Na24 O80 2.605902 1_655
Na24 O39 2.783854 1_556
Na24 O9 2.843775 1_555
Na24 O52 2.973124 1_655
Na24 O66 3.006941 1_655
Na25 O110 2.471830 1_555
Na25 O79 2.473839 1_555
Na25 O10 2.625454 1_555
Na25 O112 2.634375 1_555
Na25 O82 2.703884 1_545
Na25 O40 2.882837 1_556
Na25 O68 2.890767 1_545
Na26 O80 2.458036 1_545
Na26 O112 2.513075 1_555
Na26 O78 2.548258 1_555
Na26 O108 2.614193 1_555
Na26 O6 2.679892 1_555
Na26 O36 2.865785 1_556
Na27 O74 2.444730 1_555
Na27 O118 2.514038 1_555
Na27 O77 2.610668 1_555
Na27 O114 2.660464 1_555
Na27 O57 2.808642 1_555
Na27 O46 2.833245 1_555
Na27 O4 2.879789 1_555
Na27 O61 2.958945 1_555
Na28 O115 2.454111 1_555
Na28 O77 2.545370 1_555
Na28 O117 2.584355 1_555
Na28 O73 2.666030 1_545
Na28 O1 2.767407 1_555
Na28 O43 2.900515 1_555
Na28 O63 2.926274 1_545
Na29 O119 2.578190 1_555
Na29 O72 2.583488 1_655
Na29 O75 2.616040 1_555
Na29 O117 2.632636 1_555
Na29 O3 2.806330 1_555
Na29 O45 2.842127 1_555
Na29 O55 2.895074 1_555
Na29 O65 2.983855 1_555
Na30 O72 2.473804 1_655
Na30 O75 2.548768 1_555
Na30 O85 2.640789 1_565
Na30 O89 2.646288 1_555
Na30 O76 2.694220 1_665
Na30 O86 2.727841 1_665
Na31 O74 2.476613 1_565
Na31 O73 2.492490 1_555
Na31 O88 2.534943 1_555
Na31 O77 2.711063 1_565
Na31 O87 2.807100 1_565
Na31 O84 2.833792 1_565
Na32 O93 2.452461 1_556
Na32 O83 2.482922 1_545
Na32 O78 2.525453 1_655
Na32 O80 2.750580 1_645
Na32 O91 2.798214 1_546
Na32 O94 2.800531 1_656
Na33 O95 2.446438 1_555
Na33 O79 2.533007 1_554
Na33 O92 2.545388 1_555
Na33 O90 2.573085 1_545
Na33 O81 2.717993 1_544
Na33 O82 2.934733 1_544
Na34 O100 2.395752 1_555
Na34 O96 2.398258 1_555
Na34 O98 2.440763 1_555
Na34 O110 2.734575 1_555
Na34 O112 2.785190 1_555
Na34 O108 2.816650 1_555
Na35 O99 2.454097 1_555
Na35 O97 2.483214 1_555
Na35 O113 2.661538 1_555
Na35 O111 2.674674 1_555
Na35 O109 2.718824 1_555
Na35 O101 2.759247 1_555
Na36 O106 2.489907 1_555
Na36 O102 2.517512 1_555
Na36 O116 2.636166 1_555
Na36 O118 2.649033 1_555
Na36 O114 2.713492 1_555
Na36 O104 2.785303 1_555
Na37 O105 2.477738 1_555
Na37 O107 2.500995 1_555
Na37 O103 2.538003 1_555
Na37 O115 2.639526 1_555
Na37 O119 2.685409 1_555
Na37 O117 2.767317 1_555
Na38 O134 2.428269 1_555
Na38 O132 2.468135 1_555
Na38 O124 2.569075 1_555
Na38 O136 2.619595 1_555
Na38 O122 2.858117 1_555
Na38 O120 2.877601 1_555
Na39 O135 2.504444 1_555
Na39 O133 2.508792 1_555
Na39 O125 2.729487 1_555
Na39 O137 2.741922 1_555
Na39 O121 2.792475 1_555
Na39 O123 2.831672 1_555
Na40 O128 2.560319 1_555
Na40 O130 2.618748 1_555
Na40 O126 2.639168 1_555
Na40 O138 2.729132 1_555
Na40 O142 2.729225 1_555
Na40 O140 2.885049 1_555
Na41 O129 2.377147 1_555
Na41 O143 2.528200 1_555
Na41 O139 2.554581 1_555
Na41 O127 2.761008 1_555
Na41 O141 2.781848 1_555
Na41 O131 2.783307 1_555
Ca0 O26 2.224803 1_555
Ca0 O28 2.230906 1_555
Ca0 O98 2.292558 1_555
Ca0 O24 2.313659 1_555
Ca0 O100 2.333780 1_555
Ca0 O96 2.376724 1_555
Ca1 O29 2.168082 1_555
Ca1 O25 2.237811 1_555
Ca1 O27 2.288422 1_555
Ca1 O97 2.314990 1_555
Ca1 O99 2.351671 1_555
Ca1 O101 2.444840 1_555
Ca2 O32 2.191483 1_555
Ca2 O30 2.237855 1_555
Ca2 O102 2.294791 1_555
Ca2 O34 2.297849 1_555
Ca2 O106 2.316464 1_555
Ca2 O104 2.395639 1_555
Ca3 O35 2.230405 1_555
Ca3 O33 2.239534 1_555
Ca3 O107 2.271021 1_555
Ca3 O105 2.307454 1_555
Ca3 O103 2.328384 1_555
Ca3 O31 2.337469 1_555
Ca4 O52 2.157037 1_554
Ca4 O50 2.181374 1_554
Ca4 O124 2.253022 1_555
Ca4 O48 2.295024 1_554
Ca4 O122 2.370584 1_555
Ca4 O120 2.432509 1_555
Ca5 O55 2.180113 1_555
Ca5 O57 2.187304 1_555
Ca5 O59 2.208393 1_555
Ca5 O129 2.296982 1_555
Ca5 O131 2.466564 1_555
Ca5 O127 2.473744 1_555
O0 Si0 1.622273 1_555
O0 Zr0 2.035747 1_445
O1 Si1 1.628228 1_545
O1 Zr1 2.046642 1_545
O2 Si2 1.622764 1_555
O2 Zr1 1.993248 1_555
O3 Si3 1.636314 1_555
O3 Zr0 2.018234 1_555
O4 S0 1.473050 1_555
O4 Zr1 2.312316 1_545
O5 Si4 1.619926 1_655
O5 Zr0 2.024553 1_545
O6 Si5 1.632702 1_555
O6 Zr2 2.052511 1_455
O7 Si6 1.650160 1_555
O7 Zr3 1.953487 1_555
O8 Si7 1.635966 1_555
O8 Zr3 2.006631 1_565
O9 S1 1.474200 1_655
O9 Zr2 2.302724 1_565
O10 Si8 1.649101 1_545
O10 Zr3 2.018547 1_555
O11 Si9 1.630513 1_545
O11 Zr2 1.974442 1_555
O12 Si8 1.668927 1_555
O12 Zr5 2.013303 1_555
O13 Si9 1.657461 1_555
O13 Zr4 2.057979 1_565
O14 Si5 1.660084 1_555
O14 Zr4 2.091995 1_455
O15 Si6 1.661024 1_555
O15 Zr5 2.062074 1_545
O16 S1 1.480196 1_555
O16 Zr4 2.388533 1_465
O17 Si7 1.682619 1_555
O17 Zr5 1.984354 1_555
O18 Si2 1.671805 1_555
O18 Zr7 2.055987 1_555
O19 Si3 1.690775 1_555
O19 Zr6 1.997074 1_565
O20 Si4 1.699076 1_555
O20 Zr6 1.982673 1_455
O21 S0 1.498720 1_555
O21 Zr7 2.305659 1_545
O22 Si0 1.682513 1_565
O22 Zr6 2.057280 1_465
O23 Si1 1.676415 1_555
O23 Zr7 2.041037 1_555
O24 S2 1.466755 1_555
O25 Si10 1.614199 1_555
O26 Si11 1.611143 1_555
O27 S3 1.473576 1_555
O28 Si12 1.610853 1_555
O29 Si13 1.614048 1_555
O30 Si14 1.610346 1_555
O31 S4 1.462020 1_555
O32 Si15 1.606197 1_555
O33 Si16 1.610350 1_555
O34 S5 1.469325 1_555
O35 Si17 1.605466 1_555
O36 S5 1.500504 1_555
O36 Zr8 2.371298 1_554
O37 Si17 1.664901 1_555
O37 Zr9 2.037160 1_554
O38 Si14 1.669371 1_555
O38 Zr8 2.023709 1_554
O39 S4 1.503102 1_555
O39 Zr9 2.320821 1_554
O40 Si15 1.708883 1_555
O40 Zr8 1.995650 1_554
O41 Si16 1.665840 1_555
O41 Zr9 2.056692 1_554
O42 Si11 1.660506 1_555
O42 Zr10 2.051543 1_555
O43 S3 1.480603 1_555
O43 Zr11 2.455937 1_555
O44 Si12 1.658067 1_555
O44 Zr10 2.063617 1_555
O45 Si13 1.678350 1_555
O45 Zr11 2.096508 1_555
O46 S2 1.500513 1_555
O46 Zr10 2.329798 1_555
O47 Si10 1.646053 1_555
O47 Zr11 2.051121 1_555
O48 S6 1.472783 1_555
O49 Si18 1.631889 1_555
O49 Zr12 2.035720 1_556
O50 Si19 1.608829 1_555
O51 Si20 1.624163 1_555
O51 Zr12 2.047794 1_556
O52 Si21 1.606556 1_555
O53 S7 1.472153 1_555
O53 Zr12 2.294108 1_556
O54 Si22 1.636249 1_555
O54 Zr13 2.035575 1_555
O55 Si23 1.604824 1_555
O56 S8 1.480131 1_555
O56 Zr13 2.265733 1_555
O57 Si24 1.610291 1_555
O58 Si25 1.633939 1_555
O58 Zr13 2.023225 1_555
O59 Si26 1.607202 1_555
O60 Si25 1.645986 1_555
O60 Zr14 2.034787 1_555
O61 Si26 1.669589 1_555
O61 Zr15 2.069962 1_555
O62 Si22 1.648155 1_555
O62 Zr14 2.039712 1_555
O63 Si23 1.693654 1_555
O63 Zr15 1.989751 1_555
O64 S8 1.484449 1_555
O64 Zr14 2.333051 1_555
O65 Si24 1.673288 1_555
O65 Zr15 2.065240 1_555
O66 Si19 1.681531 1_555
O66 Zr16 2.037587 1_555
O67 Si20 1.639883 1_555
O67 Zr17 2.064404 1_555
O68 Si21 1.679805 1_555
O68 Zr16 2.069248 1_555
O69 S7 1.480685 1_555
O69 Zr17 2.343867 1_555
O70 S6 1.504977 1_555
O70 Zr16 2.221458 1_555
O71 Si18 1.646836 1_555
O71 Zr17 2.037033 1_555
O72 Si25 1.637957 1_555
O72 Zr0 2.147937 1_455
O73 Si26 1.649710 1_555
O73 Zr1 2.011578 1_555
O74 Si22 1.646087 1_545
O74 Zr1 2.133747 1_545
O75 Si23 1.635074 1_555
O75 Zr0 2.082370 1_555
O76 S8 1.472215 1_555
O76 Zr0 2.344331 1_445
O77 Si24 1.644064 1_555
O77 Zr1 2.098582 1_545
O78 Si19 1.645841 1_555
O78 Zr2 2.017169 1_455
O79 Si20 1.660731 1_555
O79 Zr3 2.143900 1_555
O80 Si21 1.634613 1_555
O80 Zr2 2.129202 1_465
O81 S7 1.489076 1_555
O81 Zr3 2.303347 1_565
O82 S6 1.479620 1_555
O82 Zr3 2.336034 1_565
O83 Si18 1.649247 1_555
O83 Zr2 2.125512 1_565
O84 S2 1.513562 1_555
O84 Zr5 2.397152 1_545
O85 Si10 1.672539 1_555
O85 Zr4 2.033914 1_555
O86 Si11 1.649003 1_555
O86 Zr4 2.131502 1_455
O87 S3 1.521725 1_555
O87 Zr5 2.329259 1_545
O88 Si12 1.686122 1_555
O88 Zr5 2.134258 1_555
O89 Si13 1.678454 1_555
O89 Zr4 2.111865 1_565
O90 Si14 1.667218 1_555
O90 Zr7 2.066857 1_555
O91 S4 1.506910 1_555
O91 Zr6 2.425335 1_565
O92 Si15 1.660356 1_555
O92 Zr7 2.153884 1_545
O93 Si16 1.687497 1_555
O93 Zr6 2.155243 1_555
O94 S5 1.509315 1_555
O94 Zr6 2.412324 1_455
O95 Si17 1.651325 1_555
O95 Zr7 2.154693 1_545
O96 Si8 1.612009 1_545
O97 Si9 1.620505 1_545
O98 Si5 1.617156 1_555
O99 Si6 1.613690 1_555
O100 Si7 1.612039 1_555
O101 S1 1.473168 1_655
O102 Si2 1.620951 1_555
O103 Si3 1.609546 1_555
O104 S0 1.480178 1_555
O105 Si4 1.609608 1_655
O106 Si0 1.617592 1_555
O107 Si1 1.615628 1_545
O108 S6 1.484794 1_555
O108 Zr8 2.402940 1_555
O109 Si18 1.652573 1_555
O109 Zr9 2.097955 1_555
O110 Si20 1.672680 1_555
O110 Zr8 2.027745 1_555
O111 Si19 1.645564 1_655
O111 Zr9 2.127231 1_555
O112 Si21 1.667084 1_545
O112 Zr8 2.138306 1_555
O113 S7 1.500981 1_545
O113 Zr9 2.203321 1_555
O114 Si22 1.651705 1_545
O114 Zr10 2.090386 1_555
O115 Si23 1.642966 1_545
O115 Zr11 2.104891 1_555
O116 S8 1.503131 1_555
O116 Zr10 2.193238 1_555
O117 Si24 1.648115 1_555
O117 Zr11 2.138251 1_555
O118 Si26 1.654629 1_555
O118 Zr10 2.106389 1_555
O119 Si25 1.655362 1_655
O119 Zr11 2.023090 1_555
O120 S5 1.476501 1_555
O121 Si17 1.664460 1_555
O121 Zr12 2.037422 1_555
O122 S4 1.482604 1_455
O123 Si14 1.644452 1_555
O123 Zr12 2.116780 1_555
O124 Si15 1.631537 1_565
O125 Si16 1.649318 1_565
O125 Zr12 2.125470 1_555
O126 Si11 1.662494 1_565
O126 Zr13 2.051066 1_555
O127 S3 1.479412 1_565
O128 Si12 1.647941 1_555
O128 Zr13 2.147377 1_555
O129 Si13 1.634500 1_555
O130 Si10 1.650810 1_455
O130 Zr13 2.126501 1_555
O131 S2 1.473916 1_555
O132 Si0 1.669953 1_565
O132 Zr14 2.078359 1_555
O133 Si1 1.665743 1_555
O133 Zr15 2.176154 1_555
O134 Si2 1.646906 1_555
O134 Zr14 2.161494 1_555
O135 Si3 1.657871 1_555
O135 Zr15 2.163551 1_555
O136 Si4 1.648682 1_555
O136 Zr14 2.141931 1_555
O137 S0 1.492900 1_555
O137 Zr15 2.447313 1_555
O138 Si5 1.677752 1_555
O138 Zr16 2.117115 1_555
O139 Si6 1.662630 1_555
O139 Zr17 2.073646 1_555
O140 S1 1.517669 1_555
O140 Zr16 2.229815 1_555
O141 Si7 1.643657 1_555
O141 Zr17 2.132508 1_555
O142 Si8 1.661803 1_555
O142 Zr16 2.117178 1_555
O143 Si9 1.649311 1_555
O143 Zr17 2.142284 1_555
