# generated using pymatgen
data_MgSb2(O2F)2
_symmetry_space_group_name_H-M   'P 1'
_cell_length_a   5.41838992
_cell_length_b   5.97978600
_cell_length_c   5.26523421
_cell_angle_alpha   118.66563751
_cell_angle_beta   65.15858787
_cell_angle_gamma   115.07976574
_symmetry_Int_Tables_number   1
_chemical_formula_structural   MgSb2(O2F)2
_chemical_formula_sum   'Mg1 Sb2 O4 F2'
_cell_volume   130.43433231
_cell_formula_units_Z   1
loop_
 _symmetry_equiv_pos_site_id
 _symmetry_equiv_pos_as_xyz
  1  'x, y, z'
loop_
 _atom_site_type_symbol
 _atom_site_label
 _atom_site_symmetry_multiplicity
 _atom_site_fract_x
 _atom_site_fract_y
 _atom_site_fract_z
 _atom_site_occupancy
  Mg  Mg0  1  0.90507400  0.70598300  0.88735000  1
  Sb  Sb0  1  0.65790500  0.11215400  0.77699500  1
  Sb  Sb1  1  0.24592000  0.64857700  0.20165400  1
  O  O0  1  0.06169100  0.43548200  0.88131900  1
  O  O1  1  0.50989100  0.44062500  0.07590200  1
  O  O2  1  0.26772500  0.87204000  0.61860500  1
  O  O3  1  0.59637300  0.88863300  0.01259100  1
  F  F0  1  0.87610700  0.46164100  0.45709700  1
  F  F1  1  0.04674400  0.91216100  0.25591700  1
loop_
_geom_bond_atom_site_label_1
_geom_bond_atom_site_label_2
_geom_bond_distance
_geom_bond_site_symmetry_2
Mg0 O2 2.051124 1_655
Mg0 O3 2.087244 1_556
Mg0 O0 2.104601 1_655
Mg0 O1 2.221092 1_556
O0 Sb1 1.933720 1_556
O0 Sb0 2.287228 1_455
O1 Sb1 1.988130 1_555
O1 Sb0 2.070583 1_554
O2 Sb1 1.971990 1_555
O2 Sb0 2.232911 1_565
O3 Sb1 2.032045 1_555
O3 Sb0 2.074091 1_564
F0 Mg0 2.054313 1_555
F0 Sb1 2.086328 1_655
F1 Mg0 2.007257 1_454
F1 Sb1 2.116982 1_555
