# generated using pymatgen
data_MgV4O7F5
_symmetry_space_group_name_H-M   'P 1'
_cell_length_a   5.01225114
_cell_length_b   5.49727679
_cell_length_c   9.09102571
_cell_angle_alpha   71.19361971
_cell_angle_beta   89.67879834
_cell_angle_gamma   61.85176706
_symmetry_Int_Tables_number   1
_chemical_formula_structural   MgV4O7F5
_chemical_formula_sum   'Mg1 V4 O7 F5'
_cell_volume   205.83016666
_cell_formula_units_Z   1
loop_
 _symmetry_equiv_pos_site_id
 _symmetry_equiv_pos_as_xyz
  1  'x, y, z'
loop_
 _atom_site_type_symbol
 _atom_site_label
 _atom_site_symmetry_multiplicity
 _atom_site_fract_x
 _atom_site_fract_y
 _atom_site_fract_z
 _atom_site_occupancy
  Mg  Mg0  1  0.17897800  0.61977700  0.39854000  1
  V  V0  1  0.75989900  0.49472800  0.24044800  1
  V  V1  1  0.50999300  0.99255800  0.50899700  1
  V  V2  1  0.26741200  0.51314900  0.76448700  1
  V  V3  1  0.01877300  0.98203600  0.00716500  1
  O  O0  1  0.92378300  0.74769100  0.56202800  1
  O  O1  1  0.91728600  0.76015500  0.18750300  1
  O  O2  1  0.40695600  0.77000800  0.06475000  1
  O  O3  1  0.41229100  0.73913100  0.67986300  1
  O  O4  1  0.58504800  0.28982300  0.33471800  1
  O  O5  1  0.55754800  0.25000500  0.91540900  1
  O  O6  1  0.11361100  0.25670600  0.41905900  1
  F  F0  1  0.97535700  0.25911900  0.11465700  1
  F  F1  1  0.48431200  0.76407300  0.37441500  1
  F  F2  1  0.46794500  0.27431500  0.62181500  1
  F  F3  1  0.00139900  0.74950700  0.87357400  1
  F  F4  1  0.05066100  0.27472000  0.81471700  1
loop_
_geom_bond_atom_site_label_1
_geom_bond_atom_site_label_2
_geom_bond_distance
_geom_bond_site_symmetry_2
Mg0 O1 2.028649 1_455
Mg0 O0 2.035549 1_455
Mg0 O6 2.121797 1_555
Mg0 O4 2.225154 1_555
O0 V1 1.817868 1_555
O0 V2 2.104000 1_655
O1 V0 1.900522 1_555
O1 V3 1.929015 1_655
O2 V3 1.701927 1_555
O2 V0 1.979456 1_555
O3 V2 1.700336 1_555
O3 V1 1.957933 1_555
O4 V0 1.752700 1_555
O4 V1 2.055784 1_545
O5 V2 1.687530 1_555
O5 V3 2.055825 1_646
O6 V1 1.804180 1_545
O6 V0 1.991365 1_455
F0 V0 1.942412 1_555
F0 V3 1.991736 1_645
F1 Mg0 2.012199 1_555
F1 V1 2.058219 1_555
F1 V0 2.190375 1_555
F2 V1 2.051641 1_545
F2 V2 2.062666 1_555
F2 Mg0 2.185600 1_555
F3 V2 1.905492 1_555
F3 V3 2.055157 1_556
F4 V2 2.014657 1_555
F4 V3 2.024799 1_546
