# generated using pymatgen
data_TaSn(PO4)3
_symmetry_space_group_name_H-M   'P 1'
_cell_length_a   8.75108827
_cell_length_b   8.75108799
_cell_length_c   22.62019653
_cell_angle_alpha   90.00000000
_cell_angle_beta   90.00000000
_cell_angle_gamma   120.00000103
_symmetry_Int_Tables_number   1
_chemical_formula_structural   TaSn(PO4)3
_chemical_formula_sum   'Ta6 Sn6 P18 O72'
_cell_volume   1500.20675295
_cell_formula_units_Z   6
loop_
 _symmetry_equiv_pos_site_id
 _symmetry_equiv_pos_as_xyz
  1  'x, y, z'
loop_
 _atom_site_type_symbol
 _atom_site_label
 _atom_site_symmetry_multiplicity
 _atom_site_fract_x
 _atom_site_fract_y
 _atom_site_fract_z
 _atom_site_occupancy
  Ta  Ta0  1  -0.00000000  -0.00000000  0.64245929  1
  Ta  Ta1  1  -0.00000000  0.00000000  0.14245929  1
  Ta  Ta2  1  0.66666700  0.33333300  0.97579229  1
  Ta  Ta3  1  0.66666700  0.33333300  0.47579229  1
  Ta  Ta4  1  0.33333300  0.66666700  0.30912629  1
  Ta  Ta5  1  0.33333300  0.66666700  0.80912629  1
  Sn  Sn0  1  -0.00000000  0.00000000  0.35426724  1
  Sn  Sn1  1  -0.00000000  -0.00000000  0.85426724  1
  Sn  Sn2  1  0.66666700  0.33333300  0.68760024  1
  Sn  Sn3  1  0.66666700  0.33333300  0.18760024  1
  Sn  Sn4  1  0.33333300  0.66666700  0.02093424  1
  Sn  Sn5  1  0.33333300  0.66666700  0.52093424  1
  P  P0  1  0.28855323  0.00281854  0.24969984  1
  P  P1  1  0.71426531  0.71144677  0.24969984  1
  P  P2  1  0.99718146  0.28573469  0.24969984  1
  P  P3  1  0.28855323  0.28573469  0.74969984  1
  P  P4  1  0.99718146  0.71144677  0.74969984  1
  P  P5  1  0.71426531  0.00281854  0.74969984  1
  P  P6  1  0.95522023  0.33615154  0.58303284  1
  P  P7  1  0.38093231  0.04477977  0.58303284  1
  P  P8  1  0.66384846  0.61906769  0.58303284  1
  P  P9  1  0.95522023  0.61906769  0.08303284  1
  P  P10  1  0.66384846  0.04477977  0.08303284  1
  P  P11  1  0.38093231  0.33615154  0.08303284  1
  P  P12  1  0.62188623  0.66948554  0.91636684  1
  P  P13  1  0.04759831  0.37811377  0.91636684  1
  P  P14  1  0.33051446  0.95240169  0.91636684  1
  P  P15  1  0.62188623  0.95240169  0.41636684  1
  P  P16  1  0.33051446  0.37811377  0.41636684  1
  P  P17  1  0.04759831  0.66948554  0.41636684  1
  O  O0  1  0.20957360  0.03388033  0.30532854  1
  O  O1  1  0.82430673  0.79042640  0.30532854  1
  O  O2  1  0.96611967  0.17569327  0.30532854  1
  O  O3  1  0.20957360  0.17569327  0.80532854  1
  O  O4  1  0.96611967  0.79042640  0.80532854  1
  O  O5  1  0.82430673  0.03388033  0.80532854  1
  O  O6  1  0.79978543  0.96787144  0.69489883  1
  O  O7  1  0.16808601  0.20021457  0.69489883  1
  O  O8  1  0.03212856  0.83191399  0.69489883  1
  O  O9  1  0.79978543  0.83191399  0.19489883  1
  O  O10  1  0.03212856  0.20021457  0.19489883  1
  O  O11  1  0.16808601  0.96787144  0.19489883  1
  O  O12  1  0.87624060  0.36721333  0.63866154  1
  O  O13  1  0.49097373  0.12375940  0.63866154  1
  O  O14  1  0.63278667  0.50902627  0.63866154  1
  O  O15  1  0.87624060  0.50902627  0.13866154  1
  O  O16  1  0.63278667  0.12375940  0.13866154  1
  O  O17  1  0.49097373  0.36721333  0.13866154  1
  O  O18  1  0.46645243  0.30120444  0.02823183  1
  O  O19  1  0.83475301  0.53354757  0.02823183  1
  O  O20  1  0.69879556  0.16524699  0.02823183  1
  O  O21  1  0.46645243  0.16524699  0.52823183  1
  O  O22  1  0.69879556  0.53354757  0.52823183  1
  O  O23  1  0.83475301  0.30120444  0.52823183  1
  O  O24  1  0.54290660  0.70054733  0.97199554  1
  O  O25  1  0.15763973  0.45709340  0.97199554  1
  O  O26  1  0.29945267  0.84236027  0.97199554  1
  O  O27  1  0.54290660  0.84236027  0.47199554  1
  O  O28  1  0.29945267  0.45709340  0.47199554  1
  O  O29  1  0.15763973  0.70054733  0.47199554  1
  O  O30  1  0.13311843  0.63453844  0.36156583  1
  O  O31  1  0.50141901  0.86688157  0.36156583  1
  O  O32  1  0.36546156  0.49858099  0.36156583  1
  O  O33  1  0.13311843  0.49858099  0.86156583  1
  O  O34  1  0.36546156  0.86688157  0.86156583  1
  O  O35  1  0.50141901  0.63453844  0.86156583  1
  O  O36  1  0.02200586  0.82696588  0.40816539  1
  O  O37  1  0.80496002  0.97799414  0.40816539  1
  O  O38  1  0.17303412  0.19503998  0.40816539  1
  O  O39  1  0.02200586  0.19503998  0.90816539  1
  O  O40  1  0.17303412  0.97799414  0.90816539  1
  O  O41  1  0.80496002  0.82696588  0.90816539  1
  O  O42  1  0.97203594  0.16807588  0.59299856  1
  O  O43  1  0.19603994  0.02796406  0.59299856  1
  O  O44  1  0.83192412  0.80396006  0.59299856  1
  O  O45  1  0.97203594  0.80396006  0.09299856  1
  O  O46  1  0.83192412  0.02796406  0.09299856  1
  O  O47  1  0.19603994  0.16807588  0.09299856  1
  O  O48  1  0.68867286  0.16029888  0.74149839  1
  O  O49  1  0.47162702  0.31132714  0.74149839  1
  O  O50  1  0.83970112  0.52837298  0.74149839  1
  O  O51  1  0.68867286  0.52837298  0.24149839  1
  O  O52  1  0.83970112  0.31132714  0.24149839  1
  O  O53  1  0.47162702  0.16029888  0.24149839  1
  O  O54  1  0.63870294  0.50140888  0.92633156  1
  O  O55  1  0.86270694  0.36129706  0.92633156  1
  O  O56  1  0.49859112  0.13729306  0.92633156  1
  O  O57  1  0.63870294  0.13729306  0.42633156  1
  O  O58  1  0.49859112  0.36129706  0.42633156  1
  O  O59  1  0.86270694  0.50140888  0.42633156  1
  O  O60  1  0.35533886  0.49363288  0.07483239  1
  O  O61  1  0.13829302  0.64466114  0.07483239  1
  O  O62  1  0.50636712  0.86170698  0.07483239  1
  O  O63  1  0.35533886  0.86170698  0.57483239  1
  O  O64  1  0.50636712  0.64466114  0.57483239  1
  O  O65  1  0.13829302  0.49363288  0.57483239  1
  O  O66  1  0.30536894  0.83474288  0.25966556  1
  O  O67  1  0.52937294  0.69463106  0.25966556  1
  O  O68  1  0.16525712  0.47062706  0.25966556  1
  O  O69  1  0.30536894  0.47062706  0.75966556  1
  O  O70  1  0.16525712  0.69463106  0.75966556  1
  O  O71  1  0.52937294  0.83474288  0.75966556  1
loop_
_geom_bond_atom_site_label_1
_geom_bond_atom_site_label_2
_geom_bond_distance
_geom_bond_site_symmetry_2
O0 P0 1.524093 1_555
O0 Sn0 2.033014 1_555
O1 P1 1.524093 1_555
O1 Sn0 2.033014 1_665
O2 P2 1.524093 1_555
O2 Sn0 2.033014 1_655
O3 P3 1.524093 1_555
O3 Sn1 2.033014 1_555
O4 P4 1.524093 1_555
O4 Sn1 2.033014 1_665
O5 P5 1.524093 1_555
O5 Sn1 2.033014 1_655
O6 P5 1.555356 1_565
O6 Ta0 2.015769 1_665
O7 P3 1.555356 1_555
O7 Ta0 2.015769 1_555
O8 P4 1.555356 1_455
O8 Ta0 2.015769 1_565
O9 P1 1.555356 1_555
O9 Ta1 2.015769 1_665
O10 P2 1.555356 1_455
O10 Ta1 2.015769 1_555
O11 P0 1.555356 1_565
O11 Ta1 2.015769 1_565
O12 P6 1.524093 1_555
O12 Sn2 2.033014 1_555
O13 P7 1.524093 1_555
O13 Sn2 2.033014 1_555
O14 P8 1.524093 1_555
O14 Sn2 2.033014 1_555
O15 P9 1.524093 1_555
O15 Sn3 2.033014 1_555
O16 P10 1.524093 1_555
O16 Sn3 2.033014 1_555
O17 P11 1.524093 1_555
O17 Sn3 2.033014 1_555
O18 P11 1.555356 1_555
O18 Ta2 2.015769 1_554
O19 P9 1.555356 1_555
O19 Ta2 2.015769 1_554
O20 P10 1.555356 1_555
O20 Ta2 2.015769 1_554
O21 P7 1.555356 1_555
O21 Ta3 2.015769 1_555
O22 P8 1.555356 1_555
O22 Ta3 2.015769 1_555
O23 P6 1.555356 1_555
O23 Ta3 2.015769 1_555
O24 P12 1.524093 1_555
O24 Sn4 2.033014 1_556
O25 P13 1.524093 1_555
O25 Sn4 2.033014 1_556
O26 P14 1.524093 1_555
O26 Sn4 2.033014 1_556
O27 P15 1.524093 1_555
O27 Sn5 2.033014 1_555
O28 P16 1.524093 1_555
O28 Sn5 2.033014 1_555
O29 P17 1.524093 1_555
O29 Sn5 2.033014 1_555
O30 P17 1.555356 1_555
O30 Ta4 2.015769 1_555
O31 P15 1.555356 1_555
O31 Ta4 2.015769 1_555
O32 P16 1.555356 1_555
O32 Ta4 2.015769 1_555
O33 P13 1.555356 1_555
O33 Ta5 2.015769 1_555
O34 P14 1.555356 1_555
O34 Ta5 2.015769 1_555
O35 P12 1.555356 1_555
O35 Ta5 2.015769 1_555
O36 P17 1.514084 1_555
O36 Sn0 2.026825 1_565
O37 P15 1.514092 1_555
O37 Sn0 2.026825 1_665
O38 P16 1.514089 1_555
O38 Sn0 2.026825 1_555
O39 P13 1.514092 1_555
O39 Sn1 2.026825 1_555
O40 P14 1.514084 1_555
O40 Sn1 2.026825 1_565
O41 P12 1.514089 1_555
O41 Sn1 2.026825 1_665
O42 P6 1.565982 1_555
O42 Ta0 1.958304 1_655
O43 P7 1.565991 1_555
O43 Ta0 1.958304 1_555
O44 P8 1.565987 1_555
O44 Ta0 1.958304 1_665
O45 P9 1.565991 1_555
O45 Ta1 1.958304 1_665
O46 P10 1.565982 1_555
O46 Ta1 1.958304 1_655
O47 P11 1.565987 1_555
O47 Ta1 1.958304 1_555
O48 P5 1.514084 1_555
O48 Sn2 2.026825 1_555
O49 P3 1.514092 1_555
O49 Sn2 2.026825 1_555
O50 P4 1.514089 1_555
O50 Sn2 2.026825 1_555
O51 P1 1.514092 1_555
O51 Sn3 2.026825 1_555
O52 P2 1.514084 1_555
O52 Sn3 2.026825 1_555
O53 P0 1.514089 1_555
O53 Sn3 2.026825 1_555
O54 P12 1.565992 1_555
O54 Ta2 1.958304 1_555
O55 P13 1.565975 1_655
O55 Ta2 1.958304 1_555
O56 P14 1.565983 1_545
O56 Ta2 1.958304 1_555
O57 P15 1.565975 1_545
O57 Ta3 1.958304 1_555
O58 P16 1.565992 1_555
O58 Ta3 1.958304 1_555
O59 P17 1.565983 1_655
O59 Ta3 1.958304 1_555
O60 P11 1.514095 1_555
O60 Sn4 2.026825 1_555
O61 P9 1.514078 1_455
O61 Sn4 2.026825 1_555
O62 P10 1.514084 1_565
O62 Sn4 2.026825 1_555
O63 P7 1.514078 1_565
O63 Sn5 2.026825 1_555
O64 P8 1.514095 1_555
O64 Sn5 2.026825 1_555
O65 P6 1.514084 1_455
O65 Sn5 2.026825 1_555
O66 P0 1.565982 1_565
O66 Ta4 1.958304 1_555
O67 P1 1.565991 1_555
O67 Ta4 1.958304 1_555
O68 P2 1.565987 1_455
O68 Ta4 1.958304 1_555
O69 P3 1.565991 1_555
O69 Ta5 1.958304 1_555
O70 P4 1.565982 1_455
O70 Ta5 1.958304 1_555
O71 P5 1.565987 1_565
O71 Ta5 1.958304 1_555
