# generated using pymatgen
data_Li7B18O
_symmetry_space_group_name_H-M   'P 1'
_cell_length_a   4.11766649
_cell_length_b   8.17749978
_cell_length_c   8.17256101
_cell_angle_alpha   60.09623031
_cell_angle_beta   90.00000000
_cell_angle_gamma   90.00000000
_symmetry_Int_Tables_number   1
_chemical_formula_structural   Li7B18O
_chemical_formula_sum   'Li7 B18 O1'
_cell_volume   238.55077004
_cell_formula_units_Z   1
loop_
 _symmetry_equiv_pos_site_id
 _symmetry_equiv_pos_as_xyz
  1  'x, y, z'
loop_
 _atom_site_type_symbol
 _atom_site_label
 _atom_site_symmetry_multiplicity
 _atom_site_fract_x
 _atom_site_fract_y
 _atom_site_fract_z
 _atom_site_occupancy
  Li  Li0  1  0.00000000  0.27651070  0.90402271  1
  Li  Li1  1  0.00000000  0.67825304  0.66637125  1
  Li  Li2  1  0.50000000  0.00682332  0.99684098  1
  Li  Li3  1  0.00000000  0.95021736  0.25460596  1
  Li  Li4  1  0.00000000  0.33338544  0.32891032  1
  Li  Li5  1  0.00000000  0.73582231  0.09046385  1
  Li  Li6  1  0.00000000  0.06231387  0.74003896  1
  B  B0  1  0.80042076  0.50567777  0.49776226  1
  B  B1  1  0.50000000  0.67823281  0.44729584  1
  B  B2  1  0.50000000  0.88203556  0.44980231  1
  B  B3  1  0.50000000  0.45623712  0.66978374  1
  B  B4  1  0.79795578  0.00570882  0.49772535  1
  B  B5  1  0.50000000  0.45816615  0.87412182  1
  B  B6  1  0.50000000  0.88341191  0.67124765  1
  B  B7  1  0.50000000  0.67931271  0.87591877  1
  B  B8  1  0.20123336  0.50571507  0.99772983  1
  B  B9  1  0.79876664  0.50571507  0.99772983  1
  B  B10  1  0.50000000  0.33209093  0.11955884  1
  B  B11  1  0.50000000  0.12798092  0.32421448  1
  B  B12  1  0.50000000  0.55321878  0.12138757  1
  B  B13  1  0.20204422  0.00570882  0.49772535  1
  B  B14  1  0.50000000  0.55511646  0.32573840  1
  B  B15  1  0.50000000  0.12933872  0.54567481  1
  B  B16  1  0.50000000  0.33311458  0.54822429  1
  B  B17  1  0.19957924  0.50567777  0.49776226  1
  O  O0  1  0.00000000  0.00616198  0.99734255  1
loop_
_geom_bond_atom_site_label_1
_geom_bond_atom_site_label_2
_geom_bond_distance
_geom_bond_site_symmetry_2
Li0 O0 1.946283 1_555
Li2 O0 2.058839 1_655
Li2 O0 2.058839 1_555
Li3 O0 1.915917 1_564
Li5 O0 1.946497 1_564
Li6 O0 1.915716 1_555
B0 B17 1.643601 1_655
B0 B3 1.761648 1_555
B0 B14 1.761664 1_555
B0 B1 1.763855 1_555
B0 B16 1.763906 1_555
B0 Li4 2.550151 1_655
B0 Li1 2.550433 1_655
B1 B2 1.676903 1_555
B1 B14 1.731413 1_555
B1 B17 1.763855 1_555
B1 B3 1.819477 1_555
B1 Li1 2.728488 1_555
B1 Li1 2.728488 1_655
B2 B4 1.753961 1_565
B2 B6 1.815413 1_555
B2 Li3 2.491514 1_555
B2 Li3 2.491514 1_655
B2 Li1 2.684687 1_555
B2 Li1 2.684687 1_655
B3 B5 1.677886 1_555
B3 Li0 2.694102 1_555
B3 Li0 2.694102 1_655
B3 Li1 2.735919 1_655
B3 Li1 2.735919 1_555
B4 B6 1.761353 1_545
B4 Li6 2.396265 1_655
B4 Li3 2.396844 1_645
B4 Li1 2.466226 1_645
B4 Li4 2.467708 1_655
B5 B9 1.754075 1_555
B5 B8 1.754075 1_555
B5 B7 1.815792 1_555
B5 Li0 2.478555 1_555
B5 Li0 2.478555 1_655
B5 Li1 2.704405 1_555
B5 Li1 2.704405 1_655
B6 B7 1.673287 1_555
B6 Li1 2.668648 1_655
B6 Li1 2.668648 1_555
B6 Li6 2.741393 1_565
B6 Li6 2.741393 1_665
B7 B8 1.763696 1_555
B7 B9 1.763696 1_555
B7 Li1 2.680757 1_655
B7 Li1 2.680757 1_555
B8 B9 1.657224 1_455
B8 Li4 2.488988 1_556
B8 Li1 2.490201 1_555
B8 Li0 2.493469 1_555
B8 Li5 2.494738 1_556
B9 Li4 2.488988 1_656
B9 Li1 2.490201 1_655
B9 Li0 2.493469 1_655
B9 Li5 2.494738 1_656
B10 B11 1.673267 1_555
B10 B5 1.739074 1_554
B10 B8 1.763834 1_554
B10 B9 1.763834 1_554
B10 B12 1.815770 1_555
B10 Li4 2.680349 1_555
B10 Li4 2.680349 1_655
B11 B2 1.743613 1_545
B11 B4 1.761270 1_555
B11 B13 1.761270 1_555
B11 B15 1.815459 1_555
B11 Li4 2.669442 1_555
B11 Li4 2.669442 1_655
B11 Li3 2.738631 1_645
B11 Li3 2.738631 1_545
B12 B14 1.677860 1_555
B12 B7 1.739300 1_554
B12 B9 1.754166 1_554
B12 B8 1.754166 1_554
B12 Li5 2.481159 1_655
B12 Li5 2.481159 1_555
B12 Li4 2.703123 1_555
B12 Li4 2.703123 1_655
B13 B4 1.663901 1_455
B13 B15 1.753828 1_555
B13 B2 1.753961 1_545
B13 B6 1.761353 1_545
B13 Li6 2.396265 1_555
B13 Li3 2.396844 1_545
B13 Li1 2.466226 1_545
B13 Li4 2.467708 1_555
B14 B17 1.761664 1_555
B14 B16 1.819494 1_555
B14 Li5 2.699354 1_555
B14 Li5 2.699354 1_655
B14 Li4 2.735016 1_555
B14 Li4 2.735016 1_655
B15 B16 1.676862 1_555
B15 B6 1.743481 1_545
B15 B4 1.753828 1_555
B15 Li6 2.488834 1_655
B15 Li6 2.488834 1_555
B15 Li4 2.685877 1_655
B15 Li4 2.685877 1_555
B16 B3 1.731471 1_555
B16 B17 1.763906 1_555
B16 Li4 2.728990 1_555
B16 Li4 2.728990 1_655
B17 B3 1.761648 1_555
B17 Li4 2.550151 1_555
B17 Li1 2.550433 1_555
