# generated using pymatgen
data_BaMgBi2O5
_symmetry_space_group_name_H-M   'P 1'
_cell_length_a   4.32358500
_cell_length_b   4.32358500
_cell_length_c   9.77854800
_cell_angle_alpha   90.00000000
_cell_angle_beta   90.00000000
_cell_angle_gamma   90.00000000
_symmetry_Int_Tables_number   1
_chemical_formula_structural   BaMgBi2O5
_chemical_formula_sum   'Ba1 Mg1 Bi2 O5'
_cell_volume   182.79418453
_cell_formula_units_Z   1
loop_
 _symmetry_equiv_pos_site_id
 _symmetry_equiv_pos_as_xyz
  1  'x, y, z'
loop_
 _atom_site_type_symbol
 _atom_site_label
 _atom_site_symmetry_multiplicity
 _atom_site_fract_x
 _atom_site_fract_y
 _atom_site_fract_z
 _atom_site_occupancy
  Ba  Ba0  1  0.00000000  0.00000000  0.50000000  1
  Mg  Mg0  1  0.50000000  0.50000000  0.50000000  1
  Bi  Bi0  1  0.50000000  0.50000000  0.21795600  1
  Bi  Bi1  1  0.50000000  0.50000000  0.78204400  1
  O  O0  1  0.00000000  0.50000000  0.33998100  1
  O  O1  1  0.50000000  0.50000000  0.00000000  1
  O  O2  1  0.50000000  0.00000000  0.33998100  1
  O  O3  1  0.50000000  0.00000000  0.66001900  1
  O  O4  1  0.00000000  0.50000000  0.66001900  1
loop_
_geom_bond_atom_site_label_1
_geom_bond_atom_site_label_2
_geom_bond_distance
_geom_bond_site_symmetry_2
Ba0 O4 2.668670 1_555
Ba0 O2 2.668670 1_455
Ba0 O0 2.668670 1_545
Ba0 O4 2.668670 1_545
Ba0 O3 2.668670 1_455
Ba0 O0 2.668670 1_555
Ba0 O3 2.668670 1_555
Ba0 O2 2.668670 1_555
Mg0 O4 2.668670 1_555
Mg0 O4 2.668670 1_655
Mg0 O0 2.668670 1_555
Mg0 O3 2.668670 1_555
Mg0 O2 2.668670 1_555
Mg0 O2 2.668670 1_565
Mg0 O3 2.668670 1_565
Mg0 O0 2.668670 1_655
Bi0 O1 2.131293 1_555
Bi0 O0 2.469238 1_555
Bi0 O2 2.469238 1_555
Bi0 O2 2.469238 1_565
Bi0 O0 2.469238 1_655
Bi1 O1 2.131293 1_556
Bi1 O3 2.469238 1_555
Bi1 O3 2.469238 1_565
Bi1 O4 2.469238 1_555
Bi1 O4 2.469238 1_655
