# generated using pymatgen
data_MgFe6(O5F)2
_symmetry_space_group_name_H-M   'P 1'
_cell_length_a   4.99342115
_cell_length_b   14.16051398
_cell_length_c   3.05382922
_cell_angle_alpha   90.00000000
_cell_angle_beta   90.00000000
_cell_angle_gamma   100.12395566
_symmetry_Int_Tables_number   1
_chemical_formula_structural   MgFe6(O5F)2
_chemical_formula_sum   'Mg1 Fe6 O10 F2'
_cell_volume   212.57231349
_cell_formula_units_Z   1
loop_
 _symmetry_equiv_pos_site_id
 _symmetry_equiv_pos_as_xyz
  1  'x, y, z'
loop_
 _atom_site_type_symbol
 _atom_site_label
 _atom_site_symmetry_multiplicity
 _atom_site_fract_x
 _atom_site_fract_y
 _atom_site_fract_z
 _atom_site_occupancy
  Mg  Mg0  1  0.13202512  0.17966540  0.00000000  1
  Fe  Fe0  1  0.05581249  0.97975212  -0.00000000  1
  Fe  Fe1  1  0.83109070  0.37620781  0.00000000  1
  Fe  Fe2  1  0.97224636  0.66242859  0.00000000  1
  Fe  Fe3  1  0.61967431  0.14380342  0.50000000  1
  Fe  Fe4  1  0.40019881  0.51402377  0.50000000  1
  Fe  Fe5  1  0.47888971  0.83695654  0.50000000  1
  O  O0  1  0.11709875  0.60168898  0.50000000  1
  O  O1  1  0.19679163  0.92015462  0.50000000  1
  O  O2  1  0.39846578  0.08690620  0.00000000  1
  O  O3  1  0.30683806  0.76233443  -0.00000000  1
  O  O4  1  0.19971155  0.43894263  -0.00000000  1
  O  O5  1  0.80066576  0.23694051  -0.00000000  1
  O  O6  1  0.61204249  0.57731923  -0.00000000  1
  O  O7  1  0.69229970  0.89891840  -0.00000000  1
  O  O8  1  0.93399207  0.07856924  0.50000000  1
  O  O9  1  0.66753753  0.41574185  0.50000000  1
  F  F0  1  0.32791518  0.24292785  0.50000000  1
  F  F1  1  0.81226001  0.73653343  0.50000000  1
loop_
_geom_bond_atom_site_label_1
_geom_bond_atom_site_label_2
_geom_bond_distance
_geom_bond_site_symmetry_2
Mg0 O5 1.966553 1_455
Mg0 O2 2.027264 1_555
Mg0 O8 2.204778 1_454
Mg0 O8 2.204778 1_455
Fe0 O1 1.936006 1_554
Fe0 O1 1.936006 1_555
Fe0 O7 1.968407 1_455
Fe0 O2 2.077791 1_565
Fe0 O8 2.226833 1_464
Fe0 O8 2.226833 1_465
Fe1 O9 1.863487 1_555
Fe1 O9 1.863487 1_554
Fe1 O4 1.898004 1_655
Fe1 O5 1.951132 1_555
Fe2 O0 1.952725 1_655
Fe2 O0 1.952725 1_654
Fe2 O6 1.981301 1_555
Fe2 O3 1.990452 1_655
Fe3 O8 1.956122 1_555
Fe3 O2 1.971764 1_555
Fe3 O2 1.971764 1_556
Fe3 O5 2.113916 1_555
Fe3 O5 2.113916 1_556
Fe4 O6 1.980022 1_556
Fe4 O6 1.980022 1_555
Fe4 O4 2.022346 1_555
Fe4 O4 2.022346 1_556
Fe4 O0 2.038711 1_555
Fe4 O9 2.090953 1_555
Fe5 O3 1.966469 1_556
Fe5 O3 1.966469 1_555
Fe5 O7 1.976920 1_556
Fe5 O7 1.976920 1_555
Fe5 O1 1.988885 1_555
F0 Mg0 1.944922 1_555
F0 Mg0 1.944922 1_556
F0 Fe3 2.193546 1_555
F1 Fe2 2.089391 1_555
F1 Fe2 2.089391 1_556
F1 Fe5 2.371814 1_555
