# generated using pymatgen
data_Na2MgSi2Sn3(SO6)4
_symmetry_space_group_name_H-M   'P 1'
_cell_length_a   8.77576498
_cell_length_b   8.76050640
_cell_length_c   23.07683679
_cell_angle_alpha   89.38949155
_cell_angle_beta   90.12220971
_cell_angle_gamma   119.65483596
_symmetry_Int_Tables_number   1
_chemical_formula_structural   Na2MgSi2Sn3(SO6)4
_chemical_formula_sum   'Na6 Mg3 Si6 Sn9 S12 O72'
_cell_volume   1541.67792611
_cell_formula_units_Z   3
loop_
 _symmetry_equiv_pos_site_id
 _symmetry_equiv_pos_as_xyz
  1  'x, y, z'
loop_
 _atom_site_type_symbol
 _atom_site_label
 _atom_site_symmetry_multiplicity
 _atom_site_fract_x
 _atom_site_fract_y
 _atom_site_fract_z
 _atom_site_occupancy
  Na  Na0  1  0.98234098  0.98719300  0.50561761  1
  Na  Na1  1  0.01956112  0.01733059  0.99972755  1
  Na  Na2  1  0.66846955  0.31914260  0.83519225  1
  Na  Na3  1  0.66414594  0.32346187  0.33485698  1
  Na  Na4  1  0.33521944  0.65984018  0.16472823  1
  Na  Na5  1  0.34994971  0.67256035  0.66926227  1
  Mg  Mg0  1  0.97811039  0.98309710  0.64765010  1
  Mg  Mg1  1  0.01041212  0.00840302  0.14388118  1
  Mg  Mg2  1  0.34315485  0.67963659  0.31620222  1
  Si  Si0  1  0.70765290  0.99519804  0.74837802  1
  Si  Si1  1  0.67405745  0.62681635  0.58350272  1
  Si  Si2  1  0.37059779  0.33408467  0.08180848  1
  Si  Si3  1  0.04091749  0.37676167  0.91590713  1
  Si  Si4  1  0.32779129  0.95486138  0.91698323  1
  Si  Si5  1  0.62325513  0.96198412  0.41418599  1
  Sn  Sn0  1  0.99042054  0.99760998  0.35134250  1
  Sn  Sn1  1  0.00245994  0.01392933  0.85320546  1
  Sn  Sn2  1  0.66647299  0.33332233  0.68768437  1
  Sn  Sn3  1  0.66024527  0.33502922  0.18119538  1
  Sn  Sn4  1  0.65629290  0.32037396  0.97744674  1
  Sn  Sn5  1  0.66711192  0.33088774  0.48330702  1
  Sn  Sn6  1  0.32313112  0.65458879  0.01607196  1
  Sn  Sn7  1  0.35308448  0.67263505  0.51979353  1
  Sn  Sn8  1  0.33279044  0.67750772  0.81554880  1
  S  S0  1  0.28827909  0.99665302  0.24952601  1
  S  S1  1  0.70791524  0.70788638  0.24811566  1
  S  S2  1  0.00134751  0.29627703  0.24785364  1
  S  S3  1  0.28926200  0.29143207  0.74797095  1
  S  S4  1  0.00033823  0.71226509  0.74902021  1
  S  S5  1  0.96444893  0.33427080  0.58287750  1
  S  S6  1  0.36834790  0.03932695  0.58410225  1
  S  S7  1  0.95745577  0.62719009  0.08358666  1
  S  S8  1  0.66800696  0.03785196  0.08432282  1
  S  S9  1  0.62654021  0.66801616  0.91643216  1
  S  S10  1  0.33169758  0.37533042  0.41439693  1
  S  S11  1  0.04638349  0.66582558  0.41535743  1
  O  O0  1  0.21344881  0.03293754  0.30435875  1
  O  O1  1  0.81692306  0.78070000  0.30281939  1
  O  O2  1  0.96479357  0.18706196  0.30300764  1
  O  O3  1  0.22014507  0.18571404  0.80238364  1
  O  O4  1  0.97260202  0.78585518  0.80289649  1
  O  O5  1  0.82199127  0.03237923  0.80832218  1
  O  O6  1  0.79249020  0.97040834  0.69188671  1
  O  O7  1  0.18670622  0.20970943  0.69649658  1
  O  O8  1  0.02931999  0.81852163  0.69708961  1
  O  O9  1  0.79504691  0.81774161  0.19764994  1
  O  O10  1  0.02287858  0.20904982  0.19788921  1
  O  O11  1  0.18131851  0.97767810  0.19901203  1
  O  O12  1  0.88616125  0.36863797  0.63425574  1
  O  O13  1  0.48476896  0.11344517  0.63474448  1
  O  O14  1  0.62829041  0.49479850  0.64000732  1
  O  O15  1  0.88527828  0.51266738  0.13805146  1
  O  O16  1  0.63456554  0.11627678  0.13812690  1
  O  O17  1  0.49271331  0.37924461  0.14193316  1
  O  O18  1  0.47071840  0.30698786  0.02704241  1
  O  O19  1  0.85090267  0.54475774  0.03209883  1
  O  O20  1  0.70300951  0.15078134  0.03250493  1
  O  O21  1  0.44751830  0.14349101  0.52951831  1
  O  O22  1  0.69826120  0.53565613  0.52373424  1
  O  O23  1  0.85475619  0.30078215  0.52947462  1
  O  O24  1  0.55247475  0.70039282  0.96970454  1
  O  O25  1  0.15652250  0.44819441  0.97457389  1
  O  O26  1  0.30065978  0.84324583  0.97751637  1
  O  O27  1  0.54852701  0.84796135  0.47447333  1
  O  O28  1  0.29491775  0.44369246  0.46857137  1
  O  O29  1  0.14731253  0.69214732  0.47006659  1
  O  O30  1  0.12444198  0.63876987  0.36406862  1
  O  O31  1  0.50980073  0.88015047  0.35820031  1
  O  O32  1  0.35496740  0.48137827  0.36311160  1
  O  O33  1  0.12579091  0.49155792  0.85679322  1
  O  O34  1  0.37385291  0.88170336  0.85965983  1
  O  O35  1  0.51791992  0.63381775  0.86413877  1
  O  O36  1  0.02970728  0.82935328  0.40993851  1
  O  O37  1  0.82463836  0.98423435  0.41088538  1
  O  O38  1  0.17575208  0.19329933  0.40917987  1
  O  O39  1  0.01683489  0.18093204  0.91295804  1
  O  O40  1  0.14856427  0.96593956  0.90922582  1
  O  O41  1  0.80129840  0.82368238  0.91055963  1
  O  O42  1  0.98952094  0.18365721  0.58941860  1
  O  O43  1  0.19909437  0.02806898  0.59107438  1
  O  O44  1  0.84438098  0.81512695  0.58555560  1
  O  O45  1  0.96800511  0.79662590  0.09234997  1
  O  O46  1  0.82151116  0.01810015  0.09313867  1
  O  O47  1  0.18371778  0.16280579  0.08926009  1
  O  O48  1  0.68345863  0.17510120  0.74418128  1
  O  O49  1  0.47000427  0.31248130  0.74501136  1
  O  O50  1  0.84007507  0.53323153  0.74498792  1
  O  O51  1  0.69577579  0.52845054  0.24541895  1
  O  O52  1  0.83548494  0.31218320  0.24270128  1
  O  O53  1  0.46986725  0.15844897  0.24572233  1
  O  O54  1  0.64487135  0.51015171  0.92271525  1
  O  O55  1  0.85110405  0.36784903  0.92405992  1
  O  O56  1  0.50052587  0.14975373  0.92028931  1
  O  O57  1  0.64872388  0.16222909  0.42376353  1
  O  O58  1  0.49180654  0.35855051  0.42116411  1
  O  O59  1  0.86679431  0.51048316  0.42125581  1
  O  O60  1  0.36342526  0.52020866  0.07851821  1
  O  O61  1  0.13492863  0.64520891  0.08033227  1
  O  O62  1  0.50586050  0.86665140  0.07871624  1
  O  O63  1  0.34879846  0.85975280  0.57734343  1
  O  O64  1  0.48553869  0.63085831  0.58025368  1
  O  O65  1  0.13580422  0.50171492  0.57410716  1
  O  O66  1  0.30492802  0.83968254  0.25662293  1
  O  O67  1  0.53272488  0.68578902  0.25593319  1
  O  O68  1  0.15456861  0.46935091  0.25683146  1
  O  O69  1  0.30699721  0.46817745  0.75483583  1
  O  O70  1  0.15594209  0.68623291  0.75331629  1
  O  O71  1  0.50950078  0.81875577  0.75514880  1
loop_
_geom_bond_atom_site_label_1
_geom_bond_atom_site_label_2
_geom_bond_distance
_geom_bond_site_symmetry_2
Na0 O44 2.298987 1_555
Na0 O37 2.578361 1_555
Na0 O42 2.582472 1_565
Na0 O43 2.638292 1_665
Na0 O36 2.756390 1_655
Na0 O38 2.826956 1_665
Na1 O39 2.456983 1_555
Na1 O47 2.488987 1_556
Na1 O40 2.525991 1_545
Na1 O45 2.749926 1_446
Na1 O41 2.760997 1_445
Na1 O46 2.774071 1_456
Na2 O56 2.452891 1_555
Na2 O48 2.498514 1_555
Na2 O55 2.506892 1_555
Na2 O50 2.693315 1_555
Na2 O49 2.693391 1_555
Na2 O54 2.709072 1_555
Na3 O57 2.443988 1_555
Na3 O58 2.614320 1_555
Na3 O53 2.614788 1_555
Na3 O52 2.637896 1_555
Na3 O51 2.644246 1_555
Na3 O59 2.644532 1_555
Na4 O60 2.422624 1_555
Na4 O61 2.582023 1_555
Na4 O62 2.591538 1_555
Na4 O67 2.662793 1_555
Na4 O68 2.671432 1_555
Na4 O66 2.745552 1_555
Na5 O71 2.407660 1_555
Na5 O64 2.494989 1_555
Na5 O69 2.551008 1_555
Na5 O70 2.626091 1_555
Na5 O63 2.670398 1_555
Na5 O65 2.804072 1_555
Mg0 O6 1.879754 1_555
Mg0 O44 1.981117 1_555
Mg0 O8 2.046030 1_655
Mg0 O42 2.163113 1_565
Mg0 O43 2.205553 1_665
Mg0 O7 2.237314 1_665
Mg1 O47 1.915122 1_555
Mg1 O46 2.062885 1_455
Mg1 O11 2.079569 1_545
Mg1 O45 2.087243 1_445
Mg1 O10 2.123882 1_555
Mg1 O9 2.177972 1_445
Mg2 O31 1.910986 1_555
Mg2 O32 2.082508 1_555
Mg2 O30 2.086374 1_555
Mg2 O66 2.095501 1_555
Mg2 O67 2.150457 1_555
Mg2 O68 2.244329 1_555
O0 S0 1.533661 1_545
O0 Sn0 2.122415 1_445
O1 S1 1.524410 1_555
O1 Sn0 2.087598 1_555
O2 S2 1.519992 1_655
O2 Sn0 2.092404 1_545
O3 S3 1.491625 1_555
O3 Sn1 2.101613 1_555
O4 S4 1.481317 1_655
O4 Sn1 2.222333 1_665
O5 Si0 1.645224 1_545
O5 Sn1 1.962126 1_655
O6 Si0 1.571977 1_555
O7 S3 1.452428 1_555
O8 S4 1.452786 1_555
O9 S1 1.455631 1_555
O10 S2 1.453161 1_555
O11 S0 1.453492 1_555
O12 S5 1.477900 1_555
O12 Sn2 2.178214 1_555
O13 S6 1.478457 1_555
O13 Sn2 2.178992 1_555
O14 Si1 1.646093 1_555
O14 Sn2 1.938619 1_555
O15 S7 1.528133 1_555
O15 Sn3 2.060888 1_555
O16 S8 1.522842 1_555
O16 Sn3 2.079275 1_555
O17 Si2 1.678065 1_555
O17 Sn3 1.919085 1_555
O18 Si2 1.625771 1_555
O18 Sn4 1.947297 1_554
O19 S7 1.467303 1_555
O19 Sn4 2.256766 1_554
O20 S8 1.476031 1_555
O20 Sn4 2.133089 1_554
O21 S6 1.501314 1_555
O21 Sn5 2.094498 1_555
O22 Si1 1.666689 1_555
O22 Sn5 1.926760 1_555
O23 S5 1.501551 1_555
O23 Sn5 2.081497 1_555
O24 S9 1.485771 1_555
O24 Sn6 2.134861 1_556
O25 Si3 1.624104 1_555
O25 Sn6 1.933660 1_556
O26 Si4 1.645022 1_555
O26 Sn6 1.962774 1_556
O27 Si5 1.639960 1_555
O27 Sn7 1.939397 1_555
O28 S10 1.494905 1_555
O28 Sn7 2.171472 1_555
O29 S11 1.493639 1_555
O29 Sn7 2.213467 1_555
O30 S11 1.447899 1_555
O31 Si5 1.575560 1_555
O32 S10 1.447532 1_555
O33 Si3 1.631245 1_555
O33 Sn8 1.976255 1_555
O34 Si4 1.612692 1_555
O34 Sn8 1.940471 1_555
O35 S9 1.474748 1_555
O35 Sn8 2.154466 1_555
O36 S11 1.514240 1_555
O36 Sn0 2.139738 1_455
O37 Si5 1.681217 1_555
O37 Sn0 1.963367 1_555
O38 S10 1.508054 1_555
O38 Sn0 2.155470 1_445
O39 Si3 1.623610 1_555
O39 Sn1 1.979229 1_555
O40 Si4 1.632426 1_555
O40 Sn1 2.001686 1_565
O41 S9 1.468840 1_555
O41 Sn1 2.167366 1_665
O42 S5 1.447426 1_555
O43 S6 1.448288 1_555
O44 Si1 1.587209 1_555
O45 S7 1.457079 1_555
O46 S8 1.454234 1_555
O47 Si2 1.591003 1_555
O48 Si0 1.692975 1_545
O48 Sn2 1.951516 1_555
O49 S3 1.505094 1_555
O49 Sn2 2.109333 1_555
O50 S4 1.505454 1_655
O50 Sn2 2.130105 1_555
O51 S1 1.524004 1_555
O51 Sn3 2.166500 1_555
O52 S2 1.533577 1_655
O52 Sn3 2.169994 1_555
O53 S0 1.522842 1_545
O53 Sn3 2.192189 1_555
O54 S9 1.474888 1_555
O54 Sn4 2.118719 1_555
O55 Si3 1.639685 1_655
O55 Sn4 1.976878 1_555
O56 Si4 1.630939 1_545
O56 Sn4 1.963425 1_555
O57 Si5 1.672199 1_545
O57 Sn5 1.975757 1_555
O58 S10 1.491042 1_555
O58 Sn5 2.198674 1_555
O59 S11 1.492981 1_655
O59 Sn5 2.197978 1_555
O60 Si2 1.663518 1_555
O60 Sn6 1.990276 1_555
O61 S7 1.487684 1_455
O61 Sn6 2.192538 1_555
O62 S8 1.477315 1_565
O62 Sn6 2.282992 1_555
O63 S6 1.505535 1_565
O63 Sn7 2.135400 1_555
O64 Si1 1.673704 1_555
O64 Sn7 1.958296 1_555
O65 S5 1.505400 1_455
O65 Sn7 2.143319 1_555
O66 S0 1.460513 1_555
O67 S1 1.462750 1_555
O68 S2 1.462167 1_555
O69 S3 1.487767 1_555
O69 Sn8 2.240496 1_555
O70 S4 1.494540 1_555
O70 Sn8 2.140676 1_555
O71 Si0 1.665463 1_555
O71 Sn8 1.988075 1_555
