# generated using pymatgen
data_Sc11(AlGe4)2
_symmetry_space_group_name_H-M   'P 1'
_cell_length_a   10.53890453
_cell_length_b   10.53890453
_cell_length_c   10.53890453
_cell_angle_alpha   120.57677353
_cell_angle_beta   120.57677353
_cell_angle_gamma   89.00386869
_symmetry_Int_Tables_number   1
_chemical_formula_structural   Sc11(AlGe4)2
_chemical_formula_sum   'Sc22 Al4 Ge16'
_cell_volume   820.34680591
_cell_formula_units_Z   2
loop_
 _symmetry_equiv_pos_site_id
 _symmetry_equiv_pos_as_xyz
  1  'x, y, z'
loop_
 _atom_site_type_symbol
 _atom_site_label
 _atom_site_symmetry_multiplicity
 _atom_site_fract_x
 _atom_site_fract_y
 _atom_site_fract_z
 _atom_site_occupancy
  Sc  Sc0  1  0.94118000  0.68973500  0.25144500  1
  Sc  Sc1  1  0.68973500  0.94118000  0.25144500  1
  Sc  Sc2  1  0.68973500  0.43829000  0.74855500  1
  Sc  Sc3  1  0.05882000  0.31026500  0.74855500  1
  Sc  Sc4  1  0.43880900  0.10276800  0.33604200  1
  Sc  Sc5  1  0.10276800  0.76672600  0.66395800  1
  Sc  Sc6  1  0.10276800  0.43880900  0.33604200  1
  Sc  Sc7  1  0.56119100  0.89723200  0.66395800  1
  Sc  Sc8  1  0.23327400  0.89723200  0.33604200  1
  Sc  Sc9  1  0.89723200  0.23327400  0.33604200  1
  Sc  Sc10  1  0.89723200  0.56119100  0.66395800  1
  Sc  Sc11  1  0.76672600  0.10276800  0.66395800  1
  Sc  Sc12  1  0.32830000  0.32830000  0.65660100  1
  Sc  Sc13  1  0.32830000  0.67170000  0.00000000  1
  Sc  Sc14  1  0.67170000  0.32830000  0.00000000  1
  Sc  Sc15  1  0.67170000  0.67170000  0.34339900  1
  Sc  Sc16  1  0.16927500  0.16927500  0.00000000  1
  Sc  Sc17  1  0.83072500  0.83072500  0.00000000  1
  Sc  Sc18  1  0.31026500  0.56171000  0.25144500  1
  Sc  Sc19  1  0.31026500  0.05882000  0.74855500  1
  Sc  Sc20  1  0.56171000  0.31026500  0.25144500  1
  Sc  Sc21  1  0.43829000  0.68973500  0.74855500  1
  Al  Al0  1  0.87286000  0.12714000  0.00000000  1
  Al  Al1  1  0.12714000  0.87286000  0.00000000  1
  Al  Al2  1  0.12714000  0.12714000  0.25428000  1
  Al  Al3  1  0.87286000  0.87286000  0.74572000  1
  Ge  Ge0  1  0.37446000  0.37446000  0.40771400  1
  Ge  Ge1  1  0.37446000  0.96674600  0.00000000  1
  Ge  Ge2  1  0.96674600  0.37446000  0.00000000  1
  Ge  Ge3  1  0.62554000  0.03325400  0.00000000  1
  Ge  Ge4  1  0.03325400  0.62554000  0.00000000  1
  Ge  Ge5  1  0.03325400  0.03325400  0.40771400  1
  Ge  Ge6  1  0.62554000  0.62554000  0.59228600  1
  Ge  Ge7  1  0.96674600  0.96674600  0.59228600  1
  Ge  Ge8  1  0.50000000  0.14705500  0.64705500  1
  Ge  Ge9  1  0.14705500  0.50000000  0.64705500  1
  Ge  Ge10  1  0.85294500  0.50000000  0.35294500  1
  Ge  Ge11  1  0.50000000  0.85294500  0.35294500  1
  Ge  Ge12  1  0.38198600  0.38198600  0.00000000  1
  Ge  Ge13  1  0.61801400  0.61801400  0.00000000  1
  Ge  Ge14  1  0.75000000  0.25000000  0.50000000  1
  Ge  Ge15  1  0.25000000  0.75000000  0.50000000  1
loop_
_geom_bond_atom_site_label_1
_geom_bond_atom_site_label_2
_geom_bond_distance
_geom_bond_site_symmetry_2
Al0 Al3 2.656436 1_544
Al0 Al2 2.656436 1_655
Al0 Ge3 2.804005 1_555
Al0 Ge2 2.804005 1_555
Al0 Sc14 2.971966 1_555
Al0 Sc7 2.985588 1_544
Al0 Sc6 2.985588 1_655
Al0 Sc11 2.985593 1_554
Al0 Sc9 2.985593 1_555
Al0 Sc17 3.162926 1_545
Al0 Sc16 3.162926 1_655
Al1 Al2 2.656436 1_565
Al1 Al3 2.656436 1_454
Al1 Ge4 2.804005 1_555
Al1 Ge1 2.804005 1_555
Al1 Sc13 2.971966 1_555
Al1 Sc10 2.985588 1_454
Al1 Sc4 2.985588 1_565
Al1 Sc8 2.985593 1_555
Al1 Sc5 2.985593 1_554
Al1 Sc17 3.162926 1_455
Al1 Sc16 3.162926 1_565
Al2 Ge0 2.804005 1_555
Al2 Ge5 2.804005 1_555
Al2 Sc12 2.971973 1_555
Al2 Sc6 2.985583 1_555
Al2 Sc4 2.985583 1_555
Al2 Sc9 2.985593 1_455
Al2 Sc8 2.985593 1_545
Al2 Sc17 3.162926 1_445
Al2 Sc16 3.162926 1_555
Al3 Ge6 2.804005 1_555
Al3 Ge7 2.804005 1_555
Al3 Sc15 2.971973 1_555
Al3 Sc10 2.985583 1_555
Al3 Sc7 2.985583 1_555
Al3 Sc11 2.985593 1_565
Al3 Sc5 2.985593 1_655
Al3 Sc17 3.162926 1_556
Al3 Sc16 3.162926 1_666
Ge0 Sc4 2.735395 1_555
Ge0 Sc6 2.735395 1_555
Ge0 Ge6 2.749121 1_555
Ge0 Sc16 3.011878 1_555
Ge0 Sc18 3.031645 1_555
Ge0 Sc20 3.031645 1_555
Ge0 Sc2 3.142008 1_555
Ge0 Sc21 3.142008 1_555
Ge0 Sc12 3.155641 1_555
Ge1 Sc5 2.735399 1_554
Ge1 Sc4 2.735403 1_565
Ge1 Ge3 2.749121 1_565
Ge1 Sc16 3.011878 1_565
Ge1 Sc20 3.031645 1_565
Ge1 Sc19 3.031645 1_564
Ge1 Sc1 3.142008 1_555
Ge1 Sc21 3.142008 1_554
Ge1 Sc13 3.155631 1_555
Ge2 Sc11 2.735399 1_554
Ge2 Sc6 2.735403 1_655
Ge2 Ge4 2.749121 1_655
Ge2 Sc16 3.011878 1_655
Ge2 Sc18 3.031645 1_655
Ge2 Sc3 3.031645 1_654
Ge2 Sc0 3.142008 1_555
Ge2 Sc2 3.142008 1_554
Ge2 Sc14 3.155631 1_555
Ge3 Sc9 2.735399 1_555
Ge3 Sc7 2.735403 1_544
Ge3 Sc17 3.011878 1_545
Ge3 Sc1 3.031645 1_545
Ge3 Sc21 3.031645 1_544
Ge3 Sc20 3.142008 1_555
Ge3 Sc19 3.142008 1_554
Ge3 Sc14 3.155631 1_555
Ge4 Sc8 2.735399 1_555
Ge4 Sc10 2.735403 1_454
Ge4 Sc17 3.011878 1_455
Ge4 Sc0 3.031645 1_455
Ge4 Sc2 3.031645 1_454
Ge4 Sc18 3.142008 1_555
Ge4 Sc3 3.142008 1_554
Ge4 Sc13 3.155631 1_555
Ge5 Sc9 2.735399 1_455
Ge5 Sc8 2.735399 1_545
Ge5 Ge7 2.749121 1_445
Ge5 Sc17 3.011878 1_445
Ge5 Sc0 3.031645 1_445
Ge5 Sc1 3.031645 1_445
Ge5 Sc3 3.142008 1_555
Ge5 Sc19 3.142008 1_555
Ge5 Sc12 3.155629 1_555
Ge6 Sc7 2.735395 1_555
Ge6 Sc10 2.735395 1_555
Ge6 Sc17 3.011878 1_556
Ge6 Sc21 3.031645 1_555
Ge6 Sc2 3.031645 1_555
Ge6 Sc18 3.142008 1_555
Ge6 Sc20 3.142008 1_555
Ge6 Sc15 3.155641 1_555
Ge7 Sc5 2.735399 1_655
Ge7 Sc11 2.735399 1_565
Ge7 Sc16 3.011878 1_666
Ge7 Sc3 3.031645 1_665
Ge7 Sc19 3.031645 1_665
Ge7 Sc0 3.142008 1_555
Ge7 Sc1 3.142008 1_555
Ge7 Sc15 3.155629 1_555
Ge8 Sc14 2.608183 1_556
Ge8 Sc12 2.608183 1_555
Ge8 Sc4 2.771424 1_555
Ge8 Sc11 2.771428 1_555
Ge8 Sc8 2.771428 1_545
Ge8 Sc7 2.771430 1_545
Ge8 Sc19 3.043054 1_555
Ge8 Sc2 3.043054 1_555
Ge9 Sc13 2.608183 1_556
Ge9 Sc12 2.608183 1_555
Ge9 Sc6 2.771424 1_555
Ge9 Sc9 2.771428 1_455
Ge9 Sc5 2.771428 1_555
Ge9 Sc10 2.771430 1_455
Ge9 Sc3 3.043054 1_555
Ge9 Sc21 3.043054 1_555
Ge10 Sc14 2.608183 1_555
Ge10 Sc15 2.608183 1_555
Ge10 Sc10 2.771424 1_555
Ge10 Sc5 2.771428 1_655
Ge10 Sc9 2.771428 1_555
Ge10 Sc6 2.771430 1_655
Ge10 Sc20 3.043054 1_555
Ge10 Sc0 3.043054 1_555
Ge11 Sc13 2.608183 1_555
Ge11 Sc15 2.608183 1_555
Ge11 Sc7 2.771424 1_555
Ge11 Sc11 2.771428 1_565
Ge11 Sc8 2.771428 1_555
Ge11 Sc4 2.771430 1_565
Ge11 Sc18 3.043054 1_555
Ge11 Sc1 3.043054 1_555
Ge12 Sc18 2.839489 1_555
Ge12 Sc20 2.839489 1_555
Ge12 Sc19 2.839489 1_554
Ge12 Sc3 2.839489 1_554
Ge12 Sc12 3.095551 1_554
Ge12 Sc15 3.095560 1_555
Ge12 Sc13 3.095562 1_555
Ge12 Sc14 3.095562 1_555
Ge12 Sc16 3.197739 1_555
Ge13 Sc2 2.839489 1_554
Ge13 Sc0 2.839489 1_555
Ge13 Sc1 2.839489 1_555
Ge13 Sc21 2.839489 1_554
Ge13 Sc15 3.095551 1_555
Ge13 Sc12 3.095560 1_554
Ge13 Sc14 3.095562 1_555
Ge13 Sc13 3.095562 1_555
Ge13 Sc17 3.197739 1_555
Ge14 Sc20 2.750141 1_555
Ge14 Sc1 2.750141 1_545
Ge14 Sc2 2.750141 1_555
Ge14 Sc3 2.750141 1_655
Ge14 Sc11 2.798731 1_555
Ge14 Sc9 2.798731 1_555
Ge14 Sc10 2.798741 1_555
Ge14 Sc4 2.798741 1_555
Ge15 Sc18 2.750141 1_555
Ge15 Sc0 2.750141 1_455
Ge15 Sc21 2.750141 1_555
Ge15 Sc19 2.750141 1_565
Ge15 Sc8 2.798731 1_555
Ge15 Sc5 2.798731 1_555
Ge15 Sc7 2.798741 1_555
Ge15 Sc6 2.798741 1_555
