# generated using pymatgen
data_KTa5O13
_symmetry_space_group_name_H-M   'P 1'
_cell_length_a   5.67532303
_cell_length_b   10.74385482
_cell_length_c   16.86424187
_cell_angle_alpha   90.00000000
_cell_angle_beta   90.00000000
_cell_angle_gamma   90.00000000
_symmetry_Int_Tables_number   1
_chemical_formula_structural   KTa5O13
_chemical_formula_sum   'K4 Ta20 O52'
_cell_volume   1028.29456258
_cell_formula_units_Z   4
loop_
 _symmetry_equiv_pos_site_id
 _symmetry_equiv_pos_as_xyz
  1  'x, y, z'
loop_
 _atom_site_type_symbol
 _atom_site_label
 _atom_site_symmetry_multiplicity
 _atom_site_fract_x
 _atom_site_fract_y
 _atom_site_fract_z
 _atom_site_occupancy
  K  K0  1  0.79744700  0.32631448  0.75000000  1
  K  K1  1  0.79744700  0.17368552  0.25000000  1
  K  K2  1  0.20255300  0.82631448  0.75000000  1
  K  K3  1  0.20255300  0.67368552  0.25000000  1
  Ta  Ta0  1  0.33439860  0.75000000  0.50000000  1
  Ta  Ta1  1  0.66560140  0.25000000  0.00000000  1
  Ta  Ta2  1  0.66560140  0.25000000  0.50000000  1
  Ta  Ta3  1  0.33439860  0.75000000  0.00000000  1
  Ta  Ta4  1  0.34492685  0.36682985  0.36288854  1
  Ta  Ta5  1  0.34492685  0.13317015  0.63711146  1
  Ta  Ta6  1  0.65507315  0.86682985  0.13711146  1
  Ta  Ta7  1  0.65507315  0.63317015  0.86288854  1
  Ta  Ta8  1  0.65507315  0.63317015  0.63711146  1
  Ta  Ta9  1  0.65507315  0.86682985  0.36288854  1
  Ta  Ta10  1  0.34492685  0.13317015  0.86288854  1
  Ta  Ta11  1  0.34492685  0.36682985  0.13711146  1
  Ta  Ta12  1  0.16087864  0.06355921  0.42387529  1
  Ta  Ta13  1  0.16087864  0.43644079  0.57612471  1
  Ta  Ta14  1  0.83912136  0.56355921  0.07612471  1
  Ta  Ta15  1  0.83912136  0.93644079  0.92387529  1
  Ta  Ta16  1  0.83912136  0.93644079  0.57612471  1
  Ta  Ta17  1  0.83912136  0.56355921  0.42387529  1
  Ta  Ta18  1  0.16087864  0.43644079  0.92387529  1
  Ta  Ta19  1  0.16087864  0.06355921  0.07612471  1
  O  O0  1  0.39981153  0.74714577  0.38833325  1
  O  O1  1  0.39981153  0.75285423  0.61166675  1
  O  O2  1  0.60018847  0.24714577  0.11166675  1
  O  O3  1  0.60018847  0.25285423  0.88833325  1
  O  O4  1  0.60018847  0.25285423  0.61166675  1
  O  O5  1  0.60018847  0.24714577  0.38833325  1
  O  O6  1  0.39981153  0.75285423  0.88833325  1
  O  O7  1  0.39981153  0.74714577  0.11166675  1
  O  O8  1  0.40880661  0.99614176  0.36451284  1
  O  O9  1  0.40880661  0.50385824  0.63548716  1
  O  O10  1  0.59119339  0.49614176  0.13548716  1
  O  O11  1  0.59119339  0.00385824  0.86451284  1
  O  O12  1  0.59119339  0.00385824  0.63548716  1
  O  O13  1  0.59119339  0.49614176  0.36451284  1
  O  O14  1  0.40880661  0.50385824  0.86451284  1
  O  O15  1  0.40880661  0.99614176  0.13548716  1
  O  O16  1  0.36235030  0.37493784  0.48725261  1
  O  O17  1  0.36235030  0.12506216  0.51274739  1
  O  O18  1  0.63222126  0.65366696  0.75000000  1
  O  O19  1  0.63764970  0.87493784  0.01274739  1
  O  O20  1  0.63764970  0.62506216  0.51274739  1
  O  O21  1  0.63764970  0.87493784  0.48725261  1
  O  O22  1  0.36235030  0.12506216  0.98725261  1
  O  O23  1  0.36235030  0.37493784  0.01274739  1
  O  O24  1  0.08931108  0.48395904  0.13738873  1
  O  O25  1  0.08931108  0.01604096  0.86261127  1
  O  O26  1  0.91068892  0.98395904  0.36261127  1
  O  O27  1  0.91068892  0.51604096  0.63738873  1
  O  O28  1  0.91068892  0.51604096  0.86261127  1
  O  O29  1  0.91068892  0.98395904  0.13738873  1
  O  O30  1  0.08931108  0.01604096  0.63738873  1
  O  O31  1  0.08931108  0.48395904  0.36261127  1
  O  O32  1  0.13165586  0.21886789  0.12608093  1
  O  O33  1  0.13165586  0.28113211  0.87391907  1
  O  O34  1  0.86834414  0.71886789  0.37391907  1
  O  O35  1  0.86834414  0.78113211  0.62608093  1
  O  O36  1  0.86834414  0.78113211  0.87391907  1
  O  O37  1  0.86834414  0.71886789  0.12608093  1
  O  O38  1  0.13165586  0.28113211  0.62608093  1
  O  O39  1  0.13165586  0.21886789  0.37391907  1
  O  O40  1  0.12856243  0.60601731  0.99640161  1
  O  O41  1  0.12856243  0.89398269  0.00359839  1
  O  O42  1  0.87143757  0.10601731  0.50359839  1
  O  O43  1  0.87143757  0.39398269  0.49640161  1
  O  O44  1  0.87143757  0.39398269  0.00359839  1
  O  O45  1  0.87143757  0.10601731  0.99640161  1
  O  O46  1  0.12856243  0.89398269  0.49640161  1
  O  O47  1  0.12856243  0.60601731  0.50359839  1
  O  O48  1  0.36777874  0.34633304  0.25000000  1
  O  O49  1  0.36777874  0.15366696  0.75000000  1
  O  O50  1  0.63222126  0.84633304  0.25000000  1
  O  O51  1  0.63764970  0.62506216  0.98725261  1
loop_
_geom_bond_atom_site_label_1
_geom_bond_atom_site_label_2
_geom_bond_distance
_geom_bond_site_symmetry_2
K0 O4 2.705283 1_555
K0 O3 2.705283 1_555
K0 O28 2.859141 1_555
K0 O27 2.859141 1_555
K0 O38 2.863660 1_655
K0 O33 2.863660 1_655
K0 O49 3.063816 1_555
K1 O2 2.705283 1_555
K1 O5 2.705283 1_555
K1 O29 2.859141 1_545
K1 O26 2.859141 1_545
K1 O32 2.863660 1_655
K1 O39 2.863660 1_655
K1 O48 3.063816 1_555
K2 O6 2.705283 1_555
K2 O1 2.705283 1_555
K2 O25 2.859141 1_565
K2 O30 2.859141 1_565
K2 O36 2.863660 1_455
K2 O35 2.863660 1_455
K2 O18 3.063816 1_555
K3 O0 2.705283 1_555
K3 O7 2.705283 1_555
K3 O24 2.859141 1_555
K3 O31 2.859141 1_555
K3 O37 2.863660 1_455
K3 O34 2.863660 1_455
K3 O50 3.063816 1_555
O0 Ta0 1.919663 1_555
O0 Ta9 1.984011 1_555
O1 Ta0 1.919663 1_555
O1 Ta8 1.984011 1_555
O2 Ta1 1.919663 1_555
O2 Ta11 1.984011 1_555
O3 Ta1 1.919663 1_556
O3 Ta10 1.984011 1_555
O4 Ta2 1.919663 1_555
O4 Ta5 1.984011 1_555
O5 Ta2 1.919663 1_555
O5 Ta4 1.984011 1_555
O6 Ta3 1.919663 1_556
O6 Ta7 1.984011 1_555
O7 Ta3 1.919663 1_555
O7 Ta6 1.984011 1_555
O8 Ta12 1.872619 1_565
O8 Ta9 1.970871 1_555
O9 Ta13 1.872619 1_555
O9 Ta8 1.970871 1_555
O10 Ta14 1.872619 1_555
O10 Ta11 1.970871 1_555
O11 Ta15 1.872619 1_545
O11 Ta10 1.970871 1_555
O12 Ta16 1.872619 1_545
O12 Ta5 1.970871 1_555
O13 Ta17 1.872619 1_555
O13 Ta4 1.970871 1_555
O14 Ta18 1.872619 1_555
O14 Ta7 1.970871 1_555
O15 Ta19 1.872619 1_565
O15 Ta6 1.970871 1_555
O16 Ta13 1.997577 1_555
O16 Ta4 2.101442 1_555
O16 Ta2 2.193177 1_555
O17 Ta12 1.997577 1_555
O17 Ta5 2.101442 1_555
O17 Ta2 2.193177 1_555
O18 Ta8 1.920857 1_555
O18 Ta7 1.920857 1_555
O19 Ta15 1.997577 1_554
O19 Ta6 2.101442 1_555
O19 Ta3 2.193177 1_555
O20 Ta17 1.997577 1_555
O20 Ta8 2.101442 1_555
O20 Ta0 2.193177 1_555
O21 Ta16 1.997577 1_555
O21 Ta9 2.101442 1_555
O21 Ta0 2.193177 1_555
O22 Ta19 1.997577 1_556
O22 Ta10 2.101442 1_555
O22 Ta1 2.193177 1_556
O23 Ta18 1.997577 1_554
O23 Ta11 2.101442 1_555
O23 Ta1 2.193177 1_555
O24 Ta11 1.920463 1_555
O24 Ta14 1.953195 1_455
O25 Ta10 1.920463 1_555
O25 Ta15 1.953195 1_445
O26 Ta9 1.920463 1_555
O26 Ta12 1.953195 1_665
O27 Ta8 1.920463 1_555
O27 Ta13 1.953195 1_655
O28 Ta7 1.920463 1_555
O28 Ta18 1.953195 1_655
O29 Ta6 1.920463 1_555
O29 Ta19 1.953195 1_665
O30 Ta5 1.920463 1_555
O30 Ta16 1.953195 1_445
O31 Ta4 1.920463 1_555
O31 Ta17 1.953195 1_455
O32 Ta19 1.876577 1_555
O32 Ta11 2.006668 1_555
O33 Ta18 1.876577 1_555
O33 Ta10 2.006668 1_555
O34 Ta17 1.876577 1_555
O34 Ta9 2.006668 1_555
O35 Ta16 1.876577 1_555
O35 Ta8 2.006668 1_555
O36 Ta15 1.876577 1_555
O36 Ta7 2.006668 1_555
O37 Ta14 1.876577 1_555
O37 Ta6 2.006668 1_555
O38 Ta13 1.876577 1_555
O38 Ta5 2.006668 1_555
O39 Ta12 1.876577 1_555
O39 Ta4 2.006668 1_555
O40 Ta3 1.939416 1_556
O40 Ta14 2.171187 1_456
O40 Ta18 2.202034 1_555
O41 Ta3 1.939416 1_555
O41 Ta15 2.171187 1_454
O41 Ta19 2.202034 1_565
O42 Ta2 1.939416 1_555
O42 Ta12 2.171187 1_655
O42 Ta16 2.202034 1_545
O43 Ta2 1.939416 1_555
O43 Ta13 2.171187 1_655
O43 Ta17 2.202034 1_555
O44 Ta1 1.939416 1_555
O44 Ta18 2.171187 1_654
O44 Ta14 2.202034 1_555
O45 Ta1 1.939416 1_556
O45 Ta19 2.171187 1_656
O45 Ta15 2.202034 1_545
O46 Ta0 1.939416 1_555
O46 Ta16 2.171187 1_455
O46 Ta12 2.202034 1_565
O47 Ta0 1.939416 1_555
O47 Ta17 2.171187 1_455
O47 Ta13 2.202034 1_555
O48 Ta4 1.920857 1_555
O48 Ta11 1.920857 1_555
O49 Ta10 1.920857 1_555
O49 Ta5 1.920857 1_555
O50 Ta9 1.920857 1_555
O50 Ta6 1.920857 1_555
O51 Ta14 1.997577 1_556
O51 Ta7 2.101442 1_555
O51 Ta3 2.193177 1_556
