# generated using pymatgen
data_Na2Zn2Si3Sn6(S3O16)3
_symmetry_space_group_name_H-M   'P 1'
_cell_length_a   17.55934134
_cell_length_b   8.79114679
_cell_length_c   22.96504622
_cell_angle_alpha   90.01318763
_cell_angle_beta   89.71400981
_cell_angle_gamma   120.08904442
_symmetry_Int_Tables_number   1
_chemical_formula_structural   Na2Zn2Si3Sn6(S3O16)3
_chemical_formula_sum   'Na6 Zn6 Si9 Sn18 S27 O144'
_cell_volume   3067.28705278
_cell_formula_units_Z   3
loop_
 _symmetry_equiv_pos_site_id
 _symmetry_equiv_pos_as_xyz
  1  'x, y, z'
loop_
 _atom_site_type_symbol
 _atom_site_label
 _atom_site_symmetry_multiplicity
 _atom_site_fract_x
 _atom_site_fract_y
 _atom_site_fract_z
 _atom_site_occupancy
  Na  Na0  1  0.00151878  0.99156397  0.49457982  1
  Na  Na1  1  0.50011865  0.00949560  0.99889264  1
  Na  Na2  1  0.32895641  0.32472571  0.83703148  1
  Na  Na3  1  0.83439196  0.33349517  0.83737408  1
  Na  Na4  1  0.32682173  0.32456698  0.33301710  1
  Na  Na5  1  0.83083623  0.33554822  0.33533870  1
  Zn  Zn0  1  0.00866498  0.98465970  0.35306112  1
  Zn  Zn1  1  0.49967569  0.01357589  0.85639858  1
  Zn  Zn2  1  0.00632705  0.01303149  0.65060023  1
  Zn  Zn3  1  0.50394546  0.99703396  0.15331083  1
  Zn  Zn4  1  0.83456189  0.33303078  0.98496655  1
  Zn  Zn5  1  0.33183987  0.33184802  0.48000667  1
  Si  Si0  1  0.14668230  0.00201699  0.25222451  1
  Si  Si1  1  0.64485229  0.99548864  0.24782392  1
  Si  Si2  1  0.14497983  0.29502570  0.74790337  1
  Si  Si3  1  0.68885135  0.03925884  0.58231841  1
  Si  Si4  1  0.18752437  0.33650998  0.08144404  1
  Si  Si5  1  0.52009627  0.37183205  0.91786119  1
  Si  Si6  1  0.16552770  0.94824743  0.91638380  1
  Si  Si7  1  0.66362898  0.38035073  0.41602253  1
  Si  Si8  1  0.01936050  0.66948215  0.41812601  1
  Sn  Sn0  1  0.50885428  0.01331460  0.35276380  1
  Sn  Sn1  1  0.01023623  0.00632142  0.85455551  1
  Sn  Sn2  1  0.50360398  0.00194443  0.64503049  1
  Sn  Sn3  1  0.01027894  0.00718884  0.14779064  1
  Sn  Sn4  1  0.32612519  0.32845409  0.68415769  1
  Sn  Sn5  1  0.83328906  0.32822954  0.68084800  1
  Sn  Sn6  1  0.32552371  0.33006156  0.18525012  1
  Sn  Sn7  1  0.82859177  0.32568473  0.18579781  1
  Sn  Sn8  1  0.32840592  0.31767095  0.97849219  1
  Sn  Sn9  1  0.82737515  0.33680236  0.47651397  1
  Sn  Sn10  1  0.16545946  0.66764795  0.02238879  1
  Sn  Sn11  1  0.66357999  0.65943580  0.02098521  1
  Sn  Sn12  1  0.16470880  0.66931899  0.51679056  1
  Sn  Sn13  1  0.66601645  0.66788481  0.51920869  1
  Sn  Sn14  1  0.15926930  0.66834089  0.31176634  1
  Sn  Sn15  1  0.66814493  0.66835961  0.31159067  1
  Sn  Sn16  1  0.16728836  0.66485739  0.81337449  1
  Sn  Sn17  1  0.66241581  0.66332949  0.81582414  1
  S  S0  1  0.35450185  0.71123719  0.25173274  1
  S  S1  1  0.85601334  0.71206151  0.24839078  1
  S  S2  1  0.99874489  0.28803563  0.25097734  1
  S  S3  1  0.49826829  0.29176322  0.24831108  1
  S  S4  1  0.64743186  0.29376983  0.75088166  1
  S  S5  1  0.99684228  0.70327790  0.74831961  1
  S  S6  1  0.50028254  0.71021984  0.75094459  1
  S  S7  1  0.35708230  0.00162873  0.74868187  1
  S  S8  1  0.85282944  0.99728465  0.75181458  1
  S  S9  1  0.47592943  0.33237730  0.58390985  1
  S  S10  1  0.98058843  0.33163238  0.58178718  1
  S  S11  1  0.18706696  0.03895815  0.58067104  1
  S  S12  1  0.33190253  0.62631788  0.58161405  1
  S  S13  1  0.83640316  0.63348525  0.58419702  1
  S  S14  1  0.47805505  0.62570306  0.08297572  1
  S  S15  1  0.97497481  0.62076863  0.08339623  1
  S  S16  1  0.33752701  0.04100496  0.08410090  1
  S  S17  1  0.83351534  0.03781808  0.08203604  1
  S  S18  1  0.68738901  0.33292071  0.08110477  1
  S  S19  1  0.31459554  0.66902522  0.91667457  1
  S  S20  1  0.81382183  0.66805582  0.91570054  1
  S  S21  1  0.01644889  0.37168976  0.91682365  1
  S  S22  1  0.66874097  0.96213526  0.91706695  1
  S  S23  1  0.31465024  0.96002089  0.41596186  1
  S  S24  1  0.81543992  0.95945374  0.41617565  1
  S  S25  1  0.16837873  0.37809205  0.41639396  1
  S  S26  1  0.51691941  0.66233024  0.41656104  1
  O  O0  1  0.10889958  0.05105797  0.30750719  1
  O  O1  1  0.60819669  0.03845775  0.30791786  1
  O  O2  1  0.40868886  0.79084960  0.30554964  1
  O  O3  1  0.90695440  0.78558098  0.30107452  1
  O  O4  1  0.47792748  0.18131131  0.30249078  1
  O  O5  1  0.98070068  0.18073181  0.30273060  1
  O  O6  1  0.10774870  0.17723607  0.80771342  1
  O  O7  1  0.60844596  0.18250688  0.80204795  1
  O  O8  1  0.48546629  0.78860170  0.80275275  1
  O  O9  1  0.97645505  0.77272241  0.80223167  1
  O  O10  1  0.41057721  0.03096695  0.80025206  1
  O  O11  1  0.90601538  0.02528886  0.80534963  1
  O  O12  1  0.39666730  0.97232804  0.69421924  1
  O  O13  1  0.88857561  0.96676458  0.69863987  1
  O  O14  1  0.08815599  0.21357938  0.69115970  1
  O  O15  1  0.59375092  0.21936852  0.69716472  1
  O  O16  1  0.00875538  0.80545951  0.69603535  1
  O  O17  1  0.51365997  0.81537983  0.69662540  1
  O  O18  1  0.39016876  0.81527561  0.19878902  1
  O  O19  1  0.89367680  0.81829101  0.19399243  1
  O  O20  1  0.00989206  0.21149169  0.19559478  1
  O  O21  1  0.51128614  0.21275988  0.19631795  1
  O  O22  1  0.08806941  0.95621949  0.19248159  1
  O  O23  1  0.58893822  0.96345891  0.19056983  1
  O  O24  1  0.43659182  0.36436945  0.63866579  1
  O  O25  1  0.94515136  0.37126003  0.63688992  1
  O  O26  1  0.24192322  0.11390870  0.63535928  1
  O  O27  1  0.74599538  0.11628166  0.64272741  1
  O  O28  1  0.31614702  0.51961618  0.63626850  1
  O  O29  1  0.81883302  0.52083420  0.63825419  1
  O  O30  1  0.44112451  0.51373645  0.13628739  1
  O  O31  1  0.93599613  0.50791858  0.13716022  1
  O  O32  1  0.32133786  0.12080340  0.13645030  1
  O  O33  1  0.81517700  0.11358260  0.13521046  1
  O  O34  1  0.24906969  0.38257679  0.13916503  1
  O  O35  1  0.74272484  0.36728009  0.13466368  1
  O  O36  1  0.23174328  0.29967450  0.02482023  1
  O  O37  1  0.72917986  0.30779165  0.02906480  1
  O  O38  1  0.42542567  0.54102342  0.02988796  1
  O  O39  1  0.92257060  0.54078479  0.03111768  1
  O  O40  1  0.35413051  0.15081496  0.03055241  1
  O  O41  1  0.84851709  0.14646543  0.03009876  1
  O  O42  1  0.23001349  0.15247391  0.53008720  1
  O  O43  1  0.73402758  0.16753942  0.52724884  1
  O  O44  1  0.34875756  0.54746809  0.53080435  1
  O  O45  1  0.85309436  0.55319124  0.53246702  1
  O  O46  1  0.42193855  0.30190824  0.53251268  1
  O  O47  1  0.92467979  0.30837620  0.53105597  1
  O  O48  1  0.27411601  0.69786923  0.96930729  1
  O  O49  1  0.77566173  0.70307580  0.96854498  1
  O  O50  1  0.07254180  0.44796734  0.96861397  1
  O  O51  1  0.58385239  0.46080777  0.97441707  1
  O  O52  1  0.15002801  0.83022019  0.97456501  1
  O  O53  1  0.65520617  0.85141479  0.97003081  1
  O  O54  1  0.27825124  0.85183299  0.47056487  1
  O  O55  1  0.77519852  0.85184546  0.47027464  1
  O  O56  1  0.15623387  0.45994999  0.47178796  1
  O  O57  1  0.64911067  0.46534058  0.47585578  1
  O  O58  1  0.08079798  0.71011466  0.47680742  1
  O  O59  1  0.57243275  0.69868293  0.46950777  1
  O  O60  1  0.05952133  0.61763009  0.36197580  1
  O  O61  1  0.55754908  0.63260959  0.36415352  1
  O  O62  1  0.25820516  0.87814751  0.36445053  1
  O  O63  1  0.75833744  0.88190413  0.36442145  1
  O  O64  1  0.18605790  0.49264255  0.36405601  1
  O  O65  1  0.68364706  0.50263355  0.35804151  1
  O  O66  1  0.05619760  0.48033923  0.86325097  1
  O  O67  1  0.55937514  0.49436082  0.85829329  1
  O  O68  1  0.18395662  0.86710680  0.85680367  1
  O  O69  1  0.68740618  0.88633728  0.86304850  1
  O  O70  1  0.25965923  0.63510451  0.86349743  1
  O  O71  1  0.75779931  0.63497386  0.86223544  1
  O  O72  1  0.00657031  0.83708279  0.41588153  1
  O  O73  1  0.50673213  0.81870960  0.40960754  1
  O  O74  1  0.40097195  0.97171186  0.40778715  1
  O  O75  1  0.90212115  0.97865491  0.40961541  1
  O  O76  1  0.08705636  0.20920381  0.41292087  1
  O  O77  1  0.57459526  0.19013390  0.41184806  1
  O  O78  1  0.00609476  0.19424159  0.90939143  1
  O  O79  1  0.51160583  0.18197261  0.91321083  1
  O  O80  1  0.07539992  0.95742480  0.91229527  1
  O  O81  1  0.58759230  0.96829543  0.91003117  1
  O  O82  1  0.40191660  0.82464885  0.90981515  1
  O  O83  1  0.89965899  0.83013278  0.90643241  1
  O  O84  1  0.48311686  0.17209253  0.59334964  1
  O  O85  1  0.98606389  0.17163884  0.58800474  1
  O  O86  1  0.09921303  0.01659725  0.58793681  1
  O  O87  1  0.59248924  0.02269072  0.59134807  1
  O  O88  1  0.40990595  0.80321102  0.59136480  1
  O  O89  1  0.91439111  0.80733491  0.59223004  1
  O  O90  1  0.48615247  0.79935606  0.08752271  1
  O  O91  1  0.98033135  0.79252500  0.09082698  1
  O  O92  1  0.41490437  0.02042914  0.09074576  1
  O  O93  1  0.90966846  0.01477916  0.09215343  1
  O  O94  1  0.08947848  0.16576787  0.08810671  1
  O  O95  1  0.59891943  0.18100141  0.08744894  1
  O  O96  1  0.34987528  0.16414758  0.74081395  1
  O  O97  1  0.84450011  0.16111701  0.74762654  1
  O  O98  1  0.24575644  0.31648459  0.74534129  1
  O  O99  1  0.73806300  0.31538912  0.74374326  1
  O  O100  1  0.42252374  0.52952684  0.74261085  1
  O  O101  1  0.91518287  0.51797606  0.74342382  1
  O  O102  1  0.35021206  0.53597632  0.24713073  1
  O  O103  1  0.84810898  0.53327930  0.24096872  1
  O  O104  1  0.42021141  0.31770391  0.24284885  1
  O  O105  1  0.92129530  0.31738433  0.24267085  1
  O  O106  1  0.24752921  0.17697520  0.24680411  1
  O  O107  1  0.74523538  0.17496496  0.24515238  1
  O  O108  1  0.32178597  0.50861426  0.92205399  1
  O  O109  1  0.82235480  0.51098283  0.92216045  1
  O  O110  1  0.42655226  0.36897155  0.92415773  1
  O  O111  1  0.92907793  0.35617085  0.92314723  1
  O  O112  1  0.25231575  0.14331973  0.91835399  1
  O  O113  1  0.74808512  0.13702901  0.92283779  1
  O  O114  1  0.32316920  0.13455932  0.42343823  1
  O  O115  1  0.82084710  0.13321464  0.42250451  1
  O  O116  1  0.24835713  0.36317824  0.42297051  1
  O  O117  1  0.75079453  0.35993449  0.41857026  1
  O  O118  1  0.43003009  0.50244344  0.42404057  1
  O  O119  1  0.92605956  0.48258772  0.42469699  1
  O  O120  1  0.17759633  0.51007730  0.07338764  1
  O  O121  1  0.68421922  0.50112664  0.07742404  1
  O  O122  1  0.06341254  0.63943158  0.07898738  1
  O  O123  1  0.56830243  0.64497780  0.07784901  1
  O  O124  1  0.25560566  0.86912247  0.07719591  1
  O  O125  1  0.75188028  0.86011828  0.07477119  1
  O  O126  1  0.18362958  0.86526003  0.57694484  1
  O  O127  1  0.67637229  0.84443740  0.57408181  1
  O  O128  1  0.25229442  0.64415274  0.57518463  1
  O  O129  1  0.75488001  0.64206408  0.57782544  1
  O  O130  1  0.06972845  0.49177174  0.57697791  1
  O  O131  1  0.56438987  0.48871414  0.57958838  1
  O  O132  1  0.16080379  0.83157950  0.25486052  1
  O  O133  1  0.65776809  0.82638654  0.25920490  1
  O  O134  1  0.26467649  0.68280067  0.26123162  1
  O  O135  1  0.76637585  0.68776775  0.25265046  1
  O  O136  1  0.08085620  0.46210216  0.25466614  1
  O  O137  1  0.57794493  0.46519634  0.25691198  1
  O  O138  1  0.15818614  0.49054725  0.75919154  1
  O  O139  1  0.65847526  0.47312394  0.75622091  1
  O  O140  1  0.07485872  0.68428339  0.75680136  1
  O  O141  1  0.58196980  0.69710049  0.75482739  1
  O  O142  1  0.26850683  0.84562531  0.75290699  1
  O  O143  1  0.76208555  0.83901259  0.76014328  1
loop_
_geom_bond_atom_site_label_1
_geom_bond_atom_site_label_2
_geom_bond_distance
_geom_bond_site_symmetry_2
Na0 O72 2.288370 1_555
Na0 O76 2.554504 1_565
Na0 O75 2.588758 1_455
Na0 O86 2.691777 1_565
Na0 O89 2.734155 1_455
Na0 O85 2.757958 1_465
Na1 O79 2.429465 1_555
Na1 O92 2.609673 1_556
Na1 O95 2.613433 1_556
Na1 O82 2.650074 1_545
Na1 O90 2.675485 1_546
Na1 O81 2.679758 1_545
Na2 O112 2.380445 1_555
Na2 O110 2.541074 1_555
Na2 O98 2.549106 1_555
Na2 O108 2.577176 1_555
Na2 O96 2.742376 1_555
Na2 O100 2.764597 1_555
Na3 O111 2.526715 1_555
Na3 O113 2.545434 1_555
Na3 O109 2.568217 1_555
Na3 O97 2.615436 1_555
Na3 O101 2.638560 1_555
Na3 O99 2.697429 1_555
Na4 O106 2.399366 1_555
Na4 O116 2.592522 1_555
Na4 O102 2.596409 1_555
Na4 O114 2.645582 1_555
Na4 O104 2.654413 1_555
Na4 O118 2.700735 1_555
Na5 O117 2.439254 1_555
Na5 O107 2.538484 1_555
Na5 O119 2.558073 1_555
Na5 O115 2.624322 1_555
Na5 O103 2.697583 1_555
Na5 O105 2.701451 1_555
O0 Si0 1.586179 1_555
O0 Zn0 1.866736 1_545
O1 Si1 1.642019 1_545
O1 Sn0 1.935969 1_555
O2 S0 1.505408 1_555
O2 Sn0 2.159404 1_565
O3 S1 1.453419 1_555
O3 Zn0 2.136403 1_655
O4 S3 1.505628 1_555
O4 Sn0 2.149475 1_555
O5 S2 1.449098 1_555
O5 Zn0 2.324539 1_645
O6 Si2 1.642919 1_555
O6 Sn1 1.936320 1_555
O7 S4 1.458486 1_555
O7 Zn1 2.131728 1_555
O8 S6 1.460942 1_555
O8 Zn1 2.235798 1_565
O9 S5 1.499366 1_555
O9 Sn1 2.190340 1_665
O10 S7 1.455853 1_555
O10 Zn1 2.096117 1_555
O11 S8 1.491675 1_545
O11 Sn1 2.231709 1_655
O12 S7 1.511469 1_565
O12 Sn2 2.087699 1_565
O13 S8 1.455425 1_555
O13 Zn2 2.189033 1_665
O14 Si2 1.581954 1_555
O14 Zn2 1.874310 1_555
O15 S4 1.493705 1_555
O15 Sn2 2.139317 1_555
O16 S5 1.449817 1_455
O16 Zn2 2.121264 1_565
O17 S6 1.498603 1_555
O17 Sn2 2.102016 1_565
O18 S0 1.457950 1_555
O18 Zn3 2.101049 1_555
O19 S1 1.497722 1_555
O19 Sn3 2.155332 1_665
O20 S2 1.495976 1_455
O20 Sn3 2.107685 1_555
O21 S3 1.454784 1_555
O21 Zn3 2.084231 1_545
O22 Si0 1.643805 1_565
O22 Sn3 1.935937 1_565
O23 Si1 1.583532 1_555
O23 Zn3 1.871131 1_555
O24 S9 1.524277 1_555
O24 Sn4 2.078338 1_555
O25 S10 1.522887 1_555
O25 Sn5 2.062940 1_555
O26 S11 1.521388 1_555
O26 Sn4 2.053949 1_555
O27 Si3 1.649885 1_555
O27 Sn5 1.933029 1_555
O28 S12 1.506216 1_555
O28 Sn4 2.088640 1_555
O29 S13 1.519033 1_555
O29 Sn5 2.079045 1_555
O30 S14 1.496972 1_555
O30 Sn6 2.164163 1_555
O31 S15 1.512756 1_555
O31 Sn7 2.078762 1_555
O32 S16 1.488085 1_555
O32 Sn6 2.123639 1_555
O33 S17 1.499763 1_555
O33 Sn7 2.107907 1_555
O34 Si4 1.632253 1_555
O34 Sn6 1.941997 1_555
O35 S18 1.505222 1_555
O35 Sn7 2.087284 1_555
O36 Si4 1.624975 1_555
O36 Sn8 1.936672 1_554
O37 S18 1.472830 1_555
O37 Zn4 2.017094 1_554
O38 S14 1.488485 1_555
O38 Sn8 2.194483 1_554
O39 S15 1.464384 1_555
O39 Zn4 2.008137 1_554
O40 S16 1.497980 1_555
O40 Sn8 2.110841 1_554
O41 S17 1.466088 1_555
O41 Zn4 2.056845 1_554
O42 S11 1.466704 1_555
O42 Zn5 2.039492 1_555
O43 Si3 1.610620 1_555
O43 Sn9 1.947965 1_555
O44 S12 1.459970 1_555
O44 Zn5 2.116616 1_555
O45 S13 1.482916 1_555
O45 Sn9 2.148746 1_555
O46 S9 1.456069 1_555
O46 Zn5 2.112561 1_555
O47 S10 1.474095 1_555
O47 Sn9 2.236140 1_555
O48 S19 1.484088 1_555
O48 Sn10 2.159973 1_556
O49 S20 1.488318 1_555
O49 Sn11 2.165715 1_556
O50 S21 1.477654 1_555
O50 Sn10 2.185495 1_556
O51 Si5 1.639531 1_555
O51 Sn11 1.927600 1_556
O52 Si6 1.627815 1_555
O52 Sn10 1.927235 1_556
O53 S22 1.499682 1_555
O53 Sn11 2.119140 1_556
O54 S23 1.506164 1_555
O54 Sn12 2.109132 1_555
O55 S24 1.503085 1_555
O55 Sn13 2.103403 1_555
O56 S25 1.527216 1_555
O56 Sn12 2.050376 1_555
O57 Si7 1.642660 1_555
O57 Sn13 1.929249 1_555
O58 Si8 1.653902 1_555
O58 Sn12 1.919951 1_555
O59 S26 1.493348 1_555
O59 Sn13 2.131050 1_555
O60 Si8 1.637332 1_555
O60 Sn14 1.947619 1_555
O61 S26 1.484570 1_555
O61 Sn15 2.166104 1_555
O62 S23 1.481829 1_555
O62 Sn14 2.165854 1_555
O63 S24 1.486231 1_555
O63 Sn15 2.131067 1_555
O64 S25 1.496169 1_555
O64 Sn14 2.187244 1_555
O65 Si7 1.633794 1_555
O65 Sn15 1.932856 1_555
O66 S21 1.495533 1_555
O66 Sn16 2.134060 1_555
O67 Si5 1.659424 1_555
O67 Sn17 1.928620 1_555
O68 Si6 1.646894 1_555
O68 Sn16 1.929244 1_555
O69 S22 1.518195 1_555
O69 Sn17 2.086485 1_555
O70 S19 1.494654 1_555
O70 Sn16 2.113846 1_555
O71 S20 1.511581 1_555
O71 Sn17 2.107112 1_555
O72 Si8 1.598736 1_555
O72 Zn0 1.928293 1_555
O73 S26 1.481355 1_555
O73 Sn0 2.137515 1_565
O74 S23 1.477930 1_555
O74 Sn0 2.144910 1_565
O75 S24 1.451888 1_555
O75 Zn0 2.250863 1_655
O76 S25 1.457770 1_555
O76 Zn0 2.230314 1_545
O77 Si7 1.621647 1_555
O77 Sn0 1.950744 1_555
O78 S21 1.487113 1_555
O78 Sn1 2.106883 1_555
O79 Si5 1.603134 1_555
O79 Zn1 1.904884 1_555
O80 Si6 1.627701 1_555
O80 Sn1 1.939303 1_565
O81 S22 1.462568 1_555
O81 Zn1 2.166575 1_565
O82 S19 1.463513 1_555
O82 Zn1 2.081160 1_565
O83 S20 1.480147 1_555
O83 Sn1 2.133237 1_665
O84 S9 1.492373 1_555
O84 Sn2 2.078477 1_555
O85 S10 1.464163 1_555
O85 Zn2 2.154227 1_655
O86 S11 1.462755 1_555
O86 Zn2 2.158110 1_555
O87 Si3 1.636051 1_555
O87 Sn2 1.919523 1_555
O88 S12 1.487173 1_555
O88 Sn2 2.101245 1_565
O89 S13 1.465940 1_555
O89 Zn2 2.183196 1_665
O90 S14 1.464269 1_555
O90 Zn3 2.204384 1_555
O91 S15 1.474962 1_555
O91 Sn3 2.135377 1_665
O92 S16 1.466482 1_555
O92 Zn3 2.212749 1_545
O93 S17 1.468943 1_555
O93 Sn3 2.213332 1_655
O94 Si4 1.626895 1_555
O94 Sn3 1.947835 1_555
O95 S18 1.461400 1_555
O95 Zn3 2.226222 1_545
O96 S7 1.507171 1_555
O96 Sn4 2.136239 1_555
O97 S8 1.521990 1_545
O97 Sn5 2.200664 1_555
O98 Si2 1.683649 1_555
O98 Sn4 1.951476 1_555
O99 S4 1.513194 1_555
O99 Sn5 2.163714 1_555
O100 S6 1.500654 1_555
O100 Sn4 2.193913 1_555
O101 S5 1.543301 1_555
O101 Sn5 2.128347 1_555
O102 S0 1.508101 1_555
O102 Sn6 2.168514 1_555
O103 S1 1.516556 1_555
O103 Sn7 2.104636 1_555
O104 S3 1.503829 1_555
O104 Sn6 2.174636 1_555
O105 S2 1.518848 1_555
O105 Sn7 2.121637 1_555
O106 Si0 1.668490 1_555
O106 Sn6 1.954102 1_555
O107 Si1 1.676469 1_545
O107 Sn7 1.947382 1_555
O108 S19 1.482775 1_555
O108 Sn8 2.170090 1_555
O109 S20 1.469347 1_555
O109 Zn4 2.216758 1_555
O110 Si5 1.635786 1_555
O110 Sn8 1.982399 1_555
O111 S21 1.476928 1_655
O111 Zn4 2.109354 1_555
O112 Si6 1.626517 1_545
O112 Sn8 2.001468 1_555
O113 S22 1.475291 1_545
O113 Zn4 2.169678 1_555
O114 S23 1.475198 1_545
O114 Zn5 2.110715 1_555
O115 S24 1.489356 1_545
O115 Sn9 2.132960 1_555
O116 S25 1.482902 1_555
O116 Zn5 2.089157 1_555
O117 Si7 1.629303 1_555
O117 Sn9 1.977998 1_555
O118 S26 1.476548 1_555
O118 Zn5 2.063939 1_555
O119 Si8 1.644675 1_655
O119 Sn9 1.953105 1_555
O120 Si4 1.630959 1_555
O120 Sn10 1.906621 1_555
O121 S18 1.509800 1_555
O121 Sn11 2.063832 1_555
O122 S15 1.480427 1_455
O122 Sn10 2.119675 1_555
O123 S14 1.510862 1_555
O123 Sn11 2.070143 1_555
O124 S16 1.483355 1_565
O124 Sn10 2.105849 1_555
O125 S17 1.509958 1_565
O125 Sn11 2.077879 1_555
O126 S11 1.500096 1_565
O126 Sn12 2.101331 1_555
O127 Si3 1.625149 1_565
O127 Sn13 1.936100 1_555
O128 S12 1.490719 1_555
O128 Sn12 2.138799 1_555
O129 S13 1.478721 1_555
O129 Sn13 2.162099 1_555
O130 S10 1.494309 1_455
O130 Sn12 2.120394 1_555
O131 S9 1.472915 1_555
O131 Sn13 2.178552 1_555
O132 Si0 1.637957 1_565
O132 Sn14 1.931241 1_555
O133 Si1 1.633572 1_555
O133 Sn15 1.915010 1_555
O134 S0 1.482937 1_555
O134 Sn14 2.128724 1_555
O135 S1 1.481214 1_555
O135 Sn15 2.125591 1_555
O136 S2 1.488810 1_455
O136 Sn14 2.101523 1_555
O137 S3 1.478107 1_555
O137 Sn15 2.111324 1_555
O138 Si2 1.635904 1_555
O138 Sn16 1.917707 1_555
O139 S4 1.494083 1_555
O139 Sn17 2.135008 1_555
O140 S5 1.474634 1_455
O140 Sn16 2.156457 1_555
O141 S6 1.498613 1_555
O141 Sn17 2.118063 1_555
O142 S7 1.472784 1_565
O142 Sn16 2.181046 1_555
O143 S8 1.511806 1_555
O143 Sn17 2.086076 1_555
