# generated using pymatgen
data_Na7In4SiP5O24
_symmetry_space_group_name_H-M   'P 1'
_cell_length_a   9.17405183
_cell_length_b   9.17785459
_cell_length_c   22.61964775
_cell_angle_alpha   90.04694566
_cell_angle_beta   89.78148784
_cell_angle_gamma   119.95554833
_symmetry_Int_Tables_number   1
_chemical_formula_structural   Na7In4SiP5O24
_chemical_formula_sum   'Na21 In12 Si3 P15 O72'
_cell_volume   1650.09781591
_cell_formula_units_Z   3
loop_
 _symmetry_equiv_pos_site_id
 _symmetry_equiv_pos_as_xyz
  1  'x, y, z'
loop_
 _atom_site_type_symbol
 _atom_site_label
 _atom_site_symmetry_multiplicity
 _atom_site_fract_x
 _atom_site_fract_y
 _atom_site_fract_z
 _atom_site_occupancy
  Na  Na0  1  0.36521405  0.36512116  0.25068201  1
  Na  Na1  1  0.99799625  0.63216723  0.24738058  1
  Na  Na2  1  0.63572253  0.64028920  0.74865033  1
  Na  Na3  1  0.99356031  0.35996899  0.75246934  1
  Na  Na4  1  0.37191031  0.00116632  0.74762978  1
  Na  Na5  1  0.29966541  0.32568009  0.58138056  1
  Na  Na6  1  0.03615135  0.70258781  0.58269228  1
  Na  Na7  1  0.66233959  0.96720191  0.58709438  1
  Na  Na8  1  0.29757137  0.96468845  0.08326397  1
  Na  Na9  1  0.67318058  0.69896898  0.08227147  1
  Na  Na10  1  0.03247249  0.33996426  0.08479925  1
  Na  Na11  1  0.96537912  0.66545248  0.92002357  1
  Na  Na12  1  0.70129584  0.03379495  0.91364540  1
  Na  Na13  1  0.96837426  0.30174527  0.41558184  1
  Na  Na14  1  0.33476525  0.03405888  0.41924378  1
  Na  Na15  1  0.99263009  0.98820954  0.49976429  1
  Na  Na16  1  0.01154359  0.00712879  0.99943127  1
  Na  Na17  1  0.65496100  0.32840004  0.83388639  1
  Na  Na18  1  0.66671873  0.33350211  0.33321165  1
  Na  Na19  1  0.34001129  0.67806459  0.16712346  1
  Na  Na20  1  0.33925936  0.67656832  0.66656924  1
  In  In0  1  0.99238124  0.99360163  0.34921454  1
  In  In1  1  0.00370329  0.00579486  0.84964639  1
  In  In2  1  0.00006027  0.00009035  0.65161372  1
  In  In3  1  0.99528896  0.99616912  0.15206338  1
  In  In4  1  0.66495660  0.32729535  0.68174393  1
  In  In5  1  0.66997837  0.32883551  0.18298193  1
  In  In6  1  0.66343344  0.33635639  0.98415449  1
  In  In7  1  0.66178124  0.33576028  0.48327396  1
  In  In8  1  0.33069286  0.66401763  0.01504568  1
  In  In9  1  0.33880786  0.67067234  0.51444620  1
  In  In10  1  0.34115352  0.67316571  0.31739393  1
  In  In11  1  0.33664002  0.66792576  0.81854677  1
  Si  Si0  1  0.70059484  0.00042429  0.75073641  1
  Si  Si1  1  0.36385776  0.03115048  0.58271910  1
  Si  Si2  1  0.96736742  0.63401493  0.08341594  1
  P  P0  1  0.29945669  0.00086567  0.25066976  1
  P  P1  1  0.69836213  0.69784248  0.24840134  1
  P  P2  1  0.00070275  0.29993917  0.25134349  1
  P  P3  1  0.29893310  0.29931285  0.74883363  1
  P  P4  1  0.99930809  0.70009595  0.75087566  1
  P  P5  1  0.96617327  0.33482797  0.58181200  1
  P  P6  1  0.66747337  0.63003525  0.58457002  1
  P  P7  1  0.66621259  0.03581343  0.08117332  1
  P  P8  1  0.36888190  0.33252193  0.08572566  1
  P  P9  1  0.63401403  0.66583927  0.91630163  1
  P  P10  1  0.03283350  0.36562142  0.91723052  1
  P  P11  1  0.33340073  0.96829097  0.91677187  1
  P  P12  1  0.63516497  0.96857197  0.41822531  1
  P  P13  1  0.33239614  0.36657230  0.41518765  1
  P  P14  1  0.03382977  0.66555925  0.41590013  1
  O  O0  1  0.21793976  0.02932882  0.30659087  1
  O  O1  1  0.81603577  0.78525941  0.30093862  1
  O  O2  1  0.98344069  0.19870407  0.30793011  1
  O  O3  1  0.21767187  0.17900816  0.80139334  1
  O  O4  1  0.97292074  0.78096231  0.80692401  1
  O  O5  1  0.81548039  0.03268385  0.80963337  1
  O  O6  1  0.78131160  0.96580069  0.69122865  1
  O  O7  1  0.19758038  0.22666544  0.69102780  1
  O  O8  1  0.03415215  0.81013590  0.69492796  1
  O  O9  1  0.77131334  0.79491645  0.18981491  1
  O  O10  1  0.02560101  0.21748824  0.19504892  1
  O  O11  1  0.19093990  0.97267786  0.19460099  1
  O  O12  1  0.89177027  0.37012625  0.63818937  1
  O  O13  1  0.47877288  0.11060720  0.64192946  1
  O  O14  1  0.64143737  0.52884373  0.64236425  1
  O  O15  1  0.88663426  0.51707263  0.14245539  1
  O  O16  1  0.62532169  0.11378829  0.13448536  1
  O  O17  1  0.47184201  0.36060489  0.14296563  1
  O  O18  1  0.44734655  0.29218057  0.03238548  1
  O  O19  1  0.85098426  0.55334892  0.02450492  1
  O  O20  1  0.69447179  0.13874830  0.02378832  1
  O  O21  1  0.44428829  0.14819158  0.52374964  1
  O  O22  1  0.70299364  0.54830721  0.53133134  1
  O  O23  1  0.85831046  0.30955171  0.52629726  1
  O  O24  1  0.55013002  0.69053419  0.97221809  1
  O  O25  1  0.13269671  0.44758485  0.97419216  1
  O  O26  1  0.30583492  0.85937006  0.97276951  1
  O  O27  1  0.56230435  0.87167457  0.47677593  1
  O  O28  1  0.30757890  0.44893314  0.47156660  1
  O  O29  1  0.14252561  0.69380631  0.47192910  1
  O  O30  1  0.11553550  0.63741115  0.35994171  1
  O  O31  1  0.51744885  0.88175598  0.36566118  1
  O  O32  1  0.34958459  0.46805461  0.35868829  1
  O  O33  1  0.11691171  0.47417655  0.86137074  1
  O  O34  1  0.36089335  0.88698642  0.86068967  1
  O  O35  1  0.53414337  0.64803013  0.85940965  1
  O  O36  1  0.02398734  0.82948300  0.41175386  1
  O  O37  1  0.81507926  0.99413150  0.41251444  1
  O  O38  1  0.16947307  0.18866388  0.41331912  1
  O  O39  1  0.00927671  0.18656086  0.91480969  1
  O  O40  1  0.16928167  0.97725726  0.91265109  1
  O  O41  1  0.81204367  0.82777348  0.91472293  1
  O  O42  1  0.97831379  0.17243868  0.58629109  1
  O  O43  1  0.17502265  0.01160334  0.58671521  1
  O  O44  1  0.82267029  0.80972757  0.58701332  1
  O  O45  1  0.98740108  0.82331164  0.08695133  1
  O  O46  1  0.83020627  0.02680620  0.08808792  1
  O  O47  1  0.18708692  0.17945896  0.08973105  1
  O  O48  1  0.68480398  0.17177776  0.74816321  1
  O  O49  1  0.48027248  0.32763413  0.74566306  1
  O  O50  1  0.83698482  0.52591113  0.74568679  1
  O  O51  1  0.68136939  0.51954547  0.24691861  1
  O  O52  1  0.84539221  0.32429380  0.24882814  1
  O  O53  1  0.47332561  0.16344856  0.24617933  1
  O  O54  1  0.65737669  0.51014016  0.91876659  1
  O  O55  1  0.85509289  0.35046531  0.91885781  1
  O  O56  1  0.49664276  0.14150929  0.92088015  1
  O  O57  1  0.65266630  0.14720327  0.41976936  1
  O  O58  1  0.48753629  0.34200425  0.41746809  1
  O  O59  1  0.86018878  0.50270843  0.42042659  1
  O  O60  1  0.35906831  0.49614972  0.07871414  1
  O  O61  1  0.15668048  0.65374227  0.08001246  1
  O  O62  1  0.51305978  0.85425150  0.07730127  1
  O  O63  1  0.34537782  0.84268441  0.57929836  1
  O  O64  1  0.50350457  0.63998624  0.57880720  1
  O  O65  1  0.14622356  0.49000076  0.57716788  1
  O  O66  1  0.30908828  0.83686513  0.25482276  1
  O  O67  1  0.51848780  0.67265713  0.25404925  1
  O  O68  1  0.16350876  0.47797766  0.25324654  1
  O  O69  1  0.30787994  0.47224422  0.75564712  1
  O  O70  1  0.15487311  0.67547022  0.75542604  1
  O  O71  1  0.51137423  0.83104455  0.75347245  1
loop_
_geom_bond_atom_site_label_1
_geom_bond_atom_site_label_2
_geom_bond_distance
_geom_bond_site_symmetry_2
Na0 O67 2.446751 1_555
Na0 O53 2.500446 1_555
Na0 O51 2.514264 1_555
Na0 O68 2.532501 1_555
Na0 O17 2.630081 1_555
Na0 O32 2.647719 1_555
Na1 O52 2.448355 1_555
Na1 O66 2.520238 1_655
Na1 O68 2.544310 1_655
Na1 O51 2.551058 1_555
Na1 O15 2.594053 1_555
Na1 O30 2.759814 1_655
Na1 O1 2.924476 1_555
Na1 O11 2.964917 1_655
Na2 O49 2.487186 1_555
Na2 O71 2.524193 1_555
Na2 O50 2.539723 1_555
Na2 O69 2.610360 1_555
Na2 O14 2.622489 1_555
Na2 O35 2.682946 1_555
Na2 O6 2.899030 1_555
Na2 O4 3.002282 1_555
Na3 O48 2.476298 1_555
Na3 O70 2.510016 1_655
Na3 O69 2.533006 1_655
Na3 O50 2.567719 1_555
Na3 O33 2.698082 1_655
Na3 O12 2.769215 1_555
Na3 O5 2.907431 1_555
Na4 O71 2.467568 1_545
Na4 O48 2.490645 1_555
Na4 O13 2.586327 1_555
Na4 O70 2.642964 1_545
Na4 O49 2.644455 1_555
Na4 O34 2.746849 1_545
Na4 O3 2.904360 1_555
Na4 O8 2.948861 1_545
Na5 O43 2.517740 1_555
Na5 O65 2.527133 1_555
Na5 O64 2.536522 1_555
Na5 O42 2.557087 1_455
Na5 O7 2.643910 1_555
Na5 O28 2.715901 1_555
Na5 O21 2.873136 1_555
Na6 O63 2.462259 1_555
Na6 O43 2.463116 1_565
Na6 O44 2.594942 1_455
Na6 O65 2.609274 1_555
Na6 O29 2.701029 1_555
Na6 O8 2.726426 1_555
Na6 O22 2.898054 1_455
Na6 O12 2.932243 1_455
Na7 O44 2.524930 1_555
Na7 O63 2.545096 1_555
Na7 O42 2.549122 1_565
Na7 O6 2.602577 1_555
Na7 O64 2.609268 1_555
Na7 O27 2.654825 1_555
Na7 O13 2.881256 1_565
Na8 O45 2.469554 1_455
Na8 O61 2.477300 1_555
Na8 O47 2.632064 1_565
Na8 O62 2.636750 1_555
Na8 O26 2.693429 1_554
Na8 O11 2.712422 1_555
Na8 O18 2.848819 1_565
Na8 O16 2.858449 1_565
Na9 O62 2.508737 1_555
Na9 O45 2.517976 1_555
Na9 O60 2.533808 1_555
Na9 O9 2.593249 1_555
Na9 O46 2.611103 1_565
Na9 O24 2.722342 1_554
Na9 O19 2.883102 1_555
Na10 O47 2.506510 1_555
Na10 O61 2.515140 1_555
Na10 O46 2.526380 1_455
Na10 O60 2.599811 1_555
Na10 O25 2.675824 1_554
Na10 O10 2.723823 1_555
Na10 O15 2.878909 1_455
Na11 O54 2.448483 1_555
Na11 O41 2.511374 1_555
Na11 O40 2.523646 1_655
Na11 O55 2.541808 1_555
Na11 O19 2.579155 1_556
Na11 O4 2.757403 1_555
Na12 O39 2.448252 1_655
Na12 O55 2.521324 1_555
Na12 O56 2.525876 1_555
Na12 O41 2.554780 1_545
Na12 O5 2.573817 1_555
Na12 O20 2.682146 1_556
Na13 O37 2.447160 1_545
Na13 O59 2.495169 1_555
Na13 O57 2.510979 1_555
Na13 O38 2.528773 1_655
Na13 O2 2.639524 1_555
Na13 O23 2.710921 1_555
Na13 O30 2.955870 1_655
Na13 O28 2.990229 1_655
Na14 O58 2.449023 1_555
Na14 O36 2.517922 1_545
Na14 O38 2.545874 1_555
Na14 O57 2.561231 1_555
Na14 O21 2.580261 1_555
Na14 O0 2.760056 1_555
Na14 O31 2.924538 1_545
Na14 O29 2.961828 1_545
Na15 O43 2.525845 1_665
Na15 O44 2.537810 1_555
Na15 O36 2.564657 1_655
Na15 O37 2.581509 1_555
Na15 O38 2.615555 1_665
Na15 O42 2.630816 1_565
Na16 O40 2.529036 1_545
Na16 O39 2.532958 1_555
Na16 O45 2.538359 1_446
Na16 O47 2.596761 1_556
Na16 O41 2.596842 1_445
Na16 O46 2.663781 1_456
Na17 O48 2.507084 1_555
Na17 O56 2.533682 1_555
Na17 O54 2.535167 1_555
Na17 O49 2.562000 1_555
Na17 O55 2.600215 1_555
Na17 O50 2.648066 1_555
Na18 O58 2.538600 1_555
Na18 O52 2.539967 1_555
Na18 O51 2.553000 1_555
Na18 O57 2.560652 1_555
Na18 O53 2.591425 1_555
Na18 O59 2.592840 1_555
Na19 O61 2.531945 1_555
Na19 O66 2.558063 1_555
Na19 O67 2.579790 1_555
Na19 O62 2.584608 1_555
Na19 O68 2.607961 1_555
Na19 O60 2.664696 1_555
Na20 O63 2.478501 1_555
Na20 O71 2.480080 1_555
Na20 O64 2.608691 1_555
Na20 O70 2.618839 1_555
Na20 O69 2.668703 1_555
Na20 O65 2.674114 1_555
In0 O1 2.094452 1_555
In0 O2 2.140063 1_565
In0 O0 2.150978 1_665
In0 O37 2.164720 1_555
In0 O36 2.190162 1_655
In0 O38 2.248588 1_665
In1 O5 2.073559 1_455
In1 O3 2.107573 1_555
In1 O4 2.165279 1_445
In1 O40 2.195794 1_545
In1 O39 2.199883 1_555
In1 O41 2.245697 1_445
In2 O6 2.070103 1_445
In2 O43 2.134346 1_555
In2 O8 2.155632 1_545
In2 O7 2.156112 1_555
In2 O44 2.238430 1_445
In2 O42 2.246399 1_455
In3 O9 2.135865 1_555
In3 O45 2.138599 1_555
In3 O10 2.140882 1_665
In3 O11 2.143354 1_655
In3 O46 2.215731 1_565
In3 O47 2.223240 1_665
In4 O13 2.073662 1_555
In4 O48 2.143053 1_555
In4 O12 2.150115 1_555
In4 O14 2.159732 1_555
In4 O49 2.224333 1_555
In4 O50 2.246249 1_555
In5 O15 2.082083 1_555
In5 O16 2.111626 1_555
In5 O17 2.179603 1_555
In5 O53 2.202589 1_555
In5 O52 2.212505 1_555
In5 O51 2.231683 1_555
In6 O19 2.084867 1_556
In6 O18 2.113301 1_556
In6 O20 2.166645 1_556
In6 O54 2.197176 1_555
In6 O56 2.206265 1_555
In6 O55 2.245660 1_555
In7 O21 2.083582 1_555
In7 O22 2.095959 1_555
In7 O23 2.168522 1_555
In7 O59 2.209157 1_555
In7 O58 2.209980 1_555
In7 O57 2.217546 1_555
In8 O25 2.122642 1_554
In8 O24 2.132281 1_554
In8 O61 2.132809 1_555
In8 O26 2.143316 1_554
In8 O60 2.218670 1_555
In8 O62 2.219738 1_555
In9 O27 2.131928 1_555
In9 O63 2.132998 1_555
In9 O28 2.140337 1_555
In9 O29 2.146597 1_555
In9 O64 2.219025 1_555
In9 O65 2.223270 1_555
In10 O31 2.095403 1_555
In10 O32 2.137997 1_555
In10 O30 2.150616 1_555
In10 O67 2.165536 1_555
In10 O66 2.189744 1_555
In10 O68 2.251381 1_555
In11 O35 2.124651 1_555
In11 O34 2.133561 1_555
In11 O71 2.136954 1_555
In11 O33 2.138225 1_555
In11 O69 2.201076 1_555
In11 O70 2.226575 1_555
O0 P0 1.553981 1_555
O1 P1 1.537727 1_555
O2 P2 1.542767 1_655
O3 P3 1.536780 1_555
O4 P4 1.546698 1_555
O5 Si0 1.634554 1_555
O6 Si0 1.639464 1_565
O7 P3 1.551617 1_555
O8 P4 1.549285 1_455
O9 P1 1.548399 1_555
O10 P2 1.554052 1_555
O11 P0 1.555116 1_565
O12 P5 1.552613 1_555
O13 Si1 1.636579 1_555
O14 P6 1.551337 1_555
O15 Si2 1.638557 1_555
O16 P7 1.539578 1_555
O17 P8 1.549405 1_555
O18 P8 1.539410 1_555
O19 Si2 1.638173 1_555
O20 P7 1.549012 1_555
O21 Si1 1.637324 1_555
O22 P6 1.535786 1_555
O23 P5 1.545833 1_555
O24 P9 1.552295 1_555
O25 P10 1.544178 1_555
O26 P11 1.553974 1_555
O27 P12 1.547005 1_555
O28 P13 1.554865 1_555
O29 P14 1.555218 1_555
O30 P14 1.554464 1_555
O31 P12 1.537441 1_555
O32 P13 1.542520 1_555
O33 P10 1.552824 1_555
O34 P11 1.553588 1_555
O35 P9 1.543152 1_555
O36 P14 1.554456 1_555
O37 P12 1.551697 1_555
O38 P13 1.570043 1_555
O39 P10 1.547806 1_555
O40 P11 1.551522 1_555
O41 P9 1.566256 1_555
O42 P5 1.552425 1_555
O43 Si1 1.652261 1_555
O44 P6 1.550987 1_555
O45 Si2 1.655151 1_555
O46 P7 1.555891 1_555
O47 P8 1.556435 1_555
O48 Si0 1.650866 1_555
O49 P3 1.551647 1_555
O50 P4 1.552619 1_555
O51 P1 1.564728 1_555
O52 P2 1.549847 1_655
O53 P0 1.550240 1_555
O54 P9 1.548265 1_555
O55 P10 1.566079 1_655
O56 P11 1.549833 1_545
O57 P12 1.565847 1_545
O58 P13 1.549274 1_555
O59 P14 1.550253 1_655
O60 P8 1.556933 1_555
O61 Si2 1.655308 1_455
O62 P7 1.555981 1_565
O63 Si1 1.653380 1_565
O64 P6 1.557831 1_555
O65 P5 1.554780 1_455
O66 P0 1.554121 1_565
O67 P1 1.552531 1_555
O68 P2 1.570277 1_555
O69 P3 1.555346 1_555
O70 P4 1.556196 1_455
O71 Si0 1.654767 1_565
