# generated using pymatgen
data_Tm4MgTi2O10
_symmetry_space_group_name_H-M   'P 1'
_cell_length_a   5.33906571
_cell_length_b   6.76441083
_cell_length_c   7.67570874
_cell_angle_alpha   67.06631041
_cell_angle_beta   92.71657707
_cell_angle_gamma   60.73590953
_symmetry_Int_Tables_number   1
_chemical_formula_structural   Tm4MgTi2O10
_chemical_formula_sum   'Tm4 Mg1 Ti2 O10'
_cell_volume   212.73246380
_cell_formula_units_Z   1
loop_
 _symmetry_equiv_pos_site_id
 _symmetry_equiv_pos_as_xyz
  1  'x, y, z'
loop_
 _atom_site_type_symbol
 _atom_site_label
 _atom_site_symmetry_multiplicity
 _atom_site_fract_x
 _atom_site_fract_y
 _atom_site_fract_z
 _atom_site_occupancy
  Tm  Tm0  1  0.70495275  0.70425231  0.74809618  1
  Tm  Tm1  1  0.73245627  0.78443981  0.25863122  1
  Tm  Tm2  1  0.26754373  0.21556019  0.74136878  1
  Tm  Tm3  1  0.29504725  0.29574769  0.25190382  1
  Mg  Mg0  1  0.50000000  0.50000000  0.50000000  1
  Ti  Ti0  1  -0.00000000  0.00000000  0.50000000  1
  Ti  Ti1  1  -0.00000000  0.00000000  -0.00000000  1
  O  O0  1  0.75424233  0.83456359  0.96082842  1
  O  O1  1  0.42128344  0.85950442  0.44637721  1
  O  O2  1  0.06470366  0.63547501  0.58520754  1
  O  O3  1  0.74944345  0.34708528  0.77687007  1
  O  O4  1  0.25055655  0.65291472  0.22312893  1
  O  O5  1  0.93529634  0.36452499  0.41479246  1
  O  O6  1  0.57871656  0.14049558  0.55362279  1
  O  O7  1  0.22405190  0.89785560  0.77108639  1
  O  O8  1  0.24575767  0.16543641  0.03917158  1
  O  O9  1  0.77594810  0.10214440  0.22891361  1
loop_
_geom_bond_atom_site_label_1
_geom_bond_atom_site_label_2
_geom_bond_distance
_geom_bond_site_symmetry_2
Mg0 O3 2.007915 1_555
Mg0 O4 2.007921 1_555
Mg0 O6 2.112865 1_555
Mg0 O1 2.112865 1_555
Mg0 O5 2.279873 1_555
Mg0 O2 2.279873 1_555
O0 Ti1 2.173660 1_666
O0 Tm1 2.193933 1_556
O0 Tm0 2.195520 1_555
O0 Tm2 2.426155 1_565
O1 Ti0 2.105822 1_565
O1 Tm0 2.230957 1_555
O1 Tm1 2.251036 1_555
O1 Tm3 2.432638 1_565
O2 Ti0 2.125134 1_565
O2 Tm2 2.212229 1_555
O2 Tm0 2.296996 1_455
O2 Tm1 2.511584 1_455
O3 Ti1 1.952827 1_656
O3 Tm0 2.227210 1_555
O3 Tm2 2.524245 1_655
O4 Ti1 1.952824 1_565
O4 Tm3 2.227208 1_555
O4 Tm1 2.524248 1_455
O5 Ti0 2.125134 1_655
O5 Tm1 2.212229 1_555
O5 Tm3 2.296996 1_655
O5 Tm2 2.511584 1_655
O6 Ti0 2.105822 1_655
O6 Tm3 2.230957 1_555
O6 Tm2 2.251036 1_555
O6 Tm0 2.432638 1_545
O7 Ti0 2.018303 1_565
O7 Tm2 2.198951 1_565
O7 Tm0 2.296567 1_555
O7 Ti1 2.309325 1_566
O8 Ti1 2.173660 1_555
O8 Tm2 2.193933 1_554
O8 Tm3 2.195520 1_555
O8 Tm1 2.426155 1_545
O9 Ti0 2.018303 1_655
O9 Tm1 2.198951 1_545
O9 Tm3 2.296567 1_555
O9 Ti1 2.309325 1_655
