# generated using pymatgen
data_MgFe6(OF)6
_symmetry_space_group_name_H-M   'P 1'
_cell_length_a   7.47512237
_cell_length_b   15.17517599
_cell_length_c   3.08707820
_cell_angle_alpha   90.00000000
_cell_angle_beta   90.00000000
_cell_angle_gamma   137.37279969
_symmetry_Int_Tables_number   1
_chemical_formula_structural   MgFe6(OF)6
_chemical_formula_sum   'Mg1 Fe6 O6 F6'
_cell_volume   237.15532292
_cell_formula_units_Z   1
loop_
 _symmetry_equiv_pos_site_id
 _symmetry_equiv_pos_as_xyz
  1  'x, y, z'
loop_
 _atom_site_type_symbol
 _atom_site_label
 _atom_site_symmetry_multiplicity
 _atom_site_fract_x
 _atom_site_fract_y
 _atom_site_fract_z
 _atom_site_occupancy
  Mg  Mg0  1  0.51653612  0.16654947  0.50000000  1
  Fe  Fe0  1  0.99677668  0.01469333  0.00000000  1
  Fe  Fe1  1  0.09071086  0.36737864  0.00000000  1
  Fe  Fe2  1  0.00928963  0.66558897  -0.00000000  1
  Fe  Fe3  1  0.44166548  0.32624376  0.50000000  1
  Fe  Fe4  1  0.42687540  0.65898934  0.50000000  1
  Fe  Fe5  1  0.48488827  0.93233367  0.50000000  1
  O  O0  1  0.19024138  0.33557245  0.50000000  1
  O  O1  1  0.18328420  0.66440020  0.50000000  1
  O  O2  1  0.36451717  0.19531702  0.00000000  1
  O  O3  1  0.32935329  0.55320612  -0.00000000  1
  O  O4  1  0.26289858  0.85230858  0.00000000  1
  O  O5  1  0.84983275  0.02005685  0.50000000  1
  F  F0  1  0.15147390  0.98755880  0.50000000  1
  F  F1  1  0.69724449  0.46219444  -0.00000000  1
  F  F2  1  0.67943824  0.80362244  -0.00000000  1
  F  F3  1  0.68011406  0.15908244  0.00000000  1
  F  F4  1  0.86668578  0.35297835  0.50000000  1
  F  F5  1  0.80483870  0.64705012  0.50000000  1
loop_
_geom_bond_atom_site_label_1
_geom_bond_atom_site_label_2
_geom_bond_distance
_geom_bond_site_symmetry_2
Mg0 O2 2.143459 1_555
Mg0 O2 2.143459 1_556
Fe0 O5 1.930605 1_555
Fe0 O5 1.930605 1_554
Fe0 O2 1.995441 1_655
Fe1 O0 1.922877 1_555
Fe1 O0 1.922877 1_554
Fe1 O3 1.931792 1_555
Fe2 O4 1.928211 1_555
Fe2 O1 2.027068 1_555
Fe2 O1 2.027068 1_554
Fe3 O0 1.985901 1_555
Fe3 O2 2.230809 1_555
Fe3 O2 2.230809 1_556
Fe4 O1 1.882111 1_555
Fe4 O3 1.941341 1_556
Fe4 O3 1.941341 1_555
Fe5 O4 1.909307 1_555
Fe5 O4 1.909307 1_556
Fe5 O5 1.967261 1_565
F0 Mg0 1.979179 1_565
F0 Fe0 2.142425 1_465
F0 Fe0 2.142425 1_466
F1 Fe2 2.091195 1_655
F1 Fe3 2.118647 1_554
F1 Fe3 2.118647 1_555
F2 Fe4 2.160193 1_555
F2 Fe4 2.160193 1_554
F2 Fe0 2.169233 1_565
F3 Mg0 2.023462 1_554
F3 Mg0 2.023462 1_555
F3 Fe1 2.266113 1_655
F4 Mg0 1.989451 1_555
F4 Fe1 2.167046 1_655
F4 Fe1 2.167046 1_656
F5 Fe2 2.040746 1_655
F5 Fe2 2.040746 1_656
