# generated using pymatgen
data_MgFe12(OF)12
_symmetry_space_group_name_H-M   'P 1'
_cell_length_a   9.63890572
_cell_length_b   14.54099533
_cell_length_c   3.13587506
_cell_angle_alpha   91.37482663
_cell_angle_beta   88.90755427
_cell_angle_gamma   90.03573681
_symmetry_Int_Tables_number   1
_chemical_formula_structural   MgFe12(OF)12
_chemical_formula_sum   'Mg1 Fe12 O12 F12'
_cell_volume   439.31560095
_cell_formula_units_Z   1
loop_
 _symmetry_equiv_pos_site_id
 _symmetry_equiv_pos_as_xyz
  1  'x, y, z'
loop_
 _atom_site_type_symbol
 _atom_site_label
 _atom_site_symmetry_multiplicity
 _atom_site_fract_x
 _atom_site_fract_y
 _atom_site_fract_z
 _atom_site_occupancy
  Mg  Mg0  1  0.99778500  0.84064400  0.13633600  1
  Fe  Fe0  1  0.00389100  0.02934900  0.88902100  1
  Fe  Fe1  1  0.01860300  0.33180900  0.99146500  1
  Fe  Fe2  1  0.01159100  0.64395400  0.01734400  1
  Fe  Fe3  1  0.23462900  0.17126600  0.46521000  1
  Fe  Fe4  1  0.25344100  0.47828400  0.49856300  1
  Fe  Fe5  1  0.27858200  0.85374700  0.57012200  1
  Fe  Fe6  1  0.50069100  0.34248300  0.98739000  1
  Fe  Fe7  1  0.51203600  0.00861100  0.02240900  1
  Fe  Fe8  1  0.51801700  0.65681900  0.01527400  1
  Fe  Fe9  1  0.74548800  0.15670800  0.47405200  1
  Fe  Fe10  1  0.72107100  0.49092900  0.49483900  1
  Fe  Fe11  1  0.68381400  0.83204800  0.52778600  1
  O  O0  1  0.09674000  0.26990000  0.48140900  1
  O  O1  1  0.08220800  0.91118100  0.62842800  1
  O  O2  1  0.16347300  0.10580000  0.96006000  1
  O  O3  1  0.15280500  0.43346800  0.99815800  1
  O  O4  1  0.34865000  0.90955300  0.06573900  1
  O  O5  1  0.40923700  0.39457500  0.49614900  1
  O  O6  1  0.58484500  0.95184700  0.51306700  1
  O  O7  1  0.58860800  0.58971100  0.50519100  1
  O  O8  1  0.65226400  0.11184900  0.97799600  1
  O  O9  1  0.66036400  0.42506800  0.99135200  1
  O  O10  1  0.64297400  0.75391900  0.02339000  1
  O  O11  1  0.90839600  0.07151200  0.41110400  1
  F  F0  1  0.11834500  0.59101500  0.50843800  1
  F  F1  1  0.16220100  0.76095600  0.05541500  1
  F  F2  1  0.35071000  0.23648300  0.98073700  1
  F  F3  1  0.34467300  0.56046800  0.00807700  1
  F  F4  1  0.40108300  0.08450400  0.48565100  1
  F  F5  1  0.39169900  0.73012800  0.54083200  1
  F  F6  1  0.59820100  0.26772100  0.48344600  1
  F  F7  1  0.84716400  0.23825700  0.97440200  1
  F  F8  1  0.82716200  0.89713300  0.00720600  1
  F  F9  1  0.84528100  0.56025600  0.00019200  1
  F  F10  1  0.90570000  0.40032500  0.49132900  1
  F  F11  1  0.93758100  0.73642000  0.53075200  1
loop_
_geom_bond_atom_site_label_1
_geom_bond_atom_site_label_2
_geom_bond_distance
_geom_bond_site_symmetry_2
Mg0 O1 2.016523 1_655
Mg0 O1 2.068559 1_654
Fe0 O11 1.888546 1_455
Fe0 O2 1.910639 1_555
Fe0 O11 1.948999 1_456
Fe0 O1 2.025057 1_545
Fe1 O0 1.954933 1_555
Fe1 O0 1.962017 1_556
Fe1 O3 1.963681 1_555
Fe3 O2 1.952981 1_555
Fe3 O0 1.955103 1_555
Fe3 O2 1.963209 1_554
Fe4 O5 1.933437 1_555
Fe4 O3 1.952003 1_555
Fe4 O3 1.958624 1_554
Fe5 O4 1.873223 1_556
Fe5 O4 1.906966 1_555
Fe5 O1 2.072476 1_555
Fe6 O5 1.945601 1_556
Fe6 O9 1.951587 1_555
Fe6 O5 1.957674 1_555
Fe7 O6 1.902547 1_544
Fe7 O6 1.908946 1_545
Fe7 O8 2.024899 1_554
Fe7 O4 2.138180 1_545
Fe8 O10 1.855321 1_555
Fe8 O7 1.964230 1_554
Fe8 O7 1.971825 1_555
Fe9 O8 1.912225 1_554
Fe9 O8 1.929995 1_555
Fe9 O11 2.004557 1_555
Fe10 O7 1.921705 1_555
Fe10 O9 1.927270 1_554
Fe10 O9 1.928712 1_555
Fe11 O10 1.970895 1_555
Fe11 O10 1.980367 1_556
Fe11 O6 1.988547 1_555
F0 Fe2 2.019308 1_556
F0 Fe2 2.035024 1_555
F0 Fe4 2.093409 1_555
F1 Mg0 1.972685 1_455
F1 Fe2 2.238308 1_555
F1 Fe5 2.329468 1_554
F1 Fe5 2.376293 1_555
F2 Fe3 2.112425 1_556
F2 Fe6 2.112563 1_555
F2 Fe3 2.181468 1_555
F3 Fe4 2.145342 1_555
F3 Fe4 2.171390 1_554
F3 Fe8 2.179942 1_555
F4 Fe3 2.044577 1_555
F4 Fe7 2.082583 1_555
F4 Fe7 2.313878 1_556
F5 Fe5 2.102168 1_555
F5 Fe8 2.231393 1_556
F5 Fe8 2.275033 1_555
F6 Fe6 2.103515 1_555
F6 Fe9 2.149680 1_555
F6 Fe6 2.150158 1_554
F7 Fe1 2.140366 1_655
F7 Fe9 2.190067 1_555
F7 Fe9 2.202444 1_556
F8 Mg0 1.893804 1_555
F8 Fe11 2.252629 1_554
F8 Fe11 2.335869 1_555
F8 Fe0 2.596424 1_664
F9 Fe2 2.012854 1_655
F9 Fe10 2.204183 1_555
F9 Fe10 2.226021 1_554
F10 Fe1 2.120228 1_654
F10 Fe1 2.185884 1_655
F10 Fe10 2.214586 1_555
F11 Mg0 2.055433 1_555
F11 Fe2 2.182266 1_655
F11 Fe2 2.187741 1_656
F11 Mg0 2.478449 1_556
