# generated using pymatgen
data_MgMn6(O2F)4
_symmetry_space_group_name_H-M   'P 1'
_cell_length_a   5.28344837
_cell_length_b   7.55718600
_cell_length_c   5.78817076
_cell_angle_alpha   97.03103068
_cell_angle_beta   83.54271142
_cell_angle_gamma   93.12408693
_symmetry_Int_Tables_number   1
_chemical_formula_structural   MgMn6(O2F)4
_chemical_formula_sum   'Mg1 Mn6 O8 F4'
_cell_volume   227.72251273
_cell_formula_units_Z   1
loop_
 _symmetry_equiv_pos_site_id
 _symmetry_equiv_pos_as_xyz
  1  'x, y, z'
loop_
 _atom_site_type_symbol
 _atom_site_label
 _atom_site_symmetry_multiplicity
 _atom_site_fract_x
 _atom_site_fract_y
 _atom_site_fract_z
 _atom_site_occupancy
  Mg  Mg0  1  -0.00005336  0.49602848  0.99559306  1
  Mn  Mn0  1  0.49999329  0.99609037  0.49561937  1
  Mn  Mn1  1  0.51251817  0.66607626  0.13724822  1
  Mn  Mn2  1  0.48749244  0.32606067  0.85398668  1
  Mn  Mn3  1  0.93320810  0.72457014  0.60040482  1
  Mn  Mn4  1  0.06681268  0.26759512  0.39082025  1
  Mn  Mn5  1  0.99996915  0.99606767  0.99566013  1
  O  O0  1  0.84075325  0.75146386  0.94128240  1
  O  O1  1  0.82706730  0.07307999  0.31003271  1
  O  O2  1  0.63383949  0.75944583  0.43195448  1
  O  O3  1  0.64614762  0.43680773  0.12274713  1
  O  O4  1  0.35378558  0.55529173  0.86849880  1
  O  O5  1  0.36610538  0.23270945  0.55932896  1
  O  O6  1  0.15922175  0.24063804  0.04991786  1
  O  O7  1  0.17305766  0.91890533  0.68141891  1
  F  F0  1  0.88017425  0.42354817  0.67211201  1
  F  F1  1  0.67580877  0.10065633  0.82088756  1
  F  F2  1  0.32445629  0.89150297  0.17001061  1
  F  F3  1  0.11964216  0.56846185  0.31914305  1
loop_
_geom_bond_atom_site_label_1
_geom_bond_atom_site_label_2
_geom_bond_distance
_geom_bond_site_symmetry_2
Mg0 O3 1.978936 1_456
Mg0 O4 1.979093 1_555
Mg0 O6 2.217471 1_556
Mg0 O0 2.217565 1_455
Mn0 O5 1.936936 1_565
Mn0 O2 1.937017 1_555
Mn0 O1 2.025977 1_565
Mn0 O7 2.026440 1_555
Mn1 O3 1.895233 1_555
Mn1 O2 1.928865 1_555
Mn1 O4 1.929285 1_554
Mn1 O0 2.079726 1_554
Mn2 O4 1.895133 1_555
Mn2 O5 1.928729 1_555
Mn2 O3 1.929042 1_556
Mn2 O6 2.079858 1_556
Mn3 O7 1.935159 1_655
Mn3 O0 1.966912 1_555
Mn3 O2 1.994273 1_555
Mn4 O1 1.935458 1_455
Mn4 O6 1.967013 1_555
Mn4 O5 1.994148 1_555
Mn5 O7 1.977124 1_655
Mn5 O1 1.977152 1_566
Mn5 O6 1.992610 1_666
Mn5 O0 1.992822 1_555
F0 Mg0 2.045451 1_655
F0 Mn4 2.075596 1_655
F0 Mn2 2.342529 1_555
F0 Mn3 2.358256 1_555
F1 Mn2 1.997564 1_555
F1 Mn0 2.231827 1_545
F1 Mn5 2.305292 1_545
F2 Mn1 1.997120 1_555
F2 Mn0 2.232811 1_555
F2 Mn5 2.305236 1_454
F3 Mg0 2.045606 1_554
F3 Mn3 2.075615 1_455
F3 Mn1 2.343722 1_555
F3 Mn4 2.357008 1_555
