# generated using pymatgen
data_Na8MgZr3Si4(PO12)2
_symmetry_space_group_name_H-M   'P 1'
_cell_length_a   9.22097608
_cell_length_b   9.22518691
_cell_length_c   22.99383006
_cell_angle_alpha   89.96410467
_cell_angle_beta   90.06576056
_cell_angle_gamma   120.05860418
_symmetry_Int_Tables_number   1
_chemical_formula_structural   Na8MgZr3Si4(PO12)2
_chemical_formula_sum   'Na24 Mg3 Zr9 Si12 P6 O72'
_cell_volume   1692.92205611
_cell_formula_units_Z   3
loop_
 _symmetry_equiv_pos_site_id
 _symmetry_equiv_pos_as_xyz
  1  'x, y, z'
loop_
 _atom_site_type_symbol
 _atom_site_label
 _atom_site_symmetry_multiplicity
 _atom_site_fract_x
 _atom_site_fract_y
 _atom_site_fract_z
 _atom_site_occupancy
  Na  Na0  1  0.63717001  0.00775937  0.24630334  1
  Na  Na1  1  0.37102903  0.36244673  0.24687124  1
  Na  Na2  1  0.99186314  0.62979053  0.24691932  1
  Na  Na3  1  0.63690534  0.62967287  0.74823562  1
  Na  Na4  1  0.99014919  0.36504471  0.74984526  1
  Na  Na5  1  0.37353015  0.00545627  0.74764071  1
  Na  Na6  1  0.30680656  0.33303749  0.58441189  1
  Na  Na7  1  0.03058642  0.69944628  0.58407711  1
  Na  Na8  1  0.66423774  0.96896792  0.58612082  1
  Na  Na9  1  0.30600855  0.96982848  0.08327898  1
  Na  Na10  1  0.66384059  0.69400602  0.08327717  1
  Na  Na11  1  0.03015283  0.33611193  0.08321208  1
  Na  Na12  1  0.96697442  0.66517461  0.91707386  1
  Na  Na13  1  0.69862859  0.03364300  0.91711530  1
  Na  Na14  1  0.33443068  0.30158633  0.91768307  1
  Na  Na15  1  0.97060513  0.29802863  0.41511712  1
  Na  Na16  1  0.32387024  0.03188660  0.41601588  1
  Na  Na17  1  0.70570450  0.67105226  0.41504477  1
  Na  Na18  1  0.00367129  0.99900007  0.49765572  1
  Na  Na19  1  0.00026807  0.00035506  0.99946714  1
  Na  Na20  1  0.66941198  0.33362791  0.83113926  1
  Na  Na21  1  0.66717317  0.33537235  0.33107594  1
  Na  Na22  1  0.33367260  0.66698512  0.16338525  1
  Na  Na23  1  0.33647552  0.67100127  0.66798084  1
  Mg  Mg0  1  0.00435708  0.00012347  0.35088961  1
  Mg  Mg1  1  0.66528343  0.33206502  0.68485731  1
  Mg  Mg2  1  0.66655377  0.33332400  0.17945381  1
  Zr  Zr0  1  0.99495058  0.99655281  0.85132157  1
  Zr  Zr1  1  0.99756057  0.99207094  0.64961731  1
  Zr  Zr2  1  0.99994839  0.99964287  0.14610890  1
  Zr  Zr3  1  0.66694475  0.33341241  0.98360065  1
  Zr  Zr4  1  0.66323776  0.33859735  0.48334961  1
  Zr  Zr5  1  0.33324615  0.66646293  0.01839409  1
  Zr  Zr6  1  0.33199418  0.66666302  0.51799775  1
  Zr  Zr7  1  0.32942793  0.66146247  0.31612952  1
  Zr  Zr8  1  0.33422725  0.67077124  0.81610259  1
  Si  Si0  1  0.99609291  0.70001412  0.75000870  1
  Si  Si1  1  0.70501202  0.00391191  0.74934012  1
  Si  Si2  1  0.37679088  0.04338222  0.58555579  1
  Si  Si3  1  0.66552621  0.62366677  0.58606243  1
  Si  Si4  1  0.95698957  0.62179767  0.08591084  1
  Si  Si5  1  0.66490177  0.04311439  0.08590655  1
  Si  Si6  1  0.37825296  0.33508708  0.08583813  1
  Si  Si7  1  0.62571056  0.66531262  0.91660273  1
  Si  Si8  1  0.03985714  0.37335442  0.91649010  1
  Si  Si9  1  0.33379970  0.96136312  0.91700541  1
  Si  Si10  1  0.32884418  0.36828135  0.41643562  1
  Si  Si11  1  0.03777648  0.66930412  0.41632677  1
  P  P0  1  0.29377032  0.00355775  0.25160277  1
  P  P1  1  0.71038200  0.70749290  0.25177765  1
  P  P2  1  0.99588128  0.28865009  0.25173301  1
  P  P3  1  0.29431508  0.29241375  0.74966943  1
  P  P4  1  0.95624835  0.33343241  0.58454031  1
  P  P5  1  0.62809767  0.95926228  0.41609881  1
  O  O0  1  0.20953416  0.02882972  0.30488710  1
  O  O1  1  0.81950565  0.79214784  0.30526982  1
  O  O2  1  0.97095856  0.17978068  0.30524681  1
  O  O3  1  0.20881074  0.18007045  0.80381608  1
  O  O4  1  0.97043704  0.79558499  0.80616698  1
  O  O5  1  0.82629994  0.03188143  0.80606786  1
  O  O6  1  0.79492160  0.96765144  0.69300410  1
  O  O7  1  0.17809891  0.21066698  0.69553283  1
  O  O8  1  0.03619780  0.82767449  0.69354833  1
  O  O9  1  0.78943347  0.82100628  0.19659439  1
  O  O10  1  0.03206915  0.21119796  0.19669787  1
  O  O11  1  0.17938019  0.96782415  0.19657431  1
  O  O12  1  0.88032647  0.36730730  0.63752166  1
  O  O13  1  0.49495035  0.12388339  0.64093993  1
  O  O14  1  0.62974618  0.50539893  0.64108113  1
  O  O15  1  0.87786660  0.50821661  0.14257341  1
  O  O16  1  0.63053692  0.12223601  0.14254714  1
  O  O17  1  0.49186281  0.36961796  0.14254177  1
  O  O18  1  0.45513030  0.29669806  0.02664721  1
  O  O19  1  0.84159426  0.54497030  0.02668480  1
  O  O20  1  0.70328138  0.15844130  0.02670405  1
  O  O21  1  0.46020260  0.15789400  0.52581595  1
  O  O22  1  0.70203002  0.54337658  0.52651861  1
  O  O23  1  0.84734516  0.30173802  0.52849768  1
  O  O24  1  0.54228669  0.70214150  0.97323776  1
  O  O25  1  0.15980961  0.45813798  0.97328783  1
  O  O26  1  0.29767617  0.84020528  0.97331972  1
  O  O27  1  0.54325080  0.84646718  0.47028851  1
  O  O28  1  0.30297294  0.46236906  0.47292426  1
  O  O29  1  0.15961894  0.69837686  0.47277002  1
  O  O30  1  0.12951333  0.63387450  0.36021241  1
  O  O31  1  0.51065861  0.87617545  0.36243006  1
  O  O32  1  0.36922575  0.49647974  0.36029685  1
  O  O33  1  0.12633582  0.49279849  0.85941505  1
  O  O34  1  0.36760069  0.87471354  0.86004087  1
  O  O35  1  0.50653446  0.63194508  0.85950142  1
  O  O36  1  0.01909932  0.83345577  0.40999091  1
  O  O37  1  0.80096929  0.97599231  0.40956813  1
  O  O38  1  0.16266813  0.18707649  0.40993052  1
  O  O39  1  0.02435613  0.18886048  0.91018680  1
  O  O40  1  0.16678230  0.97938933  0.90983015  1
  O  O41  1  0.81146306  0.83430817  0.91050655  1
  O  O42  1  0.97873566  0.17657507  0.58925397  1
  O  O43  1  0.18828012  0.02541189  0.58866057  1
  O  O44  1  0.83420065  0.81404862  0.58854509  1
  O  O45  1  0.97814857  0.81228110  0.09123462  1
  O  O46  1  0.83422909  0.02195105  0.09128711  1
  O  O47  1  0.18760023  0.16581021  0.09126143  1
  O  O48  1  0.68849287  0.16914693  0.74421996  1
  O  O49  1  0.46705131  0.30917657  0.74409589  1
  O  O50  1  0.82994445  0.51954631  0.74367469  1
  O  O51  1  0.68778657  0.53072530  0.24512295  1
  O  O52  1  0.84268355  0.31258484  0.24504755  1
  O  O53  1  0.47050063  0.15808921  0.24498468  1
  O  O54  1  0.64417959  0.49869876  0.92238602  1
  O  O55  1  0.85496611  0.35601615  0.92239246  1
  O  O56  1  0.50193027  0.14567649  0.92231301  1
  O  O57  1  0.64244408  0.13403835  0.42290960  1
  O  O58  1  0.50212320  0.35668692  0.42229323  1
  O  O59  1  0.85614063  0.49366867  0.42251974  1
  O  O60  1  0.35291776  0.49864668  0.07711367  1
  O  O61  1  0.14593910  0.64722982  0.07715343  1
  O  O62  1  0.50130712  0.85413085  0.07713412  1
  O  O63  1  0.35248927  0.85339182  0.57580783  1
  O  O64  1  0.50031150  0.64701197  0.57546698  1
  O  O65  1  0.13561287  0.49139434  0.57602406  1
  O  O66  1  0.31062927  0.84014786  0.25699769  1
  O  O67  1  0.53075399  0.69265788  0.25663866  1
  O  O68  1  0.16116253  0.46940201  0.25666341  1
  O  O69  1  0.30702328  0.46706504  0.75554888  1
  O  O70  1  0.16934227  0.68947658  0.75511432  1
  O  O71  1  0.52258451  0.82862133  0.75524123  1
loop_
_geom_bond_atom_site_label_1
_geom_bond_atom_site_label_2
_geom_bond_distance
_geom_bond_site_symmetry_2
Na0 O52 2.482207 1_555
Na0 O53 2.533983 1_555
Na0 O67 2.571277 1_545
Na0 O66 2.618169 1_545
Na0 O16 2.621460 1_555
Na0 O31 2.923841 1_545
Na0 O9 2.945367 1_545
Na0 O2 2.988078 1_555
Na1 O53 2.475832 1_555
Na1 O51 2.529942 1_555
Na1 O68 2.585189 1_555
Na1 O17 2.633023 1_555
Na1 O67 2.646677 1_555
Na1 O32 2.890679 1_555
Na1 O10 2.944790 1_555
Na1 O0 2.979501 1_555
Na2 O51 2.476178 1_555
Na2 O52 2.534710 1_555
Na2 O66 2.596947 1_655
Na2 O15 2.633641 1_555
Na2 O68 2.643712 1_655
Na2 O30 2.888483 1_655
Na2 O11 2.941581 1_655
Na2 O1 2.993566 1_555
Na3 O50 2.454324 1_555
Na3 O71 2.538611 1_555
Na3 O49 2.562202 1_555
Na3 O69 2.638381 1_555
Na3 O14 2.704962 1_555
Na3 O35 2.832581 1_555
Na3 O4 2.975437 1_555
Na3 O6 2.984213 1_555
Na4 O48 2.446124 1_555
Na4 O50 2.518412 1_555
Na4 O69 2.585509 1_655
Na4 O70 2.597787 1_655
Na4 O12 2.776984 1_555
Na4 O33 2.797734 1_655
Na4 O5 2.957699 1_555
Na4 O7 3.011842 1_655
Na5 O49 2.486000 1_555
Na5 O48 2.515594 1_555
Na5 O70 2.563908 1_545
Na5 O71 2.612673 1_545
Na5 O13 2.691500 1_555
Na5 O34 2.840384 1_545
Na5 O8 2.965706 1_545
Na5 O3 3.004727 1_555
Na6 O43 2.480023 1_555
Na6 O64 2.537391 1_555
Na6 O42 2.621754 1_455
Na6 O65 2.640523 1_555
Na6 O7 2.805820 1_555
Na6 O28 2.834544 1_555
Na6 O14 2.888600 1_555
Na6 O21 2.953501 1_555
Na7 O44 2.515151 1_455
Na7 O65 2.553207 1_555
Na7 O63 2.577141 1_555
Na7 O43 2.605343 1_565
Na7 O8 2.771321 1_555
Na7 O29 2.825761 1_555
Na7 O12 2.926531 1_455
Na7 O22 2.937111 1_455
Na8 O63 2.526831 1_555
Na8 O42 2.553211 1_565
Na8 O64 2.582433 1_555
Na8 O44 2.597167 1_555
Na8 O6 2.738640 1_555
Na8 O13 2.882628 1_565
Na8 O27 2.889555 1_555
Na8 O23 2.972885 1_565
Na9 O62 2.515646 1_555
Na9 O47 2.544197 1_565
Na9 O61 2.579696 1_555
Na9 O45 2.623882 1_455
Na9 O26 2.782062 1_554
Na9 O11 2.852284 1_555
Na9 O18 2.919718 1_565
Na9 O16 2.926963 1_565
Na10 O60 2.512189 1_555
Na10 O45 2.540643 1_555
Na10 O62 2.581709 1_555
Na10 O46 2.625554 1_565
Na10 O24 2.782355 1_554
Na10 O9 2.853179 1_555
Na10 O19 2.921436 1_555
Na10 O17 2.927959 1_555
Na11 O61 2.515352 1_555
Na11 O46 2.540227 1_455
Na11 O60 2.579911 1_555
Na11 O47 2.625689 1_555
Na11 O25 2.782155 1_554
Na11 O10 2.855540 1_555
Na11 O20 2.916181 1_455
Na11 O15 2.931939 1_455
Na12 O55 2.502961 1_555
Na12 O40 2.544542 1_655
Na12 O54 2.579588 1_555
Na12 O41 2.598872 1_555
Na12 O19 2.763598 1_556
Na12 O4 2.812405 1_555
Na12 O26 2.939334 1_655
Na12 O33 2.965437 1_655
Na13 O56 2.500139 1_555
Na13 O41 2.530721 1_545
Na13 O55 2.577312 1_555
Na13 O39 2.605635 1_655
Na13 O20 2.762414 1_556
Na13 O5 2.816415 1_555
Na13 O24 2.945972 1_545
Na13 O34 2.949414 1_545
Na14 O54 2.504541 1_555
Na14 O39 2.511297 1_555
Na14 O40 2.579557 1_545
Na14 O56 2.586576 1_555
Na14 O18 2.749911 1_556
Na14 O3 2.854731 1_555
Na14 O25 2.941049 1_555
Na14 O35 2.958199 1_555
Na15 O38 2.452535 1_655
Na15 O59 2.511865 1_555
Na15 O37 2.575600 1_545
Na15 O57 2.625310 1_555
Na15 O2 2.753073 1_555
Na15 O23 2.852294 1_555
Na15 O30 2.965044 1_655
Na15 O28 2.965898 1_655
Na16 O36 2.472603 1_545
Na16 O38 2.531765 1_555
Na16 O58 2.601314 1_555
Na16 O57 2.601615 1_555
Na16 O0 2.757876 1_555
Na16 O21 2.799701 1_555
Na16 O29 2.965526 1_545
Na16 O31 3.005622 1_545
Na17 O37 2.495092 1_555
Na17 O36 2.504489 1_655
Na17 O58 2.551191 1_555
Na17 O59 2.627670 1_555
Na17 O1 2.747480 1_555
Na17 O22 2.813347 1_555
Na17 O32 2.965274 1_555
Na17 O27 2.985219 1_555
Na18 O36 2.576415 1_555
Na18 O38 2.585116 1_565
Na18 O43 2.629226 1_565
Na18 O44 2.655718 1_455
Na18 O37 2.689904 1_455
Na18 O42 2.748684 1_465
Na19 O41 2.624093 1_445
Na19 O39 2.626303 1_555
Na19 O40 2.635966 1_545
Na19 O47 2.668910 1_556
Na19 O45 2.673246 1_446
Na19 O46 2.674855 1_456
Na20 O48 2.569017 1_555
Na20 O50 2.576186 1_555
Na20 O55 2.647855 1_555
Na20 O56 2.665861 1_555
Na20 O49 2.666250 1_555
Na20 O54 2.671183 1_555
Na21 O51 2.615969 1_555
Na21 O53 2.628098 1_555
Na21 O52 2.631537 1_555
Na21 O59 2.652582 1_555
Na21 O58 2.657400 1_555
Na21 O57 2.744545 1_555
Na22 O62 2.575384 1_555
Na22 O61 2.576412 1_555
Na22 O60 2.580508 1_555
Na22 O67 2.741708 1_555
Na22 O68 2.747972 1_555
Na22 O66 2.752400 1_555
Na23 O71 2.565382 1_555
Na23 O70 2.586296 1_555
Na23 O63 2.663111 1_555
Na23 O69 2.674357 1_555
Na23 O64 2.683160 1_555
Na23 O65 2.750959 1_555
Mg0 O0 2.066581 1_555
Mg0 O1 2.099788 1_445
Mg0 O38 2.103512 1_555
Mg0 O36 2.106095 1_545
Mg0 O2 2.109876 1_455
Mg0 O37 2.230350 1_445
Mg1 O13 2.037657 1_555
Mg1 O14 2.049304 1_555
Mg1 O48 2.118206 1_555
Mg1 O50 2.119741 1_555
Mg1 O12 2.140324 1_555
Mg1 O49 2.204511 1_555
Mg2 O17 1.990984 1_555
Mg2 O15 1.992912 1_555
Mg2 O16 1.994014 1_555
Mg2 O53 2.286373 1_555
Mg2 O52 2.292244 1_555
Mg2 O51 2.297881 1_555
O0 P0 1.530611 1_555
O1 P1 1.531800 1_555
O2 P2 1.530848 1_555
O3 P3 1.558177 1_555
O3 Zr0 2.146234 1_445
O4 Si0 1.646755 1_555
O4 Zr0 2.036753 1_555
O5 Si1 1.651302 1_555
O5 Zr0 2.027555 1_545
O6 Si1 1.660742 1_565
O6 Zr1 2.029712 1_555
O7 P3 1.566901 1_555
O7 Zr1 2.142018 1_445
O8 Si0 1.664944 1_455
O8 Zr1 1.996469 1_455
O9 P1 1.572818 1_555
O9 Zr2 2.151649 1_555
O10 P2 1.569787 1_455
O10 Zr2 2.161644 1_445
O11 P0 1.572070 1_565
O11 Zr2 2.156815 1_455
O12 P4 1.514423 1_555
O13 Si2 1.596194 1_555
O14 Si3 1.593207 1_555
O15 Si4 1.600740 1_555
O16 Si5 1.601008 1_555
O17 Si6 1.600622 1_555
O18 Si6 1.653674 1_555
O18 Zr3 2.061673 1_554
O19 Si4 1.652734 1_555
O19 Zr3 2.057689 1_554
O20 Si5 1.652991 1_555
O20 Zr3 2.058894 1_554
O21 Si2 1.667664 1_555
O21 Zr4 2.028095 1_555
O22 Si3 1.669898 1_555
O22 Zr4 2.001659 1_555
O23 P4 1.567751 1_555
O23 Zr4 2.156186 1_555
O24 Si7 1.633316 1_555
O24 Zr5 2.066523 1_556
O25 Si8 1.634658 1_555
O25 Zr5 2.060710 1_556
O26 Si9 1.631916 1_555
O26 Zr5 2.067493 1_556
O27 P5 1.559654 1_555
O27 Zr6 2.124903 1_555
O28 Si10 1.645285 1_555
O28 Zr6 2.047986 1_555
O29 Si11 1.647372 1_555
O29 Zr6 2.038428 1_555
O30 Si11 1.663495 1_555
O30 Zr7 2.006081 1_555
O31 P5 1.565145 1_555
O31 Zr7 2.128876 1_555
O32 Si10 1.661819 1_555
O32 Zr7 2.009793 1_555
O33 Si8 1.640956 1_555
O33 Zr8 2.052228 1_555
O34 Si9 1.644267 1_555
O34 Zr8 2.019104 1_555
O35 Si7 1.638479 1_555
O35 Zr8 2.052932 1_555
O36 Si11 1.614003 1_555
O37 P5 1.530168 1_555
O38 Si10 1.611992 1_555
O39 Si8 1.641575 1_555
O39 Zr0 2.138504 1_445
O40 Si9 1.637868 1_555
O40 Zr0 2.142817 1_455
O41 Si7 1.645954 1_555
O41 Zr0 2.102558 1_555
O42 P4 1.564927 1_555
O42 Zr1 2.268522 1_545
O43 Si2 1.663038 1_555
O43 Zr1 2.148293 1_445
O44 Si3 1.664449 1_555
O44 Zr1 2.111396 1_555
O45 Si4 1.672639 1_555
O45 Zr2 2.067387 1_555
O46 Si5 1.672178 1_555
O46 Zr2 2.068025 1_545
O47 Si6 1.671776 1_555
O47 Zr2 2.068777 1_445
O48 Si1 1.610267 1_555
O49 P3 1.526773 1_555
O50 Si0 1.607717 1_555
O51 P1 1.544645 1_555
O52 P2 1.542673 1_555
O53 P0 1.544066 1_555
O54 Si7 1.634353 1_555
O54 Zr3 2.160457 1_555
O55 Si8 1.636439 1_655
O55 Zr3 2.161761 1_555
O56 Si9 1.633589 1_545
O56 Zr3 2.158447 1_555
O57 P5 1.558291 1_545
O57 Zr4 2.273652 1_555
O58 Si10 1.659290 1_555
O58 Zr4 2.109319 1_555
O59 Si11 1.653008 1_655
O59 Zr4 2.149638 1_555
O60 Si6 1.650495 1_555
O60 Zr5 2.128561 1_555
O61 Si4 1.649985 1_455
O61 Zr5 2.130278 1_555
O62 Si5 1.649512 1_565
O62 Zr5 2.129214 1_555
O63 Si2 1.667132 1_565
O63 Zr6 2.108610 1_555
O64 Si3 1.659628 1_555
O64 Zr6 2.113001 1_555
O65 P4 1.575843 1_455
O65 Zr6 2.177932 1_555
O66 P0 1.595793 1_565
O66 Zr7 2.208819 1_555
O67 P1 1.596254 1_555
O67 Zr7 2.206916 1_555
O68 P2 1.603145 1_455
O68 Zr7 2.158823 1_555
O69 P3 1.561744 1_555
O69 Zr8 2.250186 1_555
O70 Si0 1.652409 1_455
O70 Zr8 2.136731 1_555
O71 Si1 1.654774 1_565
O71 Zr8 2.136564 1_555
