# generated using pymatgen
data_Na7Sc3ZnSi3(SO8)3
_symmetry_space_group_name_H-M   'P 1'
_cell_length_a   9.18937984
_cell_length_b   9.14490369
_cell_length_c   22.42367037
_cell_angle_alpha   90.20821990
_cell_angle_beta   89.93455652
_cell_angle_gamma   119.61984746
_symmetry_Int_Tables_number   1
_chemical_formula_structural   Na7Sc3ZnSi3(SO8)3
_chemical_formula_sum   'Na21 Sc9 Zn3 Si9 S9 O72'
_cell_volume   1638.13845766
_cell_formula_units_Z   3
loop_
 _symmetry_equiv_pos_site_id
 _symmetry_equiv_pos_as_xyz
  1  'x, y, z'
loop_
 _atom_site_type_symbol
 _atom_site_label
 _atom_site_symmetry_multiplicity
 _atom_site_fract_x
 _atom_site_fract_y
 _atom_site_fract_z
 _atom_site_occupancy
  Na  Na0  1  0.63842832  0.99823108  0.24009398  1
  Na  Na1  1  0.38483473  0.37369989  0.23890113  1
  Na  Na2  1  0.98022951  0.62989131  0.25430670  1
  Na  Na3  1  0.62620100  0.62568509  0.73855201  1
  Na  Na4  1  0.99385122  0.34918391  0.74813814  1
  Na  Na5  1  0.38427936  0.01899729  0.75537122  1
  Na  Na6  1  0.01789471  0.69460630  0.57508644  1
  Na  Na7  1  0.66817120  0.95666220  0.58447817  1
  Na  Na8  1  0.31885921  0.98507030  0.07960387  1
  Na  Na9  1  0.65345452  0.69071468  0.09292683  1
  Na  Na10  1  0.68931116  0.03349814  0.91594488  1
  Na  Na11  1  0.33441442  0.29034864  0.91875208  1
  Na  Na12  1  0.96176788  0.29735606  0.41016498  1
  Na  Na13  1  0.33044702  0.01995091  0.41419956  1
  Na  Na14  1  0.71935066  0.68456772  0.41534032  1
  Na  Na15  1  0.98866996  0.98651033  0.49600909  1
  Na  Na16  1  0.01346901  0.01150227  0.00397805  1
  Na  Na17  1  0.65683541  0.32151779  0.82907974  1
  Na  Na18  1  0.67783527  0.34586420  0.32973900  1
  Na  Na19  1  0.34359536  0.65348065  0.16200799  1
  Na  Na20  1  0.35173486  0.64518879  0.66639164  1
  Sc  Sc0  1  0.01056428  0.00958825  0.85018347  1
  Sc  Sc1  1  0.99411760  0.00461469  0.65057356  1
  Sc  Sc2  1  0.98598024  0.00309193  0.14553163  1
  Sc  Sc3  1  0.65265302  0.31569158  0.98551040  1
  Sc  Sc4  1  0.67770303  0.34908476  0.48075566  1
  Sc  Sc5  1  0.33389465  0.67626105  0.02104971  1
  Sc  Sc6  1  0.34878133  0.67369012  0.51640506  1
  Sc  Sc7  1  0.34393601  0.67962713  0.31734238  1
  Sc  Sc8  1  0.34379214  0.68013021  0.81322315  1
  Zn  Zn0  1  0.97097009  0.96484422  0.35244966  1
  Zn  Zn1  1  0.64255154  0.33025209  0.68540116  1
  Zn  Zn2  1  0.65289842  0.33695428  0.17319146  1
  Si  Si0  1  0.69913048  0.69217843  0.24972823  1
  Si  Si1  1  0.29444362  0.29784390  0.75118620  1
  Si  Si2  1  0.70506115  0.00541795  0.75010742  1
  Si  Si3  1  0.66721308  0.63133381  0.58639289  1
  Si  Si4  1  0.66680891  0.03885756  0.08554220  1
  Si  Si5  1  0.36141494  0.33231266  0.08357152  1
  Si  Si6  1  0.32816967  0.96462016  0.91728178  1
  Si  Si7  1  0.63471740  0.97083691  0.41680699  1
  Si  Si8  1  0.04336402  0.66868948  0.41755310  1
  S  S0  1  0.28922730  0.99713634  0.25235667  1
  S  S1  1  0.00559468  0.29599902  0.25348811  1
  S  S2  1  0.00313374  0.70776997  0.74961651  1
  S  S3  1  0.96375099  0.33502731  0.58404442  1
  S  S4  1  0.36886030  0.03577931  0.58324314  1
  S  S5  1  0.96101408  0.62546373  0.08510250  1
  S  S6  1  0.63000223  0.66735693  0.91678238  1
  S  S7  1  0.03834823  0.37664986  0.91530890  1
  S  S8  1  0.33390535  0.37250027  0.41580520  1
  O  O0  1  0.21005053  0.01848768  0.30674688  1
  O  O1  1  0.80714729  0.76656889  0.31095915  1
  O  O2  1  0.99268658  0.20194172  0.30864760  1
  O  O3  1  0.20836779  0.18517569  0.81148765  1
  O  O4  1  0.98165811  0.79607891  0.80133352  1
  O  O5  1  0.81931595  0.02741779  0.80947759  1
  O  O6  1  0.78946419  0.96887617  0.69111684  1
  O  O7  1  0.16987681  0.19680997  0.69547867  1
  O  O8  1  0.02679342  0.80593576  0.69413229  1
  O  O9  1  0.79420732  0.81908563  0.19308584  1
  O  O10  1  0.02527038  0.20839426  0.20063620  1
  O  O11  1  0.19084312  0.98328941  0.19814585  1
  O  O12  1  0.88541140  0.35582520  0.63827976  1
  O  O13  1  0.47003401  0.11041899  0.63764545  1
  O  O14  1  0.65453994  0.52795826  0.64663334  1
  O  O15  1  0.89227980  0.53434218  0.14143367  1
  O  O16  1  0.64189595  0.12721144  0.14500730  1
  O  O17  1  0.47843260  0.37942462  0.14294350  1
  O  O18  1  0.45818673  0.30509919  0.02565751  1
  O  O19  1  0.85210668  0.53931215  0.03351999  1
  O  O20  1  0.68696496  0.14609634  0.02452990  1
  O  O21  1  0.45270697  0.13506581  0.52935646  1
  O  O22  1  0.68960085  0.53783765  0.52667366  1
  O  O23  1  0.85804803  0.31317203  0.53024304  1
  O  O24  1  0.54516409  0.68756484  0.96995728  1
  O  O25  1  0.14727865  0.46258288  0.96677171  1
  O  O26  1  0.31700917  0.85600020  0.97632905  1
  O  O27  1  0.54493885  0.84793695  0.47455003  1
  O  O28  1  0.31145966  0.45678853  0.46844185  1
  O  O29  1  0.15450107  0.68299800  0.47691758  1
  O  O30  1  0.12916275  0.63509269  0.35832227  1
  O  O31  1  0.51670460  0.87962325  0.35786789  1
  O  O32  1  0.36174747  0.47588161  0.36131404  1
  O  O33  1  0.11798984  0.46650967  0.85915470  1
  O  O34  1  0.35293809  0.87183067  0.85798806  1
  O  O35  1  0.52439616  0.64076049  0.86262846  1
  O  O36  1  0.03303258  0.84257173  0.41603196  1
  O  O37  1  0.82478535  0.99925594  0.41367259  1
  O  O38  1  0.18489382  0.20441819  0.41084072  1
  O  O39  1  0.01716199  0.20185143  0.91445721  1
  O  O40  1  0.16481510  0.99321690  0.91525268  1
  O  O41  1  0.79442701  0.82371595  0.91182680  1
  O  O42  1  0.97730682  0.17859429  0.58549998  1
  O  O43  1  0.19739008  0.01361920  0.58693912  1
  O  O44  1  0.84167323  0.82065144  0.58586554  1
  O  O45  1  0.97910979  0.79811446  0.08786515  1
  O  O46  1  0.82493968  0.00163756  0.08648992  1
  O  O47  1  0.18520048  0.15311868  0.08993172  1
  O  O48  1  0.68952412  0.17589533  0.74370466  1
  O  O49  1  0.48180420  0.31943837  0.74959144  1
  O  O50  1  0.85607925  0.53732977  0.74733079  1
  O  O51  1  0.68192022  0.50365164  0.24340136  1
  O  O52  1  0.85409383  0.31384195  0.24891459  1
  O  O53  1  0.46268847  0.14158141  0.24976423  1
  O  O54  1  0.65035753  0.51709727  0.92154778  1
  O  O55  1  0.86913597  0.35883210  0.91979069  1
  O  O56  1  0.50356477  0.15378962  0.91794807  1
  O  O57  1  0.64037009  0.15301436  0.42296771  1
  O  O58  1  0.48639458  0.35414186  0.42171773  1
  O  O59  1  0.85162582  0.50202152  0.42092834  1
  O  O60  1  0.34149650  0.49894628  0.07322335  1
  O  O61  1  0.13307058  0.64983798  0.07832775  1
  O  O62  1  0.49497260  0.84960437  0.08126528  1
  O  O63  1  0.34944515  0.86212683  0.57917390  1
  O  O64  1  0.50381718  0.66107442  0.58180942  1
  O  O65  1  0.13208403  0.48667206  0.57805010  1
  O  O66  1  0.29790126  0.83597737  0.25370873  1
  O  O67  1  0.50962989  0.67638575  0.25285187  1
  O  O68  1  0.15893309  0.46752182  0.25375095  1
  O  O69  1  0.30677490  0.48422050  0.75487127  1
  O  O70  1  0.15701154  0.69191130  0.75518331  1
  O  O71  1  0.51638436  0.83546032  0.75415443  1
loop_
_geom_bond_atom_site_label_1
_geom_bond_atom_site_label_2
_geom_bond_distance
_geom_bond_site_symmetry_2
Na0 O16 2.432999 1_565
Na0 O53 2.542322 1_565
Na0 O52 2.576760 1_565
Na0 O67 2.589842 1_555
Na0 O66 2.738317 1_555
Na0 O9 2.854201 1_555
Na0 O31 2.866518 1_555
Na1 O17 2.307491 1_555
Na1 O51 2.380818 1_555
Na1 O67 2.435512 1_555
Na1 O53 2.565608 1_555
Na1 O68 2.629319 1_555
Na1 O32 2.937502 1_555
Na1 O10 2.999779 1_555
Na2 O51 2.403831 1_555
Na2 O52 2.529406 1_555
Na2 O66 2.575965 1_655
Na2 O15 2.667083 1_555
Na2 O30 2.693996 1_655
Na2 O68 2.704037 1_655
Na2 O1 2.766723 1_555
Na3 O14 2.308748 1_555
Na3 O49 2.448723 1_555
Na3 O69 2.582828 1_555
Na3 O71 2.594010 1_555
Na3 O50 2.615974 1_555
Na3 O6 2.932299 1_555
Na3 O35 2.958695 1_555
Na4 O48 2.441472 1_555
Na4 O69 2.511211 1_655
Na4 O50 2.591732 1_555
Na4 O12 2.670522 1_555
Na4 O33 2.725221 1_655
Na4 O70 2.729111 1_655
Na4 O7 2.857316 1_655
Na4 O5 2.912387 1_555
Na5 O49 2.436621 1_555
Na5 O48 2.453148 1_555
Na5 O71 2.511026 1_545
Na5 O34 2.612825 1_545
Na5 O70 2.670896 1_545
Na5 O13 2.765643 1_555
Na6 O44 2.419009 1_455
Na6 O43 2.557532 1_565
Na6 O29 2.560582 1_555
Na6 O65 2.587431 1_555
Na6 O63 2.650248 1_555
Na6 O22 2.838302 1_455
Na6 O8 2.840351 1_555
Na7 O64 2.356898 1_555
Na7 O44 2.459819 1_555
Na7 O42 2.547599 1_565
Na7 O63 2.614782 1_555
Na7 O6 2.617994 1_555
Na7 O27 2.687518 1_555
Na8 O47 2.405513 1_565
Na8 O62 2.477391 1_555
Na8 O26 2.591678 1_554
Na8 O61 2.672026 1_555
Na8 O45 2.725697 1_455
Na8 O18 2.825955 1_565
Na8 O11 2.902435 1_555
Na8 O16 2.972274 1_565
Na9 O46 2.482373 1_565
Na9 O62 2.529036 1_555
Na9 O60 2.552736 1_555
Na9 O9 2.565513 1_555
Na9 O45 2.650979 1_555
Na9 O17 2.727959 1_555
Na9 O24 2.927775 1_554
Na10 O56 2.445638 1_555
Na10 O41 2.540133 1_545
Na10 O55 2.593902 1_555
Na10 O39 2.619779 1_655
Na10 O20 2.644421 1_556
Na10 O5 2.681066 1_555
Na11 O40 2.373005 1_545
Na11 O56 2.427872 1_555
Na11 O54 2.604127 1_555
Na11 O39 2.613689 1_555
Na11 O18 2.628821 1_556
Na11 O3 2.634447 1_555
Na12 O37 2.373100 1_545
Na12 O2 2.500637 1_555
Na12 O59 2.540559 1_555
Na12 O38 2.578645 1_655
Na12 O57 2.587435 1_555
Na12 O23 2.882183 1_555
Na12 O30 2.929609 1_655
Na13 O36 2.391752 1_545
Na13 O57 2.490852 1_555
Na13 O38 2.621444 1_555
Na13 O0 2.649729 1_555
Na13 O58 2.662648 1_555
Na13 O21 2.802888 1_555
Na13 O31 2.885548 1_545
Na14 O1 2.470245 1_555
Na14 O36 2.505980 1_655
Na14 O59 2.507521 1_555
Na14 O37 2.542910 1_555
Na14 O58 2.709643 1_555
Na14 O22 2.787105 1_555
Na15 O36 2.372060 1_655
Na15 O37 2.423184 1_555
Na15 O44 2.485126 1_555
Na15 O42 2.697893 1_565
Na15 O38 2.708812 1_665
Na15 O43 2.726338 1_665
Na16 O47 2.418897 1_555
Na16 O40 2.478239 1_544
Na16 O46 2.504455 1_455
Na16 O45 2.619609 1_445
Na16 O39 2.650985 1_554
Na16 O41 2.799538 1_444
Na17 O49 2.395932 1_555
Na17 O48 2.429869 1_555
Na17 O56 2.487540 1_555
Na17 O50 2.656005 1_555
Na17 O55 2.721380 1_555
Na17 O54 2.753138 1_555
Na18 O51 2.407952 1_555
Na18 O52 2.540122 1_555
Na18 O59 2.550075 1_555
Na18 O53 2.635832 1_555
Na18 O57 2.650297 1_555
Na18 O58 2.734358 1_555
Na19 O60 2.431831 1_555
Na19 O62 2.445722 1_555
Na19 O67 2.491882 1_555
Na19 O68 2.677421 1_555
Na19 O61 2.684928 1_555
Na19 O66 2.802788 1_555
Na20 O64 2.316624 1_555
Na20 O69 2.385829 1_555
Na20 O71 2.563069 1_555
Na20 O65 2.682470 1_555
Na20 O63 2.798338 1_555
Na20 O70 2.844313 1_555
O0 S0 1.480429 1_545
O0 Zn0 2.247416 1_445
O1 Si0 1.631592 1_555
O1 Zn0 1.926744 1_555
O2 S1 1.479977 1_655
O2 Zn0 2.300674 1_545
O3 Si1 1.648554 1_555
O3 Sc0 1.938217 1_555
O4 S2 1.478582 1_655
O4 Sc0 2.134300 1_665
O5 Si2 1.645488 1_555
O5 Sc0 2.058248 1_655
O6 Si2 1.647316 1_565
O6 Sc1 1.964897 1_565
O7 Si1 1.635187 1_555
O7 Sc1 1.973957 1_455
O8 S2 1.488512 1_555
O8 Sc1 2.213181 1_465
O9 Si0 1.652073 1_555
O9 Sc2 2.037576 1_565
O10 S1 1.488236 1_555
O10 Sc2 2.120418 1_455
O11 S0 1.483016 1_555
O11 Sc2 2.304863 1_465
O12 S3 1.471433 1_555
O12 Zn1 2.373245 1_555
O13 S4 1.479083 1_555
O13 Zn1 2.130582 1_555
O14 Si3 1.622361 1_555
O14 Zn1 1.962408 1_555
O15 S5 1.474600 1_555
O15 Zn2 2.164523 1_555
O16 Si4 1.630214 1_555
O16 Zn2 1.971877 1_555
O17 Si5 1.629583 1_555
O17 Zn2 1.949655 1_555
O18 Si5 1.659214 1_555
O18 Sc3 1.959370 1_554
O19 S5 1.475398 1_555
O19 Sc3 2.232441 1_554
O20 Si4 1.642385 1_555
O20 Sc3 1.940166 1_554
O21 S4 1.480697 1_555
O21 Sc4 2.302919 1_555
O22 Si3 1.652741 1_555
O22 Sc4 1.962762 1_555
O23 S3 1.499313 1_555
O23 Sc4 2.151890 1_555
O24 S6 1.484046 1_555
O24 Sc5 2.211298 1_556
O25 S7 1.472995 1_555
O25 Sc5 2.217123 1_556
O26 Si6 1.630606 1_555
O26 Sc5 1.998968 1_556
O27 Si7 1.646792 1_555
O27 Sc6 1.958826 1_555
O28 S8 1.476415 1_555
O28 Sc6 2.126425 1_555
O29 Si8 1.643743 1_555
O29 Sc6 2.032978 1_555
O30 Si8 1.647472 1_555
O30 Sc7 2.027202 1_555
O31 Si7 1.649134 1_555
O31 Sc7 1.952529 1_555
O32 S8 1.490257 1_555
O32 Sc7 2.187650 1_555
O33 S7 1.485724 1_555
O33 Sc8 2.277176 1_555
O34 Si6 1.649744 1_555
O34 Sc8 1.982353 1_555
O35 S6 1.497585 1_555
O35 Sc8 2.170045 1_555
O36 Si8 1.639616 1_555
O36 Zn0 2.062071 1_455
O37 Si7 1.635320 1_555
O37 Zn0 2.049105 1_555
O38 S8 1.472636 1_555
O38 Zn0 2.471141 1_445
O39 S7 1.511845 1_555
O39 Sc0 2.246923 1_555
O40 Si6 1.646855 1_555
O40 Sc0 2.092048 1_565
O41 S6 1.484949 1_555
O41 Sc0 2.327750 1_665
O42 S3 1.496530 1_555
O42 Sc1 2.223691 1_555
O43 S4 1.488275 1_555
O43 Sc1 2.318367 1_455
O44 Si3 1.680532 1_555
O44 Sc1 2.134326 1_565
O45 S5 1.504700 1_555
O45 Sc2 2.248424 1_565
O46 Si4 1.648304 1_555
O46 Sc2 1.981883 1_555
O47 Si5 1.644995 1_555
O47 Sc2 2.076696 1_455
O48 Si2 1.641090 1_555
O48 Zn1 2.122523 1_555
O49 Si1 1.633537 1_555
O49 Zn1 2.028647 1_555
O50 S2 1.475031 1_655
O50 Zn1 2.383033 1_555
O51 Si0 1.657187 1_555
O51 Zn2 2.110753 1_555
O52 S1 1.483361 1_655
O53 S0 1.485970 1_545
O53 Zn2 2.474686 1_555
O54 S6 1.479787 1_555
O54 Sc3 2.346833 1_555
O55 S7 1.484537 1_655
O55 Sc3 2.346613 1_555
O56 Si6 1.683574 1_545
O56 Sc3 2.085104 1_555
O57 Si7 1.646245 1_545
O57 Sc4 2.094738 1_555
O58 S8 1.497493 1_555
O58 Sc4 2.220681 1_555
O59 Si8 1.667103 1_655
O59 Sc4 2.027160 1_555
O60 Si5 1.639463 1_555
O60 Sc5 2.031969 1_555
O61 S5 1.491290 1_455
O61 Sc5 2.160962 1_555
O62 Si4 1.672033 1_565
O62 Sc5 2.048578 1_555
O63 S4 1.510276 1_565
O63 Sc6 2.218706 1_555
O64 Si3 1.656286 1_555
O64 Sc6 2.088646 1_555
O65 S3 1.488103 1_455
O65 Sc6 2.333568 1_555
O66 S0 1.515177 1_555
O66 Sc7 2.207588 1_555
O67 Si0 1.676129 1_555
O67 Sc7 2.109450 1_555
O68 S1 1.503696 1_555
O68 Sc7 2.326316 1_555
O69 Si1 1.653094 1_555
O69 Sc8 2.102164 1_555
O70 S2 1.496454 1_555
O70 Sc8 2.200081 1_555
O71 Si2 1.663419 1_565
O71 Sc8 2.017305 1_555
