# generated using pymatgen
data_LiMo8(P2O11)4
_symmetry_space_group_name_H-M   'P 1'
_cell_length_a   9.97328100
_cell_length_b   10.00359206
_cell_length_c   10.21651727
_cell_angle_alpha   66.99020089
_cell_angle_beta   67.29480078
_cell_angle_gamma   80.56075449
_symmetry_Int_Tables_number   1
_chemical_formula_structural   LiMo8(P2O11)4
_chemical_formula_sum   'Li1 Mo8 P8 O44'
_cell_volume   865.38108137
_cell_formula_units_Z   1
loop_
 _symmetry_equiv_pos_site_id
 _symmetry_equiv_pos_as_xyz
  1  'x, y, z'
loop_
 _atom_site_type_symbol
 _atom_site_label
 _atom_site_symmetry_multiplicity
 _atom_site_fract_x
 _atom_site_fract_y
 _atom_site_fract_z
 _atom_site_occupancy
  Li  Li0  1  0.00000000  0.00000000  0.00000000  1
  Mo  Mo0  1  0.53499300  0.28488100  0.85596600  1
  Mo  Mo1  1  0.46500700  0.71511900  0.14403400  1
  Mo  Mo2  1  0.07675000  0.32358700  0.70641000  1
  Mo  Mo3  1  0.57598500  0.82521000  0.70742700  1
  Mo  Mo4  1  0.92325000  0.67641300  0.29359000  1
  Mo  Mo5  1  0.42401500  0.17479000  0.29257300  1
  Mo  Mo6  1  0.03602400  0.78111300  0.85135000  1
  Mo  Mo7  1  0.96397600  0.21888700  0.14865000  1
  P  P0  1  0.27910000  0.03159500  0.11679200  1
  P  P1  1  0.78023000  0.53134900  0.11904900  1
  P  P2  1  0.29248900  0.04401800  0.67139900  1
  P  P3  1  0.79370900  0.54196500  0.67251800  1
  P  P4  1  0.70751100  0.95598200  0.32860100  1
  P  P5  1  0.20629100  0.45803500  0.32748200  1
  P  P6  1  0.72090000  0.96840500  0.88320800  1
  P  P7  1  0.21977000  0.46865100  0.88095100  1
  O  O0  1  0.00182000  0.77047700  0.08952300  1
  O  O1  1  0.00745000  0.76201100  0.35599800  1
  O  O2  1  0.82898500  0.06245000  0.19477200  1
  O  O3  1  0.12257200  0.05988100  0.11172900  1
  O  O4  1  0.81443700  0.37413800  0.11721600  1
  O  O5  1  0.32015500  0.87421800  0.11520700  1
  O  O6  1  0.05148800  0.80762500  0.67261900  1
  O  O7  1  0.87742800  0.94011900  0.88827100  1
  O  O8  1  0.49556100  0.74327200  0.90985700  1
  O  O9  1  0.49070100  0.73760600  0.64784100  1
  O  O10  1  0.67658700  0.42698700  0.80125800  1
  O  O11  1  0.18556300  0.62586200  0.88278400  1
  O  O12  1  0.37698000  0.43233500  0.88260000  1
  O  O13  1  0.67984500  0.12578200  0.88479300  1
  O  O14  1  0.44827800  0.69671400  0.32159200  1
  O  O15  1  0.55172200  0.30328600  0.67840800  1
  O  O16  1  0.62302000  0.56766500  0.11740000  1
  O  O17  1  0.20145200  0.45221500  0.74812100  1
  O  O18  1  0.70779600  0.95028600  0.74879300  1
  O  O19  1  0.88198900  0.63313500  0.96224000  1
  O  O20  1  0.38273200  0.13480400  0.96090500  1
  O  O21  1  0.32341300  0.57301300  0.19874200  1
  O  O22  1  0.50929900  0.26239400  0.35215900  1
  O  O23  1  0.19716100  0.45358100  0.48165200  1
  O  O24  1  0.70098500  0.95256400  0.48162600  1
  O  O25  1  0.75039200  0.68808100  0.69569300  1
  O  O26  1  0.25438500  0.19417700  0.68891000  1
  O  O27  1  0.93776500  0.49318800  0.70248500  1
  O  O28  1  0.43834200  0.99662700  0.69767000  1
  O  O29  1  0.99818000  0.22952300  0.91047700  1
  O  O30  1  0.50443900  0.25672800  0.09014300  1
  O  O31  1  0.06223500  0.50681200  0.29751500  1
  O  O32  1  0.56165800  0.00337300  0.30233000  1
  O  O33  1  0.24960800  0.31191900  0.30430700  1
  O  O34  1  0.74561500  0.80582300  0.31109000  1
  O  O35  1  0.80283900  0.54641900  0.51834800  1
  O  O36  1  0.29901500  0.04743600  0.51837400  1
  O  O37  1  0.99255000  0.23798900  0.64400200  1
  O  O38  1  0.17101500  0.93755000  0.80522800  1
  O  O39  1  0.11801100  0.36686500  0.03776000  1
  O  O40  1  0.79854800  0.54778500  0.25187900  1
  O  O41  1  0.61726800  0.86519600  0.03909500  1
  O  O42  1  0.29220400  0.04971400  0.25120700  1
  O  O43  1  0.94851200  0.19237500  0.32738100  1
loop_
_geom_bond_atom_site_label_1
_geom_bond_atom_site_label_2
_geom_bond_distance
_geom_bond_site_symmetry_2
Li0 O29 2.113321 1_454
Li0 O0 2.113321 1_545
Li0 O3 2.237890 1_555
Li0 O7 2.237890 1_444
Li0 O2 2.293747 1_455
Li0 O38 2.293747 1_544
Mo0 O15 1.693441 1_555
Mo0 O10 1.937893 1_555
Mo0 O13 1.978551 1_555
Mo0 O20 1.985437 1_555
Mo0 O12 1.988376 1_555
Mo0 O30 2.198792 1_556
Mo1 O14 1.693441 1_555
Mo1 O21 1.937893 1_555
Mo1 O5 1.978551 1_555
Mo1 O41 1.985437 1_555
Mo1 O16 1.988376 1_555
Mo1 O8 2.198792 1_554
Mo2 O37 1.709076 1_455
Mo2 O29 1.814682 1_455
Mo2 O27 2.004954 1_455
Mo2 O26 2.007638 1_555
Mo2 O23 2.110680 1_555
Mo2 O17 2.178711 1_555
Mo3 O9 1.709774 1_555
Mo3 O8 1.789463 1_555
Mo3 O28 2.008673 1_555
Mo3 O25 2.026487 1_555
Mo3 O24 2.121835 1_555
Mo3 O18 2.203192 1_555
Mo4 O1 1.709076 1_655
Mo4 O0 1.814682 1_655
Mo4 O31 2.004954 1_655
Mo4 O34 2.007638 1_555
Mo4 O35 2.110680 1_555
Mo4 O40 2.178711 1_555
Mo5 O22 1.709774 1_555
Mo5 O30 1.789463 1_555
Mo5 O32 2.008673 1_555
Mo5 O33 2.026487 1_555
Mo5 O36 2.121835 1_555
Mo5 O42 2.203192 1_555
Mo6 O6 1.686962 1_555
Mo6 O19 1.981435 1_455
Mo6 O11 1.989850 1_555
Mo6 O38 2.026924 1_555
Mo6 O7 2.087456 1_455
Mo6 O0 2.284150 1_556
Mo7 O43 1.686962 1_555
Mo7 O39 1.981435 1_655
Mo7 O4 1.989850 1_555
Mo7 O2 2.026924 1_555
Mo7 O3 2.087456 1_655
Mo7 O29 2.284150 1_554
O2 P4 1.574022 1_545
O3 P0 1.557490 1_555
O4 P1 1.559536 1_555
O5 P0 1.565190 1_565
O7 P6 1.557490 1_555
O10 P3 1.577746 1_555
O11 P7 1.559536 1_555
O12 P7 1.555425 1_555
O13 P6 1.565190 1_545
O16 P1 1.555425 1_555
O17 P7 1.509205 1_555
O18 P6 1.508863 1_555
O19 P1 1.562636 1_556
O20 P0 1.569856 1_556
O21 P5 1.577746 1_555
O23 P5 1.525419 1_555
O24 P4 1.526420 1_555
O25 P3 1.537429 1_555
O26 P2 1.550220 1_555
O27 P3 1.545573 1_555
O28 P2 1.545469 1_565
O31 P5 1.545573 1_555
O32 P4 1.545469 1_545
O33 P5 1.537429 1_555
O34 P4 1.550220 1_555
O35 P3 1.525419 1_555
O36 P2 1.526420 1_555
O38 P2 1.574022 1_565
O39 P7 1.562636 1_554
O40 P1 1.509205 1_555
O41 P6 1.569856 1_554
O42 P0 1.508863 1_555
