# generated using pymatgen
data_MgCu2(WO4)2
_symmetry_space_group_name_H-M   'P 1'
_cell_length_a   5.79141590
_cell_length_b   5.12532254
_cell_length_c   6.37133424
_cell_angle_alpha   90.00139027
_cell_angle_beta   89.99715741
_cell_angle_gamma   109.17369543
_symmetry_Int_Tables_number   1
_chemical_formula_structural   MgCu2(WO4)2
_chemical_formula_sum   'Mg1 Cu2 W2 O8'
_cell_volume   178.62853535
_cell_formula_units_Z   1
loop_
 _symmetry_equiv_pos_site_id
 _symmetry_equiv_pos_as_xyz
  1  'x, y, z'
loop_
 _atom_site_type_symbol
 _atom_site_label
 _atom_site_symmetry_multiplicity
 _atom_site_fract_x
 _atom_site_fract_y
 _atom_site_fract_z
 _atom_site_occupancy
  Mg  Mg0  1  0.99993915  0.24994174  0.61293812  1
  Cu  Cu0  1  0.49999666  0.25011813  0.65423583  1
  Cu  Cu1  1  0.49996079  0.74996168  0.35596562  1
  W  W0  1  0.99996242  0.24996894  0.14282612  1
  W  W1  1  0.00008784  0.75002190  0.86575132  1
  O  O0  1  0.79055109  0.04232404  0.35179594  1
  O  O1  1  0.20935917  0.45761486  0.35179481  1
  O  O2  1  0.19942632  0.98487904  0.65936422  1
  O  O3  1  0.80064001  0.51518165  0.65938600  1
  O  O4  1  0.81127134  0.00629391  0.89103290  1
  O  O5  1  0.18880483  0.49371938  0.89104203  1
  O  O6  1  0.18555575  0.00110665  0.09444618  1
  O  O7  1  0.81444363  0.49886808  0.09441990  1
loop_
_geom_bond_atom_site_label_1
_geom_bond_atom_site_label_2
_geom_bond_distance
_geom_bond_site_symmetry_2
Mg0 O3 2.073288 1_555
Mg0 O2 2.073373 1_645
Mg0 O0 2.126890 1_555
Mg0 O1 2.127006 1_655
Mg0 O4 2.235255 1_555
Mg0 O5 2.235954 1_655
Cu0 O3 1.823333 1_555
Cu0 O2 1.823417 1_545
Cu1 O0 1.849820 1_565
Cu1 O1 1.849823 1_555
O0 W0 1.878359 1_555
O1 W0 1.878366 1_455
O2 W1 1.896824 1_555
O3 W1 1.896983 1_655
O4 W1 1.972403 1_645
O4 W0 2.105043 1_556
O5 W1 1.972109 1_555
O5 W0 2.105409 1_456
O6 W0 1.943631 1_455
O6 W1 2.006249 1_544
O7 W0 1.943511 1_555
O7 W1 2.006591 1_654
