# generated using pymatgen
data_Na4Zn2P2SO12
_symmetry_space_group_name_H-M   'P 1'
_cell_length_a   9.12403483
_cell_length_b   9.08126019
_cell_length_c   22.00050212
_cell_angle_alpha   89.66795214
_cell_angle_beta   90.00000000
_cell_angle_gamma   120.15593522
_symmetry_Int_Tables_number   1
_chemical_formula_structural   Na4Zn2P2SO12
_chemical_formula_sum   'Na24 Zn12 P12 S6 O72'
_cell_volume   1576.16604189
_cell_formula_units_Z   6
loop_
 _symmetry_equiv_pos_site_id
 _symmetry_equiv_pos_as_xyz
  1  'x, y, z'
loop_
 _atom_site_type_symbol
 _atom_site_label
 _atom_site_symmetry_multiplicity
 _atom_site_fract_x
 _atom_site_fract_y
 _atom_site_fract_z
 _atom_site_occupancy
  Na  Na0  1  0.63296266  0.00634974  0.25424012  1
  Na  Na1  1  0.35865618  0.35802495  0.24714601  1
  Na  Na2  1  0.00627216  0.63073530  0.24841205  1
  Na  Na3  1  0.62446313  0.63073530  0.74841205  1
  Na  Na4  1  0.99936877  0.35802495  0.74714601  1
  Na  Na5  1  0.37338708  0.00634974  0.75424012  1
  Na  Na6  1  0.29962966  0.33968274  0.58757312  1
  Na  Na7  1  0.02532318  0.69135795  0.58047901  1
  Na  Na8  1  0.67293916  0.96406830  0.58174505  1
  Na  Na9  1  0.29113013  0.96406830  0.08174505  1
  Na  Na10  1  0.66603577  0.69135795  0.08047901  1
  Na  Na11  1  0.04005408  0.33968274  0.08757312  1
  Na  Na12  1  0.96629566  0.67301674  0.92090712  1
  Na  Na13  1  0.69198918  0.02469195  0.91381301  1
  Na  Na14  1  0.33960516  0.29740230  0.91507905  1
  Na  Na15  1  0.95779613  0.29740230  0.41507905  1
  Na  Na16  1  0.33270177  0.02469195  0.41381301  1
  Na  Na17  1  0.70672008  0.67301674  0.42090712  1
  Na  Na18  1  0.98763860  0.99278153  0.49997615  1
  Na  Na19  1  0.00514293  0.99278153  0.99997615  1
  Na  Na20  1  0.65430560  0.32611453  0.83330915  1
  Na  Na21  1  0.67180993  0.32611453  0.33330915  1
  Na  Na22  1  0.32097160  0.65944853  0.16664315  1
  Na  Na23  1  0.33847593  0.65944853  0.66664315  1
  Zn  Zn0  1  0.00048299  0.00111171  0.34565099  1
  Zn  Zn1  1  0.00062872  0.00111171  0.84565099  1
  Zn  Zn2  1  0.99001915  0.01022236  0.65408505  1
  Zn  Zn3  1  0.02020321  0.01022236  0.15408505  1
  Zn  Zn4  1  0.66714999  0.33444471  0.67898399  1
  Zn  Zn5  1  0.66729572  0.33444471  0.17898399  1
  Zn  Zn6  1  0.65668615  0.34355536  0.98741805  1
  Zn  Zn7  1  0.68687021  0.34355536  0.48741805  1
  Zn  Zn8  1  0.33381599  0.66777871  0.01231799  1
  Zn  Zn9  1  0.33396172  0.66777871  0.51231799  1
  Zn  Zn10  1  0.32335215  0.67688936  0.32075205  1
  Zn  Zn11  1  0.35353621  0.67688936  0.82075205  1
  P  P0  1  0.30001269  0.00112139  0.25039478  1
  P  P1  1  0.99967477  0.29641858  0.25001902  1
  P  P2  1  0.29674381  0.29641858  0.75001902  1
  P  P3  1  0.70110870  0.00112139  0.75039478  1
  P  P4  1  0.96667969  0.33445439  0.58372778  1
  P  P5  1  0.66634177  0.62975158  0.58335202  1
  P  P6  1  0.96341081  0.62975158  0.08335202  1
  P  P7  1  0.36777570  0.33445439  0.08372778  1
  P  P8  1  0.63334569  0.66778839  0.91706178  1
  P  P9  1  0.33300777  0.96308558  0.91668602  1
  P  P10  1  0.63007681  0.96308558  0.41668602  1
  P  P11  1  0.03444170  0.66778839  0.41706178  1
  S  S0  1  0.70266483  0.70388543  0.24979141  1
  S  S1  1  0.00122060  0.70388543  0.74979141  1
  S  S2  1  0.36933183  0.03721843  0.58312441  1
  S  S3  1  0.66788760  0.03721843  0.08312441  1
  S  S4  1  0.03599783  0.37055243  0.91645841  1
  S  S5  1  0.33455360  0.37055243  0.41645841  1
  O  O0  1  0.21825738  0.02989065  0.30740877  1
  O  O1  1  0.80710067  0.78209931  0.30486517  1
  O  O2  1  0.96885041  0.18446819  0.30738117  1
  O  O3  1  0.21561778  0.18446819  0.80738117  1
  O  O4  1  0.97499864  0.78209931  0.80486517  1
  O  O5  1  0.81163327  0.02989065  0.80740877  1
  O  O6  1  0.77779727  0.96589919  0.69347541  1
  O  O7  1  0.18903024  0.21375126  0.69242669  1
  O  O8  1  0.02732659  0.81028858  0.69470694  1
  O  O9  1  0.78296198  0.81028858  0.19470694  1
  O  O10  1  0.02472102  0.21375126  0.19242669  1
  O  O11  1  0.18810192  0.96589919  0.19347541  1
  O  O12  1  0.88492438  0.36322365  0.64074177  1
  O  O13  1  0.47376767  0.11543231  0.63819817  1
  O  O14  1  0.63551741  0.51780119  0.64071417  1
  O  O15  1  0.88228478  0.51780119  0.14071417  1
  O  O16  1  0.64166564  0.11543231  0.13819817  1
  O  O17  1  0.47830027  0.36322365  0.14074177  1
  O  O18  1  0.44446427  0.29923219  0.02680841  1
  O  O19  1  0.85569724  0.54708426  0.02575969  1
  O  O20  1  0.69399359  0.14362158  0.02803994  1
  O  O21  1  0.44962898  0.14362158  0.52803994  1
  O  O22  1  0.69138802  0.54708426  0.52575969  1
  O  O23  1  0.85476892  0.29923219  0.52680841  1
  O  O24  1  0.55159038  0.69655765  0.97407577  1
  O  O25  1  0.14043367  0.44876631  0.97153217  1
  O  O26  1  0.30218341  0.85113519  0.97404817  1
  O  O27  1  0.54895078  0.85113519  0.47404817  1
  O  O28  1  0.30833164  0.44876631  0.47153217  1
  O  O29  1  0.14496627  0.69655765  0.47407577  1
  O  O30  1  0.11113027  0.63256619  0.36014241  1
  O  O31  1  0.52236324  0.88041826  0.35909369  1
  O  O32  1  0.36065959  0.47695558  0.36137394  1
  O  O33  1  0.11629498  0.47695558  0.86137394  1
  O  O34  1  0.35805402  0.88041826  0.85909369  1
  O  O35  1  0.52143492  0.63256619  0.86014241  1
  O  O36  1  0.01886741  0.83141426  0.41154886  1
  O  O37  1  0.81086297  0.98406180  0.41255554  1
  O  O38  1  0.17866403  0.19795417  0.41250371  1
  O  O39  1  0.01929014  0.19795417  0.91250371  1
  O  O40  1  0.17319883  0.98406180  0.91255554  1
  O  O41  1  0.81254685  0.83141426  0.91154886  1
  O  O42  1  0.98780531  0.17386106  0.58758974  1
  O  O43  1  0.19752470  0.01734257  0.58812696  1
  O  O44  1  0.83186733  0.80831798  0.58769546  1
  O  O45  1  0.97645066  0.80831798  0.08769546  1
  O  O46  1  0.81981788  0.01734257  0.08812696  1
  O  O47  1  0.18605574  0.17386106  0.08758974  1
  O  O48  1  0.68553441  0.16474726  0.74488186  1
  O  O49  1  0.47752997  0.31739480  0.74588854  1
  O  O50  1  0.84533103  0.53128717  0.74583671  1
  O  O51  1  0.68595714  0.53128717  0.24583671  1
  O  O52  1  0.83986583  0.31739480  0.24588854  1
  O  O53  1  0.47921385  0.16474726  0.24488186  1
  O  O54  1  0.65447231  0.50719406  0.92092274  1
  O  O55  1  0.86419170  0.35067557  0.92145996  1
  O  O56  1  0.49853433  0.14165098  0.92102846  1
  O  O57  1  0.64311766  0.14165098  0.42102846  1
  O  O58  1  0.48648488  0.35067557  0.42145996  1
  O  O59  1  0.85272274  0.50719406  0.42092274  1
  O  O60  1  0.35220041  0.49808126  0.07821586  1
  O  O61  1  0.14419597  0.65072880  0.07922254  1
  O  O62  1  0.51199703  0.86462117  0.07917071  1
  O  O63  1  0.35262314  0.86462117  0.57917071  1
  O  O64  1  0.50653183  0.65072880  0.57922254  1
  O  O65  1  0.14587985  0.49808126  0.57821586  1
  O  O66  1  0.32113831  0.84052806  0.25425674  1
  O  O67  1  0.53085770  0.68400957  0.25479396  1
  O  O68  1  0.16520033  0.47498498  0.25436246  1
  O  O69  1  0.30978366  0.47498498  0.75436246  1
  O  O70  1  0.15315088  0.68400957  0.75479396  1
  O  O71  1  0.51938874  0.84052806  0.75425674  1
loop_
_geom_bond_atom_site_label_1
_geom_bond_atom_site_label_2
_geom_bond_distance
_geom_bond_site_symmetry_2
Na0 O66 2.461237 1_545
Na0 O53 2.470494 1_555
Na0 O52 2.492549 1_555
Na0 O31 2.541178 1_545
Na0 O67 2.587769 1_545
Na0 O16 2.719738 1_555
Na0 O2 2.901166 1_555
Na1 O68 2.480827 1_555
Na1 O53 2.496788 1_555
Na1 O67 2.567726 1_555
Na1 O17 2.573105 1_555
Na1 O51 2.583241 1_555
Na1 O32 2.737512 1_555
Na1 O0 2.897825 1_555
Na1 O10 2.908026 1_555
Na2 O52 2.463018 1_455
Na2 O68 2.485736 1_555
Na2 O66 2.530470 1_555
Na2 O51 2.590167 1_455
Na2 O15 2.609247 1_455
Na2 O30 2.634857 1_555
Na2 O11 2.891594 1_555
Na3 O49 2.463018 1_555
Na3 O69 2.485744 1_555
Na3 O71 2.530477 1_555
Na3 O50 2.590176 1_555
Na3 O14 2.609249 1_555
Na3 O35 2.634860 1_555
Na3 O6 2.891594 1_555
Na4 O69 2.480819 1_655
Na4 O48 2.496781 1_555
Na4 O70 2.567726 1_655
Na4 O12 2.573101 1_555
Na4 O50 2.583233 1_555
Na4 O33 2.737511 1_655
Na4 O5 2.897825 1_555
Na4 O7 2.908026 1_655
Na5 O71 2.461229 1_545
Na5 O48 2.470502 1_555
Na5 O49 2.492547 1_555
Na5 O34 2.541177 1_545
Na5 O70 2.587771 1_545
Na5 O13 2.719740 1_555
Na5 O3 2.901166 1_555
Na6 O42 2.461237 1_455
Na6 O65 2.470508 1_555
Na6 O64 2.492552 1_555
Na6 O7 2.541178 1_555
Na6 O43 2.587769 1_555
Na6 O28 2.719722 1_555
Na6 O14 2.901166 1_555
Na7 O44 2.480827 1_455
Na7 O65 2.496772 1_555
Na7 O43 2.567726 1_565
Na7 O29 2.573080 1_555
Na7 O63 2.583233 1_555
Na7 O8 2.737512 1_555
Na7 O12 2.897825 1_455
Na7 O22 2.908026 1_455
Na8 O64 2.463010 1_555
Na8 O44 2.485736 1_555
Na8 O42 2.530470 1_565
Na8 O63 2.590177 1_555
Na8 O27 2.609227 1_555
Na8 O6 2.634857 1_555
Na8 O23 2.891594 1_565
Na9 O61 2.463009 1_555
Na9 O45 2.485744 1_455
Na9 O47 2.530477 1_565
Na9 O62 2.590160 1_555
Na9 O26 2.609223 1_554
Na9 O11 2.634860 1_555
Na9 O18 2.891594 1_565
Na10 O45 2.480819 1_555
Na10 O60 2.496786 1_555
Na10 O46 2.567726 1_565
Na10 O24 2.573087 1_554
Na10 O62 2.583249 1_555
Na10 O9 2.737511 1_555
Na10 O17 2.897825 1_555
Na10 O19 2.908026 1_555
Na11 O47 2.461229 1_555
Na11 O60 2.470492 1_555
Na11 O61 2.492556 1_555
Na11 O10 2.541177 1_555
Na11 O46 2.587771 1_455
Na11 O25 2.719720 1_554
Na11 O15 2.901166 1_455
Na12 O54 2.461229 1_555
Na12 O41 2.470494 1_555
Na12 O40 2.492549 1_655
Na12 O19 2.541159 1_556
Na12 O55 2.587780 1_555
Na12 O4 2.719738 1_555
Na12 O26 2.901166 1_655
Na13 O56 2.480810 1_555
Na13 O41 2.496788 1_545
Na13 O55 2.567717 1_555
Na13 O5 2.573105 1_555
Na13 O39 2.583241 1_655
Na13 O20 2.737487 1_556
Na13 O24 2.897825 1_545
Na13 O34 2.908026 1_545
Na14 O40 2.463018 1_545
Na14 O56 2.485751 1_555
Na14 O54 2.530474 1_555
Na14 O39 2.590167 1_555
Na14 O3 2.609247 1_555
Na14 O18 2.634841 1_556
Na14 O35 2.891594 1_555
Na15 O37 2.463018 1_545
Na15 O57 2.485735 1_555
Na15 O59 2.530460 1_555
Na15 O38 2.590176 1_655
Na15 O2 2.609249 1_555
Na15 O23 2.634835 1_555
Na15 O30 2.891594 1_655
Na16 O57 2.480827 1_555
Na16 O36 2.496781 1_545
Na16 O58 2.567716 1_555
Na16 O0 2.573101 1_555
Na16 O38 2.583233 1_555
Na16 O21 2.737490 1_555
Na16 O29 2.897825 1_545
Na16 O31 2.908026 1_545
Na17 O59 2.461245 1_555
Na17 O36 2.470502 1_655
Na17 O37 2.492547 1_555
Na17 O22 2.541162 1_555
Na17 O58 2.587776 1_555
Na17 O1 2.719740 1_555
Na17 O27 2.901166 1_555
Na18 O44 2.474069 1_555
Na18 O37 2.486012 1_555
Na18 O42 2.540433 1_565
Na18 O36 2.542823 1_655
Na18 O38 2.628409 1_665
Na18 O43 2.655937 1_665
Na19 O45 2.474069 1_456
Na19 O40 2.486012 1_555
Na19 O47 2.540433 1_566
Na19 O41 2.542823 1_455
Na19 O39 2.628409 1_565
Na19 O46 2.655936 1_466
Na20 O56 2.474069 1_555
Na20 O49 2.486012 1_555
Na20 O54 2.540433 1_555
Na20 O48 2.542823 1_555
Na20 O50 2.628409 1_555
Na20 O55 2.655937 1_555
Na21 O57 2.474069 1_555
Na21 O52 2.486012 1_555
Na21 O59 2.540433 1_555
Na21 O53 2.542823 1_555
Na21 O51 2.628409 1_555
Na21 O58 2.655936 1_555
Na22 O68 2.474069 1_555
Na22 O61 2.486012 1_555
Na22 O66 2.540433 1_555
Na22 O60 2.542823 1_555
Na22 O62 2.628409 1_555
Na22 O67 2.655937 1_555
Na23 O69 2.474069 1_555
Na23 O64 2.486012 1_555
Na23 O71 2.540433 1_555
Na23 O65 2.542823 1_555
Na23 O63 2.628409 1_555
Na23 O70 2.655936 1_555
O0 P0 1.548432 1_555
O0 Zn0 2.049384 1_555
O1 S0 1.486790 1_555
O1 Zn0 2.090214 1_665
O2 P1 1.550215 1_555
O2 Zn0 2.007826 1_655
O3 P2 1.550215 1_555
O3 Zn1 2.007826 1_555
O4 S1 1.486790 1_655
O4 Zn1 2.090214 1_665
O5 P3 1.548432 1_555
O5 Zn1 2.049384 1_655
O6 P3 1.545818 1_565
O6 Zn2 1.968567 1_565
O7 P2 1.550690 1_555
O7 Zn2 2.017668 1_455
O8 S1 1.488044 1_555
O8 Zn2 2.193923 1_465
O9 S0 1.488044 1_555
O9 Zn3 2.193923 1_665
O10 P1 1.550690 1_455
O10 Zn3 2.017668 1_555
O11 P0 1.545818 1_565
O11 Zn3 1.968567 1_565
O12 P4 1.548432 1_555
O12 Zn4 2.049384 1_555
O13 S2 1.486790 1_555
O13 Zn4 2.090214 1_555
O14 P5 1.550215 1_555
O14 Zn4 2.007826 1_555
O15 P6 1.550215 1_555
O15 Zn5 2.007826 1_555
O16 S3 1.486790 1_555
O16 Zn5 2.090214 1_555
O17 P7 1.548432 1_555
O17 Zn5 2.049384 1_555
O18 P7 1.545818 1_555
O18 Zn6 1.968567 1_554
O19 P6 1.550690 1_555
O19 Zn6 2.017668 1_554
O20 S3 1.488044 1_555
O20 Zn6 2.193923 1_554
O21 S2 1.488044 1_555
O21 Zn7 2.193923 1_555
O22 P5 1.550690 1_555
O22 Zn7 2.017668 1_555
O23 P4 1.545818 1_555
O23 Zn7 1.968567 1_555
O24 P8 1.548432 1_555
O24 Zn8 2.049384 1_556
O25 S4 1.486790 1_555
O25 Zn8 2.090214 1_556
O26 P9 1.550215 1_555
O26 Zn8 2.007826 1_556
O27 P10 1.550215 1_555
O27 Zn9 2.007826 1_555
O28 S5 1.486790 1_555
O28 Zn9 2.090214 1_555
O29 P11 1.548432 1_555
O29 Zn9 2.049384 1_555
O30 P11 1.545818 1_555
O30 Zn10 1.968567 1_555
O31 P10 1.550690 1_555
O31 Zn10 2.017668 1_555
O32 S5 1.488044 1_555
O32 Zn10 2.193923 1_555
O33 S4 1.488044 1_555
O33 Zn11 2.193923 1_555
O34 P9 1.550690 1_555
O34 Zn11 2.017668 1_555
O35 P8 1.545818 1_555
O35 Zn11 1.968567 1_555
O36 P11 1.566188 1_555
O36 Zn0 2.176861 1_565
O37 P10 1.565087 1_555
O37 Zn0 2.216309 1_665
O38 S5 1.499696 1_555
O38 Zn0 2.261047 1_555
O39 S4 1.499699 1_555
O39 Zn1 2.261047 1_555
O40 P9 1.565078 1_555
O40 Zn1 2.216309 1_565
O41 P8 1.566193 1_555
O41 Zn1 2.176861 1_665
O42 P4 1.565971 1_555
O42 Zn2 2.086592 1_555
O43 S2 1.489119 1_555
O43 Zn2 2.360161 1_455
O44 P5 1.568707 1_555
O44 Zn2 2.224918 1_565
O45 P6 1.568711 1_555
O45 Zn3 2.224918 1_665
O46 S3 1.489110 1_555
O46 Zn3 2.360161 1_655
O47 P7 1.565977 1_555
O47 Zn3 2.086592 1_555
O48 P3 1.566188 1_555
O48 Zn4 2.176861 1_555
O49 P2 1.565087 1_555
O49 Zn4 2.216309 1_555
O50 S1 1.499696 1_655
O50 Zn4 2.261047 1_555
O51 S0 1.499699 1_555
O51 Zn5 2.261047 1_555
O52 P1 1.565078 1_555
O52 Zn5 2.216309 1_555
O53 P0 1.566193 1_555
O53 Zn5 2.176861 1_555
O54 P8 1.565985 1_555
O54 Zn6 2.086592 1_555
O55 S4 1.489104 1_655
O55 Zn6 2.360161 1_555
O56 P9 1.568704 1_545
O56 Zn6 2.224918 1_555
O57 P10 1.568696 1_545
O57 Zn7 2.224918 1_555
O58 S5 1.489123 1_555
O58 Zn7 2.360161 1_555
O59 P11 1.565974 1_655
O59 Zn7 2.086592 1_555
O60 P7 1.566201 1_555
O60 Zn8 2.176861 1_555
O61 P6 1.565073 1_455
O61 Zn8 2.216309 1_555
O62 S3 1.499693 1_565
O62 Zn8 2.261047 1_555
O63 S2 1.499685 1_565
O63 Zn9 2.261047 1_555
O64 P5 1.565091 1_555
O64 Zn9 2.216309 1_555
O65 P4 1.566190 1_455
O65 Zn9 2.176861 1_555
O66 P0 1.565971 1_565
O66 Zn10 2.086592 1_555
O67 S0 1.489119 1_555
O67 Zn10 2.360161 1_555
O68 P1 1.568707 1_455
O68 Zn10 2.224918 1_555
O69 P2 1.568711 1_555
O69 Zn11 2.224918 1_555
O70 S1 1.489110 1_555
O70 Zn11 2.360161 1_555
O71 P3 1.565977 1_565
O71 Zn11 2.086592 1_555
