# generated using pymatgen
data_Na6Zn4Ga4SiS11O48
_symmetry_space_group_name_H-M   'P 1'
_cell_length_a   17.33838908
_cell_length_b   8.68629474
_cell_length_c   22.31429630
_cell_angle_alpha   89.75554588
_cell_angle_beta   89.70586839
_cell_angle_gamma   120.10373336
_symmetry_Int_Tables_number   1
_chemical_formula_structural   Na6Zn4Ga4SiS11O48
_chemical_formula_sum   'Na18 Zn12 Ga12 Si3 S33 O144'
_cell_volume   2907.25361117
_cell_formula_units_Z   3
loop_
 _symmetry_equiv_pos_site_id
 _symmetry_equiv_pos_as_xyz
  1  'x, y, z'
loop_
 _atom_site_type_symbol
 _atom_site_label
 _atom_site_symmetry_multiplicity
 _atom_site_fract_x
 _atom_site_fract_y
 _atom_site_fract_z
 _atom_site_occupancy
  Na  Na0  1  0.81768299  0.99769557  0.24750257  1
  Na  Na1  1  0.99725185  0.63408627  0.25291961  1
  Na  Na2  1  0.31657234  0.64404806  0.74898204  1
  Na  Na3  1  0.81573755  0.63927783  0.74662942  1
  Na  Na4  1  0.99680951  0.36227773  0.75126037  1
  Na  Na5  1  0.68858082  0.00023690  0.74918772  1
  Na  Na6  1  0.99853352  0.99836196  0.49878422  1
  Na  Na7  1  0.50197090  0.00206030  0.49670201  1
  Na  Na8  1  0.00098857  0.00149766  0.00111634  1
  Na  Na9  1  0.49992849  0.00000355  0.00118717  1
  Na  Na10  1  0.33502662  0.31406193  0.83537318  1
  Na  Na11  1  0.83405755  0.32542387  0.83717807  1
  Na  Na12  1  0.33452312  0.33496555  0.33138301  1
  Na  Na13  1  0.82786826  0.34375532  0.33536611  1
  Na  Na14  1  0.17419882  0.66940442  0.16674853  1
  Na  Na15  1  0.66488261  0.65585199  0.16778739  1
  Na  Na16  1  0.17218201  0.68665749  0.66465729  1
  Na  Na17  1  0.66780302  0.66787791  0.66344585  1
  Zn  Zn0  1  0.49799724  0.99916605  0.35151714  1
  Zn  Zn1  1  0.83407007  0.32246585  0.67927235  1
  Zn  Zn2  1  0.33414969  0.33630715  0.18190782  1
  Zn  Zn3  1  0.82842648  0.34576356  0.18286882  1
  Zn  Zn4  1  0.33330375  0.33281628  0.98594216  1
  Zn  Zn5  1  0.83308945  0.33288593  0.98521836  1
  Zn  Zn6  1  0.83235306  0.33327419  0.48269157  1
  Zn  Zn7  1  0.16443773  0.66179694  0.51472779  1
  Zn  Zn8  1  0.66923945  0.66889038  0.51604213  1
  Zn  Zn9  1  0.17540447  0.67353047  0.32000461  1
  Zn  Zn10  1  0.17526690  0.69085233  0.81621146  1
  Zn  Zn11  1  0.66892511  0.67044936  0.81763510  1
  Ga  Ga0  1  0.99735797  0.98644294  0.35102526  1
  Ga  Ga1  1  0.99787342  0.00540038  0.85248939  1
  Ga  Ga2  1  0.49341146  0.00842168  0.85221151  1
  Ga  Ga3  1  0.99270151  0.99467759  0.64709749  1
  Ga  Ga4  1  0.49525268  0.99796223  0.64752940  1
  Ga  Ga5  1  0.99449238  0.99267205  0.15051156  1
  Ga  Ga6  1  0.49923420  0.00124603  0.15136947  1
  Ga  Ga7  1  0.33392950  0.31461369  0.68385111  1
  Ga  Ga8  1  0.33315957  0.33198630  0.48108788  1
  Ga  Ga9  1  0.16689154  0.66763025  0.01633165  1
  Ga  Ga10  1  0.66558971  0.66746147  0.01663338  1
  Ga  Ga11  1  0.66617030  0.65350981  0.31548662  1
  Si  Si0  1  0.85199169  0.70535692  0.25135070  1
  Si  Si1  1  0.35540455  0.00489634  0.74867745  1
  Si  Si2  1  0.85478059  0.00049034  0.75104388  1
  S  S0  1  0.14679788  0.00508555  0.24995967  1
  S  S1  1  0.64291775  0.99569667  0.25058389  1
  S  S2  1  0.35410059  0.70797327  0.24955544  1
  S  S3  1  0.00444039  0.29122384  0.25000217  1
  S  S4  1  0.49885088  0.29132662  0.25022368  1
  S  S5  1  0.14524368  0.28327220  0.74887061  1
  S  S6  1  0.64166843  0.28658144  0.75009658  1
  S  S7  1  0.00221597  0.71699695  0.74987645  1
  S  S8  1  0.49883722  0.70936736  0.74927873  1
  S  S9  1  0.47891991  0.33314275  0.58250459  1
  S  S10  1  0.98409169  0.33399642  0.58340047  1
  S  S11  1  0.18576387  0.04307717  0.58363905  1
  S  S12  1  0.68034612  0.03385511  0.58471021  1
  S  S13  1  0.33468102  0.61936113  0.58441898  1
  S  S14  1  0.83466605  0.62996525  0.58461656  1
  S  S15  1  0.48337482  0.63414126  0.08297085  1
  S  S16  1  0.98466154  0.63347286  0.08260117  1
  S  S17  1  0.33325635  0.03401574  0.08337022  1
  S  S18  1  0.83324162  0.03528098  0.08297585  1
  S  S19  1  0.18262472  0.33154379  0.08354267  1
  S  S20  1  0.68161957  0.33240832  0.08214167  1
  S  S21  1  0.31455156  0.66619106  0.91694112  1
  S  S22  1  0.81484129  0.66697297  0.91714359  1
  S  S23  1  0.02207207  0.37494703  0.91580518  1
  S  S24  1  0.52166690  0.37511342  0.91697280  1
  S  S25  1  0.16428551  0.96194332  0.91712730  1
  S  S26  1  0.66396991  0.96156978  0.91580960  1
  S  S27  1  0.31465867  0.96580605  0.41921069  1
  S  S28  1  0.81469362  0.96226536  0.41498788  1
  S  S29  1  0.16606298  0.36502221  0.41673934  1
  S  S30  1  0.66570650  0.37168877  0.41748559  1
  S  S31  1  0.01932755  0.66888632  0.41558411  1
  S  S32  1  0.52012132  0.66371036  0.41700468  1
  O  O0  1  0.10687412  0.03388899  0.30483829  1
  O  O1  1  0.60477710  0.02775448  0.30385133  1
  O  O2  1  0.40700579  0.78786989  0.30334188  1
  O  O3  1  0.91829709  0.79486735  0.30777963  1
  O  O4  1  0.48584035  0.18520943  0.30409764  1
  O  O5  1  0.99004102  0.18046218  0.30437033  1
  O  O6  1  0.10939111  0.17505869  0.80443452  1
  O  O7  1  0.60386208  0.16941594  0.80446911  1
  O  O8  1  0.48341055  0.78893981  0.80392237  1
  O  O9  1  0.98848656  0.79849981  0.80466427  1
  O  O10  1  0.41419459  0.03907702  0.80895413  1
  O  O11  1  0.92078994  0.04570143  0.80874337  1
  O  O12  1  0.39843644  0.95718446  0.69107449  1
  O  O13  1  0.89758110  0.95599481  0.69322679  1
  O  O14  1  0.08999296  0.20022614  0.69534249  1
  O  O15  1  0.59049574  0.20362909  0.69516098  1
  O  O16  1  0.01856615  0.82618048  0.69501082  1
  O  O17  1  0.51924742  0.82583442  0.69528080  1
  O  O18  1  0.39586453  0.81982665  0.19379555  1
  O  O19  1  0.89340231  0.83817003  0.19250438  1
  O  O20  1  0.01980080  0.21414285  0.19492400  1
  O  O21  1  0.51616017  0.21366261  0.19483578  1
  O  O22  1  0.08948633  0.97250535  0.19580709  1
  O  O23  1  0.58996149  0.97055401  0.19485541  1
  O  O24  1  0.43822255  0.36229762  0.63736683  1
  O  O25  1  0.94711561  0.35970623  0.64053359  1
  O  O26  1  0.24022899  0.12547887  0.63827663  1
  O  O27  1  0.73084132  0.10857946  0.64119982  1
  O  O28  1  0.32278299  0.51267342  0.64077115  1
  O  O29  1  0.82283835  0.52918378  0.64168022  1
  O  O30  1  0.44554479  0.52456251  0.13717534  1
  O  O31  1  0.94809836  0.52770091  0.13836292  1
  O  O32  1  0.31666135  0.10942026  0.13733454  1
  O  O33  1  0.81880198  0.10954959  0.13882061  1
  O  O34  1  0.23714563  0.36462924  0.13732647  1
  O  O35  1  0.73500271  0.36495020  0.13641031  1
  O  O36  1  0.22106202  0.30070959  0.02906268  1
  O  O37  1  0.72016753  0.30101704  0.02815875  1
  O  O38  1  0.42968727  0.55827202  0.02881530  1
  O  O39  1  0.92905103  0.55331831  0.02972084  1
  O  O40  1  0.34950490  0.14177603  0.02864419  1
  O  O41  1  0.84634499  0.14465484  0.02939886  1
  O  O42  1  0.22705429  0.15576887  0.52936468  1
  O  O43  1  0.72191145  0.14644809  0.53176281  1
  O  O44  1  0.34739760  0.53356052  0.53049666  1
  O  O45  1  0.84717899  0.54547045  0.53177645  1
  O  O46  1  0.42211126  0.30224964  0.52898636  1
  O  O47  1  0.92697320  0.30371161  0.53143036  1
  O  O48  1  0.27144471  0.69732530  0.97026894  1
  O  O49  1  0.77080438  0.69630916  0.97019649  1
  O  O50  1  0.07799363  0.46159462  0.96964901  1
  O  O51  1  0.57702957  0.45841022  0.97148077  1
  O  O52  1  0.14879095  0.84824473  0.97171586  1
  O  O53  1  0.64961700  0.84637919  0.96971231  1
  O  O54  1  0.27304475  0.85621984  0.47315043  1
  O  O55  1  0.77570108  0.85293954  0.46892886  1
  O  O56  1  0.15080835  0.44103991  0.47104282  1
  O  O57  1  0.65225136  0.45228535  0.47145497  1
  O  O58  1  0.07367222  0.69508645  0.46898459  1
  O  O59  1  0.57228483  0.68895149  0.47120351  1
  O  O60  1  0.05915165  0.64561366  0.35928782  1
  O  O61  1  0.56096205  0.63398840  0.36195435  1
  O  O62  1  0.26169260  0.89410324  0.36411529  1
  O  O63  1  0.76016497  0.87949308  0.35971447  1
  O  O64  1  0.18287819  0.47384541  0.36205170  1
  O  O65  1  0.67973096  0.48247087  0.36194032  1
  O  O66  1  0.06156314  0.47675001  0.85973842  1
  O  O67  1  0.56180833  0.47965776  0.86218202  1
  O  O68  1  0.17794404  0.88501111  0.86271957  1
  O  O69  1  0.67772955  0.88637929  0.86017566  1
  O  O70  1  0.26365278  0.63916989  0.86135987  1
  O  O71  1  0.76489504  0.64084904  0.86107276  1
  O  O72  1  0.01332258  0.83665336  0.41222018  1
  O  O73  1  0.50843063  0.81982938  0.41043896  1
  O  O74  1  0.40422449  0.98676353  0.41367493  1
  O  O75  1  0.90608949  0.98317130  0.40908509  1
  O  O76  1  0.08555691  0.18403694  0.40958718  1
  O  O77  1  0.58553681  0.19353589  0.41148359  1
  O  O78  1  0.01654633  0.19594779  0.91391727  1
  O  O79  1  0.51653267  0.19615799  0.91431270  1
  O  O80  1  0.08085239  0.97509817  0.91191009  1
  O  O81  1  0.58082847  0.97457084  0.91113968  1
  O  O82  1  0.40527873  0.83156147  0.91343143  1
  O  O83  1  0.90531031  0.83176557  0.91366810  1
  O  O84  1  0.48653190  0.16926481  0.58773168  1
  O  O85  1  0.99371921  0.17047895  0.58819267  1
  O  O86  1  0.09638001  0.02823450  0.59016819  1
  O  O87  1  0.58945549  0.01964905  0.59065409  1
  O  O88  1  0.41793869  0.79689749  0.58741093  1
  O  O89  1  0.91956251  0.81033700  0.58725705  1
  O  O90  1  0.49417282  0.81606682  0.09017556  1
  O  O91  1  0.99594172  0.81568074  0.08862913  1
  O  O92  1  0.41422308  0.01373558  0.09038768  1
  O  O93  1  0.91537952  0.01938426  0.08692111  1
  O  O94  1  0.09143627  0.17018505  0.09104252  1
  O  O95  1  0.59062975  0.17023633  0.08995735  1
  O  O96  1  0.34626282  0.18327285  0.74323809  1
  O  O97  1  0.84438514  0.17820951  0.74679539  1
  O  O98  1  0.23820400  0.31731658  0.74210983  1
  O  O99  1  0.73375623  0.31276815  0.74574586  1
  O  O100  1  0.41456502  0.53562407  0.74206508  1
  O  O101  1  0.91809838  0.54037398  0.74563350  1
  O  O102  1  0.34498200  0.53000062  0.24300313  1
  O  O103  1  0.84679712  0.51441594  0.24608806  1
  O  O104  1  0.41920963  0.30973825  0.24297434  1
  O  O105  1  0.92101373  0.30125506  0.24476344  1
  O  O106  1  0.23594572  0.16261277  0.24370429  1
  O  O107  1  0.73548256  0.14807727  0.24332729  1
  O  O108  1  0.32456846  0.50844600  0.92436302  1
  O  O109  1  0.82449346  0.50836224  0.92434943  1
  O  O110  1  0.43163677  0.35171853  0.92331472  1
  O  O111  1  0.93216640  0.35253912  0.92243133  1
  O  O112  1  0.24345931  0.14031544  0.92393011  1
  O  O113  1  0.74360633  0.13937517  0.92282404  1
  O  O114  1  0.32305433  0.14790681  0.42518203  1
  O  O115  1  0.82333236  0.14021706  0.41946266  1
  O  O116  1  0.24852675  0.34786047  0.42343352  1
  O  O117  1  0.74744977  0.35752528  0.42079866  1
  O  O118  1  0.42873324  0.49712160  0.42203899  1
  O  O119  1  0.92928859  0.51060789  0.42089492  1
  O  O120  1  0.17293359  0.49464385  0.07585223  1
  O  O121  1  0.67199732  0.49494640  0.07501885  1
  O  O122  1  0.07550433  0.65148456  0.07519460  1
  O  O123  1  0.57490648  0.65394405  0.07572275  1
  O  O124  1  0.25212676  0.85115143  0.07605297  1
  O  O125  1  0.75181342  0.85243351  0.07613278  1
  O  O126  1  0.17718618  0.86627719  0.57852933  1
  O  O127  1  0.66995921  0.85502159  0.57892214  1
  O  O128  1  0.25540135  0.63885957  0.57992542  1
  O  O129  1  0.75586979  0.65322977  0.58019152  1
  O  O130  1  0.07378114  0.49435605  0.57775541  1
  O  O131  1  0.56776234  0.49175769  0.57759114  1
  O  O132  1  0.15165597  0.83837370  0.25497612  1
  O  O133  1  0.64980012  0.83034239  0.25577826  1
  O  O134  1  0.26476475  0.69333619  0.25300215  1
  O  O135  1  0.75458706  0.69590877  0.25807180  1
  O  O136  1  0.08118602  0.47437086  0.25498523  1
  O  O137  1  0.58057236  0.47247248  0.25483674  1
  O  O138  1  0.15034774  0.45903276  0.75437353  1
  O  O139  1  0.64909698  0.46226785  0.75560183  1
  O  O140  1  0.07738189  0.68344588  0.75471235  1
  O  O141  1  0.57644579  0.68460478  0.75505608  1
  O  O142  1  0.25827622  0.82259862  0.75191116  1
  O  O143  1  0.75535227  0.82276187  0.75457577  1
loop_
_geom_bond_atom_site_label_1
_geom_bond_atom_site_label_2
_geom_bond_distance
_geom_bond_site_symmetry_2
Na0 O135 2.288999 1_555
Na0 O105 2.329141 1_565
Na0 O107 2.369415 1_565
Na0 O133 2.523427 1_555
Na0 O33 2.605050 1_565
Na0 O19 2.640588 1_555
Na0 O63 2.691410 1_555
Na0 O5 2.891053 1_565
Na1 O103 2.279051 1_555
Na1 O132 2.356786 1_655
Na1 O136 2.463759 1_655
Na1 O105 2.512393 1_555
Na1 O60 2.591507 1_655
Na1 O3 2.690409 1_555
Na1 O31 2.714258 1_555
Na1 O22 2.838001 1_655
Na2 O142 2.236977 1_555
Na2 O100 2.324060 1_555
Na2 O98 2.462105 1_555
Na2 O138 2.500411 1_555
Na2 O70 2.658639 1_555
Na2 O12 2.676019 1_555
Na2 O28 2.699719 1_555
Na2 O8 2.802178 1_555
Na3 O143 2.311324 1_555
Na3 O101 2.327581 1_555
Na3 O99 2.453850 1_555
Na3 O139 2.507425 1_555
Na3 O29 2.558962 1_555
Na3 O13 2.653438 1_555
Na3 O71 2.699635 1_555
Na3 O9 2.908721 1_555
Na4 O97 2.305646 1_555
Na4 O138 2.357120 1_655
Na4 O140 2.415313 1_655
Na4 O101 2.527722 1_555
Na4 O25 2.617384 1_555
Na4 O66 2.652763 1_655
Na4 O11 2.694639 1_555
Na4 O14 2.902468 1_655
Na5 O97 2.344961 1_555
Na5 O143 2.349775 1_545
Na5 O99 2.419459 1_555
Na5 O141 2.441544 1_545
Na5 O27 2.549485 1_555
Na5 O69 2.633404 1_545
Na5 O17 2.819922 1_545
Na5 O7 2.828617 1_555
Na6 O89 2.478146 1_555
Na6 O72 2.479778 1_655
Na6 O76 2.517943 1_665
Na6 O85 2.524177 1_565
Na6 O75 2.532944 1_555
Na6 O86 2.588841 1_665
Na7 O77 2.451320 1_555
Na7 O74 2.476044 1_545
Na7 O73 2.534762 1_545
Na7 O87 2.553873 1_555
Na7 O84 2.591662 1_555
Na7 O88 2.594226 1_545
Na8 O93 2.469418 1_455
Na8 O78 2.494246 1_554
Na8 O80 2.495299 1_544
Na8 O91 2.501178 1_445
Na8 O83 2.517485 1_444
Na8 O94 2.526906 1_555
Na9 O79 2.493587 1_554
Na9 O95 2.511506 1_555
Na9 O90 2.513305 1_545
Na9 O82 2.513418 1_544
Na9 O92 2.516694 1_555
Na9 O81 2.517830 1_544
Na10 O96 2.406928 1_555
Na10 O112 2.498393 1_555
Na10 O110 2.500653 1_555
Na10 O108 2.675642 1_555
Na10 O100 2.686040 1_555
Na10 O98 2.689419 1_555
Na11 O97 2.445984 1_555
Na11 O113 2.474689 1_555
Na11 O111 2.490619 1_555
Na11 O109 2.573650 1_555
Na11 O101 2.643849 1_555
Na11 O99 2.654354 1_555
Na12 O104 2.528353 1_555
Na12 O102 2.540064 1_555
Na12 O106 2.546162 1_555
Na12 O118 2.548453 1_555
Na12 O116 2.567661 1_555
Na12 O114 2.589046 1_555
Na13 O117 2.394712 1_555
Na13 O103 2.398762 1_555
Na13 O119 2.517273 1_555
Na13 O115 2.546397 1_555
Na13 O107 2.646748 1_555
Na13 O105 2.720812 1_555
Na14 O134 2.433182 1_555
Na14 O124 2.493717 1_555
Na14 O120 2.532221 1_555
Na14 O136 2.558480 1_555
Na14 O132 2.602904 1_555
Na14 O122 2.626318 1_555
Na15 O137 2.460877 1_555
Na15 O135 2.468634 1_555
Na15 O121 2.539468 1_555
Na15 O133 2.576535 1_555
Na15 O123 2.581017 1_555
Na15 O125 2.593685 1_555
Na16 O142 2.386362 1_555
Na16 O126 2.443847 1_555
Na16 O128 2.531563 1_555
Na16 O140 2.580742 1_555
Na16 O130 2.581499 1_555
Na16 O138 2.695941 1_555
Na17 O129 2.442701 1_555
Na17 O127 2.472529 1_555
Na17 O143 2.501153 1_555
Na17 O131 2.533085 1_555
Na17 O139 2.627633 1_555
Na17 O141 2.628518 1_555
Ga0 O3 1.821669 1_555
Ga0 O72 1.996039 1_655
Ga0 O0 2.007207 1_665
Ga0 O75 2.029030 1_555
Ga0 O5 2.034957 1_565
Ga0 O76 2.097330 1_665
Ga1 O11 1.827974 1_555
Ga1 O9 2.029785 1_545
Ga1 O6 2.041336 1_655
Ga1 O78 2.051727 1_655
Ga1 O83 2.060564 1_545
Ga1 O80 2.072144 1_645
Ga2 O10 1.807598 1_555
Ga2 O7 2.009435 1_555
Ga2 O79 2.027187 1_555
Ga2 O82 2.041340 1_545
Ga2 O8 2.124539 1_545
Ga2 O81 2.139394 1_545
Ga3 O13 1.821029 1_555
Ga3 O89 1.988418 1_555
Ga3 O85 2.003880 1_565
Ga3 O16 2.033803 1_655
Ga3 O14 2.050886 1_665
Ga3 O86 2.092349 1_665
Ga4 O12 1.808677 1_555
Ga4 O87 1.995486 1_565
Ga4 O15 2.030528 1_565
Ga4 O17 2.039331 1_555
Ga4 O84 2.056273 1_565
Ga4 O88 2.082494 1_555
Ga5 O19 1.834123 1_555
Ga5 O20 2.012332 1_665
Ga5 O22 2.017431 1_655
Ga5 O93 2.070099 1_565
Ga5 O94 2.079309 1_665
Ga5 O91 2.080270 1_555
Ga6 O18 1.930918 1_545
Ga6 O21 1.976442 1_555
Ga6 O23 1.980243 1_545
Ga6 O95 2.042278 1_555
Ga6 O92 2.053227 1_555
Ga6 O90 2.082787 1_545
Ga7 O96 1.827056 1_555
Ga7 O26 1.930402 1_555
Ga7 O24 1.934703 1_555
Ga7 O28 2.059749 1_555
Ga7 O98 2.112450 1_555
Ga7 O100 2.162190 1_555
Ga8 O114 1.970251 1_555
Ga8 O44 1.981901 1_555
Ga8 O46 2.000478 1_555
Ga8 O42 2.007167 1_555
Ga8 O116 2.012021 1_555
Ga8 O118 2.028968 1_555
Ga9 O48 1.979586 1_554
Ga9 O50 1.982187 1_554
Ga9 O122 2.002428 1_555
Ga9 O52 2.008680 1_554
Ga9 O120 2.043313 1_555
Ga9 O124 2.043592 1_555
Ga10 O51 1.976056 1_554
Ga10 O49 1.996055 1_554
Ga10 O53 2.002273 1_554
Ga10 O123 2.004161 1_555
Ga10 O121 2.026596 1_555
Ga10 O125 2.051417 1_555
Ga11 O135 1.880582 1_555
Ga11 O65 1.917510 1_555
Ga11 O61 2.024893 1_555
Ga11 O137 2.050543 1_555
Ga11 O63 2.075362 1_555
Ga11 O133 2.153795 1_555
O0 S0 1.486267 1_555
O1 S1 1.451608 1_545
O1 Zn0 2.033951 1_545
O2 S2 1.464026 1_555
O2 Zn0 2.035387 1_555
O3 Si0 1.624269 1_555
O4 S4 1.457704 1_555
O4 Zn0 2.026083 1_545
O5 S3 1.485188 1_655
O6 S5 1.484333 1_555
O7 S6 1.499868 1_555
O8 S8 1.491764 1_555
O9 S7 1.491963 1_655
O10 Si1 1.627937 1_555
O11 Si2 1.640240 1_555
O12 Si1 1.638746 1_565
O13 Si2 1.626871 1_565
O14 S5 1.480081 1_555
O15 S6 1.478683 1_555
O16 S7 1.481734 1_555
O17 S8 1.492192 1_555
O18 S2 1.513658 1_555
O19 Si0 1.648388 1_555
O20 S3 1.487373 1_555
O21 S4 1.509678 1_555
O22 S0 1.503607 1_565
O23 S1 1.500009 1_555
O24 S9 1.494582 1_555
O25 S10 1.491269 1_555
O25 Zn1 2.009424 1_555
O26 S11 1.493909 1_555
O27 S12 1.491642 1_555
O27 Zn1 2.017503 1_555
O28 S13 1.509367 1_555
O29 S14 1.495832 1_555
O29 Zn1 2.074946 1_555
O30 S15 1.467970 1_555
O30 Zn2 2.049090 1_555
O31 S16 1.480586 1_555
O31 Zn3 2.113093 1_555
O32 S17 1.467671 1_555
O32 Zn2 2.094195 1_555
O33 S18 1.482360 1_555
O33 Zn3 2.208926 1_555
O34 S19 1.469223 1_555
O34 Zn2 2.075832 1_555
O35 S20 1.467996 1_555
O35 Zn3 2.003218 1_555
O36 S19 1.472168 1_555
O36 Zn4 2.055463 1_554
O37 S20 1.466099 1_555
O37 Zn5 2.064667 1_554
O38 S15 1.471090 1_555
O38 Zn4 2.071860 1_554
O39 S16 1.466995 1_555
O39 Zn5 2.063511 1_554
O40 S17 1.472746 1_555
O40 Zn4 2.048762 1_554
O41 S18 1.467827 1_555
O41 Zn5 2.015835 1_554
O42 S11 1.488445 1_555
O43 S12 1.464974 1_555
O43 Zn6 2.084559 1_555
O44 S13 1.490510 1_555
O45 S14 1.463041 1_555
O45 Zn6 2.051330 1_555
O46 S9 1.489299 1_555
O47 S10 1.465567 1_555
O47 Zn6 2.092541 1_555
O48 S21 1.498053 1_555
O49 S22 1.495945 1_555
O50 S23 1.495922 1_555
O51 S24 1.499038 1_555
O52 S25 1.500521 1_555
O53 S26 1.498898 1_555
O54 S27 1.472332 1_555
O54 Zn7 2.009322 1_555
O55 S28 1.464760 1_555
O55 Zn8 2.018369 1_555
O56 S29 1.467318 1_555
O56 Zn7 2.060793 1_555
O57 S30 1.470714 1_555
O57 Zn8 2.019834 1_555
O58 S31 1.469100 1_555
O58 Zn7 2.018064 1_555
O59 S32 1.464005 1_555
O59 Zn8 2.041315 1_555
O60 S31 1.492980 1_555
O60 Zn9 2.092777 1_555
O61 S32 1.501410 1_555
O62 S27 1.478884 1_555
O62 Zn9 2.008437 1_555
O63 S28 1.506549 1_555
O64 S29 1.475722 1_555
O64 Zn9 2.029411 1_555
O65 S30 1.507770 1_555
O66 S23 1.480003 1_555
O66 Zn10 2.139084 1_555
O67 S24 1.466842 1_555
O67 Zn11 2.015779 1_555
O68 S25 1.462647 1_555
O68 Zn10 1.964797 1_555
O69 S26 1.478116 1_555
O69 Zn11 2.042512 1_555
O70 S21 1.475830 1_555
O70 Zn10 2.065691 1_555
O71 S22 1.477600 1_555
O71 Zn11 2.053776 1_555
O72 S31 1.513760 1_555
O73 S32 1.475092 1_555
O73 Zn0 2.110857 1_555
O74 S27 1.474528 1_555
O74 Zn0 2.092536 1_555
O75 S28 1.506801 1_555
O76 S29 1.499493 1_555
O77 S30 1.480102 1_555
O77 Zn0 2.101023 1_545
O78 S23 1.509851 1_555
O79 S24 1.513216 1_555
O80 S25 1.512178 1_555
O81 S26 1.505454 1_555
O82 S21 1.508351 1_555
O83 S22 1.503637 1_555
O84 S9 1.498184 1_555
O85 S10 1.514414 1_555
O86 S11 1.495570 1_555
O87 S12 1.522798 1_555
O88 S13 1.495065 1_555
O89 S14 1.520898 1_555
O90 S15 1.504596 1_555
O91 S16 1.500963 1_555
O92 S17 1.508772 1_555
O93 S18 1.501146 1_555
O94 S19 1.504851 1_555
O95 S20 1.506459 1_555
O96 Si1 1.638763 1_555
O97 Si2 1.643955 1_555
O97 Zn1 2.020847 1_555
O98 S5 1.492329 1_555
O99 S6 1.498122 1_555
O99 Zn1 2.248972 1_555
O100 S8 1.493631 1_555
O101 S7 1.499306 1_655
O101 Zn1 2.275495 1_555
O102 S2 1.480959 1_555
O102 Zn2 2.104711 1_555
O103 Si0 1.620086 1_555
O103 Zn3 1.947254 1_555
O104 S4 1.477192 1_555
O104 Zn2 2.108202 1_555
O105 S3 1.497216 1_655
O105 Zn3 2.296699 1_555
O106 S0 1.468149 1_555
O106 Zn2 2.111434 1_555
O107 S1 1.489467 1_545
O107 Zn3 2.132521 1_555
O108 S21 1.473830 1_555
O108 Zn4 2.110563 1_555
O109 S22 1.477060 1_555
O109 Zn5 2.098250 1_555
O110 S24 1.475551 1_555
O110 Zn4 2.139978 1_555
O111 S23 1.477393 1_655
O111 Zn5 2.149909 1_555
O112 S25 1.476025 1_545
O112 Zn4 2.136896 1_555
O113 S26 1.476973 1_545
O113 Zn5 2.144077 1_555
O114 S27 1.520525 1_545
O115 S28 1.480183 1_545
O115 Zn6 2.141644 1_555
O116 S29 1.518105 1_555
O117 S30 1.485006 1_555
O117 Zn6 2.109100 1_555
O118 S32 1.521179 1_555
O119 S31 1.478192 1_655
O119 Zn6 2.111888 1_555
O120 S19 1.517182 1_555
O121 S20 1.510320 1_555
O122 S16 1.510807 1_455
O123 S15 1.515796 1_555
O124 S17 1.513808 1_565
O125 S18 1.514619 1_565
O126 S11 1.471788 1_565
O126 Zn7 2.204885 1_555
O127 S12 1.477663 1_565
O127 Zn8 2.140612 1_555
O128 S13 1.470723 1_555
O128 Zn7 2.231591 1_555
O129 S14 1.481639 1_555
O129 Zn8 2.132844 1_555
O130 S10 1.482554 1_455
O130 Zn7 2.056847 1_555
O131 S9 1.466660 1_555
O131 Zn8 2.142630 1_555
O132 S0 1.495899 1_565
O132 Zn9 2.214780 1_555
O133 S1 1.503772 1_555
O134 S2 1.490783 1_555
O134 Zn9 2.090962 1_555
O135 Si0 1.655193 1_555
O136 S3 1.480999 1_555
O136 Zn9 2.230972 1_555
O137 S4 1.503497 1_555
O138 S5 1.489942 1_555
O138 Zn10 2.302738 1_555
O139 S6 1.471442 1_555
O139 Zn11 2.169548 1_555
O140 S7 1.475545 1_555
O140 Zn10 2.163998 1_555
O141 S8 1.471540 1_555
O141 Zn11 2.180687 1_555
O142 Si1 1.634446 1_565
O142 Zn10 1.937091 1_555
O143 Si2 1.639903 1_565
O143 Zn11 1.987364 1_555
