# generated using pymatgen
data_VIn2O5
_symmetry_space_group_name_H-M   'P 1'
_cell_length_a   3.56929000
_cell_length_b   7.32687300
_cell_length_c   14.98459900
_cell_angle_alpha   90.00000000
_cell_angle_beta   90.00000000
_cell_angle_gamma   90.00000000
_symmetry_Int_Tables_number   1
_chemical_formula_structural   VIn2O5
_chemical_formula_sum   'V4 In8 O20'
_cell_volume   391.87325509
_cell_formula_units_Z   4
loop_
 _symmetry_equiv_pos_site_id
 _symmetry_equiv_pos_as_xyz
  1  'x, y, z'
loop_
 _atom_site_type_symbol
 _atom_site_label
 _atom_site_symmetry_multiplicity
 _atom_site_fract_x
 _atom_site_fract_y
 _atom_site_fract_z
 _atom_site_occupancy
  V  V0  1  0.24999900  0.60447300  0.07482900  1
  V  V1  1  0.75000100  0.39552700  0.92517100  1
  V  V2  1  0.24999900  0.10447400  0.42517000  1
  V  V3  1  0.75000100  0.89552700  0.57482900  1
  In  In0  1  0.24999900  0.60355900  0.41819600  1
  In  In1  1  0.75000100  0.89644000  0.91819600  1
  In  In2  1  0.24999900  0.10355900  0.08180400  1
  In  In3  1  0.75000100  0.39644100  0.58180400  1
  In  In4  1  0.24999900  0.67420500  0.76064600  1
  In  In5  1  0.75000100  0.32579600  0.23935300  1
  In  In6  1  0.24999900  0.17420400  0.73935300  1
  In  In7  1  0.75000100  0.82579600  0.26064600  1
  O  O0  1  0.24999900  0.43526200  0.95865200  1
  O  O1  1  0.75000100  0.56473700  0.04134800  1
  O  O2  1  0.24999900  0.93526300  0.54134800  1
  O  O3  1  0.75000100  0.06473800  0.45865200  1
  O  O4  1  0.24999900  0.73257700  0.17628200  1
  O  O5  1  0.75000100  0.26742300  0.82371800  1
  O  O6  1  0.24999900  0.23257700  0.32371800  1
  O  O7  1  0.75000100  0.76742200  0.67628200  1
  O  O8  1  0.24999900  0.36952600  0.15148700  1
  O  O9  1  0.75000100  0.63047500  0.84851400  1
  O  O10  1  0.24999900  0.86952600  0.34851300  1
  O  O11  1  0.75000100  0.13047500  0.65148700  1
  O  O12  1  0.75000100  0.05847100  0.17574400  1
  O  O13  1  0.24999900  0.94152900  0.82425600  1
  O  O14  1  0.75000100  0.55847100  0.32425600  1
  O  O15  1  0.24999900  0.44153000  0.67574400  1
  O  O16  1  0.24999900  0.84530000  0.00453700  1
  O  O17  1  0.24999900  0.34530000  0.49546300  1
  O  O18  1  0.75000100  0.15470000  0.99546300  1
  O  O19  1  0.75000100  0.65470100  0.50453600  1
loop_
_geom_bond_atom_site_label_1
_geom_bond_atom_site_label_2
_geom_bond_distance
_geom_bond_site_symmetry_2
In0 O10 2.210826 1_555
In0 O17 2.218349 1_555
In0 O19 2.235885 1_455
In0 O19 2.235896 1_555
In0 O14 2.296857 1_455
In0 O14 2.296868 1_555
In1 O9 2.210806 1_555
In1 O18 2.218355 1_565
In1 O16 2.235891 1_656
In1 O16 2.235903 1_556
In1 O13 2.296858 1_655
In1 O13 2.296870 1_555
In2 O8 2.210826 1_555
In2 O16 2.218349 1_545
In2 O18 2.235893 1_454
In2 O18 2.235904 1_554
In2 O12 2.296857 1_455
In2 O12 2.296868 1_555
In3 O11 2.210820 1_555
In3 O19 2.218363 1_555
In3 O17 2.235893 1_655
In3 O17 2.235904 1_555
In3 O15 2.296858 1_655
In3 O15 2.296870 1_555
In4 O15 2.127164 1_555
In4 O13 2.178265 1_555
In4 O9 2.240804 1_455
In4 O9 2.240815 1_555
In4 O7 2.291181 1_455
In4 O7 2.291192 1_555
In5 O14 2.127173 1_555
In5 O12 2.178265 1_555
In5 O8 2.240786 1_655
In5 O8 2.240798 1_555
In5 O6 2.291193 1_655
In5 O6 2.291204 1_555
In6 O13 2.127173 1_545
In6 O15 2.178272 1_555
In6 O11 2.240785 1_455
In6 O11 2.240797 1_555
In6 O5 2.291193 1_455
In6 O5 2.291204 1_555
In7 O12 2.127164 1_565
In7 O14 2.178272 1_555
In7 O10 2.240795 1_655
In7 O10 2.240807 1_555
In7 O4 2.291185 1_655
In7 O4 2.291196 1_555
O0 V1 1.876538 1_455
O0 V1 1.876551 1_555
O0 V0 2.137215 1_556
O1 V0 1.876539 1_655
O1 V0 1.876552 1_555
O1 V1 2.137210 1_554
O2 V3 1.876539 1_455
O2 V3 1.876552 1_555
O2 V2 2.137227 1_565
O3 V2 1.876543 1_655
O3 V2 1.876556 1_555
O3 V3 2.137215 1_545
O4 V0 1.786639 1_555
O5 V1 1.786639 1_555
O6 V2 1.786623 1_555
O7 V3 1.786643 1_555
O8 V0 2.069492 1_555
O9 V1 2.069490 1_555
O10 V2 2.069490 1_565
O11 V3 2.069498 1_545
O16 V0 2.054976 1_555
O17 V2 2.054978 1_555
O18 V1 2.054976 1_555
O19 V3 2.054978 1_555
