# generated using pymatgen
data_Na8Ta2Zn2Si5SO24
_symmetry_space_group_name_H-M   'P 1'
_cell_length_a   9.16990144
_cell_length_b   9.16496957
_cell_length_c   22.30303113
_cell_angle_alpha   90.24452065
_cell_angle_beta   89.82750897
_cell_angle_gamma   120.20745168
_symmetry_Int_Tables_number   1
_chemical_formula_structural   Na8Ta2Zn2Si5SO24
_chemical_formula_sum   'Na24 Ta6 Zn6 Si15 S3 O72'
_cell_volume   1619.84845783
_cell_formula_units_Z   3
loop_
 _symmetry_equiv_pos_site_id
 _symmetry_equiv_pos_as_xyz
  1  'x, y, z'
loop_
 _atom_site_type_symbol
 _atom_site_label
 _atom_site_symmetry_multiplicity
 _atom_site_fract_x
 _atom_site_fract_y
 _atom_site_fract_z
 _atom_site_occupancy
  Na  Na0  1  0.64204306  0.02556660  0.24500028  1
  Na  Na1  1  0.37296785  0.35116422  0.24988629  1
  Na  Na2  1  0.98191817  0.62116966  0.24444776  1
  Na  Na3  1  0.62324098  0.64033411  0.76043738  1
  Na  Na4  1  0.01395201  0.37620778  0.75997319  1
  Na  Na5  1  0.36043071  0.98413448  0.75583699  1
  Na  Na6  1  0.29531541  0.35090798  0.57981010  1
  Na  Na7  1  0.05004621  0.69954186  0.58443209  1
  Na  Na8  1  0.64797512  0.94668991  0.57939081  1
  Na  Na9  1  0.31122469  0.95421316  0.08348215  1
  Na  Na10  1  0.65656126  0.70308929  0.07222287  1
  Na  Na11  1  0.03494162  0.35065850  0.07637385  1
  Na  Na12  1  0.97679233  0.68253931  0.90360925  1
  Na  Na13  1  0.71673187  0.01968248  0.91014937  1
  Na  Na14  1  0.32080320  0.30705897  0.90598498  1
  Na  Na15  1  0.97404507  0.28049898  0.41204256  1
  Na  Na16  1  0.32060336  0.03364429  0.40685226  1
  Na  Na17  1  0.70386383  0.68484366  0.41200507  1
  Na  Na18  1  0.99916959  0.01074371  0.49491763  1
  Na  Na19  1  0.98811329  0.99875466  0.99026541  1
  Na  Na20  1  0.67022353  0.34085978  0.83126502  1
  Na  Na21  1  0.66358091  0.32978508  0.32297337  1
  Na  Na22  1  0.33077383  0.67707544  0.15860269  1
  Na  Na23  1  0.33289047  0.66546085  0.66996175  1
  Ta  Ta0  1  0.99763625  0.99909278  0.64749112  1
  Ta  Ta1  1  0.99097536  0.99441977  0.15023666  1
  Ta  Ta2  1  0.66775258  0.33438651  0.68725190  1
  Ta  Ta3  1  0.68756805  0.34461637  0.98084874  1
  Ta  Ta4  1  0.65662612  0.32506323  0.48068453  1
  Ta  Ta5  1  0.34722835  0.67129395  0.31090899  1
  Zn  Zn0  1  0.99968724  0.00952070  0.34559077  1
  Zn  Zn1  1  0.98887243  0.00174791  0.84440146  1
  Zn  Zn2  1  0.67940231  0.33028540  0.18533556  1
  Zn  Zn3  1  0.33645319  0.66769990  0.01081508  1
  Zn  Zn4  1  0.34600535  0.66323115  0.52184281  1
  Zn  Zn5  1  0.32905338  0.64405049  0.81291326  1
  Si  Si0  1  0.29052563  0.99870218  0.25321012  1
  Si  Si1  1  0.70953859  0.70397548  0.25432162  1
  Si  Si2  1  0.00184768  0.29631221  0.25299405  1
  Si  Si3  1  0.29219823  0.28798503  0.75159468  1
  Si  Si4  1  0.00052099  0.70879707  0.75145399  1
  Si  Si5  1  0.70443804  0.00131823  0.75117312  1
  Si  Si6  1  0.95693810  0.33175613  0.58252905  1
  Si  Si7  1  0.36932581  0.03903478  0.58444605  1
  Si  Si8  1  0.67120504  0.62605594  0.58322119  1
  Si  Si9  1  0.96699402  0.63355332  0.08749616  1
  Si  Si10  1  0.66381229  0.03687230  0.08650144  1
  Si  Si11  1  0.62677089  0.66553760  0.91796004  1
  Si  Si12  1  0.04784522  0.37490319  0.91763967  1
  Si  Si13  1  0.62773910  0.95992389  0.42032848  1
  Si  Si14  1  0.33222362  0.37335170  0.41994201  1
  S  S0  1  0.37252700  0.32708871  0.08564702  1
  S  S1  1  0.33952865  0.96835853  0.91915857  1
  S  S2  1  0.04115393  0.66100983  0.41833513  1
  O  O0  1  0.20788988  0.02412367  0.31247792  1
  O  O1  1  0.82096552  0.78370368  0.31284279  1
  O  O2  1  0.96840236  0.18627513  0.31187519  1
  O  O3  1  0.22187224  0.17018741  0.80998856  1
  O  O4  1  0.95506372  0.78176940  0.80963941  1
  O  O5  1  0.82176997  0.05403394  0.80968678  1
  O  O6  1  0.80767504  0.97962299  0.69167364  1
  O  O7  1  0.16965308  0.18549004  0.69182184  1
  O  O8  1  0.01701740  0.82876394  0.69118698  1
  O  O9  1  0.80167238  0.83549892  0.19474428  1
  O  O10  1  0.03590559  0.20025126  0.19335359  1
  O  O11  1  0.16246877  0.96811675  0.19319950  1
  O  O12  1  0.85469067  0.35048826  0.63977661  1
  O  O13  1  0.49488346  0.14184691  0.64017254  1
  O  O14  1  0.65190344  0.50364999  0.63962408  1
  O  O15  1  0.87812876  0.52137921  0.14499474  1
  O  O16  1  0.63052638  0.11713666  0.14500300  1
  O  O17  1  0.47029739  0.34766604  0.13953889  1
  O  O18  1  0.45556078  0.30412972  0.03090787  1
  O  O19  1  0.83711152  0.53417457  0.02804400  1
  O  O20  1  0.69141936  0.16594139  0.02812844  1
  O  O21  1  0.46683799  0.16714938  0.52490631  1
  O  O22  1  0.70019896  0.53024847  0.52380226  1
  O  O23  1  0.82984396  0.30233249  0.52370394  1
  O  O24  1  0.54760758  0.69616561  0.97853149  1
  O  O25  1  0.14668243  0.45706293  0.97973067  1
  O  O26  1  0.31801799  0.86906396  0.97400061  1
  O  O27  1  0.53878107  0.85168111  0.47883549  1
  O  O28  1  0.29852919  0.45472446  0.47803264  1
  O  O29  1  0.13860796  0.68213305  0.47226536  1
  O  O30  1  0.12484786  0.63815449  0.36325023  1
  O  O31  1  0.49861872  0.86440452  0.36024148  1
  O  O32  1  0.36225689  0.50312947  0.36020295  1
  O  O33  1  0.11047259  0.49531877  0.85897080  1
  O  O34  1  0.37304731  0.89864516  0.86519520  1
  O  O35  1  0.50962900  0.61848883  0.85845989  1
  O  O36  1  0.01500792  0.80610804  0.41274291  1
  O  O37  1  0.81361407  0.98260134  0.41415300  1
  O  O38  1  0.17761517  0.18187366  0.41356042  1
  O  O39  1  0.01965874  0.18527407  0.91423303  1
  O  O40  1  0.19082055  0.98977053  0.91521820  1
  O  O41  1  0.82065453  0.82208204  0.91495741  1
  O  O42  1  0.96566554  0.15612443  0.58723965  1
  O  O43  1  0.18755049  0.03418674  0.58725932  1
  O  O44  1  0.84664609  0.81101278  0.58679475  1
  O  O45  1  0.97476476  0.82164744  0.08905247  1
  O  O46  1  0.84787005  0.03440146  0.08983926  1
  O  O47  1  0.20055639  0.16602643  0.08726215  1
  O  O48  1  0.68591308  0.17167474  0.74064494  1
  O  O49  1  0.48362350  0.31147445  0.74125756  1
  O  O50  1  0.82913741  0.51729462  0.74161583  1
  O  O51  1  0.66822846  0.51458705  0.24320286  1
  O  O52  1  0.84431769  0.32628020  0.24680171  1
  O  O53  1  0.47698149  0.15888842  0.24517812  1
  O  O54  1  0.63663147  0.48241309  0.92798929  1
  O  O55  1  0.84553358  0.34958036  0.92536063  1
  O  O56  1  0.49607407  0.14530807  0.92648480  1
  O  O57  1  0.63949449  0.15116824  0.42099667  1
  O  O58  1  0.51683115  0.37112284  0.42150398  1
  O  O59  1  0.86939351  0.49935783  0.41936252  1
  O  O60  1  0.34690186  0.47291939  0.08045201  1
  O  O61  1  0.15342392  0.66003353  0.07857746  1
  O  O62  1  0.50637749  0.84666898  0.07901975  1
  O  O63  1  0.34865866  0.85585149  0.57992127  1
  O  O64  1  0.50607136  0.64326481  0.58385105  1
  O  O65  1  0.13843419  0.49915915  0.58046896  1
  O  O66  1  0.29747994  0.81818047  0.25691100  1
  O  O67  1  0.52452534  0.70363054  0.25605551  1
  O  O68  1  0.18111301  0.48386464  0.25710171  1
  O  O69  1  0.30699814  0.47066283  0.74835372  1
  O  O70  1  0.16778651  0.69333123  0.74999751  1
  O  O71  1  0.52018644  0.83465243  0.75157209  1
loop_
_geom_bond_atom_site_label_1
_geom_bond_atom_site_label_2
_geom_bond_distance
_geom_bond_site_symmetry_2
Na0 O53 2.375915 1_555
Na0 O16 2.407495 1_555
Na0 O52 2.427598 1_555
Na0 O67 2.594772 1_545
Na0 O66 2.760891 1_545
Na0 O31 2.928266 1_545
Na0 O2 2.987103 1_555
Na0 O9 2.995451 1_545
Na1 O51 2.348401 1_555
Na1 O53 2.390655 1_555
Na1 O68 2.598037 1_555
Na1 O17 2.620955 1_555
Na1 O67 2.804516 1_555
Na1 O32 2.847791 1_555
Na1 O0 2.946437 1_555
Na1 O10 2.960202 1_555
Na2 O52 2.338477 1_555
Na2 O15 2.404526 1_555
Na2 O51 2.530225 1_555
Na2 O66 2.540433 1_655
Na2 O68 2.705325 1_655
Na2 O30 2.928276 1_655
Na2 O11 2.980026 1_655
Na2 O1 2.983887 1_555
Na3 O35 2.384335 1_555
Na3 O71 2.408619 1_555
Na3 O69 2.522634 1_555
Na3 O49 2.648698 1_555
Na3 O50 2.673226 1_555
Na3 O4 2.860423 1_555
Na4 O69 2.386319 1_555
Na4 O33 2.422610 1_555
Na4 O70 2.522845 1_555
Na4 O50 2.631644 1_455
Na4 O48 2.659908 1_455
Na4 O5 2.798854 1_455
Na5 O70 2.345562 1_555
Na5 O71 2.459593 1_555
Na5 O34 2.585596 1_555
Na5 O48 2.610346 1_565
Na5 O49 2.641602 1_565
Na5 O3 2.851996 1_565
Na5 O13 2.912637 1_565
Na6 O64 2.389716 1_555
Na6 O65 2.425373 1_555
Na6 O28 2.459399 1_555
Na6 O43 2.558656 1_555
Na6 O42 2.630846 1_455
Na6 O7 2.850321 1_555
Na7 O65 2.352336 1_555
Na7 O63 2.369101 1_555
Na7 O44 2.538051 1_455
Na7 O29 2.656691 1_555
Na7 O43 2.666046 1_565
Na7 O8 2.737851 1_555
Na8 O64 2.407642 1_555
Na8 O27 2.431043 1_555
Na8 O63 2.434576 1_555
Na8 O42 2.564189 1_565
Na8 O44 2.678721 1_555
Na8 O6 2.842142 1_555
Na9 O61 2.334022 1_555
Na9 O62 2.440653 1_555
Na9 O26 2.570383 1_554
Na9 O47 2.604979 1_565
Na9 O45 2.690286 1_455
Na9 O11 2.831439 1_555
Na9 O16 2.879681 1_565
Na10 O24 2.305709 1_554
Na10 O62 2.339187 1_555
Na10 O60 2.553295 1_555
Na10 O45 2.578445 1_555
Na10 O46 2.661913 1_565
Na10 O19 2.943614 1_555
Na10 O9 3.013151 1_555
Na11 O25 2.376124 1_554
Na11 O61 2.474195 1_555
Na11 O60 2.494461 1_555
Na11 O46 2.536758 1_455
Na11 O47 2.796487 1_555
Na12 O4 2.336736 1_555
Na12 O41 2.363734 1_555
Na12 O40 2.506668 1_655
Na12 O55 2.703561 1_555
Na12 O33 2.744571 1_655
Na12 O54 2.762379 1_555
Na13 O5 2.394810 1_555
Na13 O39 2.405405 1_655
Na13 O41 2.436854 1_545
Na13 O55 2.655540 1_555
Na13 O56 2.808697 1_555
Na13 O34 2.942734 1_545
Na13 O24 2.986596 1_545
Na13 O20 3.008937 1_556
Na14 O39 2.408836 1_555
Na14 O3 2.413326 1_555
Na14 O40 2.536745 1_545
Na14 O54 2.555274 1_555
Na14 O35 2.703702 1_555
Na14 O56 2.719846 1_555
Na15 O37 2.362110 1_545
Na15 O2 2.382980 1_555
Na15 O38 2.449765 1_655
Na15 O59 2.627575 1_555
Na15 O57 2.682438 1_555
Na15 O23 2.869277 1_555
Na16 O38 2.318767 1_555
Na16 O0 2.329590 1_555
Na16 O36 2.517641 1_545
Na16 O57 2.577571 1_555
Na16 O58 2.702903 1_555
Na16 O21 2.927544 1_555
Na16 O31 2.945342 1_545
Na17 O37 2.387010 1_555
Na17 O1 2.426734 1_555
Na17 O36 2.487021 1_655
Na17 O58 2.508833 1_555
Na17 O59 2.796648 1_555
Na18 O37 2.404009 1_545
Na18 O38 2.419468 1_655
Na18 O42 2.548358 1_555
Na18 O43 2.629810 1_655
Na18 O44 2.635233 1_545
Na18 O36 2.672195 1_645
Na19 O41 2.300258 1_555
Na19 O39 2.325007 1_665
Na19 O40 2.529344 1_655
Na19 O46 2.663063 1_566
Na19 O45 2.707949 1_556
Na19 O47 2.795902 1_666
Na20 O50 2.524873 1_555
Na20 O49 2.565653 1_555
Na20 O48 2.589560 1_555
Na20 O54 2.608812 1_555
Na20 O55 2.623828 1_555
Na20 O56 2.721102 1_555
Na21 O52 2.381192 1_555
Na21 O53 2.385239 1_555
Na21 O51 2.447113 1_555
Na21 O57 2.678052 1_555
Na21 O58 2.696598 1_555
Na21 O59 2.764619 1_555
Na22 O61 2.369433 1_555
Na22 O62 2.376358 1_555
Na22 O60 2.609584 1_555
Na22 O66 2.634782 1_555
Na22 O68 2.723005 1_555
Na22 O67 2.742905 1_555
Na23 O69 2.428613 1_555
Na23 O70 2.431614 1_555
Na23 O71 2.445824 1_555
Na23 O64 2.560293 1_555
Na23 O65 2.597529 1_555
Na23 O63 2.621586 1_555
O0 Si0 1.595234 1_545
O0 Zn0 1.985847 1_455
O1 Si1 1.590627 1_555
O1 Zn0 2.020853 1_565
O2 Si2 1.591641 1_655
O2 Zn0 1.936831 1_555
O3 Si3 1.607463 1_555
O3 Zn1 2.053887 1_455
O4 Si4 1.604664 1_655
O4 Zn1 2.030025 1_565
O5 Si5 1.604412 1_555
O5 Zn1 1.981480 1_555
O6 Si5 1.695966 1_565
O6 Ta0 1.927578 1_555
O7 Si3 1.690708 1_555
O7 Ta0 1.915061 1_445
O8 Si4 1.697792 1_555
O8 Ta0 1.926510 1_455
O9 Si1 1.707196 1_555
O9 Ta1 1.891528 1_555
O10 Si2 1.704742 1_555
O10 Ta1 1.964169 1_445
O11 Si0 1.709936 1_555
O11 Ta1 1.960046 1_455
O12 Si6 1.640629 1_555
O12 Ta2 1.953784 1_555
O13 Si7 1.632528 1_555
O13 Ta2 1.977034 1_555
O14 Si8 1.638054 1_555
O14 Ta2 1.948811 1_555
O15 Si9 1.589797 1_555
O15 Zn2 1.997408 1_555
O16 Si10 1.597515 1_555
O16 Zn2 1.983083 1_555
O17 S0 1.455494 1_555
O17 Zn2 2.250749 1_555
O18 S0 1.505963 1_555
O18 Ta3 2.259479 1_554
O19 Si9 1.707008 1_555
O19 Ta3 1.898005 1_554
O20 Si10 1.693555 1_555
O20 Ta3 1.966699 1_554
O21 Si7 1.700368 1_555
O21 Ta4 1.887711 1_555
O22 Si8 1.679517 1_555
O22 Ta4 1.962541 1_555
O23 Si6 1.685881 1_555
O23 Ta4 1.957246 1_555
O24 Si11 1.620698 1_555
O24 Zn3 1.954613 1_556
O25 Si12 1.618045 1_555
O25 Zn3 1.962403 1_556
O26 S1 1.480056 1_555
O26 Zn3 2.106252 1_556
O27 Si13 1.594559 1_555
O27 Zn4 1.989881 1_555
O28 Si14 1.597322 1_555
O28 Zn4 1.986325 1_555
O29 S2 1.453692 1_555
O29 Zn4 2.283716 1_555
O30 S2 1.515300 1_555
O30 Ta5 2.231328 1_555
O31 Si13 1.709015 1_555
O31 Ta5 1.946887 1_555
O32 Si14 1.716808 1_555
O32 Ta5 1.957588 1_555
O33 Si12 1.621712 1_555
O33 Zn5 2.044752 1_555
O34 S1 1.462886 1_555
O34 Zn5 2.449354 1_555
O35 Si11 1.624323 1_555
O35 Zn5 2.056982 1_555
O36 S2 1.471016 1_555
O36 Zn0 2.454992 1_465
O37 Si13 1.615455 1_555
O37 Zn0 2.207811 1_565
O38 Si14 1.614127 1_555
O38 Zn0 2.203704 1_455
O39 Si12 1.624810 1_555
O39 Zn1 2.199317 1_455
O40 S1 1.475090 1_555
O40 Zn1 2.481857 1_465
O41 Si11 1.630080 1_555
O41 Zn1 2.240240 1_565
O42 Si6 1.655164 1_555
O42 Ta0 2.099151 1_545
O43 Si7 1.645967 1_555
O43 Ta0 2.089692 1_445
O44 Si8 1.650278 1_555
O44 Ta0 2.076208 1_555
O45 Si9 1.689358 1_555
O45 Ta1 2.034074 1_555
O46 Si10 1.701154 1_555
O46 Ta1 2.041949 1_545
O47 S0 1.524723 1_555
O47 Ta1 2.258496 1_445
O48 Si5 1.670911 1_555
O48 Ta2 1.983902 1_555
O49 Si3 1.672867 1_555
O49 Ta2 1.994713 1_555
O50 Si4 1.679770 1_655
O50 Ta2 1.991838 1_555
O51 Si1 1.597824 1_555
O51 Zn2 2.164270 1_555
O52 Si2 1.606845 1_655
O52 Zn2 2.058241 1_555
O53 Si0 1.607890 1_545
O53 Zn2 2.182486 1_555
O54 Si11 1.740987 1_555
O54 Ta3 1.952577 1_555
O55 Si12 1.757944 1_655
O55 Ta3 1.885528 1_555
O56 S1 1.540766 1_545
O56 Ta3 2.157891 1_555
O57 Si13 1.701068 1_545
O57 Ta4 2.016942 1_555
O58 Si14 1.703664 1_555
O58 Ta4 2.030542 1_555
O59 S2 1.525836 1_655
O59 Ta4 2.257269 1_555
O60 S0 1.473932 1_555
O60 Zn3 2.409317 1_555
O61 Si9 1.613035 1_455
O61 Zn3 2.229988 1_555
O62 Si10 1.617830 1_565
O62 Zn3 2.203060 1_555
O63 Si7 1.594743 1_565
O63 Zn4 2.175409 1_555
O64 Si8 1.599447 1_555
O64 Zn4 2.094077 1_555
O65 Si6 1.598942 1_455
O65 Zn4 2.171512 1_555
O66 Si0 1.689833 1_555
O66 Ta5 2.026300 1_555
O67 Si1 1.695290 1_555
O67 Ta5 1.932362 1_555
O68 Si2 1.679737 1_555
O68 Ta5 2.017833 1_555
O69 Si3 1.612155 1_555
O69 Zn5 2.073205 1_555
O70 Si4 1.610014 1_555
O70 Zn5 2.247187 1_555
O71 Si5 1.609659 1_565
O71 Zn5 2.218145 1_555
