# generated using pymatgen
data_MgAl2(CuO3)2
_symmetry_space_group_name_H-M   'P 1'
_cell_length_a   3.06672700
_cell_length_b   3.06672633
_cell_length_c   14.78365900
_cell_angle_alpha   90.00000000
_cell_angle_beta   90.00000000
_cell_angle_gamma   119.99999647
_symmetry_Int_Tables_number   1
_chemical_formula_structural   MgAl2(CuO3)2
_chemical_formula_sum   'Mg1 Al2 Cu2 O6'
_cell_volume   120.41004591
_cell_formula_units_Z   1
loop_
 _symmetry_equiv_pos_site_id
 _symmetry_equiv_pos_as_xyz
  1  'x, y, z'
loop_
 _atom_site_type_symbol
 _atom_site_label
 _atom_site_symmetry_multiplicity
 _atom_site_fract_x
 _atom_site_fract_y
 _atom_site_fract_z
 _atom_site_occupancy
  Mg  Mg0  1  0.00000000  0.00000000  0.62248800  1
  Al  Al0  1  0.00000000  0.00000000  0.39559700  1
  Al  Al1  1  0.00000000  0.00000000  0.01256700  1
  Cu  Cu0  1  0.66666500  0.33333200  0.81440800  1
  Cu  Cu1  1  0.33333400  0.66666800  0.20934600  1
  O  O0  1  0.33333400  0.66666800  0.41675500  1
  O  O1  1  0.66666500  0.33333200  0.95032300  1
  O  O2  1  0.66666500  0.33333200  0.57902500  1
  O  O3  1  0.33333400  0.66666800  0.07633500  1
  O  O4  1  0.00000000  0.00000000  0.27279900  1
  O  O5  1  0.00000000  0.00000000  0.76345100  1
loop_
_geom_bond_atom_site_label_1
_geom_bond_atom_site_label_2
_geom_bond_distance
_geom_bond_site_symmetry_2
Mg0 O2 1.883556 1_555
Mg0 O2 1.883561 1_455
Mg0 O2 1.883563 1_445
Mg0 O5 2.083949 1_555
Al0 O0 1.797991 1_545
Al0 O0 1.797991 1_445
Al0 O0 1.797996 1_555
Al0 O4 1.815404 1_555
Al1 O1 1.995415 1_554
Al1 O1 1.995419 1_454
Al1 O1 1.995421 1_444
Al1 O3 2.005906 1_545
Al1 O3 2.005907 1_445
Al1 O3 2.005911 1_555
Cu0 O5 1.924170 1_555
Cu0 O5 1.924175 1_655
Cu0 O5 1.924177 1_665
Cu0 O1 2.009321 1_555
Cu1 O3 1.966389 1_555
Cu1 O4 2.003722 1_565
Cu1 O4 2.003722 1_665
Cu1 O4 2.003727 1_555
