# generated using pymatgen
data_As2PbO4
_symmetry_space_group_name_H-M   'P 1'
_cell_length_a   11.87904451
_cell_length_b   6.18433058
_cell_length_c   7.09139384
_cell_angle_alpha   67.37627711
_cell_angle_beta   90.00000000
_cell_angle_gamma   90.00000000
_symmetry_Int_Tables_number   1
_chemical_formula_structural   As2PbO4
_chemical_formula_sum   'As8 Pb4 O16'
_cell_volume   480.87424752
_cell_formula_units_Z   4
loop_
 _symmetry_equiv_pos_site_id
 _symmetry_equiv_pos_as_xyz
  1  'x, y, z'
loop_
 _atom_site_type_symbol
 _atom_site_label
 _atom_site_symmetry_multiplicity
 _atom_site_fract_x
 _atom_site_fract_y
 _atom_site_fract_z
 _atom_site_occupancy
  As  As0  1  0.91864654  0.29042694  0.28649717  1
  As  As1  1  0.41864654  0.20957306  0.71350283  1
  As  As2  1  0.08135346  0.70957306  0.71350283  1
  As  As3  1  0.58135346  0.79042694  0.28649717  1
  As  As4  1  0.85662401  0.49198972  0.62114506  1
  As  As5  1  0.35662401  0.00801028  0.37885494  1
  As  As6  1  0.14337599  0.50801028  0.37885494  1
  As  As7  1  0.64337599  0.99198972  0.62114506  1
  Pb  Pb0  1  0.65244801  0.40466565  0.01269698  1
  Pb  Pb1  1  0.15244801  0.09533435  0.98730302  1
  Pb  Pb2  1  0.34755199  0.59533435  0.98730302  1
  Pb  Pb3  1  0.84755199  0.90466565  0.01269698  1
  O  O0  1  0.91216926  0.25614096  0.55079744  1
  O  O1  1  0.41216926  0.24385904  0.44920256  1
  O  O2  1  0.08783074  0.74385904  0.44920256  1
  O  O3  1  0.58783074  0.75614096  0.55079744  1
  O  O4  1  0.97383453  0.48129544  0.79127027  1
  O  O5  1  0.47383453  0.01870456  0.20872973  1
  O  O6  1  0.02616547  0.51870456  0.20872973  1
  O  O7  1  0.52616547  0.98129544  0.79127027  1
  O  O8  1  0.80391607  0.47658944  0.18699112  1
  O  O9  1  0.30391607  0.02341056  0.81300888  1
  O  O10  1  0.19608393  0.52341056  0.81300888  1
  O  O11  1  0.69608393  0.97658944  0.18699112  1
  O  O12  1  0.72917467  0.79982016  0.81200547  1
  O  O13  1  0.22917467  0.70017984  0.18799453  1
  O  O14  1  0.27082533  0.20017984  0.18799453  1
  O  O15  1  0.77082533  0.29982016  0.81200547  1
loop_
_geom_bond_atom_site_label_1
_geom_bond_atom_site_label_2
_geom_bond_distance
_geom_bond_site_symmetry_2
As0 O8 1.748096 1_555
As0 O0 1.804985 1_555
As0 O6 1.824683 1_655
As1 O9 1.748096 1_555
As1 O1 1.804985 1_555
As1 O7 1.824683 1_545
As2 O10 1.748096 1_555
As2 O2 1.804985 1_555
As2 O4 1.824683 1_455
As3 O11 1.748096 1_555
As3 O3 1.804985 1_555
As3 O5 1.824683 1_565
As4 O15 1.745143 1_555
As4 O4 1.826769 1_555
As4 O0 1.836151 1_555
As5 O14 1.745143 1_555
As5 O5 1.826769 1_555
As5 O1 1.836151 1_555
As6 O13 1.745143 1_555
As6 O6 1.826769 1_555
As6 O2 1.836151 1_555
As7 O12 1.745143 1_555
As7 O7 1.826769 1_555
As7 O3 1.836151 1_555
O8 Pb0 2.320764 1_555
O8 Pb3 2.507485 1_555
O9 Pb1 2.320764 1_555
O9 Pb2 2.507485 1_545
O10 Pb2 2.320764 1_555
O10 Pb1 2.507485 1_555
O11 Pb3 2.320764 1_555
O11 Pb0 2.507485 1_565
O12 Pb3 2.265667 1_556
O12 Pb0 2.480404 1_556
O13 Pb2 2.265667 1_554
O13 Pb1 2.480404 1_564
O14 Pb1 2.265667 1_554
O14 Pb2 2.480404 1_554
O15 Pb0 2.265667 1_556
O15 Pb3 2.480404 1_546
