# generated using pymatgen
data_Ho3SbO7
_symmetry_space_group_name_H-M   'P 1'
_cell_length_a   6.38984101
_cell_length_b   6.38984101
_cell_length_c   7.41675472
_cell_angle_alpha   90.00000000
_cell_angle_beta   90.00000000
_cell_angle_gamma   109.38066563
_symmetry_Int_Tables_number   1
_chemical_formula_structural   Ho3SbO7
_chemical_formula_sum   'Ho6 Sb2 O14'
_cell_volume   285.66683800
_cell_formula_units_Z   2
loop_
 _symmetry_equiv_pos_site_id
 _symmetry_equiv_pos_as_xyz
  1  'x, y, z'
loop_
 _atom_site_type_symbol
 _atom_site_label
 _atom_site_symmetry_multiplicity
 _atom_site_fract_x
 _atom_site_fract_y
 _atom_site_fract_z
 _atom_site_occupancy
  Ho  Ho0  1  0.99964408  0.46844525  0.74950721  1
  Ho  Ho1  1  0.00035592  0.53155475  0.24950721  1
  Ho  Ho2  1  0.53155475  0.00035592  0.75049279  1
  Ho  Ho3  1  0.46844525  0.99964408  0.25049279  1
  Ho  Ho4  1  0.50183971  0.50183971  0.50000000  1
  Ho  Ho5  1  0.49816029  0.49816029  -0.00000000  1
  Sb  Sb0  1  0.00003851  0.00003851  0.50000000  1
  Sb  Sb1  1  -0.00003851  -0.00003851  -0.00000000  1
  O  O0  1  0.63732559  0.36267441  0.75000000  1
  O  O1  1  0.36267441  0.63732559  0.25000000  1
  O  O2  1  0.93022678  0.06977322  0.75000000  1
  O  O3  1  0.06977322  0.93022678  0.25000000  1
  O  O4  1  0.92705751  0.67779762  0.53037299  1
  O  O5  1  0.07294249  0.32220238  0.03037299  1
  O  O6  1  0.32220238  0.07294249  0.96962701  1
  O  O7  1  0.67779762  0.92705751  0.46962701  1
  O  O8  1  0.36996435  0.63003565  0.75000000  1
  O  O9  1  0.63003565  0.36996435  0.25000000  1
  O  O10  1  0.92866683  0.67848828  0.96876649  1
  O  O11  1  0.07133317  0.32151172  0.46876649  1
  O  O12  1  0.32151172  0.07133317  0.53123351  1
  O  O13  1  0.67848828  0.92866683  0.03123351  1
loop_
_geom_bond_atom_site_label_1
_geom_bond_atom_site_label_2
_geom_bond_distance
_geom_bond_site_symmetry_2
Ho0 O0 2.185926 1_555
Ho0 O8 2.245861 1_655
Ho0 O10 2.248450 1_555
Ho0 O4 2.248982 1_555
Ho0 O11 2.390036 1_655
Ho0 O5 2.392161 1_656
Ho0 O2 2.436459 1_555
Ho1 O1 2.185926 1_555
Ho1 O9 2.245861 1_455
Ho1 O11 2.248450 1_555
Ho1 O5 2.248982 1_555
Ho1 O10 2.390036 1_454
Ho1 O4 2.392161 1_455
Ho1 O3 2.436459 1_555
Ho2 O0 2.185926 1_555
Ho2 O8 2.245861 1_545
Ho2 O12 2.248450 1_555
Ho2 O6 2.248982 1_555
Ho2 O13 2.390036 1_546
Ho2 O7 2.392161 1_545
Ho2 O2 2.436459 1_555
Ho3 O1 2.185926 1_555
Ho3 O9 2.245861 1_565
Ho3 O13 2.248450 1_555
Ho3 O7 2.248982 1_555
Ho3 O12 2.390036 1_565
Ho3 O6 2.392161 1_564
Ho3 O3 2.436459 1_555
Ho4 O8 2.297222 1_555
Ho4 O9 2.297222 1_555
Ho4 O0 2.342905 1_555
Ho4 O1 2.342905 1_555
Ho4 O7 2.582610 1_555
Ho4 O4 2.582610 1_555
Ho4 O12 2.616286 1_555
Ho4 O11 2.616286 1_555
Ho5 O8 2.297222 1_554
Ho5 O9 2.297222 1_555
Ho5 O0 2.342905 1_554
Ho5 O1 2.342905 1_555
Ho5 O6 2.582610 1_554
Ho5 O5 2.582610 1_555
Ho5 O13 2.616286 1_555
Ho5 O10 2.616286 1_554
O2 Sb0 1.991855 1_655
O2 Sb1 1.991855 1_656
O3 Sb0 1.991855 1_565
O3 Sb1 1.991855 1_565
O4 Sb0 1.967408 1_665
O5 Sb1 1.967408 1_555
O6 Sb1 1.967408 1_556
O7 Sb0 1.967408 1_665
O10 Sb1 1.964614 1_666
O11 Sb0 1.964614 1_555
O12 Sb0 1.964614 1_555
O13 Sb1 1.964614 1_665
