# generated using pymatgen
data_MgMn3NiO8
_symmetry_space_group_name_H-M   'P 1'
_cell_length_a   5.89879366
_cell_length_b   5.89882195
_cell_length_c   5.93497619
_cell_angle_alpha   60.20195674
_cell_angle_beta   60.20143486
_cell_angle_gamma   59.99992069
_symmetry_Int_Tables_number   1
_chemical_formula_structural   MgMn3NiO8
_chemical_formula_sum   'Mg1 Mn3 Ni1 O8'
_cell_volume   146.47027987
_cell_formula_units_Z   1
loop_
 _symmetry_equiv_pos_site_id
 _symmetry_equiv_pos_as_xyz
  1  'x, y, z'
loop_
 _atom_site_type_symbol
 _atom_site_label
 _atom_site_symmetry_multiplicity
 _atom_site_fract_x
 _atom_site_fract_y
 _atom_site_fract_z
 _atom_site_occupancy
  Mg  Mg0  1  0.00000000  0.00000000  0.50000000  1
  Mn  Mn0  1  0.50000000  0.00000000  0.50000000  1
  Mn  Mn1  1  0.50000000  0.50000000  0.50000000  1
  Mn  Mn2  1  0.00000000  0.50000000  0.50000000  1
  Ni  Ni0  1  0.50000000  0.50000000  0.00000000  1
  O  O0  1  0.24874700  0.24874400  0.29008200  1
  O  O1  1  0.71242700  0.24874300  0.29008300  1
  O  O2  1  0.24874400  0.71242700  0.29008400  1
  O  O3  1  0.26593000  0.26593300  0.70220900  1
  O  O4  1  0.73407000  0.73406700  0.29779100  1
  O  O5  1  0.75125600  0.28757300  0.70991600  1
  O  O6  1  0.28757300  0.75125700  0.70991700  1
  O  O7  1  0.75125300  0.75125600  0.70991800  1
loop_
_geom_bond_atom_site_label_1
_geom_bond_atom_site_label_2
_geom_bond_distance
_geom_bond_site_symmetry_2
Mg0 O2 2.092178 1_545
Mg0 O5 2.092178 1_455
Mg0 O1 2.092191 1_455
Mg0 O6 2.092191 1_545
Mg0 O7 2.092201 1_445
Mg0 O0 2.092201 1_555
Mn0 O7 1.935301 1_545
Mn0 O0 1.935301 1_555
Mn0 O6 1.935303 1_545
Mn0 O1 1.935303 1_555
Mn0 O3 1.966135 1_555
Mn0 O4 1.966135 1_545
Mn1 O2 1.935304 1_555
Mn1 O5 1.935304 1_555
Mn1 O6 1.935305 1_555
Mn1 O1 1.935305 1_555
Mn1 O3 1.966128 1_555
Mn1 O4 1.966128 1_555
Mn2 O0 1.935304 1_555
Mn2 O7 1.935304 1_455
Mn2 O5 1.935306 1_455
Mn2 O2 1.935306 1_555
Mn2 O3 1.966130 1_555
Mn2 O4 1.966130 1_455
Ni0 O5 2.117011 1_554
Ni0 O2 2.117011 1_555
Ni0 O1 2.117020 1_555
Ni0 O6 2.117020 1_554
Ni0 O7 2.117021 1_554
Ni0 O0 2.117021 1_555
