# generated using pymatgen
data_Na30Ta20Zn4Si33(SO48)3
_symmetry_space_group_name_H-M   'P 1'
_cell_length_a   18.05611281
_cell_length_b   9.04170243
_cell_length_c   22.53604893
_cell_angle_alpha   90.09751182
_cell_angle_beta   89.91543111
_cell_angle_gamma   120.07199773
_symmetry_Int_Tables_number   1
_chemical_formula_structural   Na30Ta20Zn4Si33(SO48)3
_chemical_formula_sum   'Na30 Ta20 Zn4 Si33 S3 O144'
_cell_volume   3183.95264297
_cell_formula_units_Z   1
loop_
 _symmetry_equiv_pos_site_id
 _symmetry_equiv_pos_as_xyz
  1  'x, y, z'
loop_
 _atom_site_type_symbol
 _atom_site_label
 _atom_site_symmetry_multiplicity
 _atom_site_fract_x
 _atom_site_fract_y
 _atom_site_fract_z
 _atom_site_occupancy
  Na  Na0  1  0.31343417  0.97890795  0.25560909  1
  Na  Na1  1  0.18453040  0.39062312  0.25711951  1
  Na  Na2  1  0.68009011  0.38552183  0.25309401  1
  Na  Na3  1  0.50714744  0.63623797  0.26007913  1
  Na  Na4  1  0.31160742  0.64150883  0.75807208  1
  Na  Na5  1  0.00554866  0.39020813  0.75655007  1
  Na  Na6  1  0.18443771  0.97559737  0.75539388  1
  Na  Na7  1  0.65036149  0.33229529  0.58395235  1
  Na  Na8  1  0.64240145  0.96843810  0.08709141  1
  Na  Na9  1  0.34078618  0.72132170  0.08963878  1
  Na  Na10  1  0.51862303  0.31507159  0.08989732  1
  Na  Na11  1  0.98950504  0.66071294  0.91381240  1
  Na  Na12  1  0.34439843  0.02638144  0.91533316  1
  Na  Na13  1  0.66566608  0.29785195  0.91598780  1
  Na  Na14  1  0.48804412  0.31745243  0.41409783  1
  Na  Na15  1  0.99069202  0.32255522  0.41410063  1
  Na  Na16  1  0.34102942  0.66038228  0.41482483  1
  Na  Na17  1  0.84258551  0.65786957  0.41400047  1
  Na  Na18  1  0.00967685  0.00604021  0.50117419  1
  Na  Na19  1  0.50081451  0.98803351  0.50238962  1
  Na  Na20  1  0.00573218  0.01619786  0.00212796  1
  Na  Na21  1  0.49829058  0.99092306  0.00686305  1
  Na  Na22  1  0.33930212  0.34515671  0.83718671  1
  Na  Na23  1  0.82926025  0.32170545  0.83121337  1
  Na  Na24  1  0.32959403  0.32667951  0.33682620  1
  Na  Na25  1  0.83439659  0.32489762  0.33312400  1
  Na  Na26  1  0.15743658  0.65516958  0.17268496  1
  Na  Na27  1  0.67560589  0.66944802  0.17506767  1
  Na  Na28  1  0.16730078  0.67859542  0.66686241  1
  Na  Na29  1  0.66792793  0.67631101  0.66710458  1
  Ta  Ta0  1  0.99360588  0.99535396  0.35654794  1
  Ta  Ta1  1  0.49517420  0.99707066  0.35497020  1
  Ta  Ta2  1  0.99418134  0.99358259  0.85765176  1
  Ta  Ta3  1  0.49831726  0.99526375  0.85522379  1
  Ta  Ta4  1  0.99386991  0.98746535  0.64099235  1
  Ta  Ta5  1  0.49894210  0.99490067  0.64530135  1
  Ta  Ta6  1  0.99408974  0.99917961  0.14228078  1
  Ta  Ta7  1  0.34076601  0.33557437  0.68461974  1
  Ta  Ta8  1  0.83058545  0.33156508  0.68947407  1
  Ta  Ta9  1  0.33738065  0.33793246  0.18515321  1
  Ta  Ta10  1  0.84035234  0.34502829  0.18698270  1
  Ta  Ta11  1  0.33089820  0.33860941  0.97923275  1
  Ta  Ta12  1  0.83526502  0.32896881  0.97885914  1
  Ta  Ta13  1  0.33138039  0.32983488  0.48156632  1
  Ta  Ta14  1  0.83387053  0.33041771  0.48098080  1
  Ta  Ta15  1  0.16406042  0.66450694  0.02023768  1
  Ta  Ta16  1  0.66939115  0.66698572  0.02207704  1
  Ta  Ta17  1  0.16516394  0.66584802  0.52184492  1
  Ta  Ta18  1  0.66660112  0.67149171  0.51970360  1
  Ta  Ta19  1  0.66540654  0.66413611  0.80997619  1
  Zn  Zn0  1  0.49403333  0.00512899  0.14584805  1
  Zn  Zn1  1  0.16415512  0.65289750  0.32025103  1
  Zn  Zn2  1  0.67003480  0.66160673  0.31955129  1
  Zn  Zn3  1  0.16811513  0.67901674  0.82225640  1
  Si  Si0  1  0.35289926  0.70720793  0.24632015  1
  Si  Si1  1  0.85356447  0.70866677  0.24933616  1
  Si  Si2  1  0.99875926  0.28984584  0.24941013  1
  Si  Si3  1  0.50105763  0.29464553  0.24685444  1
  Si  Si4  1  0.64326166  0.28663611  0.74997885  1
  Si  Si5  1  0.99937117  0.71039792  0.74919476  1
  Si  Si6  1  0.50010665  0.71058380  0.74973974  1
  Si  Si7  1  0.35518530  0.00299786  0.75004673  1
  Si  Si8  1  0.85522571  0.99904040  0.74955406  1
  Si  Si9  1  0.48111377  0.33229231  0.58098804  1
  Si  Si10  1  0.97890760  0.33657193  0.58584008  1
  Si  Si11  1  0.18852085  0.04191680  0.58545989  1
  Si  Si12  1  0.68951300  0.04089925  0.58470928  1
  Si  Si13  1  0.33173133  0.62200043  0.58425776  1
  Si  Si14  1  0.83183562  0.61903105  0.58275891  1
  Si  Si15  1  0.48087904  0.62636795  0.08232486  1
  Si  Si16  1  0.97938427  0.62539925  0.08120926  1
  Si  Si17  1  0.32991194  0.04107321  0.08092130  1
  Si  Si18  1  0.83159056  0.04554919  0.08465778  1
  Si  Si19  1  0.18755368  0.33283076  0.08443292  1
  Si  Si20  1  0.69074004  0.33620440  0.08366831  1
  Si  Si21  1  0.30908333  0.66366499  0.91359431  1
  Si  Si22  1  0.80902187  0.66365457  0.91591230  1
  Si  Si23  1  0.02391006  0.37759870  0.91321052  1
  Si  Si24  1  0.52141899  0.38055048  0.91663406  1
  Si  Si25  1  0.16742771  0.96155688  0.91467448  1
  Si  Si26  1  0.66637732  0.95097224  0.91668847  1
  Si  Si27  1  0.30603681  0.95535023  0.41326155  1
  Si  Si28  1  0.80682568  0.95583627  0.41422136  1
  Si  Si29  1  0.16723202  0.37382962  0.41542967  1
  Si  Si30  1  0.66760595  0.37247856  0.41544446  1
  Si  Si31  1  0.02429226  0.66862192  0.41536545  1
  Si  Si32  1  0.52189738  0.66845650  0.41408438  1
  S  S0  1  0.14164843  0.00174864  0.24806892  1
  S  S1  1  0.64625595  0.00578020  0.24864897  1
  S  S2  1  0.14290029  0.28164820  0.74886008  1
  O  O0  1  0.10095386  0.02531335  0.30217104  1
  O  O1  1  0.60042640  0.02826010  0.30145099  1
  O  O2  1  0.41646099  0.80096229  0.30640084  1
  O  O3  1  0.91299109  0.80188681  0.30938858  1
  O  O4  1  0.48689484  0.16701516  0.30604843  1
  O  O5  1  0.98865579  0.16975431  0.30899254  1
  O  O6  1  0.10278183  0.17683945  0.80302707  1
  O  O7  1  0.59683854  0.16912065  0.80909714  1
  O  O8  1  0.48336068  0.80435134  0.80673850  1
  O  O9  1  0.99014171  0.80928981  0.80899788  1
  O  O10  1  0.41338039  0.02794785  0.81002343  1
  O  O11  1  0.91910244  0.03018660  0.80682605  1
  O  O12  1  0.41024826  0.98805290  0.69410293  1
  O  O13  1  0.90519107  0.97931832  0.69218188  1
  O  O14  1  0.09066983  0.19612970  0.69569113  1
  O  O15  1  0.58729815  0.19626002  0.69011590  1
  O  O16  1  0.01028456  0.83905259  0.69390734  1
  O  O17  1  0.51224061  0.82919539  0.69177921  1
  O  O18  1  0.39809195  0.81351237  0.18772550  1
  O  O19  1  0.91127365  0.82795880  0.19339500  1
  O  O20  1  0.00761348  0.17958234  0.19371801  1
  O  O21  1  0.51840199  0.21582715  0.18836082  1
  O  O22  1  0.09222340  0.98841710  0.19445712  1
  O  O23  1  0.59826969  0.98424275  0.19361610  1
  O  O24  1  0.43244607  0.35904230  0.63943167  1
  O  O25  1  0.93126138  0.36047611  0.64404625  1
  O  O26  1  0.24821323  0.13881055  0.64450421  1
  O  O27  1  0.74904841  0.13626867  0.64274854  1
  O  O28  1  0.32092449  0.50247936  0.64314433  1
  O  O29  1  0.81736680  0.49449477  0.63947558  1
  O  O30  1  0.43421533  0.50128746  0.14222451  1
  O  O31  1  0.93150187  0.50101691  0.13924368  1
  O  O32  1  0.31901361  0.13736129  0.14130869  1
  O  O33  1  0.81586438  0.13897031  0.14109794  1
  O  O34  1  0.24954871  0.36365879  0.14321846  1
  O  O35  1  0.74949918  0.35990395  0.14286174  1
  O  O36  1  0.23592361  0.30917959  0.02731957  1
  O  O37  1  0.74149524  0.31738893  0.02539065  1
  O  O38  1  0.41660183  0.52082852  0.02812331  1
  O  O39  1  0.92063489  0.53546169  0.02220213  1
  O  O40  1  0.34140997  0.16404747  0.02452971  1
  O  O41  1  0.84588078  0.16467152  0.02626965  1
  O  O42  1  0.23819713  0.16582677  0.52905561  1
  O  O43  1  0.73723932  0.16841865  0.52849253  1
  O  O44  1  0.34596395  0.52914717  0.52642388  1
  O  O45  1  0.84618503  0.53298895  0.52377097  1
  O  O46  1  0.42260287  0.30995595  0.52353946  1
  O  O47  1  0.91998545  0.30729325  0.52679151  1
  O  O48  1  0.26369166  0.69923846  0.97175167  1
  O  O49  1  0.76488753  0.69365521  0.97460860  1
  O  O50  1  0.08419033  0.47337380  0.97130913  1
  O  O51  1  0.58349566  0.47032045  0.97503869  1
  O  O52  1  0.14867650  0.82667338  0.96990922  1
  O  O53  1  0.65380691  0.83758871  0.97681897  1
  O  O54  1  0.26247111  0.82593925  0.47003923  1
  O  O55  1  0.76498213  0.82941140  0.47291237  1
  O  O56  1  0.14870516  0.46969128  0.47119583  1
  O  O57  1  0.64958520  0.46410065  0.47366313  1
  O  O58  1  0.08367125  0.69688532  0.47453706  1
  O  O59  1  0.58413634  0.69227147  0.47168144  1
  O  O60  1  0.05704697  0.61007511  0.35924131  1
  O  O61  1  0.55341910  0.61756005  0.35533316  1
  O  O62  1  0.25822307  0.88908916  0.35129772  1
  O  O63  1  0.75305029  0.87972211  0.35605998  1
  O  O64  1  0.19509110  0.48449105  0.35559249  1
  O  O65  1  0.69274999  0.48501986  0.35622802  1
  O  O66  1  0.05514435  0.49033054  0.85369950  1
  O  O67  1  0.57016046  0.50023731  0.85944136  1
  O  O68  1  0.19244298  0.90276549  0.85420661  1
  O  O69  1  0.67995013  0.85649515  0.85962157  1
  O  O70  1  0.25819455  0.63083359  0.85244228  1
  O  O71  1  0.74767160  0.63167247  0.85925381  1
  O  O72  1  0.01000358  0.83592085  0.40926927  1
  O  O73  1  0.50931746  0.83746190  0.40992035  1
  O  O74  1  0.40500708  0.97312538  0.40902950  1
  O  O75  1  0.90515359  0.97310790  0.41099620  1
  O  O76  1  0.07928102  0.18475277  0.40945494  1
  O  O77  1  0.57856416  0.18474836  0.40886527  1
  O  O78  1  0.01329351  0.18593361  0.90884843  1
  O  O79  1  0.51459083  0.19141204  0.91071185  1
  O  O80  1  0.07905665  0.97320567  0.90980047  1
  O  O81  1  0.58312798  0.97883731  0.90956215  1
  O  O82  1  0.40476990  0.84347366  0.91088689  1
  O  O83  1  0.90586141  0.83185745  0.91017657  1
  O  O84  1  0.49270783  0.16537289  0.58787635  1
  O  O85  1  0.99010913  0.16753172  0.59335766  1
  O  O86  1  0.09464837  0.02720757  0.59222272  1
  O  O87  1  0.59636208  0.03085244  0.58933601  1
  O  O88  1  0.41790474  0.81103714  0.59094453  1
  O  O89  1  0.91697630  0.81008802  0.58858533  1
  O  O90  1  0.49199776  0.81223236  0.08550300  1
  O  O91  1  0.99003709  0.81391815  0.09042015  1
  O  O92  1  0.41467653  0.02476066  0.08131515  1
  O  O93  1  0.91568140  0.02263885  0.08978823  1
  O  O94  1  0.09394313  0.16299350  0.09201250  1
  O  O95  1  0.59773920  0.16712610  0.08320038  1
  O  O96  1  0.34414243  0.17502627  0.74438877  1
  O  O97  1  0.85136251  0.17636805  0.74513857  1
  O  O98  1  0.22980589  0.29603728  0.74559556  1
  O  O99  1  0.73821750  0.30441201  0.74449344  1
  O  O100  1  0.40956573  0.52436627  0.74414784  1
  O  O101  1  0.91214786  0.52151482  0.74457534  1
  O  O102  1  0.34591148  0.51268873  0.24555306  1
  O  O103  1  0.84578341  0.51628132  0.24457053  1
  O  O104  1  0.40632466  0.29243831  0.24551861  1
  O  O105  1  0.90919606  0.29580471  0.24312769  1
  O  O106  1  0.22833023  0.16565463  0.24536557  1
  O  O107  1  0.73111947  0.17016256  0.24783743  1
  O  O108  1  0.32548421  0.50357631  0.92565301  1
  O  O109  1  0.82125906  0.49577701  0.92132145  1
  O  O110  1  0.42428450  0.34733630  0.92259798  1
  O  O111  1  0.92809629  0.35643239  0.92557922  1
  O  O112  1  0.25046507  0.15040985  0.92678592  1
  O  O113  1  0.74946050  0.14707191  0.92308435  1
  O  O114  1  0.32978531  0.15450668  0.42530828  1
  O  O115  1  0.83082408  0.15469161  0.42566358  1
  O  O116  1  0.25030410  0.34898804  0.42837941  1
  O  O117  1  0.75079848  0.34894571  0.42802227  1
  O  O118  1  0.42423866  0.50391736  0.42675615  1
  O  O119  1  0.92555157  0.50359283  0.42720624  1
  O  O120  1  0.18409895  0.50932408  0.07644801  1
  O  O121  1  0.68151662  0.50818236  0.07712844  1
  O  O122  1  0.07212606  0.63776097  0.07558316  1
  O  O123  1  0.57271549  0.63103842  0.07785745  1
  O  O124  1  0.24466367  0.85092040  0.07601443  1
  O  O125  1  0.74445674  0.85975099  0.07774699  1
  O  O126  1  0.18066284  0.85604561  0.57720390  1
  O  O127  1  0.67938206  0.85265912  0.57611555  1
  O  O128  1  0.24704799  0.63971739  0.57652683  1
  O  O129  1  0.74513053  0.63194305  0.57655130  1
  O  O130  1  0.07317241  0.50587347  0.57740493  1
  O  O131  1  0.57605731  0.50131218  0.57742378  1
  O  O132  1  0.15509638  0.85529119  0.25082885  1
  O  O133  1  0.65639535  0.85623245  0.25623518  1
  O  O134  1  0.25945716  0.68720048  0.25231034  1
  O  O135  1  0.75985578  0.68313301  0.24889277  1
  O  O136  1  0.08403248  0.47170652  0.25007569  1
  O  O137  1  0.57911167  0.48795969  0.25355570  1
  O  O138  1  0.15281644  0.45189119  0.75187677  1
  O  O139  1  0.65318005  0.47641073  0.75682860  1
  O  O140  1  0.08297553  0.68969609  0.74920393  1
  O  O141  1  0.58305981  0.68691576  0.75615806  1
  O  O142  1  0.26292717  0.83172773  0.74846756  1
  O  O143  1  0.76161525  0.82914512  0.75687246  1
loop_
_geom_bond_atom_site_label_1
_geom_bond_atom_site_label_2
_geom_bond_distance
_geom_bond_site_symmetry_2
Na0 O134 2.309838 1_555
Na0 O62 2.343468 1_555
Na0 O104 2.477340 1_565
Na0 O132 2.496521 1_555
Na0 O106 2.805047 1_565
Na1 O136 2.278145 1_555
Na1 O134 2.323283 1_555
Na1 O64 2.348224 1_555
Na1 O106 2.538286 1_555
Na1 O102 2.559817 1_555
Na1 O34 2.881380 1_555
Na2 O135 2.332539 1_555
Na2 O137 2.423768 1_555
Na2 O65 2.460083 1_555
Na2 O107 2.539997 1_555
Na2 O103 2.615276 1_555
Na2 O35 2.841713 1_555
Na2 O21 2.919142 1_555
Na2 O1 3.006990 1_555
Na3 O137 2.291751 1_555
Na3 O61 2.341494 1_555
Na3 O133 2.419532 1_555
Na3 O102 2.563787 1_555
Na3 O104 2.722454 1_555
Na3 O2 2.902242 1_555
Na3 O30 2.943838 1_555
Na4 O142 2.300953 1_555
Na4 O70 2.315983 1_555
Na4 O100 2.494689 1_555
Na4 O138 2.500694 1_555
Na4 O98 2.718887 1_555
Na4 O8 2.901146 1_555
Na4 O28 2.918264 1_555
Na5 O140 2.349771 1_555
Na5 O66 2.366721 1_555
Na5 O138 2.430225 1_555
Na5 O97 2.482145 1_455
Na5 O101 2.517042 1_455
Na5 O25 2.818868 1_455
Na6 O140 2.304678 1_555
Na6 O68 2.348347 1_555
Na6 O142 2.360345 1_555
Na6 O96 2.533130 1_565
Na6 O98 2.595641 1_565
Na6 O26 2.837232 1_565
Na7 O129 2.377152 1_555
Na7 O87 2.394069 1_555
Na7 O84 2.466368 1_555
Na7 O131 2.492622 1_555
Na7 O15 2.670565 1_555
Na7 O57 2.761341 1_555
Na7 O29 2.895243 1_555
Na7 O43 2.921587 1_555
Na8 O95 2.310405 1_565
Na8 O90 2.351025 1_555
Na8 O125 2.493725 1_555
Na8 O23 2.554563 1_555
Na8 O123 2.661733 1_555
Na8 O53 2.801882 1_554
Na9 O92 2.382263 1_565
Na9 O18 2.405790 1_555
Na9 O90 2.426770 1_555
Na9 O120 2.516441 1_555
Na9 O124 2.553558 1_555
Na10 O92 2.347806 1_555
Na10 O21 2.394214 1_555
Na10 O95 2.401377 1_555
Na10 O123 2.528792 1_555
Na10 O121 2.575813 1_555
Na10 O51 2.897964 1_554
Na10 O30 3.017933 1_555
Na11 O111 2.411092 1_555
Na11 O80 2.455163 1_655
Na11 O109 2.634458 1_555
Na11 O83 2.650502 1_555
Na11 O9 2.716543 1_555
Na11 O39 2.717473 1_556
Na11 O66 2.726016 1_655
Na11 O52 2.791436 1_655
Na12 O82 2.395652 1_545
Na12 O112 2.470781 1_555
Na12 O110 2.516537 1_555
Na12 O79 2.661762 1_555
Na12 O10 2.675385 1_555
Na12 O68 2.758171 1_545
Na12 O40 2.768501 1_556
Na12 O48 2.859549 1_545
Na13 O79 2.398126 1_555
Na13 O109 2.464035 1_555
Na13 O113 2.498398 1_555
Na13 O81 2.500624 1_545
Na13 O7 2.692885 1_555
Na13 O37 2.784005 1_556
Na13 O71 2.909635 1_555
Na13 O51 2.951240 1_555
Na14 O77 2.467655 1_555
Na14 O114 2.485947 1_555
Na14 O118 2.488996 1_555
Na14 O74 2.697214 1_545
Na14 O61 2.703297 1_555
Na14 O46 2.719476 1_555
Na14 O4 2.782165 1_555
Na14 O57 2.863108 1_555
Na15 O119 2.465125 1_555
Na15 O76 2.473550 1_655
Na15 O115 2.512441 1_555
Na15 O60 2.570470 1_655
Na15 O5 2.731148 1_555
Na15 O75 2.735395 1_545
Na15 O56 2.786889 1_655
Na15 O47 2.813119 1_555
Na16 O74 2.464694 1_555
Na16 O116 2.466419 1_555
Na16 O118 2.542368 1_555
Na16 O73 2.633035 1_555
Na16 O64 2.656701 1_555
Na16 O2 2.776131 1_555
Na16 O44 2.803201 1_555
Na16 O54 2.813802 1_555
Na17 O117 2.451669 1_555
Na17 O75 2.485638 1_555
Na17 O119 2.524966 1_555
Na17 O72 2.619854 1_655
Na17 O3 2.685576 1_555
Na17 O65 2.687586 1_555
Na17 O45 2.735388 1_555
Na17 O55 2.880501 1_555
Na18 O86 2.512854 1_555
Na18 O76 2.536032 1_555
Na18 O72 2.579530 1_545
Na18 O89 2.617510 1_445
Na18 O85 2.660306 1_455
Na18 O75 2.688241 1_445
Na19 O87 2.510705 1_565
Na19 O88 2.527056 1_555
Na19 O73 2.533481 1_555
Na19 O84 2.554971 1_565
Na19 O77 2.660503 1_565
Na19 O74 2.685801 1_555
Na20 O94 2.506690 1_555
Na20 O78 2.567710 1_554
Na20 O93 2.575820 1_455
Na20 O80 2.595794 1_544
Na20 O91 2.622174 1_445
Na20 O83 2.703903 1_444
Na21 O90 2.364166 1_555
Na21 O92 2.375252 1_565
Na21 O95 2.419697 1_565
Na21 O82 2.655540 1_554
Na21 O81 2.706244 1_554
Na21 O79 2.746788 1_564
Na22 O110 2.457274 1_555
Na22 O108 2.536868 1_555
Na22 O100 2.564159 1_555
Na22 O96 2.621199 1_555
Na22 O112 2.631099 1_555
Na22 O98 2.737800 1_555
Na23 O97 2.482639 1_555
Na23 O99 2.509385 1_555
Na23 O113 2.564791 1_555
Na23 O101 2.570914 1_555
Na23 O109 2.614926 1_555
Na23 O111 2.693196 1_555
Na24 O114 2.532902 1_555
Na24 O116 2.574222 1_555
Na24 O102 2.580652 1_555
Na24 O104 2.582403 1_555
Na24 O118 2.617344 1_555
Na24 O106 2.654117 1_555
Na25 O105 2.520488 1_555
Na25 O107 2.552601 1_555
Na25 O115 2.575420 1_555
Na25 O103 2.583266 1_555
Na25 O119 2.673667 1_555
Na25 O117 2.686503 1_555
Na26 O136 2.312967 1_555
Na26 O134 2.484058 1_555
Na26 O132 2.538253 1_555
Na26 O122 2.636654 1_555
Na26 O120 2.701447 1_555
Na26 O124 2.751127 1_555
Na27 O135 2.217105 1_555
Na27 O137 2.447977 1_555
Na27 O133 2.625486 1_555
Na27 O121 2.674578 1_555
Na27 O125 2.679077 1_555
Na27 O123 2.781039 1_555
Na28 O142 2.425966 1_555
Na28 O140 2.432276 1_555
Na28 O126 2.517289 1_555
Na28 O130 2.594460 1_555
Na28 O128 2.614888 1_555
Na28 O138 2.723107 1_555
Na29 O127 2.543470 1_555
Na29 O143 2.553753 1_555
Na29 O141 2.553944 1_555
Na29 O131 2.590086 1_555
Na29 O129 2.611104 1_555
Na29 O139 2.637201 1_555
O0 S0 1.491724 1_555
O0 Ta0 2.190882 1_445
O1 S1 1.518843 1_555
O1 Ta1 2.145510 1_545
O2 Si0 1.701382 1_555
O2 Ta1 1.958189 1_555
O3 Si1 1.669537 1_555
O3 Ta0 1.937701 1_555
O4 Si3 1.698570 1_555
O4 Ta1 1.958424 1_545
O5 Si2 1.679588 1_555
O5 Ta0 1.946888 1_545
O6 S2 1.492071 1_555
O6 Ta2 2.202199 1_445
O7 Si4 1.647893 1_555
O7 Ta3 1.978336 1_545
O8 Si6 1.646902 1_555
O8 Ta3 1.942626 1_555
O9 Si5 1.669794 1_555
O9 Ta2 1.963770 1_555
O10 Si7 1.657571 1_555
O10 Ta3 1.984141 1_545
O11 Si8 1.659238 1_545
O11 Ta2 1.927370 1_545
O12 Si7 1.651240 1_565
O12 Ta5 1.916699 1_555
O13 Si8 1.635367 1_555
O13 Ta4 1.943373 1_555
O14 S2 1.480672 1_555
O14 Ta4 2.197199 1_445
O15 Si4 1.637551 1_555
O15 Ta5 1.991854 1_545
O16 Si5 1.648909 1_455
O16 Ta4 1.927607 1_455
O17 Si6 1.634858 1_555
O17 Ta5 1.940661 1_555
O18 Si0 1.596411 1_555
O18 Zn0 1.971346 1_565
O19 Si1 1.647088 1_555
O19 Ta6 1.908038 1_555
O20 Si2 1.658197 1_455
O20 Ta6 1.912910 1_445
O21 Si3 1.600904 1_555
O21 Zn0 1.973769 1_555
O22 S0 1.471589 1_565
O22 Ta6 2.170508 1_455
O23 S1 1.469714 1_565
O23 Zn0 2.258254 1_565
O24 Si9 1.665510 1_555
O24 Ta7 1.861753 1_555
O25 Si10 1.639983 1_555
O25 Ta8 1.984963 1_555
O26 Si11 1.659435 1_555
O26 Ta7 1.947964 1_555
O27 Si12 1.637462 1_555
O27 Ta8 1.946100 1_555
O28 Si13 1.661275 1_555
O28 Ta7 1.956276 1_555
O29 Si14 1.636762 1_555
O29 Ta8 1.963568 1_555
O30 Si15 1.690577 1_555
O30 Ta9 1.893771 1_555
O31 Si16 1.658318 1_555
O31 Ta10 1.878564 1_555
O32 Si17 1.677969 1_555
O32 Ta9 1.940934 1_555
O33 Si18 1.627145 1_555
O33 Ta10 1.976156 1_555
O34 Si19 1.666203 1_555
O34 Ta9 1.958871 1_555
O35 Si20 1.651193 1_555
O35 Ta10 1.980968 1_555
O36 Si19 1.627292 1_555
O36 Ta11 1.929806 1_554
O37 Si20 1.656993 1_555
O37 Ta12 1.948005 1_554
O38 Si15 1.624785 1_555
O38 Ta11 1.940841 1_554
O39 Si16 1.640385 1_555
O39 Ta12 1.982434 1_554
O40 Si17 1.633140 1_555
O40 Ta11 1.968633 1_554
O41 Si18 1.638105 1_555
O41 Ta12 1.917415 1_554
O42 Si11 1.633979 1_555
O42 Ta13 1.917008 1_555
O43 Si12 1.638001 1_555
O43 Ta14 1.942886 1_555
O44 Si13 1.637410 1_555
O44 Ta13 1.964164 1_555
O45 Si14 1.623889 1_555
O45 Ta14 1.980038 1_555
O46 Si9 1.619385 1_555
O46 Ta13 1.985432 1_555
O47 Si10 1.641193 1_555
O47 Ta14 1.964320 1_555
O48 Si21 1.659081 1_555
O48 Ta15 1.989475 1_556
O49 Si22 1.634220 1_555
O49 Ta16 1.937637 1_556
O50 Si23 1.644576 1_555
O50 Ta15 1.944920 1_556
O51 Si24 1.654243 1_555
O51 Ta16 1.981329 1_556
O52 Si25 1.655768 1_555
O52 Ta15 1.981985 1_556
O53 Si26 1.646039 1_555
O53 Ta16 1.984967 1_556
O54 Si27 1.644638 1_555
O54 Ta17 1.999058 1_555
O55 Si28 1.662410 1_555
O55 Ta18 1.940081 1_555
O56 Si29 1.651731 1_555
O56 Ta17 2.000672 1_555
O57 Si30 1.666952 1_555
O57 Ta18 2.025868 1_555
O58 Si31 1.649698 1_555
O58 Ta17 1.949361 1_555
O59 Si32 1.659805 1_555
O59 Ta18 1.925991 1_555
O60 Si31 1.593436 1_555
O60 Zn1 1.976842 1_555
O61 Si32 1.595914 1_555
O61 Zn2 2.097188 1_555
O62 Si27 1.592676 1_555
O62 Zn1 2.073253 1_555
O63 Si28 1.570168 1_555
O63 Zn2 1.961796 1_555
O64 Si29 1.603368 1_555
O64 Zn1 2.030456 1_555
O65 Si30 1.600722 1_555
O65 Zn2 2.015555 1_555
O66 Si23 1.606859 1_555
O66 Zn3 2.021338 1_555
O67 Si24 1.629056 1_555
O67 Ta19 1.960161 1_555
O68 Si25 1.606205 1_555
O68 Zn3 1.977267 1_555
O69 Si26 1.627534 1_555
O69 Ta19 1.970335 1_555
O70 Si21 1.600197 1_555
O70 Zn3 2.003103 1_555
O71 Si22 1.619563 1_555
O71 Ta19 1.992165 1_555
O72 Si31 1.662987 1_555
O72 Ta0 2.002993 1_455
O73 Si32 1.656467 1_555
O73 Ta1 2.014384 1_555
O74 Si27 1.714666 1_555
O74 Ta1 1.955373 1_555
O75 Si28 1.703990 1_555
O75 Ta0 1.941639 1_555
O76 Si29 1.655819 1_555
O76 Ta0 2.022596 1_445
O77 Si30 1.659194 1_555
O77 Ta1 2.014860 1_545
O78 Si23 1.648083 1_555
O78 Ta2 1.966695 1_445
O79 Si24 1.656967 1_555
O79 Ta3 2.065593 1_545
O80 Si25 1.654751 1_555
O80 Ta2 2.013141 1_455
O81 Si26 1.652014 1_555
O81 Ta3 2.025035 1_555
O82 Si21 1.678371 1_555
O82 Ta3 1.996650 1_555
O83 Si22 1.649858 1_555
O83 Ta2 1.935418 1_555
O84 Si9 1.631945 1_555
O84 Ta5 2.060180 1_545
O85 Si10 1.648161 1_555
O85 Ta4 1.981086 1_545
O86 Si11 1.639279 1_555
O86 Ta4 1.997103 1_445
O87 Si12 1.641479 1_555
O87 Ta5 2.052405 1_545
O88 Si13 1.643073 1_555
O88 Ta5 1.991448 1_555
O89 Si14 1.644118 1_555
O89 Ta4 1.913510 1_555
O90 Si15 1.590953 1_555
O90 Zn0 2.195575 1_565
O91 Si16 1.629678 1_555
O91 Ta6 2.011947 1_555
O92 Si17 1.609534 1_555
O92 Zn0 2.112250 1_555
O93 Si18 1.636302 1_555
O93 Ta6 1.937915 1_545
O94 Si19 1.625745 1_555
O94 Ta6 2.012772 1_445
O95 Si20 1.607577 1_555
O95 Zn0 2.212594 1_555
O96 Si7 1.669413 1_555
O96 Ta7 2.005200 1_555
O97 Si8 1.642597 1_545
O97 Ta8 2.053889 1_555
O98 S2 1.509885 1_555
O98 Ta7 2.303455 1_555
O99 Si4 1.644389 1_555
O99 Ta8 1.990937 1_555
O100 Si6 1.662754 1_555
O100 Ta7 2.031927 1_555
O101 Si5 1.646878 1_555
O101 Ta8 2.030725 1_555
O102 Si0 1.699133 1_555
O102 Ta9 2.030419 1_555
O103 Si1 1.676780 1_555
O103 Ta10 1.983146 1_555
O104 Si3 1.700907 1_555
O104 Ta9 2.022288 1_555
O105 Si2 1.651117 1_555
O105 Ta10 1.976160 1_555
O106 S0 1.524834 1_555
O106 Ta9 2.251726 1_555
O107 S1 1.508299 1_555
O107 Ta10 2.268235 1_555
O108 Si21 1.639478 1_555
O108 Ta11 1.960861 1_555
O109 Si22 1.644545 1_555
O109 Ta12 2.099988 1_555
O110 Si24 1.629694 1_555
O110 Ta11 2.083057 1_555
O111 Si23 1.665609 1_655
O111 Ta12 1.972533 1_555
O112 Si25 1.634654 1_545
O112 Ta11 1.980737 1_555
O113 Si26 1.658051 1_545
O113 Ta12 2.032297 1_555
O114 Si27 1.650755 1_545
O114 Ta13 2.017129 1_555
O115 Si28 1.644683 1_545
O115 Ta14 1.996866 1_555
O116 Si29 1.650651 1_555
O116 Ta13 1.967158 1_555
O117 Si30 1.644325 1_555
O117 Ta14 1.990004 1_555
O118 Si32 1.665867 1_555
O118 Ta13 2.042081 1_555
O119 Si31 1.676364 1_655
O119 Ta14 2.015831 1_555
O120 Si19 1.638176 1_555
O120 Ta15 2.054388 1_555
O121 Si20 1.651599 1_555
O121 Ta16 1.992664 1_555
O122 Si16 1.626209 1_455
O122 Ta15 1.990551 1_555
O123 Si15 1.640403 1_555
O123 Ta16 2.039426 1_555
O124 Si17 1.638655 1_565
O124 Ta15 2.019619 1_555
O125 Si18 1.634852 1_565
O125 Ta16 2.019639 1_555
O126 Si11 1.624556 1_565
O126 Ta17 2.025729 1_555
O127 Si12 1.629348 1_565
O127 Ta18 1.991895 1_555
O128 Si13 1.624922 1_555
O128 Ta17 2.029003 1_555
O129 Si14 1.633414 1_555
O129 Ta18 2.072377 1_555
O130 Si10 1.632576 1_455
O130 Ta17 2.002786 1_555
O131 Si9 1.629493 1_555
O131 Ta18 2.052302 1_555
O132 S0 1.462522 1_565
O132 Zn1 2.476637 1_555
O133 S1 1.462898 1_565
O133 Zn2 2.374301 1_555
O134 Si0 1.609698 1_555
O134 Zn1 2.204671 1_555
O135 Si1 1.588985 1_555
O135 Zn2 2.209272 1_555
O136 Si2 1.592930 1_455
O136 Zn1 2.213739 1_555
O137 Si3 1.610955 1_555
O137 Zn2 2.188239 1_555
O138 S2 1.459300 1_555
O138 Zn3 2.496183 1_555
O139 Si4 1.640543 1_555
O139 Ta19 1.995661 1_555
O140 Si5 1.611525 1_455
O140 Zn3 2.289041 1_555
O141 Si6 1.622384 1_555
O141 Ta19 2.009295 1_555
O142 Si7 1.609049 1_565
O142 Zn3 2.287574 1_555
O143 Si8 1.625358 1_555
O143 Ta19 2.019504 1_555
