# generated using pymatgen
data_Sc7NCl12
_symmetry_space_group_name_H-M   'P 1'
_cell_length_a   8.05212396
_cell_length_b   8.05212397
_cell_length_c   8.05212464
_cell_angle_alpha   107.54190193
_cell_angle_beta   107.54190189
_cell_angle_gamma   107.54190398
_symmetry_Int_Tables_number   1
_chemical_formula_structural   Sc7NCl12
_chemical_formula_sum   'Sc7 N1 Cl12'
_cell_volume   428.19774744
_cell_formula_units_Z   1
loop_
 _symmetry_equiv_pos_site_id
 _symmetry_equiv_pos_as_xyz
  1  'x, y, z'
loop_
 _atom_site_type_symbol
 _atom_site_label
 _atom_site_symmetry_multiplicity
 _atom_site_fract_x
 _atom_site_fract_y
 _atom_site_fract_z
 _atom_site_occupancy
  Sc  Sc0  1  0.30119105  0.02816261  0.09966637  1
  Sc  Sc1  1  0.02816261  0.09966637  0.30119105  1
  Sc  Sc2  1  0.09966637  0.30119105  0.02816261  1
  Sc  Sc3  1  0.69880895  0.97183739  0.90033363  1
  Sc  Sc4  1  0.97183739  0.90033363  0.69880895  1
  Sc  Sc5  1  0.90033363  0.69880895  0.97183739  1
  Sc  Sc6  1  0.50000000  0.50000000  0.50000000  1
  N  N0  1  0.00000000  -0.00000000  -0.00000000  1
  Cl  Cl0  1  0.46055725  0.38186543  0.15270163  1
  Cl  Cl1  1  0.38186543  0.15270163  0.46055725  1
  Cl  Cl2  1  0.15270163  0.46055725  0.38186543  1
  Cl  Cl3  1  0.53944275  0.61813457  0.84729837  1
  Cl  Cl4  1  0.61813457  0.84729837  0.53944275  1
  Cl  Cl5  1  0.84729837  0.53944275  0.61813457  1
  Cl  Cl6  1  0.22454490  0.68709767  0.07702349  1
  Cl  Cl7  1  0.07702349  0.22454490  0.68709767  1
  Cl  Cl8  1  0.68709767  0.07702349  0.22454490  1
  Cl  Cl9  1  0.77545510  0.31290233  0.92297651  1
  Cl  Cl10  1  0.92297651  0.77545510  0.31290233  1
  Cl  Cl11  1  0.31290233  0.92297651  0.77545510  1
loop_
_geom_bond_atom_site_label_1
_geom_bond_atom_site_label_2
_geom_bond_distance
_geom_bond_site_symmetry_2
N0 Sc2 2.227718 1_555
N0 Sc5 2.227718 1_444
N0 Sc0 2.227718 1_555
N0 Sc3 2.227718 1_444
N0 Sc4 2.227718 1_444
N0 Sc1 2.227718 1_555
Cl0 Sc6 2.550497 1_555
Cl0 Sc2 2.566095 1_555
Cl0 Sc0 2.583390 1_555
Cl1 Sc6 2.550496 1_555
Cl1 Sc0 2.566096 1_555
Cl1 Sc1 2.583390 1_555
Cl2 Sc6 2.550496 1_555
Cl2 Sc1 2.566095 1_555
Cl2 Sc2 2.583390 1_555
Cl3 Sc6 2.550497 1_555
Cl3 Sc5 2.566095 1_555
Cl3 Sc3 2.583390 1_555
Cl4 Sc6 2.550496 1_555
Cl4 Sc3 2.566096 1_555
Cl4 Sc4 2.583390 1_555
Cl5 Sc6 2.550496 1_555
Cl5 Sc4 2.566095 1_555
Cl5 Sc5 2.583390 1_555
Cl6 Sc5 2.530833 1_454
Cl6 Sc0 2.562208 1_565
Cl6 Sc2 2.821823 1_555
Cl7 Sc4 2.530832 1_445
Cl7 Sc2 2.562209 1_556
Cl7 Sc1 2.821823 1_555
Cl8 Sc3 2.530833 1_544
Cl8 Sc1 2.562208 1_655
Cl8 Sc0 2.821823 1_555
Cl9 Sc2 2.530833 1_656
Cl9 Sc3 2.562208 1_545
Cl9 Sc5 2.821823 1_555
Cl10 Sc1 2.530832 1_665
Cl10 Sc5 2.562209 1_554
Cl10 Sc4 2.821823 1_555
Cl11 Sc0 2.530833 1_566
Cl11 Sc4 2.562208 1_455
Cl11 Sc3 2.821823 1_555
