# generated using pymatgen
data_MgCr4O12
_symmetry_space_group_name_H-M   'P 1'
_cell_length_a   5.88785392
_cell_length_b   10.66765500
_cell_length_c   5.52064011
_cell_angle_alpha   90.00000000
_cell_angle_beta   90.15804875
_cell_angle_gamma   90.00000000
_symmetry_Int_Tables_number   1
_chemical_formula_structural   MgCr4O12
_chemical_formula_sum   'Mg1 Cr4 O12'
_cell_volume   346.74784630
_cell_formula_units_Z   1
loop_
 _symmetry_equiv_pos_site_id
 _symmetry_equiv_pos_as_xyz
  1  'x, y, z'
loop_
 _atom_site_type_symbol
 _atom_site_label
 _atom_site_symmetry_multiplicity
 _atom_site_fract_x
 _atom_site_fract_y
 _atom_site_fract_z
 _atom_site_occupancy
  Mg  Mg0  1  0.46957700  0.75000000  0.93504700  1
  Cr  Cr0  1  0.05036100  0.25000000  0.92528400  1
  Cr  Cr1  1  0.45257100  0.75000000  0.45599600  1
  Cr  Cr2  1  0.54955400  0.25000000  0.57199700  1
  Cr  Cr3  1  0.95511700  0.75000000  0.06314200  1
  O  O0  1  0.05840200  0.12957000  0.09529200  1
  O  O1  1  0.05840200  0.37043000  0.09529200  1
  O  O2  1  0.29095400  0.25000000  0.73580900  1
  O  O3  1  0.24378700  0.75000000  0.20525100  1
  O  O4  1  0.45148300  0.62758500  0.64099600  1
  O  O5  1  0.45148300  0.87241500  0.64099600  1
  O  O6  1  0.55651300  0.12940400  0.40216400  1
  O  O7  1  0.55651300  0.37059600  0.40216400  1
  O  O8  1  0.78997100  0.25000000  0.76221900  1
  O  O9  1  0.67532200  0.75000000  0.22440200  1
  O  O10  1  0.93978600  0.87631400  0.90114100  1
  O  O11  1  0.93978600  0.62368600  0.90114100  1
loop_
_geom_bond_atom_site_label_1
_geom_bond_atom_site_label_2
_geom_bond_distance
_geom_bond_site_symmetry_2
Mg0 O3 2.000865 1_556
Mg0 O9 2.002142 1_556
Mg0 O4 2.085902 1_555
Mg0 O5 2.085902 1_555
Cr0 O1 1.591649 1_556
Cr0 O0 1.591649 1_556
Cr0 O2 1.763244 1_555
Cr0 O8 1.775753 1_455
Cr1 O4 1.657858 1_555
Cr1 O5 1.657858 1_555
Cr1 O9 1.834130 1_555
Cr1 O3 1.848777 1_555
Cr2 O7 1.592477 1_555
Cr2 O6 1.592477 1_555
Cr2 O8 1.760216 1_555
Cr2 O2 1.773062 1_555
Cr3 O11 1.619645 1_554
Cr3 O10 1.619645 1_554
Cr3 O3 1.870009 1_655
Cr3 O9 1.874714 1_555
