# generated using pymatgen
data_MgSc2V2O7
_symmetry_space_group_name_H-M   'P 1'
_cell_length_a   5.70494058
_cell_length_b   5.70481716
_cell_length_c   5.32972792
_cell_angle_alpha   82.75094716
_cell_angle_beta   97.38288738
_cell_angle_gamma   66.65291845
_symmetry_Int_Tables_number   1
_chemical_formula_structural   MgSc2V2O7
_chemical_formula_sum   'Mg1 Sc2 V2 O7'
_cell_volume   154.91981157
_cell_formula_units_Z   1
loop_
 _symmetry_equiv_pos_site_id
 _symmetry_equiv_pos_as_xyz
  1  'x, y, z'
loop_
 _atom_site_type_symbol
 _atom_site_label
 _atom_site_symmetry_multiplicity
 _atom_site_fract_x
 _atom_site_fract_y
 _atom_site_fract_z
 _atom_site_occupancy
  Mg  Mg0  1  0.21365300  0.21654800  0.99986100  1
  Sc  Sc0  1  0.33017500  0.33060300  0.50023400  1
  Sc  Sc1  1  0.68093700  0.68185500  0.50015000  1
  V  V0  1  0.25626800  0.74190400  0.87644600  1
  V  V1  1  0.74060600  0.25604300  0.12370200  1
  O  O0  1  0.06162600  0.55144300  0.72479500  1
  O  O1  1  0.40371400  0.97743600  0.72752900  1
  O  O2  1  0.44983700  0.56605000  0.23935800  1
  O  O3  1  0.56566800  0.45084000  0.76087300  1
  O  O4  1  0.00969200  0.01098400  0.99937400  1
  O  O5  1  0.54969100  0.06229900  0.27496600  1
  O  O6  1  0.97622800  0.40399600  0.27271000  1
loop_
_geom_bond_atom_site_label_1
_geom_bond_atom_site_label_2
_geom_bond_distance
_geom_bond_site_symmetry_2
Mg0 O4 1.952102 1_555
Mg0 O0 2.050505 1_555
Mg0 O5 2.052870 1_556
Mg0 O6 2.200804 1_456
Mg0 O1 2.207931 1_545
O0 V0 2.003536 1_555
O0 Sc1 2.128388 1_455
O0 Sc0 2.165362 1_555
O1 V0 1.985253 1_555
O1 Sc0 2.070328 1_565
O1 Sc1 2.389104 1_555
O2 V0 2.012564 1_554
O2 V1 2.114717 1_555
O2 Sc1 2.134892 1_555
O2 Sc0 2.168588 1_555
O3 V1 2.013234 1_556
O3 V0 2.113454 1_555
O3 Sc1 2.135375 1_555
O3 Sc0 2.167108 1_555
O4 V0 1.882446 1_545
O4 V1 1.882636 1_456
O5 V1 2.003194 1_555
O5 Sc1 2.129596 1_545
O5 Sc0 2.164142 1_555
O6 V1 1.985974 1_555
O6 Sc0 2.072591 1_655
O6 Sc1 2.390233 1_555
