# generated using pymatgen
data_Rb4MgCuSi2O7
_symmetry_space_group_name_H-M   'P 1'
_cell_length_a   6.19869103
_cell_length_b   8.32689808
_cell_length_c   7.24567469
_cell_angle_alpha   121.33022995
_cell_angle_beta   104.26944259
_cell_angle_gamma   96.06178632
_symmetry_Int_Tables_number   1
_chemical_formula_structural   Rb4MgCuSi2O7
_chemical_formula_sum   'Rb4 Mg1 Cu1 Si2 O7'
_cell_volume   297.00176664
_cell_formula_units_Z   1
loop_
 _symmetry_equiv_pos_site_id
 _symmetry_equiv_pos_as_xyz
  1  'x, y, z'
loop_
 _atom_site_type_symbol
 _atom_site_label
 _atom_site_symmetry_multiplicity
 _atom_site_fract_x
 _atom_site_fract_y
 _atom_site_fract_z
 _atom_site_occupancy
  Rb  Rb0  1  0.29666779  0.21478501  0.82919077  1
  Rb  Rb1  1  0.68457230  0.92660349  0.27866138  1
  Rb  Rb2  1  0.83307953  0.34368793  0.20397459  1
  Rb  Rb3  1  0.97836221  0.53918701  0.80705015  1
  Mg  Mg0  1  0.26442122  0.76962696  0.46215257  1
  Cu  Cu0  1  0.45484368  0.47315749  0.42739915  1
  Si  Si0  1  0.18740196  0.08321902  0.27142236  1
  Si  Si1  1  0.84970048  0.90179188  0.74300380  1
  O  O0  1  0.40909272  0.19790909  0.25242613  1
  O  O1  1  0.01384665  0.79150799  0.59507781  1
  O  O2  1  0.09220797  0.24072536  0.46049676  1
  O  O3  1  0.82933914  0.10276622  0.76603883  1
  O  O4  1  0.25081504  0.92066908  0.32483743  1
  O  O5  1  0.57720084  0.75240317  0.62542367  1
  O  O6  1  0.96594848  0.94566430  0.00840060  1
loop_
_geom_bond_atom_site_label_1
_geom_bond_atom_site_label_2
_geom_bond_distance
_geom_bond_site_symmetry_2
Mg0 O4 1.965000 1_555
Mg0 O1 1.997022 1_555
Mg0 O5 2.069688 1_555
Cu0 O0 1.898557 1_555
Cu0 O5 1.913699 1_555
Cu0 Rb3 3.471300 1_555
O0 Si0 1.664982 1_555
O0 Rb2 2.954356 1_555
O0 Rb1 3.026070 1_545
O0 Rb0 3.053672 1_554
O1 Si1 1.654925 1_455
O1 Rb0 3.063496 1_565
O1 Rb2 3.123159 1_455
O1 Rb3 3.201018 1_455
O2 Si0 1.624369 1_555
O2 Rb2 2.691859 1_455
O2 Rb3 2.780988 1_455
O2 Rb0 2.788969 1_555
O2 Rb1 2.888156 1_445
O3 Si1 1.615206 1_545
O3 Rb2 2.725407 1_556
O3 Rb0 2.793395 1_655
O3 Rb1 2.863642 1_545
O3 Rb3 3.490056 1_555
O4 Si0 1.648792 1_565
O4 Rb1 2.788590 1_555
O4 Rb0 3.076832 1_565
O4 Rb3 3.219952 1_454
O5 Si1 1.694440 1_555
O6 Si1 1.697440 1_554
O6 Si0 1.713621 1_665
O6 Rb3 2.926714 1_554
O6 Rb1 2.974959 1_555
