# generated using pymatgen
data_Sr8MgZn4(WO6)4
_symmetry_space_group_name_H-M   'P 1'
_cell_length_a   7.88277603
_cell_length_b   8.72956323
_cell_length_c   8.02825063
_cell_angle_alpha   86.73503209
_cell_angle_beta   90.33034769
_cell_angle_gamma   90.88499324
_symmetry_Int_Tables_number   1
_chemical_formula_structural   Sr8MgZn4(WO6)4
_chemical_formula_sum   'Sr8 Mg1 Zn4 W4 O24'
_cell_volume   551.48042958
_cell_formula_units_Z   1
loop_
 _symmetry_equiv_pos_site_id
 _symmetry_equiv_pos_as_xyz
  1  'x, y, z'
loop_
 _atom_site_type_symbol
 _atom_site_label
 _atom_site_symmetry_multiplicity
 _atom_site_fract_x
 _atom_site_fract_y
 _atom_site_fract_z
 _atom_site_occupancy
  Sr  Sr0  1  0.74476600  0.50761100  0.46518900  1
  Sr  Sr1  1  0.24851800  0.49488500  0.52310400  1
  Sr  Sr2  1  0.74888200  0.97495000  0.47569400  1
  Sr  Sr3  1  0.24312800  0.01514500  0.53076200  1
  Sr  Sr4  1  0.74158400  0.48234600  0.97904900  1
  Sr  Sr5  1  0.25125800  0.50091300  0.04404600  1
  Sr  Sr6  1  0.22089600  0.09370500  0.03267200  1
  Sr  Sr7  1  0.75844800  0.94691100  0.97586000  1
  Mg  Mg0  1  0.31928500  0.83042300  0.90859200  1
  Zn  Zn0  1  0.98628400  0.27968900  0.75038300  1
  Zn  Zn1  1  0.00877400  0.73531400  0.24302400  1
  Zn  Zn2  1  0.50564600  0.22302100  0.25486800  1
  Zn  Zn3  1  0.52663400  0.69611900  0.70897300  1
  W  W0  1  0.98386000  0.26356300  0.26897900  1
  W  W1  1  0.00713400  0.72505600  0.74323200  1
  W  W2  1  0.50275800  0.23681600  0.75956300  1
  W  W3  1  0.49417000  0.76650200  0.24298400  1
  O  O0  1  0.95437000  0.05241900  0.22058900  1
  O  O1  1  0.09368500  0.93673900  0.80941100  1
  O  O2  1  0.01646300  0.30705000  0.02448500  1
  O  O3  1  0.96947300  0.68110800  0.98217300  1
  O  O4  1  0.02548900  0.48652800  0.29778500  1
  O  O5  1  0.94530700  0.50209600  0.70215400  1
  O  O6  1  0.96307300  0.21098900  0.50438300  1
  O  O7  1  0.04412600  0.77726700  0.50640600  1
  O  O8  1  0.74449000  0.31043900  0.24850900  1
  O  O9  1  0.26032200  0.65972400  0.77107800  1
  O  O10  1  0.74089500  0.20519000  0.80569400  1
  O  O11  1  0.24577400  0.80115300  0.15757000  1
  O  O12  1  0.76018300  0.78724600  0.71666200  1
  O  O13  1  0.23633300  0.23965700  0.29003400  1
  O  O14  1  0.52766500  0.99343300  0.21007000  1
  O  O15  1  0.45390200  0.02158600  0.82369400  1
  O  O16  1  0.46761100  0.29335400  0.99555500  1
  O  O17  1  0.53167400  0.72317200  0.99363000  1
  O  O18  1  0.52255100  0.19310000  0.52666700  1
  O  O19  1  0.46095800  0.80247000  0.49084500  1
  O  O20  1  0.45574900  0.55005600  0.28973000  1
  O  O21  1  0.54210600  0.45914700  0.70279100  1
  O  O22  1  0.75108900  0.75099600  0.28031900  1
  O  O23  1  0.25301900  0.26128000  0.73029200  1
loop_
_geom_bond_atom_site_label_1
_geom_bond_atom_site_label_2
_geom_bond_distance
_geom_bond_site_symmetry_2
Mg0 O9 1.953304 1_555
Mg0 O17 2.026842 1_555
Mg0 O15 2.049263 1_565
Mg0 O11 2.084973 1_556
Mg0 O1 2.146717 1_555
O0 W0 1.915624 1_555
O0 Sr6 2.602149 1_655
O0 Sr2 2.668762 1_545
O0 Sr7 2.687180 1_544
O1 W1 2.056989 1_555
O1 Sr6 2.512448 1_566
O1 Sr3 2.586840 1_565
O1 Sr7 2.972941 1_455
O2 W0 1.995221 1_455
O2 Zn0 2.237897 1_454
O2 Sr6 2.479388 1_555
O2 Sr5 2.498886 1_555
O2 Sr4 2.683196 1_454
O3 W1 1.958144 1_655
O3 Zn1 2.192336 1_656
O3 Sr4 2.479197 1_555
O3 Sr5 2.767905 1_656
O3 Sr7 2.873767 1_555
O4 W0 1.995058 1_455
O4 Zn1 2.196984 1_555
O4 Sr1 2.518487 1_555
O4 Sr0 2.609976 1_455
O4 Sr5 2.708969 1_555
O5 Zn0 1.988980 1_555
O5 W1 2.043648 1_655
O5 Sr0 2.465305 1_555
O5 Sr4 2.745771 1_555
O5 Sr1 2.799574 1_655
O6 W0 1.926548 1_555
O6 Zn0 2.102600 1_555
O6 Sr2 2.663014 1_545
O6 Sr3 2.812685 1_655
O7 W1 1.952250 1_555
O7 Zn1 2.182004 1_555
O7 Sr3 2.598702 1_565
O7 Sr2 2.919639 1_455
O7 Sr1 2.961924 1_555
O8 W0 1.940996 1_555
O8 Zn2 2.020398 1_555
O8 Sr0 2.515869 1_555
O8 Sr4 2.561851 1_554
O9 W1 2.091423 1_555
O9 Zn3 2.174840 1_555
O9 Sr1 2.522422 1_555
O9 Sr5 2.526308 1_556
O10 W2 1.932235 1_555
O10 Zn0 2.073638 1_555
O10 Sr7 2.574020 1_545
O10 Sr4 2.858980 1_555
O11 Zn1 2.056192 1_555
O11 W3 2.091618 1_555
O11 Sr6 2.699548 1_565
O11 Sr5 2.824539 1_555
O12 Zn3 1.996248 1_555
O12 W1 2.035776 1_655
O12 Sr2 2.465116 1_555
O12 Sr7 2.569892 1_555
O13 W0 2.009454 1_455
O13 Zn2 2.151453 1_555
O13 Sr6 2.489849 1_555
O13 Sr3 2.673889 1_555
O13 Sr5 2.931998 1_555
O13 Sr1 2.990102 1_555
O14 W3 1.997236 1_555
O14 Zn2 2.066368 1_565
O14 Sr7 2.675672 1_554
O14 Sr2 2.746096 1_555
O14 Sr6 2.919907 1_565
O15 W2 1.952761 1_555
O15 Sr6 2.603130 1_556
O15 Sr7 2.757597 1_545
O15 Sr3 2.874274 1_555
O16 W2 2.006655 1_555
O16 Zn2 2.157259 1_556
O16 Sr5 2.554720 1_556
O16 Sr6 2.598342 1_556
O16 Sr4 2.696656 1_555
O17 W3 2.081950 1_556
O17 Zn3 2.310860 1_555
O17 Sr7 2.625646 1_555
O17 Sr4 2.703527 1_555
O17 Sr5 2.933052 1_556
O18 W2 1.937115 1_555
O18 Zn2 2.186370 1_555
O18 Sr3 2.674928 1_555
O18 Sr2 2.679411 1_545
O19 Zn3 2.003947 1_555
O19 W3 2.050977 1_555
O19 Sr3 2.582742 1_565
O19 Sr2 2.703679 1_555
O19 Sr1 3.141333 1_555
O20 W3 1.924983 1_555
O20 Sr1 2.513759 1_555
O20 Sr5 2.590601 1_555
O20 Sr0 2.691021 1_555
O21 W2 1.988246 1_555
O21 Zn3 2.077561 1_555
O21 Sr0 2.508400 1_555
O21 Sr4 2.726469 1_555
O21 Sr1 2.732548 1_555
O22 W3 2.050997 1_555
O22 Zn1 2.062700 1_655
O22 Sr0 2.521466 1_555
O22 Sr2 2.575524 1_555
O22 Sr7 2.902620 1_554
O23 W2 1.994567 1_555
O23 Zn0 2.118991 1_455
O23 Sr1 2.557697 1_555
O23 Sr3 2.752132 1_555
O23 Sr6 2.772790 1_556
