# generated using pymatgen
data_Sr2InPt2
_symmetry_space_group_name_H-M   'P 1'
_cell_length_a   5.98602978
_cell_length_b   5.98602879
_cell_length_c   8.33579388
_cell_angle_alpha   78.50229655
_cell_angle_beta   78.50230306
_cell_angle_gamma   60.36772960
_symmetry_Int_Tables_number   1
_chemical_formula_structural   Sr2InPt2
_chemical_formula_sum   'Sr4 In2 Pt4'
_cell_volume   252.63173745
_cell_formula_units_Z   2
loop_
 _symmetry_equiv_pos_site_id
 _symmetry_equiv_pos_as_xyz
  1  'x, y, z'
loop_
 _atom_site_type_symbol
 _atom_site_label
 _atom_site_symmetry_multiplicity
 _atom_site_fract_x
 _atom_site_fract_y
 _atom_site_fract_z
 _atom_site_occupancy
  Sr  Sr0  1  0.49454184  0.20978206  0.64698231  1
  Sr  Sr1  1  0.79021794  0.50545816  0.85301769  1
  Sr  Sr2  1  0.50545816  0.79021794  0.35301769  1
  Sr  Sr3  1  0.20978206  0.49454184  0.14698231  1
  In  In0  1  0.13323216  0.86676784  0.75000000  1
  In  In1  1  0.86676784  0.13323216  0.25000000  1
  Pt  Pt0  1  0.72442037  0.00086668  0.00217619  1
  Pt  Pt1  1  0.99913332  0.27557963  0.49782381  1
  Pt  Pt2  1  0.27557963  0.99913332  0.99782381  1
  Pt  Pt3  1  0.00086668  0.72442037  0.50217619  1
loop_
_geom_bond_atom_site_label_1
_geom_bond_atom_site_label_2
_geom_bond_distance
_geom_bond_site_symmetry_2
Sr0 Sr2 3.813654 1_545
Sr0 Sr1 3.838801 1_555
Sr0 Sr1 3.847587 1_545
Sr0 Sr1 3.847588 1_455
Sr0 Sr2 3.853253 1_555
Sr1 Sr3 3.813654 1_656
Sr1 Sr3 3.853254 1_556
Sr2 Sr3 3.838801 1_555
Sr2 Sr3 3.847587 1_565
Sr2 Sr3 3.847588 1_655
In0 Pt3 2.764661 1_555
In0 Pt2 2.764661 1_555
In0 Pt1 2.780496 1_465
In0 Pt0 2.780496 1_466
In0 Sr1 3.523293 1_465
In0 Sr0 3.523294 1_465
In0 Sr1 3.546726 1_455
In0 Sr0 3.546726 1_565
In0 Sr3 3.575003 1_556
In0 Sr2 3.575004 1_555
In0 Sr0 3.616140 1_555
In0 Sr1 3.616140 1_555
In1 Pt1 2.764661 1_555
In1 Pt0 2.764661 1_555
In1 Pt3 2.780496 1_645
In1 Pt2 2.780496 1_644
In1 Sr3 3.523293 1_645
In1 Sr2 3.523294 1_645
In1 Sr3 3.546726 1_655
In1 Sr2 3.546726 1_545
In1 Sr1 3.575003 1_554
In1 Sr0 3.575004 1_555
In1 Sr2 3.616140 1_555
In1 Sr3 3.616140 1_555
Pt0 Pt2 2.699399 1_544
Pt0 Sr1 3.210684 1_554
Pt0 Sr3 3.211905 1_645
Pt0 Sr2 3.239904 1_545
Pt0 Sr1 3.258085 1_544
Pt0 Sr3 3.258457 1_555
Pt0 Sr0 3.266553 1_554
Pt0 Pt2 3.287110 1_644
Pt1 Pt3 2.699399 1_655
Pt1 Sr0 3.210685 1_555
Pt1 Sr2 3.211905 1_645
Pt1 Sr3 3.239904 1_655
Pt1 Sr0 3.258085 1_655
Pt1 Sr2 3.258457 1_555
Pt1 Sr1 3.266553 1_555
Pt1 Pt3 3.287109 1_645
Pt2 Sr3 3.210684 1_556
Pt2 Sr1 3.211905 1_465
Pt2 Sr0 3.239904 1_565
Pt2 Sr3 3.258085 1_566
Pt2 Sr1 3.258457 1_555
Pt2 Sr2 3.266553 1_556
Pt3 Sr2 3.210685 1_555
Pt3 Sr0 3.211905 1_465
Pt3 Sr1 3.239904 1_455
Pt3 Sr2 3.258085 1_455
Pt3 Sr0 3.258457 1_555
Pt3 Sr3 3.266553 1_555
