# generated using pymatgen
data_CaPbO3
_symmetry_space_group_name_H-M   'P 1'
_cell_length_a   5.67798819
_cell_length_b   5.92801194
_cell_length_c   8.17824295
_cell_angle_alpha   90.00000000
_cell_angle_beta   90.00000000
_cell_angle_gamma   90.00000000
_symmetry_Int_Tables_number   1
_chemical_formula_structural   CaPbO3
_chemical_formula_sum   'Ca4 Pb4 O12'
_cell_volume   275.27296614
_cell_formula_units_Z   4
loop_
 _symmetry_equiv_pos_site_id
 _symmetry_equiv_pos_as_xyz
  1  'x, y, z'
loop_
 _atom_site_type_symbol
 _atom_site_label
 _atom_site_symmetry_multiplicity
 _atom_site_fract_x
 _atom_site_fract_y
 _atom_site_fract_z
 _atom_site_occupancy
  Ca  Ca0  1  0.98200795  0.06071201  0.25000000  1
  Ca  Ca1  1  0.48200795  0.43928799  0.75000000  1
  Ca  Ca2  1  0.51799205  0.56071201  0.25000000  1
  Ca  Ca3  1  0.01799205  0.93928799  0.75000000  1
  Pb  Pb0  1  0.50000000  0.00000000  -0.00000000  1
  Pb  Pb1  1  0.00000000  0.50000000  -0.00000000  1
  Pb  Pb2  1  0.00000000  0.50000000  0.50000000  1
  Pb  Pb3  1  0.50000000  0.00000000  0.50000000  1
  O  O0  1  0.68999406  0.30473324  0.43403992  1
  O  O1  1  0.18999406  0.19526676  0.56596008  1
  O  O2  1  0.81000594  0.80473324  0.06596008  1
  O  O3  1  0.31000594  0.69526676  0.93403992  1
  O  O4  1  0.31000594  0.69526676  0.56596008  1
  O  O5  1  0.81000594  0.80473324  0.43403992  1
  O  O6  1  0.18999406  0.19526676  0.93403992  1
  O  O7  1  0.68999406  0.30473324  0.06596008  1
  O  O8  1  0.12623130  0.43997373  0.25000000  1
  O  O9  1  0.62623130  0.06002627  0.75000000  1
  O  O10  1  0.37376870  0.93997373  0.25000000  1
  O  O11  1  0.87376870  0.56002627  0.75000000  1
loop_
_geom_bond_atom_site_label_1
_geom_bond_atom_site_label_2
_geom_bond_distance
_geom_bond_site_symmetry_2
Ca0 O10 2.336727 1_645
Ca0 O2 2.349858 1_545
Ca0 O5 2.349858 1_545
Ca0 O8 2.392761 1_655
Ca0 O0 2.665909 1_555
Ca0 O7 2.665909 1_555
Ca0 O1 2.950916 1_655
Ca0 O6 2.950916 1_654
Ca1 O11 2.336727 1_555
Ca1 O3 2.349858 1_555
Ca1 O4 2.349858 1_555
Ca1 O9 2.392761 1_555
Ca1 O1 2.665909 1_555
Ca1 O6 2.665909 1_555
Ca1 O0 2.950916 1_555
Ca1 O7 2.950916 1_556
Ca2 O8 2.336727 1_555
Ca2 O0 2.349858 1_555
Ca2 O7 2.349858 1_555
Ca2 O10 2.392761 1_555
Ca2 O2 2.665909 1_555
Ca2 O5 2.665909 1_555
Ca2 O3 2.950916 1_554
Ca2 O4 2.950916 1_555
Ca3 O9 2.336727 1_465
Ca3 O1 2.349858 1_565
Ca3 O6 2.349858 1_565
Ca3 O11 2.392761 1_455
Ca3 O4 2.665909 1_555
Ca3 O3 2.665909 1_555
Ca3 O2 2.950916 1_456
Ca3 O5 2.950916 1_455
O0 Pb3 2.172113 1_555
O0 Pb2 2.174682 1_655
O1 Pb2 2.172113 1_555
O1 Pb3 2.174682 1_555
O2 Pb1 2.172113 1_655
O2 Pb0 2.174682 1_565
O3 Pb0 2.172113 1_566
O3 Pb1 2.174682 1_556
O4 Pb3 2.172113 1_565
O4 Pb2 2.174682 1_555
O5 Pb2 2.172113 1_655
O5 Pb3 2.174682 1_565
O6 Pb1 2.172113 1_556
O6 Pb0 2.174682 1_556
O7 Pb0 2.172113 1_555
O7 Pb1 2.174682 1_655
O8 Pb1 2.195578 1_555
O8 Pb2 2.195578 1_555
O9 Pb0 2.195578 1_556
O9 Pb3 2.195578 1_555
O10 Pb0 2.195578 1_565
O10 Pb3 2.195578 1_565
O11 Pb2 2.195578 1_655
O11 Pb1 2.195578 1_656
