# generated using pymatgen
data_Ba2MgNb6(NO7)2
_symmetry_space_group_name_H-M   'P 1'
_cell_length_a   9.16868064
_cell_length_b   10.78654956
_cell_length_c   4.02514201
_cell_angle_alpha   79.24441229
_cell_angle_beta   89.99810820
_cell_angle_gamma   78.67979541
_symmetry_Int_Tables_number   1
_chemical_formula_structural   Ba2MgNb6(NO7)2
_chemical_formula_sum   'Ba2 Mg1 Nb6 N2 O14'
_cell_volume   383.20156351
_cell_formula_units_Z   1
loop_
 _symmetry_equiv_pos_site_id
 _symmetry_equiv_pos_as_xyz
  1  'x, y, z'
loop_
 _atom_site_type_symbol
 _atom_site_label
 _atom_site_symmetry_multiplicity
 _atom_site_fract_x
 _atom_site_fract_y
 _atom_site_fract_z
 _atom_site_occupancy
  Ba  Ba0  1  0.16965500  0.92488400  0.03534500  1
  Ba  Ba1  1  0.82329300  0.23377000  0.88094200  1
  Mg  Mg0  1  0.51891600  0.99598000  0.49988600  1
  Nb  Nb0  1  0.13702900  0.26351200  0.36607400  1
  Nb  Nb1  1  0.23762500  0.46208100  0.76682900  1
  Nb  Nb2  1  0.49586500  0.28323800  0.35613600  1
  Nb  Nb3  1  0.51487000  0.69577900  0.64992500  1
  Nb  Nb4  1  0.77318900  0.52741000  0.23409300  1
  Nb  Nb5  1  0.87408300  0.73761600  0.62880100  1
  N  N0  1  0.73168800  0.57872500  0.70842400  1
  N  N1  1  0.94425800  0.39466600  0.30050900  1
  O  O0  1  0.00665700  0.84831900  0.57362200  1
  O  O1  1  0.14778800  0.27489500  0.86037800  1
  O  O2  1  0.06451100  0.57743900  0.70918900  1
  O  O3  1  0.28200500  0.42158500  0.28706300  1
  O  O4  1  0.35293000  0.15138400  0.42210200  1
  O  O5  1  0.37033900  0.59060800  0.70258600  1
  O  O6  1  0.46419000  0.31019200  0.84272200  1
  O  O7  1  0.38393000  0.86921600  0.56316500  1
  O  O8  1  0.64791500  0.13132500  0.43212400  1
  O  O9  1  0.53867200  0.68993200  0.15281400  1
  O  O10  1  0.64280200  0.39438500  0.30061500  1
  O  O11  1  0.68057600  0.84408100  0.57573700  1
  O  O12  1  0.87454200  0.70021800  0.14764500  1
  O  O13  1  0.04022200  0.11928100  0.43830500  1
loop_
_geom_bond_atom_site_label_1
_geom_bond_atom_site_label_2
_geom_bond_distance
_geom_bond_site_symmetry_2
Ba0 O0 2.725129 1_555
Ba0 O0 2.725281 1_554
Ba0 O7 2.791953 1_555
Ba0 O7 2.791974 1_554
Ba0 O13 2.953455 1_564
Ba0 O13 2.954381 1_565
Ba1 O8 2.917383 1_556
Ba1 O13 2.917550 1_655
Ba1 O8 2.917740 1_555
Ba1 O13 2.918233 1_656
Ba1 O10 2.925782 1_556
Ba1 O10 2.925873 1_555
Ba1 N1 2.990419 1_555
Ba1 N1 2.990639 1_556
Ba1 O1 3.091892 1_655
Ba1 O6 3.229696 1_555
Mg0 O11 1.958224 1_555
Mg0 O7 2.000157 1_555
Mg0 O4 2.006651 1_565
Mg0 O8 2.033187 1_565
Nb0 O13 1.914678 1_555
Nb0 O1 2.019762 1_555
Nb0 O1 2.019782 1_554
Nb0 O4 2.095357 1_555
Nb0 O3 2.337221 1_555
Nb1 O2 1.799542 1_555
Nb1 O5 1.999486 1_555
Nb1 O3 2.080903 1_556
Nb1 O3 2.081019 1_555
Nb1 O1 2.294797 1_555
Nb1 O6 2.360054 1_555
Nb2 O8 1.907426 1_555
Nb2 O10 1.958661 1_555
Nb2 O6 2.045042 1_554
Nb2 O6 2.045544 1_555
Nb2 O4 2.097984 1_555
Nb2 O3 2.201239 1_555
Nb3 O5 1.894285 1_555
Nb3 O7 1.984330 1_555
Nb3 O9 2.023849 1_556
Nb3 O9 2.024115 1_555
Nb3 O11 2.394202 1_555
Nb4 O10 2.022312 1_555
Nb4 O12 2.212927 1_555
Nb4 O9 2.471801 1_555
Nb5 O0 1.850281 1_655
Nb5 O11 1.902844 1_555
Nb5 O12 2.050504 1_555
Nb5 O12 2.051619 1_556
Nb5 O2 2.178386 1_655
N0 Nb4 2.099548 1_555
N0 Nb4 2.099620 1_556
N0 Nb3 2.122545 1_555
N0 Nb5 2.327670 1_555
N1 Nb4 1.886071 1_555
N1 Nb0 2.018410 1_655
