# generated using pymatgen
data_Na4TaIn3Si3(SO8)3
_symmetry_space_group_name_H-M   'P 1'
_cell_length_a   9.08365859
_cell_length_b   9.08930800
_cell_length_c   23.00798407
_cell_angle_alpha   89.96702668
_cell_angle_beta   90.11032171
_cell_angle_gamma   119.85792091
_symmetry_Int_Tables_number   1
_chemical_formula_structural   Na4TaIn3Si3(SO8)3
_chemical_formula_sum   'Na12 Ta3 In9 Si9 S9 O72'
_cell_volume   1647.47930804
_cell_formula_units_Z   3
loop_
 _symmetry_equiv_pos_site_id
 _symmetry_equiv_pos_as_xyz
  1  'x, y, z'
loop_
 _atom_site_type_symbol
 _atom_site_label
 _atom_site_symmetry_multiplicity
 _atom_site_fract_x
 _atom_site_fract_y
 _atom_site_fract_z
 _atom_site_occupancy
  Na  Na0  1  0.63945912  0.00113179  0.25150462  1
  Na  Na1  1  0.36160269  0.36035563  0.25120414  1
  Na  Na2  1  0.99829134  0.63611055  0.25219279  1
  Na  Na3  1  0.30400942  0.34267092  0.58631338  1
  Na  Na4  1  0.66327165  0.96230601  0.58630624  1
  Na  Na5  1  0.29146084  0.95836329  0.08384112  1
  Na  Na6  1  0.00071834  0.98932355  0.50391583  1
  Na  Na7  1  0.98743439  0.00082016  0.98845932  1
  Na  Na8  1  0.66681670  0.33330846  0.82795670  1
  Na  Na9  1  0.66738910  0.33355793  0.32636936  1
  Na  Na10  1  0.33395273  0.65440267  0.17486654  1
  Na  Na11  1  0.31807550  0.66739745  0.65894034  1
  Ta  Ta0  1  0.66882048  0.33483396  0.97121467  1
  Ta  Ta1  1  0.66925577  0.33521930  0.48663817  1
  Ta  Ta2  1  0.33377931  0.66707189  0.82174471  1
  In  In0  1  0.99994322  0.00016919  0.34407131  1
  In  In1  1  0.00127413  0.99975994  0.85444950  1
  In  In2  1  0.00218857  0.99281065  0.64372016  1
  In  In3  1  0.99412835  0.00057084  0.15717165  1
  In  In4  1  0.66929507  0.33677825  0.67951484  1
  In  In5  1  0.66955685  0.33656627  0.18496701  1
  In  In6  1  0.33354399  0.66214571  0.01001543  1
  In  In7  1  0.32530047  0.66627193  0.51879362  1
  In  In8  1  0.33290377  0.66809157  0.31640569  1
  Si  Si0  1  0.29538979  -0.00003970  0.24709388  1
  Si  Si1  1  0.70391331  0.70454171  0.25052120  1
  Si  Si2  1  0.00118007  0.29574200  0.25031727  1
  Si  Si3  1  0.96126618  0.33458765  0.58603973  1
  Si  Si4  1  0.37677159  0.04177916  0.58488273  1
  Si  Si5  1  0.66568858  0.62611331  0.58407676  1
  Si  Si6  1  0.62818964  0.67015030  0.91889989  1
  Si  Si7  1  0.04193931  0.37217274  0.91842015  1
  Si  Si8  1  0.33116022  0.95807540  0.92121420  1
  S  S0  1  0.29738619  0.30296867  0.75073792  1
  S  S1  1  0.00579761  0.70376386  0.75152342  1
  S  S2  1  0.69667083  0.99433525  0.75087336  1
  S  S3  1  0.95772868  0.62398200  0.08067813  1
  S  S4  1  0.66719384  0.04409632  0.08073492  1
  S  S5  1  0.37811653  0.33512065  0.08076205  1
  S  S6  1  0.63454082  0.97154254  0.41832381  1
  S  S7  1  0.33716420  0.36504839  0.41806233  1
  S  S8  1  0.02793853  0.66310681  0.41713076  1
  O  O0  1  0.21876685  0.04995156  0.30250828  1
  O  O1  1  0.82816301  0.77533865  0.30681058  1
  O  O2  1  0.94755031  0.17247551  0.30682356  1
  O  O3  1  0.20884943  0.19429926  0.80085285  1
  O  O4  1  0.98526656  0.78855626  0.80280897  1
  O  O5  1  0.80562017  0.01317407  0.80089246  1
  O  O6  1  0.76700249  0.96903351  0.69563197  1
  O  O7  1  0.20144437  0.23133095  0.69546871  1
  O  O8  1  0.03171421  0.80335350  0.69753650  1
  O  O9  1  0.77021285  0.82432500  0.19232127  1
  O  O10  1  0.05626094  0.22953199  0.19237089  1
  O  O11  1  0.18540849  0.95487436  0.18556718  1
  O  O12  1  0.88931405  0.37164103  0.64426868  1
  O  O13  1  0.49270746  0.11255862  0.64235849  1
  O  O14  1  0.61464511  0.50695969  0.64086598  1
  O  O15  1  0.88262689  0.53411805  0.13574082  1
  O  O16  1  0.64651125  0.12030370  0.13524608  1
  O  O17  1  0.46891781  0.35006397  0.13610542  1
  O  O18  1  0.48045689  0.32334181  0.03103335  1
  O  O19  1  0.84915941  0.52300604  0.03033318  1
  O  O20  1  0.67738064  0.15448724  0.03025245  1
  O  O21  1  0.48175498  0.17099564  0.52768441  1
  O  O22  1  0.68929100  0.52175585  0.52708901  1
  O  O23  1  0.83353230  0.31246309  0.52849193  1
  O  O24  1  0.55720054  0.70295097  0.97773131  1
  O  O25  1  0.14296922  0.44400904  0.97768308  1
  O  O26  1  0.30466990  0.86330895  0.98264278  1
  O  O27  1  0.54780499  0.86699744  0.47009513  1
  O  O28  1  0.31963026  0.45127169  0.47014072  1
  O  O29  1  0.13580136  0.68211670  0.46782242  1
  O  O30  1  0.10113938  0.63763170  0.36274259  1
  O  O31  1  0.53319133  0.89558871  0.36446487  1
  O  O32  1  0.36082181  0.46625505  0.36449598  1
  O  O33  1  0.14073486  0.50464415  0.86222788  1
  O  O34  1  0.36348018  0.85526201  0.86576789  1
  O  O35  1  0.49484189  0.63437981  0.86249973  1
  O  O36  1  0.00839231  0.81505796  0.41491355  1
  O  O37  1  0.80563042  0.99054824  0.41547193  1
  O  O38  1  0.18591705  0.19357418  0.41503425  1
  O  O39  1  0.00216509  0.18405644  0.90650801  1
  O  O40  1  0.18110949  0.99501505  0.90822443  1
  O  O41  1  0.81580880  0.81798456  0.90661288  1
  O  O42  1  0.96002719  0.15360293  0.58563424  1
  O  O43  1  0.20121779  0.04862110  0.58459121  1
  O  O44  1  0.83400197  0.81209960  0.58473843  1
  O  O45  1  0.97135022  0.79469455  0.07947775  1
  O  O46  1  0.82310965  0.03131527  0.08103260  1
  O  O47  1  0.21254525  0.17185247  0.07980857  1
  O  O48  1  0.67447223  0.14582267  0.74914060  1
  O  O49  1  0.47108904  0.32475557  0.74883188  1
  O  O50  1  0.85424442  0.53086867  0.74847909  1
  O  O51  1  0.68028725  0.51522344  0.24345740  1
  O  O52  1  0.83522716  0.31915353  0.24293191  1
  O  O53  1  0.48550319  0.16485038  0.24194241  1
  O  O54  1  0.63283534  0.48738145  0.92637418  1
  O  O55  1  0.85428540  0.36743568  0.92545530  1
  O  O56  1  0.51341841  0.14591614  0.92695039  1
  O  O57  1  0.64867709  0.14425702  0.42405748  1
  O  O58  1  0.49606785  0.35110996  0.42366999  1
  O  O59  1  0.85656030  0.50483580  0.42389743  1
  O  O60  1  0.35649175  0.48476911  0.07710504  1
  O  O61  1  0.13197104  0.64609100  0.07808893  1
  O  O62  1  0.50903382  0.87530734  0.07749348  1
  O  O63  1  0.36479710  0.86084268  0.57427150  1
  O  O64  1  0.50027149  0.64626535  0.57246113  1
  O  O65  1  0.15295936  0.48742853  0.57585671  1
  O  O66  1  0.31289538  0.83071168  0.25640235  1
  O  O67  1  0.51530449  0.68337131  0.25862600  1
  O  O68  1  0.16760113  0.48429295  0.25858284  1
  O  O69  1  0.31171832  0.47602353  0.75826690  1
  O  O70  1  0.16442015  0.68839574  0.75856052  1
  O  O71  1  0.52264315  0.83638656  0.75880069  1
loop_
_geom_bond_atom_site_label_1
_geom_bond_atom_site_label_2
_geom_bond_distance
_geom_bond_site_symmetry_2
Na0 O53 2.507813 1_555
Na0 O67 2.529319 1_545
Na0 O52 2.537566 1_555
Na0 O66 2.576331 1_545
Na0 O2 2.743421 1_555
Na0 O31 2.773368 1_545
Na0 O9 2.785098 1_545
Na0 O16 2.874125 1_555
Na1 O51 2.517451 1_555
Na1 O68 2.526134 1_555
Na1 O53 2.542160 1_555
Na1 O67 2.552767 1_555
Na1 O0 2.719194 1_555
Na1 O10 2.764546 1_555
Na1 O32 2.780426 1_555
Na1 O17 2.841292 1_555
Na2 O66 2.504167 1_655
Na2 O52 2.507921 1_555
Na2 O68 2.530436 1_655
Na2 O51 2.535673 1_555
Na2 O30 2.705652 1_655
Na2 O1 2.743248 1_555
Na2 O15 2.857319 1_555
Na2 O11 2.955486 1_655
Na3 O65 2.338294 1_555
Na3 O43 2.352003 1_555
Na3 O64 2.448943 1_555
Na3 O7 2.695699 1_555
Na3 O42 2.714772 1_455
Na3 O14 2.749607 1_555
Na3 O28 2.828049 1_555
Na4 O42 2.371318 1_565
Na4 O63 2.405362 1_555
Na4 O64 2.511930 1_555
Na4 O44 2.525656 1_555
Na4 O6 2.674383 1_555
Na4 O13 2.836432 1_565
Na4 O27 2.843736 1_555
Na5 O47 2.381692 1_565
Na5 O62 2.446232 1_555
Na5 O61 2.465337 1_555
Na5 O26 2.507742 1_554
Na5 O45 2.523931 1_455
Na5 O11 2.526897 1_555
Na6 O44 2.434054 1_455
Na6 O43 2.462447 1_565
Na6 O42 2.541012 1_465
Na6 O36 2.611766 1_555
Na6 O37 2.699466 1_455
Na6 O38 2.712521 1_565
Na7 O39 2.474361 1_655
Na7 O41 2.480113 1_545
Na7 O40 2.571141 1_645
Na7 O46 2.695617 1_556
Na7 O45 2.764249 1_546
Na7 O47 2.799546 1_656
Na8 O48 2.513822 1_555
Na8 O49 2.516220 1_555
Na8 O50 2.535958 1_555
Na8 O55 2.736490 1_555
Na8 O54 2.760554 1_555
Na8 O56 2.770378 1_555
Na9 O51 2.486749 1_555
Na9 O52 2.497431 1_555
Na9 O53 2.514532 1_555
Na9 O58 2.778499 1_555
Na9 O59 2.781568 1_555
Na9 O57 2.783336 1_555
Na10 O67 2.460361 1_555
Na10 O68 2.462821 1_555
Na10 O66 2.536536 1_555
Na10 O60 2.792603 1_555
Na10 O61 2.859441 1_555
Na10 O62 2.899835 1_555
Na11 O65 2.475723 1_555
Na11 O63 2.514526 1_555
Na11 O64 2.657919 1_555
Na11 O70 2.741562 1_555
Na11 O69 2.854396 1_555
Na11 O71 2.869989 1_555
In0 O2 2.037840 1_555
In0 O1 2.041498 1_545
In0 O0 2.044876 1_655
In0 O36 2.370325 1_645
In0 O38 2.376047 1_655
In0 O37 2.383102 1_545
In1 O39 2.056581 1_565
In1 O41 2.059716 1_455
In1 O40 2.064821 1_555
In1 O4 2.200473 1_455
In1 O3 2.211169 1_565
In1 O5 2.213383 1_465
In2 O44 2.090339 1_455
In2 O43 2.114752 1_565
In2 O42 2.149836 1_465
In2 O8 2.242012 1_555
In2 O7 2.341218 1_565
In2 O6 2.363698 1_455
In3 O9 2.029248 1_545
In3 O10 2.033731 1_655
In3 O11 2.081401 1_645
In3 O46 2.445691 1_555
In3 O45 2.521274 1_545
In3 O47 2.542294 1_655
In4 O12 2.031677 1_555
In4 O14 2.047231 1_555
In4 O13 2.049146 1_555
In4 O50 2.343988 1_555
In4 O49 2.368966 1_555
In4 O48 2.378808 1_555
In5 O52 2.073058 1_555
In5 O51 2.074101 1_555
In5 O53 2.087465 1_555
In5 O15 2.190591 1_555
In5 O16 2.192792 1_555
In5 O17 2.194338 1_555
In6 O25 2.015065 1_554
In6 O24 2.017920 1_554
In6 O26 2.069817 1_554
In6 O60 2.314293 1_555
In6 O61 2.360456 1_555
In6 O62 2.371503 1_555
In7 O63 2.062694 1_555
In7 O65 2.070876 1_555
In7 O64 2.088980 1_555
In7 O29 2.144288 1_555
In7 O28 2.230853 1_555
In7 O27 2.236925 1_555
In8 O67 2.076278 1_555
In8 O68 2.076693 1_555
In8 O66 2.094740 1_555
In8 O31 2.248883 1_555
In8 O30 2.252412 1_555
In8 O32 2.261411 1_555
O0 Si0 1.623406 1_555
O1 Si1 1.624005 1_555
O2 Si2 1.624862 1_655
O3 S0 1.470790 1_555
O4 S1 1.471775 1_655
O5 S2 1.469790 1_545
O6 S2 1.492053 1_555
O7 S0 1.494056 1_555
O8 S1 1.485040 1_555
O9 Si1 1.640034 1_555
O10 Si2 1.641129 1_555
O11 Si0 1.660578 1_565
O12 Si3 1.599547 1_555
O13 Si4 1.610189 1_555
O14 Si5 1.611163 1_555
O15 S3 1.478127 1_555
O16 S4 1.489823 1_555
O17 S5 1.484842 1_555
O18 S5 1.512646 1_555
O18 Ta0 2.159561 1_554
O19 S3 1.500759 1_555
O19 Ta0 2.159465 1_554
O20 S4 1.506996 1_555
O20 Ta0 2.159200 1_554
O21 Si4 1.705456 1_555
O21 Ta1 1.869227 1_555
O22 Si5 1.694068 1_555
O22 Ta1 1.862233 1_555
O23 Si3 1.703499 1_555
O23 Ta1 1.870404 1_555
O24 Si6 1.591278 1_555
O25 Si7 1.589747 1_555
O26 Si8 1.609636 1_555
O27 S6 1.483042 1_555
O28 S7 1.483712 1_555
O29 S8 1.475599 1_555
O30 S8 1.489463 1_555
O31 S6 1.491138 1_555
O32 S7 1.488025 1_555
O33 Si7 1.689211 1_555
O33 Ta2 1.883908 1_555
O34 Si8 1.692013 1_555
O34 Ta2 1.888395 1_555
O35 Si6 1.690896 1_555
O35 Ta2 1.880241 1_555
O36 S8 1.478411 1_555
O37 S6 1.477328 1_555
O38 S7 1.479605 1_555
O39 Si7 1.585649 1_555
O40 Si8 1.585508 1_555
O41 Si6 1.584685 1_555
O42 Si3 1.639484 1_555
O43 Si4 1.626527 1_555
O44 Si5 1.619252 1_555
O45 S3 1.494160 1_555
O46 S4 1.477564 1_555
O47 S5 1.497432 1_555
O48 S2 1.488122 1_545
O49 S0 1.489937 1_555
O50 S1 1.488401 1_655
O51 Si1 1.632791 1_555
O52 Si2 1.632471 1_655
O53 Si0 1.632799 1_555
O54 Si6 1.691309 1_555
O54 Ta0 1.882045 1_555
O55 Si7 1.691637 1_655
O55 Ta0 1.882517 1_555
O56 Si8 1.690649 1_545
O56 Ta0 1.887160 1_555
O57 S6 1.515847 1_545
O57 Ta1 2.190801 1_555
O58 S7 1.515758 1_555
O58 Ta1 2.193609 1_555
O59 S8 1.512611 1_655
O59 Ta1 2.179573 1_555
O60 S5 1.470257 1_555
O61 S3 1.494225 1_455
O62 S4 1.492772 1_565
O63 Si4 1.611939 1_565
O64 Si5 1.623330 1_555
O65 Si3 1.615376 1_455
O66 Si0 1.637297 1_565
O67 Si1 1.637067 1_555
O68 Si2 1.636514 1_555
O69 S0 1.522318 1_555
O69 Ta2 2.200894 1_555
O70 S1 1.523588 1_555
O70 Ta2 2.192158 1_555
O71 S2 1.527868 1_555
O71 Ta2 2.187935 1_555
