# generated using pymatgen
data_Na2Sc3Nb5(PO4)12
_symmetry_space_group_name_H-M   'P 1'
_cell_length_a   17.60222398
_cell_length_b   8.80444332
_cell_length_c   22.89593536
_cell_angle_alpha   89.97050808
_cell_angle_beta   90.00458328
_cell_angle_gamma   119.99028156
_symmetry_Int_Tables_number   1
_chemical_formula_structural   Na2Sc3Nb5(PO4)12
_chemical_formula_sum   'Na6 Sc9 Nb15 P36 O144'
_cell_volume   3073.27145426
_cell_formula_units_Z   3
loop_
 _symmetry_equiv_pos_site_id
 _symmetry_equiv_pos_as_xyz
  1  'x, y, z'
loop_
 _atom_site_type_symbol
 _atom_site_label
 _atom_site_symmetry_multiplicity
 _atom_site_fract_x
 _atom_site_fract_y
 _atom_site_fract_z
 _atom_site_occupancy
  Na  Na0  1  0.33209887  0.33131404  0.82886044  1
  Na  Na1  1  0.83461789  0.33556108  0.82961217  1
  Na  Na2  1  0.33191208  0.33064013  0.32913228  1
  Na  Na3  1  0.83455186  0.33609281  0.32820157  1
  Na  Na4  1  0.66779622  0.66688425  0.16789002  1
  Na  Na5  1  0.16642785  0.66636552  0.66575130  1
  Sc  Sc0  1  0.99856279  0.99796907  0.35643894  1
  Sc  Sc1  1  0.33353946  0.33271341  0.68782694  1
  Sc  Sc2  1  0.83323122  0.33410623  0.68760071  1
  Sc  Sc3  1  0.33303281  0.33260635  0.18847326  1
  Sc  Sc4  1  0.83347425  0.33406642  0.18813351  1
  Sc  Sc5  1  0.66707740  0.66771972  0.01985942  1
  Sc  Sc6  1  0.16700068  0.66586078  0.51870127  1
  Sc  Sc7  1  0.66866964  0.66883960  0.31113287  1
  Sc  Sc8  1  0.16619526  0.66649160  0.81084153  1
  Nb  Nb0  1  0.50116315  0.00218087  0.35671049  1
  Nb  Nb1  1  0.00178604  0.00028683  0.85636492  1
  Nb  Nb2  1  0.49831755  0.99945592  0.85659711  1
  Nb  Nb3  1  0.00111662  0.00106064  0.64179869  1
  Nb  Nb4  1  0.49889395  0.99920153  0.64158374  1
  Nb  Nb5  1  0.99877076  0.99890328  0.14632307  1
  Nb  Nb6  1  0.50096774  0.00042500  0.14378833  1
  Nb  Nb7  1  0.33491746  0.33671877  0.98113506  1
  Nb  Nb8  1  0.83174498  0.32940270  0.98133440  1
  Nb  Nb9  1  0.33012596  0.33306020  0.47870091  1
  Nb  Nb10  1  0.83679260  0.33457505  0.47864869  1
  Nb  Nb11  1  0.16608872  0.66542153  0.02271216  1
  Nb  Nb12  1  0.66729146  0.66906504  0.52163078  1
  Nb  Nb13  1  0.16430430  0.66373660  0.30885929  1
  Nb  Nb14  1  0.66727898  0.66683956  0.80851890  1
  P  P0  1  0.14359901  0.00250706  0.25146769  1
  P  P1  1  0.64336692  -0.00050071  0.25029529  1
  P  P2  1  0.35787011  0.71475084  0.25114925  1
  P  P3  1  0.85511234  0.71021293  0.25100419  1
  P  P4  1  0.99828832  0.28413959  0.25155839  1
  P  P5  1  0.50023789  0.28680497  0.24997569  1
  P  P6  1  0.14330818  0.28683696  0.74962683  1
  P  P7  1  0.64225158  0.28228951  0.75041862  1
  P  P8  1  -0.00008868  0.71374035  0.74946865  1
  P  P9  1  0.49913923  0.71532769  0.75056080  1
  P  P10  1  0.35663439  0.99935668  0.74948975  1
  P  P11  1  0.85896552  0.00315915  0.75061460  1
  P  P12  1  0.47628011  0.33494642  0.58307285  1
  P  P13  1  0.97833088  0.33680010  0.58533957  1
  P  P14  1  0.19035940  0.04331117  0.58472781  1
  P  P15  1  0.69096744  0.04824474  0.58386142  1
  P  P16  1  0.33128186  0.61829245  0.58497247  1
  P  P17  1  0.83310013  0.61890361  0.58359223  1
  P  P18  1  0.47861586  0.62115026  0.08562247  1
  P  P19  1  0.97653166  0.62213180  0.08368648  1
  P  P20  1  0.33364157  0.04605226  0.08395287  1
  P  P21  1  0.83250204  0.04262466  0.08549115  1
  P  P22  1  0.18910208  0.33142276  0.08437192  1
  P  P23  1  0.68917232  0.33594615  0.08494760  1
  P  P24  1  0.30915016  0.66478281  0.91624022  1
  P  P25  1  0.80982068  0.66445491  0.91608920  1
  P  P26  1  0.02258538  0.38024729  0.91618205  1
  P  P27  1  0.52313672  0.38181660  0.91606242  1
  P  P28  1  0.16834901  0.95484650  0.91649502  1
  P  P29  1  0.66712170  0.95373302  0.91581419  1
  P  P30  1  0.30928482  0.95393226  0.41582848  1
  P  P31  1  0.81023137  0.95346359  0.41647631  1
  P  P32  1  0.16551244  0.37960410  0.41635434  1
  P  P33  1  0.66799655  0.38132792  0.41651643  1
  P  P34  1  0.02390982  0.66818934  0.41678251  1
  P  P35  1  0.52298012  0.66481721  0.41600208  1
  O  O0  1  0.10213805  0.02861611  0.30498744  1
  O  O1  1  0.59551905  0.02035115  0.30479292  1
  O  O2  1  0.41561652  0.80791063  0.30545724  1
  O  O3  1  0.91065371  0.79578247  0.30422692  1
  O  O4  1  0.49017270  0.17074687  0.30460767  1
  O  O5  1  0.98564280  0.17616955  0.30523259  1
  O  O6  1  0.09544123  0.17058379  0.80480200  1
  O  O7  1  0.59574587  0.16977188  0.80517401  1
  O  O8  1  0.48892485  0.80817642  0.80525742  1
  O  O9  1  0.99024081  0.80983086  0.80465533  1
  O  O10  1  0.41444586  0.01843672  0.80441082  1
  O  O11  1  0.91527331  0.02330819  0.80560777  1
  O  O12  1  0.40490735  0.97894888  0.69489140  1
  O  O13  1  0.89943371  0.97093436  0.69599202  1
  O  O14  1  0.08492238  0.19133306  0.69522722  1
  O  O15  1  0.58574221  0.19993274  0.69557269  1
  O  O16  1  0.00995655  0.82895243  0.69486714  1
  O  O17  1  0.51499954  0.83020185  0.69597379  1
  O  O18  1  0.40041423  0.82857693  0.19596379  1
  O  O19  1  0.90449289  0.83008685  0.19448677  1
  O  O20  1  0.01429342  0.19958997  0.19545013  1
  O  O21  1  0.50987884  0.19063295  0.19484042  1
  O  O22  1  0.08623872  0.97264896  0.19505907  1
  O  O23  1  0.58492708  0.97901104  0.19522944  1
  O  O24  1  0.43963082  0.36938545  0.63768249  1
  O  O25  1  0.93485388  0.36166983  0.63870918  1
  O  O26  1  0.24567391  0.12939561  0.63834083  1
  O  O27  1  0.74535488  0.12114247  0.63828647  1
  O  O28  1  0.32001761  0.51013709  0.63894206  1
  O  O29  1  0.81461930  0.50786752  0.63760915  1
  O  O30  1  0.43493867  0.50721010  0.13828428  1
  O  O31  1  0.93993141  0.50922024  0.13684221  1
  O  O32  1  0.31444700  0.12136158  0.13697441  1
  O  O33  1  0.81908440  0.12896493  0.13827397  1
  O  O34  1  0.24607516  0.37175397  0.13741692  1
  O  O35  1  0.74557349  0.36182364  0.13774607  1
  O  O36  1  0.23445162  0.30564934  0.02867352  1
  O  O37  1  0.73413990  0.30584491  0.02890590  1
  O  O38  1  0.41904328  0.53061588  0.02950626  1
  O  O39  1  0.91816135  0.53265270  0.02799839  1
  O  O40  1  0.34779641  0.16300548  0.02839816  1
  O  O41  1  0.84635847  0.16248792  0.02915009  1
  O  O42  1  0.23382064  0.16227939  0.52908162  1
  O  O43  1  0.73305488  0.16290929  0.52907495  1
  O  O44  1  0.34714363  0.53254481  0.52952863  1
  O  O45  1  0.84830888  0.53313025  0.52875071  1
  O  O46  1  0.41806335  0.30281722  0.52832880  1
  O  O47  1  0.91937582  0.30596236  0.52982047  1
  O  O48  1  0.26686433  0.69312924  0.97120337  1
  O  O49  1  0.77252163  0.69879974  0.97044521  1
  O  O50  1  0.07990009  0.46677266  0.97112095  1
  O  O51  1  0.57680498  0.45482476  0.97073377  1
  O  O52  1  0.15375905  0.84019374  0.97125123  1
  O  O53  1  0.65022530  0.84655765  0.97051737  1
  O  O54  1  0.27386438  0.84879355  0.47104360  1
  O  O55  1  0.76134073  0.83796770  0.47157076  1
  O  O56  1  0.15603013  0.46358928  0.47140879  1
  O  O57  1  0.65318677  0.46652295  0.47144708  1
  O  O58  1  0.07675588  0.68953424  0.47138853  1
  O  O59  1  0.57929261  0.69252161  0.47135828  1
  O  O60  1  0.06675756  0.63256813  0.36178137  1
  O  O61  1  0.56028173  0.62797585  0.36192670  1
  O  O62  1  0.25180165  0.87040470  0.36121229  1
  O  O63  1  0.75179050  0.88006086  0.36299307  1
  O  O64  1  0.18410586  0.50105747  0.36171065  1
  O  O65  1  0.68543810  0.49126364  0.36211991  1
  O  O66  1  0.06046162  0.49209211  0.86219967  1
  O  O67  1  0.56618739  0.49719278  0.86119353  1
  O  O68  1  0.18596069  0.87986112  0.86220305  1
  O  O69  1  0.68208984  0.86670171  0.86118160  1
  O  O70  1  0.25406967  0.62862758  0.86195014  1
  O  O71  1  0.75122060  0.63576283  0.86125438  1
  O  O72  1  0.00891652  0.81924082  0.40759928  1
  O  O73  1  0.51174819  0.82788225  0.40798050  1
  O  O74  1  0.40242934  0.98035950  0.40343359  1
  O  O75  1  0.90012172  0.97638207  0.41333619  1
  O  O76  1  0.09026930  0.19825934  0.40707918  1
  O  O77  1  0.58613560  0.19583380  0.40830224  1
  O  O78  1  0.01173658  0.19500683  0.90802375  1
  O  O79  1  0.50988523  0.19608250  0.90383320  1
  O  O80  1  0.08634112  0.97651794  0.90830334  1
  O  O81  1  0.58769131  0.98033209  0.90329782  1
  O  O82  1  0.40225385  0.82780814  0.90822924  1
  O  O83  1  0.90215389  0.82445583  0.90337919  1
  O  O84  1  0.48821947  0.17123367  0.59209111  1
  O  O85  1  0.98406190  0.16538818  0.59335091  1
  O  O86  1  0.09833575  0.03061107  0.59246123  1
  O  O87  1  0.59769846  0.02523756  0.59288940  1
  O  O88  1  0.41724413  0.80369939  0.59321880  1
  O  O89  1  0.91444229  0.80419989  0.59222103  1
  O  O90  1  0.48391918  0.80231968  0.09266336  1
  O  O91  1  0.98862759  0.80652748  0.09091265  1
  O  O92  1  0.41449215  0.02405499  0.09134372  1
  O  O93  1  0.91752628  0.03123669  0.09249684  1
  O  O94  1  0.09769023  0.17060322  0.09147761  1
  O  O95  1  0.59792139  0.16532560  0.09207279  1
  O  O96  1  0.35171628  0.16687983  0.74634175  1
  O  O97  1  0.84597934  0.16073476  0.74690289  1
  O  O98  1  0.23274702  0.29893110  0.74665094  1
  O  O99  1  0.73351049  0.30633139  0.74652348  1
  O  O100  1  0.41977659  0.53300304  0.74683787  1
  O  O101  1  0.91658557  0.53487052  0.74628747  1
  O  O102  1  0.34715741  0.53272101  0.24665495  1
  O  O103  1  0.84657634  0.53013561  0.24264134  1
  O  O104  1  0.41689980  0.29840371  0.24602290  1
  O  O105  1  0.92102225  0.31395186  0.24338016  1
  O  O106  1  0.23585318  0.15798746  0.24277100  1
  O  O107  1  0.73241509  0.16538509  0.24665340  1
  O  O108  1  0.32318855  0.50481883  0.92750561  1
  O  O109  1  0.82140966  0.50056881  0.92288238  1
  O  O110  1  0.42907001  0.35728165  0.92301567  1
  O  O111  1  0.92908730  0.35374202  0.92779595  1
  O  O112  1  0.24805438  0.14254236  0.92799024  1
  O  O113  1  0.74925162  0.14121991  0.92279294  1
  O  O114  1  0.32199135  0.14304819  0.42349361  1
  O  O115  1  0.81902523  0.13877285  0.42888790  1
  O  O116  1  0.25218139  0.36398965  0.42446281  1
  O  O117  1  0.74785474  0.35440081  0.42798106  1
  O  O118  1  0.42956402  0.50463903  0.42792795  1
  O  O119  1  0.92991459  0.49496312  0.42424805  1
  O  O120  1  0.17748263  0.49258110  0.06962390  1
  O  O121  1  0.67602219  0.49149182  0.07586171  1
  O  O122  1  0.06900320  0.64560762  0.06941794  1
  O  O123  1  0.56949448  0.64728620  0.07617756  1
  O  O124  1  0.25369762  0.86187644  0.06960743  1
  O  O125  1  0.75439822  0.86101251  0.07598713  1
  O  O126  1  0.17633803  0.86040273  0.57666023  1
  O  O127  1  0.67636584  0.86152523  0.57099697  1
  O  O128  1  0.25460823  0.64912110  0.57733403  1
  O  O129  1  0.75373942  0.64548777  0.57015656  1
  O  O130  1  0.07011469  0.49159416  0.57735001  1
  O  O131  1  0.56897927  0.49200477  0.57004029  1
  O  O132  1  0.15105998  0.83221629  0.25941952  1
  O  O133  1  0.64796404  0.83171752  0.25369160  1
  O  O134  1  0.26734377  0.70117804  0.26075450  1
  O  O135  1  0.76513938  0.69916602  0.25131041  1
  O  O136  1  0.08395712  0.46940402  0.25893005  1
  O  O137  1  0.58342189  0.46485554  0.25390610  1
  O  O138  1  0.14886370  0.46459509  0.75409388  1
  O  O139  1  0.64943504  0.46562432  0.76100423  1
  O  O140  1  0.08316950  0.70184074  0.75401109  1
  O  O141  1  0.58349853  0.70100898  0.76110423  1
  O  O142  1  0.26774210  0.83323439  0.75380748  1
  O  O143  1  0.76708439  0.83353837  0.76118836  1
loop_
_geom_bond_atom_site_label_1
_geom_bond_atom_site_label_2
_geom_bond_distance
_geom_bond_site_symmetry_2
Na0 O98 2.486788 1_555
Na0 O96 2.507496 1_555
Na0 O100 2.513813 1_555
Na0 O110 2.687553 1_555
Na0 O112 2.764217 1_555
Na0 O108 2.775335 1_555
Na1 O101 2.503324 1_555
Na1 O97 2.511216 1_555
Na1 O99 2.528794 1_555
Na1 O109 2.658199 1_555
Na1 O113 2.676512 1_555
Na1 O111 2.752813 1_555
Na2 O102 2.514547 1_555
Na2 O104 2.522870 1_555
Na2 O106 2.551970 1_555
Na2 O114 2.670990 1_555
Na2 O116 2.689435 1_555
Na2 O118 2.790819 1_555
Na3 O107 2.505663 1_555
Na3 O105 2.534523 1_555
Na3 O103 2.536985 1_555
Na3 O119 2.695452 1_555
Na3 O117 2.796578 1_555
Na3 O115 2.815783 1_555
Na4 O135 2.485547 1_555
Na4 O133 2.568432 1_555
Na4 O137 2.569862 1_555
Na4 O125 2.657982 1_555
Na4 O121 2.659382 1_555
Na4 O123 2.671042 1_555
Na5 O130 2.594868 1_555
Na5 O128 2.601322 1_555
Na5 O142 2.605150 1_555
Na5 O140 2.605315 1_555
Na5 O138 2.605771 1_555
Na5 O126 2.609300 1_555
Nb0 O74 1.966728 1_545
Nb0 O1 1.982826 1_555
Nb0 O4 1.987045 1_555
Nb0 O77 1.997965 1_555
Nb0 O2 1.999274 1_545
Nb0 O73 2.012872 1_545
Nb1 O6 1.971550 1_555
Nb1 O83 1.978726 1_445
Nb1 O9 1.978939 1_445
Nb1 O80 1.995993 1_545
Nb1 O11 2.004657 1_455
Nb1 O78 2.017591 1_555
Nb2 O79 1.964088 1_565
Nb2 O10 1.970103 1_565
Nb2 O81 1.977599 1_555
Nb2 O8 1.992220 1_555
Nb2 O82 1.996115 1_555
Nb2 O7 2.000882 1_565
Nb3 O86 1.956300 1_555
Nb3 O85 1.961209 1_455
Nb3 O89 1.994613 1_445
Nb3 O14 2.002572 1_555
Nb3 O16 2.007621 1_545
Nb3 O13 2.083005 1_445
Nb4 O88 1.945056 1_555
Nb4 O84 1.973896 1_565
Nb4 O87 1.980350 1_565
Nb4 O12 1.990886 1_555
Nb4 O17 2.065162 1_555
Nb4 O15 2.071095 1_565
Nb5 O19 1.926643 1_555
Nb5 O20 1.995311 1_665
Nb5 O22 2.006060 1_655
Nb5 O93 2.012795 1_565
Nb5 O91 2.051852 1_555
Nb5 O94 2.064200 1_665
Nb6 O23 1.971013 1_545
Nb6 O21 1.983637 1_555
Nb6 O95 1.985938 1_555
Nb6 O90 1.995316 1_545
Nb6 O92 2.029323 1_555
Nb6 O18 2.042148 1_545
Nb7 O38 1.951458 1_556
Nb7 O36 1.975661 1_556
Nb7 O40 1.976486 1_556
Nb7 O108 2.011067 1_555
Nb7 O112 2.032195 1_555
Nb7 O110 2.061627 1_555
Nb8 O41 1.949521 1_556
Nb8 O37 1.955745 1_556
Nb8 O39 1.984464 1_556
Nb8 O111 2.029141 1_555
Nb8 O113 2.060833 1_555
Nb8 O109 2.089800 1_555
Nb9 O116 1.967630 1_555
Nb9 O42 1.978762 1_555
Nb9 O44 2.001224 1_555
Nb9 O118 2.013028 1_555
Nb9 O46 2.041923 1_555
Nb9 O114 2.044429 1_555
Nb10 O115 1.957234 1_555
Nb10 O47 1.978581 1_555
Nb10 O119 1.979100 1_555
Nb10 O45 2.015156 1_555
Nb10 O117 2.024784 1_555
Nb10 O43 2.047242 1_555
Nb11 O122 1.948453 1_555
Nb11 O120 1.952703 1_555
Nb11 O124 1.964133 1_555
Nb11 O50 2.026107 1_554
Nb11 O52 2.033504 1_554
Nb11 O48 2.040691 1_554
Nb12 O55 1.950175 1_555
Nb12 O127 1.976301 1_555
Nb12 O129 1.976938 1_555
Nb12 O131 1.988718 1_555
Nb12 O59 2.021419 1_555
Nb12 O57 2.030112 1_555
Nb13 O136 1.953762 1_555
Nb13 O132 1.969781 1_555
Nb13 O134 2.003392 1_555
Nb13 O60 2.005165 1_555
Nb13 O64 2.033346 1_555
Nb13 O62 2.078491 1_555
Nb14 O143 1.958519 1_555
Nb14 O139 1.966301 1_555
Nb14 O141 1.971493 1_555
Nb14 O71 2.029646 1_555
Nb14 O69 2.040049 1_555
Nb14 O67 2.047758 1_555
O0 P0 1.501724 1_555
O0 Sc0 2.071877 1_445
O1 P1 1.566837 1_555
O2 P2 1.555459 1_555
O3 P3 1.507569 1_555
O3 Sc0 2.059257 1_555
O4 P5 1.567763 1_555
O5 P4 1.500257 1_555
O5 Sc0 2.059776 1_545
O6 P6 1.578019 1_555
O7 P7 1.552863 1_555
O8 P9 1.554657 1_555
O9 P8 1.576831 1_655
O10 P10 1.572926 1_545
O11 P11 1.556750 1_555
O12 P10 1.571632 1_555
O13 P11 1.534455 1_565
O14 P6 1.565745 1_555
O15 P7 1.540061 1_555
O16 P8 1.562860 1_555
O17 P9 1.542532 1_555
O18 P2 1.552489 1_555
O19 P3 1.620366 1_555
O20 P4 1.579414 1_455
O21 P5 1.576116 1_555
O22 P0 1.578410 1_565
O23 P1 1.579494 1_565
O24 P12 1.505830 1_555
O24 Sc1 2.075313 1_555
O25 P13 1.514833 1_555
O25 Sc2 2.019357 1_555
O26 P14 1.514031 1_555
O26 Sc1 2.028368 1_555
O27 P15 1.505856 1_555
O27 Sc2 2.070183 1_555
O28 P16 1.510987 1_555
O28 Sc1 2.029647 1_555
O29 P17 1.507327 1_555
O29 Sc2 2.063285 1_555
O30 P18 1.509678 1_555
O30 Sc3 2.035468 1_555
O31 P19 1.497716 1_555
O31 Sc4 2.092438 1_555
O32 P20 1.500798 1_555
O32 Sc3 2.085773 1_555
O33 P21 1.508188 1_555
O33 Sc4 2.042818 1_555
O34 P22 1.500366 1_555
O34 Sc3 2.086845 1_555
O35 P23 1.507603 1_555
O35 Sc4 2.040121 1_555
O36 P22 1.580049 1_555
O37 P23 1.597936 1_555
O38 P18 1.597181 1_555
O39 P19 1.579122 1_555
O40 P20 1.575602 1_555
O41 P21 1.605798 1_555
O42 P14 1.582201 1_555
O43 P15 1.546829 1_555
O44 P16 1.571993 1_555
O45 P17 1.556202 1_555
O46 P12 1.552913 1_555
O47 P13 1.576371 1_555
O48 P24 1.544714 1_555
O49 P25 1.506765 1_555
O49 Sc5 2.071742 1_556
O50 P26 1.553340 1_555
O51 P27 1.505348 1_555
O51 Sc5 2.080336 1_556
O52 P28 1.547993 1_555
O53 P29 1.505277 1_555
O53 Sc5 2.075717 1_556
O54 P30 1.505249 1_555
O54 Sc6 2.071912 1_555
O55 P31 1.577933 1_555
O56 P32 1.512591 1_555
O56 Sc6 2.009844 1_555
O57 P33 1.552058 1_555
O58 P34 1.512957 1_555
O58 Sc6 2.017615 1_555
O59 P35 1.551392 1_555
O60 P34 1.577997 1_555
O61 P35 1.510858 1_555
O61 Sc7 2.106091 1_555
O62 P30 1.544411 1_555
O63 P31 1.520324 1_555
O63 Sc7 2.071445 1_555
O64 P32 1.569934 1_555
O65 P33 1.511305 1_555
O65 Sc7 2.086561 1_555
O66 P26 1.511416 1_555
O66 Sc8 2.084678 1_555
O67 P27 1.553593 1_555
O68 P28 1.510860 1_555
O68 Sc8 2.093298 1_555
O69 P29 1.556954 1_555
O70 P24 1.509343 1_555
O70 Sc8 2.094710 1_555
O71 P25 1.563227 1_555
O72 P34 1.494371 1_555
O72 Sc0 2.041153 1_455
O73 P35 1.554841 1_555
O74 P30 1.562510 1_555
O75 P31 1.493414 1_555
O75 Sc0 2.099188 1_555
O76 P32 1.494917 1_555
O76 Sc0 2.053256 1_445
O77 P33 1.557750 1_555
O78 P26 1.555722 1_555
O79 P27 1.557594 1_555
O80 P28 1.559041 1_555
O81 P29 1.555314 1_555
O82 P24 1.558143 1_555
O83 P25 1.556102 1_555
O84 P12 1.570655 1_555
O85 P13 1.572698 1_555
O86 P14 1.576905 1_555
O87 P15 1.564169 1_555
O88 P16 1.587737 1_555
O89 P17 1.554266 1_555
O90 P18 1.558986 1_555
O91 P19 1.537260 1_555
O92 P20 1.538497 1_555
O93 P21 1.557433 1_555
O94 P22 1.530536 1_555
O95 P23 1.565510 1_555
O96 P10 1.521742 1_545
O96 Sc1 2.119917 1_555
O97 P11 1.516961 1_555
O97 Sc2 2.136393 1_555
O98 P6 1.525416 1_555
O98 Sc1 2.126624 1_555
O99 P7 1.514341 1_555
O99 Sc2 2.128819 1_555
O100 P9 1.514573 1_555
O100 Sc1 2.136705 1_555
O101 P8 1.525660 1_655
O101 Sc2 2.119461 1_555
O102 P2 1.520771 1_555
O102 Sc3 2.122521 1_555
O103 P3 1.528117 1_555
O103 Sc4 2.048150 1_555
O104 P5 1.523236 1_555
O104 Sc3 2.109477 1_555
O105 P4 1.520032 1_555
O105 Sc4 2.068451 1_555
O106 P0 1.525790 1_555
O106 Sc3 2.050499 1_555
O107 P1 1.519295 1_555
O107 Sc4 2.126617 1_555
O108 P24 1.568025 1_555
O109 P25 1.562646 1_555
O110 P27 1.567183 1_555
O111 P26 1.565182 1_655
O112 P28 1.565614 1_545
O113 P29 1.566813 1_545
O114 P30 1.575196 1_545
O115 P31 1.585765 1_545
O116 P32 1.609446 1_555
O117 P33 1.560156 1_555
O118 P35 1.564820 1_555
O119 P34 1.603087 1_655
O120 P22 1.568048 1_555
O121 P23 1.512935 1_555
O121 Sc5 2.078090 1_555
O122 P19 1.569252 1_455
O123 P18 1.513491 1_555
O123 Sc5 2.082466 1_555
O124 P20 1.561037 1_565
O125 P21 1.515542 1_565
O125 Sc5 2.072951 1_555
O126 P14 1.513737 1_565
O126 Sc6 2.107766 1_555
O127 P15 1.559969 1_565
O128 P16 1.513897 1_555
O128 Sc6 2.104426 1_555
O129 P17 1.558056 1_555
O130 P13 1.516453 1_455
O130 Sc6 2.109049 1_555
O131 P12 1.551662 1_555
O132 P0 1.579526 1_565
O133 P1 1.521240 1_565
O133 Sc7 2.107011 1_555
O134 P2 1.552881 1_555
O135 P3 1.537433 1_555
O135 Sc7 2.092261 1_555
O136 P4 1.582510 1_455
O137 P5 1.521499 1_555
O137 Sc7 2.121766 1_555
O138 P6 1.522039 1_555
O138 Sc8 2.097908 1_555
O139 P7 1.573722 1_555
O140 P8 1.524149 1_555
O140 Sc8 2.092782 1_555
O141 P9 1.570410 1_555
O142 P10 1.519638 1_555
O142 Sc8 2.104881 1_555
O143 P11 1.577872 1_565
