# generated using pymatgen
data_Na2Si2Sn2SO12
_symmetry_space_group_name_H-M   'P 1'
_cell_length_a   8.95656475
_cell_length_b   8.95656446
_cell_length_c   22.77829190
_cell_angle_alpha   90.00857393
_cell_angle_beta   89.99142223
_cell_angle_gamma   120.04987692
_symmetry_Int_Tables_number   1
_chemical_formula_structural   Na2Si2Sn2SO12
_chemical_formula_sum   'Na12 Si12 Sn12 S6 O72'
_cell_volume   1581.67121834
_cell_formula_units_Z   6
loop_
 _symmetry_equiv_pos_site_id
 _symmetry_equiv_pos_as_xyz
  1  'x, y, z'
loop_
 _atom_site_type_symbol
 _atom_site_label
 _atom_site_symmetry_multiplicity
 _atom_site_fract_x
 _atom_site_fract_y
 _atom_site_fract_z
 _atom_site_occupancy
  Na  Na0  1  0.99277138  0.62617868  0.25372834  1
  Na  Na1  1  0.37382118  0.00722855  0.75372845  1
  Na  Na2  1  0.65943548  0.95951082  0.58706106  1
  Na  Na3  1  0.04048940  0.34056463  0.08706109  1
  Na  Na4  1  0.32610248  0.29284761  0.92039537  1
  Na  Na5  1  0.70715248  0.67389756  0.42039530  1
  Na  Na6  1  0.01225434  0.98952057  0.50045959  1
  Na  Na7  1  0.01047945  0.98774565  0.00045966  1
  Na  Na8  1  0.67892159  0.32285255  0.83379277  1
  Na  Na9  1  0.67714838  0.32107900  0.33379277  1
  Na  Na10  1  0.34558723  0.65618589  0.16712648  1
  Na  Na11  1  0.34381378  0.65441242  0.66712650  1
  Si  Si0  1  0.70267732  0.70891338  0.24987064  1
  Si  Si1  1  0.99839156  0.29084433  0.24841818  1
  Si  Si2  1  0.29108665  0.29732261  0.74987067  1
  Si  Si3  1  0.70915573  0.00160828  0.74841821  1
  Si  Si4  1  0.36934775  0.04224925  0.58320392  1
  Si  Si5  1  0.66506061  0.62418087  0.58175120  1
  Si  Si6  1  0.95775067  0.63065220  0.08320399  1
  Si  Si7  1  0.37581906  0.33493941  0.08175131  1
  Si  Si8  1  0.03601339  0.37558182  0.91653693  1
  Si  Si9  1  0.33172288  0.95751185  0.91508459  1
  Si  Si10  1  0.62441809  0.96398661  0.41653687  1
  Si  Si11  1  0.04248811  0.66827703  0.41508449  1
  Sn  Sn0  1  0.98487646  0.99410734  0.35234182  1
  Sn  Sn1  1  0.00589249  0.01512332  0.85234199  1
  Sn  Sn2  1  -0.00006981  0.99832636  0.64742144  1
  Sn  Sn3  1  0.00167377  0.00006989  0.14742152  1
  Sn  Sn4  1  0.65154345  0.32744607  0.68567316  1
  Sn  Sn5  1  0.67255412  0.34845667  0.18567331  1
  Sn  Sn6  1  0.66658784  0.33167461  0.98075580  1
  Sn  Sn7  1  0.66832556  0.33341234  0.48075568  1
  Sn  Sn8  1  0.31820630  0.66077427  0.01900758  1
  Sn  Sn9  1  0.33922559  0.68179357  0.51900755  1
  Sn  Sn10  1  0.33327456  0.66501649  0.31408653  1
  Sn  Sn11  1  0.33498329  0.66672537  0.81408655  1
  S  S0  1  0.29494893  0.00404606  0.25068751  1
  S  S1  1  0.99595491  0.70505093  0.75068749  1
  S  S2  1  0.96161215  0.33737664  0.58402096  1
  S  S3  1  0.66262292  0.03838781  0.08402107  1
  S  S4  1  0.62827969  0.67071293  0.91735469  1
  S  S5  1  0.32928750  0.37172051  0.41735452  1
  O  O0  1  0.21803244  0.03252491  0.30379711  1
  O  O1  1  0.82557243  0.77873334  0.30899715  1
  O  O2  1  0.97856213  0.17821019  0.30695767  1
  O  O3  1  0.22126659  0.17442752  0.80899711  1
  O  O4  1  0.96747519  0.78196750  0.80379709  1
  O  O5  1  0.82178945  0.02143776  0.80695746  1
  O  O6  1  0.78564410  0.96675714  0.68783162  1
  O  O7  1  0.17168259  0.20273832  0.69286339  1
  O  O8  1  0.02855568  0.81348839  0.69756669  1
  O  O9  1  0.79726164  0.82831733  0.19286344  1
  O  O10  1  0.03324283  0.21435538  0.18783150  1
  O  O11  1  0.18651158  0.97144423  0.19756665  1
  O  O12  1  0.88470095  0.36585986  0.63712986  1
  O  O13  1  0.49223994  0.11206632  0.64233016  1
  O  O14  1  0.64522976  0.51154646  0.64028983  1
  O  O15  1  0.88793346  0.50776037  0.14233005  1
  O  O16  1  0.63414004  0.11529904  0.13712985  1
  O  O17  1  0.48845376  0.35477043  0.14028989  1
  O  O18  1  0.45231296  0.30008851  0.02116471  1
  O  O19  1  0.83835016  0.53607195  0.02619571  1
  O  O20  1  0.69522286  0.14682230  0.03089874  1
  O  O21  1  0.46392794  0.16164948  0.52619575  1
  O  O22  1  0.69991139  0.54768717  0.52116486  1
  O  O23  1  0.85317765  0.30477721  0.53089867  1
  O  O24  1  0.55136722  0.69919233  0.97046376  1
  O  O25  1  0.15890591  0.44540090  0.97566478  1
  O  O26  1  0.31189703  0.84487822  0.97362408  1
  O  O27  1  0.55459913  0.84109421  0.47566478  1
  O  O28  1  0.30080750  0.44863263  0.47046373  1
  O  O29  1  0.15512166  0.68810289  0.47362406  1
  O  O30  1  0.11897534  0.63342055  0.35449870  1
  O  O31  1  0.50501489  0.86940557  0.35952993  1
  O  O32  1  0.36188869  0.48015635  0.36423262  1
  O  O33  1  0.13059465  0.49498539  0.85952983  1
  O  O34  1  0.36657967  0.88102451  0.85449862  1
  O  O35  1  0.51984371  0.63811127  0.86423268  1
  O  O36  1  0.02741175  0.84539570  0.41071229  1
  O  O37  1  0.81516421  0.97743027  0.41346214  1
  O  O38  1  0.17838031  0.19701153  0.41068439  1
  O  O39  1  0.02256966  0.18483599  0.91346211  1
  O  O40  1  0.15460402  0.97258817  0.91071230  1
  O  O41  1  0.80298903  0.82162015  0.91068434  1
  O  O42  1  0.97151763  0.17684579  0.58817606  1
  O  O43  1  0.17945536  0.02409609  0.58872004  1
  O  O44  1  0.82910307  0.82444165  0.58730679  1
  O  O45  1  0.97590386  0.82054454  0.08872009  1
  O  O46  1  0.82315397  0.02848222  0.08817607  1
  O  O47  1  0.17555824  0.17089674  0.08730684  1
  O  O48  1  0.69407935  0.17873185  0.74404507  1
  O  O49  1  0.48183149  0.31076477  0.74679477  1
  O  O50  1  0.84504327  0.53034028  0.74401783  1
  O  O51  1  0.68923535  0.51816846  0.24679479  1
  O  O52  1  0.82126781  0.30592076  0.24404503  1
  O  O53  1  0.46965939  0.15495649  0.24401787  1
  O  O54  1  0.63818588  0.51018375  0.92150909  1
  O  O55  1  0.84611728  0.35742797  0.92205317  1
  O  O56  1  0.49577185  0.15777334  0.92063976  1
  O  O57  1  0.64257198  0.15388240  0.42205325  1
  O  O58  1  0.48981651  0.36181403  0.42150912  1
  O  O59  1  0.84222653  0.50422793  0.42063977  1
  O  O60  1  0.36074260  0.51206538  0.07737899  1
  O  O61  1  0.14849729  0.64409760  0.08012897  1
  O  O62  1  0.51171240  0.86367748  0.07735161  1
  O  O63  1  0.35590246  0.85150285  0.58012892  1
  O  O64  1  0.48793458  0.63925736  0.57737895  1
  O  O65  1  0.13632274  0.48828789  0.57735164  1
  O  O66  1  0.30484894  0.84351519  0.25484311  1
  O  O67  1  0.51278787  0.69076211  0.25538712  1
  O  O68  1  0.16243523  0.49110638  0.25397369  1
  O  O69  1  0.30923791  0.48721238  0.75538716  1
  O  O70  1  0.15648474  0.69515085  0.75484311  1
  O  O71  1  0.50889380  0.83756498  0.75397371  1
loop_
_geom_bond_atom_site_label_1
_geom_bond_atom_site_label_2
_geom_bond_distance
_geom_bond_site_symmetry_2
Na0 O68 2.369383 1_655
Na0 O51 2.391216 1_555
Na0 O66 2.480622 1_655
Na0 O52 2.494621 1_555
Na0 O30 2.545185 1_655
Na0 O15 2.729071 1_555
Na0 O1 2.782557 1_555
Na0 O11 2.972687 1_655
Na1 O71 2.369384 1_545
Na1 O49 2.391218 1_555
Na1 O70 2.480623 1_545
Na1 O48 2.494623 1_555
Na1 O34 2.545182 1_545
Na1 O13 2.729072 1_555
Na1 O3 2.782555 1_555
Na1 O8 2.972687 1_545
Na2 O44 2.369390 1_555
Na2 O63 2.391192 1_555
Na2 O42 2.480649 1_565
Na2 O64 2.494584 1_555
Na2 O6 2.545199 1_555
Na2 O27 2.729023 1_555
Na2 O13 2.782542 1_565
Na2 O23 2.972700 1_565
Na3 O47 2.369390 1_555
Na3 O61 2.391192 1_555
Na3 O46 2.480652 1_455
Na3 O60 2.494582 1_555
Na3 O10 2.545198 1_555
Na3 O25 2.729023 1_554
Na3 O15 2.782545 1_455
Na3 O20 2.972701 1_455
Na4 O56 2.369442 1_555
Na4 O39 2.391187 1_555
Na4 O54 2.480660 1_555
Na4 O40 2.494630 1_545
Na4 O18 2.545191 1_556
Na4 O3 2.729071 1_555
Na4 O25 2.782537 1_555
Na4 O35 2.972685 1_555
Na5 O59 2.369443 1_555
Na5 O37 2.391186 1_555
Na5 O58 2.480660 1_555
Na5 O36 2.494629 1_655
Na5 O22 2.545195 1_555
Na5 O1 2.729068 1_555
Na5 O27 2.782539 1_555
Na5 O32 2.972686 1_555
Na6 O43 2.432407 1_565
Na6 O36 2.457340 1_555
Na6 O44 2.522152 1_455
Na6 O37 2.619986 1_455
Na6 O38 2.660864 1_565
Na6 O42 2.748108 1_465
Na7 O45 2.432407 1_455
Na7 O40 2.457340 1_554
Na7 O47 2.522151 1_565
Na7 O39 2.619989 1_564
Na7 O41 2.660863 1_454
Na7 O46 2.748108 1_465
Na8 O55 2.432380 1_555
Na8 O48 2.457328 1_555
Na8 O56 2.522144 1_555
Na8 O49 2.620002 1_555
Na8 O50 2.660839 1_555
Na8 O54 2.748137 1_555
Na9 O57 2.432384 1_555
Na9 O52 2.457323 1_555
Na9 O59 2.522140 1_555
Na9 O51 2.620000 1_555
Na9 O53 2.660845 1_555
Na9 O58 2.748139 1_555
Na10 O67 2.432407 1_555
Na10 O60 2.457316 1_555
Na10 O68 2.522156 1_555
Na10 O61 2.619991 1_555
Na10 O62 2.660859 1_555
Na10 O66 2.748141 1_555
Na11 O69 2.432405 1_555
Na11 O64 2.457318 1_555
Na11 O71 2.522159 1_555
Na11 O63 2.619994 1_555
Na11 O65 2.660856 1_555
Na11 O70 2.748140 1_555
O0 S0 1.476071 1_555
O0 Sn0 2.231995 1_445
O1 Si0 1.651465 1_555
O1 Sn0 1.993751 1_555
O2 Si1 1.627322 1_555
O2 Sn0 1.970983 1_545
O3 Si2 1.651463 1_555
O3 Sn1 1.993754 1_555
O4 S1 1.476075 1_555
O4 Sn1 2.231996 1_665
O5 Si3 1.627316 1_555
O5 Sn1 1.970990 1_655
O6 Si3 1.638620 1_565
O6 Sn2 2.016647 1_655
O7 Si2 1.624900 1_555
O7 Sn2 1.992242 1_545
O8 S1 1.486228 1_455
O8 Sn2 2.129994 1_555
O9 Si0 1.624898 1_555
O9 Sn3 1.992243 1_665
O10 Si1 1.638625 1_455
O10 Sn3 2.016640 1_555
O11 S0 1.486227 1_565
O11 Sn3 2.129992 1_565
O12 S2 1.476048 1_555
O12 Sn4 2.232001 1_555
O13 Si4 1.651446 1_555
O13 Sn4 1.993763 1_555
O14 Si5 1.627305 1_555
O14 Sn4 1.970952 1_555
O15 Si6 1.651441 1_555
O15 Sn5 1.993764 1_555
O16 S3 1.476044 1_555
O16 Sn5 2.232003 1_555
O17 Si7 1.627305 1_555
O17 Sn5 1.970954 1_555
O18 Si7 1.638645 1_555
O18 Sn6 2.016494 1_554
O19 Si6 1.624898 1_555
O19 Sn6 1.992176 1_554
O20 S3 1.486242 1_555
O20 Sn6 2.130117 1_554
O21 Si4 1.624895 1_555
O21 Sn7 1.992180 1_555
O22 Si5 1.638639 1_555
O22 Sn7 2.016497 1_555
O23 S2 1.486242 1_555
O23 Sn7 2.130117 1_555
O24 S4 1.476043 1_555
O24 Sn8 2.232021 1_556
O25 Si8 1.651478 1_555
O25 Sn8 1.993719 1_556
O26 Si9 1.627326 1_555
O26 Sn8 1.970964 1_556
O27 Si10 1.651478 1_555
O27 Sn9 1.993720 1_555
O28 S5 1.476046 1_555
O28 Sn9 2.232021 1_555
O29 Si11 1.627327 1_555
O29 Sn9 1.970964 1_555
O30 Si11 1.638619 1_555
O30 Sn10 2.016691 1_555
O31 Si10 1.624885 1_555
O31 Sn10 1.992116 1_555
O32 S5 1.486239 1_555
O32 Sn10 2.130119 1_555
O33 Si8 1.624889 1_555
O33 Sn11 1.992111 1_555
O34 Si9 1.638624 1_555
O34 Sn11 2.016688 1_555
O35 S4 1.486242 1_555
O35 Sn11 2.130121 1_555
O36 Si11 1.661121 1_555
O36 Sn0 2.048384 1_455
O37 Si10 1.652901 1_555
O37 Sn0 2.010755 1_555
O38 S5 1.476591 1_555
O38 Sn0 2.217670 1_445
O39 Si8 1.652898 1_555
O39 Sn1 2.010754 1_555
O40 Si9 1.661123 1_555
O40 Sn1 2.048380 1_565
O41 S4 1.476594 1_555
O41 Sn1 2.217662 1_665
O42 S2 1.487249 1_555
O42 Sn2 2.202438 1_645
O43 Si4 1.630301 1_555
O43 Sn2 2.013543 1_545
O44 Si5 1.659093 1_555
O44 Sn2 2.062772 1_655
O45 Si6 1.630301 1_555
O45 Sn3 2.013545 1_665
O46 S3 1.487251 1_555
O46 Sn3 2.202441 1_655
O47 Si7 1.659094 1_555
O47 Sn3 2.062771 1_555
O48 Si3 1.661166 1_555
O48 Sn4 2.048425 1_555
O49 Si2 1.652897 1_555
O49 Sn4 2.010762 1_555
O50 S1 1.476614 1_555
O50 Sn4 2.217647 1_555
O51 Si0 1.652898 1_555
O51 Sn5 2.010759 1_555
O52 Si1 1.661168 1_555
O52 Sn5 2.048419 1_555
O53 S0 1.476609 1_555
O53 Sn5 2.217648 1_555
O54 S4 1.487236 1_555
O54 Sn6 2.202339 1_555
O55 Si8 1.630332 1_655
O55 Sn6 2.013632 1_555
O56 Si9 1.659116 1_545
O56 Sn6 2.062814 1_555
O57 Si10 1.630329 1_545
O57 Sn7 2.013632 1_555
O58 S5 1.487236 1_555
O58 Sn7 2.202335 1_555
O59 Si11 1.659118 1_655
O59 Sn7 2.062809 1_555
O60 Si7 1.661187 1_555
O60 Sn8 2.048384 1_555
O61 Si6 1.652899 1_455
O61 Sn8 2.010752 1_555
O62 S3 1.476608 1_565
O62 Sn8 2.217693 1_555
O63 Si4 1.652898 1_565
O63 Sn9 2.010753 1_555
O64 Si5 1.661188 1_555
O64 Sn9 2.048384 1_555
O65 S2 1.476612 1_455
O65 Sn9 2.217691 1_555
O66 S0 1.487223 1_565
O66 Sn10 2.202321 1_555
O67 Si0 1.630283 1_555
O67 Sn10 2.013496 1_555
O68 Si1 1.659104 1_455
O68 Sn10 2.062872 1_555
O69 Si2 1.630286 1_555
O69 Sn11 2.013494 1_555
O70 S1 1.487214 1_455
O70 Sn11 2.202320 1_555
O71 Si3 1.659102 1_565
O71 Sn11 2.062874 1_555
