# generated using pymatgen
data_Na10Ca4Si5Sn4S7O48
_symmetry_space_group_name_H-M   'P 1'
_cell_length_a   18.45451803
_cell_length_b   9.23467557
_cell_length_c   23.00565059
_cell_angle_alpha   89.74033241
_cell_angle_beta   91.16012237
_cell_angle_gamma   119.92898636
_symmetry_Int_Tables_number   1
_chemical_formula_structural   Na10Ca4Si5Sn4S7O48
_chemical_formula_sum   'Na30 Ca12 Si15 Sn12 S21 O144'
_cell_volume   3397.04910576
_cell_formula_units_Z   3
loop_
 _symmetry_equiv_pos_site_id
 _symmetry_equiv_pos_as_xyz
  1  'x, y, z'
loop_
 _atom_site_type_symbol
 _atom_site_label
 _atom_site_symmetry_multiplicity
 _atom_site_fract_x
 _atom_site_fract_y
 _atom_site_fract_z
 _atom_site_occupancy
  Na  Na0  1  0.33247137  0.02733320  0.25813883  1
  Na  Na1  1  0.67474809  0.33225491  0.25689423  1
  Na  Na2  1  0.99909856  0.64669622  0.23741843  1
  Na  Na3  1  0.50060192  0.63961952  0.23537210  1
  Na  Na4  1  0.32557494  0.62535734  0.75970690  1
  Na  Na5  1  0.82538073  0.62535335  0.75820389  1
  Na  Na6  1  -0.00006306  0.36146042  0.73861021  1
  Na  Na7  1  0.50009802  0.36163564  0.73635333  1
  Na  Na8  1  0.17345382  0.01867041  0.75594619  1
  Na  Na9  1  0.67436939  0.01909997  0.75471764  1
  Na  Na10  1  0.33555440  0.97528157  0.56857426  1
  Na  Na11  1  0.83473636  0.97603645  0.56998713  1
  Na  Na12  1  0.33570648  0.69663891  0.06872759  1
  Na  Na13  1  0.83450995  0.69094798  0.06778274  1
  Na  Na14  1  0.48086923  0.67518180  0.90722677  1
  Na  Na15  1  0.98095798  0.67543272  0.90638136  1
  Na  Na16  1  0.48616793  0.29313314  0.40498467  1
  Na  Na17  1  0.16785506  0.02198252  0.40417422  1
  Na  Na18  1  0.98196428  0.00552228  0.49732213  1
  Na  Na19  1  0.49566220  0.99326613  0.49778163  1
  Na  Na20  1  0.99174746  0.99446974  0.99587612  1
  Na  Na21  1  0.49089505  0.99353291  0.99758954  1
  Na  Na22  1  0.32303112  0.34345460  0.83161647  1
  Na  Na23  1  0.82342859  0.34463690  0.83076188  1
  Na  Na24  1  0.32664381  0.32389780  0.32475670  1
  Na  Na25  1  0.81261305  0.26539754  0.33354501  1
  Na  Na26  1  0.14742753  0.66374512  0.16257597  1
  Na  Na27  1  0.64811990  0.68470547  0.16453846  1
  Na  Na28  1  0.14105410  0.61683942  0.66396355  1
  Na  Na29  1  0.64414159  0.62008760  0.66247274  1
  Ca  Ca0  1  0.99507945  0.00081829  0.35416870  1
  Ca  Ca1  1  0.50040461  0.99706510  0.35459923  1
  Ca  Ca2  1  0.99919536  0.00325645  0.85352586  1
  Ca  Ca3  1  0.49920543  0.00328632  0.85384557  1
  Ca  Ca4  1  0.33850823  0.34129436  0.68199422  1
  Ca  Ca5  1  0.83802814  0.34127047  0.68135539  1
  Ca  Ca6  1  0.33387435  0.33251106  0.18516478  1
  Ca  Ca7  1  0.83510620  0.32541073  0.18387643  1
  Ca  Ca8  1  0.16421049  0.66765915  0.02035369  1
  Ca  Ca9  1  0.66325217  0.66669470  0.02120187  1
  Ca  Ca10  1  0.16192785  0.65434657  0.52060694  1
  Ca  Ca11  1  0.66561951  0.66258578  0.51944450  1
  Si  Si0  1  0.14819863  0.98966607  0.25822709  1
  Si  Si1  1  0.64944608  0.99673927  0.25284945  1
  Si  Si2  1  0.50656819  0.30391299  0.25488536  1
  Si  Si3  1  0.14901952  0.30269840  0.75242996  1
  Si  Si4  1  0.64927446  0.30362919  0.75278633  1
  Si  Si5  1  0.00562784  0.71020562  0.75515729  1
  Si  Si6  1  0.50595907  0.71094542  0.75518604  1
  Si  Si7  1  0.48526457  0.31611766  0.58856096  1
  Si  Si8  1  0.98315889  0.31575954  0.59021091  1
  Si  Si9  1  0.48245118  0.65050432  0.08917448  1
  Si  Si10  1  0.98248077  0.64105915  0.08884249  1
  Si  Si11  1  0.31500379  0.66211493  0.92331475  1
  Si  Si12  1  0.81484617  0.66204502  0.92308743  1
  Si  Si13  1  0.31609381  0.97147290  0.42477888  1
  Si  Si14  1  0.81458702  0.96840752  0.42360703  1
  Sn  Sn0  1  0.00993002  0.01083019  0.65026344  1
  Sn  Sn1  1  0.51193340  0.01376309  0.65045617  1
  Sn  Sn2  1  0.00587973  0.99537326  0.14917345  1
  Sn  Sn3  1  0.51002343  0.00982287  0.15071588  1
  Sn  Sn4  1  0.33212282  0.34872326  0.98462413  1
  Sn  Sn5  1  0.83281016  0.34612650  0.98356036  1
  Sn  Sn6  1  0.33794974  0.32739416  0.48501908  1
  Sn  Sn7  1  0.83609862  0.31868166  0.48321974  1
  Sn  Sn8  1  0.16891475  0.67429004  0.31960455  1
  Sn  Sn9  1  0.67124163  0.68013437  0.31490680  1
  Sn  Sn10  1  0.16800018  0.66063536  0.81718184  1
  Sn  Sn11  1  0.66772929  0.66035531  0.81733649  1
  S  S0  1  0.34427963  0.70806967  0.24950294  1
  S  S1  1  0.84859527  0.71015789  0.24604971  1
  S  S2  1  0.01097255  0.30563075  0.24905905  1
  S  S3  1  0.34606384  0.98386308  0.74718599  1
  S  S4  1  0.84583200  0.98422808  0.74751473  1
  S  S5  1  0.18080267  0.04259153  0.58203790  1
  S  S6  1  0.68077555  0.04208336  0.58386344  1
  S  S7  1  0.34234618  0.63809275  0.58224885  1
  S  S8  1  0.84253062  0.63824787  0.58262919  1
  S  S9  1  0.34146766  0.04875687  0.08296241  1
  S  S10  1  0.84320840  0.04628960  0.08155911  1
  S  S11  1  0.17883081  0.31556112  0.08353655  1
  S  S12  1  0.68105009  0.31804438  0.08344723  1
  S  S13  1  0.01152273  0.37449391  0.91669137  1
  S  S14  1  0.51143766  0.37510891  0.91687645  1
  S  S15  1  0.17742570  0.97753693  0.91650379  1
  S  S16  1  0.67746447  0.97671171  0.91655218  1
  S  S17  1  0.17636463  0.37916781  0.41636173  1
  S  S18  1  0.67799746  0.37803537  0.41654602  1
  S  S19  1  0.01219629  0.64779700  0.41483319  1
  S  S20  1  0.51120132  0.64756765  0.41675613  1
  O  O0  1  0.10696551  0.99992433  0.31701684  1
  O  O1  1  0.60352719  0.01966635  0.30706616  1
  O  O2  1  0.39586853  0.78866793  0.30130068  1
  O  O3  1  0.90178039  0.79566574  0.29641018  1
  O  O4  1  0.48571682  0.19427867  0.31302788  1
  O  O5  1  0.00311908  0.20913250  0.30058672  1
  O  O6  1  0.10612629  0.18543684  0.80655929  1
  O  O7  1  0.60580147  0.18509907  0.80650268  1
  O  O8  1  0.48500534  0.77648839  0.81328100  1
  O  O9  1  0.98586454  0.77766330  0.81331734  1
  O  O10  1  0.39938480  0.01659518  0.79870364  1
  O  O11  1  0.89926919  0.01693236  0.79892395  1
  O  O12  1  0.38486143  0.96027297  0.69347933  1
  O  O13  1  0.88462982  0.95976162  0.69380160  1
  O  O14  1  0.08761308  0.22392413  0.69209600  1
  O  O15  1  0.58771412  0.22704121  0.69229127  1
  O  O16  1  0.02490093  0.84366293  0.69844306  1
  O  O17  1  0.52459398  0.84373635  0.69840351  1
  O  O18  1  0.38099760  0.81139362  0.19571741  1
  O  O19  1  0.88489268  0.80880079  0.19048872  1
  O  O20  1  0.01498266  0.22053350  0.19347338  1
  O  O21  1  0.52326331  0.20562975  0.19845335  1
  O  O22  1  0.08088216  0.95323604  0.20057328  1
  O  O23  1  0.58797559  0.95183306  0.19182458  1
  O  O24  1  0.44064807  0.32048172  0.64682231  1
  O  O25  1  0.94215848  0.32037232  0.65004638  1
  O  O26  1  0.22620395  0.12636089  0.63584320  1
  O  O27  1  0.72262417  0.11961393  0.63938734  1
  O  O28  1  0.33371834  0.54968866  0.63666096  1
  O  O29  1  0.83499311  0.55308363  0.63773224  1
  O  O30  1  0.43676888  0.55618758  0.14712483  1
  O  O31  1  0.93977375  0.55217967  0.14839251  1
  O  O32  1  0.33344304  0.12039755  0.13701799  1
  O  O33  1  0.83383712  0.12199645  0.13381840  1
  O  O34  1  0.22550281  0.32305104  0.13622012  1
  O  O35  1  0.72538402  0.32535457  0.13808237  1
  O  O36  1  0.21652192  0.28725506  0.02965089  1
  O  O37  1  0.72237212  0.29138526  0.03146535  1
  O  O38  1  0.41745471  0.55126581  0.02956440  1
  O  O39  1  0.91705833  0.54157750  0.03057986  1
  O  O40  1  0.34227421  0.14871192  0.02965666  1
  O  O41  1  0.84682620  0.14306757  0.02706748  1
  O  O42  1  0.22179102  0.14712830  0.52850642  1
  O  O43  1  0.72354734  0.15225448  0.53268870  1
  O  O44  1  0.34391157  0.54030496  0.52920995  1
  O  O45  1  0.84363475  0.53869109  0.53048095  1
  O  O46  1  0.41961947  0.28528305  0.52946360  1
  O  O47  1  0.91377007  0.28105661  0.53403430  1
  O  O48  1  0.26905430  0.65742500  0.98158178  1
  O  O49  1  0.76849181  0.65764924  0.98111635  1
  O  O50  1  0.06148302  0.46314324  0.96796832  1
  O  O51  1  0.56193650  0.46344686  0.96790832  1
  O  O52  1  0.16909752  0.86849650  0.96473066  1
  O  O53  1  0.66980738  0.86859399  0.96488832  1
  O  O54  1  0.26731852  0.87680576  0.48153364  1
  O  O55  1  0.77285279  0.88341450  0.48362155  1
  O  O56  1  0.16775070  0.46006506  0.46716179  1
  O  O57  1  0.66885032  0.47041502  0.46394998  1
  O  O58  1  0.06426065  0.66138601  0.46523225  1
  O  O59  1  0.56025513  0.65923039  0.46882580  1
  O  O60  1  0.04850595  0.62015442  0.35900153  1
  O  O61  1  0.54867767  0.62238961  0.36267472  1
  O  O62  1  0.25552771  0.87834858  0.36322226  1
  O  O63  1  0.75329373  0.86341125  0.36426868  1
  O  O64  1  0.18151419  0.47464983  0.36040341  1
  O  O65  1  0.68510767  0.46502694  0.35873051  1
  O  O66  1  0.04965673  0.47580277  0.86175595  1
  O  O67  1  0.54934565  0.47616628  0.86179403  1
  O  O68  1  0.18532670  0.90379331  0.85932371  1
  O  O69  1  0.68539506  0.90352247  0.85938378  1
  O  O70  1  0.25976467  0.64985267  0.86071115  1
  O  O71  1  0.75984192  0.65008514  0.86057388  1
  O  O72  1  0.00719514  0.80178149  0.41088766  1
  O  O73  1  0.49566543  0.78727162  0.41330717  1
  O  O74  1  0.41155865  0.01109158  0.42192112  1
  O  O75  1  0.90844596  0.00108772  0.41638995  1
  O  O76  1  0.10741382  0.20631608  0.41237029  1
  O  O77  1  0.60457496  0.20833926  0.41543697  1
  O  O78  1  0.99858998  0.20576179  0.91320681  1
  O  O79  1  0.49837688  0.20598991  0.91312171  1
  O  O80  1  0.10365591  0.99907187  0.91480909  1
  O  O81  1  0.60380503  0.99856491  0.91499550  1
  O  O82  1  0.41049872  0.81710385  0.92074500  1
  O  O83  1  0.91051278  0.81669907  0.92070589  1
  O  O84  1  0.48110503  0.12681457  0.58635941  1
  O  O85  1  0.98014577  0.12725143  0.58708662  1
  O  O86  1  0.09406910  0.01951705  0.58150359  1
  O  O87  1  0.59351976  0.01768207  0.58221836  1
  O  O88  1  0.42283386  0.80212175  0.58229869  1
  O  O89  1  0.92320189  0.80353113  0.58241150  1
  O  O90  1  0.47955424  0.83405080  0.08701489  1
  O  O91  1  0.98011184  0.82520351  0.08537790  1
  O  O92  1  0.42230631  0.04532415  0.08273836  1
  O  O93  1  0.92547222  0.04380692  0.08440763  1
  O  O94  1  0.09106394  0.16602623  0.08495808  1
  O  O95  1  0.59405537  0.17010334  0.08261595  1
  O  O96  1  0.32595496  0.11946189  0.74130420  1
  O  O97  1  0.82593539  0.11980417  0.74164518  1
  O  O98  1  0.24392690  0.33467854  0.74619268  1
  O  O99  1  0.74397298  0.33490501  0.74640602  1
  O  O100  1  0.43155949  0.52045531  0.74519680  1
  O  O101  1  0.93088590  0.52036918  0.74562749  1
  O  O102  1  0.33066234  0.53812634  0.24431405  1
  O  O103  1  0.83851896  0.54072015  0.24242753  1
  O  O104  1  0.43183812  0.34562593  0.24554819  1
  O  O105  1  0.94154010  0.34058199  0.24560143  1
  O  O106  1  0.24407216  0.13528059  0.24961515  1
  O  O107  1  0.74087114  0.16262306  0.24720505  1
  O  O108  1  0.32176763  0.48373264  0.91855466  1
  O  O109  1  0.82237893  0.48415744  0.91858117  1
  O  O110  1  0.42728190  0.36812634  0.91945712  1
  O  O111  1  0.92721709  0.36750836  0.91874035  1
  O  O112  1  0.25718153  0.14533313  0.92218801  1
  O  O113  1  0.75738192  0.14505100  0.92197781  1
  O  O114  1  0.31570677  0.15798363  0.42067432  1
  O  O115  1  0.81691210  0.15545138  0.41932127  1
  O  O116  1  0.25782785  0.37337021  0.41946351  1
  O  O117  1  0.75786928  0.37071425  0.42292400  1
  O  O118  1  0.42655445  0.48309706  0.41935397  1
  O  O119  1  0.92568606  0.49950630  0.41921979  1
  O  O120  1  0.17397350  0.46923335  0.07913508  1
  O  O121  1  0.67754076  0.47316848  0.07857420  1
  O  O122  1  0.07568383  0.67382116  0.08197120  1
  O  O123  1  0.57535469  0.68104447  0.08168604  1
  O  O124  1  0.27198804  0.87472218  0.07823653  1
  O  O125  1  0.77498645  0.87237785  0.07756907  1
  O  O126  1  0.17592683  0.87874289  0.57842555  1
  O  O127  1  0.67606166  0.87870662  0.57927791  1
  O  O128  1  0.27258827  0.67221443  0.57694338  1
  O  O129  1  0.77271116  0.67216042  0.57784219  1
  O  O130  1  0.07511905  0.47098737  0.58170925  1
  O  O131  1  0.57760324  0.47180525  0.58069284  1
  O  O132  1  0.14632694  0.80093820  0.25596782  1
  O  O133  1  0.65105402  0.81594611  0.25431974  1
  O  O134  1  0.26001795  0.70108211  0.25446442  1
  O  O135  1  0.76271036  0.68796854  0.25049770  1
  O  O136  1  0.09203589  0.47465532  0.25201313  1
  O  O137  1  0.59881745  0.48424927  0.25992371  1
  O  O138  1  0.15285959  0.48923873  0.75543745  1
  O  O139  1  0.65314843  0.48996191  0.75560493  1
  O  O140  1  0.09836081  0.71374943  0.76012296  1
  O  O141  1  0.59859945  0.71481061  0.76032759  1
  O  O142  1  0.26428277  0.82147458  0.75245988  1
  O  O143  1  0.76416117  0.82174875  0.75273190  1
loop_
_geom_bond_atom_site_label_1
_geom_bond_atom_site_label_2
_geom_bond_distance
_geom_bond_site_symmetry_2
Na0 O106 2.302511 1_555
Na0 O104 2.592601 1_555
Na0 O134 2.617255 1_545
Na0 O4 2.737105 1_555
Na0 O62 2.813002 1_545
Na1 O137 2.430226 1_555
Na1 O107 2.431927 1_555
Na1 O65 2.608187 1_555
Na1 O103 2.679612 1_555
Na1 O21 2.755051 1_555
Na1 O1 2.763667 1_555
Na1 O135 2.851612 1_555
Na1 O35 2.917683 1_555
Na2 O31 2.264294 1_555
Na2 O132 2.385372 1_655
Na2 O105 2.482316 1_555
Na2 O22 2.603191 1_655
Na2 O103 2.621406 1_555
Na3 O30 2.261558 1_555
Na3 O104 2.367373 1_555
Na3 O133 2.448790 1_555
Na3 O23 2.704935 1_555
Na3 O102 2.801345 1_555
Na3 O137 2.865152 1_555
Na4 O98 2.350582 1_555
Na4 O142 2.573131 1_555
Na4 O100 2.606808 1_555
Na4 O70 2.705325 1_555
Na4 O138 2.782010 1_555
Na4 O8 2.809767 1_555
Na4 O28 2.943463 1_555
Na5 O99 2.343937 1_555
Na5 O143 2.572616 1_555
Na5 O101 2.592986 1_555
Na5 O71 2.730810 1_555
Na5 O139 2.774337 1_555
Na5 O9 2.839847 1_555
Na5 O29 2.883237 1_555
Na6 O25 2.224300 1_455
Na6 O101 2.383243 1_455
Na6 O138 2.478619 1_555
Na6 O14 2.740313 1_555
Na6 O97 2.855403 1_455
Na6 O140 2.865252 1_555
Na6 O66 2.989665 1_555
Na7 O24 2.256121 1_555
Na7 O100 2.378341 1_555
Na7 O139 2.488431 1_555
Na7 O15 2.696299 1_555
Na7 O96 2.860640 1_555
Na7 O141 2.881919 1_555
Na7 O67 3.038916 1_555
Na8 O140 2.442905 1_545
Na8 O96 2.514348 1_555
Na8 O98 2.544914 1_555
Na8 O68 2.649065 1_545
Na8 O6 2.693607 1_555
Na8 O16 2.707225 1_545
Na8 O26 2.947723 1_555
Na9 O141 2.439527 1_545
Na9 O97 2.492959 1_555
Na9 O99 2.541361 1_555
Na9 O69 2.674358 1_545
Na9 O17 2.710780 1_545
Na9 O7 2.717288 1_555
Na9 O27 2.818310 1_555
Na10 O54 2.279065 1_555
Na10 O84 2.355962 1_565
Na10 O128 2.445244 1_555
Na10 O126 2.632258 1_555
Na10 O46 2.648255 1_565
Na10 O88 2.792135 1_555
Na10 O12 3.020047 1_555
Na11 O55 2.220898 1_555
Na11 O85 2.351328 1_565
Na11 O129 2.452792 1_555
Na11 O47 2.583371 1_565
Na11 O127 2.612582 1_555
Na11 O89 2.803025 1_555
Na11 O13 3.001992 1_555
Na12 O48 2.264018 1_554
Na12 O90 2.330792 1_555
Na12 O124 2.465446 1_555
Na12 O38 2.641378 1_555
Na12 O120 2.673157 1_555
Na12 O92 2.807118 1_565
Na13 O49 2.255561 1_554
Na13 O91 2.357392 1_555
Na13 O125 2.431950 1_555
Na13 O121 2.590164 1_555
Na13 O39 2.667637 1_555
Na13 O93 2.847686 1_565
Na13 O19 2.988266 1_555
Na14 O82 2.284583 1_555
Na14 O8 2.338652 1_555
Na14 O110 2.510663 1_555
Na14 O108 2.580991 1_555
Na14 O81 2.706484 1_555
Na14 O67 2.907827 1_555
Na15 O83 2.283438 1_555
Na15 O9 2.321113 1_555
Na15 O111 2.518011 1_555
Na15 O109 2.575620 1_555
Na15 O80 2.707716 1_655
Na15 O66 2.908938 1_655
Na16 O74 2.294649 1_555
Na16 O4 2.306099 1_555
Na16 O118 2.518483 1_555
Na16 O77 2.670252 1_555
Na16 O114 2.776341 1_555
Na16 O61 2.835828 1_555
Na17 O0 2.238014 1_545
Na17 O114 2.389401 1_555
Na17 O76 2.466468 1_555
Na17 O72 2.636118 1_545
Na17 O62 2.734827 1_545
Na17 O116 2.832086 1_555
Na17 O42 3.045444 1_555
Na18 O75 2.269814 1_555
Na18 O85 2.364505 1_555
Na18 O89 2.553774 1_545
Na18 O86 2.760551 1_655
Na18 O76 2.912794 1_655
Na18 O72 2.942178 1_645
Na19 O74 2.371609 1_565
Na19 O84 2.474121 1_565
Na19 O88 2.531824 1_555
Na19 O87 2.557570 1_565
Na19 O73 2.725639 1_555
Na19 O77 2.776676 1_565
Na20 O83 2.323369 1_555
Na20 O91 2.526445 1_556
Na20 O93 2.552858 1_566
Na20 O94 2.655005 1_666
Na20 O78 2.677776 1_565
Na20 O80 2.795141 1_655
Na21 O82 2.342842 1_555
Na21 O90 2.475414 1_556
Na21 O92 2.526107 1_566
Na21 O95 2.624870 1_566
Na21 O79 2.711192 1_565
Na21 O81 2.831494 1_555
Na22 O108 2.394672 1_555
Na22 O98 2.401461 1_555
Na22 O112 2.648619 1_555
Na22 O110 2.691914 1_555
Na22 O100 2.738775 1_555
Na22 O96 2.958594 1_555
Na23 O99 2.383103 1_555
Na23 O109 2.406715 1_555
Na23 O113 2.667049 1_555
Na23 O111 2.693147 1_555
Na23 O101 2.705429 1_555
Na23 O97 2.941857 1_555
Na24 O106 2.369895 1_555
Na24 O104 2.623120 1_555
Na24 O114 2.633697 1_555
Na24 O102 2.677708 1_555
Na24 O116 2.696050 1_555
Na24 O118 2.731077 1_555
Na25 O115 2.233183 1_555
Na25 O107 2.292553 1_555
Na25 O117 2.697641 1_555
Na25 O119 2.878120 1_555
Na25 O105 2.961451 1_555
Na26 O122 2.285223 1_555
Na26 O132 2.504771 1_555
Na26 O136 2.568871 1_555
Na26 O134 2.831751 1_555
Na26 O120 2.845847 1_555
Na26 O124 2.919249 1_555
Na27 O123 2.299812 1_555
Na27 O133 2.385511 1_555
Na27 O137 2.726416 1_555
Na27 O135 2.855035 1_555
Na27 O125 2.932168 1_555
Na27 O121 3.026362 1_555
Na28 O130 2.273777 1_555
Na28 O138 2.465699 1_555
Na28 O140 2.666018 1_555
Na28 O142 2.906343 1_555
Na28 O126 2.931075 1_555
Na28 O128 3.018354 1_555
Na29 O131 2.274760 1_555
Na29 O139 2.494750 1_555
Na29 O141 2.714326 1_555
Na29 O127 2.883470 1_555
Na29 O143 2.901467 1_555
Na29 O129 2.948167 1_555
Ca0 O75 2.168362 1_555
Ca0 O5 2.223357 1_655
Ca0 O3 2.234862 1_545
Ca0 O0 2.254447 1_645
Ca0 O72 2.346820 1_645
Ca0 O76 2.382594 1_655
Ca1 O1 2.132352 1_565
Ca1 O4 2.184310 1_565
Ca1 O2 2.269300 1_555
Ca1 O73 2.323191 1_555
Ca1 O74 2.328175 1_565
Ca1 O77 2.373670 1_565
Ca2 O6 2.156170 1_655
Ca2 O9 2.180156 1_545
Ca2 O11 2.265323 1_555
Ca2 O83 2.302157 1_545
Ca2 O78 2.329626 1_555
Ca2 O80 2.381025 1_645
Ca3 O7 2.156258 1_555
Ca3 O8 2.187747 1_545
Ca3 O10 2.268866 1_555
Ca3 O82 2.296561 1_545
Ca3 O79 2.327323 1_555
Ca3 O81 2.383407 1_545
Ca4 O24 2.160867 1_555
Ca4 O100 2.210435 1_555
Ca4 O28 2.224150 1_555
Ca4 O26 2.277592 1_555
Ca4 O98 2.286660 1_555
Ca4 O96 2.371898 1_555
Ca5 O25 2.162466 1_555
Ca5 O29 2.219369 1_555
Ca5 O101 2.224807 1_555
Ca5 O27 2.289640 1_555
Ca5 O99 2.293129 1_555
Ca5 O97 2.384889 1_555
Ca6 O30 2.185234 1_555
Ca6 O104 2.212281 1_555
Ca6 O34 2.238450 1_555
Ca6 O32 2.251132 1_555
Ca6 O106 2.307674 1_555
Ca6 O102 2.366348 1_555
Ca7 O31 2.189720 1_555
Ca7 O33 2.197730 1_555
Ca7 O107 2.209269 1_555
Ca7 O35 2.263312 1_555
Ca7 O105 2.346996 1_555
Ca7 O103 2.380685 1_555
Ca8 O48 2.191182 1_554
Ca8 O122 2.206580 1_555
Ca8 O52 2.213971 1_554
Ca8 O50 2.229062 1_554
Ca8 O124 2.346571 1_555
Ca8 O120 2.348613 1_555
Ca9 O49 2.205552 1_554
Ca9 O123 2.211913 1_555
Ca9 O53 2.220064 1_554
Ca9 O51 2.224450 1_554
Ca9 O121 2.332448 1_555
Ca9 O125 2.355227 1_555
Ca10 O130 2.184579 1_555
Ca10 O54 2.208663 1_555
Ca10 O58 2.213360 1_555
Ca10 O56 2.227090 1_555
Ca10 O128 2.331528 1_555
Ca10 O126 2.367921 1_555
Ca11 O55 2.185845 1_555
Ca11 O57 2.216306 1_555
Ca11 O131 2.223141 1_555
Ca11 O59 2.233037 1_555
Ca11 O129 2.331909 1_555
Ca11 O127 2.354895 1_555
O0 Si0 1.591230 1_555
O1 Si1 1.594645 1_545
O2 S0 1.461300 1_555
O3 S1 1.455354 1_555
O4 Si2 1.606894 1_555
O5 S2 1.445290 1_555
O6 Si3 1.588170 1_555
O7 Si4 1.587617 1_555
O8 Si6 1.601235 1_555
O9 Si5 1.601684 1_655
O10 S3 1.457245 1_545
O11 S4 1.456475 1_545
O12 S3 1.510167 1_555
O12 Sn1 2.378360 1_565
O13 S4 1.513422 1_555
O13 Sn0 2.360928 1_665
O14 Si3 1.691998 1_555
O14 Sn0 2.000022 1_555
O15 Si4 1.694374 1_555
O15 Sn1 1.993844 1_555
O16 Si5 1.707214 1_555
O16 Sn0 2.021308 1_565
O17 Si6 1.706271 1_555
O17 Sn1 2.019061 1_565
O18 S0 1.509556 1_555
O18 Sn3 2.414143 1_565
O19 S1 1.525640 1_555
O19 Sn2 2.256012 1_655
O20 S2 1.526202 1_555
O20 Sn2 2.248116 1_545
O21 Si2 1.705892 1_555
O21 Sn3 2.025270 1_555
O22 Si0 1.713476 1_555
O22 Sn2 1.983057 1_555
O23 Si1 1.703291 1_555
O23 Sn3 1.989903 1_565
O24 Si7 1.598241 1_555
O25 Si8 1.595021 1_555
O26 S5 1.467165 1_555
O27 S6 1.468775 1_555
O28 S7 1.458733 1_555
O29 S8 1.460764 1_555
O30 Si9 1.596561 1_555
O31 Si10 1.599916 1_555
O32 S9 1.455608 1_555
O33 S10 1.449415 1_555
O34 S11 1.454191 1_555
O35 S12 1.468945 1_555
O36 S11 1.519284 1_555
O36 Sn4 2.195960 1_554
O37 S12 1.516307 1_555
O37 Sn5 2.163734 1_554
O38 Si9 1.734115 1_555
O38 Sn4 2.014869 1_554
O39 Si10 1.713794 1_555
O39 Sn5 1.998634 1_554
O40 S9 1.527387 1_555
O40 Sn4 2.200007 1_554
O41 S10 1.519350 1_555
O41 Sn5 2.245336 1_554
O42 S5 1.522842 1_555
O42 Sn6 2.208676 1_555
O43 S6 1.506528 1_555
O43 Sn7 2.205895 1_555
O44 S7 1.530567 1_555
O44 Sn6 2.170066 1_555
O45 S8 1.521393 1_555
O45 Sn7 2.249738 1_555
O46 Si7 1.729083 1_555
O46 Sn6 1.996775 1_555
O47 Si8 1.714634 1_555
O47 Sn7 1.991827 1_555
O48 Si11 1.589546 1_555
O49 Si12 1.589574 1_555
O50 S13 1.457188 1_555
O51 S14 1.455360 1_555
O52 S15 1.452892 1_555
O53 S16 1.452207 1_555
O54 Si13 1.591010 1_555
O55 Si14 1.595467 1_555
O56 S17 1.443309 1_555
O57 S18 1.450921 1_555
O58 S19 1.455739 1_555
O59 S20 1.458091 1_555
O60 S19 1.540282 1_555
O60 Sn8 2.231149 1_555
O61 S20 1.509400 1_555
O61 Sn9 2.345165 1_555
O62 Si13 1.726884 1_555
O62 Sn8 2.014803 1_555
O63 Si14 1.714124 1_555
O63 Sn9 1.958956 1_555
O64 S17 1.534551 1_555
O64 Sn8 2.176506 1_555
O65 S18 1.524431 1_555
O65 Sn9 2.346600 1_555
O66 S13 1.528428 1_555
O66 Sn10 2.256051 1_555
O67 S14 1.529658 1_555
O67 Sn11 2.253629 1_555
O68 S15 1.526577 1_555
O68 Sn10 2.318426 1_555
O69 S16 1.523985 1_555
O69 Sn11 2.315382 1_555
O70 Si11 1.718471 1_555
O70 Sn10 1.994815 1_555
O71 Si12 1.715037 1_555
O71 Sn11 1.994899 1_555
O72 S19 1.472509 1_555
O73 S20 1.456074 1_555
O74 Si13 1.613462 1_545
O75 Si14 1.615074 1_545
O76 S17 1.464701 1_555
O77 S18 1.473952 1_555
O78 S13 1.456228 1_655
O79 S14 1.459248 1_555
O80 S15 1.470502 1_555
O81 S16 1.470218 1_555
O82 Si11 1.626131 1_555
O83 Si12 1.626905 1_555
O84 Si7 1.712085 1_555
O84 Sn1 2.032918 1_555
O85 Si8 1.715536 1_555
O85 Sn0 2.028198 1_655
O86 S5 1.505473 1_555
O86 Sn0 2.212187 1_555
O87 S6 1.510196 1_555
O87 Sn1 2.184839 1_555
O88 S7 1.501866 1_555
O88 Sn1 2.387212 1_565
O89 S8 1.509597 1_555
O89 Sn0 2.351931 1_665
O90 Si9 1.722753 1_555
O90 Sn3 2.043533 1_565
O91 Si10 1.724188 1_555
O91 Sn2 2.024009 1_655
O92 S9 1.508017 1_555
O92 Sn3 2.365588 1_555
O93 S10 1.529789 1_555
O93 Sn2 2.277871 1_645
O94 S11 1.516996 1_555
O94 Sn2 2.176728 1_545
O95 S12 1.501550 1_555
O95 Sn3 2.199347 1_555
O96 S3 1.477899 1_545
O97 S4 1.475042 1_545
O98 Si3 1.633739 1_555
O99 Si4 1.632624 1_555
O100 Si6 1.616553 1_555
O101 Si5 1.613150 1_655
O102 S0 1.465358 1_555
O103 S1 1.483251 1_555
O104 Si2 1.616730 1_555
O105 S2 1.469920 1_655
O106 Si0 1.617284 1_545
O107 Si1 1.624256 1_545
O108 Si11 1.717134 1_555
O108 Sn4 2.027330 1_555
O109 Si12 1.720072 1_555
O109 Sn5 2.027921 1_555
O110 S14 1.524280 1_555
O110 Sn4 2.270212 1_555
O111 S13 1.526353 1_655
O111 Sn5 2.248864 1_555
O112 S15 1.517492 1_545
O112 Sn4 2.203558 1_555
O113 S16 1.521146 1_545
O113 Sn5 2.181184 1_555
O114 Si13 1.728088 1_545
O114 Sn6 2.040308 1_555
O115 Si14 1.708731 1_545
O115 Sn7 2.006231 1_555
O116 S17 1.531013 1_555
O116 Sn6 2.274070 1_555
O117 S18 1.513062 1_555
O117 Sn7 2.200988 1_555
O118 S20 1.544698 1_555
O118 Sn6 2.181185 1_555
O119 S19 1.502664 1_655
O119 Sn7 2.238548 1_555
O120 S11 1.468821 1_555
O121 S12 1.469593 1_555
O122 Si10 1.601965 1_455
O123 Si9 1.605527 1_555
O124 S9 1.475969 1_565
O125 S10 1.466911 1_565
O126 S5 1.472895 1_565
O127 S6 1.471418 1_565
O128 S7 1.472928 1_555
O129 S8 1.472069 1_555
O130 Si8 1.598935 1_455
O131 Si7 1.602833 1_555
O132 Si0 1.726866 1_555
O132 Sn8 2.032529 1_555
O133 Si1 1.684743 1_555
O133 Sn9 2.020874 1_555
O134 S0 1.530437 1_555
O134 Sn8 2.194818 1_555
O135 S1 1.498956 1_555
O135 Sn9 2.242481 1_555
O136 S2 1.531585 1_555
O136 Sn8 2.270743 1_555
O137 Si2 1.688126 1_555
O137 Sn9 2.048996 1_555
O138 Si3 1.690078 1_555
O138 Sn10 2.040599 1_555
O139 Si4 1.687682 1_555
O139 Sn11 2.036559 1_555
O140 Si5 1.696775 1_555
O140 Sn10 2.042107 1_555
O141 Si6 1.693833 1_555
O141 Sn11 2.041320 1_555
O142 S3 1.512841 1_555
O142 Sn10 2.243644 1_555
O143 S4 1.512106 1_555
O143 Sn11 2.244482 1_555
