# generated using pymatgen
data_VP2O7
_symmetry_space_group_name_H-M   'P 1'
_cell_length_a   7.88826961
_cell_length_b   4.80079199
_cell_length_c   6.89210384
_cell_angle_alpha   73.95035984
_cell_angle_beta   90.00000000
_cell_angle_gamma   90.00000000
_symmetry_Int_Tables_number   1
_chemical_formula_structural   VP2O7
_chemical_formula_sum   'V2 P4 O14'
_cell_volume   250.83031017
_cell_formula_units_Z   2
loop_
 _symmetry_equiv_pos_site_id
 _symmetry_equiv_pos_as_xyz
  1  'x, y, z'
loop_
 _atom_site_type_symbol
 _atom_site_label
 _atom_site_symmetry_multiplicity
 _atom_site_fract_x
 _atom_site_fract_y
 _atom_site_fract_z
 _atom_site_occupancy
  V  V0  1  0.00163769  0.78762474  0.72666345  1
  V  V1  1  0.50163769  0.21237526  0.27333655  1
  P  P0  1  0.23357288  0.23340582  0.89702870  1
  P  P1  1  0.81862606  0.39277964  0.49193188  1
  P  P2  1  0.73357288  0.76659418  0.10297130  1
  P  P3  1  0.31862606  0.60722036  0.50806812  1
  O  O0  1  0.82794736  0.58856204  0.63209157  1
  O  O1  1  0.83599981  0.86230692  0.91289237  1
  O  O2  1  0.08308054  0.42441985  0.90908241  1
  O  O3  1  0.36184888  0.41233694  0.72957629  1
  O  O4  1  0.17820388  0.97027613  0.82956259  1
  O  O5  1  0.86184888  0.58766306  0.27042371  1
  O  O6  1  0.94984984  0.15650353  0.53868027  1
  O  O7  1  0.32794736  0.41143796  0.36790843  1
  O  O8  1  0.67820388  0.02972387  0.17043741  1
  O  O9  1  0.64053506  0.27915524  0.48630347  1
  O  O10  1  0.33599981  0.13769308  0.08710763  1
  O  O11  1  0.14053506  0.72084476  0.51369653  1
  O  O12  1  0.58308054  0.57558015  0.09091759  1
  O  O13  1  0.44984984  0.84349647  0.46131973  1
loop_
_geom_bond_atom_site_label_1
_geom_bond_atom_site_label_2
_geom_bond_distance
_geom_bond_site_symmetry_2
O0 P1 1.524476 1_555
O0 V0 1.886735 1_655
O1 P2 1.499107 1_556
O1 V0 1.933284 1_655
O2 P0 1.516315 1_555
O2 V0 1.954899 1_555
O3 P3 1.591379 1_555
O3 P0 1.595482 1_555
O4 P0 1.525619 1_565
O4 V0 1.885632 1_555
O5 P1 1.591379 1_555
O5 P2 1.595482 1_555
O6 P1 1.503291 1_555
O6 V0 1.926896 1_645
O7 P3 1.524476 1_555
O7 V1 1.886735 1_555
O8 P2 1.525619 1_545
O8 V1 1.885632 1_555
O9 P1 1.511393 1_555
O9 V1 1.928175 1_555
O10 P0 1.499107 1_554
O10 V1 1.933284 1_555
O11 P3 1.511393 1_555
O11 V0 1.928175 1_555
O12 P2 1.516315 1_555
O12 V1 1.954899 1_555
O13 P3 1.503291 1_555
O13 V1 1.926896 1_565
