# generated using pymatgen
data_Sr5(Br4Cl)2
_symmetry_space_group_name_H-M   'P 1'
_cell_length_a   11.52698369
_cell_length_b   11.52698369
_cell_length_c   7.05660709
_cell_angle_alpha   90.00000000
_cell_angle_beta   90.00000000
_cell_angle_gamma   90.00000000
_symmetry_Int_Tables_number   1
_chemical_formula_structural   Sr5(Br4Cl)2
_chemical_formula_sum   'Sr10 Br16 Cl4'
_cell_volume   937.62093156
_cell_formula_units_Z   2
loop_
 _symmetry_equiv_pos_site_id
 _symmetry_equiv_pos_as_xyz
  1  'x, y, z'
loop_
 _atom_site_type_symbol
 _atom_site_label
 _atom_site_symmetry_multiplicity
 _atom_site_fract_x
 _atom_site_fract_y
 _atom_site_fract_z
 _atom_site_occupancy
  Sr  Sr0  1  0.50000000  -0.00000000  0.14176576  1
  Sr  Sr1  1  0.00000000  0.50000000  0.85823424  1
  Sr  Sr2  1  0.84537955  0.85731536  0.75091455  1
  Sr  Sr3  1  0.35731536  0.65462045  0.75091455  1
  Sr  Sr4  1  0.64268464  0.34537955  0.75091455  1
  Sr  Sr5  1  0.15462045  0.14268464  0.75091455  1
  Sr  Sr6  1  0.65462045  0.64268464  0.24908545  1
  Sr  Sr7  1  0.14268464  0.84537955  0.24908545  1
  Sr  Sr8  1  0.85731536  0.15462045  0.24908545  1
  Sr  Sr9  1  0.34537955  0.35731536  0.24908545  1
  Br  Br0  1  0.70957111  0.08963032  0.89419655  1
  Br  Br1  1  0.58963032  0.79042889  0.89419655  1
  Br  Br2  1  0.41036968  0.20957111  0.89419655  1
  Br  Br3  1  0.29042889  0.91036968  0.89419655  1
  Br  Br4  1  0.79042889  0.41036968  0.10580345  1
  Br  Br5  1  0.91036968  0.70957111  0.10580345  1
  Br  Br6  1  0.21470100  0.40820353  0.62710173  1
  Br  Br7  1  0.90820353  0.28529900  0.62710173  1
  Br  Br8  1  0.09179647  0.71470100  0.62710173  1
  Br  Br9  1  0.78529900  0.59179647  0.62710173  1
  Br  Br10  1  0.28529900  0.09179647  0.37289827  1
  Br  Br11  1  0.59179647  0.21470100  0.37289827  1
  Br  Br12  1  0.40820353  0.78529900  0.37289827  1
  Br  Br13  1  0.71470100  0.90820353  0.37289827  1
  Br  Br14  1  0.20957111  0.58963032  0.10580345  1
  Br  Br15  1  0.08963032  0.29042889  0.10580345  1
  Cl  Cl0  1  0.00000000  -0.00000000  0.50000000  1
  Cl  Cl1  1  0.50000000  0.50000000  0.50000000  1
  Cl  Cl2  1  0.00000000  -0.00000000  0.00000000  1
  Cl  Cl3  1  0.50000000  0.50000000  0.00000000  1
loop_
_geom_bond_atom_site_label_1
_geom_bond_atom_site_label_2
_geom_bond_distance
_geom_bond_site_symmetry_2
Br0 Sr8 3.119800 1_556
Br0 Sr0 3.155179 1_556
Br0 Sr4 3.210535 1_555
Br0 Sr2 3.262524 1_545
Br1 Sr6 3.119800 1_556
Br1 Sr0 3.155179 1_566
Br1 Sr2 3.210535 1_555
Br1 Sr3 3.262524 1_555
Br2 Sr9 3.119800 1_556
Br2 Sr0 3.155179 1_556
Br2 Sr5 3.210535 1_555
Br2 Sr4 3.262524 1_555
Br3 Sr7 3.119800 1_556
Br3 Sr0 3.155179 1_566
Br3 Sr3 3.210535 1_555
Br3 Sr5 3.262524 1_565
Br4 Sr4 3.119800 1_554
Br4 Sr1 3.155179 1_654
Br4 Sr8 3.210535 1_555
Br4 Sr6 3.262524 1_555
Br5 Sr2 3.119800 1_554
Br5 Sr1 3.155179 1_654
Br5 Sr6 3.210535 1_555
Br5 Sr7 3.262524 1_655
Br6 Sr9 3.119092 1_555
Br6 Sr1 3.147182 1_555
Br6 Sr5 3.257367 1_555
Br6 Sr3 3.396163 1_555
Br7 Sr8 3.119092 1_555
Br7 Sr1 3.147182 1_655
Br7 Sr4 3.257367 1_555
Br7 Sr5 3.396163 1_655
Br8 Sr7 3.119092 1_555
Br8 Sr1 3.147182 1_555
Br8 Sr3 3.257367 1_555
Br8 Sr2 3.396163 1_455
Br9 Sr6 3.119092 1_555
Br9 Sr1 3.147182 1_655
Br9 Sr2 3.257367 1_555
Br9 Sr4 3.396163 1_555
Br10 Sr5 3.119092 1_555
Br10 Sr0 3.147182 1_555
Br10 Sr9 3.257367 1_555
Br10 Sr7 3.396163 1_545
Br11 Sr4 3.119092 1_555
Br11 Sr0 3.147182 1_555
Br11 Sr8 3.257367 1_555
Br11 Sr9 3.396163 1_555
Br12 Sr3 3.119092 1_555
Br12 Sr0 3.147182 1_565
Br12 Sr7 3.257367 1_555
Br12 Sr6 3.396163 1_555
Br13 Sr2 3.119092 1_555
Br13 Sr0 3.147182 1_565
Br13 Sr6 3.257367 1_555
Br13 Sr8 3.396163 1_565
Br14 Sr3 3.119800 1_554
Br14 Sr1 3.155179 1_554
Br14 Sr7 3.210535 1_555
Br14 Sr9 3.262524 1_555
Br15 Sr5 3.119800 1_554
Br15 Sr1 3.155179 1_554
Br15 Sr9 3.210535 1_555
Br15 Sr8 3.262524 1_455
Cl0 Sr7 3.002795 1_545
Cl0 Sr8 3.002795 1_455
Cl0 Sr5 3.002795 1_555
Cl0 Sr2 3.002795 1_445
Cl1 Sr9 3.002795 1_555
Cl1 Sr3 3.002795 1_555
Cl1 Sr4 3.002795 1_555
Cl1 Sr6 3.002795 1_555
Cl2 Sr7 2.995202 1_545
Cl2 Sr8 2.995202 1_455
Cl2 Sr5 2.995202 1_554
Cl2 Sr2 2.995202 1_444
Cl3 Sr9 2.995202 1_555
Cl3 Sr3 2.995202 1_554
Cl3 Sr4 2.995202 1_554
Cl3 Sr6 2.995202 1_555
