# generated using pymatgen
data_UBrN
_symmetry_space_group_name_H-M   'P 1'
_cell_length_a   3.85492053
_cell_length_b   3.85492053
_cell_length_c   8.80549169
_cell_angle_alpha   90.00000000
_cell_angle_beta   90.00000000
_cell_angle_gamma   90.00000000
_symmetry_Int_Tables_number   1
_chemical_formula_structural   UBrN
_chemical_formula_sum   'U2 Br2 N2'
_cell_volume   130.85323695
_cell_formula_units_Z   2
loop_
 _symmetry_equiv_pos_site_id
 _symmetry_equiv_pos_as_xyz
  1  'x, y, z'
loop_
 _atom_site_type_symbol
 _atom_site_label
 _atom_site_symmetry_multiplicity
 _atom_site_fract_x
 _atom_site_fract_y
 _atom_site_fract_z
 _atom_site_occupancy
  U  U0  1  0.75000000  0.75000000  0.86691614  1
  U  U1  1  0.25000000  0.25000000  0.13308386  1
  Br  Br0  1  0.25000000  0.25000000  0.66814921  1
  Br  Br1  1  0.75000000  0.75000000  0.33185079  1
  N  N0  1  0.75000000  0.25000000  0.00000000  1
  N  N1  1  0.25000000  0.75000000  0.00000000  1
loop_
_geom_bond_atom_site_label_1
_geom_bond_atom_site_label_2
_geom_bond_distance
_geom_bond_site_symmetry_2
Br0 U0 3.239375 1_545
Br0 U0 3.239375 1_445
Br0 U0 3.239375 1_555
Br0 U0 3.239375 1_455
Br1 U1 3.239375 1_555
Br1 U1 3.239375 1_665
Br1 U1 3.239375 1_655
Br1 U1 3.239375 1_565
N0 U0 2.255744 1_544
N0 U0 2.255744 1_554
N0 U1 2.255744 1_655
N0 U1 2.255744 1_555
N1 U0 2.255744 1_554
N1 U0 2.255744 1_454
N1 U1 2.255744 1_555
N1 U1 2.255744 1_565
