# generated using pymatgen
data_Na3InP2
_symmetry_space_group_name_H-M   'P 1'
_cell_length_a   7.31922952
_cell_length_b   9.38939943
_cell_length_c   15.28846915
_cell_angle_alpha   87.36032944
_cell_angle_beta   90.00000000
_cell_angle_gamma   90.00000000
_symmetry_Int_Tables_number   1
_chemical_formula_structural   Na3InP2
_chemical_formula_sum   'Na24 In8 P16'
_cell_volume   1049.55721140
_cell_formula_units_Z   8
loop_
 _symmetry_equiv_pos_site_id
 _symmetry_equiv_pos_as_xyz
  1  'x, y, z'
loop_
 _atom_site_type_symbol
 _atom_site_label
 _atom_site_symmetry_multiplicity
 _atom_site_fract_x
 _atom_site_fract_y
 _atom_site_fract_z
 _atom_site_occupancy
  Na  Na0  1  0.15237827  0.87630306  0.70440067  1
  Na  Na1  1  0.65237827  0.12369694  0.79559933  1
  Na  Na2  1  0.84762173  0.12369694  0.29559933  1
  Na  Na3  1  0.34762173  0.87630306  0.20440067  1
  Na  Na4  1  0.49150918  0.56046377  0.10487662  1
  Na  Na5  1  0.99150918  0.43953623  0.39512338  1
  Na  Na6  1  0.50849082  0.43953623  0.89512338  1
  Na  Na7  1  0.00849082  0.56046377  0.60487662  1
  Na  Na8  1  0.96867457  0.18752338  0.64993771  1
  Na  Na9  1  0.46867457  0.81247662  0.85006229  1
  Na  Na10  1  0.03132543  0.81247662  0.35006229  1
  Na  Na11  1  0.53132543  0.18752338  0.14993771  1
  Na  Na12  1  0.84647861  0.38365413  0.04539524  1
  Na  Na13  1  0.34647861  0.61634587  0.45460476  1
  Na  Na14  1  0.15352139  0.61634587  0.95460476  1
  Na  Na15  1  0.65352139  0.38365413  0.54539524  1
  Na  Na16  1  0.97764427  0.93418225  0.89421881  1
  Na  Na17  1  0.47764427  0.06581775  0.60578119  1
  Na  Na18  1  0.02235573  0.06581775  0.10578119  1
  Na  Na19  1  0.52235573  0.93418225  0.39421881  1
  Na  Na20  1  0.00365301  0.32134646  0.86260099  1
  Na  Na21  1  0.50365301  0.67865354  0.63739901  1
  Na  Na22  1  0.99634699  0.67865354  0.13739901  1
  Na  Na23  1  0.49634699  0.32134646  0.36260099  1
  In  In0  1  0.64154399  0.87380239  0.04127701  1
  In  In1  1  0.14154399  0.12619761  0.45872299  1
  In  In2  1  0.35845601  0.12619761  0.95872299  1
  In  In3  1  0.85845601  0.87380239  0.54127701  1
  In  In4  1  0.65432053  0.63613585  0.29017560  1
  In  In5  1  0.15432053  0.36386415  0.20982440  1
  In  In6  1  0.34567947  0.36386415  0.70982440  1
  In  In7  1  0.84567947  0.63613585  0.79017560  1
  P  P0  1  0.21808216  0.87356136  0.52370067  1
  P  P1  1  0.71808216  0.12643864  0.97629933  1
  P  P2  1  0.78191784  0.12643864  0.47629933  1
  P  P3  1  0.28191784  0.87356136  0.02370067  1
  P  P4  1  0.70677895  0.40713555  0.72544574  1
  P  P5  1  0.20677895  0.59286445  0.77455426  1
  P  P6  1  0.29322105  0.59286445  0.27455426  1
  P  P7  1  0.79322105  0.40713555  0.22544574  1
  P  P8  1  0.76287114  0.65248452  0.95834911  1
  P  P9  1  0.26287114  0.34751548  0.54165089  1
  P  P10  1  0.23712886  0.34751548  0.04165089  1
  P  P11  1  0.73712886  0.65248452  0.45834911  1
  P  P12  1  0.75954589  0.87458755  0.70622791  1
  P  P13  1  0.25954589  0.12541245  0.79377209  1
  P  P14  1  0.24045411  0.12541245  0.29377209  1
  P  P15  1  0.74045411  0.87458755  0.20622791  1
loop_
_geom_bond_atom_site_label_1
_geom_bond_atom_site_label_2
_geom_bond_distance
_geom_bond_site_symmetry_2
Na0 P0 2.805456 1_555
Na0 P5 2.851067 1_555
Na0 P13 2.871830 1_565
Na0 P12 2.875404 1_455
Na1 P1 2.805456 1_555
Na1 P4 2.851067 1_555
Na1 P12 2.871830 1_545
Na1 P13 2.875404 1_555
Na2 P2 2.805456 1_555
Na2 P7 2.851067 1_555
Na2 P15 2.871830 1_545
Na2 P14 2.875404 1_655
Na3 P3 2.805456 1_555
Na3 P6 2.851067 1_555
Na3 P14 2.871830 1_565
Na3 P15 2.875404 1_555
Na4 P10 2.928611 1_555
Na4 P6 3.000163 1_555
Na4 P8 3.087312 1_554
Na4 P7 3.178457 1_555
Na5 P11 2.928611 1_555
Na5 P7 3.000163 1_555
Na5 P9 3.087312 1_655
Na5 P6 3.178457 1_655
Na6 P8 2.928611 1_555
Na6 P4 3.000163 1_555
Na6 P10 3.087312 1_556
Na6 P5 3.178457 1_555
Na7 P9 2.928611 1_555
Na7 P5 3.000163 1_555
Na7 P11 3.087312 1_455
Na7 P4 3.178457 1_455
Na8 P2 3.063479 1_555
Na8 P9 3.066773 1_655
Na8 P4 3.078679 1_555
Na8 P13 3.096782 1_655
Na8 P12 3.388822 1_545
Na9 P3 3.063479 1_556
Na9 P8 3.066773 1_555
Na9 P5 3.078679 1_555
Na9 P12 3.096782 1_555
Na9 P13 3.388822 1_565
Na10 P0 3.063479 1_555
Na10 P11 3.066773 1_455
Na10 P6 3.078679 1_555
Na10 P15 3.096782 1_455
Na10 P14 3.388822 1_565
Na11 P1 3.063479 1_554
Na11 P10 3.066773 1_555
Na11 P7 3.078679 1_555
Na11 P14 3.096782 1_555
Na11 P15 3.388822 1_545
Na12 P7 2.798892 1_555
Na12 P1 2.840206 1_554
Na12 P8 2.864867 1_554
Na12 P10 2.880202 1_655
Na13 P6 2.798892 1_555
Na13 P0 2.840206 1_555
Na13 P9 2.864867 1_555
Na13 P11 2.880202 1_555
Na14 P5 2.798892 1_555
Na14 P3 2.840206 1_556
Na14 P10 2.864867 1_556
Na14 P8 2.880202 1_455
Na15 P4 2.798892 1_555
Na15 P2 2.840206 1_555
Na15 P11 2.864867 1_555
Na15 P9 2.880202 1_555
Na16 P1 2.941302 1_565
Na16 P3 3.016401 1_656
Na16 P13 3.096045 1_665
Na16 P8 3.192085 1_555
Na16 P12 3.357061 1_555
Na17 P0 2.941302 1_545
Na17 P2 3.016401 1_555
Na17 P12 3.096045 1_545
Na17 P9 3.192085 1_555
Na17 P13 3.357061 1_555
Na18 P3 2.941302 1_545
Na18 P1 3.016401 1_454
Na18 P15 3.096045 1_445
Na18 P10 3.192085 1_555
Na18 P14 3.357061 1_555
Na19 P2 2.941302 1_565
Na19 P0 3.016401 1_555
Na19 P14 3.096045 1_565
Na19 P11 3.192085 1_555
Na19 P15 3.357061 1_555
Na20 P13 2.859726 1_555
Na20 P4 3.100270 1_455
Na20 P5 3.194626 1_555
Na20 P1 3.232103 1_455
Na20 P10 3.245904 1_556
Na21 P12 2.859726 1_555
Na21 P5 3.100270 1_555
Na21 P4 3.194626 1_555
Na21 P0 3.232103 1_555
Na21 P11 3.245904 1_555
Na22 P15 2.859726 1_555
Na22 P6 3.100270 1_655
Na22 P7 3.194626 1_555
Na22 P3 3.232103 1_655
Na22 P8 3.245904 1_554
Na23 P14 2.859726 1_555
Na23 P7 3.100270 1_555
Na23 P6 3.194626 1_555
Na23 P2 3.232103 1_555
Na23 P9 3.245904 1_555
In0 P1 2.590464 1_564
In0 P15 2.624038 1_555
In0 P8 2.637600 1_554
In0 P3 2.645879 1_555
In0 Na4 3.247089 1_555
In1 P0 2.590464 1_545
In1 P14 2.624038 1_555
In1 P9 2.637600 1_555
In1 P2 2.645879 1_455
In1 Na5 3.247089 1_455
In2 P3 2.590464 1_546
In2 P13 2.624038 1_555
In2 P10 2.637600 1_556
In2 P1 2.645879 1_555
In2 Na6 3.247089 1_555
In3 P2 2.590464 1_565
In3 P12 2.624038 1_555
In3 P11 2.637600 1_555
In3 P0 2.645879 1_655
In3 Na7 3.247089 1_655
In4 P15 2.606285 1_555
In4 P7 2.613841 1_555
In4 P11 2.652904 1_555
In4 P6 2.686325 1_555
In4 Na4 3.183678 1_555
In4 Na23 3.316258 1_555
In4 Na10 3.366537 1_655
In4 Na13 3.374582 1_555
In4 Na3 3.401700 1_555
In4 Na19 3.421201 1_555
In4 Na22 3.434521 1_555
In4 Na5 3.435106 1_555
In5 P14 2.606285 1_555
In5 P6 2.613841 1_555
In5 P10 2.652904 1_555
In5 P7 2.686325 1_455
In5 Na5 3.183678 1_455
In5 Na22 3.316258 1_455
In5 Na11 3.366537 1_555
In5 Na12 3.374582 1_455
In5 Na2 3.401700 1_455
In5 Na18 3.421201 1_555
In5 Na23 3.434521 1_555
In5 Na4 3.435106 1_555
In6 P13 2.606285 1_555
In6 P5 2.613841 1_555
In6 P9 2.652904 1_555
In6 P4 2.686325 1_555
In6 Na6 3.183678 1_555
In6 Na21 3.316258 1_555
In6 Na8 3.366537 1_455
In6 Na15 3.374582 1_555
In6 Na1 3.401700 1_555
In6 Na17 3.421201 1_555
In6 Na20 3.434521 1_555
In6 Na7 3.435106 1_555
In7 P12 2.606285 1_555
In7 P4 2.613841 1_555
In7 P8 2.652904 1_555
In7 P5 2.686325 1_655
In7 Na7 3.183678 1_655
In7 Na20 3.316258 1_655
In7 Na9 3.366537 1_555
In7 Na14 3.374582 1_655
In7 Na0 3.401700 1_655
In7 Na16 3.421201 1_555
In7 Na21 3.434521 1_555
In7 Na6 3.435106 1_555
