# generated using pymatgen
data_MgMn4(NiO4)2
_symmetry_space_group_name_H-M   'P 1'
_cell_length_a   5.95668638
_cell_length_b   6.33373333
_cell_length_c   6.06342624
_cell_angle_alpha   61.40200312
_cell_angle_beta   59.40543666
_cell_angle_gamma   64.06419306
_symmetry_Int_Tables_number   1
_chemical_formula_structural   MgMn4(NiO4)2
_chemical_formula_sum   'Mg1 Mn4 Ni2 O8'
_cell_volume   167.11431342
_cell_formula_units_Z   1
loop_
 _symmetry_equiv_pos_site_id
 _symmetry_equiv_pos_as_xyz
  1  'x, y, z'
loop_
 _atom_site_type_symbol
 _atom_site_label
 _atom_site_symmetry_multiplicity
 _atom_site_fract_x
 _atom_site_fract_y
 _atom_site_fract_z
 _atom_site_occupancy
  Mg  Mg0  1  0.12500000  0.62500000  0.12500000  1
  Mn  Mn0  1  0.96124200  0.09339700  0.97268000  1
  Mn  Mn1  1  0.28875800  0.15660300  0.27732000  1
  Mn  Mn2  1  0.62500000  0.62500000  0.12500000  1
  Mn  Mn3  1  0.62500000  0.62500000  0.62500000  1
  Ni  Ni0  1  0.12500000  0.62500000  0.62500000  1
  Ni  Ni1  1  0.62500000  0.12500000  0.62500000  1
  O  O0  1  0.37787300  0.39798100  0.36203100  1
  O  O1  1  0.42356700  0.79266200  0.39188600  1
  O  O2  1  0.37787300  0.39798100  0.86211600  1
  O  O3  1  0.88700500  0.36542000  0.37378800  1
  O  O4  1  0.36299500  0.88458000  0.87621200  1
  O  O5  1  0.87212700  0.85201900  0.38788400  1
  O  O6  1  0.82643300  0.45733800  0.85811400  1
  O  O7  1  0.87212700  0.85201900  0.88796900  1
loop_
_geom_bond_atom_site_label_1
_geom_bond_atom_site_label_2
_geom_bond_distance
_geom_bond_site_symmetry_2
Mg0 O3 2.115676 1_455
Mg0 O4 2.115676 1_554
Mg0 O5 2.175486 1_455
Mg0 O2 2.175486 1_554
Mg0 O0 2.175491 1_555
Mg0 O7 2.175491 1_454
Mn0 O6 1.963832 1_555
Mn0 O4 2.089378 1_645
Mn0 O7 2.149902 1_545
Mn0 O5 2.149903 1_546
Mn1 O1 1.963832 1_545
Mn1 O3 2.089378 1_455
Mn1 O0 2.149902 1_555
Mn1 O2 2.149903 1_554
Mn2 O6 1.933953 1_554
Mn2 O1 1.933953 1_555
Mn2 O0 2.004893 1_555
Mn2 O7 2.004893 1_554
Mn2 O4 2.278620 1_554
Mn2 O3 2.278620 1_555
Mn3 O1 1.933948 1_555
Mn3 O6 1.933948 1_555
Mn3 O5 2.004893 1_555
Mn3 O2 2.004893 1_555
Mn3 O3 2.278616 1_555
Mn3 O4 2.278616 1_555
Ni0 O1 1.986140 1_555
Ni0 O6 1.986140 1_455
Ni0 O7 2.175845 1_455
Ni0 O0 2.175845 1_555
Ni0 O5 2.175850 1_455
Ni0 O2 2.175850 1_555
Ni1 O4 2.124423 1_545
Ni1 O3 2.124423 1_555
Ni1 O7 2.285274 1_545
Ni1 O0 2.285274 1_555
Ni1 O2 2.285277 1_555
Ni1 O5 2.285277 1_545
