# generated using pymatgen
data_Na2AlZnP(SO6)2
_symmetry_space_group_name_H-M   'P 1'
_cell_length_a   8.65541366
_cell_length_b   8.67362416
_cell_length_c   21.88251646
_cell_angle_alpha   90.17361287
_cell_angle_beta   90.00000000
_cell_angle_gamma   119.93057249
_symmetry_Int_Tables_number   1
_chemical_formula_structural   Na2AlZnP(SO6)2
_chemical_formula_sum   'Na12 Al6 Zn6 P6 S12 O72'
_cell_volume   1423.69537978
_cell_formula_units_Z   6
loop_
 _symmetry_equiv_pos_site_id
 _symmetry_equiv_pos_as_xyz
  1  'x, y, z'
loop_
 _atom_site_type_symbol
 _atom_site_label
 _atom_site_symmetry_multiplicity
 _atom_site_fract_x
 _atom_site_fract_y
 _atom_site_fract_z
 _atom_site_occupancy
  Na  Na0  1  0.99556757  0.63697475  0.24285026  1
  Na  Na1  1  0.64140718  0.63697475  0.74285026  1
  Na  Na2  1  0.65770820  0.96305867  0.58018298  1
  Na  Na3  1  0.30535147  0.96305867  0.08018298  1
  Na  Na4  1  0.69461625  0.02414587  0.91042468  1
  Na  Na5  1  0.32952862  0.02414587  0.41042468  1
  Na  Na6  1  0.98375722  0.99153013  0.49643914  1
  Na  Na7  1  0.00777290  0.99153013  0.99643914  1
  Na  Na8  1  0.65927889  0.31730554  0.82951610  1
  Na  Na9  1  0.65802765  0.31730554  0.32951610  1
  Na  Na10  1  0.33679666  0.65439609  0.16312419  1
  Na  Na11  1  0.31759843  0.65439609  0.66312419  1
  Al  Al0  1  0.99374764  0.99107102  0.64892962  1
  Al  Al1  1  0.99732338  0.99107102  0.14892962  1
  Al  Al2  1  0.66750450  0.34164265  0.98158482  1
  Al  Al3  1  0.67413915  0.34164265  0.48158482  1
  Al  Al4  1  0.34635765  0.68465699  0.31562972  1
  Al  Al5  1  0.33829834  0.68465699  0.81562972  1
  Zn  Zn0  1  0.99577760  0.00472354  0.35001245  1
  Zn  Zn1  1  0.00894594  0.00472354  0.85001245  1
  Zn  Zn2  1  0.66691140  0.32632075  0.68299119  1
  Zn  Zn3  1  0.65941034  0.32632075  0.18299119  1
  Zn  Zn4  1  0.31717113  0.66599238  0.01640970  1
  Zn  Zn5  1  0.34882025  0.66599238  0.51640970  1
  P  P0  1  0.29379136  -0.00296432  0.25197684  1
  P  P1  1  0.70324432  -0.00296432  0.75197684  1
  P  P2  1  0.67542727  0.62547067  0.58628602  1
  P  P3  1  0.95004440  0.62547067  0.08628602  1
  P  P4  1  0.33954742  0.97173615  0.92020146  1
  P  P5  1  0.63218774  0.97173615  0.42020146  1
  S  S0  1  0.70013865  0.71189106  0.25080791  1
  S  S1  1  0.01093540  0.29607688  0.24942441  1
  S  S2  1  0.28514148  0.29607688  0.74942441  1
  S  S3  1  0.01175241  0.71189106  0.75080791  1
  S  S4  1  0.96060138  0.33037529  0.58347999  1
  S  S5  1  0.36162883  0.04228942  0.58242101  1
  S  S6  1  0.68066158  0.04228942  0.08242101  1
  S  S7  1  0.36977491  0.33037529  0.08347999  1
  S  S8  1  0.61794193  0.65464651  0.91665922  1
  S  S9  1  0.03940936  0.38196963  0.91569282  1
  S  S10  1  0.34255927  0.38196963  0.41569282  1
  S  S11  1  0.03670358  0.65464651  0.41665922  1
  O  O0  1  0.21318565  0.01858467  0.31142977  1
  O  O1  1  0.81051376  0.78751527  0.30559655  1
  O  O2  1  0.98326431  0.19725747  0.30591432  1
  O  O3  1  0.21399316  0.19725747  0.80591432  1
  O  O4  1  0.97700151  0.78751527  0.80559655  1
  O  O5  1  0.80539902  0.01858467  0.81142977  1
  O  O6  1  0.79632875  0.96269992  0.69528558  1
  O  O7  1  0.17380625  0.20211373  0.69465062  1
  O  O8  1  0.03927278  0.82427290  0.69534293  1
  O  O9  1  0.78500012  0.82427290  0.19534293  1
  O  O10  1  0.02830748  0.20211373  0.19465062  1
  O  O11  1  0.16637117  0.96269992  0.19528558  1
  O  O12  1  0.88792440  0.35777990  0.64004748  1
  O  O13  1  0.47894823  0.11872819  0.63574617  1
  O  O14  1  0.65323996  0.52811419  0.64650505  1
  O  O15  1  0.87487523  0.52811419  0.14650505  1
  O  O16  1  0.63978095  0.11872819  0.13574617  1
  O  O17  1  0.46985650  0.35777990  0.14004748  1
  O  O18  1  0.45710281  0.29438843  0.02964668  1
  O  O19  1  0.83004336  0.52619896  0.03014047  1
  O  O20  1  0.70308729  0.14897634  0.02547296  1
  O  O21  1  0.44589005  0.14897634  0.52547296  1
  O  O22  1  0.69615660  0.52619896  0.53014047  1
  O  O23  1  0.83728662  0.29438843  0.52964668  1
  O  O24  1  0.53365265  0.68388790  0.97004904  1
  O  O25  1  0.14016274  0.45156760  0.97225491  1
  O  O26  1  0.31475300  0.87388379  0.98076057  1
  O  O27  1  0.55912979  0.87388379  0.48076057  1
  O  O28  1  0.31140387  0.45156760  0.47225491  1
  O  O29  1  0.15023425  0.68388790  0.47004904  1
  O  O30  1  0.11818827  0.62998047  0.35881740  1
  O  O31  1  0.49722842  0.87332363  0.36606407  1
  O  O32  1  0.36078955  0.49317180  0.36117139  1
  O  O33  1  0.13238125  0.49317180  0.86117139  1
  O  O34  1  0.37609421  0.87332363  0.86606407  1
  O  O35  1  0.51179120  0.62998047  0.85881740  1
  O  O36  1  0.01425846  0.81296801  0.41215137  1
  O  O37  1  0.81804391  0.99780317  0.41121817  1
  O  O38  1  0.19263146  0.19676593  0.41022946  1
  O  O39  1  0.00413446  0.19676593  0.91022946  1
  O  O40  1  0.17975926  0.99780317  0.91121817  1
  O  O41  1  0.79870956  0.81296801  0.91215137  1
  O  O42  1  0.96951038  0.16011998  0.58796289  1
  O  O43  1  0.18791069  0.03748806  0.59025845  1
  O  O44  1  0.84760922  0.81762907  0.58959790  1
  O  O45  1  0.97001985  0.81762907  0.08959790  1
  O  O46  1  0.84957737  0.03748806  0.09025845  1
  O  O47  1  0.19060961  0.16011998  0.08796289  1
  O  O48  1  0.67454864  0.15567557  0.74448262  1
  O  O49  1  0.46996907  0.32807030  0.74402687  1
  O  O50  1  0.85594152  0.53159422  0.74435824  1
  O  O51  1  0.67565371  0.53159422  0.24435824  1
  O  O52  1  0.85810223  0.32807030  0.24402687  1
  O  O53  1  0.48112793  0.15567557  0.24448262  1
  O  O54  1  0.63228621  0.49065423  0.92218293  1
  O  O55  1  0.85938873  0.37116216  0.91958580  1
  O  O56  1  0.52002736  0.15674126  0.92485103  1
  O  O57  1  0.63671490  0.15674126  0.42485103  1
  O  O58  1  0.51177444  0.37116216  0.41958580  1
  O  O59  1  0.85836902  0.49065423  0.42218293  1
  O  O60  1  0.34499402  0.48361915  0.07467965  1
  O  O61  1  0.14261675  0.65664590  0.08145965  1
  O  O62  1  0.52799531  0.85856394  0.07672584  1
  O  O63  1  0.33056763  0.85856394  0.57672584  1
  O  O64  1  0.51402815  0.65664590  0.58145965  1
  O  O65  1  0.13862414  0.48361915  0.57467965  1
  O  O66  1  0.30101441  0.81762896  0.25643076  1
  O  O67  1  0.52224354  0.70001138  0.25691709  1
  O  O68  1  0.17876035  0.47580386  0.25294079  1
  O  O69  1  0.29704251  0.47580386  0.75294079  1
  O  O70  1  0.17776685  0.70001138  0.75691709  1
  O  O71  1  0.51661355  0.81762896  0.75643076  1
loop_
_geom_bond_atom_site_label_1
_geom_bond_atom_site_label_2
_geom_bond_distance
_geom_bond_site_symmetry_2
Na0 O66 2.323009 1_655
Na0 O52 2.326864 1_555
Na0 O15 2.330512 1_555
Na0 O51 2.445074 1_555
Na0 O68 2.594404 1_655
Na0 O11 2.664703 1_655
Na0 O30 2.763146 1_655
Na0 O1 2.869120 1_555
Na1 O71 2.323016 1_555
Na1 O49 2.326864 1_555
Na1 O14 2.330514 1_555
Na1 O50 2.445082 1_555
Na1 O69 2.594412 1_555
Na1 O6 2.664703 1_555
Na1 O35 2.763149 1_555
Na1 O4 2.869120 1_555
Na2 O64 2.304995 1_555
Na2 O27 2.321808 1_555
Na2 O42 2.372539 1_565
Na2 O63 2.506672 1_555
Na2 O44 2.530966 1_555
Na2 O23 2.731213 1_565
Na2 O13 2.787499 1_565
Na2 O6 2.790586 1_555
Na3 O61 2.304995 1_555
Na3 O26 2.321805 1_554
Na3 O47 2.372546 1_565
Na3 O62 2.506656 1_555
Na3 O45 2.530974 1_455
Na3 O18 2.731213 1_565
Na3 O16 2.787499 1_565
Na3 O11 2.790590 1_555
Na4 O39 2.327267 1_655
Na4 O56 2.331946 1_555
Na4 O5 2.379066 1_555
Na4 O41 2.411526 1_545
Na4 O34 2.578305 1_545
Na4 O55 2.616548 1_555
Na4 O20 2.723965 1_556
Na4 O24 2.876383 1_545
Na5 O38 2.327260 1_555
Na5 O57 2.331962 1_555
Na5 O0 2.379062 1_555
Na5 O36 2.411520 1_545
Na5 O31 2.578305 1_545
Na5 O58 2.616548 1_555
Na5 O21 2.723968 1_555
Na5 O29 2.876383 1_545
Na6 O37 2.369891 1_555
Na6 O44 2.462594 1_555
Na6 O36 2.502208 1_655
Na6 O42 2.515306 1_565
Na6 O43 2.605430 1_665
Na6 O38 2.608640 1_665
Na7 O40 2.369891 1_555
Na7 O45 2.462594 1_456
Na7 O41 2.502208 1_455
Na7 O47 2.515306 1_566
Na7 O46 2.605430 1_466
Na7 O39 2.608640 1_565
Na8 O48 2.369453 1_555
Na8 O56 2.467166 1_555
Na8 O55 2.507954 1_555
Na8 O49 2.519305 1_555
Na8 O50 2.586200 1_555
Na8 O54 2.599856 1_555
Na9 O53 2.369453 1_555
Na9 O57 2.467166 1_555
Na9 O58 2.507954 1_555
Na9 O52 2.519305 1_555
Na9 O51 2.586200 1_555
Na9 O59 2.599856 1_555
Na10 O60 2.456091 1_555
Na10 O68 2.457124 1_555
Na10 O61 2.459992 1_555
Na10 O67 2.511323 1_555
Na10 O62 2.558308 1_555
Na10 O66 2.586387 1_555
Na11 O65 2.456091 1_555
Na11 O69 2.457124 1_555
Na11 O64 2.459992 1_555
Na11 O70 2.511323 1_555
Na11 O63 2.558308 1_555
Na11 O71 2.586387 1_555
Al0 O6 1.895057 1_555
Al0 O44 1.907361 1_555
Al0 O8 1.964088 1_655
Al0 O7 1.980575 1_665
Al0 O43 1.990643 1_665
Al0 O42 2.071857 1_565
Al1 O11 1.895057 1_655
Al1 O45 1.907361 1_555
Al1 O9 1.964088 1_555
Al1 O10 1.980575 1_665
Al1 O46 1.990643 1_565
Al1 O47 2.071858 1_665
Al2 O19 1.847433 1_556
Al2 O56 1.920361 1_555
Al2 O18 1.961712 1_556
Al2 O54 1.963767 1_555
Al2 O55 2.059688 1_555
Al2 O20 2.081619 1_556
Al3 O22 1.847433 1_555
Al3 O57 1.920361 1_555
Al3 O23 1.961712 1_555
Al3 O59 1.963767 1_555
Al3 O58 2.059688 1_555
Al3 O21 2.081619 1_555
Al4 O31 1.859501 1_555
Al4 O66 1.903448 1_555
Al4 O67 1.945433 1_555
Al4 O32 1.996071 1_555
Al4 O30 2.021476 1_555
Al4 O68 2.151821 1_555
Al5 O34 1.859501 1_555
Al5 O71 1.903448 1_555
Al5 O70 1.945433 1_555
Al5 O33 1.996071 1_555
Al5 O35 2.021476 1_555
Al5 O69 2.151821 1_555
O0 P0 1.530650 1_555
O0 Zn0 2.010755 1_455
O1 S0 1.466366 1_555
O1 Zn0 2.009871 1_565
O2 S1 1.456583 1_655
O2 Zn0 1.980394 1_555
O3 S2 1.456583 1_555
O3 Zn1 1.980394 1_555
O4 S3 1.466366 1_655
O4 Zn1 2.009871 1_665
O5 P1 1.530650 1_555
O5 Zn1 2.010755 1_655
O6 P1 1.585554 1_565
O7 S2 1.496602 1_555
O8 S3 1.501820 1_555
O9 S0 1.501820 1_555
O10 S1 1.496602 1_555
O11 P0 1.585554 1_565
O12 S4 1.460094 1_555
O12 Zn2 2.024254 1_555
O13 S5 1.468270 1_555
O13 Zn2 2.005797 1_555
O14 P2 1.526864 1_555
O14 Zn2 1.982445 1_555
O15 P3 1.526864 1_555
O15 Zn3 1.982445 1_555
O16 S6 1.468270 1_555
O16 Zn3 2.005797 1_555
O17 S7 1.460094 1_555
O17 Zn3 2.024254 1_555
O18 S7 1.513163 1_555
O19 P3 1.559108 1_555
O20 S6 1.508195 1_555
O21 S5 1.508195 1_555
O22 P2 1.559108 1_555
O23 S4 1.513163 1_555
O24 S8 1.464367 1_555
O24 Zn4 2.067582 1_556
O25 S9 1.458424 1_555
O25 Zn4 1.971172 1_556
O26 P4 1.532181 1_555
O26 Zn4 1.976511 1_556
O27 P5 1.532181 1_555
O27 Zn5 1.976511 1_555
O28 S10 1.458424 1_555
O28 Zn5 1.971172 1_555
O29 S11 1.464367 1_555
O29 Zn5 2.067582 1_555
O30 S11 1.514658 1_555
O31 P5 1.579693 1_555
O32 S10 1.494562 1_555
O33 S9 1.494562 1_555
O34 P4 1.579693 1_555
O35 S8 1.514658 1_555
O36 S11 1.483323 1_555
O36 Zn0 2.218108 1_465
O37 P5 1.521472 1_555
O37 Zn0 2.017997 1_565
O38 S10 1.482359 1_555
O38 Zn0 2.137418 1_455
O39 S9 1.482362 1_555
O39 Zn1 2.137418 1_555
O40 P4 1.521464 1_555
O40 Zn1 2.017997 1_565
O41 S8 1.483328 1_555
O41 Zn1 2.218108 1_665
O42 S4 1.520136 1_555
O43 S5 1.493159 1_555
O44 P2 1.588950 1_555
O45 P3 1.588953 1_555
O46 S6 1.493151 1_555
O47 S7 1.520141 1_555
O48 P1 1.524571 1_555
O48 Zn2 2.028648 1_555
O49 S2 1.485727 1_555
O49 Zn2 2.171522 1_555
O50 S3 1.475913 1_655
O50 Zn2 2.174586 1_555
O51 S0 1.475916 1_555
O51 Zn3 2.174586 1_555
O52 S1 1.485719 1_655
O52 Zn3 2.171522 1_555
O53 P0 1.524577 1_555
O53 Zn3 2.028648 1_555
O54 S8 1.493499 1_555
O55 S9 1.515975 1_655
O56 P4 1.588436 1_545
O57 P5 1.588427 1_545
O58 S10 1.515992 1_555
O59 S11 1.493489 1_655
O60 S7 1.461457 1_555
O60 Zn4 2.139725 1_555
O61 P3 1.553347 1_455
O61 Zn4 2.047905 1_555
O62 S6 1.482751 1_565
O62 Zn4 2.192455 1_555
O63 S5 1.482745 1_565
O63 Zn5 2.192455 1_555
O64 P2 1.553364 1_555
O64 Zn5 2.047905 1_555
O65 S4 1.461446 1_455
O65 Zn5 2.139725 1_555
O66 P0 1.591501 1_565
O67 S0 1.497029 1_555
O68 S1 1.511844 1_555
O69 S2 1.511848 1_555
O70 S3 1.497021 1_555
O71 P1 1.591505 1_565
