# generated using pymatgen
data_Na3TiZn(PO4)3
_symmetry_space_group_name_H-M   'P 1'
_cell_length_a   15.43917606
_cell_length_b   8.92680659
_cell_length_c   8.80772956
_cell_angle_alpha   89.99997338
_cell_angle_beta   125.06187051
_cell_angle_gamma   90.00000193
_symmetry_Int_Tables_number   1
_chemical_formula_structural   Na3TiZn(PO4)3
_chemical_formula_sum   'Na12 Ti4 Zn4 P12 O48'
_cell_volume   993.61921574
_cell_formula_units_Z   4
loop_
 _symmetry_equiv_pos_site_id
 _symmetry_equiv_pos_as_xyz
  1  'x, y, z'
loop_
 _atom_site_type_symbol
 _atom_site_label
 _atom_site_symmetry_multiplicity
 _atom_site_fract_x
 _atom_site_fract_y
 _atom_site_fract_z
 _atom_site_occupancy
  Na  Na0  1  0.25054965  0.72694214  0.98507846  1
  Na  Na1  1  0.75054968  0.77305790  0.48507838  1
  Na  Na2  1  0.75054966  0.22694223  0.98507866  1
  Na  Na3  1  0.25054975  0.27305783  0.48507859  1
  Na  Na4  1  0.50241080  0.10959281  0.74613681  1
  Na  Na5  1  0.50241086  0.89040715  0.24613696  1
  Na  Na6  1  0.00241080  0.60959285  0.74613673  1
  Na  Na7  1  0.00241088  0.39040718  0.24613684  1
  Na  Na8  1  0.18449301  0.94103421  0.28484573  1
  Na  Na9  1  0.18449291  0.05896579  0.78484542  1
  Na  Na10  1  0.68449299  0.44103416  0.28484555  1
  Na  Na11  1  0.68449303  0.55896588  0.78484556  1
  Ti  Ti0  1  0.89491895  0.75728766  0.94143508  1
  Ti  Ti1  1  0.89491872  0.24271289  0.44143499  1
  Ti  Ti2  1  0.39491918  0.25728738  0.94143577  1
  Ti  Ti3  1  0.39491880  0.74271300  0.44143480  1
  Zn  Zn0  1  0.09894128  0.74872389  0.55122166  1
  Zn  Zn1  1  0.09894130  0.25127605  0.05122178  1
  Zn  Zn2  1  0.59894125  0.24872389  0.55122159  1
  Zn  Zn3  1  0.59894132  0.75127605  0.05122177  1
  P  P0  1  0.99825426  0.95586515  0.76042376  1
  P  P1  1  0.99825450  0.04413538  0.26042452  1
  P  P2  1  0.49825435  0.45586518  0.76042397  1
  P  P3  1  0.49825445  0.54413546  0.26042439  1
  P  P4  1  0.35403669  0.90082751  0.75916399  1
  P  P5  1  0.64696956  0.88985473  0.74739456  1
  P  P6  1  0.64696991  0.11014501  0.24739499  1
  P  P7  1  0.35403675  0.09917192  0.25916466  1
  P  P8  1  0.85403667  0.40082768  0.75916403  1
  P  P9  1  0.14696951  0.38985506  0.74739462  1
  P  P10  1  0.14696967  0.61014521  0.24739470  1
  P  P11  1  0.85403649  0.59917213  0.25916406  1
  O  O0  1  0.15369144  0.55989294  0.73883147  1
  O  O1  1  0.84943280  0.57852120  0.75360987  1
  O  O2  1  0.84943282  0.42147877  0.25360960  1
  O  O3  1  0.15369140  0.44010718  0.23883132  1
  O  O4  1  0.65369136  0.05989306  0.73883152  1
  O  O5  1  0.34943276  0.07852131  0.75360964  1
  O  O6  1  0.34943268  0.92147865  0.25360960  1
  O  O7  1  0.65369154  0.94010672  0.23883145  1
  O  O8  1  0.43735811  0.56900516  0.58998825  1
  O  O9  1  0.56625275  0.54411668  0.93838802  1
  O  O10  1  0.56625290  0.45588343  0.43838792  1
  O  O11  1  0.43735765  0.43099331  0.08998672  1
  O  O12  1  0.93735811  0.06900536  0.58998782  1
  O  O13  1  0.06625297  0.04411664  0.93838810  1
  O  O14  1  0.06625278  0.95588370  0.43838791  1
  O  O15  1  0.93735778  0.93099388  0.08998702  1
  O  O16  1  0.25721635  0.84305587  0.74708875  1
  O  O17  1  0.73961455  0.80910899  0.75275942  1
  O  O18  1  0.73961425  0.19089074  0.25275919  1
  O  O19  1  0.25721659  0.15694393  0.24708916  1
  O  O20  1  0.75721672  0.34305591  0.74708898  1
  O  O21  1  0.23961450  0.30910920  0.75275960  1
  O  O22  1  0.23961415  0.69089072  0.25275912  1
  O  O23  1  0.75721652  0.65694414  0.24708896  1
  O  O24  1  0.35514915  0.85774002  0.58417210  1
  O  O25  1  0.65162475  0.84417152  0.91702163  1
  O  O26  1  0.65162493  0.15582856  0.41702249  1
  O  O27  1  0.35514922  0.14226041  0.08417105  1
  O  O28  1  0.85514919  0.35773999  0.58417197  1
  O  O29  1  0.15162497  0.34417154  0.91702181  1
  O  O30  1  0.15162473  0.65582860  0.41702216  1
  O  O31  1  0.85514924  0.64226014  0.08417159  1
  O  O32  1  0.45567334  0.85007424  0.93630652  1
  O  O33  1  0.54031396  0.82641703  0.56723478  1
  O  O34  1  0.54031335  0.17358318  0.06723419  1
  O  O35  1  0.45567328  0.14992618  0.43630674  1
  O  O36  1  0.95567318  0.35007417  0.93630636  1
  O  O37  1  0.04031414  0.32641702  0.56723506  1
  O  O38  1  0.04031370  0.67358311  0.06723457  1
  O  O39  1  0.95567349  0.64992626  0.43630686  1
  O  O40  1  0.07105855  0.85035877  0.74376648  1
  O  O41  1  0.91203992  0.85896655  0.75513271  1
  O  O42  1  0.91204001  0.14103312  0.25513251  1
  O  O43  1  0.07105863  0.14964160  0.24376685  1
  O  O44  1  0.57105859  0.35035847  0.74376678  1
  O  O45  1  0.41203998  0.35896654  0.75513274  1
  O  O46  1  0.41204008  0.64103306  0.25513250  1
  O  O47  1  0.57105853  0.64964108  0.24376676  1
loop_
_geom_bond_atom_site_label_1
_geom_bond_atom_site_label_2
_geom_bond_distance
_geom_bond_site_symmetry_2
Na0 O0 2.331875 1_555
Na0 O46 2.376666 1_556
Na0 O16 2.393052 1_555
Na0 O22 2.479509 1_556
Na0 O40 2.577519 1_555
Na0 O6 2.606122 1_556
Na1 O7 2.331871 1_555
Na1 O41 2.376665 1_555
Na1 O23 2.393052 1_555
Na1 O17 2.479509 1_555
Na1 O47 2.577520 1_555
Na1 O1 2.606124 1_555
Na2 O4 2.331876 1_555
Na2 O42 2.376664 1_556
Na2 O20 2.393055 1_555
Na2 O18 2.479507 1_556
Na2 O44 2.577517 1_555
Na2 O2 2.606122 1_556
Na3 O3 2.331876 1_555
Na3 O45 2.376664 1_555
Na3 O19 2.393053 1_555
Na3 O21 2.479510 1_555
Na3 O43 2.577518 1_555
Na3 O5 2.606121 1_555
Na4 O44 2.401775 1_555
Na4 O4 2.414308 1_555
Na4 O35 2.415538 1_555
Na4 O5 2.416243 1_555
Na4 O34 2.601090 1_556
Na4 O45 2.652468 1_555
Na5 O47 2.401778 1_555
Na5 O7 2.414311 1_555
Na5 O32 2.415541 1_554
Na5 O6 2.416244 1_555
Na5 O33 2.601090 1_555
Na5 O46 2.652469 1_555
Na6 O40 2.401777 1_555
Na6 O0 2.414310 1_555
Na6 O39 2.415538 1_455
Na6 O1 2.416244 1_455
Na6 O38 2.601092 1_556
Na6 O41 2.652469 1_455
Na7 O43 2.401774 1_555
Na7 O3 2.414309 1_555
Na7 O36 2.415541 1_454
Na7 O2 2.416243 1_455
Na7 O37 2.601092 1_555
Na7 O42 2.652470 1_455
Na8 O19 2.348414 1_565
Na8 O43 2.436768 1_565
Na8 O22 2.463057 1_555
Na8 O24 2.542585 1_555
Na8 O13 2.662857 1_564
Na8 O6 2.719546 1_555
Na8 O14 2.831154 1_555
Na9 O16 2.348415 1_545
Na9 O40 2.436766 1_545
Na9 O21 2.463057 1_555
Na9 O27 2.542585 1_556
Na9 O14 2.662856 1_545
Na9 O5 2.719546 1_555
Na9 O13 2.831154 1_555
Na10 O23 2.348416 1_555
Na10 O47 2.436766 1_555
Na10 O18 2.463056 1_555
Na10 O28 2.542585 1_555
Na10 O9 2.662856 1_554
Na10 O2 2.719547 1_555
Na10 O10 2.831154 1_555
Na11 O20 2.348418 1_555
Na11 O44 2.436769 1_555
Na11 O17 2.463055 1_555
Na11 O31 2.542585 1_556
Na11 O10 2.662858 1_555
Na11 O1 2.719544 1_555
Na11 O9 2.831157 1_555
O0 P9 1.526256 1_555
O0 Zn0 2.163713 1_555
O1 P8 1.587323 1_555
O1 Ti0 2.107551 1_555
O2 P11 1.587321 1_555
O2 Ti1 2.107548 1_555
O3 P10 1.526257 1_555
O3 Zn1 2.163714 1_555
O4 P5 1.526260 1_545
O4 Zn2 2.163712 1_555
O5 P4 1.587325 1_545
O5 Ti2 2.107553 1_555
O6 P7 1.587321 1_565
O6 Ti3 2.107545 1_555
O7 P6 1.526260 1_565
O7 Zn3 2.163711 1_555
O8 P2 1.592457 1_555
O8 Ti3 1.887017 1_555
O9 P2 1.512972 1_555
O9 Zn3 2.021365 1_556
O10 P3 1.512971 1_555
O10 Zn2 2.021366 1_555
O11 P3 1.592481 1_555
O11 Ti2 1.886993 1_554
O12 P0 1.592459 1_545
O12 Ti1 1.887012 1_555
O13 P0 1.512974 1_445
O13 Zn1 2.021365 1_556
O14 P1 1.512968 1_465
O14 Zn0 2.021368 1_555
O15 P1 1.592476 1_565
O15 Ti0 1.886999 1_554
O16 P4 1.526146 1_555
O16 Zn0 2.193893 1_555
O17 P5 1.577996 1_555
O17 Ti0 2.036388 1_555
O18 P6 1.577990 1_555
O18 Ti1 2.036391 1_555
O19 P7 1.526143 1_555
O19 Zn1 2.193895 1_555
O20 P8 1.526142 1_555
O20 Zn2 2.193898 1_555
O21 P9 1.577996 1_555
O21 Ti2 2.036393 1_555
O22 P10 1.577990 1_555
O22 Ti3 2.036393 1_555
O23 P11 1.526142 1_555
O23 Zn3 2.193894 1_555
O24 P4 1.598187 1_555
O24 Ti3 1.974536 1_555
O25 P5 1.510041 1_555
O25 Zn3 1.962395 1_556
O26 P6 1.510047 1_555
O26 Zn2 1.962390 1_555
O27 P7 1.598203 1_555
O27 Ti2 1.974524 1_554
O28 P8 1.598189 1_555
O28 Ti1 1.974533 1_555
O29 P9 1.510040 1_555
O29 Zn1 1.962397 1_556
O30 P10 1.510046 1_555
O30 Zn0 1.962390 1_555
O31 P11 1.598195 1_555
O31 Ti0 1.974533 1_554
O32 P4 1.512953 1_555
O32 Zn3 2.030455 1_556
O33 P5 1.596276 1_555
O33 Ti3 1.991836 1_555
O34 P6 1.596287 1_555
O34 Ti2 1.991825 1_554
O35 P7 1.512954 1_555
O35 Zn2 2.030453 1_555
O36 P8 1.512952 1_555
O36 Zn1 2.030456 1_656
O37 P9 1.596274 1_555
O37 Ti1 1.991839 1_455
O38 P10 1.596280 1_555
O38 Ti0 1.991832 1_454
O39 P11 1.512959 1_555
O39 Zn0 2.030451 1_655
O40 P0 1.536720 1_455
O40 Zn0 2.173306 1_555
O41 P0 1.565532 1_555
O41 Ti0 2.021046 1_555
O42 P1 1.565525 1_555
O42 Ti1 2.021054 1_555
O43 P1 1.536719 1_455
O43 Zn1 2.173306 1_555
O44 P2 1.536721 1_555
O44 Zn2 2.173308 1_555
O45 P2 1.565531 1_555
O45 Ti2 2.021051 1_555
O46 P3 1.565524 1_555
O46 Ti3 2.021053 1_555
O47 P3 1.536715 1_555
O47 Zn3 2.173308 1_555
