# generated using pymatgen
data_YNb3Si3(SO8)3
_symmetry_space_group_name_H-M   'P 1'
_cell_length_a   9.02587309
_cell_length_b   9.00615568
_cell_length_c   23.18216552
_cell_angle_alpha   89.38946143
_cell_angle_beta   90.10923271
_cell_angle_gamma   119.92635189
_symmetry_Int_Tables_number   1
_chemical_formula_structural   YNb3Si3(SO8)3
_chemical_formula_sum   'Y3 Nb9 Si9 S9 O72'
_cell_volume   1633.07869064
_cell_formula_units_Z   3
loop_
 _symmetry_equiv_pos_site_id
 _symmetry_equiv_pos_as_xyz
  1  'x, y, z'
loop_
 _atom_site_type_symbol
 _atom_site_label
 _atom_site_symmetry_multiplicity
 _atom_site_fract_x
 _atom_site_fract_y
 _atom_site_fract_z
 _atom_site_occupancy
  Y  Y0  1  0.00200166  0.00633793  0.36411769  1
  Y  Y1  1  0.67394986  0.34306626  0.69518025  1
  Y  Y2  1  0.67128772  0.33019646  0.18525115  1
  Nb  Nb0  1  0.00718178  0.98607764  0.85941062  1
  Nb  Nb1  1  0.01543380  0.01699090  0.64741503  1
  Nb  Nb2  1  0.99835124  0.99406679  0.13812958  1
  Nb  Nb3  1  0.68195893  0.33979549  0.97370104  1
  Nb  Nb4  1  0.66838567  0.32141651  0.47576031  1
  Nb  Nb5  1  0.34473555  0.68695279  0.02034762  1
  Nb  Nb6  1  0.33688009  0.65627536  0.52355620  1
  Nb  Nb7  1  0.34497943  0.66918617  0.31216927  1
  Nb  Nb8  1  0.34175650  0.67369665  0.80836998  1
  Si  Si0  1  0.27731277  0.28706286  0.75504446  1
  Si  Si1  1  0.01060789  0.72269907  0.75105322  1
  Si  Si2  1  0.95197946  0.32900701  0.58367319  1
  Si  Si3  1  0.95812638  0.61652118  0.08098471  1
  Si  Si4  1  0.66767107  0.04876384  0.08237154  1
  Si  Si5  1  0.61458518  0.66469667  0.91532057  1
  Si  Si6  1  0.34519363  0.95924903  0.91501819  1
  Si  Si7  1  0.60608827  0.94797228  0.41783937  1
  Si  Si8  1  0.35063752  0.39066185  0.41872169  1
  S  S0  1  0.27972814  0.98758300  0.25032593  1
  S  S1  1  0.70890285  0.71835112  0.24956553  1
  S  S2  1  0.01327881  0.29502141  0.25002403  1
  S  S3  1  0.71844831  0.99038022  0.75151593  1
  S  S4  1  0.37391038  0.04086383  0.58132383  1
  S  S5  1  0.67266899  0.62772938  0.58184139  1
  S  S6  1  0.37272690  0.33390497  0.08121818  1
  S  S7  1  0.05092671  0.38177924  0.91577148  1
  S  S8  1  0.04936893  0.65319722  0.41793352  1
  O  O0  1  0.19871488  0.00639724  0.30183199  1
  O  O1  1  0.80940859  0.79369177  0.30080824  1
  O  O2  1  0.98894762  0.19054023  0.30156029  1
  O  O3  1  0.16539715  0.16842757  0.80929479  1
  O  O4  1  0.98974762  0.82081770  0.80824673  1
  O  O5  1  0.81832456  0.00957661  0.80328786  1
  O  O6  1  0.79955617  0.96735689  0.69800177  1
  O  O7  1  0.15605825  0.19693536  0.69454449  1
  O  O8  1  0.03223348  0.84610414  0.69362112  1
  O  O9  1  0.79391578  0.82787220  0.19717417  1
  O  O10  1  0.03930132  0.21432637  0.19807483  1
  O  O11  1  0.17245788  0.96749219  0.19802302  1
  O  O12  1  0.87614859  0.36678426  0.63861263  1
  O  O13  1  0.47698829  0.10760960  0.63218571  1
  O  O14  1  0.62766797  0.52077138  0.63307607  1
  O  O15  1  0.88472940  0.51989561  0.14031012  1
  O  O16  1  0.62432136  0.10963623  0.14030336  1
  O  O17  1  0.47243854  0.36831653  0.13392808  1
  O  O18  1  0.44876028  0.29581362  0.03173303  1
  O  O19  1  0.83019833  0.52656239  0.02611518  1
  O  O20  1  0.70007035  0.17501137  0.02710088  1
  O  O21  1  0.45872418  0.15660113  0.52948593  1
  O  O22  1  0.69512642  0.54314139  0.53080771  1
  O  O23  1  0.82717828  0.30546414  0.52615130  1
  O  O24  1  0.51479192  0.68306816  0.97111835  1
  O  O25  1  0.15286010  0.45695990  0.96778676  1
  O  O26  1  0.31005035  0.83600527  0.97221766  1
  O  O27  1  0.50007245  0.83610571  0.47331997  1
  O  O28  1  0.32637650  0.49104379  0.47331842  1
  O  O29  1  0.15293051  0.67589781  0.46962949  1
  O  O30  1  0.12721022  0.62569125  0.36498103  1
  O  O31  1  0.48508087  0.85839983  0.35883516  1
  O  O32  1  0.37043814  0.51368747  0.36020065  1
  O  O33  1  0.12624323  0.49172317  0.86424232  1
  O  O34  1  0.36933609  0.86141827  0.86066066  1
  O  O35  1  0.49308405  0.63525766  0.85940842  1
  O  O36  1  0.02976318  0.80241134  0.41154384  1
  O  O37  1  0.78583147  0.96343051  0.41157887  1
  O  O38  1  0.18985373  0.20814084  0.41229492  1
  O  O39  1  0.02041512  0.20722186  0.90861482  1
  O  O40  1  0.17360786  0.97785122  0.90760660  1
  O  O41  1  0.80130491  0.83536941  0.90476015  1
  O  O42  1  0.97355110  0.15810666  0.59276567  1
  O  O43  1  0.20245803  0.02793075  0.58787289  1
  O  O44  1  0.82245719  0.79913127  0.58910080  1
  O  O45  1  0.98467744  0.81685881  0.09473385  1
  O  O46  1  0.84236989  0.02801667  0.09608191  1
  O  O47  1  0.19754767  0.17327346  0.09306261  1
  O  O48  1  0.69237994  0.13527885  0.74520324  1
  O  O49  1  0.45113367  0.29275097  0.74410437  1
  O  O50  1  0.84564269  0.54130074  0.74803299  1
  O  O51  1  0.67105598  0.54335552  0.24149357  1
  O  O52  1  0.86707546  0.32169243  0.24417508  1
  O  O53  1  0.45081561  0.13394267  0.24328383  1
  O  O54  1  0.63995008  0.49903602  0.93031379  1
  O  O55  1  0.87623506  0.36788677  0.92302281  1
  O  O56  1  0.50896566  0.14664643  0.92975905  1
  O  O57  1  0.62070872  0.13835152  0.42758676  1
  O  O58  1  0.52721338  0.38851692  0.43190601  1
  O  O59  1  0.87706602  0.49700545  0.42513876  1
  O  O60  1  0.33665342  0.47328633  0.06973990  1
  O  O61  1  0.14454855  0.64303692  0.06488411  1
  O  O62  1  0.51482551  0.85328609  0.06768202  1
  O  O63  1  0.34258869  0.86577277  0.56893544  1
  O  O64  1  0.51917270  0.65451182  0.57118143  1
  O  O65  1  0.14323239  0.49070165  0.56582151  1
  O  O66  1  0.29077495  0.82587694  0.25714695  1
  O  O67  1  0.53594523  0.71175872  0.25624584  1
  O  O68  1  0.17196620  0.46873401  0.25838868  1
  O  O69  1  0.28902863  0.47326599  0.76452917  1
  O  O70  1  0.18749621  0.71789902  0.76257339  1
  O  O71  1  0.54773349  0.82845531  0.75588067  1
loop_
_geom_bond_atom_site_label_1
_geom_bond_atom_site_label_2
_geom_bond_distance
_geom_bond_site_symmetry_2
Nb0 O4 1.857418 1_455
Nb0 O40 1.900823 1_555
Nb0 O3 1.926595 1_565
Nb0 O41 1.964935 1_455
Nb0 O5 2.233563 1_465
Nb0 O39 2.256682 1_565
Nb1 O7 1.846927 1_555
Nb1 O8 1.932896 1_545
Nb1 O42 1.950990 1_455
Nb1 O6 2.121354 1_445
Nb1 O43 2.145823 1_555
Nb1 O44 2.312726 1_445
Nb2 O45 1.847049 1_555
Nb2 O46 1.855708 1_565
Nb2 O47 2.001203 1_665
Nb2 O9 2.174615 1_555
Nb2 O11 2.194190 1_655
Nb2 O10 2.308253 1_665
Nb3 O54 1.929396 1_555
Nb3 O56 1.955324 1_555
Nb3 O19 1.971730 1_556
Nb3 O20 1.990926 1_556
Nb3 O55 2.019385 1_555
Nb3 O18 2.358938 1_556
Nb4 O57 1.865504 1_555
Nb4 O23 1.906553 1_555
Nb4 O58 1.942323 1_555
Nb4 O59 2.102977 1_555
Nb4 O21 2.121909 1_555
Nb4 O22 2.290532 1_555
Nb5 O26 1.879095 1_554
Nb5 O62 1.881221 1_555
Nb5 O24 1.928913 1_554
Nb5 O61 1.942294 1_555
Nb5 O60 2.198334 1_555
Nb5 O25 2.289309 1_554
Nb6 O28 1.864276 1_555
Nb6 O65 1.900902 1_555
Nb6 O27 1.932610 1_555
Nb6 O64 1.986238 1_555
Nb6 O63 2.148096 1_555
Nb6 O29 2.151936 1_555
Nb7 O32 1.881688 1_555
Nb7 O31 1.886077 1_555
Nb7 O67 2.034004 1_555
Nb7 O68 2.116543 1_555
Nb7 O66 2.122715 1_555
Nb7 O30 2.178639 1_555
Nb8 O69 1.922998 1_555
Nb8 O70 1.939743 1_555
Nb8 O35 1.960165 1_555
Nb8 O34 2.003080 1_555
Nb8 O71 2.065586 1_555
Nb8 O33 2.220561 1_555
O0 S0 1.456139 1_545
O0 Y0 2.290446 1_555
O1 S1 1.446853 1_555
O1 Y0 2.360497 1_665
O2 S2 1.460095 1_655
O2 Y0 2.238804 1_655
O3 Si0 1.625715 1_555
O4 Si1 1.663185 1_655
O5 S3 1.458690 1_545
O6 S3 1.509419 1_555
O7 Si0 1.719225 1_555
O8 Si1 1.673007 1_555
O9 S1 1.503218 1_555
O10 S2 1.491210 1_555
O11 S0 1.505228 1_555
O12 Si2 1.565635 1_555
O12 Y1 2.170294 1_555
O13 S4 1.438779 1_555
O13 Y1 2.466669 1_555
O14 S5 1.445911 1_555
O14 Y1 2.329022 1_555
O15 Si3 1.578081 1_555
O15 Y2 2.097938 1_555
O16 Si4 1.577648 1_555
O16 Y2 2.100825 1_555
O17 S6 1.457639 1_555
O17 Y2 2.313582 1_555
O18 S6 1.466612 1_555
O19 Si3 1.640296 1_555
O20 Si4 1.630532 1_555
O21 S4 1.515678 1_555
O22 S5 1.481654 1_555
O23 Si2 1.689375 1_555
O24 Si5 1.633877 1_555
O25 S7 1.466474 1_555
O26 Si6 1.646163 1_555
O27 Si7 1.612465 1_555
O28 Si8 1.640170 1_555
O29 S8 1.470381 1_555
O30 S8 1.498435 1_555
O31 Si7 1.689192 1_555
O32 Si8 1.694513 1_555
O33 S7 1.475061 1_555
O34 Si6 1.621102 1_555
O35 Si5 1.632416 1_555
O36 S8 1.446413 1_555
O36 Y0 2.249384 1_565
O37 Si7 1.564461 1_555
O37 Y0 2.100857 1_665
O38 Si8 1.566692 1_555
O38 Y0 2.094445 1_555
O39 S7 1.465688 1_555
O40 Si6 1.647226 1_555
O41 Si5 1.634539 1_555
O42 Si2 1.656284 1_555
O43 S4 1.500689 1_555
O44 S5 1.470165 1_555
O45 Si3 1.730595 1_555
O46 Si4 1.706769 1_555
O47 S6 1.542453 1_555
O48 S3 1.442883 1_545
O48 Y1 2.266731 1_555
O49 Si0 1.565054 1_555
O49 Y1 2.150509 1_555
O50 Si1 1.570293 1_655
O50 Y1 2.090209 1_555
O51 S1 1.450678 1_555
O51 Y2 2.332966 1_555
O52 S2 1.460258 1_655
O52 Y2 2.262350 1_555
O53 S0 1.454014 1_545
O53 Y2 2.311704 1_555
O54 Si5 1.651859 1_555
O55 S7 1.527665 1_655
O56 Si6 1.634437 1_545
O57 Si7 1.670528 1_545
O58 Si8 1.631738 1_555
O59 S8 1.496150 1_655
O60 S6 1.467285 1_555
O61 Si3 1.620843 1_455
O62 Si4 1.645053 1_565
O63 S4 1.487798 1_565
O64 S5 1.539333 1_555
O65 Si2 1.659350 1_455
O66 S0 1.515196 1_555
O67 S1 1.540379 1_555
O68 S2 1.518641 1_555
O69 Si0 1.643959 1_555
O70 Si1 1.639886 1_555
O71 S3 1.505509 1_555
