# generated using pymatgen
data_MgCd2(NiO2)4
_symmetry_space_group_name_H-M   'P 1'
_cell_length_a   6.35783530
_cell_length_b   6.40325083
_cell_length_c   6.29435021
_cell_angle_alpha   59.57983771
_cell_angle_beta   87.20021012
_cell_angle_gamma   119.48027199
_symmetry_Int_Tables_number   1
_chemical_formula_structural   MgCd2(NiO2)4
_chemical_formula_sum   'Mg1 Cd2 Ni4 O8'
_cell_volume   176.55249245
_cell_formula_units_Z   1
loop_
 _symmetry_equiv_pos_site_id
 _symmetry_equiv_pos_as_xyz
  1  'x, y, z'
loop_
 _atom_site_type_symbol
 _atom_site_label
 _atom_site_symmetry_multiplicity
 _atom_site_fract_x
 _atom_site_fract_y
 _atom_site_fract_z
 _atom_site_occupancy
  Mg  Mg0  1  0.79168974  0.02887991  0.78645738  1
  Cd  Cd0  1  0.11891771  0.03362391  0.05052198  1
  Cd  Cd1  1  0.72835052  0.51000281  0.70657315  1
  Ni  Ni0  1  0.37418132  0.26017623  0.37650760  1
  Ni  Ni1  1  0.83454446  0.25594573  0.30529818  1
  Ni  Ni2  1  0.37199160  0.73850949  0.37761630  1
  Ni  Ni3  1  0.32475975  0.72742552  0.86067000  1
  O  O0  1  0.15294153  0.31355769  0.14239430  1
  O  O1  1  0.56456378  0.18088629  0.15511583  1
  O  O2  1  0.61598624  0.73591145  0.17470436  1
  O  O3  1  0.12537363  0.68284073  0.12927926  1
  O  O4  1  0.58223986  0.17647201  0.62233262  1
  O  O5  1  0.17084679  0.29658863  0.61101791  1
  O  O6  1  0.15600704  0.76246118  0.58817885  1
  O  O7  1  0.60844002  0.79671844  0.63416526  1
loop_
_geom_bond_atom_site_label_1
_geom_bond_atom_site_label_2
_geom_bond_distance
_geom_bond_site_symmetry_2
Mg0 O5 1.929974 1_655
Mg0 O2 1.940950 1_546
Mg0 O4 2.029294 1_555
Mg0 O7 2.081752 1_545
Cd0 O3 2.063437 1_545
Cd0 O0 2.067481 1_555
Cd0 O5 2.289900 1_554
Cd0 O2 2.591663 1_445
Cd1 O7 2.173408 1_555
Cd1 O6 2.194851 1_655
Cd1 O4 2.224285 1_555
Cd1 O1 2.241451 1_556
Ni0 O5 2.088834 1_555
Ni0 O0 2.105347 1_555
Ni0 O4 2.118770 1_555
Ni0 O2 2.130245 1_555
Ni0 O1 2.195755 1_555
Ni0 O6 2.241549 1_545
Ni1 O3 1.968946 1_655
Ni1 O1 1.969151 1_555
Ni1 O0 1.991102 1_655
Ni1 O7 2.093536 1_545
Ni1 O4 2.160952 1_555
Ni2 O5 1.961097 1_555
Ni2 O1 1.971268 1_565
Ni2 O2 1.972647 1_555
Ni2 O6 1.975116 1_555
Ni2 O3 2.298363 1_555
Ni2 O7 2.302523 1_555
Ni3 O3 1.868859 1_556
Ni3 O0 1.887683 1_556
Ni3 O7 1.950124 1_555
Ni3 O4 1.989231 1_565
Ni3 O6 2.042112 1_555
