# generated using pymatgen
data_Li3Mo2(PO4)3
_symmetry_space_group_name_H-M   'P 1'
_cell_length_a   5.01202188
_cell_length_b   5.01202188
_cell_length_c   19.36280497
_cell_angle_alpha   89.88464604
_cell_angle_beta   89.88464604
_cell_angle_gamma   66.27927554
_symmetry_Int_Tables_number   1
_chemical_formula_structural   Li3Mo2(PO4)3
_chemical_formula_sum   'Li6 Mo4 P6 O24'
_cell_volume   445.30688962
_cell_formula_units_Z   2
loop_
 _symmetry_equiv_pos_site_id
 _symmetry_equiv_pos_as_xyz
  1  'x, y, z'
loop_
 _atom_site_type_symbol
 _atom_site_label
 _atom_site_symmetry_multiplicity
 _atom_site_fract_x
 _atom_site_fract_y
 _atom_site_fract_z
 _atom_site_occupancy
  Li  Li0  1  0.99984500  0.99984500  0.83593500  1
  Li  Li1  1  0.66810900  0.66810900  0.91082900  1
  Li  Li2  1  0.66581100  0.66581100  0.23894100  1
  Li  Li3  1  0.33418900  0.33418900  0.76105900  1
  Li  Li4  1  0.33189100  0.33189100  0.08917100  1
  Li  Li5  1  0.00015500  0.00015500  0.16406500  1
  Mo  Mo0  1  0.00000000  0.00000000  0.50000000  1
  Mo  Mo1  1  0.00000000  0.00000000  0.00000000  1
  Mo  Mo2  1  0.99653800  0.99653800  0.32889800  1
  Mo  Mo3  1  0.00346200  0.00346200  0.67110200  1
  P  P0  1  0.34686800  0.34686800  0.24788200  1
  P  P1  1  0.35205300  0.35205300  0.91979600  1
  P  P2  1  0.35216100  0.35216100  0.58769900  1
  P  P3  1  0.64794700  0.64794700  0.08020400  1
  P  P4  1  0.64783900  0.64783900  0.41230100  1
  P  P5  1  0.65313200  0.65313200  0.75211800  1
  O  O0  1  0.30871200  0.76308900  0.75024300  1
  O  O1  1  0.69815400  0.22762100  0.58504600  1
  O  O2  1  0.69480100  0.24099000  0.92015000  1
  O  O3  1  0.75901000  0.30519900  0.07985000  1
  O  O4  1  0.30184600  0.77237900  0.41495400  1
  O  O5  1  0.22762100  0.69815400  0.58504600  1
  O  O6  1  0.24099000  0.69480100  0.92015000  1
  O  O7  1  0.30519900  0.75901000  0.07985000  1
  O  O8  1  0.77237900  0.30184600  0.41495400  1
  O  O9  1  0.23691100  0.69128800  0.24975700  1
  O  O10  1  0.75594300  0.75594300  0.68652700  1
  O  O11  1  0.75442200  0.75442200  0.47546600  1
  O  O12  1  0.74593600  0.74593600  0.01193200  1
  O  O13  1  0.75284700  0.75284700  0.14364200  1
  O  O14  1  0.69128800  0.23691100  0.24975700  1
  O  O15  1  0.73801200  0.73801200  0.34296200  1
  O  O16  1  0.26198800  0.26198800  0.65703800  1
  O  O17  1  0.24853400  0.24853400  0.18239100  1
  O  O18  1  0.24715300  0.24715300  0.85635800  1
  O  O19  1  0.25406400  0.25406400  0.98806800  1
  O  O20  1  0.24557800  0.24557800  0.52453400  1
  O  O21  1  0.24405700  0.24405700  0.31347300  1
  O  O22  1  0.76308900  0.30871200  0.75024300  1
  O  O23  1  0.75146600  0.75146600  0.81760900  1
loop_
_geom_bond_atom_site_label_1
_geom_bond_atom_site_label_2
_geom_bond_distance
_geom_bond_site_symmetry_2
Li0 O18 2.114055 1_665
Li0 O23 2.115603 1_555
Li0 O2 2.229001 1_565
Li0 O6 2.229001 1_655
Li0 O22 2.253276 1_565
Li0 O0 2.253276 1_655
Li1 O23 1.934290 1_555
Li1 O12 2.065242 1_556
Li1 O2 2.097932 1_555
Li1 O6 2.097932 1_555
Li2 O13 1.982972 1_555
Li2 O15 2.104729 1_555
Li2 O14 2.111548 1_555
Li2 O9 2.111548 1_555
Li3 O18 1.982972 1_555
Li3 O16 2.104729 1_555
Li3 O0 2.111548 1_555
Li3 O22 2.111548 1_555
Li4 O17 1.934290 1_555
Li4 O19 2.065242 1_554
Li4 O3 2.097932 1_555
Li4 O7 2.097932 1_555
Li5 O13 2.114055 1_445
Li5 O17 2.115603 1_555
Li5 O7 2.229001 1_545
Li5 O3 2.229001 1_455
Li5 O14 2.253276 1_455
Li5 O9 2.253276 1_545
Mo0 O20 2.116414 1_555
Mo0 O11 2.116414 1_445
Mo0 O4 2.216055 1_545
Mo0 O8 2.216055 1_455
Mo0 O1 2.216055 1_455
Mo0 O5 2.216055 1_545
Mo1 O19 2.144423 1_554
Mo1 O12 2.144423 1_445
Mo1 O2 2.169045 1_454
Mo1 O6 2.169045 1_544
Mo1 O7 2.169045 1_545
Mo1 O3 2.169045 1_455
Mo2 O21 2.098208 1_665
Mo2 O14 2.158559 1_565
Mo2 O9 2.158559 1_655
Mo2 O15 2.186319 1_555
Mo2 O4 2.236031 1_655
Mo2 O8 2.236031 1_565
Mo3 O10 2.098208 1_445
Mo3 O22 2.158559 1_455
Mo3 O0 2.158559 1_545
Mo3 O16 2.186319 1_555
Mo3 O1 2.236031 1_455
Mo3 O5 2.236031 1_545
O0 P5 1.587358 1_555
O1 P2 1.590075 1_555
O2 P1 1.578489 1_555
O3 P3 1.578489 1_555
O4 P4 1.590075 1_555
O5 P2 1.590075 1_555
O6 P1 1.578489 1_555
O7 P3 1.578489 1_555
O8 P4 1.590075 1_555
O9 P0 1.587358 1_555
O10 P5 1.533745 1_555
O11 P4 1.517050 1_555
O12 P3 1.555235 1_555
O13 P3 1.513031 1_555
O14 P0 1.587358 1_555
O15 P4 1.539654 1_555
O16 P2 1.539654 1_555
O17 P0 1.514701 1_555
O18 P1 1.513031 1_555
O19 P1 1.555235 1_555
O20 P2 1.517050 1_555
O21 P0 1.533745 1_555
O22 P5 1.587358 1_555
O23 P5 1.514701 1_555
