# generated using pymatgen
data_K2Cd(CN)4
_symmetry_space_group_name_H-M   'P 1'
_cell_length_a   9.23698679
_cell_length_b   9.23698679
_cell_length_c   9.23698679
_cell_angle_alpha   60.00000000
_cell_angle_beta   60.00000000
_cell_angle_gamma   60.00000000
_symmetry_Int_Tables_number   1
_chemical_formula_structural   K2Cd(CN)4
_chemical_formula_sum   'K4 Cd2 C8 N8'
_cell_volume   557.28322498
_cell_formula_units_Z   2
loop_
 _symmetry_equiv_pos_site_id
 _symmetry_equiv_pos_as_xyz
  1  'x, y, z'
loop_
 _atom_site_type_symbol
 _atom_site_label
 _atom_site_symmetry_multiplicity
 _atom_site_fract_x
 _atom_site_fract_y
 _atom_site_fract_z
 _atom_site_occupancy
  K  K0  1  0.12500000  0.62500000  0.12500000  1
  K  K1  1  0.12500000  0.12500000  0.62500000  1
  K  K2  1  0.12500000  0.12500000  0.12500000  1
  K  K3  1  0.62500000  0.12500000  0.12500000  1
  Cd  Cd0  1  0.75000000  0.75000000  0.75000000  1
  Cd  Cd1  1  0.50000000  0.50000000  0.50000000  1
  C  C0  1  0.40172700  0.40172700  0.40172700  1
  C  C1  1  0.84827300  0.45518200  0.84827300  1
  C  C2  1  0.40172700  0.40172700  0.79481800  1
  C  C3  1  0.79481800  0.40172700  0.40172700  1
  C  C4  1  0.84827300  0.84827300  0.84827300  1
  C  C5  1  0.45518200  0.84827300  0.84827300  1
  C  C6  1  0.40172700  0.79481800  0.40172700  1
  C  C7  1  0.84827300  0.84827300  0.45518200  1
  N  N0  1  0.29955900  0.90014700  0.90014700  1
  N  N1  1  0.90014700  0.90014700  0.90014700  1
  N  N2  1  0.95044100  0.34985300  0.34985300  1
  N  N3  1  0.90014700  0.29955900  0.90014700  1
  N  N4  1  0.34985300  0.34985300  0.34985300  1
  N  N5  1  0.34985300  0.34985300  0.95044100  1
  N  N6  1  0.34985300  0.95044100  0.34985300  1
  N  N7  1  0.90014700  0.90014700  0.29955900  1
loop_
_geom_bond_atom_site_label_1
_geom_bond_atom_site_label_2
_geom_bond_distance
_geom_bond_site_symmetry_2
K0 N1 2.973782 1_454
K0 N0 2.973782 1_554
K0 N7 2.973782 1_455
K0 N2 2.973782 1_455
K0 N5 2.973782 1_554
K0 N4 2.973782 1_555
K1 N1 2.973782 1_445
K1 N6 2.973782 1_545
K1 N2 2.973782 1_455
K1 N4 2.973782 1_555
K1 N3 2.973782 1_455
K1 N0 2.973782 1_545
K2 N3 2.973782 1_454
K2 N0 2.973782 1_544
K2 N7 2.973782 1_445
K2 N6 2.973782 1_545
K2 N2 2.973782 1_455
K2 N5 2.973782 1_554
K3 N1 2.973782 1_544
K3 N4 2.973782 1_555
K3 N6 2.973782 1_545
K3 N5 2.973782 1_554
K3 N7 2.973782 1_545
K3 N3 2.973782 1_554
C0 N4 1.173696 1_555
C0 Cd1 2.223516 1_555
C1 N3 1.173704 1_555
C1 Cd0 2.223508 1_555
C2 N5 1.173704 1_555
C2 Cd1 2.223508 1_555
C3 N2 1.173704 1_555
C3 Cd1 2.223508 1_555
C4 N1 1.173696 1_555
C4 Cd0 2.223516 1_555
C5 N0 1.173704 1_555
C5 Cd0 2.223508 1_555
C6 N6 1.173704 1_555
C6 Cd1 2.223508 1_555
C7 N7 1.173704 1_555
C7 Cd0 2.223508 1_555
