# generated using pymatgen
data_Na6Mg8Ta16Si15(S7O48)3
_symmetry_space_group_name_H-M   'P 1'
_cell_length_a   17.62031119
_cell_length_b   8.80548491
_cell_length_c   22.77509414
_cell_angle_alpha   89.99636841
_cell_angle_beta   89.69846592
_cell_angle_gamma   119.97927897
_symmetry_Int_Tables_number   1
_chemical_formula_structural   Na6Mg8Ta16Si15(S7O48)3
_chemical_formula_sum   'Na6 Mg8 Ta16 Si15 S21 O144'
_cell_volume   3060.83693111
_cell_formula_units_Z   1
loop_
 _symmetry_equiv_pos_site_id
 _symmetry_equiv_pos_as_xyz
  1  'x, y, z'
loop_
 _atom_site_type_symbol
 _atom_site_label
 _atom_site_symmetry_multiplicity
 _atom_site_fract_x
 _atom_site_fract_y
 _atom_site_fract_z
 _atom_site_occupancy
  Na  Na0  1  0.99747281  0.99573601  0.49769156  1
  Na  Na1  1  0.49865090  0.00091481  0.00105824  1
  Na  Na2  1  0.33230431  0.33210033  0.84269565  1
  Na  Na3  1  0.83666407  0.33010228  0.84016699  1
  Na  Na4  1  0.33752556  0.34354162  0.33891971  1
  Na  Na5  1  0.83385768  0.34497255  0.33954303  1
  Mg  Mg0  1  0.99736791  0.99409681  0.34702228  1
  Mg  Mg1  1  0.50170531  0.99396026  0.85190014  1
  Mg  Mg2  1  0.99576462  0.98806622  0.64900644  1
  Mg  Mg3  1  0.49642614  0.00232846  0.14985840  1
  Mg  Mg4  1  0.33048357  0.32670377  0.97949776  1
  Mg  Mg5  1  0.83863296  0.32984344  0.97935976  1
  Mg  Mg6  1  0.33918781  0.34992097  0.47787241  1
  Mg  Mg7  1  0.83123093  0.33559728  0.47824216  1
  Ta  Ta0  1  0.49729140  0.99766928  0.35707267  1
  Ta  Ta1  1  0.99596513  0.99382175  0.85830408  1
  Ta  Ta2  1  0.50399847  0.99620663  0.64669683  1
  Ta  Ta3  1  0.99619179  0.00097158  0.15011411  1
  Ta  Ta4  1  0.33157545  0.34022531  0.68528159  1
  Ta  Ta5  1  0.83636775  0.34104086  0.69249834  1
  Ta  Ta6  1  0.33452354  0.33240671  0.19230559  1
  Ta  Ta7  1  0.83263172  0.32697682  0.18880891  1
  Ta  Ta8  1  0.16192596  0.66430445  0.02000355  1
  Ta  Ta9  1  0.66765808  0.66988266  0.02613685  1
  Ta  Ta10  1  0.16666634  0.66397224  0.52391641  1
  Ta  Ta11  1  0.66338173  0.66040506  0.51679825  1
  Ta  Ta12  1  0.16399888  0.66408611  0.30407742  1
  Ta  Ta13  1  0.66417503  0.65069821  0.30954476  1
  Ta  Ta14  1  0.16262574  0.67029133  0.81324835  1
  Ta  Ta15  1  0.66424034  0.66590541  0.80494066  1
  Si  Si0  1  0.13956024  0.00295619  0.25203438  1
  Si  Si1  1  0.36063663  0.71944890  0.24794790  1
  Si  Si2  1  0.85644408  0.71178930  0.25368184  1
  Si  Si3  1  0.99582972  0.27757848  0.25413499  1
  Si  Si4  1  0.50121914  0.27904863  0.24688488  1
  Si  Si5  1  0.64043980  0.27938913  0.75263268  1
  Si  Si6  1  0.00374050  0.72548229  0.74731487  1
  Si  Si7  1  0.49460779  0.71070365  0.75391245  1
  Si  Si8  1  0.86100473  0.00236528  0.74797567  1
  Si  Si9  1  0.33555945  0.62603386  0.57996994  1
  Si  Si10  1  0.83774686  0.05257599  0.08048432  1
  Si  Si11  1  0.01711311  0.37457980  0.91683707  1
  Si  Si12  1  0.17125523  0.96692899  0.91654804  1
  Si  Si13  1  0.67082288  0.37346679  0.41509817  1
  Si  Si14  1  0.51820195  0.65990205  0.41430118  1
  S  S0  1  0.64254565  0.99919864  0.24973741  1
  S  S1  1  0.14387145  0.28658469  0.74976248  1
  S  S2  1  0.35651134  0.00009689  0.75026664  1
  S  S3  1  0.47694596  0.33210419  0.58226943  1
  S  S4  1  0.97529078  0.32777109  0.58092428  1
  S  S5  1  0.18792855  0.04831281  0.57998515  1
  S  S6  1  0.69165154  0.04597211  0.58296202  1
  S  S7  1  0.83477936  0.62421873  0.58079266  1
  S  S8  1  0.47507256  0.62313711  0.08063607  1
  S  S9  1  0.97655690  0.62190279  0.08208853  1
  S  S10  1  0.33513773  0.04528844  0.08052130  1
  S  S11  1  0.19085359  0.33485664  0.08227013  1
  S  S12  1  0.68763025  0.32572488  0.07965711  1
  S  S13  1  0.31316684  0.67155765  0.91738712  1
  S  S14  1  0.80636682  0.66109567  0.91680827  1
  S  S15  1  0.52333996  0.37858187  0.91726591  1
  S  S16  1  0.66416077  0.95066477  0.91761048  1
  S  S17  1  0.30688738  0.95234626  0.41666930  1
  S  S18  1  0.81399916  0.95822051  0.41741649  1
  S  S19  1  0.16413206  0.37593126  0.41719604  1
  S  S20  1  0.02360837  0.66897558  0.41749171  1
  O  O0  1  0.10925874  0.05218198  0.31036210  1
  O  O1  1  0.60383609  0.03441604  0.30282085  1
  O  O2  1  0.41984707  0.80226252  0.30741345  1
  O  O3  1  0.91491861  0.77281181  0.31034908  1
  O  O4  1  0.48238460  0.15885045  0.30656308  1
  O  O5  1  0.97315240  0.16729682  0.31179160  1
  O  O6  1  0.10590489  0.17703787  0.80279428  1
  O  O7  1  0.60450339  0.16487410  0.80955839  1
  O  O8  1  0.46868258  0.77736363  0.80981600  1
  O  O9  1  0.98448900  0.80735698  0.80673505  1
  O  O10  1  0.40945916  0.04074971  0.80256907  1
  O  O11  1  0.92031099  0.03675886  0.80742448  1
  O  O12  1  0.39830162  0.97582886  0.69685685  1
  O  O13  1  0.89654736  0.96820745  0.68993047  1
  O  O14  1  0.09410113  0.21905140  0.69665141  1
  O  O15  1  0.58073606  0.19493794  0.69323627  1
  O  O16  1  0.02511580  0.83507863  0.68982463  1
  O  O17  1  0.51193020  0.83165598  0.69410938  1
  O  O18  1  0.39610454  0.82382783  0.18958899  1
  O  O19  1  0.90319915  0.83274074  0.19435754  1
  O  O20  1  0.01437915  0.19676256  0.19438673  1
  O  O21  1  0.52271829  0.21230095  0.18932141  1
  O  O22  1  0.08264622  0.96898765  0.19234303  1
  O  O23  1  0.59280395  0.97012671  0.19667855  1
  O  O24  1  0.43319311  0.35821771  0.63600954  1
  O  O25  1  0.93711428  0.36141749  0.63465389  1
  O  O26  1  0.24351156  0.12295742  0.63463140  1
  O  O27  1  0.74539310  0.12934098  0.63596815  1
  O  O28  1  0.31627561  0.49666509  0.63999440  1
  O  O29  1  0.82174479  0.51438972  0.63499043  1
  O  O30  1  0.43759759  0.51348408  0.13415242  1
  O  O31  1  0.93542718  0.51005202  0.13520882  1
  O  O32  1  0.32076557  0.12632601  0.13411458  1
  O  O33  1  0.81658609  0.13786176  0.13907627  1
  O  O34  1  0.24702288  0.36491189  0.13491993  1
  O  O35  1  0.74172030  0.36365884  0.13333058  1
  O  O36  1  0.23041244  0.30897065  0.03001588  1
  O  O37  1  0.73163179  0.31226248  0.02735413  1
  O  O38  1  0.42205405  0.53992221  0.02888511  1
  O  O39  1  0.92469831  0.54675554  0.02989174  1
  O  O40  1  0.34608409  0.15355686  0.02878618  1
  O  O41  1  0.85018579  0.16252173  0.02388300  1
  O  O42  1  0.23303460  0.15357300  0.52875864  1
  O  O43  1  0.72889887  0.15155174  0.53078008  1
  O  O44  1  0.35286238  0.53862033  0.52633646  1
  O  O45  1  0.84566225  0.53650325  0.52956370  1
  O  O46  1  0.42411024  0.29970138  0.53059510  1
  O  O47  1  0.92153125  0.30386859  0.52955535  1
  O  O48  1  0.26536388  0.68860050  0.97078786  1
  O  O49  1  0.76453145  0.68919993  0.97022201  1
  O  O50  1  0.08166007  0.47337252  0.97485424  1
  O  O51  1  0.58005148  0.46886419  0.96993126  1
  O  O52  1  0.15585849  0.83481516  0.97382616  1
  O  O53  1  0.65664047  0.83793036  0.97109223  1
  O  O54  1  0.26445794  0.83950999  0.47090564  1
  O  O55  1  0.76458742  0.84175412  0.47233483  1
  O  O56  1  0.15734073  0.47663024  0.47177801  1
  O  O57  1  0.65498342  0.47393728  0.47390022  1
  O  O58  1  0.08074547  0.68732768  0.47091416  1
  O  O59  1  0.58145300  0.68909341  0.47492455  1
  O  O60  1  0.06882309  0.64954986  0.36519339  1
  O  O61  1  0.57821828  0.65672453  0.36058311  1
  O  O62  1  0.25260471  0.86433318  0.36526408  1
  O  O63  1  0.76000594  0.87539396  0.36545263  1
  O  O64  1  0.17483789  0.48809351  0.36587344  1
  O  O65  1  0.68258494  0.50224940  0.35960178  1
  O  O66  1  0.07643005  0.49988737  0.86073124  1
  O  O67  1  0.56852951  0.48861814  0.86429859  1
  O  O68  1  0.18367309  0.86132932  0.85974193  1
  O  O69  1  0.67409036  0.85997355  0.86550994  1
  O  O70  1  0.25950902  0.64703886  0.86410661  1
  O  O71  1  0.75261037  0.64145397  0.86481459  1
  O  O72  1  0.01847274  0.82888064  0.41640229  1
  O  O73  1  0.51461564  0.84081798  0.40678015  1
  O  O74  1  0.39327726  0.96165062  0.41210926  1
  O  O75  1  0.89804394  0.96359643  0.41719363  1
  O  O76  1  0.08258546  0.20919543  0.41780643  1
  O  O77  1  0.57932746  0.19044210  0.40573279  1
  O  O78  1  0.01547097  0.18977969  0.90616584  1
  O  O79  1  0.51502998  0.20479023  0.91315085  1
  O  O80  1  0.08026532  0.96780048  0.90501576  1
  O  O81  1  0.58223163  0.95540936  0.91683900  1
  O  O82  1  0.39743174  0.83550186  0.91458089  1
  O  O83  1  0.89342499  0.82465149  0.91169506  1
  O  O84  1  0.48905810  0.18008643  0.59467313  1
  O  O85  1  0.99302881  0.18388586  0.58815302  1
  O  O86  1  0.10133711  0.02786922  0.58767946  1
  O  O87  1  0.60112663  0.02380783  0.59255994  1
  O  O88  1  0.41429335  0.82061770  0.59804866  1
  O  O89  1  0.91161216  0.80006899  0.58629505  1
  O  O90  1  0.49279880  0.80251258  0.08750346  1
  O  O91  1  0.99193387  0.79981593  0.09181852  1
  O  O92  1  0.41120569  0.02102115  0.08571074  1
  O  O93  1  0.91760772  0.01643968  0.09428441  1
  O  O94  1  0.10262140  0.18197876  0.09175678  1
  O  O95  1  0.59983858  0.17438952  0.08611175  1
  O  O96  1  0.34046009  0.15095703  0.73800793  1
  O  O97  1  0.84506125  0.17385836  0.73992646  1
  O  O98  1  0.23430052  0.29890770  0.74311423  1
  O  O99  1  0.73925814  0.31423971  0.73456787  1
  O  O100  1  0.41366916  0.50827379  0.73652592  1
  O  O101  1  0.91648178  0.52393026  0.74026146  1
  O  O102  1  0.34456255  0.51621819  0.24042973  1
  O  O103  1  0.83660832  0.51327789  0.23369731  1
  O  O104  1  0.41374014  0.30469652  0.23927582  1
  O  O105  1  0.91434402  0.31561475  0.23772973  1
  O  O106  1  0.23940516  0.16465980  0.23415440  1
  O  O107  1  0.73250911  0.16423516  0.24403976  1
  O  O108  1  0.32136131  0.51493161  0.92410492  1
  O  O109  1  0.81553845  0.50749672  0.92349834  1
  O  O110  1  0.43890894  0.37232264  0.92285060  1
  O  O111  1  0.92603862  0.36810567  0.91766423  1
  O  O112  1  0.25614283  0.15401867  0.92041609  1
  O  O113  1  0.74240799  0.12304661  0.92198526  1
  O  O114  1  0.31544038  0.12342736  0.42446674  1
  O  O115  1  0.82129258  0.12944781  0.42657116  1
  O  O116  1  0.24274504  0.36172569  0.42310695  1
  O  O117  1  0.75534865  0.35579670  0.42125579  1
  O  O118  1  0.42632576  0.48461348  0.41771788  1
  O  O119  1  0.93943671  0.50718343  0.42409602  1
  O  O120  1  0.18212945  0.49647646  0.07555461  1
  O  O121  1  0.67734510  0.48994653  0.07157848  1
  O  O122  1  0.06609104  0.63564519  0.07621213  1
  O  O123  1  0.56494771  0.63361911  0.07238398  1
  O  O124  1  0.25326406  0.86639499  0.07381574  1
  O  O125  1  0.74753550  0.84981707  0.07185675  1
  O  O126  1  0.17854362  0.86665583  0.57315846  1
  O  O127  1  0.67998153  0.86740702  0.57749194  1
  O  O128  1  0.24636408  0.64444134  0.57248216  1
  O  O129  1  0.75317572  0.63813287  0.57518286  1
  O  O130  1  0.06466959  0.49700986  0.57297341  1
  O  O131  1  0.56498612  0.49296169  0.57785631  1
  O  O132  1  0.15530549  0.83349150  0.26117721  1
  O  O133  1  0.65923141  0.85412355  0.26074026  1
  O  O134  1  0.26250975  0.68595316  0.26696813  1
  O  O135  1  0.76201766  0.70276026  0.25951908  1
  O  O136  1  0.08183456  0.47587166  0.26070686  1
  O  O137  1  0.58027023  0.47884932  0.26201689  1
  O  O138  1  0.16397106  0.46912991  0.76070531  1
  O  O139  1  0.65573913  0.47914666  0.76116800  1
  O  O140  1  0.08456088  0.68553666  0.76259451  1
  O  O141  1  0.58119987  0.68873339  0.76079519  1
  O  O142  1  0.26968043  0.83918794  0.75617878  1
  O  O143  1  0.76239990  0.84026416  0.76704271  1
loop_
_geom_bond_atom_site_label_1
_geom_bond_atom_site_label_2
_geom_bond_distance
_geom_bond_site_symmetry_2
Na0 O75 2.459475 1_555
Na0 O76 2.499200 1_665
Na0 O72 2.501923 1_655
Na0 O89 2.586878 1_555
Na0 O85 2.669091 1_565
Na0 O86 2.674291 1_665
Na1 O92 2.522679 1_555
Na1 O81 2.562944 1_544
Na1 O95 2.565066 1_555
Na1 O82 2.573457 1_544
Na1 O90 2.599288 1_545
Na1 O79 2.605800 1_554
Na2 O112 2.294488 1_555
Na2 O110 2.521456 1_555
Na2 O108 2.524591 1_555
Na2 O98 2.783537 1_555
Na2 O100 2.837104 1_555
Na2 O96 2.911282 1_555
Na3 O111 2.282525 1_555
Na3 O113 2.548656 1_555
Na3 O109 2.598946 1_555
Na3 O97 2.706851 1_555
Na3 O101 2.763183 1_555
Na3 O99 2.924611 1_555
Na4 O118 2.302049 1_555
Na4 O116 2.593191 1_555
Na4 O114 2.634749 1_555
Na4 O102 2.677145 1_555
Na4 O104 2.738192 1_555
Na4 O106 2.913025 1_555
Na5 O117 2.343251 1_555
Na5 O119 2.567463 1_555
Na5 O115 2.674747 1_555
Na5 O107 2.766579 1_555
Na5 O105 2.790488 1_555
Na5 O103 2.817171 1_555
Mg0 O3 1.946511 1_555
Mg0 O5 1.950800 1_565
Mg0 O0 1.954636 1_665
Mg0 O75 2.278142 1_555
Mg0 O72 2.301771 1_655
Mg0 O76 2.371632 1_665
Mg1 O7 1.932087 1_565
Mg1 O8 1.947262 1_555
Mg1 O10 2.182293 1_565
Mg1 O82 2.184193 1_555
Mg1 O81 2.195289 1_555
Mg1 O79 2.239586 1_565
Mg2 O13 1.906029 1_555
Mg2 O16 1.909876 1_655
Mg2 O89 2.132714 1_555
Mg2 O14 2.194250 1_665
Mg2 O86 2.203435 1_665
Mg2 O85 2.231545 1_565
Mg3 O21 1.894587 1_555
Mg3 O18 1.902717 1_545
Mg3 O23 2.145140 1_545
Mg3 O92 2.164815 1_555
Mg3 O95 2.221812 1_555
Mg3 O90 2.237302 1_545
Mg4 O112 1.966435 1_555
Mg4 O40 2.020417 1_556
Mg4 O36 2.039802 1_556
Mg4 O38 2.094152 1_556
Mg4 O108 2.152354 1_555
Mg4 O110 2.163986 1_555
Mg5 O41 1.882060 1_556
Mg5 O111 1.979502 1_555
Mg5 O39 2.096750 1_556
Mg5 O37 2.111892 1_556
Mg5 O113 2.199140 1_555
Mg5 O109 2.207417 1_555
Mg6 O44 1.907924 1_555
Mg6 O118 1.949064 1_555
Mg6 O46 2.134621 1_555
Mg6 O42 2.139163 1_555
Mg6 O116 2.157117 1_555
Mg6 O114 2.191748 1_555
Mg7 O117 1.939011 1_555
Mg7 O45 2.028380 1_555
Mg7 O43 2.089520 1_555
Mg7 O115 2.096528 1_555
Mg7 O47 2.106960 1_555
Mg7 O119 2.129523 1_555
O0 Si0 1.568933 1_555
O1 S0 1.491904 1_545
O1 Ta0 2.127036 1_545
O2 Si1 1.645947 1_555
O2 Ta0 1.942131 1_555
O3 Si2 1.573777 1_555
O4 Si4 1.649774 1_555
O4 Ta0 1.944789 1_545
O5 Si3 1.559975 1_555
O6 S1 1.477582 1_555
O6 Ta1 2.191887 1_445
O7 Si5 1.565796 1_555
O8 Si7 1.560838 1_555
O9 Si6 1.644977 1_655
O9 Ta1 1.946055 1_555
O10 S2 1.447578 1_555
O11 Si8 1.647903 1_555
O11 Ta1 1.944902 1_545
O12 S2 1.488425 1_565
O12 Ta2 2.109373 1_555
O13 Si8 1.552390 1_565
O14 S1 1.440811 1_555
O15 Si5 1.650134 1_555
O15 Ta2 1.914328 1_545
O16 Si6 1.555302 1_555
O17 Si7 1.659261 1_555
O17 Ta2 1.867826 1_555
O18 Si1 1.555305 1_555
O19 Si2 1.658240 1_555
O19 Ta3 1.857770 1_565
O20 Si3 1.640983 1_455
O20 Ta3 1.882329 1_455
O21 Si4 1.557270 1_555
O22 Si0 1.630327 1_565
O22 Ta3 1.941409 1_465
O23 S0 1.442554 1_555
O24 S3 1.520692 1_555
O24 Ta4 2.045904 1_555
O25 S4 1.492738 1_555
O25 Ta5 2.139180 1_555
O26 S5 1.519799 1_555
O26 Ta4 2.109735 1_555
O27 S6 1.486746 1_555
O27 Ta5 2.176666 1_555
O28 Si9 1.700022 1_555
O28 Ta4 1.846068 1_555
O29 S7 1.512137 1_555
O29 Ta5 2.123238 1_555
O30 S8 1.485963 1_555
O30 Ta6 2.162272 1_555
O31 S9 1.495393 1_555
O31 Ta7 2.104313 1_555
O32 S10 1.496869 1_555
O32 Ta6 2.161523 1_555
O33 Si10 1.660857 1_555
O33 Ta7 1.915467 1_555
O34 S11 1.496062 1_555
O34 Ta6 2.151598 1_555
O35 S12 1.486071 1_555
O35 Ta7 2.192079 1_555
O36 S11 1.450597 1_555
O37 S12 1.454748 1_555
O38 S8 1.458226 1_555
O39 S9 1.446825 1_555
O40 S10 1.465645 1_555
O41 Si10 1.559453 1_555
O42 S5 1.451148 1_555
O43 S6 1.445452 1_555
O44 Si9 1.551846 1_555
O45 S7 1.463014 1_555
O46 S3 1.441982 1_555
O47 S4 1.456979 1_555
O48 S13 1.525359 1_555
O48 Ta8 2.052524 1_556
O49 S14 1.502473 1_555
O49 Ta9 2.061848 1_556
O50 Si11 1.680311 1_555
O50 Ta8 1.877082 1_556
O51 S15 1.512638 1_555
O51 Ta9 2.108330 1_556
O52 Si12 1.676115 1_555
O52 Ta8 1.879676 1_556
O53 S16 1.534052 1_555
O53 Ta9 2.021971 1_556
O54 S17 1.523061 1_555
O54 Ta10 2.032748 1_555
O55 S18 1.571700 1_555
O55 Ta11 1.972422 1_555
O56 S19 1.565407 1_555
O56 Ta10 1.972248 1_555
O57 Si13 1.702077 1_555
O57 Ta11 1.852379 1_555
O58 S20 1.539609 1_555
O58 Ta10 2.030240 1_555
O59 Si14 1.715947 1_555
O59 Ta11 1.853708 1_555
O60 S20 1.486248 1_555
O60 Ta12 2.127707 1_555
O61 Si14 1.622298 1_555
O61 Ta13 1.926074 1_555
O62 S17 1.468756 1_555
O62 Ta12 2.181881 1_555
O63 S18 1.468399 1_555
O63 Ta13 2.251971 1_555
O64 S19 1.479405 1_555
O64 Ta12 2.171909 1_555
O65 Si13 1.639699 1_555
O65 Ta13 1.881779 1_555
O66 Si11 1.666114 1_555
O66 Ta14 1.852752 1_555
O67 S15 1.498931 1_555
O67 Ta15 2.110310 1_555
O68 Si12 1.669383 1_555
O68 Ta14 1.862640 1_555
O69 S16 1.487924 1_555
O69 Ta15 2.135344 1_555
O70 S13 1.490348 1_555
O70 Ta14 2.160536 1_555
O71 S14 1.475622 1_555
O71 Ta15 2.165132 1_555
O72 S20 1.455589 1_555
O73 Si14 1.634575 1_555
O73 Ta0 1.925404 1_555
O74 S17 1.486049 1_555
O74 Ta0 2.103718 1_555
O75 S18 1.457800 1_555
O76 S19 1.453234 1_555
O77 Si13 1.627577 1_555
O77 Ta0 1.940101 1_545
O78 Si11 1.631236 1_555
O78 Ta1 1.922295 1_445
O79 S15 1.465718 1_555
O80 Si12 1.629800 1_555
O80 Ta1 1.935831 1_455
O81 S16 1.465137 1_555
O82 S13 1.466132 1_555
O83 S14 1.493680 1_555
O83 Ta1 2.061306 1_555
O84 S3 1.484340 1_555
O84 Ta2 2.126930 1_545
O85 S4 1.458180 1_555
O86 S5 1.453882 1_555
O87 S6 1.521630 1_555
O87 Ta2 2.017509 1_545
O88 Si9 1.631102 1_555
O88 Ta2 1.921678 1_555
O89 S7 1.467318 1_555
O90 S8 1.457504 1_555
O91 S9 1.467400 1_555
O91 Ta3 2.185024 1_565
O92 S10 1.464254 1_555
O93 Si10 1.622434 1_555
O93 Ta3 1.938981 1_555
O94 S11 1.476737 1_555
O94 Ta3 2.193189 1_455
O95 S12 1.458703 1_555
O96 S2 1.516191 1_555
O96 Ta4 2.122867 1_555
O97 Si8 1.678492 1_555
O97 Ta5 1.893225 1_555
O98 S1 1.548630 1_555
O98 Ta4 2.039130 1_555
O99 Si5 1.659428 1_555
O99 Ta5 1.865675 1_555
O100 Si7 1.683307 1_555
O100 Ta4 1.876972 1_555
O101 Si6 1.677849 1_655
O101 Ta5 1.874566 1_555
O102 Si1 1.675119 1_555
O102 Ta6 1.889025 1_555
O103 Si2 1.666133 1_555
O103 Ta7 1.904553 1_555
O104 Si4 1.675612 1_555
O104 Ta6 1.873039 1_555
O105 Si3 1.673179 1_555
O105 Ta7 1.866880 1_555
O106 Si0 1.666528 1_555
O106 Ta6 1.846125 1_555
O107 S0 1.528770 1_545
O107 Ta7 2.048920 1_555
O108 S13 1.464780 1_555
O109 S14 1.448204 1_555
O110 S15 1.465787 1_555
O111 Si11 1.577060 1_655
O112 Si12 1.580452 1_545
O113 S16 1.457693 1_545
O114 S17 1.448127 1_545
O115 S18 1.462855 1_545
O116 S19 1.458639 1_555
O117 Si13 1.579838 1_555
O118 Si14 1.584524 1_555
O119 S20 1.462172 1_655
O120 S11 1.513672 1_555
O120 Ta8 2.107507 1_555
O121 S12 1.555628 1_555
O121 Ta9 1.970421 1_555
O122 S9 1.525919 1_455
O122 Ta8 2.026159 1_555
O123 S8 1.550003 1_555
O123 Ta9 1.972070 1_555
O124 S10 1.522232 1_565
O124 Ta8 2.101845 1_555
O125 Si10 1.708814 1_565
O125 Ta9 1.833738 1_555
O126 S5 1.531705 1_565
O126 Ta10 2.028853 1_555
O127 S6 1.485689 1_565
O127 Ta11 2.188724 1_555
O128 Si9 1.668185 1_555
O128 Ta10 1.866213 1_555
O129 S7 1.508917 1_555
O129 Ta11 2.154569 1_555
O130 S4 1.544450 1_455
O130 Ta10 1.994444 1_555
O131 S3 1.491746 1_555
O131 Ta11 2.129153 1_555
O132 Si0 1.661732 1_565
O132 Ta12 1.852838 1_555
O133 S0 1.468746 1_555
O133 Ta13 2.146716 1_555
O134 Si1 1.657295 1_555
O134 Ta12 1.847939 1_555
O135 Si2 1.630268 1_555
O135 Ta13 1.915699 1_555
O136 Si3 1.650976 1_455
O136 Ta12 1.853582 1_555
O137 Si4 1.646302 1_555
O137 Ta13 1.851632 1_555
O138 S1 1.484363 1_555
O138 Ta14 2.147582 1_555
O139 Si5 1.652610 1_555
O139 Ta15 1.864479 1_555
O140 Si6 1.666919 1_555
O140 Ta14 1.855321 1_555
O141 Si7 1.639361 1_555
O141 Ta15 1.871260 1_555
O142 S2 1.482532 1_565
O142 Ta14 2.151693 1_555
O143 Si8 1.660798 1_565
O143 Ta15 1.850406 1_555
