# generated using pymatgen
data_MgCr4(CuO4)2
_symmetry_space_group_name_H-M   'P 1'
_cell_length_a   6.06240859
_cell_length_b   6.06250550
_cell_length_c   6.21610940
_cell_angle_alpha   91.22544604
_cell_angle_beta   118.49007877
_cell_angle_gamma   119.27594709
_symmetry_Int_Tables_number   1
_chemical_formula_structural   MgCr4(CuO4)2
_chemical_formula_sum   'Mg1 Cr4 Cu2 O8'
_cell_volume   165.20470800
_cell_formula_units_Z   1
loop_
 _symmetry_equiv_pos_site_id
 _symmetry_equiv_pos_as_xyz
  1  'x, y, z'
loop_
 _atom_site_type_symbol
 _atom_site_label
 _atom_site_symmetry_multiplicity
 _atom_site_fract_x
 _atom_site_fract_y
 _atom_site_fract_z
 _atom_site_occupancy
  Mg  Mg0  1  0.71315275  0.83816445  0.62491776  1
  Cr  Cr0  1  0.22930354  0.85499387  0.62117300  1
  Cr  Cr1  1  0.73381488  0.35811583  0.62882311  1
  Cr  Cr2  1  0.74805039  0.37303787  0.12498955  1
  Cr  Cr3  1  0.23537133  0.36034189  0.62502199  1
  Cu  Cu0  1  0.48304110  0.82601438  0.13813092  1
  Cu  Cu1  1  0.18775232  0.09494869  0.11186637  1
  O  O0  1  0.22088672  0.59959283  0.40004117  1
  O  O1  1  0.77665663  0.14891722  0.40681803  1
  O  O2  1  0.69959713  0.57085873  0.84995574  1
  O  O3  1  0.24223069  0.11990461  0.84326583  1
  O  O4  1  0.76904290  0.60546377  0.40559520  1
  O  O5  1  0.18683522  0.58442050  0.81212179  1
  O  O6  1  0.27227340  0.12468683  0.43788133  1
  O  O7  1  0.69990800  0.11345454  0.84439722  1
loop_
_geom_bond_atom_site_label_1
_geom_bond_atom_site_label_2
_geom_bond_distance
_geom_bond_site_symmetry_2
Mg0 O0 2.159688 1_555
Mg0 O2 2.160117 1_555
Mg0 O4 2.188521 1_555
Mg0 O7 2.188916 1_565
Mg0 O1 2.330939 1_565
Mg0 O3 2.331738 1_665
Cr0 O6 1.996384 1_565
Cr0 O0 2.013530 1_555
Cr0 O4 2.021805 1_455
Cr0 O5 2.031671 1_555
Cr0 O3 2.042113 1_565
Cr0 O7 2.068401 1_565
Cr1 O5 1.996451 1_655
Cr1 O2 2.013419 1_555
Cr1 O7 2.021783 1_555
Cr1 O6 2.031666 1_555
Cr1 O1 2.041965 1_555
Cr1 O4 2.068385 1_555
Cr2 O0 2.097602 1_655
Cr2 O2 2.097759 1_554
Cr2 O7 2.133479 1_554
Cr2 O4 2.133522 1_555
Cr2 O3 2.232614 1_554
Cr2 O1 2.233323 1_555
Cr3 O6 1.983466 1_555
Cr3 O5 1.983566 1_555
Cr3 O3 2.014191 1_555
Cr3 O1 2.014230 1_455
Cr3 O2 2.039845 1_555
Cr3 O0 2.039985 1_555
Cu0 O5 1.818128 1_554
Cu0 O1 1.845556 1_565
Cu1 O6 1.818052 1_555
Cu1 O3 1.845999 1_554
