# generated using pymatgen
data_Mg3Si2H4O9
_symmetry_space_group_name_H-M   'P 1'
_cell_length_a   5.37138760
_cell_length_b   5.37138760
_cell_length_c   7.37757500
_cell_angle_alpha   90.00000000
_cell_angle_beta   90.00000000
_cell_angle_gamma   119.99999508
_symmetry_Int_Tables_number   1
_chemical_formula_structural   Mg3Si2H4O9
_chemical_formula_sum   'Mg3 Si2 H4 O9'
_cell_volume   184.33901859
_cell_formula_units_Z   1
loop_
 _symmetry_equiv_pos_site_id
 _symmetry_equiv_pos_as_xyz
  1  'x, y, z'
loop_
 _atom_site_type_symbol
 _atom_site_label
 _atom_site_symmetry_multiplicity
 _atom_site_fract_x
 _atom_site_fract_y
 _atom_site_fract_z
 _atom_site_occupancy
  Mg  Mg0  1  0.33141900  0.00000000  0.45884200  1
  Mg  Mg1  1  0.00000000  0.33141900  0.45884200  1
  Mg  Mg2  1  0.66858100  0.66858100  0.45884200  1
  Si  Si0  1  0.33333300  0.66666700  0.07719400  1
  Si  Si1  1  0.66666700  0.33333300  0.07719400  1
  H  H0  1  0.00000000  0.00000000  0.17696300  1
  H  H1  1  0.34948100  0.34948100  0.72280200  1
  H  H2  1  0.00000000  0.65051900  0.72280200  1
  H  H3  1  0.65051900  0.00000000  0.72280200  1
  O  O0  1  0.00000000  0.00000000  0.30806300  1
  O  O1  1  0.33333300  0.66666700  0.29537300  1
  O  O2  1  0.66666700  0.33333300  0.29537300  1
  O  O3  1  0.51140900  0.00000000  0.99411500  1
  O  O4  1  0.00000000  0.51140900  0.99411500  1
  O  O5  1  0.48859100  0.48859100  0.99411500  1
  O  O6  1  0.66464700  0.00000000  0.59148800  1
  O  O7  1  0.00000000  0.66464700  0.59148800  1
  O  O8  1  0.33535300  0.33535300  0.59148800  1
loop_
_geom_bond_atom_site_label_1
_geom_bond_atom_site_label_2
_geom_bond_distance
_geom_bond_site_symmetry_2
Mg0 O6 2.039951 1_555
Mg0 O8 2.040778 1_555
Mg0 O7 2.040778 1_545
Mg0 O0 2.099152 1_555
Mg0 O1 2.163033 1_545
Mg0 O2 2.163035 1_555
Mg1 O7 2.039951 1_555
Mg1 O8 2.040778 1_555
Mg1 O6 2.040778 1_455
Mg1 O0 2.099152 1_555
Mg1 O2 2.163033 1_455
Mg1 O1 2.163035 1_555
Mg2 O8 2.039951 1_555
Mg2 O6 2.040778 1_565
Mg2 O7 2.040778 1_655
Mg2 O0 2.099152 1_665
Mg2 O1 2.163037 1_555
Mg2 O2 2.163037 1_555
H0 O0 0.967200 1_555
H1 O8 0.971747 1_555
H2 O7 0.971747 1_555
H3 O6 0.971747 1_555
O1 Si0 1.609632 1_555
O2 Si1 1.609632 1_555
O3 Si1 1.668455 1_556
O3 Si0 1.668455 1_546
O4 Si0 1.668455 1_556
O4 Si1 1.668455 1_456
O5 Si0 1.668459 1_556
O5 Si1 1.668459 1_556
