# generated using pymatgen
data_MgFe6(OF)6
_symmetry_space_group_name_H-M   'P 1'
_cell_length_a   5.11489964
_cell_length_b   7.93360578
_cell_length_c   5.73781628
_cell_angle_alpha   95.68625995
_cell_angle_beta   96.12845946
_cell_angle_gamma   85.49867300
_symmetry_Int_Tables_number   1
_chemical_formula_structural   MgFe6(OF)6
_chemical_formula_sum   'Mg1 Fe6 O6 F6'
_cell_volume   229.82524011
_cell_formula_units_Z   1
loop_
 _symmetry_equiv_pos_site_id
 _symmetry_equiv_pos_as_xyz
  1  'x, y, z'
loop_
 _atom_site_type_symbol
 _atom_site_label
 _atom_site_symmetry_multiplicity
 _atom_site_fract_x
 _atom_site_fract_y
 _atom_site_fract_z
 _atom_site_occupancy
  Mg  Mg0  1  0.99073600  0.51589800  0.99094300  1
  Fe  Fe0  1  0.45432900  0.99122100  0.54422200  1
  Fe  Fe1  1  0.48043400  0.34953900  0.83243700  1
  Fe  Fe2  1  0.51768300  0.66808200  0.18387300  1
  Fe  Fe3  1  0.04116800  0.71591900  0.61325900  1
  Fe  Fe4  1  0.96834300  0.30171800  0.36982900  1
  Fe  Fe5  1  0.00350700  0.00288000  0.00582500  1
  O  O0  1  0.84552000  0.09131200  0.28077700  1
  O  O1  1  0.67019600  0.78289700  0.49039000  1
  O  O2  1  0.70636200  0.42164400  0.12939400  1
  O  O3  1  0.30419600  0.57216300  0.85647200  1
  O  O4  1  0.31247600  0.23815400  0.54448300  1
  O  O5  1  0.19619700  0.93522400  0.73855300  1
  F  F0  1  0.81329400  0.42155000  0.66379500  1
  F  F1  1  0.85004800  0.76543000  0.99102300  1
  F  F2  1  0.69542100  0.10787700  0.80747900  1
  F  F3  1  0.31254800  0.91747500  0.20971400  1
  F  F4  1  0.17887600  0.26216400  0.02819000  1
  F  F5  1  0.15866600  0.55551900  0.32648600  1
loop_
_geom_bond_atom_site_label_1
_geom_bond_atom_site_label_2
_geom_bond_distance
_geom_bond_site_symmetry_2
Mg0 O3 1.951903 1_655
Mg0 O2 1.959874 1_556
Fe0 O5 1.920542 1_555
Fe0 O1 1.931673 1_555
Fe0 O4 2.034928 1_565
Fe1 O3 1.918197 1_555
Fe1 O4 1.943079 1_555
Fe1 O2 2.013970 1_556
Fe2 O1 2.008126 1_555
Fe2 O2 2.121036 1_555
Fe2 O3 2.170173 1_554
Fe3 O1 2.002543 1_455
Fe3 O5 2.004937 1_555
Fe3 O3 2.175288 1_555
Fe4 O0 1.835563 1_555
Fe4 O4 1.985217 1_655
Fe4 O2 2.066242 1_555
Fe5 O0 1.896841 1_455
Fe5 O5 1.920380 1_544
F0 Fe4 2.056043 1_555
F0 Mg0 2.090938 1_555
F0 Fe1 2.185258 1_555
F1 Mg0 2.052627 1_555
F1 Fe5 2.087658 1_666
F1 Fe2 2.342657 1_556
F1 Fe3 2.455927 1_655
F2 Fe5 2.017732 1_656
F2 Fe0 2.040419 1_545
F2 Fe1 2.133975 1_555
F3 Fe5 1.980023 1_565
F3 Fe0 2.024595 1_555
F3 Fe2 2.164930 1_555
F4 Mg0 2.182035 1_454
F4 Fe1 2.193908 1_554
F4 Fe5 2.294622 1_555
F4 Fe4 2.318726 1_455
F5 Mg0 2.027973 1_454
F5 Fe3 2.089078 1_555
F5 Fe4 2.350006 1_455
F5 Fe2 2.358449 1_555
