# generated using pymatgen
data_Sc3P2
_symmetry_space_group_name_H-M   'P 1'
_cell_length_a   3.77753603
_cell_length_b   6.95954184
_cell_length_c   14.44279466
_cell_angle_alpha   90.00000000
_cell_angle_beta   90.00000000
_cell_angle_gamma   90.00000000
_symmetry_Int_Tables_number   1
_chemical_formula_structural   Sc3P2
_chemical_formula_sum   'Sc12 P8'
_cell_volume   379.69991695
_cell_formula_units_Z   4
loop_
 _symmetry_equiv_pos_site_id
 _symmetry_equiv_pos_as_xyz
  1  'x, y, z'
loop_
 _atom_site_type_symbol
 _atom_site_label
 _atom_site_symmetry_multiplicity
 _atom_site_fract_x
 _atom_site_fract_y
 _atom_site_fract_z
 _atom_site_occupancy
  Sc  Sc0  1  0.75000000  0.13546759  0.06849843  1
  Sc  Sc1  1  0.25000000  0.86453409  0.93151325  1
  Sc  Sc2  1  0.75000000  0.63546759  0.43150157  1
  Sc  Sc3  1  0.25000000  0.36453409  0.56848675  1
  Sc  Sc4  1  0.25000000  0.66247710  0.72318906  1
  Sc  Sc5  1  0.75000000  0.33752150  0.27680864  1
  Sc  Sc6  1  0.25000000  0.16247710  0.77681094  1
  Sc  Sc7  1  0.75000000  0.83752150  0.22319136  1
  Sc  Sc8  1  0.25000000  0.50846265  0.10305643  1
  Sc  Sc9  1  0.75000000  0.49153662  0.89695293  1
  Sc  Sc10  1  0.25000000  0.00846265  0.39694357  1
  Sc  Sc11  1  0.75000000  0.99153662  0.60304707  1
  P  P0  1  0.25000000  0.75531232  0.54204517  1
  P  P1  1  0.75000000  0.24468135  0.45795023  1
  P  P2  1  0.25000000  0.25531232  0.95795483  1
  P  P3  1  0.75000000  0.74468135  0.04204977  1
  P  P4  1  0.25000000  0.62727660  0.29401767  1
  P  P5  1  0.75000000  0.37273117  0.70598122  1
  P  P6  1  0.25000000  0.12727660  0.20598233  1
  P  P7  1  0.75000000  0.87273117  0.79401878  1
loop_
_geom_bond_atom_site_label_1
_geom_bond_atom_site_label_2
_geom_bond_distance
_geom_bond_site_symmetry_2
P0 Sc2 2.610001 1_555
P0 Sc2 2.610001 1_455
P0 Sc11 2.654515 1_555
P0 Sc11 2.654515 1_455
P0 Sc4 2.694821 1_555
P0 Sc10 2.737849 1_565
P0 Sc3 2.746319 1_555
P1 Sc3 2.609957 1_555
P1 Sc3 2.609957 1_655
P1 Sc10 2.654514 1_655
P1 Sc10 2.654514 1_555
P1 Sc5 2.694797 1_555
P1 Sc11 2.737772 1_545
P1 Sc2 2.746388 1_555
P2 Sc0 2.610001 1_456
P2 Sc0 2.610001 1_556
P2 Sc9 2.654515 1_455
P2 Sc9 2.654515 1_555
P2 Sc6 2.694821 1_555
P2 Sc8 2.737849 1_556
P2 Sc1 2.746319 1_545
P3 Sc1 2.609957 1_554
P3 Sc1 2.609957 1_654
P3 Sc8 2.654514 1_655
P3 Sc8 2.654514 1_555
P3 Sc7 2.694797 1_555
P3 Sc9 2.737772 1_554
P3 Sc0 2.746388 1_565
P4 Sc7 2.599001 1_455
P4 Sc7 2.599001 1_555
P4 Sc2 2.741078 1_455
P4 Sc2 2.741078 1_555
P4 Sc5 2.774121 1_555
P4 Sc5 2.774121 1_455
P4 Sc8 2.879304 1_555
P4 Sc10 3.040981 1_565
P5 Sc6 2.599057 1_555
P5 Sc6 2.599057 1_655
P5 Sc3 2.741189 1_655
P5 Sc3 2.741189 1_555
P5 Sc4 2.774073 1_655
P5 Sc4 2.774073 1_555
P5 Sc9 2.879431 1_555
P5 Sc11 3.041091 1_545
P6 Sc5 2.599001 1_455
P6 Sc5 2.599001 1_555
P6 Sc0 2.741078 1_555
P6 Sc0 2.741078 1_455
P6 Sc7 2.774121 1_545
P6 Sc7 2.774121 1_445
P6 Sc10 2.879304 1_555
P6 Sc8 3.040981 1_555
P7 Sc4 2.599057 1_555
P7 Sc4 2.599057 1_655
P7 Sc1 2.741189 1_655
P7 Sc1 2.741189 1_555
P7 Sc6 2.774073 1_665
P7 Sc6 2.774073 1_565
P7 Sc11 2.879431 1_555
P7 Sc9 3.041091 1_555
