# generated using pymatgen
data_La5MgCu4P4(ClO2)2
_symmetry_space_group_name_H-M   'P 1'
_cell_length_a   4.03207345
_cell_length_b   4.03207345
_cell_length_c   24.50893031
_cell_angle_alpha   94.71831994
_cell_angle_beta   94.71831994
_cell_angle_gamma   90.00000000
_symmetry_Int_Tables_number   1
_chemical_formula_structural   La5MgCu4P4(ClO2)2
_chemical_formula_sum   'La5 Mg1 Cu4 P4 Cl2 O4'
_cell_volume   395.75154648
_cell_formula_units_Z   1
loop_
 _symmetry_equiv_pos_site_id
 _symmetry_equiv_pos_as_xyz
  1  'x, y, z'
loop_
 _atom_site_type_symbol
 _atom_site_label
 _atom_site_symmetry_multiplicity
 _atom_site_fract_x
 _atom_site_fract_y
 _atom_site_fract_z
 _atom_site_occupancy
  La  La0  1  0.61229466  0.61229466  0.22458932  1
  La  La1  1  0.38770534  0.38770534  0.77541068  1
  La  La2  1  0.16343649  0.16343649  0.32687299  1
  La  La3  1  0.83656351  0.83656351  0.67312701  1
  La  La4  1  -0.00000000  -0.00000000  -0.00000000  1
  Mg  Mg0  1  0.25000000  0.75000000  0.50000000  1
  Cu  Cu0  1  0.05244060  0.55244060  0.10488220  1
  Cu  Cu1  1  0.55241878  0.05241878  0.10483856  1
  Cu  Cu2  1  0.94758122  0.44758122  0.89516144  1
  Cu  Cu3  1  0.44755940  0.94755940  0.89511780  1
  P  P0  1  0.52329164  0.52329164  0.04658328  1
  P  P1  1  0.47670836  0.47670836  0.95341672  1
  P  P2  1  0.07739389  0.07739389  0.15478578  1
  P  P3  1  0.92260611  0.92260611  0.84521422  1
  Cl  Cl0  1  0.69638941  0.69638941  0.39277981  1
  Cl  Cl1  1  0.30361059  0.30361059  0.60722019  1
  O  O0  1  0.63924930  0.13924930  0.27849960  1
  O  O1  1  0.13923617  0.63923617  0.27847335  1
  O  O2  1  0.36076383  0.86076383  0.72152665  1
  O  O3  1  0.86075070  0.36075070  0.72150040  1
loop_
_geom_bond_atom_site_label_1
_geom_bond_atom_site_label_2
_geom_bond_distance
_geom_bond_site_symmetry_2
La0 O1 2.405179 1_655
La0 O1 2.405182 1_555
La0 O0 2.405527 1_565
La0 O0 2.405530 1_555
La0 P2 3.319042 1_555
La0 P2 3.319047 1_565
La0 P2 3.319047 1_655
La0 P2 3.319052 1_665
La1 O2 2.405179 1_545
La1 O2 2.405182 1_555
La1 O3 2.405527 1_455
La1 O3 2.405530 1_555
La1 P3 3.319042 1_555
La1 P3 3.319047 1_545
La1 P3 3.319047 1_455
La1 P3 3.319052 1_445
La2 O0 2.334732 1_555
La2 O0 2.334736 1_455
La2 O1 2.335055 1_555
La2 O1 2.335058 1_545
La3 O3 2.334732 1_555
La3 O3 2.334736 1_565
La3 O2 2.335055 1_555
La3 O2 2.335058 1_655
La4 P1 3.068332 1_554
La4 P0 3.068332 1_445
La4 P0 3.068332 1_545
La4 P1 3.068332 1_454
La4 P1 3.068332 1_544
La4 P0 3.068332 1_455
La4 P0 3.068332 1_555
La4 P1 3.068332 1_444
Cu0 P2 2.353735 1_555
Cu0 P2 2.353746 1_565
Cu0 P0 2.465434 1_455
Cu0 P0 2.465437 1_555
Cu0 La4 3.253107 1_555
Cu0 La4 3.253110 1_565
Cu1 P2 2.354283 1_555
Cu1 P2 2.354294 1_655
Cu1 P0 2.464823 1_545
Cu1 P0 2.464826 1_555
Cu1 La4 3.252274 1_555
Cu1 La4 3.252276 1_655
Cu2 P3 2.354283 1_555
Cu2 P3 2.354294 1_545
Cu2 P1 2.464823 1_655
Cu2 P1 2.464826 1_555
Cu2 La4 3.252274 1_666
Cu2 La4 3.252276 1_656
Cu3 P3 2.353735 1_555
Cu3 P3 2.353746 1_455
Cu3 P1 2.465434 1_565
Cu3 P1 2.465437 1_555
Cu3 La4 3.253107 1_666
Cu3 La4 3.253110 1_566
P0 P1 2.267910 1_554
Cl0 La2 3.271498 1_555
Cl0 La2 3.271500 1_565
Cl0 La2 3.271500 1_655
Cl0 La2 3.271502 1_665
Cl1 La3 3.271498 1_555
Cl1 La3 3.271500 1_545
Cl1 La3 3.271500 1_455
Cl1 La3 3.271502 1_445
