# generated using pymatgen
data_Na3Zn3In(SO4)6
_symmetry_space_group_name_H-M   'P 1'
_cell_length_a   8.81324656
_cell_length_b   8.80326720
_cell_length_c   22.72974911
_cell_angle_alpha   89.97219147
_cell_angle_beta   90.07388706
_cell_angle_gamma   119.94857374
_symmetry_Int_Tables_number   1
_chemical_formula_structural   Na3Zn3In(SO4)6
_chemical_formula_sum   'Na9 Zn9 In3 S18 O72'
_cell_volume   1528.02172836
_cell_formula_units_Z   3
loop_
 _symmetry_equiv_pos_site_id
 _symmetry_equiv_pos_as_xyz
  1  'x, y, z'
loop_
 _atom_site_type_symbol
 _atom_site_label
 _atom_site_symmetry_multiplicity
 _atom_site_fract_x
 _atom_site_fract_y
 _atom_site_fract_z
 _atom_site_occupancy
  Na  Na0  1  0.63532345  0.99845674  0.24846746  1
  Na  Na1  1  0.36403499  0.36329224  0.24790973  1
  Na  Na2  1  0.02864634  0.69644798  0.58810493  1
  Na  Na3  1  0.99854599  0.01649619  0.49942921  1
  Na  Na4  1  0.99980172  0.99907568  0.99799000  1
  Na  Na5  1  0.66603628  0.33256225  0.82886928  1
  Na  Na6  1  0.68654473  0.35152306  0.33413761  1
  Na  Na7  1  0.31463566  0.66490185  0.15841278  1
  Na  Na8  1  0.35143782  0.66498251  0.66712731  1
  Zn  Zn0  1  0.99952688  0.99515531  0.35063260  1
  Zn  Zn1  1  0.99993914  0.00053624  0.84792463  1
  Zn  Zn2  1  0.99955362  0.00785087  0.65640465  1
  Zn  Zn3  1  0.00036580  0.99589660  0.14954096  1
  Zn  Zn4  1  0.66194289  0.32857349  0.68512729  1
  Zn  Zn5  1  0.67439478  0.34058238  0.17481360  1
  Zn  Zn6  1  0.33373782  0.66676357  0.01483839  1
  Zn  Zn7  1  0.34104581  0.66597423  0.51392395  1
  Zn  Zn8  1  0.32510427  0.66590805  0.32285814  1
  In  In0  1  0.66684926  0.33350379  0.98431406  1
  In  In1  1  0.66207463  0.32812300  0.48394970  1
  In  In2  1  0.33255859  0.66671588  0.81633156  1
  S  S0  1  0.29486179  0.99792471  0.25037338  1
  S  S1  1  0.70525833  0.70287734  0.25070879  1
  S  S2  1  0.99980680  0.29578177  0.25053084  1
  S  S3  1  0.29853731  0.29541283  0.75009337  1
  S  S4  1  0.99714155  0.70154726  0.74791309  1
  S  S5  1  0.70452568  0.00252719  0.74990169  1
  S  S6  1  0.96613479  0.33183856  0.58398848  1
  S  S7  1  0.36508980  0.03232058  0.58452575  1
  S  S8  1  0.66632690  0.63314335  0.58472602  1
  S  S9  1  0.97131879  0.63739278  0.08396930  1
  S  S10  1  0.66589909  0.02889165  0.08654215  1
  S  S11  1  0.36271926  0.33373788  0.08642483  1
  S  S12  1  0.63439801  0.67043551  0.91776875  1
  S  S13  1  0.03593548  0.36538088  0.91770001  1
  S  S14  1  0.32946462  0.96416658  0.91769613  1
  S  S15  1  0.63293041  0.96346418  0.41433316  1
  S  S16  1  0.33047048  0.36681626  0.41436557  1
  S  S17  1  0.03545489  0.66938432  0.41870790  1
  O  O0  1  0.21447015  0.02685881  0.30319595  1
  O  O1  1  0.80667635  0.78123586  0.30484556  1
  O  O2  1  0.96823155  0.18474054  0.30341239  1
  O  O3  1  0.21288096  0.19603431  0.80371205  1
  O  O4  1  0.98413481  0.79311358  0.79994190  1
  O  O5  1  0.80414033  0.01712197  0.80364080  1
  O  O6  1  0.78313364  0.97956387  0.69564466  1
  O  O7  1  0.19857420  0.21594084  0.69562577  1
  O  O8  1  0.01621695  0.79769533  0.69178017  1
  O  O9  1  0.78677274  0.81364550  0.19828134  1
  O  O10  1  0.03117412  0.21538757  0.19794878  1
  O  O11  1  0.19290495  0.97602163  0.19656439  1
  O  O12  1  0.87723777  0.36200871  0.63396275  1
  O  O13  1  0.47585824  0.12106535  0.63548302  1
  O  O14  1  0.64315560  0.52241303  0.63613264  1
  O  O15  1  0.88980626  0.53128362  0.13756475  1
  O  O16  1  0.64446381  0.10924261  0.14191943  1
  O  O17  1  0.46351144  0.35357097  0.14194624  1
  O  O18  1  0.45142369  0.31007704  0.03450366  1
  O  O19  1  0.86344599  0.55481267  0.03041765  1
  O  O20  1  0.69014774  0.14148585  0.03452128  1
  O  O21  1  0.43805107  0.13226929  0.52845821  1
  O  O22  1  0.70149524  0.55742873  0.53007592  1
  O  O23  1  0.86371650  0.30290561  0.52802493  1
  O  O24  1  0.54679635  0.68614624  0.97059872  1
  O  O25  1  0.13931537  0.45335982  0.97050293  1
  O  O26  1  0.31435000  0.86105792  0.97051188  1
  O  O27  1  0.54106072  0.85990706  0.46659734  1
  O  O28  1  0.31624144  0.45759590  0.46659996  1
  O  O29  1  0.13075477  0.68170712  0.47402700  1
  O  O30  1  0.11946368  0.64765534  0.36570673  1
  O  O31  1  0.53701192  0.88577342  0.35826886  1
  O  O32  1  0.35123793  0.46413919  0.35838441  1
  O  O33  1  0.11284634  0.46945917  0.86304477  1
  O  O34  1  0.35641813  0.88726858  0.86301288  1
  O  O35  1  0.53052082  0.64380910  0.86310013  1
  O  O36  1  0.01722313  0.82760985  0.41438439  1
  O  O37  1  0.81034165  0.98372694  0.41252231  1
  O  O38  1  0.17308251  0.18971148  0.41194681  1
  O  O39  1  0.01886397  0.19013358  0.91271094  1
  O  O40  1  0.17150039  0.98134165  0.91249526  1
  O  O41  1  0.80985908  0.82802924  0.91276044  1
  O  O42  1  0.98936389  0.17796904  0.59056758  1
  O  O43  1  0.18524337  0.00784179  0.58950948  1
  O  O44  1  0.82673812  0.80912905  0.59005712  1
  O  O45  1  0.98926125  0.81364278  0.08845055  1
  O  O46  1  0.82408367  0.01095797  0.08990543  1
  O  O47  1  0.18630532  0.17586286  0.08940674  1
  O  O48  1  0.68499171  0.16066569  0.74605022  1
  O  O49  1  0.47654037  0.31594862  0.74671721  1
  O  O50  1  0.83997847  0.52360261  0.74544547  1
  O  O51  1  0.67885638  0.52162777  0.24453854  1
  O  O52  1  0.83957248  0.31217667  0.24365759  1
  O  O53  1  0.47479966  0.15911697  0.24574031  1
  O  O54  1  0.65346761  0.50994531  0.92112491  1
  O  O55  1  0.85618857  0.34548800  0.92096265  1
  O  O56  1  0.48951142  0.14388069  0.92114579  1
  O  O57  1  0.65009652  0.14271278  0.41750120  1
  O  O58  1  0.49226690  0.34985812  0.41815647  1
  O  O59  1  0.85538352  0.50852048  0.42028257  1
  O  O60  1  0.34972995  0.49443558  0.08032422  1
  O  O61  1  0.14592618  0.65282597  0.07786275  1
  O  O62  1  0.50572333  0.85529508  0.08021132  1
  O  O63  1  0.34540848  0.85348183  0.57931535  1
  O  O64  1  0.50820618  0.65007512  0.57750049  1
  O  O65  1  0.13991408  0.49680184  0.57812253  1
  O  O66  1  0.32095613  0.84277359  0.25605718  1
  O  O67  1  0.52551781  0.68446903  0.25501586  1
  O  O68  1  0.16030240  0.47235264  0.25702973  1
  O  O69  1  0.31790177  0.47602530  0.75261290  1
  O  O70  1  0.15882161  0.68379403  0.75125605  1
  O  O71  1  0.52402314  0.84193537  0.75264777  1
loop_
_geom_bond_atom_site_label_1
_geom_bond_atom_site_label_2
_geom_bond_distance
_geom_bond_site_symmetry_2
Na0 O66 2.407082 1_555
Na0 O52 2.432310 1_565
Na0 O67 2.434790 1_555
Na0 O53 2.450133 1_565
Na0 O16 2.596649 1_565
Na0 O31 2.666191 1_555
Na0 O9 2.811351 1_555
Na0 O2 2.836530 1_565
Na1 O51 2.405446 1_555
Na1 O68 2.431271 1_555
Na1 O53 2.436838 1_555
Na1 O67 2.455189 1_555
Na1 O17 2.580211 1_555
Na1 O32 2.684991 1_555
Na1 O10 2.787463 1_555
Na1 O0 2.862021 1_555
Na2 O43 2.375487 1_565
Na2 O65 2.413262 1_555
Na2 O63 2.427441 1_555
Na2 O44 2.432103 1_455
Na2 O8 2.541607 1_555
Na2 O12 2.759201 1_455
Na2 O29 2.770031 1_555
Na2 O22 2.831839 1_455
Na3 O37 2.500185 1_545
Na3 O38 2.511635 1_655
Na3 O42 2.537056 1_555
Na3 O36 2.608822 1_645
Na3 O43 2.649862 1_655
Na3 O44 2.667052 1_545
Na4 O41 2.510038 1_555
Na4 O39 2.515941 1_665
Na4 O40 2.516800 1_655
Na4 O45 2.597493 1_556
Na4 O47 2.623286 1_666
Na4 O46 2.635216 1_566
Na5 O49 2.458796 1_555
Na5 O48 2.473351 1_555
Na5 O50 2.490841 1_555
Na5 O56 2.646402 1_555
Na5 O55 2.646502 1_555
Na5 O54 2.650355 1_555
Na6 O59 2.429008 1_555
Na6 O57 2.545826 1_555
Na6 O51 2.548062 1_555
Na6 O58 2.561702 1_555
Na6 O52 2.577346 1_555
Na6 O53 2.688167 1_555
Na7 O61 2.325851 1_555
Na7 O60 2.442429 1_555
Na7 O62 2.447750 1_555
Na7 O66 2.701267 1_555
Na7 O68 2.729467 1_555
Na7 O67 2.824089 1_555
Na8 O69 2.477369 1_555
Na8 O71 2.479586 1_555
Na8 O64 2.502971 1_555
Na8 O63 2.612433 1_555
Na8 O70 2.618235 1_555
Na8 O65 2.645273 1_555
In0 O19 2.126687 1_556
In0 O20 2.132129 1_556
In0 O18 2.136128 1_556
In0 O54 2.160951 1_555
In0 O56 2.163890 1_555
In0 O55 2.167818 1_555
In1 O21 2.121075 1_555
In1 O22 2.143761 1_555
In1 O23 2.144800 1_555
In1 O57 2.187783 1_555
In1 O58 2.189192 1_555
In1 O59 2.195790 1_555
In2 O34 2.129222 1_555
In2 O33 2.130398 1_555
In2 O35 2.135636 1_555
In2 O69 2.172024 1_555
In2 O71 2.174246 1_555
In2 O70 2.186049 1_555
O0 S0 1.480234 1_545
O0 Zn0 2.075117 1_445
O1 S1 1.473534 1_555
O1 Zn0 2.078429 1_555
O2 S2 1.485221 1_555
O2 Zn0 2.114384 1_545
O3 S3 1.470549 1_555
O3 Zn1 2.066932 1_455
O4 S4 1.467989 1_555
O4 Zn1 2.071413 1_565
O5 S5 1.471066 1_555
O5 Zn1 2.063783 1_555
O6 S5 1.477838 1_565
O6 Zn2 2.006365 1_565
O7 S3 1.476813 1_555
O7 Zn2 2.004119 1_455
O8 S4 1.493319 1_455
O8 Zn2 2.088142 1_465
O9 S1 1.479414 1_555
O9 Zn3 2.081637 1_655
O10 S2 1.484175 1_455
O10 Zn3 2.120233 1_545
O11 S0 1.471359 1_555
O11 Zn3 2.084236 1_555
O12 S6 1.478173 1_555
O12 Zn4 2.118288 1_555
O13 S7 1.463344 1_555
O13 Zn4 2.075075 1_555
O14 S8 1.469002 1_555
O14 Zn4 2.111696 1_555
O15 S9 1.484527 1_555
O15 Zn5 1.989964 1_555
O16 S10 1.501762 1_555
O16 Zn5 2.059298 1_555
O17 S11 1.501551 1_555
O17 Zn5 2.057662 1_555
O18 S11 1.487456 1_555
O19 S9 1.490558 1_555
O20 S10 1.488045 1_555
O21 S7 1.499294 1_555
O22 S8 1.513745 1_555
O23 S6 1.505162 1_555
O24 S12 1.471840 1_555
O24 Zn6 2.061785 1_556
O25 S13 1.471045 1_555
O25 Zn6 2.065006 1_556
O26 S14 1.470189 1_555
O26 Zn6 2.063869 1_556
O27 S15 1.470487 1_555
O27 Zn7 2.043904 1_555
O28 S16 1.471518 1_555
O28 Zn7 2.042258 1_555
O29 S17 1.484812 1_555
O29 Zn7 2.127976 1_555
O30 S17 1.476485 1_555
O30 Zn8 1.993154 1_555
O31 S15 1.492347 1_555
O31 Zn8 2.066516 1_555
O32 S16 1.493188 1_555
O32 Zn8 2.065595 1_555
O33 S13 1.491048 1_555
O34 S14 1.490545 1_555
O35 S12 1.490044 1_555
O36 S17 1.482883 1_555
O36 Zn0 2.127580 1_455
O37 S15 1.483222 1_555
O37 Zn0 2.146502 1_555
O38 S16 1.482728 1_555
O38 Zn0 2.143941 1_445
O39 S13 1.477817 1_555
O39 Zn1 2.169312 1_455
O40 S14 1.478079 1_555
O40 Zn1 2.172080 1_465
O41 S12 1.478934 1_555
O41 Zn1 2.179107 1_565
O42 S6 1.475024 1_555
O42 Zn2 2.149886 1_555
O43 S7 1.493653 1_555
O43 Zn2 2.235337 1_455
O44 S8 1.492123 1_555
O44 Zn2 2.233991 1_565
O45 S9 1.482535 1_555
O45 Zn3 2.087326 1_655
O46 S10 1.481150 1_555
O46 Zn3 2.113944 1_645
O47 S11 1.481960 1_555
O47 Zn3 2.115453 1_545
O48 S5 1.488113 1_555
O48 Zn4 2.107321 1_555
O49 S3 1.488888 1_555
O49 Zn4 2.113413 1_555
O50 S4 1.486298 1_555
O50 Zn4 2.143920 1_555
O51 S1 1.499718 1_555
O51 Zn5 2.234529 1_555
O52 S2 1.497469 1_555
O52 Zn5 2.233288 1_555
O53 S0 1.514277 1_545
O53 Zn5 2.333329 1_555
O54 S12 1.505695 1_555
O55 S13 1.506324 1_655
O56 S14 1.506798 1_545
O57 S15 1.509900 1_545
O58 S16 1.508398 1_555
O59 S17 1.510460 1_655
O60 S11 1.481578 1_555
O60 Zn6 2.178903 1_555
O61 S9 1.482428 1_455
O61 Zn6 2.147125 1_555
O62 S10 1.481442 1_565
O62 Zn6 2.178262 1_555
O63 S7 1.500069 1_565
O63 Zn7 2.207773 1_555
O64 S8 1.482555 1_555
O64 Zn7 2.116229 1_555
O65 S6 1.500675 1_455
O65 Zn7 2.204130 1_555
O66 S0 1.499487 1_555
O66 Zn8 2.187558 1_555
O67 S1 1.513039 1_555
O67 Zn8 2.289759 1_555
O68 S2 1.497725 1_455
O68 Zn8 2.185773 1_555
O69 S3 1.513134 1_555
O70 S4 1.510852 1_455
O71 S5 1.512583 1_565
