# generated using pymatgen
data_CoAsRh
_symmetry_space_group_name_H-M   'P 1'
_cell_length_a   3.79957600
_cell_length_b   5.95988100
_cell_length_c   7.02104300
_cell_angle_alpha   90.00000000
_cell_angle_beta   90.00000000
_cell_angle_gamma   90.00000000
_symmetry_Int_Tables_number   1
_chemical_formula_structural   CoAsRh
_chemical_formula_sum   'Co4 As4 Rh4'
_cell_volume   158.99166485
_cell_formula_units_Z   4
loop_
 _symmetry_equiv_pos_site_id
 _symmetry_equiv_pos_as_xyz
  1  'x, y, z'
loop_
 _atom_site_type_symbol
 _atom_site_label
 _atom_site_symmetry_multiplicity
 _atom_site_fract_x
 _atom_site_fract_y
 _atom_site_fract_z
 _atom_site_occupancy
  Co  Co0  1  0.75000000  0.14304700  0.06237200  1
  Co  Co1  1  0.25000000  0.85695300  0.93762800  1
  Co  Co2  1  0.75000000  0.64304700  0.43762800  1
  Co  Co3  1  0.25000000  0.35695300  0.56237200  1
  As  As0  1  0.75000000  0.26249500  0.37528800  1
  As  As1  1  0.25000000  0.23750500  0.87528800  1
  As  As2  1  0.25000000  0.73750500  0.62471200  1
  As  As3  1  0.75000000  0.76249500  0.12471200  1
  Rh  Rh0  1  0.25000000  0.46552200  0.17046100  1
  Rh  Rh1  1  0.25000000  0.96552200  0.32953900  1
  Rh  Rh2  1  0.75000000  0.03447800  0.67046100  1
  Rh  Rh3  1  0.75000000  0.53447800  0.82953900  1
loop_
_geom_bond_atom_site_label_1
_geom_bond_atom_site_label_2
_geom_bond_distance
_geom_bond_site_symmetry_2
Co0 Rh0 2.806932 1_655
Co0 Rh0 2.806932 1_555
Co0 Rh2 2.826680 1_554
Co0 Rh3 2.848628 1_554
Co0 Rh1 2.871795 1_645
Co0 Rh1 2.871795 1_545
Co1 Rh3 2.806932 1_455
Co1 Rh3 2.806932 1_555
Co1 Rh1 2.826680 1_556
Co1 Rh0 2.848628 1_556
Co1 Rh2 2.871795 1_465
Co1 Rh2 2.871795 1_565
Co2 Rh1 2.806932 1_655
Co2 Rh1 2.806932 1_555
Co2 Rh3 2.826680 1_555
Co2 Rh2 2.848628 1_565
Co2 Rh0 2.871795 1_555
Co2 Rh0 2.871795 1_655
Co3 Rh2 2.806932 1_455
Co3 Rh2 2.806932 1_555
Co3 Rh0 2.826680 1_555
Co3 Rh1 2.848628 1_545
Co3 Rh3 2.871795 1_555
Co3 Rh3 2.871795 1_455
As0 Co0 2.309457 1_555
As0 Co2 2.309892 1_555
As0 Co3 2.377281 1_555
As0 Co3 2.377281 1_655
As0 Rh2 2.478243 1_555
As0 Rh1 2.616295 1_645
As0 Rh1 2.616295 1_545
As0 Rh0 2.672352 1_655
As0 Rh0 2.672352 1_555
As1 Co3 2.309457 1_555
As1 Co1 2.309892 1_545
As1 Co0 2.377281 1_456
As1 Co0 2.377281 1_556
As1 Rh0 2.478243 1_556
As1 Rh3 2.616295 1_555
As1 Rh3 2.616295 1_455
As1 Rh2 2.672352 1_455
As1 Rh2 2.672352 1_555
As2 Co1 2.309457 1_555
As2 Co3 2.309892 1_555
As2 Co2 2.377281 1_555
As2 Co2 2.377281 1_455
As2 Rh1 2.478243 1_555
As2 Rh2 2.616295 1_565
As2 Rh2 2.616295 1_465
As2 Rh3 2.672352 1_455
As2 Rh3 2.672352 1_555
As3 Co2 2.309457 1_555
As3 Co0 2.309892 1_565
As3 Co1 2.377281 1_654
As3 Co1 2.377281 1_554
As3 Rh3 2.478243 1_554
As3 Rh0 2.616295 1_655
As3 Rh0 2.616295 1_555
As3 Rh1 2.672352 1_655
As3 Rh1 2.672352 1_555
