# generated using pymatgen
data_MgCo6(O2F)4
_symmetry_space_group_name_H-M   'P 1'
_cell_length_a   7.01511151
_cell_length_b   5.89092523
_cell_length_c   5.74919866
_cell_angle_alpha   64.75985038
_cell_angle_beta   73.85098186
_cell_angle_gamma   74.73125236
_symmetry_Int_Tables_number   1
_chemical_formula_structural   MgCo6(O2F)4
_chemical_formula_sum   'Mg1 Co6 O8 F4'
_cell_volume   203.54092732
_cell_formula_units_Z   1
loop_
 _symmetry_equiv_pos_site_id
 _symmetry_equiv_pos_as_xyz
  1  'x, y, z'
loop_
 _atom_site_type_symbol
 _atom_site_label
 _atom_site_symmetry_multiplicity
 _atom_site_fract_x
 _atom_site_fract_y
 _atom_site_fract_z
 _atom_site_occupancy
  Mg  Mg0  1  0.16240202  0.57618359  0.09710296  1
  Co  Co0  1  0.82043359  0.69035908  0.66378228  1
  Co  Co1  1  0.34012227  0.60092761  0.55992396  1
  Co  Co2  1  0.66618531  0.34700187  0.31822121  1
  Co  Co3  1  0.17002946  0.13607458  0.52558350  1
  Co  Co4  1  0.51050949  0.02101562  0.96606309  1
  Co  Co5  1  0.99418698  0.09638010  0.07481473  1
  O  O0  1  0.33881109  0.37134396  0.88377036  1
  O  O1  1  0.66171490  0.05941178  0.63038604  1
  O  O2  1  0.97003901  0.29743259  0.26921263  1
  O  O3  1  0.36276566  0.39964819  0.36436882  1
  O  O4  1  0.33272516  0.93992110  0.33052075  1
  O  O5  1  0.67501007  0.63685439  0.00116694  1
  O  O6  1  0.00425682  0.31364952  0.73534374  1
  O  O7  1  0.99042682  0.77366547  0.32258773  1
  F  F0  1  0.64005010  0.57892015  0.51608730  1
  F  F1  1  0.29699403  0.90245513  0.87889929  1
  F  F2  1  0.03654654  0.79389887  0.76826628  1
  F  F3  1  0.69345766  0.12735641  0.10639839  1
loop_
_geom_bond_atom_site_label_1
_geom_bond_atom_site_label_2
_geom_bond_distance
_geom_bond_site_symmetry_2
Mg0 O0 2.030570 1_554
Mg0 O7 2.041164 1_455
Mg0 O3 2.118235 1_555
Mg0 O2 2.129608 1_455
Co0 O5 1.857333 1_556
Co0 O7 1.922707 1_555
Co0 F0 2.064918 1_555
Co0 F2 2.082644 1_655
Co0 O1 2.119225 1_565
Co0 O6 2.183147 1_655
Co1 O0 1.773494 1_555
Co1 O4 1.862102 1_555
Co1 O3 1.906184 1_555
Co1 F0 2.023975 1_555
Co1 F2 2.393628 1_555
Co2 O1 1.869699 1_555
Co2 O5 1.892233 1_555
Co2 O3 2.026211 1_555
Co2 O2 2.028911 1_555
Co2 F0 2.066811 1_555
Co2 F3 2.068268 1_555
Co3 O6 1.885732 1_555
Co3 O4 1.895800 1_545
Co3 O3 2.068643 1_555
Co3 O2 2.073005 1_455
Co3 F2 2.180726 1_545
Co3 F1 2.188638 1_545
Co4 O1 1.875120 1_555
Co4 O0 2.027013 1_555
Co4 F3 2.030025 1_556
Co4 O4 2.044643 1_546
Co4 F1 2.061421 1_545
Co4 O5 2.204187 1_546
Co5 O6 1.814615 1_654
Co5 O7 1.827566 1_545
Co5 O2 1.896963 1_555
Co5 F3 2.032067 1_555
Co5 F1 2.361009 1_644
F1 Mg0 2.097636 1_556
F2 Mg0 2.064662 1_556
