# generated using pymatgen
data_Na14Ca5Sn3(PO4)12
_symmetry_space_group_name_H-M   'P 1'
_cell_length_a   18.57417562
_cell_length_b   9.29603930
_cell_length_c   22.63478138
_cell_angle_alpha   89.99188641
_cell_angle_beta   90.00347234
_cell_angle_gamma   119.82343574
_symmetry_Int_Tables_number   1
_chemical_formula_structural   Na14Ca5Sn3(PO4)12
_chemical_formula_sum   'Na42 Ca15 Sn9 P36 O144'
_cell_volume   3390.66100314
_cell_formula_units_Z   3
loop_
 _symmetry_equiv_pos_site_id
 _symmetry_equiv_pos_as_xyz
  1  'x, y, z'
loop_
 _atom_site_type_symbol
 _atom_site_label
 _atom_site_symmetry_multiplicity
 _atom_site_fract_x
 _atom_site_fract_y
 _atom_site_fract_z
 _atom_site_occupancy
  Na  Na0  1  0.18532846  0.35827834  0.24589903  1
  Na  Na1  1  0.68665264  0.36139297  0.24643853  1
  Na  Na2  1  0.99392132  0.63546153  0.24714455  1
  Na  Na3  1  0.49411380  0.63413322  0.24570690  1
  Na  Na4  1  0.31939468  0.62784212  0.74602224  1
  Na  Na5  1  0.82030572  0.62697059  0.74642001  1
  Na  Na6  1  0.18224320  0.01188335  0.74640589  1
  Na  Na7  1  0.68176446  0.01246764  0.74553605  1
  Na  Na8  1  0.15892313  0.34086348  0.57933256  1
  Na  Na9  1  0.65907754  0.34130089  0.57939284  1
  Na  Na10  1  0.01152391  0.68212398  0.57966416  1
  Na  Na11  1  0.51149068  0.68178801  0.57971228  1
  Na  Na12  1  0.32867619  0.97413868  0.57829939  1
  Na  Na13  1  0.82880210  0.97387362  0.57891464  1
  Na  Na14  1  0.15439161  0.97139837  0.07903552  1
  Na  Na15  1  0.65735053  0.96862532  0.08090336  1
  Na  Na16  1  0.32951072  0.68022080  0.08010156  1
  Na  Na17  1  0.01460858  0.34669730  0.08024705  1
  Na  Na18  1  0.51473141  0.34539260  0.07744470  1
  Na  Na19  1  0.48258065  0.67034575  0.91636654  1
  Na  Na20  1  0.99047490  0.67846177  0.91341613  1
  Na  Na21  1  0.35337411  0.03816499  0.91653876  1
  Na  Na22  1  0.16483259  0.28951812  0.91640205  1
  Na  Na23  1  0.66257129  0.29688539  0.91324512  1
  Na  Na24  1  0.48131696  0.29371608  0.41745082  1
  Na  Na25  1  0.98135000  0.29361159  0.41697429  1
  Na  Na26  1  0.16496235  0.03690551  0.41632317  1
  Na  Na27  1  0.66519027  0.03708098  0.41655700  1
  Na  Na28  1  0.35325329  0.66732672  0.41651076  1
  Na  Na29  1  0.85354732  0.66782404  0.41602307  1
  Na  Na30  1  0.99947641  0.00048192  0.49714700  1
  Na  Na31  1  0.49958846  0.00069701  0.49732890  1
  Na  Na32  1  0.98161982  0.98417673  0.99712155  1
  Na  Na33  1  0.49970001  0.00065926  0.99816730  1
  Na  Na34  1  0.34206113  0.33349691  0.83266873  1
  Na  Na35  1  0.84341412  0.31845762  0.83060046  1
  Na  Na36  1  0.33288021  0.31609678  0.33310422  1
  Na  Na37  1  0.83369218  0.31642252  0.33343858  1
  Na  Na38  1  0.17446933  0.68063143  0.16567369  1
  Na  Na39  1  0.68282931  0.68464437  0.16223027  1
  Na  Na40  1  0.15946617  0.65362813  0.66440626  1
  Na  Na41  1  0.65893776  0.65180759  0.66498330  1
  Ca  Ca0  1  0.99789431  0.00135386  0.34689699  1
  Ca  Ca1  1  0.49766421  0.00059009  0.34730073  1
  Ca  Ca2  1  0.99532565  0.00319071  0.85160963  1
  Ca  Ca3  1  0.50020628  0.00485809  0.84802777  1
  Ca  Ca4  1  0.33704725  0.33253814  0.68358313  1
  Ca  Ca5  1  0.83716693  0.33341260  0.68282816  1
  Ca  Ca6  1  0.33341923  0.32547026  0.18296178  1
  Ca  Ca7  1  0.83389338  0.33100554  0.18487251  1
  Ca  Ca8  1  0.33292319  0.33227801  0.98677398  1
  Ca  Ca9  1  0.33375274  0.33352809  0.48678263  1
  Ca  Ca10  1  0.83386136  0.33366528  0.48675054  1
  Ca  Ca11  1  0.16709549  0.66687888  0.01712555  1
  Ca  Ca12  1  0.67158389  0.66805726  0.01778006  1
  Ca  Ca13  1  0.16713293  0.66751665  0.51667427  1
  Ca  Ca14  1  0.66724918  0.66766591  0.51672381  1
  Sn  Sn0  1  0.99919537  0.00335407  0.65659556  1
  Sn  Sn1  1  0.50010447  0.00417795  0.65704880  1
  Sn  Sn2  1  0.99355934  0.99430649  0.15238227  1
  Sn  Sn3  1  0.50024076  0.00103684  0.15504806  1
  Sn  Sn4  1  0.83349248  0.33166748  0.98459503  1
  Sn  Sn5  1  0.16866695  0.67075542  0.31441253  1
  Sn  Sn6  1  0.66896683  0.67150343  0.31472866  1
  Sn  Sn7  1  0.16128683  0.65923276  0.81611569  1
  Sn  Sn8  1  0.66982410  0.66887938  0.81770352  1
  P  P0  1  0.14547704  0.98627887  0.25064045  1
  P  P1  1  0.64751212  0.98829513  0.25258756  1
  P  P2  1  0.34542042  0.70139961  0.25108710  1
  P  P3  1  0.84568588  0.70416833  0.25210022  1
  P  P4  1  0.00754575  0.31297936  0.25193962  1
  P  P5  1  0.50851716  0.31421977  0.25169156  1
  P  P6  1  0.14773747  0.30707444  0.75303131  1
  P  P7  1  0.65026701  0.31179580  0.75201464  1
  P  P8  1  0.00548691  0.70697693  0.75315174  1
  P  P9  1  0.50714191  0.70619415  0.75371180  1
  P  P10  1  0.34211978  0.98299630  0.75348094  1
  P  P11  1  0.84360825  0.98509599  0.75107292  1
  P  P12  1  0.48682915  0.32065062  0.58410186  1
  P  P13  1  0.98703396  0.32093918  0.58403954  1
  P  P14  1  0.17296961  0.02703756  0.58817781  1
  P  P15  1  0.67294585  0.02689169  0.58802473  1
  P  P16  1  0.33994543  0.65316367  0.58853546  1
  P  P17  1  0.83993923  0.65310543  0.58824530  1
  P  P18  1  0.48641645  0.65168164  0.08768439  1
  P  P19  1  0.97979234  0.64315493  0.08448872  1
  P  P20  1  0.34050398  0.02720373  0.08399400  1
  P  P21  1  0.83949895  0.04434829  0.08401773  1
  P  P22  1  0.17260014  0.31764109  0.08836087  1
  P  P23  1  0.67853316  0.31813937  0.08636321  1
  P  P24  1  0.31287781  0.65991507  0.91418684  1
  P  P25  1  0.81440509  0.64898418  0.91636012  1
  P  P26  1  0.01371660  0.37476170  0.92059370  1
  P  P27  1  0.51875281  0.37799912  0.91669524  1
  P  P28  1  0.16949643  0.96643599  0.91380757  1
  P  P29  1  0.67317661  0.97255114  0.91817662  1
  P  P30  1  0.31322856  0.96522356  0.41624291  1
  P  P31  1  0.81350257  0.96565099  0.41638282  1
  P  P32  1  0.16953189  0.37310118  0.41395542  1
  P  P33  1  0.66948483  0.37305165  0.41398569  1
  P  P34  1  0.01740416  0.66209889  0.41375180  1
  P  P35  1  0.51736390  0.66171348  0.41371352  1
  O  O0  1  0.10652771  0.00289109  0.30713588  1
  O  O1  1  0.60704406  0.00352194  0.30837535  1
  O  O2  1  0.39422042  0.77743594  0.30698807  1
  O  O3  1  0.89269779  0.77556770  0.30895168  1
  O  O4  1  0.49994718  0.21989194  0.30789839  1
  O  O5  1  0.99974935  0.22156145  0.30878877  1
  O  O6  1  0.10892781  0.20694998  0.80817213  1
  O  O7  1  0.61148743  0.21188049  0.80742229  1
  O  O8  1  0.49759544  0.78453082  0.80964842  1
  O  O9  1  0.99903293  0.78991035  0.80853273  1
  O  O10  1  0.38933673  0.00028923  0.80976329  1
  O  O11  1  0.89480542  0.00267798  0.80410190  1
  O  O12  1  0.38927249  0.96165111  0.69792953  1
  O  O13  1  0.88531501  0.96081340  0.69296295  1
  O  O14  1  0.09359749  0.21932370  0.69596809  1
  O  O15  1  0.59493166  0.22207119  0.69554772  1
  O  O16  1  0.01958266  0.82376261  0.69716970  1
  O  O17  1  0.52137065  0.82545679  0.69825711  1
  O  O18  1  0.39092504  0.81211745  0.19484969  1
  O  O19  1  0.89142652  0.81949839  0.19719767  1
  O  O20  1  0.01672031  0.21746775  0.19643520  1
  O  O21  1  0.52012852  0.22168352  0.19561231  1
  O  O22  1  0.08503649  0.95536096  0.19549611  1
  O  O23  1  0.58802962  0.95893190  0.19691680  1
  O  O24  1  0.44107040  0.34890259  0.63405324  1
  O  O25  1  0.94148601  0.34905848  0.63418567  1
  O  O26  1  0.22617835  0.11108768  0.64247785  1
  O  O27  1  0.72610999  0.11118261  0.64227953  1
  O  O28  1  0.32835355  0.54590538  0.64273250  1
  O  O29  1  0.82856413  0.54662517  0.64261131  1
  O  O30  1  0.44382974  0.54690903  0.14205918  1
  O  O31  1  0.94112733  0.54128009  0.13955314  1
  O  O32  1  0.32682849  0.11829986  0.13408806  1
  O  O33  1  0.82799714  0.12576494  0.13765757  1
  O  O34  1  0.22582740  0.34083235  0.14270050  1
  O  O35  1  0.72635171  0.33593308  0.14237068  1
  O  O36  1  0.20995347  0.28808599  0.03165211  1
  O  O37  1  0.72296285  0.29173768  0.02969416  1
  O  O38  1  0.43420496  0.57761334  0.03095079  1
  O  O39  1  0.92637029  0.55372222  0.02693494  1
  O  O40  1  0.35580269  0.12116610  0.02474700  1
  O  O41  1  0.85804830  0.16305682  0.02778040  1
  O  O42  1  0.21066146  0.13119779  0.53146726  1
  O  O43  1  0.71048768  0.13092751  0.53129598  1
  O  O44  1  0.35541740  0.57959149  0.53168773  1
  O  O45  1  0.85504914  0.57861637  0.53152439  1
  O  O46  1  0.43902596  0.28801244  0.52505082  1
  O  O47  1  0.93904759  0.28846698  0.52510553  1
  O  O48  1  0.27238307  0.67415146  0.97074065  1
  O  O49  1  0.77036719  0.66643172  0.96876810  1
  O  O50  1  0.05950938  0.45001639  0.97779003  1
  O  O51  1  0.56361343  0.45356492  0.97446332  1
  O  O52  1  0.16136933  0.86797803  0.96978263  1
  O  O53  1  0.66175958  0.87147108  0.97327639  1
  O  O54  1  0.27557245  0.87525443  0.47417736  1
  O  O55  1  0.77562115  0.87531040  0.47420588  1
  O  O56  1  0.16292884  0.45590443  0.47016154  1
  O  O57  1  0.66284445  0.45602410  0.47011458  1
  O  O58  1  0.06580886  0.67638048  0.46989784  1
  O  O59  1  0.56584849  0.67633738  0.46985441  1
  O  O60  1  0.06446781  0.64773341  0.35672843  1
  O  O61  1  0.56451507  0.64747636  0.35676100  1
  O  O62  1  0.25534670  0.86607103  0.36214122  1
  O  O63  1  0.75557537  0.86680565  0.36224272  1
  O  O64  1  0.17670150  0.48182443  0.35725191  1
  O  O65  1  0.67660718  0.48153004  0.35715876  1
  O  O66  1  0.05785258  0.49654181  0.86613970  1
  O  O67  1  0.56956603  0.49645154  0.86291782  1
  O  O68  1  0.17631731  0.87085581  0.85705613  1
  O  O69  1  0.68404501  0.88716943  0.86022456  1
  O  O70  1  0.25639207  0.64358482  0.85830505  1
  O  O71  1  0.76235000  0.62510033  0.85706390  1
  O  O72  1  0.00764946  0.81767327  0.41099187  1
  O  O73  1  0.50731975  0.81695517  0.41097404  1
  O  O74  1  0.40017656  0.98265788  0.41169854  1
  O  O75  1  0.90043643  0.98320463  0.41180086  1
  O  O76  1  0.09174577  0.19862799  0.41112909  1
  O  O77  1  0.59154487  0.19872705  0.41121598  1
  O  O78  1  0.00646196  0.20577893  0.91275519  1
  O  O79  1  0.51027072  0.20452520  0.91131765  1
  O  O80  1  0.09257770  0.98794369  0.91052212  1
  O  O81  1  0.59726254  0.99789091  0.91226707  1
  O  O82  1  0.40009582  0.81570703  0.91066986  1
  O  O83  1  0.90430422  0.78844700  0.91229711  1
  O  O84  1  0.49060160  0.15477222  0.59346866  1
  O  O85  1  0.99112293  0.15541872  0.59310798  1
  O  O86  1  0.08513351  0.01678334  0.59346143  1
  O  O87  1  0.58499853  0.01649094  0.59335718  1
  O  O88  1  0.42217846  0.82876230  0.59451297  1
  O  O89  1  0.92245577  0.82831263  0.59368001  1
  O  O90  1  0.49134109  0.82754102  0.09261559  1
  O  O91  1  0.98739798  0.82063035  0.08718745  1
  O  O92  1  0.42488190  0.02226524  0.09238857  1
  O  O93  1  0.92305352  0.03762407  0.08794025  1
  O  O94  1  0.08468992  0.15144669  0.09347100  1
  O  O95  1  0.59232717  0.14734182  0.08798199  1
  O  O96  1  0.32392212  0.12500457  0.74646136  1
  O  O97  1  0.82319627  0.12460243  0.74573008  1
  O  O98  1  0.23592692  0.33394912  0.74568104  1
  O  O99  1  0.73743411  0.33366863  0.74498126  1
  O  O100  1  0.43071799  0.53673197  0.74520697  1
  O  O101  1  0.92863966  0.53694930  0.74612738  1
  O  O102  1  0.33295911  0.52594288  0.24441517  1
  O  O103  1  0.83412565  0.52997799  0.24432869  1
  O  O104  1  0.43764988  0.35077885  0.24496149  1
  O  O105  1  0.93775268  0.35355622  0.24613713  1
  O  O106  1  0.23022198  0.13958139  0.24309810  1
  O  O107  1  0.73186861  0.14239386  0.24539600  1
  O  O108  1  0.31918724  0.50017220  0.91240231  1
  O  O109  1  0.81466153  0.47652580  0.92000211  1
  O  O110  1  0.43273628  0.36557523  0.91310089  1
  O  O111  1  0.92659339  0.36938082  0.92110902  1
  O  O112  1  0.25038465  0.13653868  0.91223819  1
  O  O113  1  0.75341758  0.15106728  0.92113629  1
  O  O114  1  0.31916714  0.13719447  0.41366275  1
  O  O115  1  0.81931716  0.13751565  0.41381648  1
  O  O116  1  0.24972078  0.36082153  0.41248035  1
  O  O117  1  0.74959229  0.36059486  0.41249443  1
  O  O118  1  0.43168023  0.50116797  0.41223213  1
  O  O119  1  0.93165252  0.50170924  0.41228999  1
  O  O120  1  0.15834381  0.46764735  0.08451267  1
  O  O121  1  0.65861496  0.45797707  0.07947293  1
  O  O122  1  0.06888114  0.67225873  0.07851629  1
  O  O123  1  0.57553819  0.67938681  0.08409635  1
  O  O124  1  0.26733383  0.84644000  0.08313741  1
  O  O125  1  0.76397635  0.87349928  0.07653008  1
  O  O126  1  0.15795457  0.84802473  0.58441914  1
  O  O127  1  0.65785719  0.84785632  0.58440437  1
  O  O128  1  0.26512494  0.68216397  0.58453045  1
  O  O129  1  0.76509097  0.68199514  0.58437647  1
  O  O130  1  0.07707544  0.46771059  0.58256446  1
  O  O131  1  0.57689127  0.46733696  0.58258595  1
  O  O132  1  0.14930952  0.81901077  0.25098220  1
  O  O133  1  0.65063551  0.82092703  0.25188019  1
  O  O134  1  0.25670944  0.68609441  0.25156561  1
  O  O135  1  0.75666940  0.68693780  0.25185685  1
  O  O136  1  0.09367938  0.48452493  0.25044373  1
  O  O137  1  0.59388042  0.48586559  0.25084443  1
  O  O138  1  0.15464625  0.48407889  0.75436171  1
  O  O139  1  0.65862952  0.48925213  0.75336253  1
  O  O140  1  0.08911195  0.69902236  0.75239331  1
  O  O141  1  0.59203057  0.70375673  0.75468485  1
  O  O142  1  0.25623218  0.81221610  0.75224369  1
  O  O143  1  0.75762995  0.81295807  0.75290954  1
loop_
_geom_bond_atom_site_label_1
_geom_bond_atom_site_label_2
_geom_bond_distance
_geom_bond_site_symmetry_2
Na0 O102 2.387162 1_555
Na0 O34 2.483977 1_555
Na0 O136 2.504585 1_555
Na0 O106 2.553181 1_555
Na0 O134 2.653717 1_555
Na0 O64 2.807362 1_555
Na0 O20 2.949123 1_555
Na1 O103 2.385711 1_555
Na1 O137 2.510263 1_555
Na1 O35 2.514424 1_555
Na1 O107 2.559522 1_555
Na1 O135 2.636310 1_555
Na1 O65 2.787624 1_555
Na1 O21 2.929432 1_555
Na2 O105 2.288473 1_555
Na2 O132 2.520074 1_655
Na2 O31 2.608679 1_555
Na2 O103 2.623007 1_555
Na2 O60 2.780905 1_655
Na2 O136 2.827287 1_655
Na2 O22 2.840361 1_655
Na3 O104 2.300169 1_555
Na3 O30 2.506136 1_555
Na3 O133 2.542759 1_555
Na3 O102 2.641569 1_555
Na3 O61 2.807542 1_555
Na3 O137 2.808477 1_555
Na3 O23 2.852971 1_555
Na4 O98 2.377962 1_555
Na4 O28 2.490069 1_555
Na4 O142 2.516736 1_555
Na4 O100 2.595223 1_555
Na4 O138 2.667951 1_555
Na4 O70 2.832110 1_555
Na4 O12 2.914098 1_555
Na5 O99 2.372766 1_555
Na5 O29 2.493373 1_555
Na5 O143 2.523524 1_555
Na5 O101 2.534613 1_555
Na5 O139 2.618722 1_555
Na5 O71 2.722651 1_555
Na5 O13 2.970704 1_555
Na6 O96 2.297489 1_555
Na6 O26 2.510222 1_555
Na6 O140 2.542656 1_545
Na6 O98 2.643631 1_555
Na6 O68 2.803417 1_545
Na6 O142 2.808628 1_545
Na6 O16 2.858881 1_545
Na7 O97 2.294319 1_555
Na7 O27 2.496158 1_555
Na7 O141 2.509746 1_545
Na7 O99 2.629438 1_555
Na7 O17 2.809201 1_545
Na7 O143 2.837716 1_545
Na7 O69 2.854060 1_545
Na8 O130 2.343093 1_555
Na8 O86 2.636217 1_555
Na8 O56 2.678710 1_555
Na8 O85 2.727433 1_455
Na8 O128 2.783210 1_555
Na8 O42 2.785662 1_555
Na8 O14 2.890408 1_555
Na9 O131 2.342503 1_555
Na9 O87 2.641509 1_555
Na9 O57 2.680571 1_555
Na9 O84 2.739257 1_555
Na9 O129 2.778074 1_555
Na9 O43 2.789218 1_555
Na9 O15 2.871665 1_555
Na10 O126 2.369671 1_555
Na10 O89 2.630743 1_455
Na10 O58 2.691900 1_555
Na10 O86 2.722993 1_565
Na10 O45 2.789004 1_455
Na10 O130 2.805965 1_555
Na10 O16 2.938541 1_555
Na10 O25 2.965551 1_455
Na11 O127 2.368750 1_555
Na11 O88 2.643012 1_555
Na11 O59 2.693773 1_555
Na11 O87 2.723087 1_565
Na11 O44 2.783621 1_555
Na11 O131 2.804069 1_555
Na11 O24 2.961908 1_555
Na11 O17 2.962145 1_555
Na12 O128 2.365023 1_555
Na12 O54 2.543773 1_555
Na12 O84 2.638190 1_565
Na12 O88 2.703988 1_555
Na12 O126 2.784105 1_555
Na12 O46 2.866709 1_565
Na12 O12 2.956684 1_555
Na13 O129 2.363036 1_555
Na13 O55 2.555882 1_555
Na13 O85 2.642053 1_565
Na13 O89 2.703656 1_555
Na13 O127 2.787419 1_555
Na13 O13 2.811910 1_555
Na13 O47 2.876091 1_565
Na14 O122 2.421279 1_555
Na14 O94 2.596115 1_565
Na14 O52 2.679747 1_554
Na14 O91 2.700981 1_455
Na14 O36 2.803463 1_565
Na14 O124 2.860517 1_555
Na14 O22 2.905135 1_555
Na15 O123 2.340904 1_555
Na15 O95 2.498067 1_565
Na15 O125 2.540892 1_555
Na15 O53 2.613665 1_554
Na15 O90 2.697371 1_555
Na15 O37 2.865126 1_565
Na15 O23 2.906282 1_555
Na16 O124 2.345437 1_555
Na16 O90 2.626111 1_555
Na16 O48 2.682666 1_554
Na16 O92 2.779080 1_565
Na16 O120 2.788143 1_555
Na16 O38 2.788283 1_555
Na16 O18 2.856558 1_555
Na17 O120 2.327103 1_555
Na17 O50 2.489796 1_554
Na17 O93 2.513420 1_455
Na17 O122 2.672536 1_555
Na17 O94 2.725491 1_555
Na17 O41 2.800595 1_455
Na17 O20 2.899485 1_555
Na18 O121 2.336177 1_555
Na18 O51 2.521980 1_554
Na18 O92 2.633627 1_555
Na18 O123 2.729536 1_555
Na18 O95 2.857087 1_555
Na18 O40 2.891662 1_555
Na18 O21 2.932633 1_555
Na19 O82 2.499808 1_555
Na19 O110 2.506086 1_555
Na19 O8 2.596968 1_555
Na19 O108 2.635492 1_555
Na19 O81 2.714023 1_555
Na19 O38 2.739782 1_556
Na20 O83 2.288110 1_555
Na20 O111 2.510485 1_555
Na20 O80 2.539846 1_655
Na20 O9 2.563222 1_555
Na20 O66 2.770748 1_655
Na20 O39 2.826795 1_556
Na20 O109 2.848287 1_555
Na21 O112 2.499016 1_555
Na21 O79 2.532894 1_555
Na21 O40 2.561679 1_556
Na21 O10 2.577915 1_555
Na21 O82 2.613889 1_545
Na21 O110 2.641961 1_555
Na22 O80 2.436379 1_545
Na22 O108 2.545258 1_555
Na22 O112 2.608478 1_555
Na22 O6 2.622246 1_555
Na22 O78 2.643515 1_555
Na22 O36 2.741987 1_556
Na23 O81 2.417395 1_545
Na23 O109 2.469851 1_555
Na23 O79 2.515087 1_555
Na23 O7 2.552756 1_555
Na23 O113 2.644175 1_555
Na23 O37 2.874193 1_556
Na23 O71 2.955642 1_555
Na24 O74 2.512992 1_545
Na24 O118 2.520201 1_555
Na24 O46 2.551528 1_555
Na24 O77 2.605718 1_555
Na24 O114 2.614681 1_555
Na24 O4 2.641287 1_555
Na25 O75 2.507068 1_545
Na25 O119 2.526194 1_555
Na25 O47 2.563762 1_555
Na25 O5 2.605772 1_555
Na25 O76 2.608193 1_655
Na25 O115 2.612416 1_555
Na26 O76 2.481312 1_555
Na26 O114 2.533884 1_555
Na26 O72 2.604366 1_545
Na26 O116 2.614912 1_555
Na26 O0 2.654152 1_555
Na26 O42 2.746225 1_555
Na27 O77 2.487616 1_555
Na27 O115 2.532294 1_555
Na27 O117 2.611706 1_555
Na27 O73 2.614090 1_545
Na27 O1 2.631445 1_555
Na27 O43 2.735718 1_555
Na28 O73 2.486034 1_555
Na28 O116 2.524847 1_555
Na28 O118 2.599106 1_555
Na28 O74 2.612072 1_555
Na28 O2 2.645199 1_555
Na28 O44 2.737750 1_555
Na29 O72 2.486037 1_655
Na29 O117 2.531083 1_555
Na29 O3 2.584684 1_555
Na29 O119 2.593203 1_555
Na29 O75 2.612133 1_555
Na29 O45 2.746940 1_555
Na30 O75 2.616767 1_545
Na30 O72 2.640354 1_645
Na30 O76 2.642025 1_655
Na30 O85 2.653219 1_555
Na30 O86 2.658342 1_655
Na30 O89 2.665405 1_545
Na31 O74 2.624127 1_545
Na31 O77 2.641456 1_555
Na31 O73 2.646438 1_545
Na31 O87 2.651553 1_555
Na31 O84 2.655837 1_555
Na31 O88 2.678502 1_545
Na32 O93 2.488797 1_566
Na32 O83 2.541835 1_555
Na32 O91 2.576879 1_556
Na32 O78 2.675212 1_665
Na32 O94 2.806876 1_666
Na32 O80 2.831900 1_655
Na33 O95 2.572758 1_556
Na33 O92 2.607295 1_556
Na33 O90 2.633400 1_546
Na33 O81 2.666793 1_545
Na33 O79 2.668983 1_555
Na33 O82 2.671664 1_545
Na34 O110 2.395870 1_555
Na34 O112 2.528632 1_555
Na34 O108 2.548333 1_555
Na34 O96 2.651216 1_555
Na34 O100 2.665529 1_555
Na34 O98 2.787613 1_555
Na35 O111 2.465854 1_555
Na35 O97 2.531133 1_555
Na35 O113 2.612922 1_555
Na35 O101 2.662393 1_555
Na35 O109 2.705699 1_555
Na35 O99 2.815495 1_555
Na36 O114 2.394464 1_555
Na36 O118 2.528941 1_555
Na36 O116 2.534957 1_555
Na36 O104 2.692123 1_555
Na36 O106 2.714259 1_555
Na36 O102 2.798448 1_555
Na37 O115 2.388467 1_555
Na37 O119 2.519152 1_555
Na37 O117 2.539543 1_555
Na37 O105 2.663911 1_555
Na37 O107 2.668828 1_555
Na37 O103 2.827075 1_555
Na38 O134 2.457269 1_555
Na38 O124 2.489229 1_555
Na38 O132 2.490070 1_555
Na38 O136 2.556394 1_555
Na38 O120 2.606848 1_555
Na38 O122 2.755368 1_555
Na39 O135 2.442876 1_555
Na39 O125 2.546403 1_555
Na39 O133 2.614317 1_555
Na39 O123 2.646561 1_555
Na39 O137 2.670203 1_555
Na39 O121 2.685038 1_555
Na40 O130 2.475967 1_555
Na40 O140 2.530042 1_555
Na40 O138 2.548877 1_555
Na40 O126 2.567855 1_555
Na40 O128 2.583236 1_555
Na40 O142 2.592593 1_555
Na41 O131 2.478446 1_555
Na41 O139 2.505163 1_555
Na41 O141 2.549035 1_555
Na41 O127 2.585309 1_555
Na41 O129 2.597150 1_555
Na41 O143 2.614257 1_555
Ca0 O0 2.202982 1_655
Ca0 O5 2.205677 1_555
Ca0 O3 2.209541 1_545
Ca0 O75 2.271557 1_545
Ca0 O76 2.310051 1_655
Ca0 O72 2.315198 1_645
Ca1 O1 2.202208 1_555
Ca1 O2 2.205325 1_545
Ca1 O4 2.206076 1_555
Ca1 O74 2.265240 1_545
Ca1 O73 2.308076 1_545
Ca1 O77 2.309114 1_555
Ca2 O11 2.152498 1_555
Ca2 O9 2.241147 1_545
Ca2 O6 2.243026 1_655
Ca2 O78 2.262348 1_655
Ca2 O80 2.305547 1_645
Ca2 O83 2.317936 1_545
Ca3 O8 2.203115 1_545
Ca3 O7 2.205413 1_555
Ca3 O10 2.214837 1_555
Ca3 O79 2.277697 1_555
Ca3 O82 2.303763 1_545
Ca3 O81 2.341815 1_545
Ca4 O24 2.172796 1_555
Ca4 O26 2.264490 1_555
Ca4 O28 2.265665 1_555
Ca4 O100 2.300291 1_555
Ca4 O96 2.310508 1_555
Ca4 O98 2.351249 1_555
Ca5 O25 2.169731 1_555
Ca5 O29 2.257680 1_555
Ca5 O27 2.264264 1_555
Ca5 O101 2.307041 1_555
Ca5 O97 2.315299 1_555
Ca5 O99 2.327111 1_555
Ca6 O32 2.171130 1_555
Ca6 O30 2.258538 1_555
Ca6 O34 2.264553 1_555
Ca6 O106 2.284309 1_555
Ca6 O104 2.306415 1_555
Ca6 O102 2.329055 1_555
Ca7 O33 2.141732 1_555
Ca7 O31 2.228785 1_555
Ca7 O35 2.237933 1_555
Ca7 O103 2.285854 1_555
Ca7 O107 2.288408 1_555
Ca7 O105 2.299100 1_555
Ca8 O38 2.339477 1_556
Ca8 O36 2.341884 1_556
Ca8 O40 2.366391 1_556
Ca8 O108 2.393764 1_555
Ca8 O112 2.394465 1_555
Ca8 O110 2.396491 1_555
Ca9 O42 2.347415 1_555
Ca9 O44 2.347842 1_555
Ca9 O46 2.361223 1_555
Ca9 O114 2.377533 1_555
Ca9 O116 2.392177 1_555
Ca9 O118 2.400972 1_555
Ca10 O45 2.340146 1_555
Ca10 O43 2.350282 1_555
Ca10 O47 2.358721 1_555
Ca10 O115 2.373595 1_555
Ca10 O117 2.393095 1_555
Ca10 O119 2.399470 1_555
Ca11 O48 2.190912 1_554
Ca11 O50 2.200771 1_554
Ca11 O52 2.202628 1_554
Ca11 O122 2.313516 1_555
Ca11 O124 2.322587 1_555
Ca11 O120 2.341551 1_555
Ca12 O49 2.150658 1_554
Ca12 O53 2.228526 1_554
Ca12 O51 2.232011 1_554
Ca12 O125 2.258594 1_555
Ca12 O121 2.313697 1_555
Ca12 O123 2.373617 1_555
Ca13 O58 2.196301 1_555
Ca13 O56 2.198178 1_555
Ca13 O54 2.200523 1_555
Ca13 O130 2.319802 1_555
Ca13 O128 2.333155 1_555
Ca13 O126 2.341232 1_555
Ca14 O59 2.197734 1_555
Ca14 O57 2.197943 1_555
Ca14 O55 2.199764 1_555
Ca14 O131 2.323348 1_555
Ca14 O129 2.329004 1_555
Ca14 O127 2.339761 1_555
O0 P0 1.514514 1_545
O1 P1 1.511803 1_545
O2 P2 1.511642 1_555
O3 P3 1.510816 1_555
O4 P5 1.507876 1_555
O5 P4 1.508725 1_655
O6 P6 1.508683 1_555
O7 P7 1.512854 1_555
O8 P9 1.514435 1_555
O9 P8 1.507418 1_655
O10 P10 1.509175 1_545
O11 P11 1.488977 1_545
O12 P10 1.600169 1_555
O12 Sn1 2.107378 1_565
O13 P11 1.598511 1_555
O13 Sn0 2.115728 1_565
O14 P6 1.590329 1_555
O14 Sn0 2.097209 1_455
O15 P7 1.591575 1_555
O15 Sn1 2.101478 1_555
O16 P8 1.603043 1_555
O16 Sn0 2.098182 1_465
O17 P9 1.607091 1_555
O17 Sn1 2.106785 1_565
O18 P2 1.590133 1_555
O18 Sn3 2.114601 1_565
O19 P3 1.584081 1_555
O19 Sn2 2.049860 1_555
O20 P4 1.595799 1_555
O20 Sn2 2.143782 1_445
O21 P5 1.607046 1_555
O21 Sn3 2.105589 1_555
O22 P0 1.606195 1_555
O22 Sn2 2.140547 1_455
O23 P1 1.607165 1_555
O23 Sn3 2.084400 1_565
O24 P12 1.513912 1_555
O25 P13 1.514123 1_555
O26 P14 1.526401 1_555
O27 P15 1.525679 1_555
O28 P16 1.526945 1_555
O29 P17 1.526560 1_555
O30 P18 1.523996 1_555
O31 P19 1.513062 1_555
O32 P20 1.510486 1_555
O33 P21 1.501229 1_555
O34 P22 1.524681 1_555
O35 P23 1.509020 1_555
O36 P22 1.547342 1_555
O37 P23 1.608801 1_555
O37 Sn4 2.153322 1_554
O38 P18 1.549048 1_555
O39 P19 1.597643 1_555
O39 Sn4 2.147994 1_554
O40 P20 1.547559 1_555
O41 P21 1.605698 1_555
O41 Sn4 2.081080 1_554
O42 P14 1.549482 1_555
O43 P15 1.548969 1_555
O44 P16 1.549783 1_555
O45 P17 1.549247 1_555
O46 P12 1.548859 1_555
O47 P13 1.548338 1_555
O48 P24 1.523496 1_555
O49 P25 1.494885 1_555
O50 P26 1.515647 1_555
O51 P27 1.521650 1_555
O52 P28 1.525785 1_555
O53 P29 1.511569 1_555
O54 P30 1.525203 1_555
O55 P31 1.524926 1_555
O56 P32 1.523243 1_555
O57 P33 1.522873 1_555
O58 P34 1.523882 1_555
O59 P35 1.523943 1_555
O60 P34 1.601325 1_555
O60 Sn5 2.072970 1_555
O61 P35 1.600565 1_555
O61 Sn6 2.070794 1_555
O62 P30 1.587303 1_555
O62 Sn5 2.036809 1_555
O63 P31 1.587608 1_555
O63 Sn6 2.033714 1_555
O64 P32 1.597597 1_555
O64 Sn5 2.075413 1_555
O65 P33 1.598702 1_555
O65 Sn6 2.076063 1_555
O66 P26 1.596702 1_555
O66 Sn7 2.090478 1_555
O67 P27 1.597187 1_555
O67 Sn8 2.028612 1_555
O68 P28 1.602470 1_555
O68 Sn7 2.064212 1_555
O69 P29 1.597207 1_555
O69 Sn8 2.140387 1_555
O70 P24 1.601621 1_555
O70 Sn7 2.075803 1_555
O71 P25 1.603727 1_555
O71 Sn8 2.146697 1_555
O72 P34 1.545609 1_555
O73 P35 1.545656 1_555
O74 P30 1.544249 1_555
O75 P31 1.543585 1_555
O76 P32 1.546399 1_555
O77 P33 1.546723 1_555
O78 P26 1.518817 1_555
O79 P27 1.545163 1_555
O80 P28 1.539740 1_555
O81 P29 1.546590 1_555
O82 P24 1.547423 1_555
O83 P25 1.524538 1_555
O84 P12 1.592181 1_555
O84 Sn1 2.075382 1_555
O85 P13 1.591100 1_555
O85 Sn0 2.072682 1_555
O86 P14 1.590742 1_555
O86 Sn0 2.099446 1_455
O87 P15 1.592269 1_555
O87 Sn1 2.097276 1_555
O88 P16 1.592477 1_555
O88 Sn1 2.100106 1_565
O89 P17 1.591870 1_555
O89 Sn0 2.097831 1_565
O90 P18 1.595210 1_555
O90 Sn3 2.088287 1_565
O91 P19 1.585495 1_555
O91 Sn2 2.148066 1_555
O92 P20 1.601878 1_555
O92 Sn3 2.069816 1_555
O93 P21 1.586454 1_555
O93 Sn2 2.128123 1_545
O94 P22 1.599138 1_555
O94 Sn2 2.077837 1_445
O95 P23 1.599186 1_555
O95 Sn3 2.183026 1_555
O96 P10 1.525108 1_545
O97 P11 1.526177 1_545
O98 P6 1.538268 1_555
O99 P7 1.536428 1_555
O100 P9 1.519714 1_555
O101 P8 1.522148 1_655
O102 P2 1.536644 1_555
O103 P3 1.534065 1_555
O104 P5 1.521932 1_555
O105 P4 1.525252 1_655
O106 P0 1.518715 1_545
O107 P1 1.516914 1_545
O108 P24 1.547138 1_555
O109 P25 1.607657 1_555
O109 Sn4 2.130995 1_555
O110 P27 1.545642 1_555
O111 P26 1.593999 1_655
O111 Sn4 2.139014 1_555
O112 P28 1.547879 1_545
O113 P29 1.587336 1_545
O113 Sn4 2.147241 1_555
O114 P30 1.547848 1_545
O115 P31 1.547871 1_545
O116 P32 1.549744 1_555
O117 P33 1.549152 1_555
O118 P35 1.548824 1_555
O119 P34 1.548852 1_655
O120 P22 1.545794 1_555
O121 P23 1.526214 1_555
O122 P19 1.544147 1_455
O123 P18 1.545673 1_555
O124 P20 1.549063 1_565
O125 P21 1.517554 1_565
O126 P14 1.546833 1_565
O127 P15 1.546385 1_565
O128 P16 1.544303 1_555
O129 P17 1.543995 1_555
O130 P13 1.545985 1_455
O131 P12 1.545980 1_555
O132 P0 1.591550 1_555
O132 Sn5 2.140620 1_555
O133 P1 1.585595 1_555
O133 Sn6 2.130464 1_555
O134 P2 1.581836 1_555
O134 Sn5 2.118127 1_555
O135 P3 1.579880 1_555
O135 Sn6 2.113567 1_555
O136 P4 1.601900 1_555
O136 Sn5 2.153043 1_555
O137 P5 1.594970 1_555
O137 Sn6 2.149560 1_555
O138 P6 1.585824 1_555
O138 Sn7 2.102628 1_555
O139 P7 1.578456 1_555
O139 Sn8 2.146574 1_555
O140 P8 1.591429 1_555
O140 Sn7 2.123011 1_555
O141 P9 1.588279 1_555
O141 Sn8 2.166393 1_555
O142 P10 1.595943 1_555
O142 Sn7 2.174349 1_555
O143 P11 1.603391 1_555
O143 Sn8 2.105163 1_555
