# generated using pymatgen
data_MgV4O7F5
_symmetry_space_group_name_H-M   'P 1'
_cell_length_a   5.14911113
_cell_length_b   7.38223495
_cell_length_c   5.45729426
_cell_angle_alpha   93.67398288
_cell_angle_beta   88.27034477
_cell_angle_gamma   90.84040673
_symmetry_Int_Tables_number   1
_chemical_formula_structural   MgV4O7F5
_chemical_formula_sum   'Mg1 V4 O7 F5'
_cell_volume   206.90487235
_cell_formula_units_Z   1
loop_
 _symmetry_equiv_pos_site_id
 _symmetry_equiv_pos_as_xyz
  1  'x, y, z'
loop_
 _atom_site_type_symbol
 _atom_site_label
 _atom_site_symmetry_multiplicity
 _atom_site_fract_x
 _atom_site_fract_y
 _atom_site_fract_z
 _atom_site_occupancy
  Mg  Mg0  1  0.99899100  0.29840700  0.40325400  1
  V  V0  1  0.51344700  0.49947600  0.49249700  1
  V  V1  1  0.54801100  0.00304400  0.54616700  1
  V  V2  1  0.99028500  0.47766100  0.96747900  1
  V  V3  1  0.02620000  0.97146300  0.03284600  1
  O  O0  1  0.90826700  0.25586500  0.01758800  1
  O  O1  1  0.78448500  0.54020200  0.29828800  1
  O  O2  1  0.78352100  0.95275800  0.73999300  1
  O  O3  1  0.62441600  0.24601600  0.49974000  1
  O  O4  1  0.17771300  0.05470600  0.29585000  1
  O  O5  1  0.18855300  0.44412400  0.66837300  1
  O  O6  1  0.10421200  0.75245200  0.00562800  1
  F  F0  1  0.70238100  0.93832900  0.21419500  1
  F  F1  1  0.68765100  0.55895500  0.80257400  1
  F  F2  1  0.39041300  0.75677500  0.50623400  1
  F  F3  1  0.29136300  0.43762300  0.19457300  1
  F  F4  1  0.28009100  0.06214300  0.80222200  1
loop_
_geom_bond_atom_site_label_1
_geom_bond_atom_site_label_2
_geom_bond_distance
_geom_bond_site_symmetry_2
Mg0 O5 2.014498 1_655
Mg0 O3 2.022312 1_555
Mg0 O4 2.075549 1_655
Mg0 O0 2.171849 1_555
Mg0 O1 2.227406 1_555
O0 V2 1.721678 1_554
O0 V3 2.201485 1_645
O1 V0 1.760862 1_555
O1 V2 2.094595 1_554
O2 V1 1.693576 1_565
O2 V3 2.054733 1_656
O3 V1 1.862195 1_555
O3 V0 1.967556 1_555
O4 V3 1.728246 1_545
O4 V1 2.427430 1_555
O5 V2 1.903418 1_455
O5 V0 1.954515 1_555
O6 V3 1.667964 1_555
O6 V2 2.102596 1_454
F0 V3 1.933620 1_655
F0 V1 1.988840 1_565
F1 V2 1.944128 1_555
F1 V0 1.961053 1_555
F2 V1 1.981871 1_565
F2 V0 2.007243 1_555
F3 V0 2.039942 1_555
F3 V2 2.050128 1_454
F3 Mg0 2.149575 1_455
F4 V3 1.929819 1_546
F4 V1 1.967051 1_555
