# generated using pymatgen
data_Na4MgTi2(GeO5)2
_symmetry_space_group_name_H-M   'P 1'
_cell_length_a   5.48510900
_cell_length_b   6.87885300
_cell_length_c   6.87885300
_cell_angle_alpha   90.00000000
_cell_angle_beta   90.00000000
_cell_angle_gamma   90.00000000
_symmetry_Int_Tables_number   1
_chemical_formula_structural   Na4MgTi2(GeO5)2
_chemical_formula_sum   'Na4 Mg1 Ti2 Ge2 O10'
_cell_volume   259.54778073
_cell_formula_units_Z   1
loop_
 _symmetry_equiv_pos_site_id
 _symmetry_equiv_pos_as_xyz
  1  'x, y, z'
loop_
 _atom_site_type_symbol
 _atom_site_label
 _atom_site_symmetry_multiplicity
 _atom_site_fract_x
 _atom_site_fract_y
 _atom_site_fract_z
 _atom_site_occupancy
  Na  Na0  1  0.00000000  0.96690500  0.03309500  1
  Na  Na1  1  0.00000000  0.53309500  0.03309500  1
  Na  Na2  1  0.00000000  0.53309500  0.46690500  1
  Na  Na3  1  0.00000000  0.96690500  0.46690500  1
  Mg  Mg0  1  0.00000000  0.25000000  0.75000000  1
  Ti  Ti0  1  0.62568900  0.75000000  0.75000000  1
  Ti  Ti1  1  0.37431100  0.25000000  0.25000000  1
  Ge  Ge0  1  0.50000000  0.25000000  0.75000000  1
  Ge  Ge1  1  0.50000000  0.75000000  0.25000000  1
  O  O0  1  0.69469900  0.75000000  0.45639600  1
  O  O1  1  0.69469900  0.75000000  0.04360400  1
  O  O2  1  0.77725300  0.48170100  0.75000000  1
  O  O3  1  0.77725300  0.01829900  0.75000000  1
  O  O4  1  0.30530100  0.95639600  0.25000000  1
  O  O5  1  0.22274700  0.25000000  0.98170100  1
  O  O6  1  0.22274700  0.25000000  0.51829900  1
  O  O7  1  0.30530100  0.54360400  0.25000000  1
  O  O8  1  0.68720700  0.25000000  0.25000000  1
  O  O9  1  0.31279300  0.75000000  0.75000000  1
loop_
_geom_bond_atom_site_label_1
_geom_bond_atom_site_label_2
_geom_bond_distance
_geom_bond_site_symmetry_2
Na0 O1 2.244054 1_455
Na0 O4 2.244054 1_555
Na0 O5 2.325942 1_564
Na0 O3 2.325942 1_464
Na1 O1 2.244054 1_455
Na1 O7 2.244054 1_555
Na1 O5 2.325942 1_554
Na1 O2 2.325942 1_454
Na2 O0 2.244054 1_455
Na2 O7 2.244054 1_555
Na2 O6 2.325942 1_555
Na2 O2 2.325942 1_455
Na3 O4 2.244054 1_555
Na3 O0 2.244054 1_455
Na3 O6 2.325942 1_565
Na3 O3 2.325942 1_465
Mg0 O6 2.008256 1_555
Mg0 O3 2.008256 1_455
Mg0 O2 2.008256 1_455
Mg0 O5 2.008256 1_555
Ge0 O2 2.202961 1_555
Ge0 O3 2.202961 1_555
Ge0 O6 2.202961 1_555
Ge0 O5 2.202961 1_555
Ge1 O1 1.776583 1_555
Ge1 O4 1.776583 1_555
Ge1 O0 1.776583 1_555
Ge1 O7 1.776583 1_555
O0 Ti0 2.054825 1_555
O1 Ti0 2.054825 1_554
O2 Ti0 2.024187 1_555
O3 Ti0 2.024187 1_545
O4 Ti1 2.054825 1_565
O5 Ti1 2.024187 1_556
O6 Ti1 2.024187 1_555
O7 Ti1 2.054825 1_555
O8 Ti1 1.716269 1_555
O9 Ti0 1.716269 1_555
