# generated using pymatgen
data_MgMoW3S8
_symmetry_space_group_name_H-M   'P 1'
_cell_length_a   3.18987700
_cell_length_b   3.18988213
_cell_length_c   43.86906100
_cell_angle_alpha   90.00015652
_cell_angle_beta   90.00093491
_cell_angle_gamma   120.00003455
_symmetry_Int_Tables_number   1
_chemical_formula_structural   MgMoW3S8
_chemical_formula_sum   'Mg1 Mo1 W3 S8'
_cell_volume   386.57822909
_cell_formula_units_Z   1
loop_
 _symmetry_equiv_pos_site_id
 _symmetry_equiv_pos_as_xyz
  1  'x, y, z'
loop_
 _atom_site_type_symbol
 _atom_site_label
 _atom_site_symmetry_multiplicity
 _atom_site_fract_x
 _atom_site_fract_y
 _atom_site_fract_z
 _atom_site_occupancy
  Mg  Mg0  1  0.00000100  0.99998300  0.18440900  1
  Mo  Mo0  1  0.33333200  0.66666100  0.08615600  1
  W  W0  1  0.33332200  0.66662700  0.46973400  1
  W  W1  1  0.66669200  0.33341100  0.28993300  1
  W  W2  1  0.66665800  0.33331100  0.65784200  1
  S  S0  1  0.33336700  0.66675000  0.32578200  1
  S  S1  1  0.33333800  0.66665600  0.69368900  1
  S  S2  1  0.66665100  0.33331400  0.05061200  1
  S  S3  1  0.66663800  0.33328600  0.43390900  1
  S  S4  1  0.66668000  0.33334100  0.12226500  1
  S  S5  1  0.66667000  0.33330800  0.50562300  1
  S  S6  1  0.33334100  0.66672700  0.25383700  1
  S  S7  1  0.33330800  0.66662700  0.62199600  1
loop_
_geom_bond_atom_site_label_1
_geom_bond_atom_site_label_2
_geom_bond_distance
_geom_bond_site_symmetry_2
Mo0 S2 2.413105 1_565
Mo0 S2 2.413122 1_455
Mo0 S2 2.413126 1_555
Mo0 S4 2.429200 1_455
Mo0 S4 2.429201 1_555
Mo0 S4 2.429221 1_565
S0 W1 2.421777 1_455
S0 W1 2.421789 1_565
S0 W1 2.421789 1_555
S1 W2 2.421719 1_565
S1 W2 2.421730 1_455
S1 W2 2.421734 1_555
S3 W0 2.421091 1_555
S3 W0 2.421101 1_545
S3 W0 2.421112 1_655
S5 W0 2.422916 1_555
S5 W0 2.422917 1_655
S5 W0 2.422941 1_545
S6 W1 2.428821 1_455
S6 W1 2.428827 1_555
S6 W1 2.428857 1_565
S7 W2 2.421687 1_455
S7 W2 2.421689 1_555
S7 W2 2.421722 1_565
