# generated using pymatgen
data_MgZn2(CoO2)4
_symmetry_space_group_name_H-M   'P 1'
_cell_length_a   5.93814549
_cell_length_b   6.16806897
_cell_length_c   6.31666756
_cell_angle_alpha   94.56732154
_cell_angle_beta   118.59406640
_cell_angle_gamma   117.67730834
_symmetry_Int_Tables_number   1
_chemical_formula_structural   MgZn2(CoO2)4
_chemical_formula_sum   'Mg1 Zn2 Co4 O8'
_cell_volume   165.78083425
_cell_formula_units_Z   1
loop_
 _symmetry_equiv_pos_site_id
 _symmetry_equiv_pos_as_xyz
  1  'x, y, z'
loop_
 _atom_site_type_symbol
 _atom_site_label
 _atom_site_symmetry_multiplicity
 _atom_site_fract_x
 _atom_site_fract_y
 _atom_site_fract_z
 _atom_site_occupancy
  Mg  Mg0  1  0.21879000  0.32857200  0.64375300  1
  Zn  Zn0  1  0.26943200  0.06129100  0.95853000  1
  Zn  Zn1  1  0.76875600  0.90068200  0.08318700  1
  Co  Co0  1  0.51700500  0.01200700  0.51858400  1
  Co  Co1  1  0.51702900  0.56628900  0.43999900  1
  Co  Co2  1  0.95936600  0.46928100  0.97756000  1
  Co  Co3  1  0.97124400  0.56879300  0.44990100  1
  O  O0  1  0.02909500  0.75196300  0.22181600  1
  O  O1  1  0.45694500  0.71603200  0.69736000  1
  O  O2  1  0.52770800  0.77251500  0.25068800  1
  O  O3  1  0.95149100  0.69193600  0.74102200  1
  O  O4  1  0.49659200  0.21968500  0.78719700  1
  O  O5  1  0.54187700  0.27482200  0.32301500  1
  O  O6  1  0.03984300  0.29554600  0.27182800  1
  O  O7  1  0.99524500  0.23516800  0.80222800  1
loop_
_geom_bond_atom_site_label_1
_geom_bond_atom_site_label_2
_geom_bond_distance
_geom_bond_site_symmetry_2
Mg0 O4 1.920618 1_555
Mg0 O7 1.936343 1_455
Mg0 O6 2.005764 1_555
Mg0 O1 2.024634 1_555
Co0 O7 2.067629 1_555
Co0 O5 2.108764 1_555
Co0 O0 2.118085 1_545
Co0 O4 2.128256 1_555
Co0 O2 2.200409 1_545
Co0 O1 2.200961 1_545
Co1 O2 1.814365 1_555
Co1 O5 1.984712 1_555
Co1 O3 2.020968 1_555
Co1 O1 2.060427 1_555
Co1 O6 2.094463 1_555
Co2 O7 1.901093 1_555
Co2 O0 1.970140 1_656
Co2 O4 1.994912 1_555
Co2 O3 2.107200 1_555
Co2 O6 2.185070 1_656
Co2 O2 2.431752 1_656
Co3 O0 1.960262 1_655
Co3 O5 1.987106 1_555
Co3 O3 2.009744 1_555
Co3 O1 2.147505 1_655
Co3 O6 2.246381 1_655
O0 Zn1 2.036586 1_455
O1 Zn1 1.986105 1_556
O2 Zn1 2.079645 1_555
O3 Zn0 1.914469 1_665
O4 Zn0 2.070467 1_555
O5 Zn0 1.903946 1_554
O6 Zn1 2.000653 1_445
O7 Zn0 2.242325 1_655
