# generated using pymatgen
data_Na4MgTi3(PO4)6
_symmetry_space_group_name_H-M   'P 1'
_cell_length_a   8.71773699
_cell_length_b   8.72661586
_cell_length_c   22.17857110
_cell_angle_alpha   90.00004742
_cell_angle_beta   89.98965374
_cell_angle_gamma   119.93251209
_symmetry_Int_Tables_number   1
_chemical_formula_structural   Na4MgTi3(PO4)6
_chemical_formula_sum   'Na12 Mg3 Ti9 P18 O72'
_cell_volume   1462.20662641
_cell_formula_units_Z   3
loop_
 _symmetry_equiv_pos_site_id
 _symmetry_equiv_pos_as_xyz
  1  'x, y, z'
loop_
 _atom_site_type_symbol
 _atom_site_label
 _atom_site_symmetry_multiplicity
 _atom_site_fract_x
 _atom_site_fract_y
 _atom_site_fract_z
 _atom_site_occupancy
  Na  Na0  1  0.63916082  0.00674044  0.24744287  1
  Na  Na1  1  0.36762397  0.36083144  0.24753596  1
  Na  Na2  1  0.99351984  0.63172864  0.24723967  1
  Na  Na3  1  0.99345582  0.36507503  0.74679312  1
  Na  Na4  1  0.37007674  0.00354249  0.74683693  1
  Na  Na5  1  0.70477568  0.67181860  0.41602734  1
  Na  Na6  1  0.00860932  0.00907588  0.49781165  1
  Na  Na7  1  0.00009507  0.00023013  0.00046773  1
  Na  Na8  1  0.66584924  0.34145996  0.83410981  1
  Na  Na9  1  0.66584466  0.32520426  0.33396044  1
  Na  Na10  1  0.33333939  0.66664802  0.16260265  1
  Na  Na11  1  0.34176967  0.66563353  0.66349622  1
  Mg  Mg0  1  0.00483751  0.00557043  0.35402194  1
  Mg  Mg1  1  0.66548666  0.33887337  0.68450923  1
  Mg  Mg2  1  0.66682111  0.33335573  0.18182515  1
  Ti  Ti0  1  0.00061548  0.99895208  0.85470842  1
  Ti  Ti1  1  0.99666588  0.99713209  0.64296047  1
  Ti  Ti2  1  0.00137666  0.00110288  0.14449441  1
  Ti  Ti3  1  0.66708758  0.33263933  0.98254451  1
  Ti  Ti4  1  0.66591016  0.32748038  0.48343557  1
  Ti  Ti5  1  0.33286402  0.66650871  0.02070106  1
  Ti  Ti6  1  0.33188866  0.66538226  0.52101328  1
  Ti  Ti7  1  0.33206628  0.66734529  0.31691739  1
  Ti  Ti8  1  0.33865924  0.66559495  0.81632290  1
  P  P0  1  0.28983634  0.00113601  0.25074280  1
  P  P1  1  0.71076626  0.70991373  0.25143867  1
  P  P2  1  0.99866085  0.28848283  0.25083783  1
  P  P3  1  0.28811832  0.28855100  0.75020860  1
  P  P4  1  0.99724726  0.71182275  0.75052779  1
  P  P5  1  0.71180750  0.99540631  0.75030466  1
  P  P6  1  0.95818155  0.33436979  0.58521645  1
  P  P7  1  0.37636239  0.04149982  0.58518617  1
  P  P8  1  0.66510740  0.62229326  0.58350801  1
  P  P9  1  0.95791042  0.62414467  0.08398518  1
  P  P10  1  0.66565196  0.04140414  0.08409167  1
  P  P11  1  0.37627468  0.33442938  0.08398494  1
  P  P12  1  0.62339893  0.66599513  0.91796212  1
  P  P13  1  0.04354467  0.37758889  0.91693568  1
  P  P14  1  0.33475927  0.95657818  0.91704900  1
  P  P15  1  0.62190229  0.95900439  0.41798359  1
  P  P16  1  0.33068477  0.37400997  0.41826230  1
  P  P17  1  0.04312834  0.66556777  0.41827897  1
  O  O0  1  0.20811842  0.03305750  0.30547512  1
  O  O1  1  0.81936023  0.78740371  0.30816975  1
  O  O2  1  0.96509328  0.17395828  0.30546897  1
  O  O3  1  0.19500446  0.16955067  0.80622206  1
  O  O4  1  0.97671545  0.80610444  0.80663841  1
  O  O5  1  0.83117522  0.02533948  0.80596166  1
  O  O6  1  0.79952913  0.96808243  0.69403667  1
  O  O7  1  0.16621824  0.20300915  0.69479828  1
  O  O8  1  0.03418743  0.83347472  0.69502242  1
  O  O9  1  0.79893785  0.83347888  0.19562760  1
  O  O10  1  0.03588810  0.20348364  0.19410747  1
  O  O11  1  0.16823592  0.96463919  0.19396893  1
  O  O12  1  0.88497865  0.36633658  0.64235614  1
  O  O13  1  0.48224145  0.11417967  0.64222309  1
  O  O14  1  0.63141445  0.51177002  0.63864329  1
  O  O15  1  0.88715985  0.51991228  0.14147458  1
  O  O16  1  0.63243256  0.11268826  0.14141009  1
  O  O17  1  0.48016908  0.36745918  0.14150613  1
  O  O18  1  0.46877965  0.30576674  0.02833870  1
  O  O19  1  0.83698291  0.53124922  0.02834937  1
  O  O20  1  0.69439509  0.16266944  0.02836582  1
  O  O21  1  0.46887426  0.16374306  0.52910798  1
  O  O22  1  0.69639051  0.53879538  0.52526318  1
  O  O23  1  0.83653320  0.30551231  0.52913247  1
  O  O24  1  0.53405036  0.69579851  0.97238839  1
  O  O25  1  0.16321923  0.46778172  0.97135706  1
  O  O26  1  0.30497545  0.83711809  0.97149077  1
  O  O27  1  0.52703402  0.83641563  0.47150045  1
  O  O28  1  0.31285738  0.47430059  0.47227534  1
  O  O29  1  0.16197035  0.68796094  0.47210625  1
  O  O30  1  0.13083761  0.63711609  0.35978896  1
  O  O31  1  0.50547629  0.87073463  0.35946285  1
  O  O32  1  0.36620537  0.49619769  0.36029639  1
  O  O33  1  0.13045068  0.49216590  0.85901155  1
  O  O34  1  0.36196540  0.86945825  0.85910945  1
  O  O35  1  0.50416106  0.63853786  0.86111790  1
  O  O36  1  0.01901590  0.82485514  0.41296133  1
  O  O37  1  0.80016235  0.97026552  0.41223443  1
  O  O38  1  0.16951629  0.19551518  0.41304569  1
  O  O39  1  0.02564360  0.19321716  0.90903069  1
  O  O40  1  0.16781732  0.97441478  0.90933198  1
  O  O41  1  0.80649667  0.83247039  0.90912367  1
  O  O42  1  0.97614405  0.16575560  0.58913819  1
  O  O43  1  0.18994197  0.02428587  0.58964902  1
  O  O44  1  0.83412377  0.81005794  0.58943695  1
  O  O45  1  0.97631997  0.81092366  0.08888044  1
  O  O46  1  0.83425907  0.02293074  0.08895314  1
  O  O47  1  0.18927519  0.16584344  0.08883153  1
  O  O48  1  0.69108347  0.15943011  0.74631343  1
  O  O49  1  0.46783995  0.30281337  0.74626718  1
  O  O50  1  0.83972020  0.52666341  0.74670398  1
  O  O51  1  0.68386864  0.52395452  0.24361424  1
  O  O52  1  0.84062357  0.31703964  0.24309310  1
  O  O53  1  0.47625531  0.15916219  0.24318434  1
  O  O54  1  0.64046690  0.49988557  0.92350231  1
  O  O55  1  0.85947866  0.35965680  0.92350777  1
  O  O56  1  0.50013753  0.14061704  0.92349960  1
  O  O57  1  0.63519020  0.14138771  0.42387153  1
  O  O58  1  0.50631813  0.36857726  0.42342262  1
  O  O59  1  0.85782879  0.49616123  0.42335870  1
  O  O60  1  0.35223138  0.49714877  0.07303323  1
  O  O61  1  0.14467379  0.64761451  0.07299615  1
  O  O62  1  0.50261456  0.85522430  0.07299109  1
  O  O63  1  0.35238010  0.85585625  0.57362886  1
  O  O64  1  0.50415057  0.64968673  0.57340077  1
  O  O65  1  0.14401414  0.49631546  0.57407535  1
  O  O66  1  0.30572129  0.82838835  0.25573790  1
  O  O67  1  0.52217151  0.69382857  0.25594053  1
  O  O68  1  0.17131670  0.47678584  0.25617877  1
  O  O69  1  0.29957988  0.47207414  0.75767594  1
  O  O70  1  0.17002784  0.69770045  0.75702900  1
  O  O71  1  0.52376250  0.83008531  0.75716681  1
loop_
_geom_bond_atom_site_label_1
_geom_bond_atom_site_label_2
_geom_bond_distance
_geom_bond_site_symmetry_2
Na0 O53 2.383323 1_555
Na0 O52 2.383325 1_555
Na0 O67 2.398511 1_545
Na0 O66 2.527998 1_545
Na0 O16 2.538251 1_555
Na0 O31 2.749165 1_545
Na0 O9 2.765511 1_545
Na0 O2 2.778958 1_555
Na1 O53 2.380460 1_555
Na1 O68 2.391119 1_555
Na1 O51 2.391244 1_555
Na1 O67 2.527320 1_555
Na1 O17 2.537418 1_555
Na1 O32 2.768481 1_555
Na1 O10 2.773353 1_555
Na1 O0 2.792226 1_555
Na2 O51 2.375814 1_555
Na2 O52 2.381947 1_555
Na2 O66 2.393156 1_655
Na2 O68 2.522225 1_655
Na2 O15 2.532221 1_555
Na2 O30 2.758822 1_655
Na2 O11 2.781959 1_655
Na2 O1 2.834521 1_555
Na3 O48 2.334157 1_555
Na3 O69 2.359147 1_655
Na3 O50 2.381318 1_555
Na3 O12 2.504132 1_555
Na3 O70 2.527399 1_655
Na3 O33 2.744072 1_655
Na3 O7 2.779104 1_655
Na3 O5 2.885620 1_555
Na4 O49 2.307774 1_555
Na4 O70 2.360227 1_545
Na4 O48 2.425470 1_555
Na4 O71 2.482500 1_545
Na4 O13 2.515671 1_555
Na4 O34 2.737120 1_545
Na4 O8 2.786005 1_545
Na4 O3 2.892850 1_555
Na5 O37 2.306575 1_555
Na5 O58 2.335343 1_555
Na5 O36 2.375224 1_655
Na5 O59 2.489520 1_555
Na5 O1 2.594444 1_555
Na5 O22 2.671630 1_555
Na5 O32 2.841718 1_555
Na5 O27 2.863258 1_555
Na6 O38 2.422930 1_555
Na6 O36 2.505905 1_545
Na6 O37 2.531057 1_445
Na6 O42 2.537353 1_455
Na6 O43 2.541060 1_555
Na6 O44 2.611913 1_445
Na7 O46 2.503088 1_455
Na7 O47 2.504378 1_555
Na7 O45 2.505042 1_445
Na7 O40 2.569399 1_544
Na7 O39 2.573702 1_554
Na7 O41 2.575140 1_444
Na8 O54 2.489207 1_555
Na8 O50 2.494339 1_555
Na8 O49 2.511831 1_555
Na8 O55 2.557240 1_555
Na8 O56 2.561535 1_555
Na8 O48 2.590733 1_555
Na9 O57 2.488571 1_555
Na9 O59 2.543117 1_555
Na9 O52 2.548600 1_555
Na9 O53 2.548686 1_555
Na9 O58 2.557044 1_555
Na9 O51 2.603042 1_555
Na10 O60 2.530668 1_555
Na10 O61 2.531963 1_555
Na10 O62 2.532038 1_555
Na10 O66 2.579890 1_555
Na10 O67 2.581294 1_555
Na10 O68 2.590546 1_555
Na11 O64 2.492308 1_555
Na11 O65 2.558836 1_555
Na11 O63 2.565819 1_555
Na11 O71 2.573244 1_555
Na11 O69 2.594437 1_555
Na11 O70 2.653326 1_555
Mg0 O0 1.983035 1_555
Mg0 O2 1.986746 1_455
Mg0 O38 2.036687 1_555
Mg0 O1 2.049824 1_445
Mg0 O37 2.096684 1_445
Mg0 O36 2.098964 1_545
Mg1 O14 1.961340 1_555
Mg1 O12 2.033360 1_555
Mg1 O13 2.037368 1_555
Mg1 O49 2.098094 1_555
Mg1 O50 2.100496 1_555
Mg1 O48 2.174780 1_555
Mg2 O15 2.004886 1_555
Mg2 O17 2.004924 1_555
Mg2 O16 2.006373 1_555
Mg2 O52 2.092479 1_555
Mg2 O53 2.097997 1_555
Mg2 O51 2.102370 1_555
O0 P0 1.502117 1_555
O1 P1 1.515972 1_555
O2 P2 1.503509 1_555
O3 P3 1.561742 1_555
O3 Ti0 1.930326 1_545
O4 P4 1.550651 1_555
O4 Ti0 1.913730 1_655
O5 P5 1.550495 1_545
O5 Ti0 1.934898 1_645
O6 P5 1.542941 1_555
O6 Ti1 1.966100 1_555
O7 P3 1.551004 1_555
O7 Ti1 2.021100 1_445
O8 P4 1.550754 1_455
O8 Ti1 1.986521 1_455
O9 P1 1.567882 1_555
O9 Ti2 1.990830 1_665
O10 P2 1.574381 1_455
O10 Ti2 1.972368 1_555
O11 P0 1.572973 1_565
O11 Ti2 1.970719 1_565
O12 P6 1.506131 1_555
O13 P7 1.506869 1_555
O14 P8 1.492973 1_555
O15 P9 1.507758 1_555
O16 P10 1.505503 1_555
O17 P11 1.506921 1_555
O18 P11 1.561082 1_555
O18 Ti3 1.915738 1_554
O19 P9 1.561636 1_555
O19 Ti3 1.915304 1_554
O20 P10 1.563781 1_555
O20 Ti3 1.908397 1_554
O21 P7 1.573645 1_555
O21 Ti4 1.888983 1_555
O22 P8 1.572326 1_555
O22 Ti4 1.960318 1_555
O23 P6 1.571377 1_555
O23 Ti4 1.887202 1_555
O24 P12 1.527504 1_555
O24 Ti5 1.959981 1_556
O25 P13 1.531583 1_555
O25 Ti5 1.957912 1_556
O26 P14 1.530315 1_555
O26 Ti5 1.956599 1_556
O27 P15 1.534252 1_555
O27 Ti6 1.947585 1_555
O28 P16 1.536502 1_555
O28 Ti6 1.923660 1_555
O29 P17 1.528117 1_555
O29 Ti6 1.923924 1_555
O30 P17 1.586881 1_555
O30 Ti7 1.894377 1_555
O31 P15 1.590071 1_555
O31 Ti7 1.910186 1_555
O32 P16 1.598740 1_555
O32 Ti7 1.920557 1_555
O33 P13 1.570921 1_555
O33 Ti8 1.933763 1_555
O34 P14 1.570145 1_555
O34 Ti8 1.935483 1_555
O35 P12 1.574572 1_555
O35 Ti8 1.861435 1_555
O36 P17 1.510600 1_555
O37 P15 1.512756 1_555
O38 P16 1.493235 1_555
O39 P13 1.547003 1_555
O39 Ti0 2.001011 1_545
O40 P14 1.548464 1_555
O40 Ti0 1.987535 1_555
O41 P12 1.543541 1_555
O41 Ti0 1.994164 1_655
O42 P6 1.557930 1_555
O42 Ti1 1.971061 1_545
O43 P7 1.558791 1_555
O43 Ti1 1.973316 1_445
O44 P8 1.569667 1_555
O44 Ti1 1.942733 1_555
O45 P9 1.559880 1_555
O45 Ti2 1.990411 1_665
O46 P10 1.560343 1_555
O46 Ti2 1.988415 1_655
O47 P11 1.562056 1_555
O47 Ti2 1.980707 1_555
O48 P5 1.532117 1_545
O49 P3 1.511037 1_555
O50 P4 1.513126 1_555
O51 P1 1.529323 1_555
O52 P2 1.527239 1_555
O53 P0 1.527838 1_555
O54 P12 1.534196 1_555
O54 Ti3 2.058355 1_555
O55 P13 1.539456 1_655
O55 Ti3 2.046366 1_555
O56 P14 1.538742 1_545
O56 Ti3 2.051322 1_555
O57 P15 1.542608 1_545
O57 Ti4 2.005050 1_555
O58 P16 1.559550 1_555
O58 Ti4 2.081938 1_555
O59 P17 1.557046 1_655
O59 Ti4 2.069497 1_555
O60 P11 1.554460 1_555
O60 Ti5 1.951672 1_555
O61 P9 1.555411 1_455
O61 Ti5 1.947639 1_555
O62 P10 1.554370 1_565
O62 Ti5 1.953331 1_555
O63 P7 1.547885 1_565
O63 Ti6 1.964762 1_555
O64 P8 1.552794 1_555
O64 Ti6 1.956995 1_555
O65 P6 1.548500 1_455
O65 Ti6 1.957556 1_555
O66 P0 1.585041 1_565
O66 Ti7 2.047222 1_555
O67 P1 1.581907 1_555
O67 Ti7 2.060559 1_555
O68 P2 1.584795 1_455
O68 Ti7 2.054000 1_555
O69 P3 1.562894 1_555
O69 Ti8 2.021355 1_555
O70 P4 1.578010 1_455
O70 Ti8 2.093023 1_555
O71 P5 1.559362 1_555
O71 Ti8 2.018272 1_555
