# generated using pymatgen
data_Ca2Nb4Si3(SO6)6
_symmetry_space_group_name_H-M   'P 1'
_cell_length_a   9.06651244
_cell_length_b   9.04486694
_cell_length_c   23.03309745
_cell_angle_alpha   90.31550430
_cell_angle_beta   90.00000000
_cell_angle_gamma   120.07919558
_symmetry_Int_Tables_number   1
_chemical_formula_structural   Ca2Nb4Si3(SO6)6
_chemical_formula_sum   'Ca4 Nb8 Si6 S12 O72'
_cell_volume   1634.44192978
_cell_formula_units_Z   2
loop_
 _symmetry_equiv_pos_site_id
 _symmetry_equiv_pos_as_xyz
  1  'x, y, z'
loop_
 _atom_site_type_symbol
 _atom_site_label
 _atom_site_symmetry_multiplicity
 _atom_site_fract_x
 _atom_site_fract_y
 _atom_site_fract_z
 _atom_site_occupancy
  Ca  Ca0  1  0.99479493  0.00147458  0.36487450  1
  Ca  Ca1  1  0.00667965  0.00147458  0.86487450  1
  Ca  Ca2  1  0.66897334  0.33800858  0.68747089  1
  Ca  Ca3  1  0.66903624  0.33800858  0.18747089  1
  Nb  Nb0  1  0.99619680  0.00309560  0.64121486  1
  Nb  Nb1  1  0.00689880  0.00309560  0.14121486  1
  Nb  Nb2  1  0.65419877  0.34004437  0.97900405  1
  Nb  Nb3  1  0.68584660  0.34004437  0.47900405  1
  Nb  Nb4  1  0.32512976  0.67215442  0.02462746  1
  Nb  Nb5  1  0.34702366  0.67215442  0.52462746  1
  Nb  Nb6  1  0.34123696  0.67688460  0.30865683  1
  Nb  Nb7  1  0.33564664  0.67688460  0.80865683  1
  Si  Si0  1  0.96251314  0.33923425  0.58377559  1
  Si  Si1  1  0.66953357  0.61882501  0.58484607  1
  Si  Si2  1  0.94929244  0.61882501  0.08484607  1
  Si  Si3  1  0.37672210  0.33923425  0.08377559  1
  Si  Si4  1  0.35465155  0.96213581  0.91744025  1
  Si  Si5  1  0.60748327  0.96213581  0.41744025  1
  S  S0  1  0.27635889  0.98499296  0.25054610  1
  S  S1  1  0.70833810  0.72076106  0.25087551  1
  S  S2  1  0.01285273  0.29089497  0.25159357  1
  S  S3  1  0.27804224  0.29089497  0.75159357  1
  S  S4  1  0.01242296  0.72076106  0.75087551  1
  S  S5  1  0.70863407  0.98499296  0.75054610  1
  S  S6  1  0.37007086  0.04092661  0.58216539  1
  S  S7  1  0.67085675  0.04092661  0.08216539  1
  S  S8  1  0.60270584  0.65136479  0.91654213  1
  S  S9  1  0.04599614  0.39968839  0.91675077  1
  S  S10  1  0.35369125  0.39968839  0.41675077  1
  S  S11  1  0.04865795  0.65136479  0.41654213  1
  O  O0  1  0.20176558  0.00971489  0.30197995  1
  O  O1  1  0.80506644  0.79994651  0.30269512  1
  O  O2  1  0.99409308  0.19165972  0.30262116  1
  O  O3  1  0.19756664  0.19165972  0.80262116  1
  O  O4  1  0.99488007  0.79994651  0.80269512  1
  O  O5  1  0.80794930  0.00971489  0.80197995  1
  O  O6  1  0.79442437  0.95939612  0.69762547  1
  O  O7  1  0.16692846  0.20503520  0.69830142  1
  O  O8  1  0.04450383  0.82895302  0.69845521  1
  O  O9  1  0.78444919  0.82895302  0.19845521  1
  O  O10  1  0.03810674  0.20503520  0.19830142  1
  O  O11  1  0.16497175  0.95939612  0.19762547  1
  O  O12  1  0.89165446  0.37764076  0.63962849  1
  O  O13  1  0.47321157  0.09665477  0.63413878  1
  O  O14  1  0.61223947  0.51012060  0.64098997  1
  O  O15  1  0.89788214  0.51012060  0.14098997  1
  O  O16  1  0.62344420  0.09665477  0.13413878  1
  O  O17  1  0.48598730  0.37764076  0.13962849  1
  O  O18  1  0.46741329  0.29687305  0.02566100  1
  O  O19  1  0.82457346  0.52525400  0.02731503  1
  O  O20  1  0.70438439  0.15340264  0.03144970  1
  O  O21  1  0.44901925  0.15340264  0.53144970  1
  O  O22  1  0.70068154  0.52525400  0.52731503  1
  O  O23  1  0.82946076  0.29687305  0.52566100  1
  O  O24  1  0.51707094  0.66415601  0.96856843  1
  O  O25  1  0.15626902  0.48484504  0.96849888  1
  O  O26  1  0.34724079  0.83885900  0.97060203  1
  O  O27  1  0.49161722  0.83885900  0.47060203  1
  O  O28  1  0.32857502  0.48484504  0.46849888  1
  O  O29  1  0.14708406  0.66415601  0.46856843  1
  O  O30  1  0.12552433  0.62094697  0.36326262  1
  O  O31  1  0.48116559  0.85903100  0.35820731  1
  O  O32  1  0.37209309  0.50647812  0.36373456  1
  O  O33  1  0.13438403  0.50647812  0.86373456  1
  O  O34  1  0.37786442  0.85903100  0.85820731  1
  O  O35  1  0.49542164  0.62094697  0.86326262  1
  O  O36  1  0.02891173  0.79865513  0.41115456  1
  O  O37  1  0.78680464  0.97882794  0.41476787  1
  O  O38  1  0.20634212  0.23163868  0.41179621  1
  O  O39  1  0.02529656  0.23163868  0.91179621  1
  O  O40  1  0.19202330  0.97882794  0.91476787  1
  O  O41  1  0.76974341  0.79865513  0.91115456  1
  O  O42  1  0.97824448  0.16219859  0.59538419  1
  O  O43  1  0.19951326  0.02905403  0.59230515  1
  O  O44  1  0.84558406  0.81165017  0.59732135  1
  O  O45  1  0.96606611  0.81165017  0.09732135  1
  O  O46  1  0.82954077  0.02905403  0.09230515  1
  O  O47  1  0.18395411  0.16219859  0.09538419  1
  O  O48  1  0.66631967  0.11682358  0.74064329  1
  O  O49  1  0.44793649  0.31875006  0.74307155  1
  O  O50  1  0.87584654  0.54688942  0.74416317  1
  O  O51  1  0.67104388  0.54688942  0.24416317  1
  O  O52  1  0.87081456  0.31875006  0.24307155  1
  O  O53  1  0.45050491  0.11682358  0.24064329  1
  O  O54  1  0.61741710  0.49101281  0.92236194  1
  O  O55  1  0.88170771  0.39478820  0.92384885  1
  O  O56  1  0.53571787  0.14444255  0.92857766  1
  O  O57  1  0.60872569  0.14444255  0.42857766  1
  O  O58  1  0.51308149  0.39478820  0.42384885  1
  O  O59  1  0.87359671  0.49101281  0.42236194  1
  O  O60  1  0.33788186  0.48884154  0.06294819  1
  O  O61  1  0.14738334  0.67118908  0.06512765  1
  O  O62  1  0.53298985  0.86021775  0.06891898  1
  O  O63  1  0.32722690  0.86021775  0.56891898  1
  O  O64  1  0.52380474  0.67118908  0.56512765  1
  O  O65  1  0.15095868  0.48884154  0.56294819  1
  O  O66  1  0.27558864  0.81275397  0.25668643  1
  O  O67  1  0.52845228  0.70838888  0.25823387  1
  O  O68  1  0.17696915  0.46442419  0.25856999  1
  O  O69  1  0.28745404  0.46442419  0.75856999  1
  O  O70  1  0.17993560  0.70838888  0.75823387  1
  O  O71  1  0.53716433  0.81275397  0.75668643  1
loop_
_geom_bond_atom_site_label_1
_geom_bond_atom_site_label_2
_geom_bond_distance
_geom_bond_site_symmetry_2
Ca0 O37 2.129332 1_545
Ca0 O2 2.247954 1_555
Ca0 O38 2.270113 1_655
Ca0 O1 2.271773 1_545
Ca0 O36 2.277633 1_645
Ca0 O0 2.342310 1_655
Ca1 O40 2.129332 1_545
Ca1 O3 2.247954 1_555
Ca1 O39 2.270113 1_555
Ca1 O4 2.271773 1_445
Ca1 O41 2.277633 1_445
Ca1 O5 2.342310 1_455
Ca2 O14 2.157591 1_555
Ca2 O12 2.167447 1_555
Ca2 O50 2.283255 1_555
Ca2 O49 2.310651 1_555
Ca2 O48 2.341286 1_555
Ca2 O13 2.347621 1_555
Ca3 O15 2.157591 1_555
Ca3 O17 2.167447 1_555
Ca3 O51 2.283255 1_555
Ca3 O52 2.310651 1_555
Ca3 O53 2.341286 1_555
Ca3 O16 2.347621 1_555
Nb0 O42 1.860984 1_555
Nb0 O44 1.869692 1_545
Nb0 O43 2.071548 1_655
Nb0 O6 2.114685 1_545
Nb0 O7 2.144910 1_655
Nb0 O8 2.263927 1_645
Nb1 O47 1.860984 1_555
Nb1 O45 1.869692 1_445
Nb1 O46 2.071548 1_455
Nb1 O11 2.114685 1_545
Nb1 O10 2.144910 1_555
Nb1 O9 2.263927 1_445
Nb2 O18 1.875377 1_556
Nb2 O56 1.924924 1_555
Nb2 O19 1.953511 1_556
Nb2 O54 2.038122 1_555
Nb2 O55 2.257652 1_555
Nb2 O20 2.304025 1_556
Nb3 O23 1.875377 1_555
Nb3 O57 1.924924 1_555
Nb3 O22 1.953511 1_555
Nb3 O59 2.038122 1_555
Nb3 O58 2.257652 1_555
Nb3 O21 2.304025 1_555
Nb4 O61 1.858312 1_555
Nb4 O26 1.892047 1_554
Nb4 O60 1.936441 1_555
Nb4 O62 2.062358 1_555
Nb4 O25 2.064327 1_554
Nb4 O24 2.196829 1_554
Nb5 O64 1.858312 1_555
Nb5 O27 1.892047 1_555
Nb5 O65 1.936441 1_555
Nb5 O63 2.062358 1_555
Nb5 O28 2.064327 1_555
Nb5 O29 2.196829 1_555
Nb6 O31 1.873627 1_555
Nb6 O67 1.957035 1_555
Nb6 O66 2.011671 1_555
Nb6 O68 2.085328 1_555
Nb6 O32 2.125326 1_555
Nb6 O30 2.162874 1_555
Nb7 O34 1.873627 1_555
Nb7 O70 1.957035 1_555
Nb7 O71 2.011671 1_555
Nb7 O69 2.085328 1_555
Nb7 O33 2.125326 1_555
Nb7 O35 2.162874 1_555
O0 S0 1.435103 1_545
O1 S1 1.437931 1_555
O2 S2 1.440325 1_655
O3 S3 1.440325 1_555
O4 S4 1.437931 1_655
O5 S5 1.435103 1_545
O6 S5 1.523741 1_555
O7 S3 1.526425 1_555
O8 S4 1.492562 1_555
O9 S1 1.492562 1_555
O10 S2 1.526425 1_555
O11 S0 1.523741 1_555
O12 Si0 1.551510 1_555
O13 S6 1.443077 1_555
O14 Si1 1.552700 1_555
O15 Si2 1.552700 1_555
O16 S7 1.443077 1_555
O17 Si3 1.551510 1_555
O18 Si3 1.710204 1_555
O19 Si2 1.667095 1_555
O20 S7 1.481558 1_555
O21 S6 1.481558 1_555
O22 Si1 1.667095 1_555
O23 Si0 1.710204 1_555
O24 S8 1.463113 1_555
O25 S9 1.493816 1_555
O26 Si4 1.639232 1_555
O27 Si5 1.639232 1_555
O28 S10 1.493816 1_555
O29 S11 1.463113 1_555
O30 S11 1.501951 1_555
O31 Si5 1.719904 1_555
O32 S10 1.517696 1_555
O33 S9 1.517696 1_555
O34 Si4 1.719904 1_555
O35 S8 1.501951 1_555
O36 S11 1.436371 1_555
O37 Si5 1.556896 1_555
O38 S10 1.439007 1_555
O39 S9 1.439011 1_555
O40 Si4 1.556887 1_555
O41 S8 1.436377 1_555
O42 Si0 1.699862 1_555
O43 S6 1.513650 1_555
O44 Si1 1.695906 1_555
O45 Si2 1.695910 1_555
O46 S7 1.513641 1_555
O47 Si3 1.699867 1_555
O48 S5 1.443103 1_545
O49 S3 1.444372 1_555
O50 S4 1.440741 1_655
O51 S1 1.440744 1_555
O52 S2 1.444363 1_655
O53 S0 1.443110 1_545
O54 S8 1.528189 1_555
O55 S9 1.476915 1_655
O56 Si4 1.661833 1_545
O57 Si5 1.661824 1_545
O58 S10 1.476933 1_555
O59 S11 1.528179 1_655
O60 Si3 1.634024 1_555
O61 Si2 1.675081 1_455
O62 S7 1.507854 1_565
O63 S6 1.507849 1_565
O64 Si1 1.675097 1_555
O65 Si0 1.634012 1_455
O66 S0 1.561589 1_555
O67 S1 1.586968 1_555
O68 S2 1.536080 1_555
O69 S3 1.536084 1_555
O70 S4 1.586959 1_555
O71 S5 1.561593 1_555
