# generated using pymatgen
data_LiCuPO4
_symmetry_space_group_name_H-M   'P 1'
_cell_length_a   5.36738800
_cell_length_b   5.04776900
_cell_length_c   7.88784699
_cell_angle_alpha   50.88466913
_cell_angle_beta   90.00000000
_cell_angle_gamma   90.00000000
_symmetry_Int_Tables_number   1
_chemical_formula_structural   LiCuPO4
_chemical_formula_sum   'Li2 Cu2 P2 O8'
_cell_volume   165.81131709
_cell_formula_units_Z   2
loop_
 _symmetry_equiv_pos_site_id
 _symmetry_equiv_pos_as_xyz
  1  'x, y, z'
loop_
 _atom_site_type_symbol
 _atom_site_label
 _atom_site_symmetry_multiplicity
 _atom_site_fract_x
 _atom_site_fract_y
 _atom_site_fract_z
 _atom_site_occupancy
  Li  Li0  1  0.66439600  0.24521300  0.75300300  1
  Li  Li1  1  0.33560400  0.24521300  0.25300300  1
  Cu  Cu0  1  0.81789100  0.98781800  0.49891400  1
  Cu  Cu1  1  0.18210900  0.98781800  0.99891400  1
  P  P0  1  0.15037000  0.50228600  0.50006100  1
  P  P1  1  0.84963000  0.50228600  0.00006100  1
  O  O0  1  0.30878000  0.22299600  0.70462700  1
  O  O1  1  0.11739100  0.37578900  0.01700600  1
  O  O2  1  0.85500200  0.82558800  0.98327500  1
  O  O3  1  0.71594300  0.59209400  0.79399600  1
  O  O4  1  0.88260900  0.37578900  0.51700600  1
  O  O5  1  0.69122000  0.22299600  0.20462700  1
  O  O6  1  0.14499800  0.82558800  0.48327500  1
  O  O7  1  0.28405700  0.59209400  0.29399600  1
loop_
_geom_bond_atom_site_label_1
_geom_bond_atom_site_label_2
_geom_bond_distance
_geom_bond_site_symmetry_2
Li0 O4 1.929588 1_555
Li0 O0 1.963523 1_555
Li0 O3 1.990324 1_555
Li0 O2 1.994486 1_545
Li1 O1 1.929588 1_555
Li1 O5 1.963523 1_555
Li1 O7 1.990324 1_555
Li1 O6 1.994486 1_545
Cu0 O5 1.944970 1_565
Cu0 O3 1.959760 1_555
Cu0 O6 1.973776 1_655
Cu0 O4 2.080612 1_565
Cu1 O0 1.944970 1_565
Cu1 O7 1.959760 1_556
Cu1 O2 1.973776 1_455
Cu1 O1 2.080612 1_566
O0 P0 1.563266 1_555
O1 P1 1.543818 1_455
O2 P1 1.552093 1_556
O3 P1 1.559683 1_556
O4 P0 1.543818 1_655
O5 P1 1.563266 1_555
O6 P0 1.552093 1_555
O7 P0 1.559683 1_555
