# generated using pymatgen
data_NaTiZnP(SO6)2
_symmetry_space_group_name_H-M   'P 1'
_cell_length_a   8.65387211
_cell_length_b   8.64186576
_cell_length_c   22.51204675
_cell_angle_alpha   89.88340776
_cell_angle_beta   90.00000000
_cell_angle_gamma   120.04596914
_symmetry_Int_Tables_number   1
_chemical_formula_structural   NaTiZnP(SO6)2
_chemical_formula_sum   'Na6 Ti6 Zn6 P6 S12 O72'
_cell_volume   1457.34053285
_cell_formula_units_Z   6
loop_
 _symmetry_equiv_pos_site_id
 _symmetry_equiv_pos_as_xyz
  1  'x, y, z'
loop_
 _atom_site_type_symbol
 _atom_site_label
 _atom_site_symmetry_multiplicity
 _atom_site_fract_x
 _atom_site_fract_y
 _atom_site_fract_z
 _atom_site_occupancy
  Na  Na0  1  0.99320559  0.99442378  0.50316990  1
  Na  Na1  1  0.00121818  0.99442378  0.00316990  1
  Na  Na2  1  0.66243139  0.32665909  0.83662039  1
  Na  Na3  1  0.66422870  0.32665909  0.33662039  1
  Na  Na4  1  0.33131697  0.67062744  0.17014522  1
  Na  Na5  1  0.33930947  0.67062744  0.67014522  1
  Ti  Ti0  1  0.00610039  0.00069158  0.35304290  1
  Ti  Ti1  1  0.99459120  0.00069158  0.85304290  1
  Ti  Ti2  1  0.66731722  0.33409334  0.68628047  1
  Ti  Ti3  1  0.66677711  0.33409334  0.18628047  1
  Ti  Ti4  1  0.32031491  0.67579051  0.01977152  1
  Ti  Ti5  1  0.35547460  0.67579051  0.51977152  1
  Zn  Zn0  1  0.98822022  0.99289589  0.64865199  1
  Zn  Zn1  1  0.00467567  0.99289589  0.14865199  1
  Zn  Zn2  1  0.66467191  0.33375433  0.98220487  1
  Zn  Zn3  1  0.66908342  0.33375433  0.48220487  1
  Zn  Zn4  1  0.33667376  0.67902292  0.31559460  1
  Zn  Zn5  1  0.34234816  0.67902292  0.81559460  1
  P  P0  1  0.29147614  0.99914723  0.24836389  1
  P  P1  1  0.70767109  0.99914723  0.74836389  1
  P  P2  1  0.67160245  0.62217384  0.58160663  1
  P  P3  1  0.95057239  0.62217384  0.08160663  1
  P  P4  1  0.33440063  0.96382380  0.91448890  1
  P  P5  1  0.62942218  0.96382380  0.41448890  1
  S  S0  1  0.70911534  0.70931097  0.24922352  1
  S  S1  1  0.00056699  0.28989372  0.24909421  1
  S  S2  1  0.28932673  0.28989372  0.74909421  1
  S  S3  1  0.00019563  0.70931097  0.74922352  1
  S  S4  1  0.96043524  0.33592905  0.58245492  1
  S  S5  1  0.37444486  0.04256201  0.58291296  1
  S  S6  1  0.66811816  0.04256201  0.08291296  1
  S  S7  1  0.37549481  0.33592905  0.08245492  1
  S  S8  1  0.62182704  0.66595707  0.91633734  1
  S  S9  1  0.04448476  0.37762958  0.91531067  1
  S  S10  1  0.33314382  0.37762958  0.41531067  1
  S  S11  1  0.04412903  0.66595707  0.41633734  1
  O  O0  1  0.19810667  0.03004654  0.30529225  1
  O  O1  1  0.82298048  0.79301088  0.30342409  1
  O  O2  1  0.96882130  0.17545636  0.30373552  1
  O  O3  1  0.20663506  0.17545636  0.80373552  1
  O  O4  1  0.97003040  0.79301088  0.80342409  1
  O  O5  1  0.83193987  0.03004654  0.80529225  1
  O  O6  1  0.79253759  0.97422955  0.69400494  1
  O  O7  1  0.18635032  0.21051697  0.69556869  1
  O  O8  1  0.03020852  0.81541356  0.69593405  1
  O  O9  1  0.78520504  0.81541356  0.19593405  1
  O  O10  1  0.02416665  0.21051697  0.19556869  1
  O  O11  1  0.18169196  0.97422955  0.19400494  1
  O  O12  1  0.87153270  0.36198705  0.63690814  1
  O  O13  1  0.48985899  0.12458847  0.63722812  1
  O  O14  1  0.63717213  0.49998526  0.63860604  1
  O  O15  1  0.86281412  0.49998526  0.13860604  1
  O  O16  1  0.63473049  0.12458847  0.13722812  1
  O  O17  1  0.49045536  0.36198705  0.13690814  1
  O  O18  1  0.45256973  0.30494401  0.02963854  1
  O  O19  1  0.84557566  0.53755347  0.02634194  1
  O  O20  1  0.69346561  0.14608999  0.02940609  1
  O  O21  1  0.45262538  0.14608999  0.52940609  1
  O  O22  1  0.69197881  0.53755347  0.52634194  1
  O  O23  1  0.85237527  0.30494401  0.52963854  1
  O  O24  1  0.54034450  0.69674643  0.97017133  1
  O  O25  1  0.15730078  0.45967819  0.97006580  1
  O  O26  1  0.30153924  0.83669806  0.97207644  1
  O  O27  1  0.53515781  0.83669806  0.47207644  1
  O  O28  1  0.30237641  0.45967819  0.47006580  1
  O  O29  1  0.15640093  0.69674643  0.47017133  1
  O  O30  1  0.11967714  0.63805441  0.36245013  1
  O  O31  1  0.51563126  0.87767908  0.36099375  1
  O  O32  1  0.35639975  0.48129965  0.36194832  1
  O  O33  1  0.12489891  0.48129965  0.86194832  1
  O  O34  1  0.36204682  0.87767908  0.86099375  1
  O  O35  1  0.51837627  0.63805441  0.86245013  1
  O  O36  1  0.02989462  0.83460725  0.41024149  1
  O  O37  1  0.81497619  0.97266596  0.40861448  1
  O  O38  1  0.16462208  0.19588977  0.41097052  1
  O  O39  1  0.03126769  0.19588977  0.91097052  1
  O  O40  1  0.15768977  0.97266596  0.90861448  1
  O  O41  1  0.80471263  0.83460725  0.91024149  1
  O  O42  1  0.98615459  0.18157487  0.59007229  1
  O  O43  1  0.19676610  0.02055941  0.59136025  1
  O  O44  1  0.82807738  0.80992081  0.58861511  1
  O  O45  1  0.98184343  0.80992081  0.08861511  1
  O  O46  1  0.82379331  0.02055941  0.09136025  1
  O  O47  1  0.19542027  0.18157487  0.09007229  1
  O  O48  1  0.69558034  0.17583928  0.74196441  1
  O  O49  1  0.47092252  0.30380092  0.74421259  1
  O  O50  1  0.83087610  0.52896206  0.74414158  1
  O  O51  1  0.69808696  0.52896206  0.24414158  1
  O  O52  1  0.83287940  0.30380092  0.24421259  1
  O  O53  1  0.48025995  0.17583928  0.24196441  1
  O  O54  1  0.65037475  0.51316400  0.92266616  1
  O  O55  1  0.86494499  0.35217620  0.92239585  1
  O  O56  1  0.49516944  0.14695220  0.92469436  1
  O  O57  1  0.65178376  0.14695220  0.42469436  1
  O  O58  1  0.48723221  0.35217620  0.42239585  1
  O  O59  1  0.86279026  0.51316400  0.42266616  1
  O  O60  1  0.36616788  0.50379636  0.07773434  1
  O  O61  1  0.14205738  0.63450902  0.07566156  1
  O  O62  1  0.50101717  0.86031889  0.07778289  1
  O  O63  1  0.35930073  0.86031889  0.57778289  1
  O  O64  1  0.49245064  0.63450902  0.57566156  1
  O  O65  1  0.13762748  0.50379636  0.57773434  1
  O  O66  1  0.31660416  0.83886265  0.25595775  1
  O  O67  1  0.52806334  0.67970776  0.25669777  1
  O  O68  1  0.15635008  0.46832851  0.25714754  1
  O  O69  1  0.31197743  0.46832851  0.75714754  1
  O  O70  1  0.15164342  0.67970776  0.75669777  1
  O  O71  1  0.52225749  0.83886265  0.75595775  1
loop_
_geom_bond_atom_site_label_1
_geom_bond_atom_site_label_2
_geom_bond_distance
_geom_bond_site_symmetry_2
Na0 O44 2.447493 1_555
Na0 O42 2.560958 1_565
Na0 O37 2.580035 1_555
Na0 O43 2.588280 1_665
Na0 O36 2.614509 1_655
Na0 O38 2.634173 1_665
Na1 O45 2.447493 1_455
Na1 O47 2.560958 1_565
Na1 O40 2.580035 1_554
Na1 O46 2.588280 1_465
Na1 O41 2.614509 1_454
Na1 O39 2.634173 1_564
Na2 O56 2.484874 1_555
Na2 O55 2.542322 1_555
Na2 O54 2.557725 1_555
Na2 O48 2.589884 1_555
Na2 O49 2.605203 1_555
Na2 O50 2.636057 1_555
Na3 O57 2.484874 1_555
Na3 O58 2.542322 1_555
Na3 O59 2.557725 1_555
Na3 O53 2.589884 1_555
Na3 O52 2.605203 1_555
Na3 O51 2.636057 1_555
Na4 O66 2.461432 1_555
Na4 O68 2.553505 1_555
Na4 O67 2.562899 1_555
Na4 O62 2.596666 1_555
Na4 O61 2.606703 1_555
Na4 O60 2.635350 1_555
Na5 O71 2.461432 1_555
Na5 O69 2.553505 1_555
Na5 O70 2.562899 1_555
Na5 O63 2.596666 1_555
Na5 O64 2.606703 1_555
Na5 O65 2.635350 1_555
O0 P0 1.607503 1_545
O0 Ti0 1.886160 1_555
O1 S0 1.507588 1_555
O1 Ti0 2.034747 1_665
O2 S1 1.513142 1_655
O2 Ti0 2.024419 1_655
O3 S2 1.513142 1_555
O3 Ti1 2.024419 1_455
O4 S3 1.507588 1_655
O4 Ti1 2.034747 1_565
O5 P1 1.607503 1_545
O5 Ti1 1.886160 1_555
O6 P1 1.497566 1_555
O6 Zn0 1.913600 1_555
O7 S2 1.451846 1_555
O7 Zn0 2.090759 1_445
O8 S3 1.450663 1_555
O8 Zn0 2.041797 1_455
O9 S0 1.450663 1_555
O9 Zn1 2.041797 1_655
O10 S1 1.451846 1_555
O10 Zn1 2.090759 1_545
O11 P0 1.497566 1_555
O11 Zn1 1.913600 1_555
O12 S4 1.523136 1_555
O12 Ti2 1.997243 1_555
O13 S5 1.513175 1_555
O13 Ti2 2.019805 1_555
O14 P2 1.590516 1_555
O14 Ti2 1.908774 1_555
O15 P3 1.590516 1_555
O15 Ti3 1.908774 1_555
O16 S6 1.513175 1_555
O16 Ti3 2.019805 1_555
O17 S7 1.523136 1_555
O17 Ti3 1.997243 1_555
O18 S7 1.452743 1_555
O18 Zn2 2.027958 1_554
O19 P3 1.498843 1_555
O19 Zn2 1.945779 1_554
O20 S6 1.448651 1_555
O20 Zn2 2.054019 1_554
O21 S5 1.448651 1_555
O21 Zn3 2.054019 1_555
O22 P2 1.498843 1_555
O22 Zn3 1.945779 1_555
O23 S4 1.452743 1_555
O23 Zn3 2.027958 1_555
O24 S8 1.491961 1_555
O24 Ti4 2.135203 1_556
O25 S9 1.511848 1_555
O25 Ti4 2.024937 1_556
O26 P4 1.627833 1_555
O26 Ti4 1.825662 1_556
O27 P5 1.627833 1_555
O27 Ti5 1.825662 1_555
O28 S10 1.511848 1_555
O28 Ti5 2.024937 1_555
O29 S11 1.491961 1_555
O29 Ti5 2.135203 1_555
O30 S11 1.454742 1_555
O30 Zn4 2.024118 1_555
O31 P5 1.497916 1_555
O31 Zn4 1.932600 1_555
O32 S10 1.449594 1_555
O32 Zn4 2.079075 1_555
O33 S9 1.449594 1_555
O33 Zn5 2.079075 1_555
O34 P4 1.497916 1_555
O34 Zn5 1.932600 1_555
O35 S8 1.454742 1_555
O35 Zn5 2.024118 1_555
O36 S11 1.528771 1_555
O36 Ti0 2.012192 1_565
O37 P5 1.574447 1_555
O37 Ti0 1.989212 1_665
O38 S10 1.519883 1_555
O38 Ti0 2.029703 1_555
O39 S9 1.519887 1_555
O39 Ti1 2.029703 1_455
O40 P4 1.574438 1_555
O40 Ti1 1.989212 1_465
O41 S8 1.528776 1_555
O41 Ti1 2.012192 1_565
O42 S4 1.467865 1_555
O42 Zn0 2.102025 1_545
O43 S5 1.464117 1_555
O43 Zn0 2.131752 1_445
O44 P2 1.513913 1_555
O44 Zn0 2.015417 1_555
O45 P3 1.513916 1_555
O45 Zn1 2.015417 1_655
O46 S6 1.464109 1_555
O46 Zn1 2.131752 1_645
O47 S7 1.467870 1_555
O47 Zn1 2.102025 1_545
O48 P1 1.588197 1_545
O48 Ti2 1.956930 1_555
O49 S2 1.518871 1_555
O49 Ti2 2.052076 1_555
O50 S3 1.517577 1_655
O50 Ti2 2.039134 1_555
O51 S0 1.517581 1_555
O51 Ti3 2.039134 1_555
O52 S1 1.518862 1_655
O52 Ti3 2.052077 1_555
O53 P0 1.588202 1_545
O53 Ti3 1.956930 1_555
O54 S8 1.466536 1_555
O54 Zn2 2.097451 1_555
O55 S9 1.464743 1_655
O55 Zn2 2.136538 1_555
O56 P4 1.513138 1_545
O56 Zn2 2.017703 1_555
O57 P5 1.513131 1_545
O57 Zn3 2.017703 1_555
O58 S10 1.464760 1_555
O58 Zn3 2.136538 1_555
O59 S11 1.466525 1_655
O59 Zn3 2.097451 1_555
O60 S7 1.496304 1_555
O60 Ti4 2.156867 1_555
O61 P3 1.611913 1_455
O61 Ti4 1.880714 1_555
O62 S6 1.518210 1_565
O62 Ti4 2.050655 1_555
O63 S5 1.518203 1_565
O63 Ti5 2.050655 1_555
O64 P2 1.611930 1_555
O64 Ti5 1.880714 1_555
O65 S4 1.496295 1_455
O65 Ti5 2.156867 1_555
O66 P0 1.515202 1_555
O66 Zn4 1.993318 1_555
O67 S0 1.465286 1_555
O67 Zn4 2.119285 1_555
O68 S1 1.465446 1_555
O68 Zn4 2.155489 1_555
O69 S2 1.465450 1_555
O69 Zn5 2.155489 1_555
O70 S3 1.465277 1_555
O70 Zn5 2.119285 1_555
O71 P1 1.515207 1_555
O71 Zn5 1.993318 1_555
