# generated using pymatgen
data_Na2Nb4Si5SO24
_symmetry_space_group_name_H-M   'P 1'
_cell_length_a   8.90340179
_cell_length_b   8.93011756
_cell_length_c   23.02497310
_cell_angle_alpha   90.03301017
_cell_angle_beta   90.04297845
_cell_angle_gamma   120.07110779
_symmetry_Int_Tables_number   1
_chemical_formula_structural   Na2Nb4Si5SO24
_chemical_formula_sum   'Na6 Nb12 Si15 S3 O72'
_cell_volume   1584.27619214
_cell_formula_units_Z   3
loop_
 _symmetry_equiv_pos_site_id
 _symmetry_equiv_pos_as_xyz
  1  'x, y, z'
loop_
 _atom_site_type_symbol
 _atom_site_label
 _atom_site_symmetry_multiplicity
 _atom_site_fract_x
 _atom_site_fract_y
 _atom_site_fract_z
 _atom_site_occupancy
  Na  Na0  1  0.00133445  0.99773672  0.50155619  1
  Na  Na1  1  0.00382106  0.99723400  0.99722163  1
  Na  Na2  1  0.66364508  0.32767332  0.82983601  1
  Na  Na3  1  0.67007490  0.33408829  0.33972060  1
  Na  Na4  1  0.33077025  0.65864112  0.16799174  1
  Na  Na5  1  0.33558493  0.66562643  0.66368003  1
  Nb  Nb0  1  0.98432280  0.99685043  0.35979697  1
  Nb  Nb1  1  0.00566084  0.01389725  0.85615587  1
  Nb  Nb2  1  0.99561121  0.01134476  0.64158340  1
  Nb  Nb3  1  0.99904614  0.00364750  0.14541850  1
  Nb  Nb4  1  0.65694457  0.32306345  0.68514174  1
  Nb  Nb5  1  0.67959267  0.35622912  0.18932515  1
  Nb  Nb6  1  0.66012704  0.34325975  0.97454655  1
  Nb  Nb7  1  0.66790862  0.33580872  0.47880349  1
  Nb  Nb8  1  0.32421234  0.65611782  0.01878521  1
  Nb  Nb9  1  0.33321299  0.66586342  0.52246802  1
  Nb  Nb10  1  0.33261746  0.65513427  0.31580904  1
  Nb  Nb11  1  0.34160010  0.66703121  0.81218842  1
  Si  Si0  1  0.71050127  0.71980343  0.25078741  1
  Si  Si1  1  0.00013017  0.28833363  0.25054036  1
  Si  Si2  1  0.28970755  0.28904780  0.74942178  1
  Si  Si3  1  0.71311180  0.00315021  0.74980301  1
  Si  Si4  1  0.95306825  0.33960468  0.58316297  1
  Si  Si5  1  0.37561260  0.04238512  0.58159977  1
  Si  Si6  1  0.66698071  0.61989698  0.58381939  1
  Si  Si7  1  0.95804953  0.62522057  0.08195109  1
  Si  Si8  1  0.37985851  0.33481928  0.08369887  1
  Si  Si9  1  0.62363077  0.67485658  0.91697579  1
  Si  Si10  1  0.04281534  0.38076602  0.91488449  1
  Si  Si11  1  0.33171229  0.95038820  0.91651925  1
  Si  Si12  1  0.61106249  0.95410013  0.41730642  1
  Si  Si13  1  0.33457744  0.37580567  0.41872778  1
  Si  Si14  1  0.04672648  0.66649601  0.41680360  1
  S  S0  1  0.28891642  0.00056354  0.24946915  1
  S  S1  1  -0.00005325  0.71312610  0.75022378  1
  S  S2  1  0.66530686  0.04642922  0.08372096  1
  O  O0  1  0.21251444  0.03011283  0.30144939  1
  O  O1  1  0.83557406  0.80443874  0.30665265  1
  O  O2  1  0.97421834  0.16522044  0.30601628  1
  O  O3  1  0.19624165  0.16763029  0.80703499  1
  O  O4  1  0.97591903  0.79404854  0.80332470  1
  O  O5  1  0.83348934  0.02270985  0.80698730  1
  O  O6  1  0.80377124  0.97004929  0.69331992  1
  O  O7  1  0.16615454  0.19025047  0.69360970  1
  O  O8  1  0.02662778  0.81771590  0.69774317  1
  O  O9  1  0.81143615  0.83396911  0.19296996  1
  O  O10  1  0.02688874  0.19323683  0.19280640  1
  O  O11  1  0.18004830  0.97618397  0.19605868  1
  O  O12  1  0.86126334  0.36176480  0.64154054  1
  O  O13  1  0.49735958  0.13413709  0.64016766  1
  O  O14  1  0.63842668  0.49831635  0.64113118  1
  O  O15  1  0.86513371  0.50275377  0.14020463  1
  O  O16  1  0.64289678  0.12686464  0.13675162  1
  O  O17  1  0.50111351  0.35445295  0.14041809  1
  O  O18  1  0.47050287  0.30315671  0.02687884  1
  O  O19  1  0.83240062  0.52507855  0.02691544  1
  O  O20  1  0.69509654  0.15059221  0.03121116  1
  O  O21  1  0.46786166  0.16699692  0.52578603  1
  O  O22  1  0.69729145  0.53000188  0.52650688  1
  O  O23  1  0.83241735  0.30318607  0.52592019  1
  O  O24  1  0.53067383  0.69762576  0.97484858  1
  O  O25  1  0.16444784  0.46720009  0.97360509  1
  O  O26  1  0.30472713  0.83060533  0.97446341  1
  O  O27  1  0.52867002  0.83172216  0.47368181  1
  O  O28  1  0.29956285  0.46651292  0.47375915  1
  O  O29  1  0.16807293  0.69813674  0.47346191  1
  O  O30  1  0.13961040  0.63891314  0.35852734  1
  O  O31  1  0.49908659  0.86015468  0.35803713  1
  O  O32  1  0.36299081  0.49650839  0.35969097  1
  O  O33  1  0.13448115  0.50119292  0.85901009  1
  O  O34  1  0.36282559  0.86048025  0.85973564  1
  O  O35  1  0.50007962  0.63572035  0.85984767  1
  O  O36  1  0.02969186  0.83968745  0.40642305  1
  O  O37  1  0.80558629  0.97211713  0.40995914  1
  O  O38  1  0.16363530  0.18629235  0.40641396  1
  O  O39  1  0.02686539  0.19023706  0.91032974  1
  O  O40  1  0.16156467  0.97150946  0.90871057  1
  O  O41  1  0.81641648  0.83771088  0.90874941  1
  O  O42  1  0.97209668  0.16532177  0.58981340  1
  O  O43  1  0.18558739  0.02240648  0.59281125  1
  O  O44  1  0.83981664  0.81003825  0.59280294  1
  O  O45  1  0.97493236  0.81446748  0.09216901  1
  O  O46  1  0.82507274  0.02744998  0.08990567  1
  O  O47  1  0.18654463  0.16322636  0.09228743  1
  O  O48  1  0.69668350  0.17655085  0.74438990  1
  O  O49  1  0.48398986  0.31411135  0.74429345  1
  O  O50  1  0.84403365  0.53806545  0.74556225  1
  O  O51  1  0.68909938  0.52395035  0.24249507  1
  O  O52  1  0.82238562  0.29940422  0.24012158  1
  O  O53  1  0.46452627  0.15592462  0.24098452  1
  O  O54  1  0.63833258  0.49823322  0.92330877  1
  O  O55  1  0.85096503  0.35460603  0.92661835  1
  O  O56  1  0.50396178  0.14163706  0.92669744  1
  O  O57  1  0.64023167  0.14691196  0.42221743  1
  O  O58  1  0.50634284  0.35898258  0.42246441  1
  O  O59  1  0.85563788  0.49692916  0.42255261  1
  O  O60  1  0.36293668  0.50785218  0.07714794  1
  O  O61  1  0.15089345  0.64695944  0.07718582  1
  O  O62  1  0.51208726  0.87038287  0.07884905  1
  O  O63  1  0.35975406  0.85391056  0.57656896  1
  O  O64  1  0.49673305  0.64046535  0.57659567  1
  O  O65  1  0.14584623  0.50555470  0.57721533  1
  O  O66  1  0.30480859  0.84400766  0.25322182  1
  O  O67  1  0.51800636  0.69603623  0.25478432  1
  O  O68  1  0.16766111  0.48284521  0.25538713  1
  O  O69  1  0.30313784  0.47799687  0.75753736  1
  O  O70  1  0.15752197  0.69477487  0.75638717  1
  O  O71  1  0.51893371  0.83176084  0.75751945  1
loop_
_geom_bond_atom_site_label_1
_geom_bond_atom_site_label_2
_geom_bond_distance
_geom_bond_site_symmetry_2
Na0 O43 2.605116 1_565
Na0 O42 2.612404 1_465
Na0 O44 2.623842 1_455
Na0 O37 2.670596 1_455
Na0 O36 2.684807 1_555
Na0 O38 2.700538 1_565
Na1 O40 2.550618 1_555
Na1 O41 2.563701 1_455
Na1 O39 2.581787 1_565
Na1 O45 2.663372 1_456
Na1 O47 2.685033 1_566
Na1 O46 2.755816 1_466
Na2 O48 2.484767 1_555
Na2 O49 2.500690 1_555
Na2 O50 2.619060 1_555
Na2 O54 2.709914 1_555
Na2 O55 2.719741 1_555
Na2 O56 2.719787 1_555
Na3 O57 2.455996 1_555
Na3 O59 2.462936 1_555
Na3 O58 2.476421 1_555
Na3 O52 2.760205 1_555
Na3 O51 2.762592 1_555
Na3 O53 2.849651 1_555
Na4 O67 2.514054 1_555
Na4 O68 2.519135 1_555
Na4 O60 2.579629 1_555
Na4 O61 2.602786 1_555
Na4 O66 2.650486 1_555
Na4 O62 2.710104 1_555
Na5 O65 2.536198 1_555
Na5 O64 2.540944 1_555
Na5 O63 2.557010 1_555
Na5 O69 2.661043 1_555
Na5 O71 2.664252 1_555
Na5 O70 2.748738 1_555
Nb0 O37 1.888389 1_555
Nb0 O38 1.962535 1_665
Nb0 O36 1.963339 1_655
Nb0 O1 1.979476 1_555
Nb0 O2 1.984872 1_565
Nb0 O0 2.328218 1_665
Nb1 O3 1.926986 1_555
Nb1 O5 1.938058 1_455
Nb1 O39 1.941846 1_555
Nb1 O40 2.014663 1_545
Nb1 O41 2.032100 1_445
Nb1 O4 2.209084 1_445
Nb2 O42 1.909300 1_555
Nb2 O6 1.960795 1_545
Nb2 O7 1.963925 1_655
Nb2 O44 1.978295 1_545
Nb2 O43 1.991813 1_655
Nb2 O8 2.284462 1_645
Nb3 O10 1.922307 1_655
Nb3 O9 1.937277 1_545
Nb3 O47 1.983726 1_655
Nb3 O45 2.009264 1_545
Nb3 O46 2.098925 1_555
Nb3 O11 2.100075 1_645
Nb4 O13 1.879100 1_555
Nb4 O14 1.939980 1_555
Nb4 O12 1.951824 1_555
Nb4 O49 2.027929 1_555
Nb4 O48 2.040412 1_555
Nb4 O50 2.277015 1_555
Nb5 O15 1.886407 1_555
Nb5 O51 1.902608 1_555
Nb5 O17 1.940490 1_555
Nb5 O52 1.971482 1_555
Nb5 O53 2.203255 1_555
Nb5 O16 2.256836 1_555
Nb6 O54 1.901417 1_555
Nb6 O18 1.956564 1_556
Nb6 O56 1.968620 1_555
Nb6 O19 1.985455 1_556
Nb6 O55 1.986317 1_555
Nb6 O20 2.301797 1_556
Nb7 O22 1.955740 1_555
Nb7 O23 1.957728 1_555
Nb7 O21 1.982197 1_555
Nb7 O58 2.022534 1_555
Nb7 O59 2.033889 1_555
Nb7 O57 2.045531 1_555
Nb8 O25 1.882162 1_554
Nb8 O26 1.942157 1_554
Nb8 O24 1.964743 1_554
Nb8 O61 2.018128 1_555
Nb8 O60 2.033853 1_555
Nb8 O62 2.271068 1_555
Nb9 O27 1.976302 1_555
Nb9 O29 1.985100 1_555
Nb9 O28 1.994858 1_555
Nb9 O63 2.006740 1_555
Nb9 O65 2.008295 1_555
Nb9 O64 2.013155 1_555
Nb10 O32 1.867014 1_555
Nb10 O30 1.922143 1_555
Nb10 O31 1.941781 1_555
Nb10 O68 2.046855 1_555
Nb10 O67 2.057191 1_555
Nb10 O66 2.324560 1_555
Nb11 O35 1.914867 1_555
Nb11 O34 1.972034 1_555
Nb11 O71 1.979599 1_555
Nb11 O69 1.991971 1_555
Nb11 O33 2.005993 1_555
Nb11 O70 2.191425 1_555
O0 S0 1.464764 1_555
O1 Si0 1.618370 1_555
O2 Si1 1.625235 1_655
O3 Si2 1.651345 1_555
O4 S1 1.489010 1_655
O5 Si3 1.650097 1_555
O6 Si3 1.634170 1_565
O7 Si2 1.632132 1_555
O8 S1 1.472519 1_555
O9 Si0 1.644508 1_555
O10 Si1 1.657400 1_555
O11 S0 1.511854 1_565
O12 Si4 1.636284 1_555
O13 Si5 1.664725 1_555
O14 Si6 1.646308 1_555
O15 Si7 1.666178 1_555
O16 S2 1.479749 1_555
O17 Si8 1.646115 1_555
O18 Si8 1.634840 1_555
O19 Si7 1.628189 1_555
O20 S2 1.466935 1_555
O21 Si5 1.628405 1_555
O22 Si6 1.635571 1_555
O23 Si4 1.626075 1_555
O24 Si9 1.634600 1_555
O25 Si10 1.659962 1_555
O26 Si11 1.651210 1_555
O27 Si12 1.617720 1_555
O28 Si13 1.615964 1_555
O29 Si14 1.624959 1_555
O30 Si14 1.658448 1_555
O31 Si12 1.648802 1_555
O32 Si13 1.674077 1_555
O33 Si10 1.612857 1_555
O34 Si11 1.628801 1_555
O35 Si9 1.635369 1_555
O36 Si14 1.645481 1_555
O37 Si12 1.665917 1_555
O38 Si13 1.636591 1_555
O39 Si10 1.638205 1_555
O40 Si11 1.627507 1_555
O41 Si9 1.611298 1_555
O42 Si4 1.654964 1_555
O43 Si5 1.630677 1_555
O44 Si6 1.635397 1_555
O45 Si7 1.636749 1_555
O46 S2 1.521094 1_555
O47 Si8 1.645401 1_555
O48 Si3 1.631539 1_555
O49 Si2 1.633555 1_555
O50 S1 1.485679 1_655
O51 Si0 1.672516 1_555
O52 Si1 1.651657 1_655
O53 S0 1.494831 1_555
O54 Si9 1.653272 1_555
O55 Si10 1.626688 1_655
O56 Si11 1.642519 1_545
O57 Si12 1.611379 1_545
O58 Si13 1.612073 1_555
O59 Si14 1.619818 1_655
O60 Si8 1.632986 1_555
O61 Si7 1.632169 1_455
O62 S2 1.481695 1_565
O63 Si5 1.621041 1_565
O64 Si6 1.624091 1_555
O65 Si4 1.616300 1_455
O66 S0 1.476628 1_565
O67 Si0 1.620664 1_555
O68 Si1 1.630202 1_555
O69 Si2 1.641258 1_555
O70 S1 1.498471 1_555
O71 Si3 1.646824 1_565
