# generated using pymatgen
data_Cr2ReO6
_symmetry_space_group_name_H-M   'P 1'
_cell_length_a   4.61020600
_cell_length_b   4.61020600
_cell_length_c   9.16008800
_cell_angle_alpha   90.00000000
_cell_angle_beta   90.00000000
_cell_angle_gamma   90.00000000
_symmetry_Int_Tables_number   1
_chemical_formula_structural   Cr2ReO6
_chemical_formula_sum   'Cr4 Re2 O12'
_cell_volume   194.68850451
_cell_formula_units_Z   2
loop_
 _symmetry_equiv_pos_site_id
 _symmetry_equiv_pos_as_xyz
  1  'x, y, z'
loop_
 _atom_site_type_symbol
 _atom_site_label
 _atom_site_symmetry_multiplicity
 _atom_site_fract_x
 _atom_site_fract_y
 _atom_site_fract_z
 _atom_site_occupancy
  Cr  Cr0  1  0.00000000  0.00000000  0.33407100  1
  Cr  Cr1  1  0.50000000  0.50000000  0.83407100  1
  Cr  Cr2  1  0.00000000  0.00000000  0.66592900  1
  Cr  Cr3  1  0.50000000  0.50000000  0.16592900  1
  Re  Re0  1  0.00000000  0.00000000  0.00000000  1
  Re  Re1  1  0.50000000  0.50000000  0.50000000  1
  O  O0  1  0.69217600  0.69217600  0.66198400  1
  O  O1  1  0.30782400  0.30782400  0.66198400  1
  O  O2  1  0.69217600  0.69217600  0.33801600  1
  O  O3  1  0.19217600  0.80782400  0.16198400  1
  O  O4  1  0.80782400  0.19217600  0.16198400  1
  O  O5  1  0.80782400  0.19217600  0.83801600  1
  O  O6  1  0.29480900  0.29480900  0.00000000  1
  O  O7  1  0.20519100  0.79480900  0.50000000  1
  O  O8  1  0.79480900  0.20519100  0.50000000  1
  O  O9  1  0.19217600  0.80782400  0.83801600  1
  O  O10  1  0.30782400  0.30782400  0.33801600  1
  O  O11  1  0.70519100  0.70519100  0.00000000  1
loop_
_geom_bond_atom_site_label_1
_geom_bond_atom_site_label_2
_geom_bond_distance
_geom_bond_site_symmetry_2
Cr0 O2 2.007281 1_445
Cr0 O10 2.007281 1_555
Cr0 O3 2.013631 1_545
Cr0 O4 2.013631 1_455
Cr0 O8 2.024821 1_455
Cr0 O7 2.024821 1_545
Cr1 O5 2.007281 1_555
Cr1 O9 2.007281 1_555
Cr1 O1 2.013631 1_555
Cr1 O0 2.013631 1_555
Cr1 O6 2.024821 1_556
Cr1 O11 2.024821 1_556
Cr2 O0 2.007281 1_445
Cr2 O1 2.007281 1_555
Cr2 O9 2.013631 1_545
Cr2 O5 2.013631 1_455
Cr2 O8 2.024821 1_455
Cr2 O7 2.024821 1_545
Cr3 O3 2.007281 1_555
Cr3 O4 2.007281 1_555
Cr3 O10 2.013631 1_555
Cr3 O2 2.013631 1_555
Cr3 O11 2.024821 1_555
Cr3 O6 2.024821 1_555
O0 Re1 1.942039 1_555
O1 Re1 1.942039 1_555
O2 Re1 1.942039 1_555
O3 Re0 1.942039 1_565
O4 Re0 1.942039 1_655
O5 Re0 1.942039 1_656
O6 Re0 1.922100 1_555
O7 Re1 1.922100 1_555
O8 Re1 1.922100 1_555
O9 Re0 1.942039 1_566
O10 Re1 1.942039 1_555
O11 Re0 1.922100 1_665
