# generated using pymatgen
data_CsCuCl3
_symmetry_space_group_name_H-M   'P 1'
_cell_length_a   7.44686057
_cell_length_b   7.27283726
_cell_length_c   6.47977483
_cell_angle_alpha   89.07892484
_cell_angle_beta   91.92712137
_cell_angle_gamma   120.78409151
_symmetry_Int_Tables_number   1
_chemical_formula_structural   CsCuCl3
_chemical_formula_sum   'Cs2 Cu2 Cl6'
_cell_volume   301.32535201
_cell_formula_units_Z   2
loop_
 _symmetry_equiv_pos_site_id
 _symmetry_equiv_pos_as_xyz
  1  'x, y, z'
loop_
 _atom_site_type_symbol
 _atom_site_label
 _atom_site_symmetry_multiplicity
 _atom_site_fract_x
 _atom_site_fract_y
 _atom_site_fract_z
 _atom_site_occupancy
  Cs  Cs0  1  0.66031768  0.32015076  0.27205308  1
  Cs  Cs1  1  0.34034860  0.67986563  0.77162796  1
  Cu  Cu0  1  0.00007959  0.00021152  0.02060672  1
  Cu  Cu1  1  0.99983145  0.99977075  0.52060651  1
  Cl  Cl0  1  0.85206478  0.16720115  0.84103326  1
  Cl  Cl1  1  0.13656872  0.27344434  0.27125598  1
  Cl  Cl2  1  0.68476153  0.83288278  0.34061346  1
  Cl  Cl3  1  0.14799126  0.83326047  0.20066180  1
  Cl  Cl4  1  0.86320688  0.72654875  0.77045459  1
  Cl  Cl5  1  0.31482952  0.16666385  0.70108465  1
loop_
_geom_bond_atom_site_label_1
_geom_bond_atom_site_label_2
_geom_bond_distance
_geom_bond_site_symmetry_2
Cl0 Cu0 2.298359 1_656
Cl0 Cu1 2.934481 1_545
Cl0 Cs0 3.615337 1_556
Cl0 Cs1 3.660132 1_545
Cl0 Cs1 3.674830 1_655
Cl1 Cu1 2.354095 1_445
Cl1 Cu0 2.354803 1_555
Cl1 Cs0 3.732033 1_455
Cl1 Cs0 3.737671 1_555
Cl2 Cu1 2.298902 1_555
Cl2 Cu0 2.935252 1_665
Cl2 Cs1 3.616212 1_555
Cl2 Cs0 3.659702 1_565
Cl2 Cs0 3.672746 1_555
Cl3 Cu0 2.299087 1_565
Cl3 Cu1 2.929866 1_455
Cl3 Cs1 3.609504 1_554
Cl3 Cs0 3.662534 1_565
Cl3 Cs0 3.676135 1_455
Cl4 Cu1 2.354282 1_555
Cl4 Cu0 2.354504 1_666
Cl4 Cs1 3.731567 1_555
Cl4 Cs1 3.738125 1_655
Cl5 Cu1 2.300025 1_445
Cl5 Cu0 2.930425 1_556
Cl5 Cs0 3.610464 1_555
Cl5 Cs1 3.662013 1_545
Cl5 Cs1 3.674109 1_555
