# generated using pymatgen
data_V2(PO4)3
_symmetry_space_group_name_H-M   'P 1'
_cell_length_a   8.36483600
_cell_length_b   8.36601694
_cell_length_c   8.70500478
_cell_angle_alpha   90.42694145
_cell_angle_beta   117.91581785
_cell_angle_gamma   119.63552152
_symmetry_Int_Tables_number   1
_chemical_formula_structural   V2(PO4)3
_chemical_formula_sum   'V4 P6 O24'
_cell_volume   444.65771726
_cell_formula_units_Z   2
loop_
 _symmetry_equiv_pos_site_id
 _symmetry_equiv_pos_as_xyz
  1  'x, y, z'
loop_
 _atom_site_type_symbol
 _atom_site_label
 _atom_site_symmetry_multiplicity
 _atom_site_fract_x
 _atom_site_fract_y
 _atom_site_fract_z
 _atom_site_occupancy
  V  V0  1  0.21822100  0.86309000  0.08111700  1
  V  V1  1  0.20972300  0.36032900  0.56627900  1
  V  V2  1  0.79027700  0.63967100  0.43372100  1
  V  V3  1  0.78177900  0.13691000  0.91888300  1
  P  P0  1  0.99285000  0.96840900  0.24528400  1
  P  P1  1  0.00715000  0.03159100  0.75471600  1
  P  P2  1  0.71727500  0.24682100  0.25571900  1
  P  P3  1  0.28272500  0.75317900  0.74428100  1
  P  P4  1  0.27656300  0.52915700  0.25172700  1
  P  P5  1  0.72343700  0.47084300  0.74827300  1
  O  O0  1  0.13884100  0.01719700  0.94518400  1
  O  O1  1  0.23383700  0.52261800  0.40567000  1
  O  O2  1  0.86115900  0.98280300  0.05481600  1
  O  O3  1  0.49488000  0.08981700  0.23039700  1
  O  O4  1  0.86773200  0.09820000  0.76735000  1
  O  O5  1  0.73835700  0.44144900  0.26901400  1
  O  O6  1  0.15588800  0.16953600  0.38955800  1
  O  O7  1  0.76616300  0.47738200  0.59433000  1
  O  O8  1  0.70920600  0.18722400  0.08285500  1
  O  O9  1  0.26164300  0.55855100  0.73098600  1
  O  O10  1  0.10490300  0.75032600  0.57142200  1
  O  O11  1  0.31232500  0.72166400  0.21046700  1
  O  O12  1  0.47615400  0.52855100  0.29824200  1
  O  O13  1  0.16614500  0.17897800  0.70869700  1
  O  O14  1  0.13226800  0.90180000  0.23265000  1
  O  O15  1  0.68767500  0.27833600  0.78953300  1
  O  O16  1  0.50512000  0.91018300  0.76960300  1
  O  O17  1  0.07170900  0.36020100  0.07498300  1
  O  O18  1  0.89509700  0.24967400  0.42857800  1
  O  O19  1  0.29079400  0.81277600  0.91714500  1
  O  O20  1  0.84411200  0.83046400  0.61044200  1
  O  O21  1  0.83385500  0.82102200  0.29130300  1
  O  O22  1  0.92829100  0.63979900  0.92501700  1
  O  O23  1  0.52384600  0.47144900  0.70175800  1
loop_
_geom_bond_atom_site_label_1
_geom_bond_atom_site_label_2
_geom_bond_distance
_geom_bond_site_symmetry_2
O0 P1 1.549515 1_555
O0 V0 1.907077 1_546
O1 P4 1.535165 1_555
O1 V1 1.964756 1_555
O2 P0 1.549515 1_555
O2 V3 1.907077 1_564
O3 P2 1.558773 1_555
O3 V0 1.856972 1_545
O4 P1 1.563505 1_655
O4 V3 1.863805 1_555
O5 P2 1.545910 1_555
O5 V2 1.914060 1_555
O6 P0 1.537461 1_445
O6 V1 1.928990 1_555
O7 P5 1.535165 1_555
O7 V2 1.964756 1_555
O8 P2 1.542061 1_555
O8 V3 1.907410 1_554
O9 P3 1.545910 1_555
O9 V1 1.914060 1_555
O10 P3 1.531639 1_555
O10 V2 1.959666 1_455
O11 P4 1.563656 1_555
O11 V0 1.843471 1_555
O12 P4 1.525377 1_555
O12 V2 1.955924 1_555
O13 P1 1.527778 1_555
O13 V1 1.968742 1_555
O14 P0 1.563505 1_455
O14 V0 1.863805 1_555
O15 P5 1.563656 1_555
O15 V3 1.843471 1_555
O16 P3 1.558773 1_555
O16 V3 1.856972 1_565
O17 P4 1.550817 1_555
O17 V3 1.900995 1_454
O18 P2 1.531639 1_555
O18 V1 1.959666 1_655
O19 P3 1.542061 1_555
O19 V0 1.907410 1_556
O20 P1 1.537461 1_665
O20 V2 1.928990 1_555
O21 P0 1.527778 1_555
O21 V2 1.968742 1_555
O22 P5 1.550817 1_555
O22 V0 1.900995 1_656
O23 P5 1.525377 1_555
O23 V1 1.955924 1_555
