# generated using pymatgen
data_NaLaHfSi(SO6)2
_symmetry_space_group_name_H-M   'P 1'
_cell_length_a   9.23191369
_cell_length_b   9.30619011
_cell_length_c   23.91897005
_cell_angle_alpha   90.23820538
_cell_angle_beta   90.00000000
_cell_angle_gamma   119.73632682
_symmetry_Int_Tables_number   1
_chemical_formula_structural   NaLaHfSi(SO6)2
_chemical_formula_sum   'Na6 La6 Hf6 Si6 S12 O72'
_cell_volume   1784.34800804
_cell_formula_units_Z   6
loop_
 _symmetry_equiv_pos_site_id
 _symmetry_equiv_pos_as_xyz
  1  'x, y, z'
loop_
 _atom_site_type_symbol
 _atom_site_label
 _atom_site_symmetry_multiplicity
 _atom_site_fract_x
 _atom_site_fract_y
 _atom_site_fract_z
 _atom_site_occupancy
  Na  Na0  1  0.03389506  0.01177723  0.49974503  1
  Na  Na1  1  0.97788217  0.01177723  0.99974503  1
  Na  Na2  1  0.70329467  0.33492551  0.83162034  1
  Na  Na3  1  0.63163184  0.33492551  0.33162034  1
  Na  Na4  1  0.34312645  0.70537107  0.16539308  1
  Na  Na5  1  0.36224362  0.70537107  0.66539308  1
  La  La0  1  0.99844205  0.99832815  0.64626388  1
  La  La1  1  0.99988610  0.99832815  0.14626388  1
  La  La2  1  0.67779733  0.32312802  0.97927213  1
  La  La3  1  0.64533170  0.32312802  0.47927213  1
  La  La4  1  0.33679486  0.66897327  0.31279592  1
  La  La5  1  0.33217741  0.66897327  0.81279592  1
  Hf  Hf0  1  0.02280510  0.01324976  0.35219778  1
  Hf  Hf1  1  0.99044466  0.01324976  0.85219778  1
  Hf  Hf2  1  0.65604146  0.30697817  0.68475501  1
  Hf  Hf3  1  0.65093771  0.30697817  0.18475501  1
  Hf  Hf4  1  0.33096019  0.66434984  0.01805392  1
  Hf  Hf5  1  0.33338865  0.66434984  0.51805392  1
  Si  Si0  1  0.30324082  0.01058200  0.24869114  1
  Si  Si1  1  0.70734118  0.01058200  0.74869114  1
  Si  Si2  1  0.37139304  0.01996466  0.58263707  1
  Si  Si3  1  0.64857262  0.01996466  0.08263707  1
  Si  Si4  1  0.04928133  0.36793874  0.91554633  1
  Si  Si5  1  0.31865641  0.36793874  0.41554633  1
  S  S0  1  0.71754039  0.69312732  0.25125253  1
  S  S1  1  0.97794955  0.28386209  0.25152040  1
  S  S2  1  0.30591254  0.28386209  0.75152040  1
  S  S3  1  0.97558694  0.69312732  0.75125253  1
  S  S4  1  0.97042188  0.35543385  0.58341706  1
  S  S5  1  0.64593061  0.61786235  0.58419267  1
  S  S6  1  0.97193274  0.61786235  0.08419267  1
  S  S7  1  0.38501297  0.35543385  0.08341706  1
  S  S8  1  0.63919418  0.68685765  0.91837168  1
  S  S9  1  0.30890389  0.94975352  0.91889564  1
  S  S10  1  0.64084863  0.94975352  0.41889564  1
  S  S11  1  0.04766247  0.68685765  0.41837168  1
  O  O0  1  0.19986367  0.02808448  0.30488029  1
  O  O1  1  0.81812967  0.78601163  0.30157387  1
  O  O2  1  0.96197216  0.17753504  0.30117174  1
  O  O3  1  0.21556288  0.17753504  0.80117174  1
  O  O4  1  0.96788196  0.78601163  0.80157387  1
  O  O5  1  0.82822081  0.02808448  0.80488029  1
  O  O6  1  0.79491453  0.99328174  0.69362863  1
  O  O7  1  0.21101102  0.21206329  0.70008584  1
  O  O8  1  0.00048148  0.78925199  0.70001358  1
  O  O9  1  0.78877051  0.78925199  0.20001358  1
  O  O10  1  0.00105226  0.21206329  0.20008584  1
  O  O11  1  0.19836722  0.99328174  0.19362863  1
  O  O12  1  0.87884966  0.36921123  0.63386814  1
  O  O13  1  0.49419373  0.12841348  0.63839960  1
  O  O14  1  0.63211990  0.51676958  0.63417287  1
  O  O15  1  0.88465068  0.51676958  0.13417287  1
  O  O16  1  0.63422075  0.12841348  0.13839960  1
  O  O17  1  0.49036256  0.36921123  0.13386814  1
  O  O18  1  0.46001263  0.33580611  0.03229470  1
  O  O19  1  0.87444018  0.54838639  0.03291861  1
  O  O20  1  0.67319354  0.13060559  0.02854787  1
  O  O21  1  0.45741305  0.13060559  0.52854787  1
  O  O22  1  0.67394720  0.54838639  0.53291861  1
  O  O23  1  0.87579448  0.33580611  0.53229470  1
  O  O24  1  0.54898377  0.70631740  0.96789711  1
  O  O25  1  0.16619933  0.47286997  0.97132251  1
  O  O26  1  0.30167351  0.84524812  0.96833000  1
  O  O27  1  0.54357361  0.84524812  0.46833000  1
  O  O28  1  0.30666964  0.47286997  0.47132251  1
  O  O29  1  0.15733263  0.70631740  0.46789711  1
  O  O30  1  0.11933758  0.66544284  0.36667347  1
  O  O31  1  0.54181811  0.88434936  0.36762043  1
  O  O32  1  0.33033315  0.46760046  0.35991935  1
  O  O33  1  0.13726632  0.46760046  0.85991935  1
  O  O34  1  0.34253024  0.88434936  0.86762043  1
  O  O35  1  0.54610426  0.66544284  0.86667347  1
  O  O36  1  0.03615590  0.84322065  0.41363202  1
  O  O37  1  0.80096291  0.94798457  0.41406469  1
  O  O38  1  0.14393484  0.18036838  0.40987988  1
  O  O39  1  0.03643354  0.18036838  0.90987988  1
  O  O40  1  0.14702166  0.94798457  0.91406469  1
  O  O41  1  0.80706474  0.84322065  0.91363202  1
  O  O42  1  0.99926905  0.21392610  0.58886778  1
  O  O43  1  0.18352831  0.99037316  0.58620453  1
  O  O44  1  0.78377078  0.78990348  0.58871434  1
  O  O45  1  0.00613271  0.78990348  0.08871434  1
  O  O46  1  0.80684485  0.99037316  0.08620453  1
  O  O47  1  0.21465705  0.21392610  0.08886778  1
  O  O48  1  0.70231369  0.18854509  0.74294819  1
  O  O49  1  0.47339088  0.29357356  0.74656949  1
  O  O50  1  0.81720642  0.52984736  0.74648385  1
  O  O51  1  0.71264194  0.52984736  0.24648385  1
  O  O52  1  0.82018367  0.29357356  0.24656949  1
  O  O53  1  0.48623239  0.18854509  0.24294819  1
  O  O54  1  0.66526002  0.54507969  0.92565922  1
  O  O55  1  0.85981536  0.33658972  0.91569319  1
  O  O56  1  0.44497790  0.12196660  0.92550592  1
  O  O57  1  0.67698971  0.12196660  0.42550592  1
  O  O58  1  0.47677536  0.33658972  0.41569319  1
  O  O59  1  0.87982067  0.54507969  0.42565922  1
  O  O60  1  0.37527228  0.51219320  0.07963592  1
  O  O61  1  0.13823261  0.62353264  0.07825005  1
  O  O62  1  0.47333371  0.83984168  0.07553569  1
  O  O63  1  0.36650697  0.83984168  0.57553569  1
  O  O64  1  0.48529904  0.62353264  0.57825005  1
  O  O65  1  0.13691992  0.51219320  0.57963592  1
  O  O66  1  0.33824431  0.85733381  0.25212135  1
  O  O67  1  0.54470397  0.66293099  0.25499198  1
  O  O68  1  0.11867728  0.45307740  0.25730168  1
  O  O69  1  0.33439911  0.45307740  0.75730168  1
  O  O70  1  0.11822602  0.66293099  0.75499198  1
  O  O71  1  0.51908850  0.85733381  0.75212135  1
loop_
_geom_bond_atom_site_label_1
_geom_bond_atom_site_label_2
_geom_bond_distance
_geom_bond_site_symmetry_2
Na0 O43 2.549716 1_545
Na0 O38 2.561399 1_555
Na0 O36 2.590197 1_545
Na0 O37 2.810717 1_445
Na0 O42 2.957820 1_455
Na0 O44 3.070958 1_445
Na1 O46 2.549716 1_546
Na1 O39 2.561399 1_655
Na1 O41 2.590198 1_545
Na1 O40 2.810717 1_645
Na1 O47 2.957820 1_656
Na1 O45 3.070958 1_646
Na2 O55 2.471766 1_555
Na2 O48 2.513552 1_555
Na2 O50 2.584876 1_555
Na2 O49 2.823937 1_555
Na3 O58 2.471766 1_555
Na3 O53 2.513552 1_555
Na3 O51 2.584876 1_555
Na3 O52 2.823936 1_555
Na4 O62 2.482046 1_555
Na4 O66 2.518762 1_555
Na4 O61 2.657128 1_555
Na4 O60 2.833035 1_555
Na4 O67 2.991356 1_555
Na5 O63 2.482046 1_555
Na5 O71 2.518762 1_555
Na5 O64 2.657128 1_555
Na5 O65 2.833035 1_555
Na5 O70 2.991356 1_555
La0 O6 2.174640 1_555
La0 O43 2.261291 1_655
La0 O8 2.344380 1_655
La0 O7 2.360350 1_665
La0 O44 2.397731 1_555
La0 O42 2.432719 1_565
La1 O11 2.174640 1_655
La1 O46 2.261291 1_555
La1 O9 2.344380 1_555
La1 O10 2.360350 1_665
La1 O45 2.397731 1_655
La1 O47 2.432719 1_665
La2 O20 2.131430 1_556
La2 O55 2.223683 1_555
La2 O19 2.353515 1_556
La2 O56 2.401375 1_555
La2 O18 2.428752 1_556
La2 O54 2.486652 1_555
La3 O21 2.131430 1_555
La3 O58 2.223683 1_555
La3 O22 2.353515 1_555
La3 O57 2.401375 1_555
La3 O23 2.428752 1_555
La3 O59 2.486652 1_555
La4 O32 2.166242 1_555
La4 O66 2.275298 1_555
La4 O31 2.352491 1_555
La4 O30 2.372126 1_555
La4 O67 2.388574 1_555
La4 O68 2.412007 1_555
La5 O33 2.166242 1_555
La5 O71 2.275298 1_555
La5 O34 2.352491 1_555
La5 O35 2.372126 1_555
La5 O70 2.388574 1_555
La5 O69 2.412007 1_555
Hf0 O0 1.936316 1_555
Hf0 O38 1.956965 1_555
Hf0 O36 2.211562 1_545
Hf0 O2 2.238241 1_455
Hf0 O1 2.350187 1_445
Hf0 O37 2.350871 1_445
Hf1 O5 1.936316 1_555
Hf1 O39 1.956965 1_655
Hf1 O41 2.211562 1_545
Hf1 O3 2.238241 1_655
Hf1 O4 2.350187 1_545
Hf1 O40 2.350871 1_645
Hf2 O13 1.935175 1_555
Hf2 O48 1.953076 1_555
Hf2 O49 2.199505 1_555
Hf2 O12 2.207263 1_555
Hf2 O50 2.368278 1_555
Hf2 O14 2.402422 1_555
Hf3 O16 1.935175 1_555
Hf3 O53 1.953076 1_555
Hf3 O52 2.199505 1_555
Hf3 O17 2.207263 1_555
Hf3 O51 2.368278 1_555
Hf3 O15 2.402422 1_555
Hf4 O25 2.008229 1_554
Hf4 O62 2.033971 1_555
Hf4 O61 2.171911 1_555
Hf4 O26 2.188585 1_554
Hf4 O24 2.206160 1_554
Hf4 O60 2.221272 1_555
Hf5 O28 2.008229 1_555
Hf5 O63 2.033971 1_555
Hf5 O64 2.171911 1_555
Hf5 O27 2.188585 1_555
Hf5 O29 2.206160 1_555
Hf5 O65 2.221272 1_555
O0 Si0 1.701775 1_555
O1 S0 1.501108 1_555
O2 S1 1.508729 1_555
O3 S2 1.508729 1_555
O4 S3 1.501108 1_555
O5 Si1 1.701775 1_555
O6 Si1 1.594207 1_565
O7 S2 1.462883 1_555
O8 S3 1.469785 1_455
O9 S0 1.469785 1_555
O10 S1 1.462883 1_455
O11 Si0 1.594207 1_565
O12 S4 1.514455 1_555
O13 Si2 1.713641 1_555
O14 S5 1.490255 1_555
O15 S6 1.490255 1_555
O16 Si3 1.713641 1_555
O17 S7 1.514455 1_555
O18 S7 1.460000 1_555
O19 S6 1.465724 1_555
O20 Si3 1.601422 1_555
O21 Si2 1.601422 1_555
O22 S5 1.465724 1_555
O23 S4 1.460000 1_555
O24 S8 1.509132 1_555
O25 Si4 1.685832 1_555
O26 S9 1.514457 1_555
O27 S10 1.514457 1_555
O28 Si5 1.685832 1_555
O29 S11 1.509132 1_555
O30 S11 1.461311 1_555
O31 S10 1.467057 1_555
O32 Si5 1.597886 1_555
O33 Si4 1.597886 1_555
O34 S9 1.467057 1_555
O35 S8 1.461311 1_555
O36 S11 1.515353 1_555
O37 S10 1.490875 1_555
O38 Si5 1.694717 1_555
O39 Si4 1.694722 1_555
O40 S9 1.490866 1_555
O41 S8 1.515358 1_555
O42 S4 1.473594 1_555
O43 Si2 1.617865 1_565
O44 S5 1.473710 1_555
O45 S6 1.473713 1_455
O46 Si3 1.617855 1_565
O47 S7 1.473600 1_555
O48 Si1 1.685832 1_555
O49 S2 1.508054 1_555
O50 S3 1.501452 1_555
O51 S0 1.501456 1_555
O52 S1 1.508045 1_555
O53 Si0 1.685837 1_555
O54 S8 1.464930 1_555
O55 Si4 1.624310 1_655
O56 S9 1.473857 1_545
O57 S10 1.473851 1_545
O58 Si5 1.624328 1_555
O59 S11 1.464918 1_655
O60 S7 1.508540 1_555
O61 S6 1.516485 1_455
O62 Si3 1.662342 1_565
O63 Si2 1.662334 1_565
O64 S5 1.516503 1_555
O65 S4 1.508530 1_455
O66 Si0 1.613455 1_565
O67 S0 1.479305 1_555
O68 S1 1.468152 1_455
O69 S2 1.468155 1_555
O70 S3 1.479296 1_455
O71 Si1 1.613461 1_565
