# generated using pymatgen
data_Na2Fe2F7
_symmetry_space_group_name_H-M   'P 1'
_cell_length_a   7.31668006
_cell_length_b   7.31379392
_cell_length_c   7.31322801
_cell_angle_alpha   119.33407397
_cell_angle_beta   119.48126260
_cell_angle_gamma   91.02261537
_symmetry_Int_Tables_number   1
_chemical_formula_structural   Na2Fe2F7
_chemical_formula_sum   'Na4 Fe4 F14'
_cell_volume   279.17091240
_cell_formula_units_Z   2
loop_
 _symmetry_equiv_pos_site_id
 _symmetry_equiv_pos_as_xyz
  1  'x, y, z'
loop_
 _atom_site_type_symbol
 _atom_site_label
 _atom_site_symmetry_multiplicity
 _atom_site_fract_x
 _atom_site_fract_y
 _atom_site_fract_z
 _atom_site_occupancy
  Na  Na0  1  0.11206484  0.24922662  0.86290376  1
  Na  Na1  1  0.61360758  0.75079040  0.86279922  1
  Na  Na2  1  0.61298577  0.25025199  0.86324907  1
  Na  Na3  1  0.61302658  0.74977125  0.36277906  1
  Fe  Fe0  1  0.61221436  0.24975208  0.36246029  1
  Fe  Fe1  1  0.11270214  0.75024258  0.36246321  1
  Fe  Fe2  1  0.11179613  0.24995518  0.36176253  1
  Fe  Fe3  1  0.11178274  0.75003155  0.86181892  1
  F  F0  1  0.47374582  0.34398422  0.12965413  1
  F  F1  1  0.78583859  0.65590955  0.12980605  1
  F  F2  1  0.78986018  0.57889300  0.63173044  1
  F  F3  1  0.05290446  0.42090622  0.21103069  1
  F  F4  1  0.05279977  0.84193708  0.63186824  1
  F  F5  1  0.79004167  0.15819925  0.21112834  1
  F  F6  1  0.43380510  0.34143972  0.51280135  1
  F  F7  1  0.17148556  0.65842358  0.09233952  1
  F  F8  1  0.17141356  0.07916594  0.51290494  1
  F  F9  1  0.43398441  0.92101127  0.09245624  1
  F  F10  1  0.02580707  0.00003644  0.02604290  1
  F  F11  1  0.75085737  0.15570239  0.59525676  1
  F  F12  1  0.43942663  0.84440403  0.59515706  1
  F  F13  1  0.19735165  0.49996666  0.69708430  1
loop_
_geom_bond_atom_site_label_1
_geom_bond_atom_site_label_2
_geom_bond_distance
_geom_bond_site_symmetry_2
F0 Fe0 1.969002 1_555
F0 Na0 2.194874 1_554
F0 Na2 2.444095 1_554
F0 Na3 2.444904 1_555
F1 Fe1 1.968827 1_655
F1 Na1 2.195314 1_554
F1 Na2 2.444316 1_554
F1 Na3 2.445051 1_555
F2 Fe3 1.968778 1_655
F2 Fe0 2.021512 1_555
F2 Na1 2.494086 1_555
F2 Na3 2.658202 1_555
F3 Fe2 1.966263 1_555
F3 Fe1 2.022752 1_555
F3 Na0 2.493524 1_554
F3 Na2 2.659965 1_454
F4 Fe3 1.967155 1_555
F4 Fe1 2.022236 1_555
F4 Na0 2.493512 1_565
F4 Na3 2.659100 1_455
F5 Fe2 1.967914 1_655
F5 Fe0 2.021981 1_555
F5 Na1 2.494613 1_544
F5 Na2 2.658839 1_554
F6 Fe2 1.968951 1_555
F6 Fe0 2.020893 1_555
F6 Na1 2.506465 1_555
F6 Na2 2.670358 1_555
F7 Fe3 1.968278 1_554
F7 Fe1 2.021198 1_555
F7 Na0 2.505292 1_554
F7 Na3 2.670982 1_555
F8 Fe2 1.967239 1_555
F8 Fe1 2.021611 1_545
F8 Na0 2.506230 1_555
F8 Na2 2.671214 1_555
F9 Fe3 1.969933 1_554
F9 Fe0 2.020477 1_565
F9 Na1 2.506053 1_554
F9 Na3 2.669892 1_555
F10 Fe2 1.950977 1_555
F10 Fe3 1.953074 1_544
F10 Na1 2.823417 1_444
F10 Na0 2.823810 1_554
F11 Fe0 1.968024 1_555
F11 Na0 2.194478 1_655
F11 Na2 2.445387 1_555
F11 Na3 2.445768 1_545
F12 Fe1 1.968175 1_555
F12 Na1 2.193860 1_555
F12 Na2 2.445418 1_565
F12 Na3 2.446224 1_555
F13 Fe2 1.950324 1_555
F13 Fe3 1.952624 1_555
F13 Na1 2.845883 1_555
F13 Na0 2.847098 1_555
