# generated using pymatgen
data_Nd2Re3Si5
_symmetry_space_group_name_H-M   'P 1'
_cell_length_a   11.00236103
_cell_length_b   11.00236103
_cell_length_c   5.71597318
_cell_angle_alpha   90.00000000
_cell_angle_beta   90.00000000
_cell_angle_gamma   90.00000000
_symmetry_Int_Tables_number   1
_chemical_formula_structural   Nd2Re3Si5
_chemical_formula_sum   'Nd8 Re12 Si20'
_cell_volume   691.92968949
_cell_formula_units_Z   4
loop_
 _symmetry_equiv_pos_site_id
 _symmetry_equiv_pos_as_xyz
  1  'x, y, z'
loop_
 _atom_site_type_symbol
 _atom_site_label
 _atom_site_symmetry_multiplicity
 _atom_site_fract_x
 _atom_site_fract_y
 _atom_site_fract_z
 _atom_site_occupancy
  Nd  Nd0  1  0.42229125  0.26342199  0.50000000  1
  Nd  Nd1  1  0.07770875  0.76342199  0.00000000  1
  Nd  Nd2  1  0.92229125  0.23657801  0.00000000  1
  Nd  Nd3  1  0.76342199  0.92229125  0.00000000  1
  Nd  Nd4  1  0.26342199  0.57770875  0.50000000  1
  Nd  Nd5  1  0.73657801  0.42229125  0.50000000  1
  Nd  Nd6  1  0.57770875  0.73657801  0.50000000  1
  Nd  Nd7  1  0.23657801  0.07770875  0.00000000  1
  Re  Re0  1  0.00000000  0.50000000  0.25000000  1
  Re  Re1  1  0.50000000  0.00000000  0.75000000  1
  Re  Re2  1  0.00000000  0.50000000  0.75000000  1
  Re  Re3  1  0.50000000  0.00000000  0.25000000  1
  Re  Re4  1  0.35095466  0.37403487  0.00000000  1
  Re  Re5  1  0.37403487  0.64904534  0.00000000  1
  Re  Re6  1  0.62596513  0.35095466  0.00000000  1
  Re  Re7  1  0.64904534  0.62596513  0.00000000  1
  Re  Re8  1  0.14904534  0.87403487  0.50000000  1
  Re  Re9  1  0.85095466  0.12596513  0.50000000  1
  Re  Re10  1  0.87403487  0.85095466  0.50000000  1
  Re  Re11  1  0.12596513  0.14904534  0.50000000  1
  Si  Si0  1  0.31668304  0.02274229  0.50000000  1
  Si  Si1  1  0.68331696  0.97725771  0.50000000  1
  Si  Si2  1  0.97725771  0.31668304  0.50000000  1
  Si  Si3  1  0.02274229  0.68331696  0.50000000  1
  Si  Si4  1  0.52274229  0.81668304  0.00000000  1
  Si  Si5  1  0.81668304  0.47725771  0.00000000  1
  Si  Si6  1  0.18331696  0.52274229  0.00000000  1
  Si  Si7  1  0.47725771  0.18331696  0.00000000  1
  Si  Si8  1  0.67111921  0.17111921  0.75000000  1
  Si  Si9  1  0.17111921  0.32888079  0.75000000  1
  Si  Si10  1  0.82888079  0.67111921  0.75000000  1
  Si  Si11  1  0.32888079  0.82888079  0.75000000  1
  Si  Si12  1  0.32888079  0.82888079  0.25000000  1
  Si  Si13  1  0.00000000  0.00000000  0.26903943  1
  Si  Si14  1  0.17111921  0.32888079  0.25000000  1
  Si  Si15  1  0.67111921  0.17111921  0.25000000  1
  Si  Si16  1  0.50000000  0.50000000  0.76903943  1
  Si  Si17  1  0.00000000  0.00000000  0.73096057  1
  Si  Si18  1  0.50000000  0.50000000  0.23096057  1
  Si  Si19  1  0.82888079  0.67111921  0.25000000  1
loop_
_geom_bond_atom_site_label_1
_geom_bond_atom_site_label_2
_geom_bond_distance
_geom_bond_site_symmetry_2
Nd0 Si0 2.891755 1_555
Nd0 Si7 3.051326 1_555
Nd0 Si7 3.051326 1_556
Nd0 Si18 3.141825 1_555
Nd0 Si16 3.141825 1_555
Nd0 Si14 3.193362 1_555
Nd0 Si9 3.193362 1_555
Nd0 Re4 3.203936 1_556
Nd0 Re4 3.203936 1_555
Nd0 Si8 3.250898 1_555
Nd0 Si15 3.250898 1_555
Nd0 Re1 3.342596 1_555
Nd0 Re3 3.342596 1_555
Nd1 Si6 2.891755 1_555
Nd1 Si3 3.051326 1_555
Nd1 Si3 3.051326 1_554
Nd1 Si17 3.141825 1_564
Nd1 Si13 3.141825 1_565
Nd1 Si12 3.193362 1_555
Nd1 Si11 3.193362 1_554
Nd1 Re8 3.203936 1_554
Nd1 Re8 3.203936 1_555
Nd1 Si10 3.250898 1_454
Nd1 Si19 3.250898 1_455
Nd1 Re0 3.342596 1_555
Nd1 Re2 3.342596 1_554
Nd2 Si5 2.891755 1_555
Nd2 Si2 3.051326 1_554
Nd2 Si2 3.051326 1_555
Nd2 Si17 3.141825 1_654
Nd2 Si13 3.141825 1_655
Nd2 Si15 3.193362 1_555
Nd2 Si8 3.193362 1_554
Nd2 Re9 3.203936 1_555
Nd2 Re9 3.203936 1_554
Nd2 Si14 3.250898 1_655
Nd2 Si9 3.250898 1_654
Nd2 Re0 3.342596 1_655
Nd2 Re2 3.342596 1_654
Nd3 Si4 2.891755 1_555
Nd3 Si1 3.051326 1_555
Nd3 Si1 3.051326 1_554
Nd3 Si13 3.141825 1_665
Nd3 Si17 3.141825 1_664
Nd3 Si10 3.193362 1_554
Nd3 Si19 3.193362 1_555
Nd3 Re10 3.203936 1_554
Nd3 Re10 3.203936 1_555
Nd3 Si15 3.250898 1_565
Nd3 Si8 3.250898 1_564
Nd3 Re1 3.342596 1_564
Nd3 Re3 3.342596 1_565
Nd4 Si3 2.891755 1_555
Nd4 Si6 3.051326 1_556
Nd4 Si6 3.051326 1_555
Nd4 Si18 3.141825 1_555
Nd4 Si16 3.141825 1_555
Nd4 Si11 3.193362 1_555
Nd4 Si12 3.193362 1_555
Nd4 Re5 3.203936 1_555
Nd4 Re5 3.203936 1_556
Nd4 Si14 3.250898 1_555
Nd4 Si9 3.250898 1_555
Nd4 Re2 3.342596 1_555
Nd4 Re0 3.342596 1_555
Nd5 Si2 2.891755 1_555
Nd5 Si5 3.051326 1_555
Nd5 Si5 3.051326 1_556
Nd5 Si18 3.141825 1_555
Nd5 Si16 3.141825 1_555
Nd5 Si8 3.193362 1_555
Nd5 Si15 3.193362 1_555
Nd5 Re6 3.203936 1_556
Nd5 Re6 3.203936 1_555
Nd5 Si10 3.250898 1_555
Nd5 Si19 3.250898 1_555
Nd5 Re0 3.342596 1_655
Nd5 Re2 3.342596 1_655
Nd6 Si1 2.891755 1_555
Nd6 Si4 3.051326 1_555
Nd6 Si4 3.051326 1_556
Nd6 Si18 3.141825 1_555
Nd6 Si16 3.141825 1_555
Nd6 Si10 3.193362 1_555
Nd6 Si19 3.193362 1_555
Nd6 Re7 3.203936 1_555
Nd6 Re7 3.203936 1_556
Nd6 Si11 3.250898 1_555
Nd6 Si12 3.250898 1_555
Nd6 Re3 3.342596 1_565
Nd6 Re1 3.342596 1_565
Nd7 Si7 2.891755 1_555
Nd7 Si0 3.051326 1_554
Nd7 Si0 3.051326 1_555
Nd7 Si13 3.141825 1_555
Nd7 Si17 3.141825 1_554
Nd7 Si14 3.193362 1_555
Nd7 Si9 3.193362 1_554
Nd7 Re11 3.203936 1_555
Nd7 Re11 3.203936 1_554
Nd7 Si11 3.250898 1_544
Nd7 Si12 3.250898 1_545
Nd7 Re3 3.342596 1_555
Nd7 Re1 3.342596 1_554
Re0 Si2 2.484471 1_455
Re0 Si3 2.484471 1_555
Re0 Si5 2.484471 1_455
Re0 Si6 2.484471 1_555
Re0 Si19 2.662562 1_455
Re0 Si14 2.662562 1_555
Re0 Re2 2.857987 1_555
Re0 Re2 2.857987 1_554
Re1 Si1 2.484471 1_545
Re1 Si0 2.484471 1_555
Re1 Si4 2.484471 1_546
Re1 Si7 2.484471 1_556
Re1 Si11 2.662562 1_545
Re1 Si8 2.662562 1_555
Re1 Re3 2.857987 1_555
Re1 Re3 2.857987 1_556
Re2 Si2 2.484471 1_455
Re2 Si3 2.484471 1_555
Re2 Si5 2.484471 1_456
Re2 Si6 2.484471 1_556
Re2 Si10 2.662562 1_455
Re2 Si9 2.662562 1_555
Re3 Si1 2.484471 1_545
Re3 Si0 2.484471 1_555
Re3 Si4 2.484471 1_545
Re3 Si7 2.484471 1_555
Re3 Si12 2.662562 1_545
Re3 Si15 2.662562 1_555
Re4 Si6 2.465518 1_555
Re4 Si9 2.490733 1_554
Re4 Si14 2.490733 1_555
Re4 Si7 2.516771 1_555
Re4 Si16 2.520457 1_554
Re4 Si18 2.520457 1_555
Re5 Si4 2.465518 1_555
Re5 Si12 2.490733 1_555
Re5 Si11 2.490733 1_554
Re5 Si6 2.516771 1_555
Re5 Si18 2.520457 1_555
Re5 Si16 2.520457 1_554
Re6 Si7 2.465518 1_555
Re6 Si15 2.490733 1_555
Re6 Si8 2.490733 1_554
Re6 Si5 2.516771 1_555
Re6 Si16 2.520457 1_554
Re6 Si18 2.520457 1_555
Re7 Si5 2.465518 1_555
Re7 Si10 2.490733 1_554
Re7 Si19 2.490733 1_555
Re7 Si4 2.516771 1_555
Re7 Si18 2.520457 1_555
Re7 Si16 2.520457 1_554
Re8 Si0 2.465518 1_565
Re8 Si11 2.490733 1_555
Re8 Si12 2.490733 1_555
Re8 Si3 2.516771 1_555
Re8 Si13 2.520457 1_565
Re8 Si17 2.520457 1_565
Re9 Si1 2.465518 1_545
Re9 Si8 2.490733 1_555
Re9 Si15 2.490733 1_555
Re9 Si2 2.516771 1_555
Re9 Si13 2.520457 1_655
Re9 Si17 2.520457 1_655
Re10 Si3 2.465518 1_655
Re10 Si10 2.490733 1_555
Re10 Si19 2.490733 1_555
Re10 Si1 2.516771 1_555
Re10 Si13 2.520457 1_665
Re10 Si17 2.520457 1_665
Re11 Si2 2.465518 1_455
Re11 Si14 2.490733 1_555
Re11 Si9 2.490733 1_555
Re11 Si0 2.516771 1_555
Re11 Si13 2.520457 1_555
Re11 Si17 2.520457 1_555
Si0 Si11 2.570883 1_545
Si0 Si12 2.570883 1_545
Si1 Si8 2.570883 1_565
Si1 Si15 2.570883 1_565
Si2 Si9 2.570883 1_655
Si6 Si9 2.570883 1_554
Si7 Si8 2.570883 1_554
Si10 Si5 2.570883 1_556
Si10 Si3 2.570883 1_655
Si10 Si19 2.857987 1_556
Si10 Si19 2.857987 1_555
Si11 Si4 2.570883 1_556
Si11 Si12 2.857987 1_555
Si11 Si12 2.857987 1_556
Si12 Si4 2.570883 1_555
Si13 Si17 2.640329 1_555
Si14 Si2 2.570883 1_455
Si14 Si6 2.570883 1_555
Si14 Si9 2.857987 1_554
Si14 Si9 2.857987 1_555
Si15 Si7 2.570883 1_555
Si15 Si8 2.857987 1_555
Si15 Si8 2.857987 1_554
Si16 Si18 2.640329 1_556
Si19 Si5 2.570883 1_555
Si19 Si3 2.570883 1_655
