# generated using pymatgen
data_MgMn6O7F5
_symmetry_space_group_name_H-M   'P 1'
_cell_length_a   5.13756766
_cell_length_b   7.79516652
_cell_length_c   5.98412659
_cell_angle_alpha   99.22568644
_cell_angle_beta   100.75053188
_cell_angle_gamma   83.36044795
_symmetry_Int_Tables_number   1
_chemical_formula_structural   MgMn6O7F5
_chemical_formula_sum   'Mg1 Mn6 O7 F5'
_cell_volume   231.49193081
_cell_formula_units_Z   1
loop_
 _symmetry_equiv_pos_site_id
 _symmetry_equiv_pos_as_xyz
  1  'x, y, z'
loop_
 _atom_site_type_symbol
 _atom_site_label
 _atom_site_symmetry_multiplicity
 _atom_site_fract_x
 _atom_site_fract_y
 _atom_site_fract_z
 _atom_site_occupancy
  Mg  Mg0  1  0.50111500  0.99287800  0.97650100  1
  Mn  Mn0  1  0.53817300  0.01265700  0.47299400  1
  Mn  Mn1  1  0.47700600  0.64721100  0.19175900  1
  Mn  Mn2  1  0.50936700  0.34642300  0.81765900  1
  Mn  Mn3  1  0.98425600  0.65903300  0.67453000  1
  Mn  Mn4  1  0.98523800  0.32197300  0.33202500  1
  Mn  Mn5  1  0.00073100  0.00531700  0.00905300  1
  O  O0  1  0.81009600  0.09917700  0.25064400  1
  O  O1  1  0.69982600  0.10189100  0.79050400  1
  O  O2  1  0.68575800  0.77120100  0.46789600  1
  O  O3  1  0.70640700  0.43367700  0.12284900  1
  O  O4  1  0.29180300  0.56076400  0.88612400  1
  O  O5  1  0.30467700  0.22907500  0.52703200  1
  O  O6  1  0.31875600  0.89845900  0.19213100  1
  F  F0  1  0.79456700  0.43016900  0.61918100  1
  F  F1  1  0.77054400  0.78424100  0.94900800  1
  F  F2  1  0.16897100  0.54629200  0.38459100  1
  F  F3  1  0.24720700  0.20791900  0.02775900  1
  F  F4  1  0.19161200  0.90164100  0.74526000  1
loop_
_geom_bond_atom_site_label_1
_geom_bond_atom_site_label_2
_geom_bond_distance
_geom_bond_site_symmetry_2
Mg0 O1 1.982667 1_565
Mg0 O6 1.999867 1_556
Mg0 O0 2.189639 1_566
Mn0 O2 1.943882 1_545
Mn0 O5 1.972674 1_555
Mn0 O1 1.976052 1_555
Mn0 O6 1.983302 1_545
Mn0 O0 2.318632 1_555
Mn1 O4 1.951507 1_554
Mn1 O3 1.958902 1_555
Mn1 O2 1.970119 1_555
Mn1 O6 2.031716 1_555
Mn2 O4 1.930895 1_555
Mn2 O3 1.973308 1_556
Mn2 O5 1.999329 1_555
Mn2 O1 2.036178 1_555
Mn3 O4 1.992824 1_655
Mn3 O2 1.993606 1_555
Mn4 O3 1.941451 1_555
Mn4 O5 1.964988 1_655
Mn4 O0 1.997435 1_555
Mn5 O0 1.899469 1_455
Mn5 O6 1.968186 1_545
Mn5 O1 1.989801 1_454
F0 Mn3 2.081913 1_555
F0 Mn4 2.143819 1_555
F0 Mn2 2.258938 1_555
F1 Mg0 2.016613 1_555
F1 Mn5 2.147488 1_666
F1 Mn3 2.183327 1_555
F1 Mn1 2.685666 1_556
F2 Mn4 2.035223 1_455
F2 Mn3 2.148427 1_455
F2 Mn1 2.390635 1_555
F3 Mg0 2.020988 1_544
F3 Mn5 2.112616 1_555
F3 Mn2 2.442066 1_554
F3 Mn4 2.456723 1_455
F4 Mg0 2.018446 1_555
F4 Mn5 2.022848 1_566
F4 Mn3 2.220710 1_455
