# generated using pymatgen
data_Na2Mg(NiO2)2
_symmetry_space_group_name_H-M   'P 1'
_cell_length_a   3.34718000
_cell_length_b   3.34674534
_cell_length_c   10.58770800
_cell_angle_alpha   90.00000000
_cell_angle_beta   90.00000000
_cell_angle_gamma   120.00429632
_symmetry_Int_Tables_number   1
_chemical_formula_structural   Na2Mg(NiO2)2
_chemical_formula_sum   'Na2 Mg1 Ni2 O4'
_cell_volume   102.71065981
_cell_formula_units_Z   1
loop_
 _symmetry_equiv_pos_site_id
 _symmetry_equiv_pos_as_xyz
  1  'x, y, z'
loop_
 _atom_site_type_symbol
 _atom_site_label
 _atom_site_symmetry_multiplicity
 _atom_site_fract_x
 _atom_site_fract_y
 _atom_site_fract_z
 _atom_site_occupancy
  Na  Na0  1  0.66667700  0.33335300  0.25000000  1
  Na  Na1  1  0.33337500  0.66675000  0.75000000  1
  Mg  Mg0  1  0.00005800  0.00011600  0.25000000  1
  Ni  Ni0  1  0.99999100  0.99998200  0.52360700  1
  Ni  Ni1  1  0.99999100  0.99998200  0.97639300  1
  O  O0  1  0.33331500  0.66662700  0.36501400  1
  O  O1  1  0.66664000  0.33328100  0.59340000  1
  O  O2  1  0.66664000  0.33328100  0.90660000  1
  O  O3  1  0.33331500  0.66662700  0.13498600  1
loop_
_geom_bond_atom_site_label_1
_geom_bond_atom_site_label_2
_geom_bond_distance
_geom_bond_site_symmetry_2
Na0 O3 2.284020 1_555
Na0 O0 2.284020 1_555
Na0 O3 2.284025 1_655
Na0 O0 2.284025 1_655
Na0 O3 2.284029 1_545
Na0 O0 2.284029 1_545
Na1 O1 2.545743 1_565
Na1 O2 2.545743 1_565
Na1 O1 2.546380 1_555
Na1 O2 2.546380 1_555
Na1 O1 2.546382 1_455
Na1 O2 2.546382 1_455
Mg0 Na0 1.932271 1_455
Mg0 Na0 1.932274 1_555
Mg0 Na0 1.932440 1_445
Mg0 O3 2.283502 1_555
Mg0 O0 2.283502 1_555
Mg0 O0 2.284283 1_445
Mg0 O3 2.284283 1_445
Mg0 O3 2.284290 1_545
Mg0 O0 2.284290 1_545
Ni0 O1 2.068737 1_555
Ni0 O1 2.068831 1_665
Ni0 O1 2.068834 1_565
Ni0 O0 2.559785 1_665
Ni0 O0 2.560043 1_555
Ni0 O0 2.560049 1_655
Ni1 O2 2.068737 1_555
Ni1 O2 2.068831 1_665
Ni1 O2 2.068834 1_565
Ni1 O3 2.559785 1_666
Ni1 O3 2.560043 1_556
Ni1 O3 2.560049 1_656
