# generated using pymatgen
data_Na3CaSn3P5SO24
_symmetry_space_group_name_H-M   'P 1'
_cell_length_a   8.92430579
_cell_length_b   8.89344297
_cell_length_c   23.07391779
_cell_angle_alpha   89.87456229
_cell_angle_beta   90.22960561
_cell_angle_gamma   119.93286596
_symmetry_Int_Tables_number   1
_chemical_formula_structural   Na3CaSn3P5SO24
_chemical_formula_sum   'Na9 Ca3 Sn9 P15 S3 O72'
_cell_volume   1587.03403236
_cell_formula_units_Z   3
loop_
 _symmetry_equiv_pos_site_id
 _symmetry_equiv_pos_as_xyz
  1  'x, y, z'
loop_
 _atom_site_type_symbol
 _atom_site_label
 _atom_site_symmetry_multiplicity
 _atom_site_fract_x
 _atom_site_fract_y
 _atom_site_fract_z
 _atom_site_occupancy
  Na  Na0  1  0.99078131  0.36468418  0.74637974  1
  Na  Na1  1  0.31234892  0.97571759  0.08572911  1
  Na  Na2  1  0.32558763  0.03197926  0.41156585  1
  Na  Na3  1  0.98429685  0.99854634  0.49760629  1
  Na  Na4  1  0.99063510  0.00059656  0.99929261  1
  Na  Na5  1  0.65568761  0.33296173  0.83019002  1
  Na  Na6  1  0.66750764  0.33442098  0.32907833  1
  Na  Na7  1  0.33263605  0.66029559  0.16682660  1
  Na  Na8  1  0.34351465  0.66813409  0.66619990  1
  Ca  Ca0  1  0.99313770  0.99870384  0.35525859  1
  Ca  Ca1  1  0.66189305  0.33770659  0.68566616  1
  Ca  Ca2  1  0.66534281  0.33150419  0.18221957  1
  Sn  Sn0  1  0.00019932  0.99793923  0.85465802  1
  Sn  Sn1  1  0.99138544  0.99671366  0.64919525  1
  Sn  Sn2  1  0.00012550  0.99797468  0.14875794  1
  Sn  Sn3  1  0.66900826  0.33483687  0.98192338  1
  Sn  Sn4  1  0.67955818  0.34512403  0.48309578  1
  Sn  Sn5  1  0.33373972  0.66310188  0.01444315  1
  Sn  Sn6  1  0.33296516  0.65880234  0.51834237  1
  Sn  Sn7  1  0.33329849  0.67083348  0.31668906  1
  Sn  Sn8  1  0.33708989  0.66993311  0.81574911  1
  P  P0  1  0.29496809  0.99355653  0.25252801  1
  P  P1  1  0.28469742  0.28897066  0.75305218  1
  P  P2  1  0.00818753  0.71634711  0.75244479  1
  P  P3  1  0.70675516  0.99203699  0.75281770  1
  P  P4  1  0.96757194  0.33291800  0.58453528  1
  P  P5  1  0.66786234  0.63502862  0.58260876  1
  P  P6  1  0.96624485  0.63028313  0.08162811  1
  P  P7  1  0.66763349  0.03358452  0.08117979  1
  P  P8  1  0.36867431  0.33546870  0.08173223  1
  P  P9  1  0.62679536  0.66541008  0.91657515  1
  P  P10  1  0.03777370  0.37278543  0.91525971  1
  P  P11  1  0.33549338  0.96214153  0.91739543  1
  P  P12  1  0.61976432  0.96082967  0.42091203  1
  P  P13  1  0.34302198  0.38050964  0.41798597  1
  P  P14  1  0.04244493  0.65865755  0.41883158  1
  S  S0  1  0.69862641  0.70692930  0.25074327  1
  S  S1  1  0.00887243  0.30096107  0.25058134  1
  S  S2  1  0.36585588  0.03328842  0.58138146  1
  O  O0  1  0.20864128  0.00739423  0.30651422  1
  O  O1  1  0.79788868  0.78966874  0.30189540  1
  O  O2  1  0.98892410  0.19968976  0.30157703  1
  O  O3  1  0.19599646  0.18028477  0.80773115  1
  O  O4  1  0.98353759  0.80139118  0.80691847  1
  O  O5  1  0.82318604  0.02144009  0.80655675  1
  O  O6  1  0.78396884  0.96029438  0.69660542  1
  O  O7  1  0.16737608  0.20982877  0.69745124  1
  O  O8  1  0.03780236  0.82679859  0.69631623  1
  O  O9  1  0.77649995  0.81542307  0.19619350  1
  O  O10  1  0.03249185  0.21917971  0.19582882  1
  O  O11  1  0.18288878  0.96633885  0.19398765  1
  O  O12  1  0.89810360  0.36147040  0.64018393  1
  O  O13  1  0.47064267  0.10818781  0.63249286  1
  O  O14  1  0.63311940  0.52883052  0.63618803  1
  O  O15  1  0.89887124  0.52768499  0.13610410  1
  O  O16  1  0.62252923  0.10020993  0.13412597  1
  O  O17  1  0.47080481  0.36866052  0.13648977  1
  O  O18  1  0.44920251  0.29275444  0.02808971  1
  O  O19  1  0.85117060  0.55059397  0.02649818  1
  O  O20  1  0.70234306  0.14967550  0.02629346  1
  O  O21  1  0.44393805  0.13955037  0.52730915  1
  O  O22  1  0.69705800  0.55213259  0.52681046  1
  O  O23  1  0.84863736  0.29981983  0.52988702  1
  O  O24  1  0.54660150  0.69920223  0.97061122  1
  O  O25  1  0.15386623  0.45607900  0.96907205  1
  O  O26  1  0.30504282  0.85262049  0.97321481  1
  O  O27  1  0.52876719  0.84927419  0.47433325  1
  O  O28  1  0.31579173  0.46331971  0.47208098  1
  O  O29  1  0.15821466  0.68827331  0.47245904  1
  O  O30  1  0.12156238  0.62707287  0.36294199  1
  O  O31  1  0.50372370  0.88398070  0.36476730  1
  O  O32  1  0.37286501  0.49322298  0.36210437  1
  O  O33  1  0.11736818  0.48285394  0.85955747  1
  O  O34  1  0.36575158  0.87725268  0.86375257  1
  O  O35  1  0.51314625  0.63284861  0.86189929  1
  O  O36  1  0.02913634  0.82210031  0.41621277  1
  O  O37  1  0.79779197  0.98339743  0.41774290  1
  O  O38  1  0.18891302  0.19770298  0.41515935  1
  O  O39  1  0.01962544  0.18975212  0.91112003  1
  O  O40  1  0.17084824  0.97916577  0.91199305  1
  O  O41  1  0.80889587  0.82930450  0.91141764  1
  O  O42  1  0.98881596  0.16714881  0.58704839  1
  O  O43  1  0.19030394  0.01665056  0.58598667  1
  O  O44  1  0.83712458  0.81847814  0.58643428  1
  O  O45  1  0.99079890  0.82015379  0.08654322  1
  O  O46  1  0.83269312  0.01403486  0.08858637  1
  O  O47  1  0.18524822  0.16324925  0.08687322  1
  O  O48  1  0.69437035  0.15622112  0.74894527  1
  O  O49  1  0.46267538  0.31077618  0.74988099  1
  O  O50  1  0.85418698  0.53253107  0.74972903  1
  O  O51  1  0.67815517  0.53419737  0.24512707  1
  O  O52  1  0.86131542  0.32850253  0.24490237  1
  O  O53  1  0.47538236  0.14901032  0.24714659  1
  O  O54  1  0.64327771  0.50008837  0.92326389  1
  O  O55  1  0.85716006  0.35691968  0.92227650  1
  O  O56  1  0.49971293  0.14449853  0.92331286  1
  O  O57  1  0.62300972  0.13980869  0.42598026  1
  O  O58  1  0.50979316  0.36323056  0.42355404  1
  O  O59  1  0.86195894  0.49115523  0.42296852  1
  O  O60  1  0.34162658  0.49331104  0.07179083  1
  O  O61  1  0.15518330  0.66428180  0.07185455  1
  O  O62  1  0.50270605  0.85109996  0.07124297  1
  O  O63  1  0.34296600  0.85524798  0.57472757  1
  O  O64  1  0.50933047  0.66362129  0.57480135  1
  O  O65  1  0.14997562  0.49683797  0.57542176  1
  O  O66  1  0.30331349  0.81756323  0.25337752  1
  O  O67  1  0.52184309  0.69321301  0.25335210  1
  O  O68  1  0.17559248  0.47476374  0.25320374  1
  O  O69  1  0.28860067  0.46897366  0.75738153  1
  O  O70  1  0.17610153  0.70018646  0.75693145  1
  O  O71  1  0.52596040  0.82460085  0.75780683  1
loop_
_geom_bond_atom_site_label_1
_geom_bond_atom_site_label_2
_geom_bond_distance
_geom_bond_site_symmetry_2
Na0 O69 2.350374 1_655
Na0 O50 2.353178 1_555
Na0 O48 2.354697 1_555
Na0 O12 2.578680 1_555
Na0 O70 2.602431 1_655
Na0 O7 2.800373 1_655
Na0 O33 2.829120 1_655
Na0 O5 2.987500 1_555
Na1 O61 2.421684 1_555
Na1 O47 2.440742 1_565
Na1 O62 2.472054 1_555
Na1 O45 2.487441 1_455
Na1 O16 2.656602 1_565
Na1 O11 2.739994 1_555
Na1 O18 2.787527 1_565
Na1 O26 2.807591 1_554
Na2 O38 2.337145 1_555
Na2 O57 2.351506 1_555
Na2 O36 2.359672 1_545
Na2 O58 2.573814 1_555
Na2 O0 2.601327 1_555
Na2 O31 2.744796 1_545
Na2 O21 2.853656 1_555
Na3 O37 2.436587 1_555
Na3 O44 2.529557 1_555
Na3 O42 2.541990 1_565
Na3 O36 2.606777 1_655
Na3 O38 2.622210 1_665
Na3 O43 2.690826 1_665
Na4 O46 2.537435 1_556
Na4 O41 2.565909 1_545
Na4 O39 2.567276 1_655
Na4 O45 2.572246 1_546
Na4 O47 2.582652 1_656
Na4 O40 2.648397 1_645
Na5 O49 2.465067 1_555
Na5 O50 2.570839 1_555
Na5 O48 2.581414 1_555
Na5 O54 2.648339 1_555
Na5 O56 2.653991 1_555
Na5 O55 2.716985 1_555
Na6 O53 2.529605 1_555
Na6 O51 2.595363 1_555
Na6 O52 2.623913 1_555
Na6 O58 2.680612 1_555
Na6 O59 2.686418 1_555
Na6 O57 2.730716 1_555
Na7 O68 2.521752 1_555
Na7 O66 2.528768 1_555
Na7 O67 2.530818 1_555
Na7 O60 2.674888 1_555
Na7 O61 2.709094 1_555
Na7 O62 2.736319 1_555
Na8 O64 2.592990 1_555
Na8 O71 2.603739 1_555
Na8 O69 2.632404 1_555
Na8 O65 2.655272 1_555
Na8 O70 2.673764 1_555
Na8 O63 2.686376 1_555
Ca0 O1 2.183666 1_555
Ca0 O2 2.188073 1_565
Ca0 O0 2.199629 1_665
Ca0 O37 2.217844 1_555
Ca0 O38 2.236196 1_665
Ca0 O36 2.244639 1_655
Ca1 O14 2.164070 1_555
Ca1 O49 2.237908 1_555
Ca1 O13 2.258831 1_555
Ca1 O50 2.270598 1_555
Ca1 O12 2.271981 1_555
Ca1 O48 2.296547 1_555
Ca2 O17 2.189291 1_555
Ca2 O16 2.197941 1_555
Ca2 O15 2.213721 1_555
Ca2 O53 2.239709 1_555
Ca2 O51 2.274628 1_555
Ca2 O52 2.275407 1_555
O0 P0 1.504445 1_545
O1 S0 1.436715 1_555
O2 S1 1.436817 1_655
O3 P1 1.546535 1_555
O3 Sn0 2.008755 1_545
O4 P2 1.540360 1_655
O4 Sn0 2.009650 1_655
O5 P3 1.550966 1_545
O5 Sn0 2.021255 1_645
O6 P3 1.561963 1_555
O6 Sn1 2.035766 1_555
O7 P1 1.579650 1_555
O7 Sn1 2.079252 1_445
O8 P2 1.565292 1_555
O8 Sn1 2.061831 1_455
O9 S0 1.526676 1_555
O9 Sn2 2.143096 1_655
O10 S1 1.525990 1_555
O10 Sn2 2.138455 1_545
O11 P0 1.622521 1_555
O11 Sn2 2.066791 1_555
O12 P4 1.504154 1_555
O13 S2 1.442915 1_555
O14 P5 1.490727 1_555
O15 P6 1.492513 1_555
O16 P7 1.500247 1_555
O17 P8 1.496037 1_555
O18 P8 1.573029 1_555
O18 Sn3 2.098827 1_554
O19 P6 1.562753 1_555
O19 Sn3 2.065123 1_554
O20 P7 1.563341 1_555
O20 Sn3 2.080243 1_554
O21 S2 1.509944 1_555
O21 Sn4 2.230985 1_555
O22 P5 1.570846 1_555
O22 Sn4 2.037422 1_555
O23 P4 1.575540 1_555
O23 Sn4 2.048556 1_555
O24 P9 1.542891 1_555
O24 Sn5 2.034680 1_556
O25 P10 1.546498 1_555
O25 Sn5 2.026842 1_556
O26 P11 1.553896 1_555
O26 Sn5 2.057468 1_556
O27 P12 1.536811 1_555
O27 Sn6 2.001680 1_555
O28 P13 1.531164 1_555
O28 Sn6 1.981474 1_555
O29 P14 1.545173 1_555
O29 Sn6 2.003785 1_555
O30 P14 1.564383 1_555
O30 Sn7 2.035061 1_555
O31 P12 1.582591 1_555
O31 Sn7 2.062930 1_555
O32 P13 1.571303 1_555
O32 Sn7 2.065004 1_555
O33 P10 1.556467 1_555
O33 Sn8 2.094666 1_555
O34 P11 1.544384 1_555
O34 Sn8 2.056167 1_555
O35 P9 1.549959 1_555
O35 Sn8 2.052684 1_555
O36 P14 1.517388 1_555
O37 P12 1.500823 1_555
O38 P13 1.518958 1_555
O39 P10 1.556448 1_555
O39 Sn0 2.085699 1_545
O40 P11 1.554958 1_555
O40 Sn0 2.081823 1_555
O41 P9 1.554536 1_555
O41 Sn0 2.081644 1_655
O42 P4 1.578359 1_555
O42 Sn1 2.092659 1_545
O43 S2 1.502527 1_555
O43 Sn1 2.239518 1_445
O44 P5 1.578430 1_555
O44 Sn1 2.078766 1_555
O45 P6 1.594877 1_555
O45 Sn2 2.108618 1_655
O46 P7 1.575668 1_555
O46 Sn2 2.091941 1_645
O47 P8 1.593176 1_555
O47 Sn2 2.124891 1_545
O48 P3 1.520750 1_545
O49 P1 1.503073 1_555
O50 P2 1.524069 1_655
O51 S0 1.459667 1_555
O52 S1 1.460004 1_655
O53 P0 1.516088 1_545
O54 P9 1.556223 1_555
O54 Sn3 2.090496 1_555
O55 P10 1.555380 1_655
O55 Sn3 2.107234 1_555
O56 P11 1.556932 1_545
O56 Sn3 2.101987 1_555
O57 P12 1.582065 1_545
O57 Sn4 2.100288 1_555
O58 P13 1.575384 1_555
O58 Sn4 2.105843 1_555
O59 P14 1.558421 1_655
O59 Sn4 2.040013 1_555
O60 P8 1.554906 1_555
O60 Sn5 2.032893 1_555
O61 P6 1.574585 1_455
O61 Sn5 2.080346 1_555
O62 P7 1.570946 1_565
O62 Sn5 2.065088 1_555
O63 S2 1.500151 1_565
O63 Sn6 2.146236 1_555
O64 P5 1.567012 1_555
O64 Sn6 2.023046 1_555
O65 P4 1.566017 1_455
O65 Sn6 2.034136 1_555
O66 P0 1.603723 1_555
O66 Sn7 2.060468 1_555
O67 S0 1.521910 1_555
O67 Sn7 2.165839 1_555
O68 S1 1.520249 1_555
O68 Sn7 2.170879 1_555
O69 P1 1.587112 1_555
O69 Sn8 2.104579 1_555
O70 P2 1.578148 1_555
O70 Sn8 2.084931 1_555
O71 P3 1.561066 1_555
O71 Sn8 2.053479 1_555
