# generated using pymatgen
data_Na2AlGaP2SO12
_symmetry_space_group_name_H-M   'P 1'
_cell_length_a   8.55870502
_cell_length_b   8.56316648
_cell_length_c   21.80562692
_cell_angle_alpha   90.31219267
_cell_angle_beta   89.67450301
_cell_angle_gamma   119.95258572
_symmetry_Int_Tables_number   1
_chemical_formula_structural   Na2AlGaP2SO12
_chemical_formula_sum   'Na12 Al6 Ga6 P12 S6 O72'
_cell_volume   1384.64987488
_cell_formula_units_Z   6
loop_
 _symmetry_equiv_pos_site_id
 _symmetry_equiv_pos_as_xyz
  1  'x, y, z'
loop_
 _atom_site_type_symbol
 _atom_site_label
 _atom_site_symmetry_multiplicity
 _atom_site_fract_x
 _atom_site_fract_y
 _atom_site_fract_z
 _atom_site_occupancy
  Na  Na0  1  0.99645667  0.63049802  0.25200132  1
  Na  Na1  1  0.36793357  0.00281275  0.75215657  1
  Na  Na2  1  0.66461540  0.96764674  0.58505328  1
  Na  Na3  1  0.03357490  0.33729916  0.08516238  1
  Na  Na4  1  0.33038166  0.29868454  0.91850070  1
  Na  Na5  1  0.70213435  0.66863851  0.41817146  1
  Na  Na6  1  0.01678262  0.00055378  0.50039899  1
  Na  Na7  1  -0.00049147  0.98285781  0.00007104  1
  Na  Na8  1  0.68379822  0.33379116  0.83415635  1
  Na  Na9  1  0.66610724  0.31569214  0.33332098  1
  Na  Na10  1  0.35004436  0.66716645  0.16622743  1
  Na  Na11  1  0.33311139  0.64892628  0.66736242  1
  Al  Al0  1  0.00187492  0.01017778  0.85285720  1
  Al  Al1  1  0.00058751  0.99746866  0.14717867  1
  Al  Al2  1  0.66918802  0.33307753  0.98135478  1
  Al  Al3  1  0.32316632  0.66450471  0.01746604  1
  Al  Al4  1  0.33462493  0.67531137  0.51832125  1
  Al  Al5  1  0.33262086  0.66481341  0.81594287  1
  Ga  Ga0  1  0.98910823  0.99825514  0.35203165  1
  Ga  Ga1  1  0.00202811  0.99959560  0.64993826  1
  Ga  Ga2  1  0.65443372  0.33052868  0.68498192  1
  Ga  Ga3  1  0.66909665  0.34446715  0.18323849  1
  Ga  Ga4  1  0.66746451  0.33111337  0.48210107  1
  Ga  Ga5  1  0.33599711  0.66612520  0.31425684  1
  P  P0  1  0.70788762  0.71327791  0.24895493  1
  P  P1  1  0.99868437  0.28508344  0.24809334  1
  P  P2  1  0.28695981  0.29555615  0.75178407  1
  P  P3  1  0.71157299  0.99770812  0.75103114  1
  P  P4  1  0.37001480  0.03981086  0.58309884  1
  P  P5  1  0.66364980  0.62215370  0.58234771  1
  P  P6  1  0.95696398  0.62877880  0.08193385  1
  P  P7  1  0.37830505  0.33439054  0.08129785  1
  P  P8  1  0.04008502  0.37961130  0.91675716  1
  P  P9  1  0.33300029  0.95278995  0.91621576  1
  P  P10  1  0.61975699  0.95925656  0.41732553  1
  P  P11  1  0.04793407  0.66722641  0.41635875  1
  S  S0  1  0.29170005  0.00627089  0.24923523  1
  S  S1  1  0.99764773  0.70769631  0.75246171  1
  S  S2  1  0.96459397  0.34110299  0.58353689  1
  S  S3  1  0.66051369  0.03790690  0.08239051  1
  S  S4  1  0.62519090  0.67204592  0.91703119  1
  S  S5  1  0.32851709  0.37508267  0.41788759  1
  O  O0  1  0.21343986  0.03263726  0.30577137  1
  O  O1  1  0.82227393  0.78393668  0.30853843  1
  O  O2  1  0.97241223  0.17617390  0.30624909  1
  O  O3  1  0.20470875  0.17147929  0.80849814  1
  O  O4  1  0.97211302  0.79554624  0.80643215  1
  O  O5  1  0.83159489  0.02260085  0.80583818  1
  O  O6  1  0.78521424  0.96486954  0.69024878  1
  O  O7  1  0.17437258  0.21061916  0.69424032  1
  O  O8  1  0.03714713  0.81894714  0.69648496  1
  O  O9  1  0.80610896  0.83175877  0.19390475  1
  O  O10  1  0.02582401  0.19962981  0.18951728  1
  O  O11  1  0.17611664  0.97479835  0.19506759  1
  O  O12  1  0.88491396  0.37114380  0.63912462  1
  O  O13  1  0.49032146  0.11339913  0.64161993  1
  O  O14  1  0.63478139  0.50755205  0.63933412  1
  O  O15  1  0.88755728  0.50953741  0.14070855  1
  O  O16  1  0.62838924  0.11399517  0.13836147  1
  O  O17  1  0.49160736  0.36612470  0.13875003  1
  O  O18  1  0.46340486  0.30306106  0.02332024  1
  O  O19  1  0.83344276  0.53143774  0.02765477  1
  O  O20  1  0.69787602  0.15769652  0.02889599  1
  O  O21  1  0.46063775  0.16006502  0.52779199  1
  O  O22  1  0.69857287  0.54462156  0.52325017  1
  O  O23  1  0.84790957  0.30122485  0.52912149  1
  O  O24  1  0.54235487  0.69954328  0.97208398  1
  O  O25  1  0.16185469  0.45764556  0.97436005  1
  O  O26  1  0.30643032  0.83536826  0.97201694  1
  O  O27  1  0.53742180  0.83894445  0.47470949  1
  O  O28  1  0.30584602  0.46270759  0.47246756  1
  O  O29  1  0.16419006  0.68875977  0.47183277  1
  O  O30  1  0.12243653  0.63552929  0.35565948  1
  O  O31  1  0.50791497  0.87260200  0.35991296  1
  O  O32  1  0.36498538  0.48542827  0.36198295  1
  O  O33  1  0.13365968  0.49877412  0.86127530  1
  O  O34  1  0.36382399  0.87132449  0.85727338  1
  O  O35  1  0.50917598  0.63526880  0.86258084  1
  O  O36  1  0.02775366  0.83822978  0.41212324  1
  O  O37  1  0.80912100  0.97520605  0.41313113  1
  O  O38  1  0.16765544  0.19594633  0.41261587  1
  O  O39  1  0.02185511  0.18946370  0.90941776  1
  O  O40  1  0.16376790  0.97634516  0.90935377  1
  O  O41  1  0.80532994  0.83084224  0.90937547  1
  O  O42  1  0.98078343  0.17691546  0.58866949  1
  O  O43  1  0.18408614  0.02138751  0.59081405  1
  O  O44  1  0.82888856  0.81579463  0.58837825  1
  O  O45  1  0.97490693  0.81443667  0.09115377  1
  O  O46  1  0.82633267  0.02336787  0.08823906  1
  O  O47  1  0.18484234  0.16769671  0.08867952  1
  O  O48  1  0.69077357  0.16834773  0.74570019  1
  O  O49  1  0.47618585  0.31084130  0.74644913  1
  O  O50  1  0.83750916  0.52870743  0.74606256  1
  O  O51  1  0.68878230  0.52331493  0.24367028  1
  O  O52  1  0.82956149  0.30792118  0.24286697  1
  O  O53  1  0.47231277  0.16405522  0.24274210  1
  O  O54  1  0.64163809  0.50730904  0.92292624  1
  O  O55  1  0.85298362  0.35931645  0.92571140  1
  O  O56  1  0.49907896  0.14687635  0.92361845  1
  O  O57  1  0.64080657  0.14676749  0.42374019  1
  O  O58  1  0.49221878  0.35757942  0.42249170  1
  O  O59  1  0.85350643  0.50252015  0.42182251  1
  O  O60  1  0.35421154  0.50234189  0.07378447  1
  O  O61  1  0.14662285  0.64810003  0.07382192  1
  O  O62  1  0.50352846  0.85761719  0.07356570  1
  O  O63  1  0.35298314  0.85177016  0.57539322  1
  O  O64  1  0.49443147  0.64348213  0.57523732  1
  O  O65  1  0.14383957  0.49975591  0.57510099  1
  O  O66  1  0.30509693  0.83977257  0.25270632  1
  O  O67  1  0.52192435  0.69675019  0.25496097  1
  O  O68  1  0.16572592  0.47888623  0.25278921  1
  O  O69  1  0.30872882  0.48261870  0.76069239  1
  O  O70  1  0.16165701  0.69038507  0.75873082  1
  O  O71  1  0.51801613  0.83292389  0.75858941  1
loop_
_geom_bond_atom_site_label_1
_geom_bond_atom_site_label_2
_geom_bond_distance
_geom_bond_site_symmetry_2
Na0 O51 2.323752 1_555
Na0 O66 2.337234 1_655
Na0 O68 2.379769 1_655
Na0 O52 2.401550 1_555
Na0 O30 2.500753 1_655
Na0 O15 2.620166 1_555
Na0 O1 2.717737 1_555
Na0 O11 2.844179 1_655
Na1 O49 2.322347 1_555
Na1 O70 2.362165 1_545
Na1 O71 2.378305 1_545
Na1 O48 2.398019 1_555
Na1 O34 2.551582 1_545
Na1 O13 2.609462 1_555
Na1 O3 2.742807 1_555
Na1 O8 2.744979 1_545
Na2 O44 2.345348 1_555
Na2 O63 2.346083 1_555
Na2 O42 2.387167 1_565
Na2 O64 2.415057 1_555
Na2 O6 2.525809 1_555
Na2 O27 2.644223 1_555
Na2 O13 2.669447 1_565
Na2 O23 2.765776 1_565
Na3 O61 2.348114 1_555
Na3 O46 2.369917 1_455
Na3 O47 2.381428 1_555
Na3 O60 2.390191 1_555
Na3 O10 2.553744 1_555
Na3 O25 2.640494 1_554
Na3 O15 2.647284 1_455
Na3 O20 2.780770 1_455
Na4 O39 2.329047 1_555
Na4 O54 2.355045 1_555
Na4 O56 2.380049 1_555
Na4 O40 2.399787 1_545
Na4 O18 2.551049 1_556
Na4 O3 2.632105 1_555
Na4 O25 2.709151 1_555
Na4 O35 2.783639 1_555
Na5 O37 2.311664 1_555
Na5 O59 2.356050 1_555
Na5 O58 2.356660 1_555
Na5 O36 2.418592 1_655
Na5 O22 2.524324 1_555
Na5 O1 2.594450 1_555
Na5 O27 2.765438 1_555
Na5 O32 2.790631 1_555
Na6 O43 2.396322 1_555
Na6 O36 2.396942 1_545
Na6 O38 2.445472 1_555
Na6 O44 2.495402 1_445
Na6 O37 2.544760 1_445
Na6 O42 2.550830 1_455
Na7 O45 2.406702 1_455
Na7 O40 2.436816 1_554
Na7 O41 2.493329 1_454
Na7 O47 2.499807 1_565
Na7 O46 2.546987 1_465
Na7 O39 2.601946 1_564
Na8 O48 2.405090 1_555
Na8 O55 2.417068 1_555
Na8 O50 2.453607 1_555
Na8 O56 2.517734 1_555
Na8 O49 2.557241 1_555
Na8 O54 2.565339 1_555
Na9 O57 2.395867 1_555
Na9 O52 2.431475 1_555
Na9 O53 2.489360 1_555
Na9 O59 2.509072 1_555
Na9 O58 2.572340 1_555
Na9 O51 2.590220 1_555
Na10 O67 2.372107 1_555
Na10 O60 2.464788 1_555
Na10 O68 2.471918 1_555
Na10 O62 2.516826 1_555
Na10 O66 2.533330 1_555
Na10 O61 2.621128 1_555
Na11 O69 2.437902 1_555
Na11 O64 2.444521 1_555
Na11 O65 2.499197 1_555
Na11 O71 2.540838 1_555
Na11 O70 2.593860 1_555
Na11 O63 2.609013 1_555
Al0 O5 1.832878 1_455
Al0 O3 1.859632 1_555
Al0 O39 1.904463 1_555
Al0 O40 1.986360 1_545
Al0 O4 1.995701 1_445
Al0 O41 2.030852 1_445
Al1 O9 1.860156 1_455
Al1 O10 1.872780 1_565
Al1 O45 1.906694 1_455
Al1 O11 1.922579 1_555
Al1 O47 1.985162 1_565
Al1 O46 2.068912 1_465
Al2 O19 1.869163 1_556
Al2 O18 1.880851 1_556
Al2 O55 1.904078 1_555
Al2 O20 1.943834 1_556
Al2 O56 1.981896 1_555
Al2 O54 2.068878 1_555
Al3 O26 1.835794 1_554
Al3 O25 1.865982 1_554
Al3 O61 1.892557 1_555
Al3 O60 1.974270 1_555
Al3 O24 2.002161 1_554
Al3 O62 2.016009 1_555
Al4 O29 1.831529 1_555
Al4 O27 1.856757 1_555
Al4 O63 1.897723 1_555
Al4 O64 1.969905 1_555
Al4 O28 1.977380 1_555
Al4 O65 2.001318 1_555
Al5 O33 1.864651 1_555
Al5 O34 1.877373 1_555
Al5 O69 1.895031 1_555
Al5 O35 1.945153 1_555
Al5 O71 1.967305 1_555
Al5 O70 2.022134 1_555
Ga0 O2 1.890462 1_565
Ga0 O1 1.919920 1_555
Ga0 O37 1.965441 1_555
Ga0 O36 2.044810 1_655
Ga0 O0 2.051181 1_665
Ga0 O38 2.088438 1_665
Ga1 O7 1.926104 1_565
Ga1 O6 1.933335 1_455
Ga1 O43 1.953033 1_565
Ga1 O8 1.999593 1_555
Ga1 O44 2.036081 1_455
Ga1 O42 2.103361 1_465
Ga2 O14 1.894706 1_555
Ga2 O13 1.926672 1_555
Ga2 O49 1.968422 1_555
Ga2 O48 2.057782 1_555
Ga2 O12 2.075657 1_555
Ga2 O50 2.110181 1_555
Ga3 O17 1.892910 1_555
Ga3 O15 1.926002 1_555
Ga3 O51 1.957863 1_555
Ga3 O52 2.031896 1_555
Ga3 O16 2.066442 1_555
Ga3 O53 2.075003 1_555
Ga4 O21 1.917897 1_555
Ga4 O22 1.928071 1_555
Ga4 O57 1.945570 1_555
Ga4 O23 1.979246 1_555
Ga4 O59 2.020122 1_555
Ga4 O58 2.086940 1_555
Ga5 O31 1.918835 1_555
Ga5 O30 1.931374 1_555
Ga5 O67 1.958675 1_555
Ga5 O32 1.985621 1_555
Ga5 O68 2.038760 1_555
Ga5 O66 2.121522 1_555
O0 S0 1.469021 1_555
O1 P0 1.557878 1_555
O2 P1 1.526009 1_555
O3 P2 1.552864 1_555
O4 S1 1.466381 1_555
O5 P3 1.523625 1_545
O6 P3 1.548039 1_555
O7 P2 1.528379 1_555
O8 S1 1.482605 1_455
O9 P0 1.525498 1_555
O10 P1 1.541769 1_455
O11 S0 1.479851 1_565
O12 S2 1.470672 1_555
O13 P4 1.563317 1_555
O14 P5 1.528364 1_555
O15 P6 1.561396 1_555
O16 S3 1.468367 1_555
O17 P7 1.526636 1_555
O18 P7 1.543282 1_555
O19 P6 1.528671 1_555
O20 S3 1.482029 1_555
O21 P4 1.523736 1_555
O22 P5 1.541178 1_555
O23 S2 1.479995 1_555
O24 S4 1.467356 1_555
O25 P8 1.555859 1_555
O26 P9 1.524848 1_555
O27 P10 1.550098 1_555
O28 S5 1.466341 1_555
O29 P11 1.521613 1_555
O30 P11 1.546436 1_555
O31 P10 1.525912 1_555
O32 S5 1.479880 1_555
O33 P8 1.527315 1_555
O34 P9 1.542182 1_555
O35 S4 1.480509 1_555
O36 P11 1.561036 1_555
O37 P10 1.559211 1_555
O38 S5 1.467228 1_555
O39 P8 1.563638 1_555
O40 P9 1.567002 1_555
O41 S4 1.469698 1_555
O42 S2 1.484886 1_555
O43 P4 1.527093 1_555
O44 P5 1.557225 1_555
O45 P6 1.531209 1_555
O46 S3 1.491492 1_555
O47 P7 1.563471 1_555
O48 P3 1.562750 1_545
O49 P2 1.562015 1_555
O50 S1 1.466054 1_555
O51 P0 1.555211 1_555
O52 P1 1.559229 1_555
O53 S0 1.465993 1_555
O54 S4 1.492246 1_555
O55 P8 1.533478 1_655
O56 P9 1.565054 1_545
O57 P10 1.529454 1_545
O58 S5 1.485602 1_555
O59 P11 1.558351 1_655
O60 P7 1.561046 1_555
O61 P6 1.556415 1_455
O62 S3 1.467689 1_565
O63 P4 1.550886 1_565
O64 P5 1.556257 1_555
O65 S2 1.466750 1_455
O66 S0 1.488679 1_565
O67 P0 1.530779 1_555
O68 P1 1.561784 1_455
O69 P2 1.528844 1_555
O70 S1 1.490383 1_455
O71 P3 1.558143 1_555
