# generated using pymatgen
data_MgTe3WO12
_symmetry_space_group_name_H-M   'P 1'
_cell_length_a   5.31320734
_cell_length_b   4.94678690
_cell_length_c   8.88569900
_cell_angle_alpha   90.00000000
_cell_angle_beta   90.00000000
_cell_angle_gamma   89.27541932
_symmetry_Int_Tables_number   1
_chemical_formula_structural   MgTe3WO12
_chemical_formula_sum   'Mg1 Te3 W1 O12'
_cell_volume   233.52685685
_cell_formula_units_Z   1
loop_
 _symmetry_equiv_pos_site_id
 _symmetry_equiv_pos_as_xyz
  1  'x, y, z'
loop_
 _atom_site_type_symbol
 _atom_site_label
 _atom_site_symmetry_multiplicity
 _atom_site_fract_x
 _atom_site_fract_y
 _atom_site_fract_z
 _atom_site_occupancy
  Mg  Mg0  1  0.50000000  0.50000000  0.21797900  1
  Te  Te0  1  0.00000000  0.50000000  0.41569000  1
  Te  Te1  1  0.50000000  0.00000000  0.90201900  1
  Te  Te2  1  0.50000000  0.50000000  0.59617300  1
  W  W0  1  0.00000000  0.00000000  0.09734700  1
  O  O0  1  0.14609400  0.26397100  0.26306200  1
  O  O1  1  0.18497400  0.29283000  0.57351700  1
  O  O2  1  0.16131100  0.21460100  0.95367100  1
  O  O3  1  0.32343000  0.69826800  0.41986100  1
  O  O4  1  0.30835000  0.78518500  0.10068900  1
  O  O5  1  0.36370600  0.74510600  0.74021400  1
  O  O6  1  0.63629400  0.25489400  0.74021400  1
  O  O7  1  0.69165000  0.21481500  0.10068900  1
  O  O8  1  0.67657000  0.30173200  0.41986100  1
  O  O9  1  0.83868900  0.78539900  0.95367100  1
  O  O10  1  0.81502600  0.70717000  0.57351700  1
  O  O11  1  0.85390600  0.73602900  0.26306200  1
loop_
_geom_bond_atom_site_label_1
_geom_bond_atom_site_label_2
_geom_bond_distance
_geom_bond_site_symmetry_2
Mg0 O7 2.019147 1_555
Mg0 O4 2.019147 1_555
Mg0 O8 2.244271 1_555
Mg0 O3 2.244271 1_555
Mg0 O0 2.261653 1_555
Mg0 O11 2.261653 1_555
O0 Te0 1.944777 1_555
O0 W0 2.121683 1_555
O1 Te2 1.983880 1_555
O1 Te0 1.989330 1_555
O2 W0 1.874680 1_556
O2 Te1 2.127812 1_555
O3 Te0 1.989729 1_555
O3 Te2 2.067176 1_555
O4 W0 1.941695 1_565
O4 Te1 2.304306 1_564
O5 Te2 1.900126 1_555
O5 Te1 2.050490 1_565
O6 Te2 1.900126 1_555
O6 Te1 2.050490 1_555
O7 W0 1.941695 1_655
O7 Te1 2.304306 1_554
O8 Te0 1.989729 1_655
O8 Te2 2.067176 1_555
O9 W0 1.874680 1_666
O9 Te1 2.127812 1_565
O10 Te2 1.983880 1_555
O10 Te0 1.989330 1_655
O11 Te0 1.944777 1_655
O11 W0 2.121683 1_665
