# generated using pymatgen
data_MgV4(CuS4)2
_symmetry_space_group_name_H-M   'P 1'
_cell_length_a   7.28667980
_cell_length_b   6.96539970
_cell_length_c   7.28627804
_cell_angle_alpha   90.00025735
_cell_angle_beta   122.87175529
_cell_angle_gamma   118.57024472
_symmetry_Int_Tables_number   1
_chemical_formula_structural   MgV4(CuS4)2
_chemical_formula_sum   'Mg1 V4 Cu2 S8'
_cell_volume   255.33108277
_cell_formula_units_Z   1
loop_
 _symmetry_equiv_pos_site_id
 _symmetry_equiv_pos_as_xyz
  1  'x, y, z'
loop_
 _atom_site_type_symbol
 _atom_site_label
 _atom_site_symmetry_multiplicity
 _atom_site_fract_x
 _atom_site_fract_y
 _atom_site_fract_z
 _atom_site_occupancy
  Mg  Mg0  1  0.74346800  0.99719700  0.25376200  1
  V  V0  1  0.74758100  0.49932400  0.75173600  1
  V  V1  1  0.26487000  0.02536200  0.76048400  1
  V  V2  1  0.26485400  0.49111500  0.76062800  1
  V  V3  1  0.73050200  0.49112900  0.22631100  1
  Cu  Cu0  1  0.02494300  0.13832000  0.11321200  1
  Cu  Cu1  1  0.46184900  0.85718300  0.39532900  1
  S  S0  1  0.74542600  0.73811900  0.99268700  1
  S  S1  1  0.26373100  0.25761200  0.99386800  1
  S  S2  1  0.76715200  0.27256800  0.50550800  1
  S  S3  1  0.21667700  0.73419000  0.51753000  1
  S  S4  1  0.24036100  0.74607800  0.97896800  1
  S  S5  1  0.76715000  0.74612200  0.50577000  1
  S  S6  1  0.74552500  0.25883900  0.99293000  1
  S  S7  1  0.26591200  0.25884100  0.51328000  1
loop_
_geom_bond_atom_site_label_1
_geom_bond_atom_site_label_2
_geom_bond_distance
_geom_bond_site_symmetry_2
Mg0 S5 2.530724 1_555
Mg0 S4 2.531151 1_554
Mg0 S2 2.532415 1_565
Mg0 S0 2.632373 1_554
Mg0 S6 2.634050 1_564
Mg0 S7 2.634242 1_665
Cu0 S1 2.175702 1_554
Cu0 S6 2.305643 1_454
Cu0 S0 2.306078 1_444
Cu0 S7 2.306316 1_555
Cu0 Mg0 2.563861 1_445
Cu1 S3 2.231844 1_555
Cu1 S2 2.422749 1_565
Cu1 S4 2.428489 1_554
Cu1 S5 2.428525 1_555
Cu1 Mg0 2.570923 1_555
S0 V3 2.427185 1_556
S0 V2 2.427261 1_555
S0 V0 2.429807 1_555
S1 V2 2.352851 1_555
S1 V1 2.353064 1_555
S1 V3 2.353252 1_556
S2 V0 2.495370 1_555
S2 V3 2.515248 1_555
S2 V2 2.515278 1_655
S3 V1 2.452405 1_565
S3 V2 2.453740 1_555
S3 V3 2.454024 1_455
S4 V0 2.496445 1_455
S4 V1 2.515312 1_565
S4 V2 2.515552 1_555
S5 V0 2.496063 1_555
S5 V1 2.515373 1_665
S5 V3 2.515586 1_555
S6 V1 2.427519 1_555
S6 V3 2.427543 1_556
S6 V0 2.428823 1_555
S7 V1 2.427385 1_555
S7 V2 2.427484 1_555
S7 V0 2.429049 1_555
