# generated using pymatgen
data_Rh
_symmetry_space_group_name_H-M   'P 1'
_cell_length_a   5.46195800
_cell_length_b   5.46195817
_cell_length_c   8.85697800
_cell_angle_alpha   90.00000000
_cell_angle_beta   90.00000000
_cell_angle_gamma   120.00001109
_symmetry_Int_Tables_number   1
_chemical_formula_structural   Rh
_chemical_formula_sum   Rh16
_cell_volume   228.82995495
_cell_formula_units_Z   16
loop_
 _symmetry_equiv_pos_site_id
 _symmetry_equiv_pos_as_xyz
  1  'x, y, z'
loop_
 _atom_site_type_symbol
 _atom_site_label
 _atom_site_symmetry_multiplicity
 _atom_site_fract_x
 _atom_site_fract_y
 _atom_site_fract_z
 _atom_site_occupancy
  Rh  Rh0_0  1  0.00000000  0.00000000  0.00000000  1
  Rh  Rh0_1  1  0.00000000  0.00000000  0.50000000  1
  Rh  Rh0_2  1  0.00000000  0.50000000  0.00000000  1
  Rh  Rh0_3  1  0.00000000  0.50000000  0.50000000  1
  Rh  Rh0_4  1  0.50000000  0.00000000  0.00000000  1
  Rh  Rh0_5  1  0.50000000  0.00000000  0.50000000  1
  Rh  Rh0_6  1  0.50000000  0.50000000  0.00000000  1
  Rh  Rh0_7  1  0.50000000  0.50000000  0.50000000  1
  Rh  Rh1_0  1  0.33333350  0.16666650  0.25000000  1
  Rh  Rh1_1  1  0.33333350  0.16666650  0.75000000  1
  Rh  Rh1_2  1  0.33333350  0.66666650  0.25000000  1
  Rh  Rh1_3  1  0.33333350  0.66666650  0.75000000  1
  Rh  Rh1_4  1  0.83333350  0.16666650  0.25000000  1
  Rh  Rh1_5  1  0.83333350  0.16666650  0.75000000  1
  Rh  Rh1_6  1  0.83333350  0.66666650  0.25000000  1
  Rh  Rh1_7  1  0.83333350  0.66666650  0.75000000  1
loop_
_geom_bond_atom_site_label_1
_geom_bond_atom_site_label_2
_geom_bond_distance
_geom_bond_site_symmetry_2
Rh0_0 Rh1_4 2.718263 1_455
Rh0_0 Rh1_5 2.718263 1_454
Rh0_0 Rh1_0 2.718265 1_555
Rh0_0 Rh1_1 2.718265 1_554
Rh0_0 Rh1_6 2.718265 1_445
Rh0_0 Rh1_7 2.718265 1_444
Rh0_0 Rh0_6 2.730979 1_445
Rh0_0 Rh0_6 2.730979 1_555
Rh0_0 Rh0_4 2.730979 1_555
Rh0_0 Rh0_4 2.730979 1_455
Rh0_0 Rh0_2 2.730979 1_555
Rh0_0 Rh0_2 2.730979 1_545
Rh0_1 Rh1_4 2.718263 1_455
Rh0_1 Rh1_5 2.718263 1_455
Rh0_1 Rh1_0 2.718265 1_555
Rh0_1 Rh1_1 2.718265 1_555
Rh0_1 Rh1_6 2.718265 1_445
Rh0_1 Rh1_7 2.718265 1_445
Rh0_1 Rh0_7 2.730979 1_445
Rh0_1 Rh0_7 2.730979 1_555
Rh0_1 Rh0_5 2.730979 1_555
Rh0_1 Rh0_5 2.730979 1_455
Rh0_1 Rh0_3 2.730979 1_555
Rh0_1 Rh0_3 2.730979 1_545
Rh0_2 Rh1_7 2.718263 1_454
Rh0_2 Rh1_6 2.718263 1_455
Rh0_2 Rh1_2 2.718265 1_555
Rh0_2 Rh1_3 2.718265 1_554
Rh0_2 Rh1_4 2.718265 1_455
Rh0_2 Rh1_5 2.718265 1_454
Rh0_2 Rh0_4 2.730979 1_565
Rh0_2 Rh0_4 2.730979 1_455
Rh0_2 Rh0_6 2.730979 1_555
Rh0_2 Rh0_6 2.730979 1_455
Rh0_3 Rh1_6 2.718263 1_455
Rh0_3 Rh1_7 2.718263 1_455
Rh0_3 Rh1_2 2.718265 1_555
Rh0_3 Rh1_3 2.718265 1_555
Rh0_3 Rh1_4 2.718265 1_455
Rh0_3 Rh1_5 2.718265 1_455
Rh0_3 Rh0_5 2.730979 1_455
Rh0_3 Rh0_5 2.730979 1_565
Rh0_3 Rh0_7 2.730979 1_555
Rh0_3 Rh0_7 2.730979 1_455
Rh0_4 Rh1_1 2.718263 1_554
Rh0_4 Rh1_0 2.718263 1_555
Rh0_4 Rh1_5 2.718265 1_554
Rh0_4 Rh1_4 2.718265 1_555
Rh0_4 Rh1_2 2.718265 1_545
Rh0_4 Rh1_3 2.718265 1_544
Rh0_4 Rh0_6 2.730979 1_555
Rh0_4 Rh0_6 2.730979 1_545
Rh0_5 Rh1_1 2.718263 1_555
Rh0_5 Rh1_0 2.718263 1_555
Rh0_5 Rh1_5 2.718265 1_555
Rh0_5 Rh1_4 2.718265 1_555
Rh0_5 Rh1_2 2.718265 1_545
Rh0_5 Rh1_3 2.718265 1_545
Rh0_5 Rh0_7 2.730979 1_555
Rh0_5 Rh0_7 2.730979 1_545
Rh0_6 Rh1_2 2.718263 1_555
Rh0_6 Rh1_3 2.718263 1_554
Rh0_6 Rh1_7 2.718265 1_554
Rh0_6 Rh1_6 2.718265 1_555
Rh0_6 Rh1_0 2.718265 1_555
Rh0_6 Rh1_1 2.718265 1_554
Rh0_7 Rh1_3 2.718263 1_555
Rh0_7 Rh1_2 2.718263 1_555
Rh0_7 Rh1_7 2.718265 1_555
Rh0_7 Rh1_6 2.718265 1_555
Rh0_7 Rh1_1 2.718265 1_555
Rh0_7 Rh1_0 2.718265 1_555
Rh1_0 Rh1_6 2.730979 1_445
Rh1_0 Rh1_6 2.730979 1_555
Rh1_0 Rh1_4 2.730979 1_455
Rh1_0 Rh1_4 2.730979 1_555
Rh1_0 Rh1_2 2.730979 1_545
Rh1_0 Rh1_2 2.730979 1_555
Rh1_1 Rh1_7 2.730979 1_445
Rh1_1 Rh1_7 2.730979 1_555
Rh1_1 Rh1_5 2.730979 1_455
Rh1_1 Rh1_5 2.730979 1_555
Rh1_1 Rh1_3 2.730979 1_555
Rh1_1 Rh1_3 2.730979 1_545
Rh1_2 Rh1_4 2.730979 1_455
Rh1_2 Rh1_4 2.730979 1_565
Rh1_2 Rh1_6 2.730979 1_555
Rh1_2 Rh1_6 2.730979 1_455
Rh1_3 Rh1_5 2.730979 1_565
Rh1_3 Rh1_5 2.730979 1_455
Rh1_3 Rh1_7 2.730979 1_555
Rh1_3 Rh1_7 2.730979 1_455
Rh1_4 Rh1_6 2.730979 1_545
Rh1_4 Rh1_6 2.730979 1_555
Rh1_5 Rh1_7 2.730979 1_545
Rh1_5 Rh1_7 2.730979 1_555
