# generated using pymatgen
data_Na3CaNbSi(PO6)2
_symmetry_space_group_name_H-M   'P 1'
_cell_length_a   9.23082902
_cell_length_b   9.28883086
_cell_length_c   22.47796068
_cell_angle_alpha   90.23085417
_cell_angle_beta   90.00000000
_cell_angle_gamma   119.79365575
_symmetry_Int_Tables_number   1
_chemical_formula_structural   Na3CaNbSi(PO6)2
_chemical_formula_sum   'Na18 Ca6 Nb6 Si6 P12 O72'
_cell_volume   1672.56837656
_cell_formula_units_Z   6
loop_
 _symmetry_equiv_pos_site_id
 _symmetry_equiv_pos_as_xyz
  1  'x, y, z'
loop_
 _atom_site_type_symbol
 _atom_site_label
 _atom_site_symmetry_multiplicity
 _atom_site_fract_x
 _atom_site_fract_y
 _atom_site_fract_z
 _atom_site_occupancy
  Na  Na0  1  0.99587328  0.01023189  0.49190909  1
  Na  Na1  1  0.01435861  0.01023189  0.99190909  1
  Na  Na2  1  0.67134599  0.32182410  0.82591965  1
  Na  Na3  1  0.65047911  0.32182410  0.32591965  1
  Na  Na4  1  0.34264498  0.65200363  0.15912357  1
  Na  Na5  1  0.30935766  0.65200363  0.65912357  1
  Na  Na6  1  0.66602047  0.02109647  0.24475707  1
  Na  Na7  1  0.98481533  0.62549123  0.24104177  1
  Na  Na8  1  0.64067590  0.62549123  0.74104177  1
  Na  Na9  1  0.35507600  0.02109647  0.74475707  1
  Na  Na10  1  0.32669060  0.35617470  0.58132533  1
  Na  Na11  1  0.64186813  0.95737033  0.57378872  1
  Na  Na12  1  0.31550320  0.95737033  0.07378872  1
  Na  Na13  1  0.02948510  0.35617470  0.08132533  1
  Na  Na14  1  0.98909965  0.69120976  0.91364051  1
  Na  Na15  1  0.69565679  0.01445553  0.90883927  1
  Na  Na16  1  0.31879774  0.01445553  0.40883927  1
  Na  Na17  1  0.70210911  0.69120976  0.41364051  1
  Ca  Ca0  1  0.00619132  0.01416929  0.35076192  1
  Ca  Ca1  1  0.00797797  0.01416929  0.85076192  1
  Ca  Ca2  1  0.67680238  0.33385244  0.68453161  1
  Ca  Ca3  1  0.65705105  0.33385244  0.18453161  1
  Ca  Ca4  1  0.33913969  0.66340456  0.01733461  1
  Ca  Ca5  1  0.32426387  0.66340456  0.51733461  1
  Nb  Nb0  1  0.99046757  0.99427889  0.64921827  1
  Nb  Nb1  1  0.00381132  0.99427889  0.14921827  1
  Nb  Nb2  1  0.66256639  0.33716977  0.98180561  1
  Nb  Nb3  1  0.67460439  0.33716977  0.48180561  1
  Nb  Nb4  1  0.33020632  0.66640991  0.31539591  1
  Nb  Nb5  1  0.33620259  0.66640991  0.81539591  1
  Si  Si0  1  0.29924012  0.98804300  0.25598356  1
  Si  Si1  1  0.68880288  0.98804300  0.75598356  1
  Si  Si2  1  0.67574022  0.63588744  0.58745095  1
  Si  Si3  1  0.96014822  0.63588744  0.08745095  1
  Si  Si4  1  0.34346595  0.97270106  0.92162400  1
  Si  Si5  1  0.62923411  0.97270106  0.42162400  1
  P  P0  1  0.69878411  0.71237597  0.25352180  1
  P  P1  1  0.01357523  0.30339212  0.24791988  1
  P  P2  1  0.28981689  0.30339212  0.74791988  1
  P  P3  1  0.01359186  0.71237597  0.75352180  1
  P  P4  1  0.95824137  0.31582837  0.58403691  1
  P  P5  1  0.36190762  0.04563268  0.58462097  1
  P  P6  1  0.68372606  0.04563268  0.08462097  1
  P  P7  1  0.35758800  0.31582837  0.08403691  1
  P  P8  1  0.62541514  0.65200871  0.91562823  1
  P  P9  1  0.02705392  0.37764889  0.92037763  1
  P  P10  1  0.35059397  0.37764889  0.42037763  1
  P  P11  1  0.02659257  0.65200871  0.41562823  1
  O  O0  1  0.21799271  0.99591689  0.31683653  1
  O  O1  1  0.78871840  0.78712021  0.31113518  1
  O  O2  1  0.97424834  0.19189549  0.30080926  1
  O  O3  1  0.21764715  0.19189549  0.80080926  1
  O  O4  1  0.99840181  0.78712021  0.81113518  1
  O  O5  1  0.77792418  0.99591689  0.81683653  1
  O  O6  1  0.81003186  0.97481998  0.69798736  1
  O  O7  1  0.17928230  0.20865153  0.69007971  1
  O  O8  1  0.03509720  0.84045563  0.69998148  1
  O  O9  1  0.80535843  0.84045563  0.19998148  1
  O  O10  1  0.02936923  0.20865153  0.19007971  1
  O  O11  1  0.16478811  0.97481998  0.19798736  1
  O  O12  1  0.88288066  0.33356261  0.64056797  1
  O  O13  1  0.45809914  0.11832480  0.64198219  1
  O  O14  1  0.64776368  0.53470873  0.64696921  1
  O  O15  1  0.88694605  0.53470873  0.14696921  1
  O  O16  1  0.66022666  0.11832480  0.14198219  1
  O  O17  1  0.45068296  0.33356261  0.14056797  1
  O  O18  1  0.46286544  0.30333399  0.02828499  1
  O  O19  1  0.83049802  0.52433308  0.02874017  1
  O  O20  1  0.69624504  0.16931751  0.03065000  1
  O  O21  1  0.47307347  0.16931751  0.53065000  1
  O  O22  1  0.69383607  0.52433308  0.52874017  1
  O  O23  1  0.84046955  0.30333399  0.52828499  1
  O  O24  1  0.55078706  0.68512498  0.96935014  1
  O  O25  1  0.11077178  0.44597644  0.97968978  1
  O  O26  1  0.33017749  0.87495233  0.98065229  1
  O  O27  1  0.54477384  0.87495233  0.48065229  1
  O  O28  1  0.33520366  0.44597644  0.47968978  1
  O  O29  1  0.13433692  0.68512498  0.46935014  1
  O  O30  1  0.12164607  0.63115673  0.35852503  1
  O  O31  1  0.48923977  0.85209491  0.36300643  1
  O  O32  1  0.35796859  0.49678246  0.36728200  1
  O  O33  1  0.13881287  0.49678246  0.86728200  1
  O  O34  1  0.36285414  0.85209491  0.86300643  1
  O  O35  1  0.50950966  0.63115673  0.85852503  1
  O  O36  1  0.98817728  0.79256295  0.40806909  1
  O  O37  1  0.80828902  0.98911129  0.41398720  1
  O  O38  1  0.21483168  0.19768259  0.41311122  1
  O  O39  1  0.98285091  0.19768259  0.91311122  1
  O  O40  1  0.18082227  0.98911129  0.91398720  1
  O  O41  1  0.80438567  0.79256295  0.90806909  1
  O  O42  1  0.94947308  0.13980491  0.58396804  1
  O  O43  1  0.19474498  0.05290320  0.58453822  1
  O  O44  1  0.85702968  0.82050618  0.59226679  1
  O  O45  1  0.96347650  0.82050618  0.09226679  1
  O  O46  1  0.85815822  0.05290320  0.08453822  1
  O  O47  1  0.19033183  0.13980491  0.08396804  1
  O  O48  1  0.63951341  0.12889354  0.74835261  1
  O  O49  1  0.47026864  0.34055870  0.74185458  1
  O  O50  1  0.86289741  0.54221346  0.74445572  1
  O  O51  1  0.67931705  0.54221346  0.24445572  1
  O  O52  1  0.87029106  0.34055870  0.24185458  1
  O  O53  1  0.48938113  0.12889354  0.24835261  1
  O  O54  1  0.62822389  0.48311590  0.92067832  1
  O  O55  1  0.85843157  0.38715464  0.91820089  1
  O  O56  1  0.52766786  0.15181459  0.92203809  1
  O  O57  1  0.62414772  0.15181459  0.42203809  1
  O  O58  1  0.52872407  0.38715464  0.41820089  1
  O  O59  1  0.85489302  0.48311590  0.42067832  1
  O  O60  1  0.31360164  0.45180708  0.07713407  1
  O  O61  1  0.14940618  0.67322932  0.08030993  1
  O  O62  1  0.53784064  0.87166762  0.07625658  1
  O  O63  1  0.33382598  0.87166762  0.57625658  1
  O  O64  1  0.52382214  0.67322932  0.58030993  1
  O  O65  1  0.13820444  0.45180708  0.57713407  1
  O  O66  1  0.28898058  0.79864198  0.25497404  1
  O  O67  1  0.52582554  0.70967498  0.25290579  1
  O  O68  1  0.18359424  0.47216802  0.25381232  1
  O  O69  1  0.28857278  0.47216802  0.75381232  1
  O  O70  1  0.18384844  0.70967498  0.75290579  1
  O  O71  1  0.50966040  0.79864198  0.75497404  1
loop_
_geom_bond_atom_site_label_1
_geom_bond_atom_site_label_2
_geom_bond_distance
_geom_bond_site_symmetry_2
Na0 O37 2.400889 1_545
Na0 O42 2.531062 1_555
Na0 O38 2.604163 1_655
Na0 O43 2.670683 1_655
Na0 O36 2.733346 1_545
Na0 O44 2.761281 1_545
Na1 O40 2.400889 1_545
Na1 O47 2.531062 1_556
Na1 O39 2.604163 1_455
Na1 O46 2.670683 1_456
Na1 O41 2.733346 1_445
Na1 O45 2.761281 1_446
Na2 O48 2.406126 1_555
Na2 O55 2.569385 1_555
Na2 O56 2.620483 1_555
Na2 O50 2.665233 1_555
Na2 O49 2.714719 1_555
Na2 O54 2.739861 1_555
Na3 O53 2.406126 1_555
Na3 O58 2.569385 1_555
Na3 O57 2.620483 1_555
Na3 O51 2.665233 1_555
Na3 O52 2.714719 1_555
Na3 O59 2.739861 1_555
Na4 O60 2.530493 1_555
Na4 O67 2.584702 1_555
Na4 O61 2.590641 1_555
Na4 O68 2.658484 1_555
Na4 O62 2.693801 1_555
Na4 O66 2.718372 1_555
Na5 O65 2.530493 1_555
Na5 O70 2.584702 1_555
Na5 O64 2.590641 1_555
Na5 O69 2.658484 1_555
Na5 O63 2.693801 1_555
Na5 O71 2.718372 1_555
Na6 O53 2.299910 1_555
Na6 O16 2.494036 1_555
Na6 O67 2.521972 1_545
Na6 O52 2.608925 1_555
Na6 O9 2.759325 1_545
Na6 O2 2.774484 1_555
Na7 O15 2.286303 1_555
Na7 O52 2.311445 1_555
Na7 O66 2.465039 1_655
Na7 O51 2.527719 1_555
Na7 O68 2.842144 1_655
Na7 O30 2.916275 1_655
Na7 O11 2.982261 1_655
Na8 O14 2.286305 1_555
Na8 O49 2.311444 1_555
Na8 O71 2.465046 1_555
Na8 O50 2.527728 1_555
Na8 O69 2.842153 1_555
Na8 O35 2.916279 1_555
Na8 O6 2.982261 1_555
Na9 O48 2.299919 1_555
Na9 O13 2.494038 1_555
Na9 O70 2.521972 1_545
Na9 O49 2.608924 1_555
Na9 O8 2.759325 1_545
Na9 O3 2.774484 1_555
Na10 O65 2.315546 1_555
Na10 O28 2.423101 1_555
Na10 O43 2.452828 1_555
Na10 O64 2.580718 1_555
Na10 O7 2.807005 1_555
Na10 O21 2.907005 1_555
Na10 O14 2.967708 1_555
Na11 O27 2.253311 1_555
Na11 O64 2.306522 1_555
Na11 O42 2.490318 1_565
Na11 O63 2.544224 1_555
Na12 O26 2.253307 1_554
Na12 O61 2.306524 1_555
Na12 O47 2.490326 1_565
Na12 O62 2.544206 1_555
Na13 O60 2.315529 1_555
Na13 O25 2.423098 1_554
Na13 O46 2.452829 1_455
Na13 O61 2.580721 1_555
Na13 O10 2.807003 1_555
Na13 O20 2.907005 1_455
Na13 O15 2.967708 1_455
Na14 O41 2.324956 1_555
Na14 O40 2.433612 1_655
Na14 O4 2.459780 1_555
Na14 O55 2.461527 1_555
Na15 O5 2.238344 1_545
Na15 O39 2.334266 1_555
Na15 O56 2.466509 1_555
Na15 O41 2.703944 1_545
Na16 O0 2.238341 1_545
Na16 O38 2.334259 1_555
Na16 O57 2.466525 1_555
Na16 O36 2.703937 1_445
Na17 O36 2.324965 1_555
Na17 O37 2.433611 1_555
Na17 O1 2.459781 1_555
Na17 O58 2.461525 1_555
Ca0 O2 2.138163 1_455
Ca0 O0 2.181984 1_545
Ca0 O37 2.234108 1_445
Ca0 O1 2.246948 1_445
Ca0 O38 2.301599 1_555
Ca0 O36 2.367586 1_445
Ca1 O3 2.138163 1_555
Ca1 O5 2.181984 1_445
Ca1 O40 2.234108 1_545
Ca1 O4 2.246948 1_445
Ca1 O39 2.301599 1_455
Ca1 O41 2.367586 1_445
Ca2 O12 2.144827 1_555
Ca2 O14 2.185253 1_555
Ca2 O13 2.228564 1_555
Ca2 O48 2.274161 1_555
Ca2 O50 2.277312 1_555
Ca2 O49 2.327263 1_555
Ca3 O17 2.144827 1_555
Ca3 O15 2.185253 1_555
Ca3 O16 2.228564 1_555
Ca3 O53 2.274161 1_555
Ca3 O51 2.277311 1_555
Ca3 O52 2.327263 1_555
Ca4 O24 2.151972 1_554
Ca4 O26 2.173171 1_554
Ca4 O25 2.234753 1_554
Ca4 O61 2.288519 1_555
Ca4 O60 2.299211 1_555
Ca4 O62 2.305208 1_555
Ca5 O29 2.151972 1_555
Ca5 O27 2.173171 1_555
Ca5 O28 2.234753 1_555
Ca5 O64 2.288519 1_555
Ca5 O65 2.299211 1_555
Ca5 O63 2.305208 1_555
Nb0 O6 1.926380 1_555
Nb0 O44 1.941391 1_555
Nb0 O8 2.027658 1_655
Nb0 O7 2.093524 1_665
Nb0 O42 2.155450 1_565
Nb0 O43 2.225292 1_665
Nb1 O11 1.926380 1_555
Nb1 O45 1.941391 1_455
Nb1 O9 2.027658 1_455
Nb1 O10 2.093524 1_565
Nb1 O47 2.155450 1_565
Nb1 O46 2.225292 1_465
Nb2 O19 1.961000 1_556
Nb2 O18 2.003832 1_556
Nb2 O56 2.042209 1_555
Nb2 O20 2.056335 1_556
Nb2 O54 2.065997 1_555
Nb2 O55 2.167861 1_555
Nb3 O22 1.961000 1_555
Nb3 O23 2.003832 1_555
Nb3 O57 2.042209 1_555
Nb3 O21 2.056335 1_555
Nb3 O59 2.065997 1_555
Nb3 O58 2.167861 1_555
Nb4 O31 1.934992 1_555
Nb4 O66 1.994000 1_555
Nb4 O30 2.032112 1_555
Nb4 O32 2.079575 1_555
Nb4 O68 2.134595 1_555
Nb4 O67 2.163006 1_555
Nb5 O34 1.934992 1_555
Nb5 O71 1.994000 1_555
Nb5 O35 2.032112 1_555
Nb5 O33 2.079575 1_555
Nb5 O69 2.134595 1_555
Nb5 O70 2.163006 1_555
O0 Si0 1.578778 1_555
O1 P0 1.506087 1_555
O2 P1 1.501351 1_655
O3 P2 1.501351 1_555
O4 P3 1.506087 1_655
O5 Si1 1.578778 1_555
O6 Si1 1.761282 1_555
O7 P2 1.613791 1_555
O8 P3 1.637075 1_555
O9 P0 1.637075 1_555
O10 P1 1.613791 1_555
O11 Si0 1.761282 1_555
O12 P4 1.495971 1_555
O13 P5 1.517886 1_555
O14 Si2 1.583905 1_555
O15 Si3 1.583905 1_555
O16 P6 1.517886 1_555
O17 P7 1.495972 1_555
O18 P7 1.624578 1_555
O19 Si3 1.733270 1_555
O20 P6 1.638396 1_555
O21 P5 1.638396 1_555
O22 Si2 1.733270 1_555
O23 P4 1.624578 1_555
O24 P8 1.494981 1_555
O25 P9 1.511044 1_555
O26 Si4 1.580816 1_555
O27 Si5 1.580816 1_555
O28 P10 1.511044 1_555
O29 P11 1.494981 1_555
O30 P11 1.619199 1_555
O31 Si5 1.791789 1_555
O32 P10 1.609162 1_555
O33 P9 1.609162 1_555
O34 Si4 1.791789 1_555
O35 P8 1.619199 1_555
O36 P11 1.523493 1_655
O37 Si5 1.591972 1_555
O38 P10 1.519087 1_555
O39 P9 1.519090 1_655
O40 Si4 1.591963 1_555
O41 P8 1.523499 1_555
O42 P4 1.596376 1_555
O43 P5 1.577697 1_555
O44 Si2 1.702836 1_555
O45 Si3 1.702840 1_555
O46 P6 1.577687 1_555
O47 P7 1.596380 1_555
O48 Si1 1.594220 1_545
O49 P2 1.530131 1_555
O50 P3 1.512378 1_655
O51 P0 1.512381 1_555
O52 P1 1.530122 1_655
O53 Si0 1.594227 1_545
O54 P8 1.586380 1_555
O55 P9 1.602988 1_655
O56 Si4 1.687575 1_545
O57 Si5 1.687565 1_545
O58 P10 1.603007 1_555
O59 P11 1.586370 1_655
O60 P7 1.515105 1_555
O61 Si3 1.611328 1_455
O62 P6 1.514955 1_565
O63 P5 1.514949 1_565
O64 Si2 1.611346 1_555
O65 P4 1.515092 1_455
O66 Si0 1.714285 1_555
O67 P0 1.584294 1_555
O68 P1 1.578499 1_555
O69 P2 1.578503 1_555
O70 P3 1.584285 1_555
O71 Si1 1.714290 1_555
