# generated using pymatgen
data_Cr2FeS4
_symmetry_space_group_name_H-M   'P 1'
_cell_length_a   7.07830010
_cell_length_b   7.07830010
_cell_length_c   7.07830010
_cell_angle_alpha   60.00000000
_cell_angle_beta   60.00000000
_cell_angle_gamma   60.00000000
_symmetry_Int_Tables_number   1
_chemical_formula_structural   Cr2FeS4
_chemical_formula_sum   'Cr4 Fe2 S8'
_cell_volume   250.76788486
_cell_formula_units_Z   2
loop_
 _symmetry_equiv_pos_site_id
 _symmetry_equiv_pos_as_xyz
  1  'x, y, z'
loop_
 _atom_site_type_symbol
 _atom_site_label
 _atom_site_symmetry_multiplicity
 _atom_site_fract_x
 _atom_site_fract_y
 _atom_site_fract_z
 _atom_site_occupancy
  Cr  Cr0  1  0.12500000  0.62500000  0.12500000  1
  Cr  Cr1  1  0.12500000  0.12500000  0.62500000  1
  Cr  Cr2  1  0.12500000  0.12500000  0.12500000  1
  Cr  Cr3  1  0.62500000  0.12500000  0.12500000  1
  Fe  Fe0  1  0.75000000  0.75000000  0.75000000  1
  Fe  Fe1  1  0.50000000  0.50000000  0.50000000  1
  S  S0  1  0.88342300  0.34973000  0.88342300  1
  S  S1  1  0.36657700  0.36657700  0.90027000  1
  S  S2  1  0.36657700  0.36657700  0.36657600  1
  S  S3  1  0.90027000  0.36657700  0.36657600  1
  S  S4  1  0.88342300  0.88342300  0.88342300  1
  S  S5  1  0.34973000  0.88342400  0.88342300  1
  S  S6  1  0.36657700  0.90027000  0.36657700  1
  S  S7  1  0.88342300  0.88342300  0.34973000  1
loop_
_geom_bond_atom_site_label_1
_geom_bond_atom_site_label_2
_geom_bond_distance
_geom_bond_site_symmetry_2
Cr0 S7 2.421174 1_455
Cr0 S1 2.421174 1_554
Cr0 S2 2.421174 1_555
Cr0 S3 2.421174 1_455
Cr0 S4 2.421179 1_454
Cr0 S5 2.421179 1_554
Cr1 S0 2.421174 1_455
Cr1 S5 2.421174 1_545
Cr1 S6 2.421174 1_545
Cr1 S4 2.421179 1_445
Cr1 S2 2.421179 1_555
Cr1 S3 2.421179 1_455
Cr2 S3 2.421174 1_455
Cr2 S5 2.421174 1_544
Cr2 S1 2.421179 1_554
Cr2 S6 2.421179 1_545
Cr2 S7 2.421179 1_445
Cr2 S0 2.421179 1_454
Cr3 S7 2.421174 1_545
Cr3 S0 2.421174 1_554
Cr3 S6 2.421174 1_545
Cr3 S1 2.421174 1_554
Cr3 S2 2.421174 1_555
Cr3 S4 2.421179 1_544
Fe0 S4 2.313318 1_555
Fe0 S0 2.313324 1_555
Fe0 S7 2.313324 1_555
Fe0 S5 2.313324 1_555
Fe1 S6 2.313324 1_555
Fe1 S3 2.313324 1_555
Fe1 S1 2.313324 1_555
Fe1 S2 2.313324 1_555
