# generated using pymatgen
data_MgV3Ag2TeS6
_symmetry_space_group_name_H-M   'P 1'
_cell_length_a   5.51119967
_cell_length_b   5.58299343
_cell_length_c   11.05001058
_cell_angle_alpha   103.91381271
_cell_angle_beta   83.01184173
_cell_angle_gamma   120.42791193
_symmetry_Int_Tables_number   1
_chemical_formula_structural   MgV3Ag2TeS6
_chemical_formula_sum   'Mg1 V3 Ag2 Te1 S6'
_cell_volume   284.56679465
_cell_formula_units_Z   1
loop_
 _symmetry_equiv_pos_site_id
 _symmetry_equiv_pos_as_xyz
  1  'x, y, z'
loop_
 _atom_site_type_symbol
 _atom_site_label
 _atom_site_symmetry_multiplicity
 _atom_site_fract_x
 _atom_site_fract_y
 _atom_site_fract_z
 _atom_site_occupancy
  Mg  Mg0  1  0.99999207  0.49831624  0.76790374  1
  V  V0  1  0.33003047  0.02594850  0.48010316  1
  V  V1  1  0.66999267  0.69597395  0.48017496  1
  V  V2  1  0.00001657  0.35777883  0.47751469  1
  Ag  Ag0  1  0.40955208  0.64486106  0.10870653  1
  Ag  Ag1  1  0.59038568  0.23522959  0.10870239  1
  Te  Te0  1  -0.00012801  0.71828505  0.01832610  1
  S  S0  1  0.66323426  0.29507664  0.34319040  1
  S  S1  1  0.66176607  0.42519487  0.61622919  1
  S  S2  1  0.33679916  0.63181584  0.34318240  1
  S  S3  1  0.33837686  0.76350568  0.61626018  1
  S  S4  1  -0.00000353  0.96278066  0.34541261  1
  S  S5  1  0.00008465  0.09047112  0.61929365  1
loop_
_geom_bond_atom_site_label_1
_geom_bond_atom_site_label_2
_geom_bond_distance
_geom_bond_site_symmetry_2
Mg0 S5 2.466591 1_655
Mg0 S1 2.471965 1_555
Mg0 S3 2.472602 1_655
Mg0 Te0 2.744351 1_656
Ag0 S2 2.586027 1_555
Ag0 Te0 2.818918 1_555
Ag0 Ag1 2.920585 1_565
Ag0 Ag1 2.920965 1_555
Ag0 Te0 3.131341 1_655
Ag1 S0 2.586019 1_555
Ag1 Te0 2.818793 1_655
Ag1 Te0 3.131947 1_545
S0 V2 2.352232 1_655
S0 V0 2.353943 1_555
S0 V1 2.366881 1_555
S1 V0 2.345734 1_555
S1 V1 2.356842 1_555
S1 V2 2.388348 1_655
S2 V2 2.352564 1_555
S2 V1 2.353967 1_555
S2 V0 2.366587 1_565
S3 V1 2.345226 1_555
S3 V0 2.357519 1_565
S3 V2 2.388690 1_555
S4 V0 2.324734 1_565
S4 V1 2.325456 1_455
S4 V2 2.333599 1_565
S5 V1 2.348892 1_445
S5 V0 2.349138 1_555
S5 V2 2.409718 1_555
