# generated using pymatgen
data_Ba7Ga4Sb9
_symmetry_space_group_name_H-M   'P 1'
_cell_length_a   7.22471500
_cell_length_b   10.98757200
_cell_length_c   18.38533700
_cell_angle_alpha   90.00000000
_cell_angle_beta   90.00000000
_cell_angle_gamma   90.00000000
_symmetry_Int_Tables_number   1
_chemical_formula_structural   Ba7Ga4Sb9
_chemical_formula_sum   'Ba14 Ga8 Sb18'
_cell_volume   1459.46622347
_cell_formula_units_Z   2
loop_
 _symmetry_equiv_pos_site_id
 _symmetry_equiv_pos_as_xyz
  1  'x, y, z'
loop_
 _atom_site_type_symbol
 _atom_site_label
 _atom_site_symmetry_multiplicity
 _atom_site_fract_x
 _atom_site_fract_y
 _atom_site_fract_z
 _atom_site_occupancy
  Ba  Ba0  1  0.92364500  0.50000000  0.00000000  1
  Ba  Ba1  1  0.07635500  0.00000000  0.50000000  1
  Ba  Ba2  1  0.45751900  0.27098300  0.37553100  1
  Ba  Ba3  1  0.45751900  0.72901700  0.62446900  1
  Ba  Ba4  1  0.54248100  0.77098300  0.12446900  1
  Ba  Ba5  1  0.54248100  0.22901700  0.87553100  1
  Ba  Ba6  1  0.54248100  0.22901700  0.12446900  1
  Ba  Ba7  1  0.54248100  0.77098300  0.87553100  1
  Ba  Ba8  1  0.45751900  0.72901700  0.37553100  1
  Ba  Ba9  1  0.45751900  0.27098300  0.62446900  1
  Ba  Ba10  1  0.04095700  0.00000000  0.21399500  1
  Ba  Ba11  1  0.04095700  0.00000000  0.78600500  1
  Ba  Ba12  1  0.95904300  0.50000000  0.28600500  1
  Ba  Ba13  1  0.95904300  0.50000000  0.71399500  1
  Ga  Ga0  1  0.05777800  0.18056300  0.00000000  1
  Ga  Ga1  1  0.05777800  0.81943700  0.00000000  1
  Ga  Ga2  1  0.94222200  0.31943700  0.50000000  1
  Ga  Ga3  1  0.94222200  0.68056300  0.50000000  1
  Ga  Ga4  1  0.74120000  0.00000000  0.37253900  1
  Ga  Ga5  1  0.74120000  0.00000000  0.62746100  1
  Ga  Ga6  1  0.25880000  0.50000000  0.12746100  1
  Ga  Ga7  1  0.25880000  0.50000000  0.87253900  1
  Sb  Sb0  1  0.47936700  0.50000000  0.75706900  1
  Sb  Sb1  1  0.47936700  0.50000000  0.24293100  1
  Sb  Sb2  1  0.95453800  0.78979200  0.36778300  1
  Sb  Sb3  1  0.95453800  0.21020800  0.63221700  1
  Sb  Sb4  1  0.04546200  0.28979200  0.13221700  1
  Sb  Sb5  1  0.04546200  0.71020800  0.86778300  1
  Sb  Sb6  1  0.52063300  0.00000000  0.25706900  1
  Sb  Sb7  1  0.52063300  0.00000000  0.74293100  1
  Sb  Sb8  1  0.21172900  0.50000000  0.50000000  1
  Sb  Sb9  1  0.78827100  0.00000000  0.00000000  1
  Sb  Sb10  1  0.66959600  0.50000000  0.50000000  1
  Sb  Sb11  1  0.33040400  0.00000000  0.00000000  1
  Sb  Sb12  1  0.45618800  0.50000000  0.00000000  1
  Sb  Sb13  1  0.54381200  0.00000000  0.50000000  1
  Sb  Sb14  1  0.95453800  0.78979200  0.63221700  1
  Sb  Sb15  1  0.95453800  0.21020800  0.36778300  1
  Sb  Sb16  1  0.04546200  0.28979200  0.86778300  1
  Sb  Sb17  1  0.04546200  0.71020800  0.13221700  1
loop_
_geom_bond_atom_site_label_1
_geom_bond_atom_site_label_2
_geom_bond_distance
_geom_bond_site_symmetry_2
Ba0 Ga6 3.369683 1_655
Ba0 Ga7 3.369683 1_654
Ba0 Sb12 3.377244 1_555
Ba0 Sb17 3.466730 1_655
Ba0 Sb4 3.466730 1_655
Ba0 Sb5 3.466730 1_654
Ba0 Sb16 3.466730 1_654
Ba0 Ga0 3.641162 1_655
Ba0 Ga1 3.641162 1_655
Ba0 Sb12 3.847471 1_655
Ba1 Ga4 3.369683 1_455
Ba1 Ga5 3.369683 1_455
Ba1 Sb13 3.377244 1_555
Ba1 Sb2 3.466730 1_445
Ba1 Sb14 3.466730 1_445
Ba1 Sb15 3.466730 1_455
Ba1 Sb3 3.466730 1_455
Ba1 Ga3 3.641162 1_445
Ba1 Ga2 3.641162 1_455
Ba1 Sb13 3.847471 1_455
Ba2 Sb1 3.507167 1_555
Ba2 Ga4 3.615068 1_555
Ba2 Sb15 3.655161 1_555
Ba2 Sb15 3.697485 1_455
Ba2 Sb6 3.717072 1_555
Ba2 Sb10 3.730468 1_555
Ba2 Sb13 3.806659 1_555
Ba2 Sb8 3.836939 1_555
Ba3 Sb0 3.507167 1_555
Ba3 Ga5 3.615068 1_565
Ba3 Sb14 3.655161 1_555
Ba3 Sb14 3.697485 1_455
Ba3 Sb7 3.717072 1_565
Ba3 Sb10 3.730468 1_555
Ba3 Sb13 3.806659 1_565
Ba3 Sb8 3.836939 1_555
Ba4 Sb6 3.507167 1_565
Ba4 Ga6 3.615068 1_555
Ba4 Sb17 3.655161 1_555
Ba4 Sb17 3.697485 1_655
Ba4 Sb1 3.717072 1_555
Ba4 Sb11 3.730468 1_565
Ba4 Sb12 3.806659 1_555
Ba4 Sb9 3.836939 1_565
Ba5 Sb7 3.507167 1_555
Ba5 Ga7 3.615068 1_555
Ba5 Sb16 3.655161 1_555
Ba5 Sb16 3.697485 1_655
Ba5 Sb0 3.717072 1_555
Ba5 Sb11 3.730468 1_556
Ba5 Sb12 3.806659 1_556
Ba5 Sb9 3.836939 1_556
Ba6 Sb6 3.507167 1_555
Ba6 Ga6 3.615068 1_555
Ba6 Sb4 3.655161 1_555
Ba6 Sb4 3.697485 1_655
Ba6 Sb1 3.717072 1_555
Ba6 Sb11 3.730468 1_555
Ba6 Sb12 3.806659 1_555
Ba6 Sb9 3.836939 1_555
Ba7 Sb7 3.507167 1_565
Ba7 Ga7 3.615068 1_555
Ba7 Sb5 3.655161 1_555
Ba7 Sb5 3.697485 1_655
Ba7 Sb0 3.717072 1_555
Ba7 Sb11 3.730468 1_566
Ba7 Sb12 3.806659 1_556
Ba7 Sb9 3.836939 1_566
Ba8 Sb1 3.507167 1_555
Ba8 Ga4 3.615068 1_565
Ba8 Sb2 3.655161 1_555
Ba8 Sb2 3.697485 1_455
Ba8 Sb6 3.717072 1_565
Ba8 Sb10 3.730468 1_555
Ba8 Sb13 3.806659 1_565
Ba8 Sb8 3.836939 1_555
Ba9 Sb0 3.507167 1_555
Ba9 Ga5 3.615068 1_555
Ba9 Sb3 3.655161 1_555
Ba9 Sb3 3.697485 1_455
Ba9 Sb7 3.717072 1_555
Ba9 Sb10 3.730468 1_555
Ba9 Sb13 3.806659 1_555
Ba9 Sb8 3.836939 1_555
Ba10 Sb4 3.521389 1_555
Ba10 Sb17 3.521389 1_545
Ba10 Sb6 3.554856 1_555
Ba10 Ga4 3.631340 1_455
Ba10 Sb2 3.703898 1_445
Ba10 Sb15 3.703898 1_455
Ba10 Sb6 3.841703 1_455
Ba11 Sb16 3.521389 1_555
Ba11 Sb5 3.521389 1_545
Ba11 Sb7 3.554856 1_555
Ba11 Ga5 3.631340 1_455
Ba11 Sb14 3.703898 1_445
Ba11 Sb3 3.703898 1_455
Ba11 Sb7 3.841703 1_455
Ba12 Sb15 3.521389 1_555
Ba12 Sb2 3.521389 1_555
Ba12 Sb1 3.554856 1_555
Ba12 Ga6 3.631340 1_655
Ba12 Sb17 3.703898 1_655
Ba12 Sb4 3.703898 1_655
Ba12 Sb1 3.841703 1_655
Ba13 Sb3 3.521389 1_555
Ba13 Sb14 3.521389 1_555
Ba13 Sb0 3.554856 1_555
Ba13 Ga7 3.631340 1_655
Ba13 Sb5 3.703898 1_655
Ba13 Sb16 3.703898 1_655
Ba13 Sb0 3.841703 1_655
Ga0 Sb4 2.712445 1_555
Ga0 Sb16 2.712445 1_554
Ga0 Sb9 2.779801 1_455
Ga0 Sb11 2.795632 1_555
Ga1 Sb17 2.712445 1_555
Ga1 Sb5 2.712445 1_554
Ga1 Sb9 2.779801 1_465
Ga1 Sb11 2.795632 1_565
Ga2 Sb15 2.712445 1_555
Ga2 Sb3 2.712445 1_555
Ga2 Sb8 2.779801 1_655
Ga2 Sb10 2.795632 1_555
Ga3 Sb2 2.712445 1_555
Ga3 Sb14 2.712445 1_555
Ga3 Sb8 2.779801 1_655
Ga3 Sb10 2.795632 1_555
Ga4 Sb6 2.654484 1_555
Ga4 Sb13 2.743222 1_555
Ga4 Sb2 2.778106 1_545
Ga4 Sb15 2.778106 1_555
Ga5 Sb7 2.654484 1_555
Ga5 Sb13 2.743222 1_555
Ga5 Sb14 2.778106 1_545
Ga5 Sb3 2.778106 1_555
Ga6 Sb1 2.654484 1_555
Ga6 Sb12 2.743222 1_555
Ga6 Sb17 2.778106 1_555
Ga6 Sb4 2.778106 1_555
Ga7 Sb0 2.654484 1_555
Ga7 Sb12 2.743222 1_556
Ga7 Sb5 2.778106 1_555
Ga7 Sb16 2.778106 1_555
Sb10 Sb8 3.307959 1_555
Sb11 Sb9 3.307959 1_555
