# generated using pymatgen
data_NaV3F10
_symmetry_space_group_name_H-M   'P 1'
_cell_length_a   10.13983220
_cell_length_b   8.66437130
_cell_length_c   7.45256874
_cell_angle_alpha   77.59602021
_cell_angle_beta   56.55906444
_cell_angle_gamma   45.88812989
_symmetry_Int_Tables_number   1
_chemical_formula_structural   NaV3F10
_chemical_formula_sum   'Na2 V6 F20'
_cell_volume   376.38691173
_cell_formula_units_Z   2
loop_
 _symmetry_equiv_pos_site_id
 _symmetry_equiv_pos_as_xyz
  1  'x, y, z'
loop_
 _atom_site_type_symbol
 _atom_site_label
 _atom_site_symmetry_multiplicity
 _atom_site_fract_x
 _atom_site_fract_y
 _atom_site_fract_z
 _atom_site_occupancy
  Na  Na0  1  0.99866625  0.00347993  0.00177263  1
  Na  Na1  1  0.24770034  0.25012281  0.25273535  1
  V  V0  1  0.50696190  0.49595445  0.49295450  1
  V  V1  1  0.75426825  0.74280675  0.74568719  1
  V  V2  1  0.25954224  0.24500000  0.74044977  1
  V  V3  1  0.75745239  0.74297618  0.24255114  1
  V  V4  1  0.50676552  0.49279882  0.99306716  1
  V  V5  1  0.00484174  0.99055431  0.49528543  1
  F  F0  1  0.14743799  0.12393936  0.85056320  1
  F  F1  1  0.87891281  0.85411639  0.12275226  1
  F  F2  1  0.39555186  0.37140965  0.10563251  1
  F  F3  1  0.12583926  0.10267883  0.37252145  1
  F  F4  1  0.80744766  0.19104219  0.78582500  1
  F  F5  1  0.20105839  0.78922842  0.20550115  1
  F  F6  1  0.46095614  0.04871751  0.44559100  1
  F  F7  1  0.05922608  0.44231168  0.03412059  1
  F  F8  1  0.84462374  0.64658444  0.44774840  1
  F  F9  1  0.04957525  0.45518877  0.65000811  1
  F  F10  1  0.79470271  0.20061947  0.40494995  1
  F  F11  1  0.60320592  0.40552020  0.18907005  1
  F  F12  1  0.62925142  0.61954183  0.37045795  1
  F  F13  1  0.38306072  0.37232493  0.61739448  1
  F  F14  1  0.87756774  0.86702866  0.62282847  1
  F  F15  1  0.63045975  0.62075781  0.86933017  1
  F  F16  1  0.46830266  0.03688957  0.83132273  1
  F  F17  1  0.66036392  0.83085562  0.04806617  1
  F  F18  1  0.41898878  0.59007902  0.78932657  1
  F  F19  1  0.21288256  0.78185640  0.58687164  1
loop_
_geom_bond_atom_site_label_1
_geom_bond_atom_site_label_2
_geom_bond_distance
_geom_bond_site_symmetry_2
F0 V2 1.824207 1_555
F0 Na0 2.108980 1_456
F1 V3 1.819609 1_555
F1 Na0 2.107585 1_565
F2 V4 1.819633 1_554
F2 Na1 2.107277 1_555
F3 V5 1.823842 1_545
F3 Na1 2.108941 1_555
F4 V5 1.926422 1_645
F4 V4 1.991109 1_555
F4 Na0 2.630503 1_556
F5 V5 1.927827 1_555
F5 V4 1.991599 1_554
F5 Na0 2.623499 1_465
F6 V2 1.927698 1_555
F6 V3 1.991670 1_545
F6 Na1 2.623283 1_555
F7 V2 1.926679 1_554
F7 V3 1.991261 1_455
F7 Na1 2.629745 1_555
F8 V3 1.931531 1_555
F8 V1 1.988588 1_555
F8 Na1 2.582576 1_655
F9 V1 1.925336 1_455
F9 V2 1.990044 1_555
F9 Na1 2.587251 1_555
F10 V0 1.925922 1_555
F10 V5 1.990443 1_645
F10 Na0 2.580922 1_555
F11 V4 1.931884 1_554
F11 V0 1.989276 1_555
F11 Na0 2.576123 1_555
F12 V0 1.923141 1_555
F12 V3 1.968246 1_555
F13 V0 1.936077 1_555
F13 V2 1.962048 1_555
F14 V1 1.936006 1_555
F14 V5 1.961697 1_655
F15 V1 1.922992 1_555
F15 V4 1.968379 1_555
F16 V1 1.918640 1_545
F16 V2 1.983085 1_555
F16 Na1 2.697614 1_556
F17 V3 1.924769 1_555
F17 V1 1.982247 1_554
F17 Na1 2.686427 1_565
F18 V4 1.924430 1_555
F18 V0 1.982142 1_555
F18 Na0 2.692250 1_466
F19 V0 1.918178 1_555
F19 V5 1.982945 1_555
F19 Na0 2.703359 1_466
