# generated using pymatgen
data_RhBr3
_symmetry_space_group_name_H-M   'P 1'
_cell_length_a   6.35219475
_cell_length_b   6.35219418
_cell_length_c   6.54141790
_cell_angle_alpha   99.00278630
_cell_angle_beta   99.00279755
_cell_angle_gamma   119.97736734
_symmetry_Int_Tables_number   1
_chemical_formula_structural   RhBr3
_chemical_formula_sum   'Rh2 Br6'
_cell_volume   217.16068198
_cell_formula_units_Z   2
loop_
 _symmetry_equiv_pos_site_id
 _symmetry_equiv_pos_as_xyz
  1  'x, y, z'
loop_
 _atom_site_type_symbol
 _atom_site_label
 _atom_site_symmetry_multiplicity
 _atom_site_fract_x
 _atom_site_fract_y
 _atom_site_fract_z
 _atom_site_occupancy
  Rh  Rh0  1  0.83335669  0.16664331  1.00000000  1
  Rh  Rh1  1  0.16664331  0.83335669  0.00000000  1
  Br  Br0  1  0.77878873  0.77878873  0.77345630  1
  Br  Br1  1  0.22121127  0.22121127  0.22654370  1
  Br  Br2  1  0.57263880  0.92483819  0.22574853  1
  Br  Br3  1  0.07516181  0.42736120  0.77425147  1
  Br  Br4  1  0.42736120  0.07516181  0.77425147  1
  Br  Br5  1  0.92483819  0.57263880  0.22574853  1
loop_
_geom_bond_atom_site_label_1
_geom_bond_atom_site_label_2
_geom_bond_distance
_geom_bond_site_symmetry_2
Br0 Rh1 2.495869 1_656
Br0 Rh0 2.495869 1_565
Br1 Rh0 2.495869 1_454
Br1 Rh1 2.495869 1_545
Br2 Rh1 2.492254 1_555
Br2 Rh0 2.493179 1_564
Br3 Rh1 2.492254 1_556
Br3 Rh0 2.493179 1_455
Br4 Rh0 2.492254 1_555
Br4 Rh1 2.493179 1_546
Br5 Rh0 2.492254 1_554
Br5 Rh1 2.493179 1_655
