# generated using pymatgen
data_KMgMn16O32
_symmetry_space_group_name_H-M   'P 1'
_cell_length_a   5.90487511
_cell_length_b   9.98808177
_cell_length_c   10.28471409
_cell_angle_alpha   89.58502453
_cell_angle_beta   89.98817325
_cell_angle_gamma   90.01879999
_symmetry_Int_Tables_number   1
_chemical_formula_structural   KMgMn16O32
_chemical_formula_sum   'K1 Mg1 Mn16 O32'
_cell_volume   606.55977389
_cell_formula_units_Z   1
loop_
 _symmetry_equiv_pos_site_id
 _symmetry_equiv_pos_as_xyz
  1  'x, y, z'
loop_
 _atom_site_type_symbol
 _atom_site_label
 _atom_site_symmetry_multiplicity
 _atom_site_fract_x
 _atom_site_fract_y
 _atom_site_fract_z
 _atom_site_occupancy
  K  K0  1  0.99826200  0.50365900  0.49815700  1
  Mg  Mg0  1  0.49975800  0.99908400  0.49540100  1
  Mn  Mn0  1  0.49771700  0.19407600  0.33897800  1
  Mn  Mn1  1  0.99796100  0.16323800  0.34655200  1
  Mn  Mn2  1  0.49808700  0.35142000  0.83383600  1
  Mn  Mn3  1  0.99818500  0.34858700  0.83719600  1
  Mn  Mn4  1  0.99819600  0.64969300  0.15482400  1
  Mn  Mn5  1  0.49813300  0.64802300  0.15934800  1
  Mn  Mn6  1  0.99804400  0.84114500  0.64675100  1
  Mn  Mn7  1  0.49762800  0.80518100  0.65454600  1
  Mn  Mn8  1  0.75304100  0.66607700  0.85226900  1
  Mn  Mn9  1  0.24216600  0.66583500  0.85221900  1
  Mn  Mn10  1  0.75357300  0.83755800  0.32401900  1
  Mn  Mn11  1  0.24398600  0.83758300  0.32413000  1
  Mn  Mn12  1  0.75194000  0.16208500  0.66415700  1
  Mn  Mn13  1  0.24515900  0.16207600  0.66389500  1
  Mn  Mn14  1  0.75118300  0.33201700  0.14138100  1
  Mn  Mn15  1  0.24402000  0.33212600  0.14159300  1
  O  O0  1  0.73697700  0.96644700  0.63992200  1
  O  O1  1  0.26017400  0.96616500  0.63975500  1
  O  O2  1  0.74517900  0.66625700  0.04000500  1
  O  O3  1  0.25100600  0.66649800  0.03998900  1
  O  O4  1  0.74642400  0.32626700  0.95406300  1
  O  O5  1  0.24967700  0.32604400  0.95413800  1
  O  O6  1  0.73978100  0.03669600  0.34993700  1
  O  O7  1  0.25749700  0.03691900  0.35003400  1
  O  O8  1  0.99768600  0.45574400  0.14565900  1
  O  O9  1  0.49774300  0.45411200  0.15446200  1
  O  O10  1  0.99831100  0.18538400  0.54015200  1
  O  O11  1  0.49848000  0.18899500  0.53738700  1
  O  O12  1  0.49841400  0.81104000  0.45261000  1
  O  O13  1  0.99856400  0.81969000  0.44429600  1
  O  O14  1  0.49782600  0.54187500  0.84120700  1
  O  O15  1  0.99753600  0.54005200  0.84645200  1
  O  O16  1  0.49752900  0.79108500  0.83915300  1
  O  O17  1  0.99781400  0.79060600  0.85541900  1
  O  O18  1  0.99867600  0.84078600  0.19873900  1
  O  O19  1  0.49852600  0.83737700  0.20172900  1
  O  O20  1  0.99764700  0.20045400  0.15335900  1
  O  O21  1  0.49746400  0.20670800  0.15511500  1
  O  O22  1  0.49823300  0.16121400  0.78628100  1
  O  O23  1  0.99849300  0.15736200  0.78811100  1
  O  O24  1  0.76837500  0.30396000  0.33027400  1
  O  O25  1  0.22647200  0.30418800  0.33052800  1
  O  O26  1  0.75255500  0.35406100  0.71051700  1
  O  O27  1  0.24413900  0.35467300  0.71087700  1
  O  O28  1  0.76822400  0.69733600  0.66494000  1
  O  O29  1  0.22719300  0.69694000  0.66473100  1
  O  O30  1  0.75337100  0.64572700  0.28242700  1
  O  O31  1  0.24322500  0.64553300  0.28232600  1
loop_
_geom_bond_atom_site_label_1
_geom_bond_atom_site_label_2
_geom_bond_distance
_geom_bond_site_symmetry_2
K0 O29 2.921700 1_655
K0 O28 2.928887 1_555
K0 O25 2.967840 1_655
K0 O24 2.975143 1_555
K0 O31 2.996568 1_655
K0 O30 2.997395 1_555
K0 O26 3.009613 1_555
K0 O27 3.010683 1_655
K0 O13 3.200827 1_555
K0 O10 3.205062 1_555
Mg0 O12 1.932186 1_555
Mg0 O11 1.948440 1_565
Mg0 O0 2.066823 1_555
Mg0 O1 2.074954 1_555
Mg0 O6 2.092535 1_565
Mg0 O7 2.101773 1_565
Mn0 O21 1.894272 1_555
Mn0 O24 1.940155 1_555
Mn0 O25 1.944813 1_555
Mn0 O11 2.040849 1_555
Mn0 O7 2.117739 1_555
Mn0 O6 2.127366 1_555
Mn1 O25 1.955788 1_655
Mn1 O24 1.959432 1_555
Mn1 O6 1.980132 1_555
Mn1 O7 1.985550 1_655
Mn1 O10 2.004962 1_555
Mn1 O20 2.018759 1_555
Mn2 O14 1.904340 1_555
Mn2 O4 1.933615 1_555
Mn2 O5 1.934202 1_555
Mn2 O27 1.961907 1_555
Mn2 O22 1.965167 1_555
Mn2 O26 1.966163 1_555
Mn3 O15 1.915429 1_555
Mn3 O4 1.923425 1_555
Mn3 O5 1.923426 1_655
Mn3 O27 1.949044 1_655
Mn3 O26 1.950366 1_555
Mn3 O23 1.979093 1_555
Mn4 O3 1.909912 1_655
Mn4 O2 1.911033 1_555
Mn4 O8 1.940153 1_555
Mn4 O30 1.952491 1_555
Mn4 O31 1.953137 1_655
Mn4 O18 1.964545 1_555
Mn5 O2 1.914047 1_555
Mn5 O3 1.915214 1_555
Mn5 O9 1.937815 1_555
Mn5 O19 1.943935 1_555
Mn5 O31 1.965879 1_555
Mn5 O30 1.968437 1_555
Mn6 O28 1.983558 1_555
Mn6 O29 1.984224 1_655
Mn6 O0 1.986887 1_555
Mn6 O1 1.989387 1_655
Mn6 O13 2.094735 1_555
Mn6 O17 2.201096 1_555
Mn7 O16 1.902826 1_555
Mn7 O28 1.929850 1_555
Mn7 O29 1.930542 1_555
Mn7 O12 2.077259 1_555
Mn7 O1 2.138355 1_555
Mn7 O0 2.146974 1_555
Mn8 O17 1.906980 1_555
Mn8 O15 1.916919 1_555
Mn8 O2 1.931373 1_556
Mn8 O28 1.951563 1_555
Mn8 O14 1.955469 1_555
Mn8 O16 1.962761 1_555
Mn9 O17 1.907296 1_455
Mn9 O15 1.915311 1_455
Mn9 O3 1.931936 1_556
Mn9 O29 1.952931 1_555
Mn9 O14 1.956521 1_555
Mn9 O16 1.962917 1_555
Mn10 O13 1.911161 1_555
Mn10 O18 1.937647 1_555
Mn10 O19 1.962337 1_555
Mn10 O30 1.966214 1_555
Mn10 O6 2.010376 1_565
Mn10 O12 2.020680 1_555
Mn11 O13 1.911898 1_455
Mn11 O18 1.939729 1_455
Mn11 O19 1.960377 1_555
Mn11 O31 1.968844 1_555
Mn11 O7 2.012200 1_565
Mn11 O12 2.017285 1_555
Mn12 O23 1.935692 1_555
Mn12 O10 1.947258 1_555
Mn12 O22 1.954744 1_555
Mn12 O0 1.973623 1_545
Mn12 O26 1.979214 1_555
Mn12 O11 2.002017 1_555
Mn13 O23 1.937548 1_455
Mn13 O10 1.948122 1_455
Mn13 O22 1.954017 1_555
Mn13 O1 1.976262 1_545
Mn13 O27 1.986834 1_555
Mn13 O11 1.999129 1_555
Mn14 O8 1.909828 1_555
Mn14 O4 1.927994 1_554
Mn14 O9 1.936069 1_555
Mn14 O21 1.956299 1_555
Mn14 O24 1.963460 1_555
Mn14 O20 1.964416 1_555
Mn15 O8 1.908908 1_455
Mn15 O5 1.929600 1_554
Mn15 O9 1.935940 1_555
Mn15 O21 1.956280 1_555
Mn15 O25 1.963785 1_555
Mn15 O20 1.963945 1_455
