# generated using pymatgen
data_Na2YAlP2SO12
_symmetry_space_group_name_H-M   'P 1'
_cell_length_a   8.84664891
_cell_length_b   8.85501071
_cell_length_c   22.64366518
_cell_angle_alpha   90.69650880
_cell_angle_beta   89.50895606
_cell_angle_gamma   120.13735247
_symmetry_Int_Tables_number   1
_chemical_formula_structural   Na2YAlP2SO12
_chemical_formula_sum   'Na12 Y6 Al6 P12 S6 O72'
_cell_volume   1533.94090564
_cell_formula_units_Z   6
loop_
 _symmetry_equiv_pos_site_id
 _symmetry_equiv_pos_as_xyz
  1  'x, y, z'
loop_
 _atom_site_type_symbol
 _atom_site_label
 _atom_site_symmetry_multiplicity
 _atom_site_fract_x
 _atom_site_fract_y
 _atom_site_fract_z
 _atom_site_occupancy
  Na  Na0  1  0.99629499  0.63782301  0.25694844  1
  Na  Na1  1  0.37092444  0.01090647  0.74771036  1
  Na  Na2  1  0.66197938  0.95310556  0.58788465  1
  Na  Na3  1  0.04087807  0.33505642  0.09071862  1
  Na  Na4  1  0.32602545  0.30282107  0.92058072  1
  Na  Na5  1  0.69393822  0.67068542  0.41895770  1
  Na  Na6  1  0.03152098  0.99858728  0.49913877  1
  Na  Na7  1  0.01023489  0.97524151  0.00218804  1
  Na  Na8  1  0.69215991  0.32556859  0.82915752  1
  Na  Na9  1  0.66626450  0.30820290  0.33629486  1
  Na  Na10  1  0.35837860  0.66056495  0.17639335  1
  Na  Na11  1  0.33882932  0.64342559  0.66182597  1
  Y  Y0  1  0.99469908  0.00596651  0.84309648  1
  Y  Y1  1  0.00050585  0.99819463  0.16114750  1
  Y  Y2  1  0.66856839  0.32850270  0.98275542  1
  Y  Y3  1  0.33088223  0.67820285  0.02442741  1
  Y  Y4  1  0.32642447  0.67044196  0.51612595  1
  Y  Y5  1  0.33649348  0.66251979  0.80623747  1
  Al  Al0  1  0.97952085  0.99564749  0.34836813  1
  Al  Al1  1  0.00481204  0.99536672  0.64360365  1
  Al  Al2  1  0.65706932  0.33318755  0.67943654  1
  Al  Al3  1  0.66654960  0.35003048  0.19003919  1
  Al  Al4  1  0.66605984  0.33007883  0.48286109  1
  Al  Al5  1  0.33120248  0.66742890  0.32172934  1
  P  P0  1  0.68386424  0.69417124  0.25591761  1
  P  P1  1  0.00295044  0.30662953  0.25443261  1
  P  P2  1  0.30033502  0.28818434  0.73937528  1
  P  P3  1  0.71170392  0.01812068  0.73542853  1
  P  P4  1  0.37772529  0.06195578  0.58309659  1
  P  P5  1  0.68355192  0.62220919  0.58231758  1
  P  P6  1  0.95526958  0.62471631  0.09324267  1
  P  P7  1  0.37859426  0.33526300  0.09004920  1
  P  P8  1  0.03508401  0.36571409  0.91737229  1
  P  P9  1  0.33060968  0.96886128  0.91058221  1
  P  P10  1  0.63184793  0.96989498  0.41618059  1
  P  P11  1  0.02989792  0.67238901  0.41214232  1
  S  S0  1  0.30673427  0.99773295  0.25721965  1
  S  S1  1  0.98218387  0.69412487  0.73930395  1
  S  S2  1  0.94283882  0.32409589  0.58361613  1
  S  S3  1  0.66548015  0.04683494  0.09521753  1
  S  S4  1  0.63748255  0.67132512  0.91650238  1
  S  S5  1  0.32426330  0.35952417  0.41338259  1
  O  O0  1  0.20897999  0.02459829  0.30549179  1
  O  O1  1  0.82336522  0.79004035  0.30563298  1
  O  O2  1  0.97660073  0.16723327  0.30056203  1
  O  O3  1  0.23971585  0.19550844  0.80016719  1
  O  O4  1  0.95757926  0.75990138  0.79671100  1
  O  O5  1  0.80230721  0.03574283  0.79480982  1
  O  O6  1  0.81044043  0.99168989  0.68304451  1
  O  O7  1  0.17024405  0.16902921  0.69174498  1
  O  O8  1  0.00321704  0.81393887  0.69112759  1
  O  O9  1  0.74891793  0.80080140  0.19926064  1
  O  O10  1  0.04239775  0.25364787  0.19356568  1
  O  O11  1  0.20192196  0.95098025  0.20190321  1
  O  O12  1  0.85576811  0.34046209  0.63652162  1
  O  O13  1  0.49110030  0.14251129  0.63838365  1
  O  O14  1  0.66443398  0.50890994  0.63529828  1
  O  O15  1  0.85495685  0.51768649  0.14845028  1
  O  O16  1  0.66577419  0.15329706  0.14543300  1
  O  O17  1  0.49093527  0.33271383  0.14146461  1
  O  O18  1  0.44810578  0.32358996  0.02821680  1
  O  O19  1  0.86541550  0.53455070  0.03534973  1
  O  O20  1  0.67467533  0.12849892  0.03759160  1
  O  O21  1  0.47112508  0.17269685  0.52782728  1
  O  O22  1  0.69943581  0.53659831  0.52331275  1
  O  O23  1  0.83860747  0.30373640  0.52924787  1
  O  O24  1  0.54927303  0.67841081  0.97090772  1
  O  O25  1  0.13016636  0.44997686  0.97639416  1
  O  O26  1  0.33547231  0.87105325  0.96565635  1
  O  O27  1  0.57562241  0.85703058  0.47310114  1
  O  O28  1  0.28718391  0.42386422  0.46910501  1
  O  O29  1  0.14003920  0.71028244  0.46823441  1
  O  O30  1  0.12507431  0.64441775  0.35903629  1
  O  O31  1  0.49717650  0.86449284  0.36734934  1
  O  O32  1  0.35905775  0.48788864  0.36549134  1
  O  O33  1  0.14595485  0.47044578  0.86428613  1
  O  O34  1  0.33766816  0.88187267  0.85189400  1
  O  O35  1  0.53974091  0.66569127  0.86315088  1
  O  O36  1  0.00311214  0.83252025  0.40177204  1
  O  O37  1  0.81376093  0.99092978  0.40072803  1
  O  O38  1  0.17476088  0.18436994  0.40057360  1
  O  O39  1  0.02059700  0.18440714  0.91631747  1
  O  O40  1  0.16378517  0.98225188  0.91360726  1
  O  O41  1  0.81377931  0.82353279  0.91575165  1
  O  O42  1  0.96075313  0.16488844  0.58547230  1
  O  O43  1  0.19135436  0.03681135  0.58927208  1
  O  O44  1  0.84680037  0.81229745  0.58844169  1
  O  O45  1  0.97870924  0.80824234  0.09294555  1
  O  O46  1  0.82527236  0.03177562  0.09544459  1
  O  O47  1  0.18987258  0.17680638  0.09311310  1
  O  O48  1  0.69042379  0.18134147  0.73122430  1
  O  O49  1  0.48594497  0.31389019  0.73246825  1
  O  O50  1  0.83299673  0.51643966  0.73192475  1
  O  O51  1  0.67346475  0.51288318  0.24752456  1
  O  O52  1  0.83678115  0.32666735  0.24940561  1
  O  O53  1  0.48005255  0.15633866  0.24932687  1
  O  O54  1  0.64381868  0.50719197  0.91462284  1
  O  O55  1  0.85514427  0.34861646  0.91305986  1
  O  O56  1  0.48838774  0.15752345  0.91041026  1
  O  O57  1  0.64675215  0.15030534  0.42770247  1
  O  O58  1  0.49024955  0.35397733  0.41980277  1
  O  O59  1  0.84461674  0.50562922  0.42117190  1
  O  O60  1  0.36506505  0.50335810  0.09262266  1
  O  O61  1  0.13528816  0.63375480  0.09516216  1
  O  O62  1  0.50793810  0.87305618  0.09741487  1
  O  O63  1  0.36298250  0.87891152  0.57868556  1
  O  O64  1  0.52121438  0.64722315  0.58000466  1
  O  O65  1  0.11910117  0.48030696  0.58095821  1
  O  O66  1  0.32694570  0.84250654  0.26755660  1
  O  O67  1  0.50330548  0.66992637  0.27140649  1
  O  O68  1  0.16139161  0.49133917  0.26882903  1
  O  O69  1  0.31090621  0.46606059  0.73936717  1
  O  O70  1  0.14804746  0.68867844  0.74038906  1
  O  O71  1  0.52343929  0.85624495  0.73678715  1
loop_
_geom_bond_atom_site_label_1
_geom_bond_atom_site_label_2
_geom_bond_distance
_geom_bond_site_symmetry_2
Na0 O52 2.387584 1_555
Na0 O68 2.409497 1_655
Na0 O51 2.501597 1_555
Na0 O66 2.564560 1_655
Na0 O30 2.572952 1_655
Na0 O1 2.716266 1_555
Na0 O15 2.717425 1_555
Na0 O11 2.744477 1_655
Na1 O71 2.366177 1_545
Na1 O49 2.372292 1_555
Na1 O48 2.473519 1_555
Na1 O70 2.530109 1_545
Na1 O34 2.583315 1_545
Na1 O3 2.695332 1_555
Na1 O13 2.719867 1_555
Na2 O64 2.350348 1_555
Na2 O42 2.351331 1_565
Na2 O63 2.394322 1_555
Na2 O6 2.462670 1_555
Na2 O44 2.505205 1_555
Na2 O27 2.718543 1_555
Na3 O61 2.341003 1_555
Na3 O47 2.358345 1_555
Na3 O46 2.391992 1_455
Na3 O10 2.448345 1_555
Na3 O60 2.481287 1_555
Na3 O25 2.753695 1_554
Na4 O39 2.359391 1_555
Na4 O56 2.369468 1_555
Na4 O40 2.458596 1_545
Na4 O54 2.467335 1_555
Na4 O18 2.641082 1_556
Na4 O3 2.857355 1_555
Na5 O36 2.396992 1_655
Na5 O59 2.423818 1_555
Na5 O58 2.457360 1_555
Na5 O37 2.517562 1_555
Na5 O27 2.642838 1_555
Na5 O22 2.669081 1_555
Na5 O1 2.795219 1_555
Na5 O32 2.839218 1_555
Na6 O43 2.414847 1_565
Na6 O36 2.577993 1_555
Na6 O44 2.607353 1_455
Na6 O42 2.686438 1_465
Na6 O38 2.690892 1_565
Na6 O37 2.936019 1_455
Na7 O40 2.396659 1_554
Na7 O45 2.477470 1_455
Na7 O41 2.511162 1_454
Na7 O47 2.658705 1_565
Na7 O39 2.670901 1_564
Na7 O46 2.850413 1_465
Na8 O55 2.339256 1_555
Na8 O56 2.482976 1_555
Na8 O48 2.541838 1_555
Na8 O54 2.667475 1_555
Na8 O50 2.680560 1_555
Na8 O49 2.829451 1_555
Na9 O52 2.425409 1_555
Na9 O57 2.467931 1_555
Na9 O53 2.483329 1_555
Na9 O59 2.537725 1_555
Na9 O58 2.594082 1_555
Na9 O51 2.701835 1_555
Na10 O60 2.357128 1_555
Na10 O62 2.455740 1_555
Na10 O67 2.493118 1_555
Na10 O61 2.629806 1_555
Na10 O68 2.656108 1_555
Na10 O66 2.700617 1_555
Na11 O69 2.297962 1_555
Na11 O64 2.435758 1_555
Na11 O71 2.445211 1_555
Na11 O65 2.528897 1_555
Na11 O70 2.604647 1_555
Na11 O63 2.753030 1_555
Al0 O37 1.862180 1_555
Al0 O2 1.887041 1_565
Al0 O1 1.901077 1_555
Al0 O36 1.985433 1_655
Al0 O38 2.064456 1_665
Al0 O0 2.139793 1_665
Al1 O7 1.849771 1_565
Al1 O6 1.916674 1_455
Al1 O43 1.933822 1_565
Al1 O8 1.938613 1_555
Al1 O44 1.961468 1_455
Al1 O42 2.186846 1_465
Al2 O14 1.832826 1_555
Al2 O13 1.834842 1_555
Al2 O49 1.864695 1_555
Al2 O48 1.926870 1_555
Al2 O12 1.974061 1_555
Al2 O50 1.979103 1_555
Al3 O15 1.841558 1_555
Al3 O17 1.852822 1_555
Al3 O51 1.909136 1_555
Al3 O16 2.000103 1_555
Al3 O52 2.114747 1_555
Al3 O53 2.154666 1_555
Al4 O21 1.882545 1_555
Al4 O22 1.921500 1_555
Al4 O57 1.950788 1_555
Al4 O23 1.969460 1_555
Al4 O59 2.100522 1_555
Al4 O58 2.208750 1_555
Al5 O67 1.885235 1_555
Al5 O31 1.917657 1_555
Al5 O30 1.919668 1_555
Al5 O68 1.938108 1_555
Al5 O32 2.001530 1_555
Al5 O66 2.003812 1_555
O0 S0 1.477600 1_545
O1 P0 1.568299 1_555
O2 P1 1.551540 1_655
O3 P2 1.558473 1_555
O3 Y0 2.193340 1_455
O4 S1 1.476630 1_555
O4 Y0 2.278261 1_565
O5 P3 1.537063 1_555
O5 Y0 2.156720 1_555
O6 P3 1.550975 1_565
O7 P2 1.541187 1_555
O8 S1 1.475368 1_455
O9 P0 1.529631 1_555
O9 Y1 2.202512 1_655
O10 P1 1.543341 1_555
O10 Y1 2.217099 1_545
O11 S0 1.490611 1_555
O11 Y1 2.233182 1_555
O12 S2 1.463400 1_555
O13 P4 1.537355 1_555
O14 P5 1.526359 1_555
O15 P6 1.553627 1_555
O16 S3 1.467369 1_555
O17 P7 1.544885 1_555
O18 P7 1.547484 1_555
O18 Y2 2.178749 1_554
O19 P6 1.530667 1_555
O19 Y2 2.138248 1_554
O20 S3 1.481304 1_555
O20 Y2 2.198176 1_554
O21 P4 1.552121 1_555
O22 P5 1.568020 1_555
O23 S2 1.498499 1_555
O24 S4 1.470161 1_555
O24 Y3 2.271065 1_556
O25 P8 1.554102 1_555
O25 Y3 2.190075 1_556
O26 P9 1.540053 1_555
O26 Y3 2.161843 1_556
O27 P10 1.558407 1_555
O27 Y4 2.209953 1_555
O28 S5 1.478961 1_555
O28 Y4 2.282607 1_555
O29 P11 1.535508 1_555
O29 Y4 2.154846 1_555
O30 P11 1.549568 1_555
O31 P10 1.547272 1_555
O32 S5 1.495217 1_555
O33 P8 1.536412 1_555
O33 Y5 2.144620 1_555
O34 P9 1.544424 1_555
O34 Y5 2.184678 1_555
O35 S4 1.477408 1_555
O35 Y5 2.209696 1_555
O36 P11 1.571103 1_555
O37 P10 1.561400 1_555
O38 S5 1.474704 1_555
O39 P8 1.545009 1_555
O39 Y0 2.208489 1_455
O40 P9 1.539689 1_555
O40 Y0 2.279334 1_465
O41 S4 1.462403 1_555
O41 Y0 2.302428 1_565
O42 S2 1.496756 1_555
O43 P4 1.554256 1_555
O44 P5 1.579546 1_555
O45 P6 1.531643 1_555
O45 Y1 2.206278 1_655
O46 S3 1.485119 1_555
O46 Y1 2.284343 1_645
O47 P7 1.552116 1_555
O47 Y1 2.244031 1_545
O48 P3 1.552525 1_555
O49 P2 1.547149 1_555
O50 S1 1.468875 1_555
O51 P0 1.570406 1_555
O52 P1 1.571859 1_655
O53 S0 1.481364 1_545
O54 S4 1.482427 1_555
O54 Y2 2.311875 1_555
O55 P8 1.525380 1_655
O55 Y2 2.216685 1_555
O56 P9 1.548471 1_545
O56 Y2 2.253387 1_555
O57 P10 1.554515 1_545
O58 S5 1.502021 1_555
O59 P11 1.574855 1_655
O60 P7 1.552408 1_555
O60 Y3 2.325796 1_555
O61 P6 1.554882 1_455
O61 Y3 2.235711 1_555
O62 S3 1.469685 1_565
O62 Y3 2.328774 1_555
O63 P4 1.561468 1_565
O63 Y4 2.205399 1_555
O64 P5 1.560547 1_555
O64 Y4 2.347288 1_555
O65 S2 1.477511 1_455
O65 Y4 2.294976 1_555
O66 S0 1.493795 1_555
O67 P0 1.538983 1_555
O68 P1 1.561709 1_555
O69 P2 1.530283 1_555
O69 Y5 2.217384 1_555
O70 S1 1.492553 1_455
O70 Y5 2.344126 1_555
O71 P3 1.559637 1_565
O71 Y5 2.307206 1_555
