# generated using pymatgen
data_EuYSi4N7
_symmetry_space_group_name_H-M   'P 1'
_cell_length_a   6.04646003
_cell_length_b   6.04646003
_cell_length_c   9.88389100
_cell_angle_alpha   90.00000000
_cell_angle_beta   90.00000000
_cell_angle_gamma   120.00000035
_symmetry_Int_Tables_number   1
_chemical_formula_structural   EuYSi4N7
_chemical_formula_sum   'Eu2 Y2 Si8 N14'
_cell_volume   312.93990792
_cell_formula_units_Z   2
loop_
 _symmetry_equiv_pos_site_id
 _symmetry_equiv_pos_as_xyz
  1  'x, y, z'
loop_
 _atom_site_type_symbol
 _atom_site_label
 _atom_site_symmetry_multiplicity
 _atom_site_fract_x
 _atom_site_fract_y
 _atom_site_fract_z
 _atom_site_occupancy
  Eu  Eu0  1  0.33333300  0.66666700  0.08713900  1
  Eu  Eu1  1  0.66666700  0.33333300  0.58713900  1
  Y  Y0  1  0.33333300  0.66666700  0.45242600  1
  Y  Y1  1  0.66666700  0.33333300  0.95242600  1
  Si  Si0  1  0.17362200  0.34724400  0.76122900  1
  Si  Si1  1  0.82637800  0.17362200  0.26122900  1
  Si  Si2  1  0.34724400  0.17362200  0.26122900  1
  Si  Si3  1  0.65275600  0.82637800  0.76122900  1
  Si  Si4  1  0.17362200  0.82637800  0.76122900  1
  Si  Si5  1  0.82637800  0.65275600  0.26122900  1
  Si  Si6  1  0.00000000  0.00000000  0.02817400  1
  Si  Si7  1  0.00000000  0.00000000  0.52817400  1
  N  N0  1  0.00000000  0.00000000  0.83774500  1
  N  N1  1  0.00000000  0.00000000  0.33774500  1
  N  N2  1  0.84704900  0.69409700  0.08856800  1
  N  N3  1  0.15295100  0.84704900  0.58856800  1
  N  N4  1  0.69409700  0.84704900  0.58856800  1
  N  N5  1  0.30590300  0.15295100  0.08856800  1
  N  N6  1  0.84704900  0.15295100  0.08856800  1
  N  N7  1  0.15295100  0.30590300  0.58856800  1
  N  N8  1  0.48904800  0.51095200  0.81227400  1
  N  N9  1  0.97809700  0.48904800  0.31227400  1
  N  N10  1  0.51095200  0.02190300  0.31227400  1
  N  N11  1  0.48904800  0.97809700  0.81227400  1
  N  N12  1  0.51095200  0.48904800  0.31227400  1
  N  N13  1  0.02190300  0.51095200  0.81227400  1
loop_
_geom_bond_atom_site_label_1
_geom_bond_atom_site_label_2
_geom_bond_distance
_geom_bond_site_symmetry_2
Eu0 N10 2.900298 1_565
Eu0 N9 2.900298 1_455
Eu0 N12 2.900305 1_555
Eu0 N2 3.026667 1_455
Eu0 N5 3.026667 1_565
Eu0 N6 3.026674 1_455
Eu0 N6 3.026674 1_565
Eu0 N5 3.026679 1_555
Eu0 N2 3.026679 1_555
Eu0 N11 3.168605 1_554
Eu0 N13 3.168605 1_554
Eu0 N8 3.168605 1_554
Eu1 N11 2.900298 1_545
Eu1 N13 2.900298 1_655
Eu1 N8 2.900305 1_555
Eu1 N4 3.026667 1_545
Eu1 N7 3.026667 1_655
Eu1 N3 3.026674 1_545
Eu1 N3 3.026674 1_655
Eu1 N7 3.026679 1_555
Eu1 N4 3.026679 1_555
Eu1 N9 3.168605 1_555
Eu1 N10 3.168605 1_555
Eu1 N12 3.168605 1_555
N0 Si6 1.882179 1_556
N0 Si3 1.969310 1_445
N0 Si0 1.969310 1_555
N0 Si4 1.969310 1_545
N1 Si7 1.882179 1_555
N1 Si2 1.969310 1_555
N1 Si5 1.969310 1_445
N1 Si1 1.969310 1_455
N2 Si6 1.709436 1_665
N2 Si5 1.720238 1_555
N2 Y1 2.319348 1_554
N3 Si7 1.709431 1_565
N3 Si4 1.720238 1_555
N3 Y0 2.319348 1_555
N4 Si7 1.709436 1_665
N4 Si3 1.720238 1_555
N4 Y0 2.319348 1_555
N5 Si6 1.709436 1_555
N5 Si2 1.720238 1_555
N5 Y1 2.319348 1_554
N6 Si6 1.709431 1_655
N6 Si1 1.720238 1_555
N6 Y1 2.319348 1_554
N7 Si7 1.709436 1_555
N7 Si0 1.720238 1_555
N7 Y0 2.319348 1_555
N8 Si3 1.727411 1_555
N8 Si0 1.727411 1_555
N8 Y1 2.319293 1_555
N9 Si1 1.727410 1_555
N9 Si5 1.727415 1_555
N9 Y0 2.319285 1_655
N10 Si1 1.727410 1_555
N10 Si2 1.727415 1_555
N10 Y0 2.319285 1_545
N11 Si4 1.727410 1_555
N11 Si3 1.727415 1_555
N11 Y1 2.319285 1_565
N12 Si5 1.727411 1_555
N12 Si2 1.727411 1_555
N12 Y0 2.319293 1_555
N13 Si4 1.727410 1_555
N13 Si0 1.727415 1_555
N13 Y1 2.319285 1_455
