# generated using pymatgen
data_MgTi5NbO12
_symmetry_space_group_name_H-M   'P 1'
_cell_length_a   7.45413392
_cell_length_b   5.78131238
_cell_length_c   5.66505468
_cell_angle_alpha   74.87512765
_cell_angle_beta   70.53245301
_cell_angle_gamma   68.38333527
_symmetry_Int_Tables_number   1
_chemical_formula_structural   MgTi5NbO12
_chemical_formula_sum   'Mg1 Ti5 Nb1 O12'
_cell_volume   211.31369612
_cell_formula_units_Z   1
loop_
 _symmetry_equiv_pos_site_id
 _symmetry_equiv_pos_as_xyz
  1  'x, y, z'
loop_
 _atom_site_type_symbol
 _atom_site_label
 _atom_site_symmetry_multiplicity
 _atom_site_fract_x
 _atom_site_fract_y
 _atom_site_fract_z
 _atom_site_occupancy
  Mg  Mg0  1  0.17190000  0.81507400  0.33197500  1
  Ti  Ti0  1  0.81593900  0.67186900  0.67566200  1
  Ti  Ti1  1  0.65266900  0.33922900  0.34360700  1
  Ti  Ti2  1  0.35674700  0.64328500  0.70843900  1
  Ti  Ti3  1  0.14918500  0.32152700  0.30977300  1
  Ti  Ti4  1  0.99694400  0.03179500  0.92844100  1
  Nb  Nb0  1  0.52765800  0.98971200  0.99172200  1
  O  O0  1  0.66732400  0.03092700  0.60606100  1
  O  O1  1  0.32875200  0.36986100  0.97081600  1
  O  O2  1  0.98269400  0.18677900  0.23451900  1
  O  O3  1  0.28929600  0.88828900  0.93904000  1
  O  O4  1  0.64502800  0.54295100  0.57508500  1
  O  O5  1  0.70738100  0.11295800  0.08245700  1
  O  O6  1  0.04911000  0.78164300  0.72550900  1
  O  O7  1  0.37127500  0.46847000  0.42581500  1
  O  O8  1  0.01320300  0.30306200  0.68548800  1
  O  O9  1  0.68573700  0.61135400  0.03990900  1
  O  O10  1  0.34670500  0.97484600  0.37784400  1
  O  O11  1  0.99245500  0.66636900  0.29783700  1
loop_
_geom_bond_atom_site_label_1
_geom_bond_atom_site_label_2
_geom_bond_distance
_geom_bond_site_symmetry_2
Mg0 O11 1.916288 1_455
Mg0 O10 1.963752 1_555
Mg0 O7 2.069579 1_555
Mg0 O3 2.093522 1_554
Mg0 O6 2.095393 1_555
Mg0 O2 2.139793 1_465
Nb0 O5 1.979918 1_566
Nb0 O9 2.061909 1_556
Nb0 O0 2.075804 1_565
Nb0 O1 2.150078 1_565
Nb0 O10 2.152252 1_556
Nb0 O3 2.191398 1_555
O0 Ti0 1.965055 1_545
O0 Ti1 1.995327 1_555
O1 Ti2 1.887276 1_555
O1 Ti3 1.959415 1_556
O2 Ti3 1.888680 1_655
O2 Ti4 2.106791 1_554
O2 Ti1 2.209966 1_555
O3 Ti2 1.992186 1_555
O3 Ti4 2.042077 1_465
O4 Ti2 1.937295 1_555
O4 Ti1 1.953657 1_555
O4 Ti0 1.976928 1_555
O5 Ti4 1.962769 1_554
O5 Ti1 2.069050 1_555
O6 Ti4 1.928641 1_465
O6 Ti2 2.109234 1_555
O6 Ti0 2.176430 1_455
O7 Ti1 1.884307 1_555
O7 Ti2 2.060300 1_555
O7 Ti3 2.438754 1_555
O8 Ti4 1.808580 1_455
O8 Ti3 2.022927 1_555
O8 Ti0 2.096212 1_455
O9 Ti0 1.964906 1_554
O9 Ti1 2.021487 1_555
O10 Ti3 2.033338 1_565
O10 Ti2 2.302560 1_555
O11 Ti3 1.900074 1_655
O11 Ti0 2.107390 1_555
O11 Ti4 2.557708 1_564
