# generated using pymatgen
data_Na6Ca2Zr6Si5S7O48
_symmetry_space_group_name_H-M   'P 1'
_cell_length_a   18.23107885
_cell_length_b   9.15430067
_cell_length_c   23.56351983
_cell_angle_alpha   90.00836794
_cell_angle_beta   90.09131117
_cell_angle_gamma   120.05475710
_symmetry_Int_Tables_number   1
_chemical_formula_structural   Na6Ca2Zr6Si5S7O48
_chemical_formula_sum   'Na18 Ca6 Zr18 Si15 S21 O144'
_cell_volume   3403.82821218
_cell_formula_units_Z   3
loop_
 _symmetry_equiv_pos_site_id
 _symmetry_equiv_pos_as_xyz
  1  'x, y, z'
loop_
 _atom_site_type_symbol
 _atom_site_label
 _atom_site_symmetry_multiplicity
 _atom_site_fract_x
 _atom_site_fract_y
 _atom_site_fract_z
 _atom_site_occupancy
  Na  Na0  1  0.66248603  0.35518742  0.58303655  1
  Na  Na1  1  0.51831990  0.67762094  0.58771021  1
  Na  Na2  1  0.81868345  0.96218681  0.58460911  1
  Na  Na3  1  0.16106705  0.96549840  0.08808210  1
  Na  Na4  1  0.31692863  0.67665945  0.08941543  1
  Na  Na5  1  0.01902518  0.36335303  0.09272088  1
  Na  Na6  1  0.01062776  0.98980912  0.49305449  1
  Na  Na7  1  0.48907845  0.01028901  0.50121895  1
  Na  Na8  1  0.99222769  0.97201204  0.00589062  1
  Na  Na9  1  0.50691054  0.01382899  0.00123124  1
  Na  Na10  1  0.32414751  0.31727727  0.82062589  1
  Na  Na11  1  0.82418571  0.32633070  0.83589720  1
  Na  Na12  1  0.31940913  0.31777042  0.33782478  1
  Na  Na13  1  0.83277439  0.34206093  0.32348850  1
  Na  Na14  1  0.16241637  0.66439181  0.15627411  1
  Na  Na15  1  0.67742937  0.68610942  0.17440264  1
  Na  Na16  1  0.17665449  0.66630346  0.66495832  1
  Na  Na17  1  0.66430677  0.66301292  0.64757449  1
  Ca  Ca0  1  0.33210334  0.32553154  0.68992624  1
  Ca  Ca1  1  0.83166555  0.33355507  0.68484622  1
  Ca  Ca2  1  0.33167184  0.32958180  0.18634454  1
  Ca  Ca3  1  0.83251564  0.34061439  0.19174667  1
  Ca  Ca4  1  0.16567477  0.66782254  0.01358508  1
  Ca  Ca5  1  0.66591756  0.66427817  0.51269266  1
  Zr  Zr0  1  0.00169531  0.99176355  0.35628535  1
  Zr  Zr1  1  0.49954760  0.99674653  0.35327788  1
  Zr  Zr2  1  0.00035908  0.00212506  0.85348323  1
  Zr  Zr3  1  0.50211799  0.00106235  0.85287480  1
  Zr  Zr4  1  0.00701714  0.00782841  0.64657288  1
  Zr  Zr5  1  0.49216308  0.00378711  0.64485927  1
  Zr  Zr6  1  0.99345171  0.98132332  0.14856692  1
  Zr  Zr7  1  0.50463305  0.00649350  0.15012022  1
  Zr  Zr8  1  0.32882342  0.31638605  0.98612251  1
  Zr  Zr9  1  0.83247472  0.34814283  0.97762065  1
  Zr  Zr10  1  0.33111863  0.31457303  0.47734273  1
  Zr  Zr11  1  0.83344321  0.35185645  0.48449364  1
  Zr  Zr12  1  0.67248205  0.67843313  0.01323631  1
  Zr  Zr13  1  0.16719025  0.66784852  0.50947908  1
  Zr  Zr14  1  0.16391334  0.66066108  0.32033880  1
  Zr  Zr15  1  0.67217024  0.67991450  0.31102269  1
  Zr  Zr16  1  0.17129525  0.66526823  0.80933184  1
  Zr  Zr17  1  0.67244216  0.67976905  0.81615527  1
  Si  Si0  1  0.64492078  0.99358531  0.25209602  1
  Si  Si1  1  0.85413011  0.71032852  0.25422428  1
  Si  Si2  1  0.14449646  0.29481626  0.75223294  1
  Si  Si3  1  0.35549299  0.00085385  0.75402767  1
  Si  Si4  1  0.47782265  0.33547410  0.58478336  1
  Si  Si5  1  0.68458249  0.03972720  0.58444198  1
  Si  Si6  1  0.83763374  0.64034297  0.58677270  1
  Si  Si7  1  0.97742583  0.62293885  0.08440519  1
  Si  Si8  1  0.33989535  0.03715909  0.08503382  1
  Si  Si9  1  0.18248699  0.32902913  0.08552182  1
  Si  Si10  1  0.81582975  0.67024411  0.91461735  1
  Si  Si11  1  0.66649454  0.96385909  0.91708466  1
  Si  Si12  1  0.31484869  0.95862990  0.41414459  1
  Si  Si13  1  0.16747166  0.37221642  0.41657041  1
  Si  Si14  1  0.01528533  0.65697273  0.41674477  1
  S  S0  1  0.14410753  0.99031744  0.25129742  1
  S  S1  1  0.35235387  0.71543698  0.24951792  1
  S  S2  1  0.00846186  0.29369300  0.25001435  1
  S  S3  1  0.50307549  0.29230644  0.25376808  1
  S  S4  1  0.64356677  0.29664946  0.75219695  1
  S  S5  1  0.00241244  0.71456131  0.75353695  1
  S  S6  1  0.50670190  0.71787384  0.75084752  1
  S  S7  1  0.85353508  0.99204954  0.75062145  1
  S  S8  1  0.98522529  0.33816101  0.58409194  1
  S  S9  1  0.18496355  0.03004209  0.58269701  1
  S  S10  1  0.32898201  0.62317915  0.58312027  1
  S  S11  1  0.48372086  0.63060109  0.08212264  1
  S  S12  1  0.83026263  0.03775143  0.08214426  1
  S  S13  1  0.68319085  0.33612933  0.08102961  1
  S  S14  1  0.31762481  0.66119039  0.91542094  1
  S  S15  1  0.01529036  0.36787792  0.91506991  1
  S  S16  1  0.52042485  0.37716349  0.91581936  1
  S  S17  1  0.16987257  0.97197759  0.91459212  1
  S  S18  1  0.81632007  0.97224017  0.41574515  1
  S  S19  1  0.66749575  0.36703115  0.41432027  1
  S  S20  1  0.51478480  0.66209433  0.41508117  1
  O  O0  1  0.09691659  0.99627058  0.30162217  1
  O  O1  1  0.58668956  0.99781465  0.30466159  1
  O  O2  1  0.40210899  0.81795377  0.29920604  1
  O  O3  1  0.90957900  0.82832726  0.30715914  1
  O  O4  1  0.49511179  0.18868277  0.30417448  1
  O  O5  1  0.01056376  0.19468705  0.29888725  1
  O  O6  1  0.08734786  0.17699748  0.80593908  1
  O  O7  1  0.59664540  0.19313125  0.80297557  1
  O  O8  1  0.50892460  0.82262569  0.80086530  1
  O  O9  1  0.99454982  0.80193455  0.80462901  1
  O  O10  1  0.41006248  0.99562240  0.80913370  1
  O  O11  1  0.90203082  0.98768074  0.80080477  1
  O  O12  1  0.40115902  0.97676587  0.69728597  1
  O  O13  1  0.89417620  0.97957717  0.69723836  1
  O  O14  1  0.08951678  0.19792179  0.69436391  1
  O  O15  1  0.59694910  0.21208567  0.69924078  1
  O  O16  1  0.00978919  0.81410655  0.70150465  1
  O  O17  1  0.51532040  0.81190761  0.69740493  1
  O  O18  1  0.39636563  0.81194132  0.19550792  1
  O  O19  1  0.89834652  0.82063562  0.19575664  1
  O  O20  1  0.01364656  0.21288984  0.19497936  1
  O  O21  1  0.50985220  0.20554309  0.20114620  1
  O  O22  1  0.09710247  0.98492417  0.19768756  1
  O  O23  1  0.59047824  0.98125918  0.19308736  1
  O  O24  1  0.44177671  0.38910508  0.63742559  1
  O  O25  1  0.95147320  0.36396494  0.63656199  1
  O  O26  1  0.23265390  0.10484649  0.63382071  1
  O  O27  1  0.74733559  0.10927958  0.63821759  1
  O  O28  1  0.31485037  0.52949508  0.63541746  1
  O  O29  1  0.82037687  0.52459869  0.64122059  1
  O  O30  1  0.45100253  0.53749547  0.13439325  1
  O  O31  1  0.93927163  0.48935324  0.13478346  1
  O  O32  1  0.32435813  0.12338982  0.13868781  1
  O  O33  1  0.81232438  0.09707570  0.13421175  1
  O  O34  1  0.24893709  0.38504396  0.13670694  1
  O  O35  1  0.73244754  0.36800526  0.13213548  1
  O  O36  1  0.23270115  0.29635124  0.02880587  1
  O  O37  1  0.72393791  0.31040350  0.02969073  1
  O  O38  1  0.42663767  0.54304498  0.03202241  1
  O  O39  1  0.91912412  0.52925797  0.02583686  1
  O  O40  1  0.35150732  0.15854689  0.02655633  1
  O  O41  1  0.83839475  0.14135735  0.03149947  1
  O  O42  1  0.22456603  0.13339892  0.53079278  1
  O  O43  1  0.73311104  0.17071561  0.52913881  1
  O  O44  1  0.33856216  0.53716407  0.53263206  1
  O  O45  1  0.85080054  0.54637646  0.52914049  1
  O  O46  1  0.41936293  0.31490974  0.52725802  1
  O  O47  1  0.92871271  0.31083715  0.53432640  1
  O  O48  1  0.28634041  0.69067399  0.96896195  1
  O  O49  1  0.76526658  0.68566509  0.96979047  1
  O  O50  1  0.06022601  0.42663387  0.96885503  1
  O  O51  1  0.57283457  0.45735806  0.96732775  1
  O  O52  1  0.15732573  0.88667982  0.96909278  1
  O  O53  1  0.65274955  0.83967773  0.97152665  1
  O  O54  1  0.26870138  0.84663064  0.47060437  1
  O  O55  1  0.78559311  0.87763733  0.46894900  1
  O  O56  1  0.15477146  0.46528483  0.47207032  1
  O  O57  1  0.65414505  0.42689950  0.46896673  1
  O  O58  1  0.07540446  0.68693586  0.47235724  1
  O  O59  1  0.55970619  0.69293504  0.46917327  1
  O  O60  1  0.06398013  0.63764296  0.36095102  1
  O  O61  1  0.56258292  0.64349645  0.36752143  1
  O  O62  1  0.25662065  0.86647910  0.35820654  1
  O  O63  1  0.75781689  0.87002780  0.36761502  1
  O  O64  1  0.18182014  0.49096279  0.36035623  1
  O  O65  1  0.67359571  0.47871478  0.36682883  1
  O  O66  1  0.06261041  0.48260272  0.86747910  1
  O  O67  1  0.56285456  0.47928949  0.86462526  1
  O  O68  1  0.17689633  0.87476823  0.86689545  1
  O  O69  1  0.67613878  0.86406756  0.86108539  1
  O  O70  1  0.25938015  0.64253532  0.86732806  1
  O  O71  1  0.75625231  0.64781283  0.85903300  1
  O  O72  1  0.00457141  0.82429227  0.41088515  1
  O  O73  1  0.50187389  0.80992983  0.40576748  1
  O  O74  1  0.40993106  0.98285062  0.40997189  1
  O  O75  1  0.90283765  -0.00041080  0.40581107  1
  O  O76  1  0.08398035  0.18517924  0.40998781  1
  O  O77  1  0.59227848  0.19402231  0.40561783  1
  O  O78  1  0.00148128  0.19381791  0.90546808  1
  O  O79  1  0.51143348  0.20587170  0.91132609  1
  O  O80  1  0.09528614  0.99688113  0.90611237  1
  O  O81  1  0.58319654  0.98647943  0.91214228  1
  O  O82  1  0.40410134  0.81093652  0.90628543  1
  O  O83  1  0.90944137  0.83727169  0.91139684  1
  O  O84  1  0.47927701  0.15380295  0.59041949  1
  O  O85  1  0.98821593  0.17443129  0.58799180  1
  O  O86  1  0.09793874  0.01457944  0.58638359  1
  O  O87  1  0.59206859  0.03468832  0.59331241  1
  O  O88  1  0.41342752  0.79073341  0.58676825  1
  O  O89  1  0.92324565  0.83279019  0.59232254  1
  O  O90  1  0.48824805  0.80040983  0.08537141  1
  O  O91  1  0.98010855  0.80783018  0.09101483  1
  O  O92  1  0.42551833  0.01462015  0.08891098  1
  O  O93  1  0.91246363  0.03460428  0.08563554  1
  O  O94  1  0.09111064  0.14945273  0.09160505  1
  O  O95  1  0.59753396  0.17758835  0.08579403  1
  O  O96  1  0.34739384  0.16461762  0.75503124  1
  O  O97  1  0.84792296  0.14577014  0.75347348  1
  O  O98  1  0.23783675  0.32651638  0.75369578  1
  O  O99  1  0.72845953  0.31571860  0.75416334  1
  O  O100  1  0.42869993  0.55636625  0.75386379  1
  O  O101  1  0.92937811  0.54392960  0.75247403  1
  O  O102  1  0.35017879  0.55397363  0.25124360  1
  O  O103  1  0.84526400  0.52964505  0.25487693  1
  O  O104  1  0.42978486  0.31583869  0.25170611  1
  O  O105  1  0.93097344  0.30311901  0.25156217  1
  O  O106  1  0.22820071  0.14266774  0.25257247  1
  O  O107  1  0.73811982  0.14874013  0.25363561  1
  O  O108  1  0.32567198  0.50761210  0.91768145  1
  O  O109  1  0.82203208  0.49845450  0.92024010  1
  O  O110  1  0.43619944  0.36272548  0.92128546  1
  O  O111  1  0.92942397  0.35113540  0.91760187  1
  O  O112  1  0.24885022  0.14305855  0.91604134  1
  O  O113  1  0.75218699  0.14544990  0.92462877  1
  O  O114  1  0.32385312  0.14622130  0.42050656  1
  O  O115  1  0.81949453  0.13602836  0.41783669  1
  O  O116  1  0.25174750  0.35475471  0.42550149  1
  O  O117  1  0.74568100  0.35384541  0.41582423  1
  O  O118  1  0.42930447  0.50812414  0.41749567  1
  O  O119  1  0.92334127  0.48820444  0.42471679  1
  O  O120  1  0.16397147  0.48107763  0.07357271  1
  O  O121  1  0.66698448  0.47943573  0.07112444  1
  O  O122  1  0.07552766  0.67347377  0.07524563  1
  O  O123  1  0.56993240  0.65609917  0.07171928  1
  O  O124  1  0.25875415  0.85094669  0.07572184  1
  O  O125  1  0.75911849  0.85701716  0.07362779  1
  O  O126  1  0.17128473  0.85621946  0.57607251  1
  O  O127  1  0.66316686  0.84774910  0.57309651  1
  O  O128  1  0.25916608  0.66280285  0.57603472  1
  O  O129  1  0.75787553  0.66876210  0.57668232  1
  O  O130  1  0.07263401  0.48112355  0.57559063  1
  O  O131  1  0.57621771  0.47817564  0.57543423  1
  O  O132  1  0.14957976  0.83373245  0.25189599  1
  O  O133  1  0.64206372  0.80824468  0.25767537  1
  O  O134  1  0.26720531  0.69799602  0.24961142  1
  O  O135  1  0.75882006  0.69686070  0.25812893  1
  O  O136  1  0.08614729  0.46666613  0.25097136  1
  O  O137  1  0.58365728  0.45661613  0.25726945  1
  O  O138  1  0.14283831  0.47568859  0.75825541  1
  O  O139  1  0.64725626  0.46274218  0.75646015  1
  O  O140  1  0.08310292  0.71045845  0.75834547  1
  O  O141  1  0.58288417  0.69600746  0.75536523  1
  O  O142  1  0.26061065  0.82354330  0.75905818  1
  O  O143  1  0.76680106  0.83710088  0.75283391  1
loop_
_geom_bond_atom_site_label_1
_geom_bond_atom_site_label_2
_geom_bond_distance
_geom_bond_site_symmetry_2
Na0 O131 2.355013 1_555
Na0 O129 2.507482 1_555
Na0 O87 2.557964 1_555
Na0 O57 2.788910 1_555
Na0 O29 2.843584 1_555
Na0 O43 2.881848 1_555
Na0 O84 2.901605 1_555
Na0 O15 3.014130 1_555
Na1 O127 2.324017 1_555
Na1 O131 2.542147 1_555
Na1 O24 2.570946 1_555
Na1 O88 2.590916 1_555
Na1 O87 2.847240 1_565
Na1 O17 2.874402 1_555
Na1 O59 2.879497 1_555
Na2 O129 2.344241 1_555
Na2 O127 2.496393 1_555
Na2 O27 2.619144 1_565
Na2 O85 2.705226 1_565
Na2 O89 2.707549 1_555
Na2 O55 2.813721 1_555
Na2 O13 2.954955 1_555
Na3 O122 2.343572 1_555
Na3 O124 2.495686 1_555
Na3 O94 2.573094 1_565
Na3 O32 2.837539 1_565
Na3 O91 2.864098 1_455
Na3 O22 2.877323 1_555
Na3 O52 2.887230 1_554
Na3 O36 2.979052 1_565
Na4 O124 2.338482 1_555
Na4 O120 2.473178 1_555
Na4 O34 2.568163 1_555
Na4 O92 2.712211 1_565
Na4 O90 2.739438 1_555
Na4 O18 2.841068 1_555
Na4 O48 2.906915 1_554
Na5 O120 2.345070 1_555
Na5 O31 2.472049 1_455
Na5 O122 2.522440 1_555
Na5 O93 2.646039 1_455
Na5 O20 2.753047 1_555
Na5 O94 2.853012 1_555
Na5 O50 2.998386 1_554
Na6 O72 2.426468 1_555
Na6 O76 2.536117 1_565
Na6 O86 2.654926 1_565
Na6 O89 2.791879 1_455
Na6 O75 2.873902 1_465
Na6 O85 2.953180 1_465
Na7 O74 2.528839 1_545
Na7 O84 2.532065 1_555
Na7 O88 2.690512 1_545
Na7 O87 2.802007 1_555
Na7 O77 2.878946 1_555
Na7 O73 2.984347 1_545
Na8 O91 2.449642 1_555
Na8 O93 2.610916 1_565
Na8 O83 2.623146 1_554
Na8 O94 2.649909 1_665
Na8 O80 2.948822 1_654
Na8 O78 3.067618 1_664
Na9 O95 2.540702 1_555
Na9 O92 2.547741 1_555
Na9 O81 2.600331 1_544
Na9 O90 2.683474 1_545
Na9 O79 2.727972 1_554
Na9 O82 2.909729 1_544
Na10 O98 2.257407 1_555
Na10 O96 2.261925 1_555
Na10 O100 2.594261 1_555
Na10 O112 2.702015 1_555
Na10 O108 2.866536 1_555
Na10 O110 3.017461 1_555
Na11 O109 2.548609 1_555
Na11 O99 2.565887 1_555
Na11 O113 2.582441 1_555
Na11 O111 2.644035 1_555
Na11 O97 2.722080 1_555
Na11 O101 2.774279 1_555
Na12 O116 2.516097 1_555
Na12 O114 2.529103 1_555
Na12 O106 2.586206 1_555
Na12 O118 2.657999 1_555
Na12 O102 2.818213 1_555
Na12 O104 2.866370 1_555
Na13 O103 2.285777 1_555
Na13 O107 2.397948 1_555
Na13 O105 2.617900 1_555
Na13 O117 2.729321 1_555
Na13 O119 2.824818 1_555
Na13 O115 2.846751 1_555
Na14 O122 2.506794 1_555
Na14 O124 2.571221 1_555
Na14 O120 2.580952 1_555
Na14 O136 2.771082 1_555
Na14 O132 2.810476 1_555
Na14 O134 2.824754 1_555
Na15 O135 2.438868 1_555
Na15 O133 2.498291 1_555
Na15 O137 2.750149 1_555
Na15 O125 2.825417 1_555
Na15 O121 3.028937 1_555
Na15 O123 3.035788 1_555
Na16 O128 2.590885 1_555
Na16 O142 2.666953 1_555
Na16 O138 2.680635 1_555
Na16 O126 2.754959 1_555
Na16 O130 2.769591 1_555
Na16 O140 2.935446 1_555
Na17 O131 2.366502 1_555
Na17 O129 2.371155 1_555
Na17 O127 2.444628 1_555
Ca0 O24 2.170139 1_555
Ca0 O96 2.238678 1_555
Ca0 O98 2.288070 1_555
Ca0 O26 2.332172 1_555
Ca0 O28 2.413000 1_555
Ca0 O100 2.469733 1_555
Ca1 O29 2.125560 1_555
Ca1 O27 2.149028 1_555
Ca1 O25 2.354093 1_555
Ca1 O99 2.436578 1_555
Ca1 O101 2.444447 1_555
Ca1 O97 2.483463 1_555
Ca2 O32 2.142066 1_555
Ca2 O34 2.159296 1_555
Ca2 O106 2.387186 1_555
Ca2 O30 2.390746 1_555
Ca2 O104 2.409157 1_555
Ca2 O102 2.444422 1_555
Ca3 O31 2.190438 1_555
Ca3 O103 2.203773 1_555
Ca3 O107 2.270351 1_555
Ca3 O35 2.411286 1_555
Ca3 O105 2.436312 1_555
Ca3 O33 2.473729 1_555
Ca4 O120 2.206610 1_555
Ca4 O122 2.215284 1_555
Ca4 O124 2.230593 1_555
Ca4 O50 2.328698 1_554
Ca4 O52 2.332771 1_554
Ca4 O48 2.352713 1_554
Ca5 O127 2.221070 1_555
Ca5 O131 2.231637 1_555
Ca5 O129 2.238043 1_555
Ca5 O57 2.315431 1_555
Ca5 O59 2.317846 1_555
Ca5 O55 2.318807 1_555
O0 S0 1.483086 1_555
O0 Zr0 2.147054 1_555
O1 Si0 1.645625 1_555
O1 Zr1 1.956174 1_555
O2 S1 1.489289 1_555
O2 Zr1 2.130202 1_555
O3 Si1 1.626770 1_555
O3 Zr0 1.968582 1_655
O4 S3 1.481421 1_555
O4 Zr1 2.138953 1_545
O5 S2 1.477863 1_555
O5 Zr0 2.237578 1_545
O6 Si2 1.652062 1_555
O6 Zr2 1.948348 1_555
O7 S4 1.501018 1_555
O7 Zr3 2.101391 1_555
O8 S6 1.506941 1_555
O8 Zr3 2.094863 1_565
O9 S5 1.491576 1_655
O9 Zr2 2.121190 1_665
O10 Si3 1.649772 1_565
O10 Zr3 1.947347 1_565
O11 S7 1.487844 1_555
O11 Zr2 2.127731 1_665
O12 Si3 1.648259 1_565
O12 Zr5 1.983800 1_565
O13 S7 1.493980 1_555
O13 Zr4 2.280198 1_665
O14 Si2 1.659999 1_555
O14 Zr4 1.982656 1_555
O15 S4 1.488623 1_555
O15 Zr5 2.295699 1_555
O16 S5 1.493259 1_555
O16 Zr4 2.216557 1_565
O17 S6 1.488953 1_555
O17 Zr5 2.353385 1_565
O18 S1 1.528890 1_555
O18 Zr7 2.167452 1_565
O19 Si1 1.660165 1_555
O19 Zr6 1.964294 1_555
O20 S2 1.519199 1_555
O20 Zr6 2.245342 1_445
O21 S3 1.510660 1_555
O21 Zr7 2.144831 1_555
O22 S0 1.512192 1_555
O22 Zr6 2.200511 1_455
O23 Si0 1.677680 1_555
O23 Zr7 1.971030 1_565
O24 Si4 1.592847 1_555
O25 S8 1.452930 1_555
O26 S9 1.440871 1_555
O27 Si5 1.607924 1_555
O28 S10 1.449295 1_555
O29 Si6 1.592317 1_555
O30 S11 1.446612 1_555
O31 Si7 1.593579 1_555
O32 Si8 1.589521 1_555
O33 S12 1.444343 1_555
O34 Si9 1.599430 1_555
O35 S13 1.440734 1_555
O36 Si9 1.729647 1_555
O36 Zr8 1.949333 1_554
O37 S13 1.499585 1_555
O37 Zr9 2.205293 1_554
O38 S11 1.509777 1_555
O38 Zr8 2.223061 1_554
O39 Si7 1.688717 1_555
O39 Zr9 1.976228 1_554
O40 Si8 1.715831 1_555
O40 Zr8 1.940159 1_554
O41 S12 1.485159 1_555
O41 Zr9 2.326314 1_554
O42 S9 1.493733 1_555
O42 Zr10 2.211746 1_555
O43 Si5 1.691230 1_555
O43 Zr11 2.042228 1_555
O44 S10 1.484586 1_555
O44 Zr10 2.364212 1_555
O45 Si6 1.687987 1_555
O45 Zr11 1.952374 1_555
O46 Si4 1.674236 1_555
O46 Zr10 1.990128 1_555
O47 S8 1.495692 1_555
O47 Zr11 2.276717 1_555
O48 S14 1.464992 1_555
O49 Si10 1.641337 1_555
O49 Zr12 1.951197 1_556
O50 S15 1.456633 1_555
O51 S16 1.489444 1_555
O51 Zr12 2.208326 1_556
O52 S17 1.460684 1_555
O53 Si11 1.648302 1_555
O53 Zr12 1.950735 1_556
O54 Si12 1.633677 1_555
O54 Zr13 1.978528 1_555
O55 S18 1.467008 1_555
O56 Si13 1.639505 1_555
O56 Zr13 1.960909 1_555
O57 S19 1.467000 1_555
O58 Si14 1.639492 1_555
O58 Zr13 1.970795 1_555
O59 S20 1.462870 1_555
O60 Si14 1.645861 1_555
O60 Zr14 1.974981 1_555
O61 S20 1.481862 1_555
O61 Zr15 2.283978 1_555
O62 Si12 1.635279 1_555
O62 Zr14 2.001925 1_555
O63 S18 1.515094 1_555
O63 Zr15 2.125066 1_555
O64 Si13 1.649654 1_555
O64 Zr14 1.978998 1_555
O65 S19 1.482158 1_555
O65 Zr15 2.273939 1_555
O66 S15 1.483467 1_555
O66 Zr16 2.300027 1_555
O67 S16 1.485432 1_555
O67 Zr17 2.235926 1_555
O68 S17 1.478428 1_555
O68 Zr16 2.308884 1_555
O69 Si11 1.663699 1_555
O69 Zr17 1.963966 1_555
O70 S14 1.501803 1_555
O70 Zr16 2.194899 1_555
O71 Si10 1.646017 1_555
O71 Zr17 1.970762 1_555
O72 Si14 1.644066 1_555
O72 Zr0 2.022181 1_555
O73 S20 1.501355 1_555
O73 Zr1 2.128233 1_555
O74 Si12 1.636844 1_555
O74 Zr1 2.066154 1_555
O75 S18 1.486950 1_545
O75 Zr0 2.179736 1_645
O76 Si13 1.631328 1_555
O76 Zr0 2.078330 1_545
O77 S19 1.501476 1_555
O77 Zr1 2.138943 1_545
O78 S15 1.500464 1_555
O78 Zr2 2.131576 1_555
O79 S16 1.496433 1_555
O79 Zr3 2.262875 1_555
O80 S17 1.500196 1_555
O80 Zr2 2.147480 1_565
O81 Si11 1.636170 1_555
O81 Zr3 2.084281 1_565
O82 S14 1.499147 1_555
O82 Zr3 2.167690 1_565
O83 Si10 1.625708 1_555
O83 Zr2 2.095082 1_665
O84 Si4 1.681776 1_555
O84 Zr5 1.977216 1_555
O85 S8 1.529638 1_555
O85 Zr4 2.207191 1_655
O86 S9 1.523233 1_555
O86 Zr4 2.160522 1_555
O87 Si5 1.677417 1_555
O87 Zr5 2.088982 1_555
O88 S10 1.537678 1_555
O88 Zr5 2.219634 1_565
O89 Si6 1.673885 1_555
O89 Zr4 2.018930 1_665
O90 S11 1.516745 1_555
O90 Zr7 2.325797 1_565
O91 Si7 1.675816 1_555
O91 Zr6 2.007984 1_555
O92 Si8 1.676245 1_555
O92 Zr7 2.065677 1_555
O93 S12 1.515352 1_555
O93 Zr6 2.309001 1_545
O94 Si9 1.660084 1_555
O94 Zr6 2.145635 1_445
O95 S13 1.512629 1_555
O95 Zr7 2.229566 1_555
O96 Si3 1.578454 1_555
O97 S7 1.462676 1_545
O98 Si2 1.576812 1_555
O99 S4 1.468708 1_555
O100 S6 1.451761 1_555
O101 S5 1.459459 1_655
O102 S1 1.459203 1_555
O103 Si1 1.579367 1_555
O104 S3 1.456785 1_555
O105 S2 1.458340 1_655
O106 S0 1.467835 1_545
O107 Si0 1.577387 1_545
O108 S14 1.485771 1_555
O108 Zr8 2.402042 1_555
O109 Si10 1.637555 1_555
O109 Zr9 2.004963 1_555
O110 S16 1.479605 1_555
O110 Zr8 2.350350 1_555
O111 S15 1.495867 1_655
O111 Zr9 2.254853 1_555
O112 S17 1.506052 1_545
O112 Zr8 2.246035 1_555
O113 Si11 1.622762 1_545
O113 Zr9 2.101822 1_555
O114 Si12 1.648000 1_545
O114 Zr10 1.995154 1_555
O115 S18 1.472049 1_545
O115 Zr11 2.435127 1_555
O116 Si13 1.635687 1_555
O116 Zr10 2.061318 1_555
O117 S19 1.489891 1_555
O117 Zr11 2.280240 1_555
O118 S20 1.489506 1_555
O118 Zr10 2.272481 1_555
O119 Si14 1.624513 1_655
O119 Zr11 2.046187 1_555
O120 Si9 1.612773 1_555
O121 S13 1.500297 1_555
O121 Zr12 2.237739 1_555
O122 Si7 1.622295 1_455
O123 S11 1.489523 1_555
O123 Zr12 2.249812 1_555
O124 Si8 1.617183 1_565
O125 S12 1.519707 1_565
O125 Zr12 2.144323 1_555
O126 S9 1.490262 1_565
O126 Zr13 2.304638 1_555
O127 Si5 1.620090 1_565
O128 S10 1.497100 1_555
O128 Zr13 2.311405 1_555
O129 Si6 1.617525 1_555
O130 S8 1.484730 1_455
O130 Zr13 2.319081 1_555
O131 Si4 1.620812 1_555
O132 S0 1.485970 1_555
O132 Zr14 2.365063 1_555
O133 Si0 1.676375 1_555
O133 Zr15 1.976267 1_555
O134 S1 1.478864 1_555
O134 Zr14 2.409559 1_555
O135 Si1 1.681924 1_555
O135 Zr15 1.958026 1_555
O136 S2 1.505738 1_555
O136 Zr14 2.303337 1_555
O137 S3 1.487843 1_555
O137 Zr15 2.252882 1_555
O138 Si2 1.677103 1_555
O138 Zr16 1.955777 1_555
O139 S4 1.491280 1_555
O139 Zr17 2.284711 1_555
O140 S5 1.494363 1_555
O140 Zr16 2.204523 1_555
O141 S6 1.502802 1_555
O141 Zr17 2.230583 1_555
O142 Si3 1.682032 1_565
O142 Zr16 1.948726 1_555
O143 S7 1.506228 1_555
O143 Zr17 2.187928 1_555
