# generated using pymatgen
data_MgV5FeO12
_symmetry_space_group_name_H-M   'P 1'
_cell_length_a   6.96162261
_cell_length_b   6.89094991
_cell_length_c   5.77592574
_cell_angle_alpha   72.17851103
_cell_angle_beta   106.06423236
_cell_angle_gamma   100.70594602
_symmetry_Int_Tables_number   1
_chemical_formula_structural   MgV5FeO12
_chemical_formula_sum   'Mg1 V5 Fe1 O12'
_cell_volume   251.93549672
_cell_formula_units_Z   1
loop_
 _symmetry_equiv_pos_site_id
 _symmetry_equiv_pos_as_xyz
  1  'x, y, z'
loop_
 _atom_site_type_symbol
 _atom_site_label
 _atom_site_symmetry_multiplicity
 _atom_site_fract_x
 _atom_site_fract_y
 _atom_site_fract_z
 _atom_site_occupancy
  Mg  Mg0  1  0.25531342  0.29737898  0.20042758  1
  V  V0  1  0.92442361  0.91552653  0.25266100  1
  V  V1  1  0.21604033  0.63414861  0.74106365  1
  V  V2  1  0.40424044  0.84452590  0.20183622  1
  V  V3  1  0.60361262  0.17641449  0.75961486  1
  V  V4  1  0.79003266  0.38278665  0.25386762  1
  Fe  Fe0  1  0.08274975  0.08375490  0.74125843  1
  O  O0  1  0.03133506  0.80232427  0.63294915  1
  O  O1  1  0.11538085  0.37987237  0.79627687  1
  O  O2  1  0.19896814  0.00673294  0.14960269  1
  O  O3  1  0.36276459  0.68108605  0.53094513  1
  O  O4  1  0.39039978  0.00564521  0.82137648  1
  O  O5  1  0.33670386  0.60919909  0.07252618  1
  O  O6  1  0.63506072  0.35586648  0.92342602  1
  O  O7  1  0.65295445  0.92952381  0.29435551  1
  O  O8  1  0.55693100  0.28847869  0.42865281  1
  O  O9  1  0.81455996  0.04370215  0.86960313  1
  O  O10  1  0.89905567  0.64585732  0.21807224  1
  O  O11  1  0.00947109  0.20421157  0.35106842  1
loop_
_geom_bond_atom_site_label_1
_geom_bond_atom_site_label_2
_geom_bond_distance
_geom_bond_site_symmetry_2
Mg0 O11 2.042621 1_555
Mg0 O2 2.062918 1_555
Mg0 O5 2.071602 1_555
Mg0 O8 2.148697 1_555
Mg0 O1 2.203697 1_554
Fe0 O11 2.098670 1_555
Fe0 O1 2.121579 1_555
Fe0 O9 2.135608 1_455
Fe0 O0 2.154355 1_545
Fe0 O4 2.195053 1_555
Fe0 O2 2.199170 1_556
O0 V1 1.747192 1_555
O0 V0 2.061381 1_455
O1 V1 1.728705 1_555
O2 V2 1.879088 1_545
O2 V0 2.087259 1_445
O3 V1 1.715775 1_555
O3 V2 1.959018 1_555
O4 V3 1.761342 1_555
O4 V2 2.121356 1_546
O5 V1 1.833754 1_554
O5 V2 1.916327 1_555
O6 V3 1.724316 1_555
O6 V4 1.960589 1_556
O7 V2 1.711517 1_555
O7 V0 1.993168 1_555
O8 V3 1.789427 1_555
O8 V4 2.046494 1_555
O9 V3 1.738838 1_555
O9 V0 2.092513 1_546
O10 V4 1.803135 1_555
O10 V0 1.900022 1_555
O11 V4 1.990995 1_455
O11 V0 2.167777 1_445
