# generated using pymatgen
data_Nb7(BC)4
_symmetry_space_group_name_H-M   'P 1'
_cell_length_a   3.16147655
_cell_length_b   3.24140038
_cell_length_c   16.38709645
_cell_angle_alpha   95.68321543
_cell_angle_beta   95.55253770
_cell_angle_gamma   90.00352090
_symmetry_Int_Tables_number   1
_chemical_formula_structural   Nb7(BC)4
_chemical_formula_sum   'Nb7 B4 C4'
_cell_volume   166.31121227
_cell_formula_units_Z   1
loop_
 _symmetry_equiv_pos_site_id
 _symmetry_equiv_pos_as_xyz
  1  'x, y, z'
loop_
 _atom_site_type_symbol
 _atom_site_label
 _atom_site_symmetry_multiplicity
 _atom_site_fract_x
 _atom_site_fract_y
 _atom_site_fract_z
 _atom_site_occupancy
  Nb  Nb0  1  0.50000000  0.00000000  -0.00000000  1
  Nb  Nb1  1  0.08134558  0.08155946  0.16290168  1
  Nb  Nb2  1  0.91865442  0.91844054  0.83709832  1
  Nb  Nb3  1  0.21397276  0.21440039  0.42819965  1
  Nb  Nb4  1  0.78602724  0.78559961  0.57180035  1
  Nb  Nb5  1  0.64686651  0.64742220  0.29444168  1
  Nb  Nb6  1  0.35313349  0.35257780  0.70555832  1
  B  B0  1  0.97170224  0.47153386  0.94328393  1
  B  B1  1  0.44246238  0.44236719  0.88506281  1
  B  B2  1  0.55753762  0.55763281  0.11493719  1
  B  B3  1  0.02829776  0.52846614  0.05671607  1
  C  C0  1  0.71490240  0.71534173  0.43022386  1
  C  C1  1  0.85309225  0.85243396  0.70549406  1
  C  C2  1  0.28509760  0.28465827  0.56977614  1
  C  C3  1  0.14690775  0.14756604  0.29450594  1
loop_
_geom_bond_atom_site_label_1
_geom_bond_atom_site_label_2
_geom_bond_distance
_geom_bond_site_symmetry_2
B0 B3 1.840921 1_656
B0 B1 1.841511 1_655
B0 B1 1.841718 1_555
B0 Nb2 2.365531 1_545
B0 Nb2 2.365846 1_555
B0 Nb0 2.443510 1_656
B0 Nb0 2.443682 1_666
B0 Nb0 2.443991 1_556
B0 Nb0 2.444420 1_566
B1 Nb2 2.393245 1_445
B1 Nb2 2.393763 1_455
B1 Nb2 2.394418 1_545
B1 Nb2 2.394672 1_555
B1 Nb0 2.470885 1_556
B1 Nb0 2.471254 1_566
B1 Nb6 2.913227 1_555
B2 B3 1.841511 1_655
B2 B3 1.841718 1_555
B2 Nb1 2.393245 1_665
B2 Nb1 2.393763 1_655
B2 Nb1 2.394418 1_565
B2 Nb1 2.394672 1_555
B2 Nb0 2.470885 1_565
B2 Nb0 2.471254 1_555
B2 Nb5 2.913227 1_555
B3 Nb1 2.365531 1_565
B3 Nb1 2.365846 1_555
B3 Nb0 2.443510 1_465
B3 Nb0 2.443682 1_455
B3 Nb0 2.443991 1_565
B3 Nb0 2.444420 1_555
C0 Nb5 2.203645 1_555
C0 Nb3 2.263748 1_555
C0 Nb3 2.264221 1_565
C0 Nb3 2.264265 1_655
C0 Nb3 2.264460 1_665
C0 Nb4 2.297683 1_555
C1 Nb2 2.135841 1_555
C1 Nb4 2.169751 1_555
C1 Nb6 2.263587 1_555
C1 Nb6 2.263766 1_655
C1 Nb6 2.264145 1_665
C1 Nb6 2.264244 1_565
C2 Nb6 2.203645 1_555
C2 Nb4 2.263748 1_555
C2 Nb4 2.264221 1_545
C2 Nb4 2.264265 1_455
C2 Nb4 2.264460 1_445
C2 Nb3 2.297683 1_555
C3 Nb1 2.135841 1_555
C3 Nb3 2.169751 1_555
C3 Nb5 2.263587 1_555
C3 Nb5 2.263766 1_455
C3 Nb5 2.264145 1_445
C3 Nb5 2.264244 1_545
