# generated using pymatgen
data_Na2Nd2MgTi2O8
_symmetry_space_group_name_H-M   'P 1'
_cell_length_a   3.68066135
_cell_length_b   3.68066135
_cell_length_c   16.39388516
_cell_angle_alpha   94.51669586
_cell_angle_beta   94.51669586
_cell_angle_gamma   89.83070648
_symmetry_Int_Tables_number   1
_chemical_formula_structural   Na2Nd2MgTi2O8
_chemical_formula_sum   'Na2 Nd2 Mg1 Ti2 O8'
_cell_volume   220.71387256
_cell_formula_units_Z   1
loop_
 _symmetry_equiv_pos_site_id
 _symmetry_equiv_pos_as_xyz
  1  'x, y, z'
loop_
 _atom_site_type_symbol
 _atom_site_label
 _atom_site_symmetry_multiplicity
 _atom_site_fract_x
 _atom_site_fract_y
 _atom_site_fract_z
 _atom_site_occupancy
  Na  Na0  1  0.32526188  0.32526188  0.54335010  1
  Na  Na1  1  0.78174250  0.78174250  0.41517280  1
  Nd  Nd0  1  0.68748719  0.68748719  0.15413068  1
  Nd  Nd1  1  0.10981534  0.10981534  0.97971947  1
  Mg  Mg0  1  0.40451276  0.40451276  0.77402611  1
  Ti  Ti0  1  0.23636626  0.23636626  0.29126861  1
  Ti  Ti1  1  0.86706555  0.86706555  0.66818561  1
  O  O0  1  0.64922687  0.64922687  0.00858984  1
  O  O1  1  0.18222788  0.18222788  0.11851744  1
  O  O2  1  0.82967234  0.82967234  0.55869782  1
  O  O3  1  0.27341013  0.27341013  0.40064127  1
  O  O4  1  0.72401041  0.22282536  0.25583948  1
  O  O5  1  0.22282536  0.72401041  0.25583948  1
  O  O6  1  0.87968636  0.38026016  0.70637814  1
  O  O7  1  0.38026016  0.87968636  0.70637814  1
loop_
_geom_bond_atom_site_label_1
_geom_bond_atom_site_label_2
_geom_bond_distance
_geom_bond_site_symmetry_2
Na0 O3 2.325063 1_555
Na0 O2 2.610779 1_545
Na0 O2 2.610779 1_455
Na0 O2 2.613464 1_555
Na0 O2 2.623395 1_445
Na1 O2 2.338368 1_555
Na1 O3 2.600319 1_665
Na1 O3 2.609590 1_565
Na1 O3 2.609590 1_655
Na1 O3 2.634068 1_555
Nd0 O0 2.372096 1_555
Nd0 O4 2.475799 1_565
Nd0 O5 2.475799 1_655
Nd0 O4 2.477050 1_555
Nd0 O5 2.477050 1_555
Nd0 O1 2.633662 1_555
Nd0 O1 2.663021 1_655
Nd0 O1 2.663021 1_565
Nd0 O1 2.706888 1_665
Nd1 O1 2.264746 1_556
Nd1 O0 2.498323 1_446
Nd1 O0 2.645414 1_546
Nd1 O0 2.645414 1_456
Nd1 O0 2.799082 1_556
Mg0 O6 2.141422 1_555
Mg0 O7 2.141422 1_555
Mg0 O7 2.148812 1_545
Mg0 O6 2.148812 1_455
O2 Ti1 1.783803 1_555
O3 Ti0 1.781933 1_555
O4 Ti0 1.928625 1_655
O4 Ti0 1.928844 1_555
O5 Ti0 1.928625 1_565
O5 Ti0 1.928844 1_555
O6 Ti1 1.942108 1_545
O6 Ti1 1.943253 1_555
O7 Ti1 1.942108 1_455
O7 Ti1 1.943253 1_555
