# generated using pymatgen
data_MgTi6(H2O7)2
_symmetry_space_group_name_H-M   'P 1'
_cell_length_a   8.65238904
_cell_length_b   9.17911171
_cell_length_c   9.51166994
_cell_angle_alpha   73.73406213
_cell_angle_beta   107.41713534
_cell_angle_gamma   154.81485933
_symmetry_Int_Tables_number   1
_chemical_formula_structural   MgTi6(H2O7)2
_chemical_formula_sum   'Mg1 Ti6 H4 O14'
_cell_volume   306.65037460
_cell_formula_units_Z   1
loop_
 _symmetry_equiv_pos_site_id
 _symmetry_equiv_pos_as_xyz
  1  'x, y, z'
loop_
 _atom_site_type_symbol
 _atom_site_label
 _atom_site_symmetry_multiplicity
 _atom_site_fract_x
 _atom_site_fract_y
 _atom_site_fract_z
 _atom_site_occupancy
  Mg  Mg0  1  0.52541100  0.27993100  0.99671200  1
  Ti  Ti0  1  0.79929500  0.22636000  0.78607700  1
  Ti  Ti1  1  0.18205600  0.73834000  0.21070400  1
  Ti  Ti2  1  0.86722500  0.21348300  0.49629500  1
  Ti  Ti3  1  0.12940000  0.76590400  0.49994400  1
  Ti  Ti4  1  0.88200700  0.18130500  0.18144600  1
  Ti  Ti5  1  0.10032400  0.76672000  0.79806400  1
  H  H0  1  0.68293400  0.75896200  0.11303400  1
  H  H1  1  0.97118200  0.90499300  0.23842100  1
  H  H2  1  0.14418100  0.19034800  0.99279900  1
  H  H3  1  0.20656200  0.28516600  0.82540800  1
  O  O0  1  0.90105500  0.21002200  0.97300500  1
  O  O1  1  0.06247200  0.77062600  0.00280100  1
  O  O2  1  0.95720600  0.20349100  0.68814300  1
  O  O3  1  0.04929900  0.78587300  0.30185200  1
  O  O4  1  0.98327200  0.19034600  0.38445100  1
  O  O5  1  0.00238800  0.79006700  0.60596700  1
  O  O6  1  0.91908500  0.96600100  0.16861500  1
  O  O7  1  0.30888900  0.30721700  0.92601500  1
  O  O8  1  0.60991900  0.26419400  0.82737300  1
  O  O9  1  0.35155700  0.70229200  0.16684000  1
  O  O10  1  0.68179600  0.25222600  0.53333100  1
  O  O11  1  0.30295500  0.72423600  0.44289900  1
  O  O12  1  0.69897800  0.23684600  0.19298800  1
  O  O13  1  0.26659700  0.73375100  0.74133700  1
loop_
_geom_bond_atom_site_label_1
_geom_bond_atom_site_label_2
_geom_bond_distance
_geom_bond_site_symmetry_2
Mg0 O1 1.997019 1_656
Mg0 O1 1.999734 1_546
Mg0 O7 2.006334 1_555
Mg0 O8 2.043628 1_555
Mg0 O12 2.209066 1_556
H0 O6 0.976893 1_555
H1 O6 1.013430 1_555
H1 O3 1.655383 1_655
H2 O7 0.989213 1_555
H3 O7 1.008734 1_555
H3 O2 1.690004 1_455
O0 Ti0 1.763923 1_555
O0 Ti4 1.962564 1_556
O1 Ti1 2.017598 1_555
O1 Ti5 2.084001 1_554
O2 Ti2 1.769013 1_555
O2 Ti0 2.041848 1_555
O3 Ti3 1.821753 1_555
O3 Ti1 1.994135 1_555
O4 Ti2 1.826740 1_555
O4 Ti4 1.856978 1_555
O5 Ti5 1.812436 1_555
O5 Ti3 1.871839 1_555
O6 Ti4 2.308600 1_565
O8 Ti5 1.976785 1_545
O8 Ti5 1.980741 1_655
O8 Ti0 2.109826 1_555
O9 Ti1 1.938138 1_555
O9 Ti4 1.963089 1_565
O9 Ti4 2.048548 1_455
O10 Ti3 2.035288 1_545
O10 Ti3 2.044400 1_655
O10 Ti2 2.065398 1_555
O10 Ti0 2.350173 1_555
O11 Ti2 2.067335 1_455
O11 Ti3 2.083082 1_555
O11 Ti2 2.091182 1_565
O11 Ti1 2.165785 1_555
O12 Ti1 1.969456 1_655
O12 Ti1 1.987306 1_545
O12 Ti4 2.092018 1_555
O13 Ti5 1.948489 1_555
O13 Ti0 2.013672 1_565
O13 Ti0 2.014520 1_455
O13 Ti3 2.321833 1_555
