# generated using pymatgen
data_KGaBr4
_symmetry_space_group_name_H-M   'P 1'
_cell_length_a   13.22221724
_cell_length_b   13.22221724
_cell_length_c   13.22221693
_cell_angle_alpha   115.19439957
_cell_angle_beta   115.19439957
_cell_angle_gamma   115.19440411
_symmetry_Int_Tables_number   1
_chemical_formula_structural   KGaBr4
_chemical_formula_sum   'K6 Ga6 Br24'
_cell_volume   1270.49894395
_cell_formula_units_Z   6
loop_
 _symmetry_equiv_pos_site_id
 _symmetry_equiv_pos_as_xyz
  1  'x, y, z'
loop_
 _atom_site_type_symbol
 _atom_site_label
 _atom_site_symmetry_multiplicity
 _atom_site_fract_x
 _atom_site_fract_y
 _atom_site_fract_z
 _atom_site_occupancy
  K  K0  1  0.88238029  0.69394025  0.09922618  1
  K  K1  1  0.09922618  0.88238029  0.69394025  1
  K  K2  1  0.69394025  0.09922618  0.88238029  1
  K  K3  1  0.19394025  0.38238029  0.59922618  1
  K  K4  1  0.59922618  0.19394025  0.38238029  1
  K  K5  1  0.38238029  0.59922618  0.19394025  1
  Ga  Ga0  1  0.87244863  0.08421648  0.68685752  1
  Ga  Ga1  1  0.68685752  0.87244863  0.08421648  1
  Ga  Ga2  1  0.08421648  0.68685752  0.87244863  1
  Ga  Ga3  1  0.58421648  0.37244863  0.18685752  1
  Ga  Ga4  1  0.18685752  0.58421648  0.37244863  1
  Ga  Ga5  1  0.37244863  0.18685752  0.58421648  1
  Br  Br0  1  0.96976029  0.12503603  0.90983967  1
  Br  Br1  1  0.90983967  0.96976029  0.12503603  1
  Br  Br2  1  0.12503603  0.90983967  0.96976029  1
  Br  Br3  1  0.62503603  0.46976029  0.40983967  1
  Br  Br4  1  0.40983967  0.62503603  0.46976029  1
  Br  Br5  1  0.46976029  0.40983967  0.62503603  1
  Br  Br6  1  0.07850366  0.32888397  0.78410401  1
  Br  Br7  1  0.78410401  0.07850366  0.32888397  1
  Br  Br8  1  0.32888397  0.78410401  0.07850366  1
  Br  Br9  1  0.82888397  0.57850366  0.28410401  1
  Br  Br10  1  0.28410401  0.82888397  0.57850366  1
  Br  Br11  1  0.57850366  0.28410401  0.82888397  1
  Br  Br12  1  0.63360971  0.02054531  0.55924971  1
  Br  Br13  1  0.55924971  0.63360971  0.02054531  1
  Br  Br14  1  0.02054531  0.55924971  0.63360971  1
  Br  Br15  1  0.52054531  0.13360971  0.05924971  1
  Br  Br16  1  0.05924971  0.52054531  0.13360971  1
  Br  Br17  1  0.13360971  0.05924971  0.52054531  1
  Br  Br18  1  0.80142363  0.85978906  0.48798361  1
  Br  Br19  1  0.48798361  0.80142363  0.85978906  1
  Br  Br20  1  0.85978906  0.48798361  0.80142363  1
  Br  Br21  1  0.35978906  0.30142363  0.98798361  1
  Br  Br22  1  0.98798361  0.35978906  0.30142363  1
  Br  Br23  1  0.30142363  0.98798361  0.35978906  1
loop_
_geom_bond_atom_site_label_1
_geom_bond_atom_site_label_2
_geom_bond_distance
_geom_bond_site_symmetry_2
Br0 Ga0 2.337444 1_555
Br0 K2 3.355015 1_555
Br1 Ga1 2.337444 1_555
Br1 K0 3.355015 1_555
Br2 Ga2 2.337444 1_555
Br2 K1 3.355015 1_555
Br3 Ga3 2.337444 1_555
Br3 K4 3.355015 1_555
Br4 Ga4 2.337444 1_555
Br4 K5 3.355015 1_555
Br5 Ga5 2.337444 1_555
Br5 K3 3.355015 1_555
Br6 Ga0 2.348136 1_455
Br6 K5 3.321108 1_556
Br6 K3 3.540492 1_555
Br7 Ga1 2.348136 1_545
Br7 K3 3.321108 1_655
Br7 K4 3.540492 1_555
Br8 Ga2 2.348136 1_554
Br8 K4 3.321108 1_565
Br8 K5 3.540492 1_555
Br9 Ga3 2.348136 1_555
Br9 K1 3.321108 1_655
Br9 K0 3.540492 1_555
Br10 Ga4 2.348136 1_555
Br10 K2 3.321108 1_565
Br10 K1 3.540492 1_555
Br11 Ga5 2.348136 1_555
Br11 K0 3.321108 1_556
Br11 K2 3.540492 1_555
Br12 Ga0 2.349284 1_555
Br12 K2 3.546892 1_555
Br12 K5 3.615874 1_545
Br13 Ga1 2.349284 1_555
Br13 K0 3.546892 1_555
Br13 K3 3.615874 1_554
Br14 Ga2 2.349284 1_555
Br14 K1 3.546892 1_555
Br14 K4 3.615874 1_455
Br15 Ga3 2.349284 1_555
Br15 K4 3.546892 1_555
Br15 K1 3.615874 1_544
Br16 Ga4 2.349284 1_555
Br16 K5 3.546892 1_555
Br16 K2 3.615874 1_454
Br17 Ga5 2.349284 1_555
Br17 K3 3.546892 1_555
Br17 K0 3.615874 1_445
Br18 Ga0 2.341742 1_565
Br18 K5 3.418835 1_555
Br18 K1 3.490933 1_655
Br19 Ga1 2.341742 1_556
Br19 K3 3.418835 1_555
Br19 K2 3.490933 1_565
Br20 Ga2 2.341742 1_655
Br20 K4 3.418835 1_555
Br20 K0 3.490933 1_556
Br21 Ga3 2.341742 1_556
Br21 K1 3.418835 1_545
Br21 K5 3.490933 1_556
Br22 Ga4 2.341742 1_655
Br22 K2 3.418835 1_554
Br22 K3 3.490933 1_655
Br23 Ga5 2.341742 1_565
Br23 K0 3.418835 1_455
Br23 K4 3.490933 1_565
