# generated using pymatgen
data_Ce2NiB10
_symmetry_space_group_name_H-M   'P 1'
_cell_length_a   4.17825114
_cell_length_b   5.61551867
_cell_length_c   11.17726966
_cell_angle_alpha   90.00054836
_cell_angle_beta   89.99949110
_cell_angle_gamma   90.00005941
_symmetry_Int_Tables_number   1
_chemical_formula_structural   Ce2NiB10
_chemical_formula_sum   'Ce4 Ni2 B20'
_cell_volume   262.25280653
_cell_formula_units_Z   2
loop_
 _symmetry_equiv_pos_site_id
 _symmetry_equiv_pos_as_xyz
  1  'x, y, z'
loop_
 _atom_site_type_symbol
 _atom_site_label
 _atom_site_symmetry_multiplicity
 _atom_site_fract_x
 _atom_site_fract_y
 _atom_site_fract_z
 _atom_site_occupancy
  Ce  Ce0  1  0.50057981  0.31322225  0.86233752  1
  Ce  Ce1  1  0.50053450  0.68676248  0.13769254  1
  Ce  Ce2  1  0.49942078  0.81314947  0.63765988  1
  Ce  Ce3  1  0.49946713  0.18685882  0.36229927  1
  Ni  Ni0  1  -0.00006685  0.49998304  0.49993292  1
  Ni  Ni1  1  0.00004266  -0.00005415  0.00007784  1
  B  B0  1  -0.00002588  0.12686614  0.54086718  1
  B  B1  1  -0.00003629  0.87311309  0.45910943  1
  B  B2  1  0.00004896  0.62687352  0.95915538  1
  B  B3  1  0.00003470  0.37311753  0.04087483  1
  B  B4  1  0.00031023  0.15796980  0.69770989  1
  B  B5  1  0.00030916  0.84201517  0.30227243  1
  B  B6  1  0.30030315  0.20007043  0.11370177  1
  B  B7  1  0.30030111  0.79996281  0.88632355  1
  B  B8  1  0.69970231  0.70008134  0.38631763  1
  B  B9  1  0.69970496  0.29994736  0.61366278  1
  B  B10  1  0.69970742  0.80044137  0.88633758  1
  B  B11  1  0.69970684  0.19957096  0.11369119  1
  B  B12  1  0.30031827  0.30048197  0.61367370  1
  B  B13  1  0.30031527  0.69951668  0.38629850  1
  B  B14  1  -0.00048746  0.03143525  0.18692482  1
  B  B15  1  -0.00048029  0.96857799  0.81309585  1
  B  B16  1  0.00046109  0.53148534  0.31306748  1
  B  B17  1  0.00046084  0.46854405  0.68690543  1
  B  B18  1  -0.00031556  0.34202046  0.19773553  1
  B  B19  1  -0.00031686  0.65798681  0.80227510  1
loop_
_geom_bond_atom_site_label_1
_geom_bond_atom_site_label_2
_geom_bond_distance
_geom_bond_site_symmetry_2
Ce0 Ni1 3.133729 1_656
Ce0 Ni1 3.136699 1_556
Ce1 Ni1 3.132851 1_665
Ce1 Ni1 3.135611 1_565
Ce2 Ni0 3.133359 1_555
Ce2 Ni0 3.136196 1_655
Ce3 Ni0 3.132827 1_555
Ce3 Ni0 3.135438 1_655
B0 B1 1.692795 1_545
B0 B4 1.761752 1_555
B0 B9 1.783450 1_455
B0 B12 1.785373 1_555
B0 Ni0 2.144623 1_555
B0 Ce3 2.907345 1_555
B0 Ce3 2.910414 1_455
B0 Ce2 2.937492 1_545
B0 Ce2 2.940762 1_445
B1 B5 1.761685 1_555
B1 B8 1.783266 1_455
B1 B13 1.785349 1_555
B1 Ni0 2.144431 1_555
B1 Ce2 2.907110 1_555
B1 Ce2 2.910343 1_455
B1 Ce3 2.937814 1_565
B1 Ce3 2.940779 1_465
B2 B3 1.692592 1_556
B2 B7 1.783617 1_555
B2 Ni1 2.144341 1_566
B2 Ce1 2.907102 1_456
B2 Ce1 2.910041 1_556
B2 Ce0 2.937427 1_455
B2 Ce0 2.940569 1_555
B3 B6 1.783522 1_555
B3 Ni1 2.144588 1_555
B3 Ce0 2.906954 1_454
B3 Ce0 2.910200 1_554
B3 Ce1 2.937486 1_455
B3 Ce1 2.940466 1_555
B4 B9 1.759472 1_455
B4 Ce0 2.916443 1_455
B4 Ce0 2.918079 1_555
B4 Ce2 2.923837 1_545
B4 Ce2 2.929149 1_445
B5 B8 1.759341 1_455
B5 Ce1 2.916262 1_455
B5 Ce1 2.917588 1_555
B5 Ce3 2.924012 1_565
B5 Ce3 2.929029 1_465
B6 Ni1 2.109449 1_555
B6 Ce1 2.870760 1_555
B6 Ce3 2.901531 1_555
B6 Ce0 2.999606 1_554
B6 Ce1 3.013405 1_545
B7 Ni1 2.109886 1_566
B7 Ce0 2.871072 1_555
B7 Ce2 2.902168 1_555
B7 Ce1 2.999678 1_556
B7 Ce0 3.013191 1_565
B8 Ni0 2.109253 1_655
B8 Ce3 2.871257 1_565
B8 Ce1 2.901845 1_555
B8 Ce2 2.999271 1_555
B8 Ce3 3.012971 1_555
B9 Ni0 2.109816 1_655
B9 Ce2 2.871400 1_545
B9 Ce0 2.902305 1_555
B9 Ce3 2.999481 1_555
B9 Ce2 3.012897 1_555
B10 B7 1.668822 1_555
B10 B19 1.758883 1_655
B10 B15 1.769426 1_655
B10 B2 1.785285 1_655
B10 Ni1 2.108566 1_666
B10 Ce0 2.872248 1_555
B10 Ce2 2.903667 1_555
B10 Ce1 2.998854 1_556
B10 Ce0 3.009305 1_565
B11 B6 1.668811 1_555
B11 B18 1.758778 1_655
B11 B14 1.769374 1_655
B11 B3 1.785161 1_655
B11 Ni1 2.108060 1_655
B11 Ce1 2.872156 1_555
B11 Ce3 2.902852 1_555
B11 Ce0 2.998769 1_554
B11 Ce1 3.009503 1_545
B12 B9 1.668741 1_555
B12 B4 1.758977 1_555
B12 B17 1.769278 1_555
B12 Ni0 2.108697 1_555
B12 Ce2 2.872816 1_545
B12 Ce0 2.903491 1_555
B12 Ce3 2.998953 1_555
B12 Ce2 3.008646 1_555
B13 B8 1.668742 1_555
B13 B5 1.758889 1_555
B13 B16 1.769181 1_555
B13 Ni0 2.108056 1_555
B13 Ce3 2.872938 1_565
B13 Ce1 2.902809 1_555
B13 Ce2 2.998791 1_555
B13 Ce3 3.008664 1_555
B14 B5 1.671436 1_545
B14 B18 1.748277 1_555
B14 B6 1.773719 1_555
B14 Ni1 2.095911 1_555
B14 Ce1 2.897525 1_445
B14 Ce1 2.903671 1_545
B14 Ce3 2.994638 1_555
B14 Ce3 2.994879 1_455
B15 B4 1.671666 1_565
B15 B19 1.748318 1_555
B15 B7 1.773668 1_555
B15 Ni1 2.097358 1_566
B15 Ce0 2.897319 1_465
B15 Ce0 2.903704 1_565
B15 Ce2 2.994917 1_555
B15 Ce2 2.995517 1_455
B16 B18 1.671445 1_555
B16 B5 1.747957 1_555
B16 B8 1.773641 1_455
B16 Ni0 2.096126 1_555
B16 Ce3 2.897444 1_555
B16 Ce3 2.903417 1_455
B16 Ce1 2.994332 1_455
B16 Ce1 2.994735 1_555
B17 B19 1.671691 1_555
B17 B4 1.748213 1_555
B17 B9 1.773604 1_455
B17 Ni0 2.097289 1_555
B17 Ce2 2.897246 1_555
B17 Ce2 2.903516 1_455
B17 Ce0 2.994665 1_455
B17 Ce0 2.995384 1_555
B18 B6 1.759342 1_555
B18 B3 1.761952 1_555
B18 Ce3 2.916031 1_555
B18 Ce3 2.917307 1_455
B18 Ce1 2.923663 1_455
B18 Ce1 2.928723 1_555
B19 B7 1.759504 1_555
B19 B2 1.762178 1_555
B19 Ce2 2.916236 1_555
B19 Ce2 2.917831 1_455
B19 Ce0 2.923646 1_455
B19 Ce0 2.929007 1_555
