# generated using pymatgen
data_SrBiO3
_symmetry_space_group_name_H-M   'P 1'
_cell_length_a   5.95496435
_cell_length_b   6.14411663
_cell_length_c   8.50541073
_cell_angle_alpha   90.00000000
_cell_angle_beta   90.03479930
_cell_angle_gamma   90.00000000
_symmetry_Int_Tables_number   1
_chemical_formula_structural   SrBiO3
_chemical_formula_sum   'Sr4 Bi4 O12'
_cell_volume   311.19587176
_cell_formula_units_Z   4
loop_
 _symmetry_equiv_pos_site_id
 _symmetry_equiv_pos_as_xyz
  1  'x, y, z'
loop_
 _atom_site_type_symbol
 _atom_site_label
 _atom_site_symmetry_multiplicity
 _atom_site_fract_x
 _atom_site_fract_y
 _atom_site_fract_z
 _atom_site_occupancy
  Sr  Sr0  1  0.98561291  0.55115133  0.24924234  1
  Sr  Sr1  1  0.51438709  0.05115133  0.25075766  1
  Sr  Sr2  1  0.01438709  0.44884867  0.75075766  1
  Sr  Sr3  1  0.48561291  0.94884867  0.74924234  1
  Bi  Bi0  1  0.00000000  -0.00000000  -0.00000000  1
  Bi  Bi1  1  0.50000000  0.50000000  0.50000000  1
  Bi  Bi2  1  0.00000000  -0.00000000  0.50000000  1
  Bi  Bi3  1  0.50000000  0.50000000  -0.00000000  1
  O  O0  1  0.68916415  0.78560001  0.05888547  1
  O  O1  1  0.81083585  0.28560001  0.44111453  1
  O  O2  1  0.31083585  0.21439999  0.94111453  1
  O  O3  1  0.18916415  0.71439999  0.55888547  1
  O  O4  1  0.78819207  0.30597339  0.05260084  1
  O  O5  1  0.71180793  0.80597339  0.44739916  1
  O  O6  1  0.21180793  0.69402661  0.94739916  1
  O  O7  1  0.28819207  0.19402661  0.55260084  1
  O  O8  1  0.39498233  0.45771509  0.23864113  1
  O  O9  1  0.10501767  0.95771509  0.26135887  1
  O  O10  1  0.60501767  0.54228491  0.76135887  1
  O  O11  1  0.89498233  0.04228491  0.73864113  1
loop_
_geom_bond_atom_site_label_1
_geom_bond_atom_site_label_2
_geom_bond_distance
_geom_bond_site_symmetry_2
Bi0 O6 2.307792 1_544
Bi0 O4 2.307792 1_455
Bi0 O11 2.323462 1_454
Bi0 O9 2.323462 1_545
Bi0 O0 2.326695 1_445
Bi0 O2 2.326695 1_554
Bi1 O5 2.307792 1_555
Bi1 O7 2.307792 1_555
Bi1 O8 2.323462 1_555
Bi1 O10 2.323462 1_555
Bi1 O1 2.326695 1_555
Bi1 O3 2.326695 1_555
Bi2 O5 2.136734 1_445
Bi2 O7 2.136734 1_555
Bi2 O11 2.140090 1_455
Bi2 O9 2.140090 1_545
Bi2 O1 2.144357 1_455
Bi2 O3 2.144357 1_545
Bi3 O6 2.136734 1_554
Bi3 O4 2.136734 1_555
Bi3 O8 2.140090 1_555
Bi3 O10 2.140090 1_554
Bi3 O0 2.144357 1_555
Bi3 O2 2.144357 1_554
O0 Sr1 2.531921 1_565
O0 Sr0 2.794514 1_555
O0 Sr3 3.067169 1_554
O1 Sr0 2.531921 1_555
O1 Sr1 2.794514 1_555
O1 Sr2 3.067169 1_655
O2 Sr3 2.531921 1_545
O2 Sr2 2.794514 1_555
O2 Sr1 3.067169 1_556
O3 Sr2 2.531921 1_555
O3 Sr3 2.794514 1_555
O3 Sr0 3.067169 1_455
O4 Sr0 2.538954 1_555
O4 Sr1 2.820237 1_555
O4 Sr2 3.029885 1_654
O5 Sr1 2.538954 1_565
O5 Sr0 2.820237 1_555
O5 Sr3 3.029885 1_555
O6 Sr2 2.538954 1_555
O6 Sr3 2.820237 1_555
O6 Sr0 3.029885 1_456
O7 Sr3 2.538954 1_545
O7 Sr2 2.820237 1_555
O7 Sr1 3.029885 1_555
O8 Sr0 2.506141 1_455
O8 Sr1 2.599232 1_555
O9 Sr1 2.506141 1_565
O9 Sr0 2.599232 1_455
O10 Sr2 2.506141 1_655
O10 Sr3 2.599232 1_555
O11 Sr3 2.506141 1_545
O11 Sr2 2.599232 1_655
