# generated using pymatgen
data_NaHfZnP(SO6)2
_symmetry_space_group_name_H-M   'P 1'
_cell_length_a   8.78685754
_cell_length_b   8.75806391
_cell_length_c   23.07211034
_cell_angle_alpha   90.27057884
_cell_angle_beta   90.00000000
_cell_angle_gamma   120.10881501
_symmetry_Int_Tables_number   1
_chemical_formula_structural   NaHfZnP(SO6)2
_chemical_formula_sum   'Na6 Hf6 Zn6 P6 S12 O72'
_cell_volume   1535.94593833
_cell_formula_units_Z   6
loop_
 _symmetry_equiv_pos_site_id
 _symmetry_equiv_pos_as_xyz
  1  'x, y, z'
loop_
 _atom_site_type_symbol
 _atom_site_label
 _atom_site_symmetry_multiplicity
 _atom_site_fract_x
 _atom_site_fract_y
 _atom_site_fract_z
 _atom_site_occupancy
  Na  Na0  1  0.98963898  0.99239216  0.50493408  1
  Na  Na1  1  0.00275319  0.99239216  0.00493408  1
  Na  Na2  1  0.66155629  0.32265374  0.83829345  1
  Na  Na3  1  0.66109844  0.32265374  0.33829345  1
  Na  Na4  1  0.32785882  0.67140498  0.17167509  1
  Na  Na5  1  0.34354515  0.67140498  0.67167509  1
  Hf  Hf0  1  0.00263839  0.00088223  0.35303783  1
  Hf  Hf1  1  0.99824384  0.00088223  0.85303783  1
  Hf  Hf2  1  0.66577152  0.33315247  0.68638002  1
  Hf  Hf3  1  0.66738196  0.33315247  0.18638002  1
  Hf  Hf4  1  0.32345186  0.67323786  0.01980897  1
  Hf  Hf5  1  0.34978500  0.67323786  0.51980897  1
  Zn  Zn0  1  0.97781791  0.98665143  0.64917697  1
  Zn  Zn1  1  0.00883352  0.98665143  0.14917697  1
  Zn  Zn2  1  0.66516881  0.33399911  0.98281607  1
  Zn  Zn3  1  0.66883131  0.33399911  0.48281607  1
  Zn  Zn4  1  0.33948852  0.68864288  0.31588514  1
  Zn  Zn5  1  0.34915336  0.68864288  0.81588514  1
  P  P0  1  0.28984335  0.99537311  0.24875984  1
  P  P1  1  0.70552975  0.99537311  0.74875984  1
  P  P2  1  0.67408449  0.62410081  0.58147028  1
  P  P3  1  0.95001733  0.62410081  0.08147028  1
  P  P4  1  0.33993480  0.96600048  0.91516743  1
  P  P5  1  0.62606468  0.96600048  0.41516743  1
  S  S0  1  0.70581599  0.71055086  0.24876602  1
  S  S1  1  0.00516009  0.29274826  0.24858430  1
  S  S2  1  0.28758817  0.29274826  0.74858430  1
  S  S3  1  0.00473487  0.71055086  0.74876602  1
  S  S4  1  0.95858520  0.33168751  0.58206641  1
  S  S5  1  0.37070379  0.04383963  0.58242170  1
  S  S6  1  0.67313684  0.04383963  0.08242170  1
  S  S7  1  0.37310332  0.33168751  0.08206641  1
  S  S8  1  0.62082470  0.66205297  0.91589881  1
  S  S9  1  0.04204339  0.37909681  0.91473879  1
  S  S10  1  0.33705243  0.37909681  0.41473879  1
  S  S11  1  0.04122727  0.66205297  0.41589881  1
  O  O0  1  0.20331120  0.02774581  0.30389973  1
  O  O1  1  0.81809762  0.79116664  0.30193218  1
  O  O2  1  0.97167328  0.18050334  0.30192454  1
  O  O3  1  0.20883006  0.18050334  0.80192454  1
  O  O4  1  0.97306903  0.79116664  0.80193218  1
  O  O5  1  0.82443461  0.02774581  0.80389973  1
  O  O6  1  0.79061857  0.97334628  0.69529197  1
  O  O7  1  0.18649933  0.21016904  0.69644660  1
  O  O8  1  0.03041586  0.81519061  0.69718379  1
  O  O9  1  0.78477475  0.81519061  0.19718379  1
  O  O10  1  0.02366970  0.21016904  0.19644660  1
  O  O11  1  0.18272770  0.97334628  0.19529197  1
  O  O12  1  0.87568503  0.36068063  0.63532932  1
  O  O13  1  0.48499105  0.12277091  0.63550205  1
  O  O14  1  0.64044208  0.50769758  0.63689769  1
  O  O15  1  0.86725649  0.50769758  0.13689769  1
  O  O16  1  0.63778085  0.12277091  0.13550205  1
  O  O17  1  0.48499660  0.36068063  0.13532932  1
  O  O18  1  0.45193043  0.30466137  0.03053927  1
  O  O19  1  0.84467891  0.53722899  0.02736467  1
  O  O20  1  0.69352769  0.14518078  0.03057843  1
  O  O21  1  0.45165410  0.14518078  0.53057843  1
  O  O22  1  0.69255108  0.53722899  0.52736467  1
  O  O23  1  0.85273194  0.30466137  0.53053927  1
  O  O24  1  0.54152783  0.69334500  0.96898808  1
  O  O25  1  0.15348643  0.45744563  0.96847990  1
  O  O26  1  0.30580447  0.84496663  0.97019116  1
  O  O27  1  0.53916116  0.84496663  0.47019116  1
  O  O28  1  0.30395820  0.45744563  0.46847990  1
  O  O29  1  0.15181617  0.69334500  0.46898808  1
  O  O30  1  0.11907874  0.63697978  0.36375305  1
  O  O31  1  0.51739316  0.87895046  0.36216193  1
  O  O32  1  0.35628721  0.48081362  0.36306857  1
  O  O33  1  0.12452542  0.48081362  0.86306857  1
  O  O34  1  0.36155630  0.87895046  0.86216193  1
  O  O35  1  0.51790004  0.63697978  0.86375305  1
  O  O36  1  0.02752988  0.82831676  0.41034433  1
  O  O37  1  0.81019609  0.97689669  0.40910368  1
  O  O38  1  0.17118991  0.19885906  0.41054091  1
  O  O39  1  0.02766914  0.19885906  0.91054091  1
  O  O40  1  0.16670059  0.97689669  0.90910368  1
  O  O41  1  0.80078688  0.82831676  0.91034433  1
  O  O42  1  0.98423903  0.18004433  0.58996835  1
  O  O43  1  0.19657180  0.02276872  0.59147325  1
  O  O44  1  0.83205849  0.80956840  0.58827317  1
  O  O45  1  0.97750991  0.80956840  0.08827317  1
  O  O46  1  0.82619693  0.02276872  0.09147325  1
  O  O47  1  0.19580530  0.18004433  0.08996835  1
  O  O48  1  0.69145345  0.16772035  0.74265660  1
  O  O49  1  0.46741637  0.30716238  0.74389190  1
  O  O50  1  0.83765792  0.53223672  0.74362791  1
  O  O51  1  0.69457980  0.53223672  0.24362791  1
  O  O52  1  0.83974702  0.30716238  0.24389190  1
  O  O53  1  0.47626790  0.16772035  0.24265660  1
  O  O54  1  0.64735328  0.51062820  0.92274837  1
  O  O55  1  0.86613730  0.35474572  0.92269607  1
  O  O56  1  0.50015584  0.14884378  0.92479826  1
  O  O57  1  0.64868894  0.14884378  0.42479826  1
  O  O58  1  0.48860943  0.35474572  0.42269607  1
  O  O59  1  0.86327592  0.51062820  0.42274837  1
  O  O60  1  0.36280258  0.49812956  0.07667990  1
  O  O61  1  0.13777856  0.63832209  0.07683514  1
  O  O62  1  0.50815724  0.86333234  0.07716821  1
  O  O63  1  0.35517410  0.86333234  0.57716821  1
  O  O64  1  0.50054253  0.63832209  0.57683514  1
  O  O65  1  0.13532598  0.49812956  0.57667990  1
  O  O66  1  0.31224267  0.83452056  0.25538916  1
  O  O67  1  0.52842601  0.68214255  0.25669659  1
  O  O68  1  0.15837926  0.46845138  0.25769409  1
  O  O69  1  0.31007112  0.46845138  0.75769409  1
  O  O70  1  0.15371553  0.68214255  0.75669659  1
  O  O71  1  0.52227689  0.83452056  0.75538916  1
loop_
_geom_bond_atom_site_label_1
_geom_bond_atom_site_label_2
_geom_bond_distance
_geom_bond_site_symmetry_2
Na0 O44 2.446003 1_555
Na0 O42 2.569077 1_565
Na0 O43 2.621676 1_665
Na0 O37 2.678725 1_555
Na0 O36 2.718264 1_655
Na0 O38 2.775020 1_665
Na1 O45 2.446003 1_455
Na1 O47 2.569077 1_565
Na1 O46 2.621676 1_465
Na1 O40 2.678725 1_554
Na1 O41 2.718264 1_454
Na1 O39 2.775020 1_564
Na2 O56 2.484889 1_555
Na2 O55 2.567203 1_555
Na2 O54 2.588155 1_555
Na2 O48 2.666164 1_555
Na2 O49 2.727143 1_555
Na2 O50 2.778900 1_555
Na3 O57 2.484889 1_555
Na3 O58 2.567203 1_555
Na3 O59 2.588155 1_555
Na3 O53 2.666164 1_555
Na3 O52 2.727143 1_555
Na3 O51 2.778900 1_555
Na4 O66 2.441476 1_555
Na4 O68 2.587186 1_555
Na4 O67 2.606663 1_555
Na4 O61 2.677699 1_555
Na4 O62 2.729957 1_555
Na4 O60 2.763522 1_555
Na5 O71 2.441476 1_555
Na5 O69 2.587186 1_555
Na5 O70 2.606663 1_555
Na5 O64 2.677699 1_555
Na5 O63 2.729957 1_555
Na5 O65 2.763522 1_555
Hf0 O0 2.009016 1_555
Hf0 O37 2.054984 1_445
Hf0 O38 2.088518 1_555
Hf0 O1 2.093953 1_445
Hf0 O2 2.094389 1_455
Hf0 O36 2.104915 1_545
Hf1 O5 2.009016 1_555
Hf1 O40 2.054984 1_645
Hf1 O39 2.088518 1_655
Hf1 O4 2.093953 1_545
Hf1 O3 2.094389 1_655
Hf1 O41 2.104915 1_545
Hf2 O14 2.011869 1_555
Hf2 O48 2.044951 1_555
Hf2 O13 2.083097 1_555
Hf2 O50 2.098096 1_555
Hf2 O12 2.098591 1_555
Hf2 O49 2.110714 1_555
Hf3 O15 2.011869 1_555
Hf3 O53 2.044951 1_555
Hf3 O16 2.083097 1_555
Hf3 O51 2.098096 1_555
Hf3 O17 2.098591 1_555
Hf3 O52 2.110714 1_555
Hf4 O26 1.961347 1_554
Hf4 O61 1.997403 1_555
Hf4 O25 2.086093 1_554
Hf4 O62 2.103682 1_555
Hf4 O24 2.177408 1_554
Hf4 O60 2.178126 1_555
Hf5 O27 1.961347 1_555
Hf5 O64 1.997403 1_555
Hf5 O28 2.086093 1_555
Hf5 O63 2.103682 1_555
Hf5 O29 2.177408 1_555
Hf5 O65 2.178126 1_555
O0 P0 1.577930 1_545
O1 S0 1.506489 1_555
O2 S1 1.512857 1_655
O3 S2 1.512857 1_555
O4 S3 1.506489 1_655
O5 P1 1.577930 1_545
O6 P1 1.503491 1_555
O6 Zn0 1.913153 1_555
O7 S2 1.451327 1_555
O7 Zn0 2.182281 1_445
O8 S3 1.452574 1_555
O8 Zn0 2.099389 1_455
O9 S0 1.452574 1_555
O9 Zn1 2.099389 1_655
O10 S1 1.451327 1_555
O10 Zn1 2.182281 1_545
O11 P0 1.503491 1_555
O11 Zn1 1.913153 1_555
O12 S4 1.512575 1_555
O13 S5 1.510527 1_555
O14 P2 1.572277 1_555
O15 P3 1.572277 1_555
O16 S6 1.510527 1_555
O17 S7 1.512575 1_555
O18 S7 1.452910 1_555
O18 Zn2 2.075760 1_554
O19 P3 1.509440 1_555
O19 Zn2 1.969378 1_554
O20 S6 1.449506 1_555
O20 Zn2 2.107548 1_554
O21 S5 1.449506 1_555
O21 Zn3 2.107548 1_555
O22 P2 1.509440 1_555
O22 Zn3 1.969378 1_555
O23 S4 1.452910 1_555
O23 Zn3 2.075759 1_555
O24 S8 1.499781 1_555
O25 S9 1.511612 1_555
O26 P4 1.587141 1_555
O27 P5 1.587141 1_555
O28 S10 1.511612 1_555
O29 S11 1.499781 1_555
O30 S11 1.453227 1_555
O30 Zn4 2.073846 1_555
O31 P5 1.499816 1_555
O31 Zn4 1.931526 1_555
O32 S10 1.449944 1_555
O32 Zn4 2.192765 1_555
O33 S9 1.449944 1_555
O33 Zn5 2.192765 1_555
O34 P4 1.499816 1_555
O34 Zn5 1.931526 1_555
O35 S8 1.453227 1_555
O35 Zn5 2.073846 1_555
O36 S11 1.526065 1_555
O37 P5 1.578486 1_555
O38 S10 1.521715 1_555
O39 S9 1.521718 1_555
O40 P4 1.578477 1_555
O41 S8 1.526070 1_555
O42 S4 1.466475 1_555
O42 Zn0 2.159648 1_545
O43 S5 1.461461 1_555
O43 Zn0 2.227376 1_445
O44 P2 1.524913 1_555
O44 Zn0 2.001683 1_555
O45 P3 1.524916 1_555
O45 Zn1 2.001683 1_655
O46 S6 1.461452 1_555
O46 Zn1 2.227376 1_645
O47 S7 1.466481 1_555
O47 Zn1 2.159648 1_545
O48 P1 1.582030 1_545
O49 S2 1.524615 1_555
O50 S3 1.518622 1_655
O51 S0 1.518626 1_555
O52 S1 1.524606 1_655
O53 P0 1.582034 1_545
O54 S8 1.466363 1_555
O54 Zn2 2.145084 1_555
O55 S9 1.462158 1_655
O55 Zn2 2.180791 1_555
O56 P4 1.526597 1_545
O56 Zn2 2.035756 1_555
O57 P5 1.526590 1_545
O57 Zn3 2.035756 1_555
O58 S10 1.462175 1_555
O58 Zn3 2.180791 1_555
O59 S11 1.466352 1_655
O59 Zn3 2.145084 1_555
O60 S7 1.510841 1_555
O61 P3 1.594633 1_455
O62 S6 1.521289 1_565
O63 S5 1.521281 1_565
O64 P2 1.594651 1_555
O65 S4 1.510831 1_455
O66 P0 1.525433 1_555
O66 Zn4 1.990347 1_555
O67 S0 1.461601 1_555
O67 Zn4 2.172179 1_555
O68 S1 1.463934 1_555
O68 Zn4 2.224977 1_555
O69 S2 1.463938 1_555
O69 Zn5 2.224977 1_555
O70 S3 1.461592 1_555
O70 Zn5 2.172179 1_555
O71 P1 1.525438 1_555
O71 Zn5 1.990347 1_555
