# generated using pymatgen
data_Na6Zn6SiGe2S11O48
_symmetry_space_group_name_H-M   'P 1'
_cell_length_a   17.35530001
_cell_length_b   8.70539370
_cell_length_c   22.17427758
_cell_angle_alpha   89.95084159
_cell_angle_beta   89.82996386
_cell_angle_gamma   119.99548470
_symmetry_Int_Tables_number   1
_chemical_formula_structural   Na6Zn6SiGe2S11O48
_chemical_formula_sum   'Na18 Zn18 Si3 Ge6 S33 O144'
_cell_volume   2901.46216982
_cell_formula_units_Z   3
loop_
 _symmetry_equiv_pos_site_id
 _symmetry_equiv_pos_as_xyz
  1  'x, y, z'
loop_
 _atom_site_type_symbol
 _atom_site_label
 _atom_site_symmetry_multiplicity
 _atom_site_fract_x
 _atom_site_fract_y
 _atom_site_fract_z
 _atom_site_occupancy
  Na  Na0  1  0.68360917  0.35975526  0.24298425  1
  Na  Na1  1  0.99267352  0.63271839  0.25531105  1
  Na  Na2  1  0.33400345  0.95906693  0.59199196  1
  Na  Na3  1  0.83507362  0.96097467  0.59191558  1
  Na  Na4  1  0.33168083  0.69088521  0.08016590  1
  Na  Na5  1  0.34737821  0.66387039  0.41302328  1
  Na  Na6  1  0.00995657  0.99816337  0.49747326  1
  Na  Na7  1  0.51713707  0.02249539  0.50103150  1
  Na  Na8  1  0.00000665  0.99927743  0.99930922  1
  Na  Na9  1  0.51191652  0.01955257  0.00067646  1
  Na  Na10  1  0.33389405  0.32522745  0.83667582  1
  Na  Na11  1  0.83312119  0.32510076  0.83675634  1
  Na  Na12  1  0.32756949  0.31454169  0.32865400  1
  Na  Na13  1  0.83714509  0.33576952  0.33365705  1
  Na  Na14  1  0.16774980  0.67088286  0.16536931  1
  Na  Na15  1  0.66782117  0.67939686  0.15918264  1
  Na  Na16  1  0.16614667  0.66508561  0.67661106  1
  Na  Na17  1  0.66730645  0.66620556  0.67737085  1
  Zn  Zn0  1  0.99786409  0.98884328  0.34931328  1
  Zn  Zn1  1  0.49772559  0.00211565  0.34666583  1
  Zn  Zn2  1  0.99718817  0.99678939  0.65649379  1
  Zn  Zn3  1  0.49789819  0.99672378  0.65665330  1
  Zn  Zn4  1  0.50429625  0.00710672  0.15163027  1
  Zn  Zn5  1  0.33464407  0.33501353  0.17951614  1
  Zn  Zn6  1  0.83414689  0.33971804  0.17970241  1
  Zn  Zn7  1  0.33102625  0.32626034  0.98374754  1
  Zn  Zn8  1  0.83505863  0.33404268  0.98500114  1
  Zn  Zn9  1  0.32953277  0.32201985  0.48248368  1
  Zn  Zn10  1  0.83378270  0.33581337  0.47867122  1
  Zn  Zn11  1  0.16060006  0.67250693  0.01009626  1
  Zn  Zn12  1  0.66695529  0.66675384  0.01116198  1
  Zn  Zn13  1  0.16059332  0.65384325  0.51659223  1
  Zn  Zn14  1  0.66338512  0.65863046  0.51996693  1
  Zn  Zn15  1  0.16870007  0.66669189  0.31705544  1
  Zn  Zn16  1  0.17417793  0.68155768  0.81622213  1
  Zn  Zn17  1  0.67481064  0.68238581  0.81656527  1
  Si  Si0  1  0.85266651  0.70612762  0.25189664  1
  Si  Si1  1  0.35170314  -0.00030695  0.74520093  1
  Si  Si2  1  0.85104331  0.00066450  0.74508183  1
  Ge  Ge0  1  0.99456848  0.00566208  0.84701646  1
  Ge  Ge1  1  0.49589004  0.00714473  0.84768124  1
  Ge  Ge2  1  0.99010923  0.99158951  0.15181791  1
  Ge  Ge3  1  0.33511292  0.32848199  0.68997502  1
  Ge  Ge4  1  0.83561902  0.33020353  0.68933985  1
  Ge  Ge5  1  0.67241897  0.67375116  0.31570707  1
  S  S0  1  0.14652931  0.00460696  0.24716376  1
  S  S1  1  0.64690373  0.98739191  0.25373189  1
  S  S2  1  0.34891502  0.69922165  0.25024626  1
  S  S3  1  0.00219012  0.29110094  0.24796332  1
  S  S4  1  0.50095363  0.30638912  0.25413350  1
  S  S5  1  0.14907870  0.28980329  0.74917687  1
  S  S6  1  0.64914505  0.28975072  0.74916781  1
  S  S7  1  0.99499796  0.70044588  0.74958253  1
  S  S8  1  0.49498681  0.70009345  0.74930279  1
  S  S9  1  0.48044502  0.34223051  0.58438193  1
  S  S10  1  0.98010511  0.34075851  0.58418459  1
  S  S11  1  0.18590776  0.04352722  0.58639313  1
  S  S12  1  0.68809579  0.04814471  0.58443879  1
  S  S13  1  0.33370859  0.61682753  0.58340451  1
  S  S14  1  0.83268921  0.61449463  0.58551135  1
  S  S15  1  0.48365113  0.63048854  0.08285883  1
  S  S16  1  0.98594011  0.64676628  0.08657816  1
  S  S17  1  0.33250848  0.03330665  0.08298057  1
  S  S18  1  0.83779128  0.03951128  0.08541668  1
  S  S19  1  0.17696684  0.32209363  0.08607782  1
  S  S20  1  0.68223762  0.33355559  0.08344976  1
  S  S21  1  0.32151393  0.67341585  0.91668659  1
  S  S22  1  0.82132973  0.67378123  0.91477676  1
  S  S23  1  0.01956200  0.36404508  0.91357996  1
  S  S24  1  0.51987937  0.36411762  0.91263106  1
  S  S25  1  0.15956023  0.96983202  0.91256108  1
  S  S26  1  0.66017739  0.96757685  0.91339040  1
  S  S27  1  0.31635002  0.96560651  0.41890223  1
  S  S28  1  0.81060182  0.95882614  0.41828784  1
  S  S29  1  0.16574856  0.36390741  0.41715699  1
  S  S30  1  0.66566200  0.37533464  0.41410227  1
  S  S31  1  0.01772873  0.66606007  0.41569677  1
  S  S32  1  0.52381420  0.66802987  0.41404290  1
  O  O0  1  0.11152746  0.03480070  0.30279321  1
  O  O1  1  0.60689258  0.02282494  0.30679670  1
  O  O2  1  0.39883611  0.78062722  0.30695615  1
  O  O3  1  0.91741400  0.78126990  0.30773065  1
  O  O4  1  0.48876203  0.20268049  0.30916628  1
  O  O5  1  0.99488971  0.19231736  0.30242556  1
  O  O6  1  0.10935320  0.16897347  0.80340400  1
  O  O7  1  0.60944395  0.16884205  0.80343260  1
  O  O8  1  0.48137956  0.78741137  0.80353572  1
  O  O9  1  0.98170490  0.78839825  0.80389520  1
  O  O10  1  0.42208932  0.04038911  0.80319754  1
  O  O11  1  0.92148492  0.04211116  0.80325488  1
  O  O12  1  0.39007121  0.97889510  0.68240133  1
  O  O13  1  0.88966024  0.97874478  0.68256338  1
  O  O14  1  0.10151016  0.21032110  0.69367807  1
  O  O15  1  0.60117144  0.21000651  0.69363194  1
  O  O16  1  0.01246412  0.80451245  0.69451702  1
  O  O17  1  0.51225144  0.80332672  0.69396029  1
  O  O18  1  0.39460587  0.80753529  0.19624932  1
  O  O19  1  0.89353734  0.83262778  0.19092989  1
  O  O20  1  0.01656938  0.20766240  0.19211926  1
  O  O21  1  0.52191865  0.23051138  0.20108592  1
  O  O22  1  0.08489021  0.97361346  0.19391210  1
  O  O23  1  0.59459404  0.95830717  0.19875508  1
  O  O24  1  0.43638223  0.36123476  0.64069071  1
  O  O25  1  0.93665747  0.36275919  0.64080359  1
  O  O26  1  0.24791092  0.13448727  0.63991743  1
  O  O27  1  0.74797922  0.13636755  0.63877431  1
  O  O28  1  0.32389851  0.50494850  0.63810008  1
  O  O29  1  0.82253931  0.50796506  0.64224079  1
  O  O30  1  0.44455171  0.52885742  0.13902847  1
  O  O31  1  0.94893854  0.55044741  0.14378280  1
  O  O32  1  0.32188352  0.11362202  0.13826905  1
  O  O33  1  0.82827376  0.12181569  0.14047528  1
  O  O34  1  0.23367393  0.35532537  0.13946575  1
  O  O35  1  0.72826908  0.34839788  0.14173681  1
  O  O36  1  0.21504482  0.29122476  0.03132416  1
  O  O37  1  0.72983240  0.31399560  0.03191336  1
  O  O38  1  0.42473682  0.54317196  0.03062654  1
  O  O39  1  0.93006724  0.56276828  0.03409731  1
  O  O40  1  0.34141771  0.13560674  0.02822344  1
  O  O41  1  0.85081945  0.14443694  0.03076286  1
  O  O42  1  0.22398892  0.14377691  0.53067804  1
  O  O43  1  0.72750720  0.14839826  0.52902080  1
  O  O44  1  0.33929875  0.53560610  0.52661908  1
  O  O45  1  0.83677545  0.52660259  0.53108014  1
  O  O46  1  0.42570182  0.31682143  0.53094967  1
  O  O47  1  0.92356007  0.31074163  0.53143707  1
  O  O48  1  0.28453631  0.70044229  0.97374738  1
  O  O49  1  0.78292739  0.70517914  0.96945769  1
  O  O50  1  0.07100476  0.43959182  0.96937070  1
  O  O51  1  0.56999900  0.43903255  0.96854460  1
  O  O52  1  0.14399196  0.86700165  0.96877141  1
  O  O53  1  0.64496559  0.86278858  0.96891644  1
  O  O54  1  0.27554449  0.86215058  0.47524268  1
  O  O55  1  0.76929405  0.85779243  0.47393377  1
  O  O56  1  0.15789877  0.44604126  0.47336611  1
  O  O57  1  0.65540307  0.46126210  0.46757084  1
  O  O58  1  0.07048042  0.67734170  0.46904770  1
  O  O59  1  0.57401675  0.68877726  0.46887647  1
  O  O60  1  0.05912855  0.65292396  0.35818670  1
  O  O61  1  0.56917240  0.64578659  0.35902477  1
  O  O62  1  0.26313719  0.87852268  0.36520120  1
  O  O63  1  0.75318122  0.86632055  0.36322494  1
  O  O64  1  0.18045480  0.47875662  0.36403757  1
  O  O65  1  0.67512160  0.48197377  0.35656083  1
  O  O66  1  0.06259349  0.46941422  0.86001632  1
  O  O67  1  0.56402648  0.46893361  0.85914507  1
  O  O68  1  0.17183602  0.88531153  0.85983429  1
  O  O69  1  0.67154195  0.88476189  0.85970701  1
  O  O70  1  0.26617069  0.65045269  0.86463433  1
  O  O71  1  0.76911722  0.64826957  0.86062766  1
  O  O72  1  0.00990359  0.82696575  0.41626810  1
  O  O73  1  0.51290821  0.82568112  0.40828424  1
  O  O74  1  0.40497188  0.97541585  0.41509306  1
  O  O75  1  0.89865761  0.97806370  0.41181662  1
  O  O76  1  0.08686561  0.18698155  0.41196002  1
  O  O77  1  0.58603032  0.19933772  0.40884972  1
  O  O78  1  0.01359906  0.18256981  0.90864649  1
  O  O79  1  0.51472722  0.18220387  0.90825608  1
  O  O80  1  0.07532438  0.98192252  0.90533219  1
  O  O81  1  0.57535475  0.97993359  0.90625767  1
  O  O82  1  0.41201975  0.84154550  0.90953172  1
  O  O83  1  0.91257959  0.84313819  0.90832532  1
  O  O84  1  0.49088444  0.18430838  0.58771623  1
  O  O85  1  0.99111375  0.18382753  0.58870617  1
  O  O86  1  0.09796533  0.02362645  0.59458755  1
  O  O87  1  0.59973585  0.02822545  0.59199337  1
  O  O88  1  0.41475581  0.79305453  0.58635495  1
  O  O89  1  0.91360198  0.79086664  0.58779085  1
  O  O90  1  0.48991176  0.80763670  0.08727618  1
  O  O91  1  0.99396702  0.82942227  0.09127038  1
  O  O92  1  0.41230005  0.01116383  0.08709990  1
  O  O93  1  0.92399855  0.02990825  0.08934447  1
  O  O94  1  0.08706738  0.15912615  0.09408756  1
  O  O95  1  0.59234469  0.17219300  0.08616185  1
  O  O96  1  0.34713721  0.19086159  0.74322460  1
  O  O97  1  0.84670317  0.19182629  0.74275345  1
  O  O98  1  0.24189636  0.31460738  0.74564593  1
  O  O99  1  0.74151668  0.31370097  0.74557597  1
  O  O100  1  0.40632435  0.52751162  0.74466746  1
  O  O101  1  0.90693814  0.52808854  0.74521625  1
  O  O102  1  0.33918294  0.52127181  0.24645432  1
  O  O103  1  0.83487387  0.50595052  0.24270309  1
  O  O104  1  0.42348609  0.32846784  0.24654707  1
  O  O105  1  0.92171036  0.30653238  0.24194998  1
  O  O106  1  0.23566716  0.15571837  0.23760309  1
  O  O107  1  0.73787740  0.13836803  0.24814330  1
  O  O108  1  0.33625459  0.52131383  0.92181587  1
  O  O109  1  0.83727018  0.52365058  0.92188871  1
  O  O110  1  0.42798282  0.33055064  0.91719602  1
  O  O111  1  0.92789876  0.33231674  0.91952689  1
  O  O112  1  0.23593967  0.15139822  0.91860742  1
  O  O113  1  0.73628262  0.14920005  0.91972582  1
  O  O114  1  0.32896661  0.14578291  0.42136537  1
  O  O115  1  0.81516986  0.13239049  0.41808111  1
  O  O116  1  0.24898744  0.35083474  0.41931160  1
  O  O117  1  0.74691111  0.36314631  0.41476689  1
  O  O118  1  0.43404411  0.50900529  0.41420433  1
  O  O119  1  0.92831428  0.50414770  0.41786437  1
  O  O120  1  0.16690569  0.48089810  0.07942244  1
  O  O121  1  0.67363331  0.49342278  0.07774778  1
  O  O122  1  0.07601026  0.67242928  0.07936766  1
  O  O123  1  0.57313441  0.65265622  0.07569336  1
  O  O124  1  0.25348156  0.84957059  0.07838343  1
  O  O125  1  0.76266520  0.85799883  0.07998406  1
  O  O126  1  0.18222521  0.86951256  0.58428870  1
  O  O127  1  0.68348071  0.87273865  0.58287886  1
  O  O128  1  0.25418213  0.63910695  0.58408998  1
  O  O129  1  0.75315918  0.63809786  0.58591031  1
  O  O130  1  0.06729099  0.50469045  0.58190357  1
  O  O131  1  0.56772841  0.50591884  0.58244667  1
  O  O132  1  0.14940042  0.83672029  0.24910823  1
  O  O133  1  0.65065134  0.81917738  0.26109138  1
  O  O134  1  0.26025734  0.68600270  0.25278962  1
  O  O135  1  0.75067329  0.68548838  0.26020313  1
  O  O136  1  0.08024004  0.47340427  0.24842371  1
  O  O137  1  0.58444469  0.48738480  0.25976635  1
  O  O138  1  0.15611445  0.46129074  0.75823857  1
  O  O139  1  0.65589806  0.46102297  0.75796633  1
  O  O140  1  0.06549189  0.65917632  0.75861777  1
  O  O141  1  0.56506977  0.65794452  0.75829268  1
  O  O142  1  0.25439545  0.83309035  0.75473072  1
  O  O143  1  0.75385058  0.83479559  0.75463997  1
loop_
_geom_bond_atom_site_label_1
_geom_bond_atom_site_label_2
_geom_bond_distance
_geom_bond_site_symmetry_2
Na0 O103 2.273963 1_555
Na0 O35 2.391157 1_555
Na0 O137 2.498742 1_555
Na0 O135 2.499163 1_555
Na0 O107 2.535682 1_555
Na0 O21 2.619952 1_555
Na0 O65 2.766866 1_555
Na0 O1 2.907757 1_555
Na1 O132 2.395596 1_655
Na1 O103 2.404054 1_555
Na1 O105 2.484891 1_555
Na1 O136 2.522465 1_655
Na1 O60 2.525560 1_655
Na1 O3 2.532182 1_555
Na1 O31 2.583743 1_555
Na2 O12 2.199993 1_555
Na2 O126 2.350600 1_555
Na2 O128 2.419154 1_555
Na2 O84 2.434565 1_565
Na2 O88 2.468361 1_555
Na2 O54 2.758023 1_555
Na2 O26 2.822890 1_565
Na3 O13 2.197052 1_555
Na3 O127 2.352613 1_555
Na3 O85 2.418305 1_565
Na3 O129 2.438366 1_555
Na3 O89 2.464996 1_555
Na3 O55 2.819732 1_555
Na3 O27 2.827853 1_565
Na3 O47 2.955236 1_565
Na4 O124 2.372043 1_555
Na4 O90 2.410665 1_555
Na4 O92 2.420032 1_565
Na4 O120 2.508656 1_555
Na4 O48 2.514758 1_554
Na4 O38 2.745338 1_555
Na4 O18 2.786036 1_555
Na4 O34 2.857901 1_555
Na5 O74 2.376295 1_555
Na5 O116 2.388869 1_555
Na5 O118 2.471490 1_555
Na5 O73 2.490011 1_555
Na5 O2 2.537365 1_555
Na5 O44 2.729075 1_555
Na5 O64 2.742853 1_555
Na5 O54 2.929625 1_555
Na6 O72 2.338111 1_555
Na6 O76 2.421768 1_565
Na6 O86 2.588678 1_565
Na6 O89 2.649628 1_455
Na6 O75 2.655904 1_455
Na6 O85 2.709631 1_465
Na7 O87 2.464075 1_555
Na7 O77 2.473350 1_555
Na7 O84 2.554954 1_555
Na7 O74 2.610459 1_545
Na7 O73 2.655517 1_545
Na7 O88 2.674197 1_545
Na8 O93 2.476714 1_466
Na8 O83 2.486138 1_455
Na8 O91 2.488819 1_456
Na8 O80 2.501171 1_555
Na8 O78 2.501728 1_565
Na8 O94 2.560837 1_566
Na9 O95 2.339400 1_555
Na9 O81 2.466134 1_544
Na9 O79 2.476388 1_554
Na9 O92 2.553565 1_555
Na9 O90 2.553783 1_545
Na9 O82 2.613770 1_544
Na10 O110 2.407977 1_555
Na10 O112 2.425989 1_555
Na10 O96 2.446477 1_555
Na10 O108 2.532955 1_555
Na10 O98 2.550317 1_555
Na10 O100 2.570789 1_555
Na11 O113 2.440875 1_555
Na11 O111 2.448067 1_555
Na11 O97 2.453821 1_555
Na11 O109 2.537380 1_555
Na11 O99 2.546954 1_555
Na11 O101 2.568845 1_555
Na12 O104 2.424965 1_555
Na12 O102 2.496245 1_555
Na12 O106 2.520097 1_555
Na12 O114 2.532973 1_555
Na12 O116 2.533108 1_555
Na12 O118 2.603406 1_555
Na13 O119 2.417017 1_555
Na13 O115 2.469732 1_555
Na13 O117 2.470072 1_555
Na13 O103 2.513512 1_555
Na13 O107 2.565462 1_555
Na13 O105 2.590510 1_555
Na14 O124 2.453093 1_555
Na14 O136 2.453806 1_555
Na14 O132 2.468664 1_555
Na14 O134 2.481990 1_555
Na14 O122 2.492254 1_555
Na14 O120 2.519729 1_555
Na15 O125 2.372813 1_555
Na15 O123 2.412126 1_555
Na15 O121 2.461555 1_555
Na15 O135 2.651673 1_555
Na15 O133 2.653162 1_555
Na15 O137 2.723692 1_555
Na16 O142 2.294746 1_555
Na16 O138 2.477454 1_555
Na16 O140 2.500428 1_555
Na16 O128 2.631020 1_555
Na16 O126 2.632429 1_555
Na16 O130 2.633368 1_555
Na17 O143 2.271820 1_555
Na17 O139 2.462194 1_555
Na17 O141 2.495314 1_555
Na17 O129 2.596247 1_555
Na17 O131 2.641915 1_555
Na17 O127 2.680874 1_555
Ge0 O11 1.749375 1_555
Ge0 O78 1.961161 1_655
Ge0 O83 1.961370 1_545
Ge0 O80 1.994760 1_645
Ge0 O6 2.019753 1_655
Ge0 O9 2.030659 1_545
Ge1 O10 1.753540 1_555
Ge1 O79 1.934294 1_555
Ge1 O82 1.991135 1_545
Ge1 O81 1.995493 1_545
Ge1 O7 2.010094 1_555
Ge1 O8 2.050299 1_545
Ge2 O19 1.773845 1_555
Ge2 O20 1.920755 1_665
Ge2 O93 1.933424 1_565
Ge2 O22 1.966685 1_655
Ge2 O91 1.974147 1_555
Ge2 O94 2.031649 1_665
Ge3 O96 1.766942 1_555
Ge3 O26 1.957609 1_555
Ge3 O24 1.962556 1_555
Ge3 O100 1.967662 1_555
Ge3 O98 1.987028 1_555
Ge3 O28 2.004554 1_555
Ge4 O97 1.766794 1_555
Ge4 O25 1.950632 1_555
Ge4 O27 1.966014 1_555
Ge4 O29 1.971510 1_555
Ge4 O101 1.978790 1_555
Ge4 O99 1.998977 1_555
Ge5 O135 1.794668 1_555
Ge5 O63 1.883494 1_555
Ge5 O65 1.919905 1_555
Ge5 O133 1.921047 1_555
Ge5 O61 1.935443 1_555
Ge5 O137 2.009968 1_555
O0 S0 1.454473 1_555
O0 Zn0 2.076934 1_445
O1 S1 1.473718 1_545
O1 Zn1 2.012946 1_555
O2 S2 1.492733 1_555
O2 Zn1 2.035131 1_565
O3 Si0 1.580554 1_555
O3 Zn0 1.884885 1_555
O4 S4 1.467855 1_555
O4 Zn1 2.008480 1_555
O5 S3 1.449959 1_655
O5 Zn0 2.076008 1_545
O6 S5 1.515074 1_555
O7 S6 1.516010 1_555
O8 S8 1.503043 1_555
O9 S7 1.505475 1_555
O10 Si1 1.687906 1_555
O11 Si2 1.690518 1_555
O12 Si1 1.590855 1_565
O12 Zn3 1.885521 1_555
O13 Si2 1.590671 1_565
O13 Zn2 1.881968 1_555
O14 S5 1.452979 1_555
O14 Zn2 2.014873 1_445
O15 S6 1.456465 1_555
O15 Zn3 2.004032 1_545
O16 S7 1.457695 1_455
O16 Zn2 2.006376 1_455
O17 S8 1.459477 1_555
O17 Zn3 1.999769 1_555
O18 S2 1.482009 1_555
O18 Zn4 2.073718 1_565
O19 Si0 1.659579 1_555
O20 S3 1.517969 1_555
O21 S4 1.480363 1_555
O21 Zn4 2.118829 1_555
O22 S0 1.526753 1_565
O23 S1 1.466868 1_555
O23 Zn4 2.098327 1_565
O24 S9 1.514059 1_555
O25 S10 1.523386 1_555
O26 S11 1.533243 1_555
O27 S12 1.527279 1_555
O28 S13 1.509796 1_555
O29 S14 1.518818 1_555
O30 S15 1.478975 1_555
O30 Zn5 2.015177 1_555
O31 S16 1.476291 1_555
O31 Zn6 2.074270 1_555
O32 S17 1.467966 1_555
O32 Zn5 2.043901 1_555
O33 S18 1.466234 1_555
O33 Zn6 2.043369 1_555
O34 S19 1.475324 1_555
O34 Zn5 2.051717 1_555
O35 S20 1.492854 1_555
O35 Zn6 2.058858 1_555
O36 S19 1.468468 1_555
O36 Zn7 2.151914 1_554
O37 S20 1.467182 1_555
O37 Zn8 2.029147 1_554
O38 S15 1.481938 1_555
O38 Zn7 2.057690 1_554
O39 S16 1.458919 1_555
O39 Zn8 2.144847 1_554
O40 S17 1.466506 1_555
O40 Zn7 2.014284 1_554
O41 S18 1.464293 1_555
O41 Zn8 2.068614 1_554
O42 S11 1.463333 1_555
O42 Zn9 2.012139 1_555
O43 S12 1.461478 1_555
O43 Zn10 2.070300 1_555
O44 S13 1.471145 1_555
O44 Zn9 2.032909 1_555
O45 S14 1.450026 1_555
O45 Zn10 2.007295 1_555
O46 S9 1.467105 1_555
O46 Zn9 2.007190 1_555
O47 S10 1.466401 1_555
O47 Zn10 2.048113 1_555
O48 S21 1.488223 1_555
O48 Zn11 2.191288 1_556
O49 S22 1.472077 1_555
O49 Zn12 2.081683 1_556
O50 S23 1.476805 1_555
O50 Zn11 2.050289 1_556
O51 S24 1.469605 1_555
O51 Zn12 2.081291 1_556
O52 S25 1.477217 1_555
O52 Zn11 2.067949 1_556
O53 S26 1.474168 1_555
O53 Zn12 2.141518 1_556
O54 S27 1.492824 1_555
O54 Zn13 2.116180 1_555
O55 S28 1.473940 1_555
O55 Zn14 2.055702 1_555
O56 S29 1.476895 1_555
O56 Zn13 2.027820 1_555
O57 S30 1.459589 1_555
O57 Zn14 2.021775 1_555
O58 S31 1.471082 1_555
O58 Zn13 1.982048 1_555
O59 S32 1.455841 1_555
O59 Zn14 2.043253 1_555
O60 S31 1.494169 1_555
O60 Zn15 2.055261 1_555
O61 S32 1.514157 1_555
O62 S27 1.467522 1_555
O62 Zn15 2.053875 1_555
O63 S28 1.529349 1_555
O64 S29 1.480952 1_555
O64 Zn15 2.033635 1_555
O65 S30 1.536593 1_555
O66 S23 1.455258 1_555
O66 Zn16 2.124575 1_555
O67 S24 1.456018 1_555
O67 Zn17 2.110699 1_555
O68 S25 1.452750 1_555
O68 Zn16 2.039089 1_555
O69 S26 1.455313 1_555
O69 Zn17 2.030931 1_555
O70 S21 1.452495 1_555
O70 Zn16 2.053456 1_555
O71 S22 1.455291 1_555
O71 Zn17 2.053463 1_555
O72 S31 1.473405 1_555
O72 Zn0 2.127545 1_455
O73 S32 1.481631 1_555
O73 Zn1 2.167628 1_565
O74 S27 1.499315 1_555
O74 Zn1 2.135050 1_565
O75 S28 1.458388 1_555
O75 Zn0 2.172148 1_555
O76 S29 1.467213 1_555
O76 Zn0 2.154934 1_445
O77 S30 1.468021 1_555
O77 Zn1 2.140911 1_555
O78 S23 1.534725 1_555
O79 S24 1.544029 1_555
O80 S25 1.526188 1_555
O81 S26 1.537342 1_555
O82 S21 1.527774 1_555
O83 S22 1.538138 1_555
O84 S9 1.475550 1_555
O84 Zn3 2.283370 1_545
O85 S10 1.474370 1_555
O85 Zn2 2.256122 1_545
O86 S11 1.458232 1_555
O86 Zn2 2.138845 1_445
O87 S12 1.463672 1_555
O87 Zn3 2.180458 1_545
O88 S13 1.476298 1_555
O88 Zn3 2.261788 1_555
O89 S14 1.475361 1_555
O89 Zn2 2.248663 1_555
O90 S15 1.494120 1_555
O90 Zn4 2.164925 1_565
O91 S16 1.528892 1_555
O92 S17 1.493590 1_555
O92 Zn4 2.160514 1_555
O93 S18 1.542358 1_555
O94 S19 1.504426 1_555
O95 S20 1.489597 1_555
O95 Zn4 2.072537 1_555
O96 Si1 1.705728 1_555
O97 Si2 1.703792 1_555
O98 S5 1.516285 1_555
O99 S6 1.511580 1_555
O100 S8 1.524872 1_555
O101 S7 1.518130 1_555
O102 S2 1.474474 1_555
O102 Zn5 2.171541 1_555
O103 Si0 1.623755 1_555
O103 Zn6 2.007791 1_555
O104 S4 1.460312 1_555
O104 Zn5 2.165922 1_555
O105 S3 1.474931 1_655
O105 Zn6 2.179190 1_555
O106 S0 1.459958 1_555
O106 Zn5 2.085333 1_555
O107 S1 1.469463 1_545
O107 Zn6 2.284582 1_555
O108 S21 1.473180 1_555
O108 Zn7 2.149099 1_555
O109 S22 1.473411 1_555
O109 Zn8 2.148694 1_555
O110 S24 1.473880 1_555
O110 Zn7 2.221041 1_555
O111 S23 1.477772 1_655
O111 Zn8 2.171318 1_555
O112 S25 1.476464 1_545
O112 Zn7 2.152472 1_555
O113 S26 1.475673 1_545
O113 Zn8 2.209916 1_555
O114 S27 1.472399 1_545
O114 Zn9 2.044307 1_555
O115 S28 1.472915 1_545
O115 Zn10 2.116635 1_555
O116 S29 1.505652 1_555
O116 Zn9 2.083475 1_555
O117 S30 1.466146 1_555
O117 Zn10 2.169908 1_555
O118 S32 1.478932 1_555
O118 Zn9 2.293323 1_555
O119 S31 1.486472 1_655
O119 Zn10 2.058336 1_555
O120 S19 1.484796 1_555
O120 Zn11 2.310104 1_555
O121 S20 1.477410 1_555
O121 Zn12 2.154608 1_555
O122 S16 1.472524 1_455
O122 Zn11 2.121394 1_555
O123 S15 1.474161 1_555
O123 Zn12 2.121328 1_555
O124 S17 1.502508 1_565
O124 Zn11 2.191210 1_555
O125 S18 1.467186 1_565
O125 Zn12 2.261455 1_555
O126 S11 1.484728 1_565
O126 Zn13 2.285318 1_555
O127 S12 1.488991 1_565
O127 Zn14 2.213419 1_555
O128 S13 1.486725 1_555
O128 Zn13 2.262140 1_555
O129 S14 1.493633 1_555
O129 Zn14 2.211150 1_555
O130 S10 1.472774 1_455
O130 Zn13 2.070267 1_555
O131 S9 1.472518 1_555
O131 Zn14 2.054107 1_555
O132 S0 1.487650 1_565
O132 Zn15 2.251232 1_555
O133 S1 1.506697 1_555
O134 S2 1.485393 1_555
O134 Zn15 2.074371 1_555
O135 Si0 1.696924 1_555
O136 S3 1.484684 1_555
O136 Zn15 2.222538 1_555
O137 S4 1.521998 1_555
O138 S5 1.449941 1_555
O138 Zn16 2.198598 1_555
O139 S6 1.449404 1_555
O139 Zn17 2.209992 1_555
O140 S7 1.451496 1_455
O140 Zn16 2.207907 1_555
O141 S8 1.449596 1_555
O141 Zn17 2.225370 1_555
O142 Si1 1.596419 1_565
O142 Zn16 1.920146 1_555
O143 Si2 1.592878 1_565
O143 Zn17 1.921858 1_555
