# generated using pymatgen
data_LaCu5
_symmetry_space_group_name_H-M   'P 1'
_cell_length_a   5.12845880
_cell_length_b   5.12845867
_cell_length_c   4.07357675
_cell_angle_alpha   90.00000000
_cell_angle_beta   90.00000000
_cell_angle_gamma   119.99998768
_symmetry_Int_Tables_number   1
_chemical_formula_structural   LaCu5
_chemical_formula_sum   'La1 Cu5'
_cell_volume   92.78554435
_cell_formula_units_Z   1
loop_
 _symmetry_equiv_pos_site_id
 _symmetry_equiv_pos_as_xyz
  1  'x, y, z'
loop_
 _atom_site_type_symbol
 _atom_site_label
 _atom_site_symmetry_multiplicity
 _atom_site_fract_x
 _atom_site_fract_y
 _atom_site_fract_z
 _atom_site_occupancy
  La  La0  1  0.00000000  -0.00000000  -0.00000000  1
  Cu  Cu0  1  0.00000000  0.50000000  0.50000000  1
  Cu  Cu1  1  0.33333300  0.66666700  0.00000000  1
  Cu  Cu2  1  0.66666700  0.33333300  -0.00000000  1
  Cu  Cu3  1  0.50000000  -0.00000000  0.50000000  1
  Cu  Cu4  1  0.50000000  0.50000000  0.50000000  1
loop_
_geom_bond_atom_site_label_1
_geom_bond_atom_site_label_2
_geom_bond_distance
_geom_bond_site_symmetry_2
Cu0 Cu2 2.517987 1_456
Cu0 Cu1 2.517987 1_556
Cu0 Cu1 2.517987 1_555
Cu0 Cu2 2.517987 1_455
Cu0 Cu4 2.564229 1_455
Cu0 Cu4 2.564229 1_555
Cu0 Cu3 2.564230 1_455
Cu0 Cu3 2.564230 1_565
Cu0 La0 3.274718 1_556
Cu0 La0 3.274718 1_555
Cu0 La0 3.274718 1_566
Cu0 La0 3.274718 1_565
Cu1 Cu3 2.517987 1_565
Cu1 Cu3 2.517987 1_564
Cu1 Cu4 2.517990 1_554
Cu1 Cu4 2.517990 1_555
Cu1 La0 2.960914 1_565
Cu1 Cu2 2.960914 1_565
Cu1 Cu2 2.960914 1_455
Cu1 La0 2.960919 1_555
Cu1 La0 2.960919 1_665
Cu1 Cu2 2.960923 1_555
Cu2 Cu3 2.517987 1_555
Cu2 Cu3 2.517987 1_554
Cu2 Cu4 2.517990 1_554
Cu2 Cu4 2.517990 1_555
Cu2 La0 2.960914 1_655
Cu2 La0 2.960919 1_665
Cu2 La0 2.960919 1_555
Cu3 Cu4 2.564229 1_545
Cu3 Cu4 2.564229 1_555
Cu3 La0 3.274718 1_555
Cu3 La0 3.274718 1_655
Cu3 La0 3.274718 1_656
Cu3 La0 3.274718 1_556
Cu4 La0 3.274719 1_556
Cu4 La0 3.274719 1_555
Cu4 La0 3.274719 1_666
Cu4 La0 3.274719 1_665
