# generated using pymatgen
data_NaTaSi3Ge3(SO8)3
_symmetry_space_group_name_H-M   'P 1'
_cell_length_a   8.59101832
_cell_length_b   8.52630855
_cell_length_c   22.23510502
_cell_angle_alpha   88.36635695
_cell_angle_beta   92.34990133
_cell_angle_gamma   119.42898203
_symmetry_Int_Tables_number   1
_chemical_formula_structural   NaTaSi3Ge3(SO8)3
_chemical_formula_sum   'Na3 Ta3 Si9 Ge9 S9 O72'
_cell_volume   1417.29530878
_cell_formula_units_Z   3
loop_
 _symmetry_equiv_pos_site_id
 _symmetry_equiv_pos_as_xyz
  1  'x, y, z'
loop_
 _atom_site_type_symbol
 _atom_site_label
 _atom_site_symmetry_multiplicity
 _atom_site_fract_x
 _atom_site_fract_y
 _atom_site_fract_z
 _atom_site_occupancy
  Na  Na0  1  0.01176683  0.99271212  0.99263694  1
  Na  Na1  1  0.65980985  0.31976786  0.83328501  1
  Na  Na2  1  0.67518647  0.33414285  0.33323260  1
  Ta  Ta0  1  0.00674965  0.00712297  0.64464232  1
  Ta  Ta1  1  0.01084538  0.00853052  0.14163055  1
  Ta  Ta2  1  0.33287515  0.67648640  0.52655920  1
  Si  Si0  1  0.99192680  0.28588972  0.25162588  1
  Si  Si1  1  0.29192026  0.30564861  0.75479730  1
  Si  Si2  1  0.72576089  0.01306645  0.75181359  1
  Si  Si3  1  0.39620928  0.07285987  0.58095502  1
  Si  Si4  1  0.67292753  0.60928637  0.58659983  1
  Si  Si5  1  0.94589066  0.60779752  0.07922164  1
  Si  Si6  1  0.39837161  0.35063805  0.08140085  1
  Si  Si7  1  0.33430706  0.94945331  0.91552865  1
  Si  Si8  1  0.02933686  0.66218619  0.41367393  1
  Ge  Ge0  1  0.98158884  0.99342479  0.35542041  1
  Ge  Ge1  1  0.02647205  0.01719723  0.84969348  1
  Ge  Ge2  1  0.62626643  0.30911427  0.69407413  1
  Ge  Ge3  1  0.69006419  0.35105953  0.18179422  1
  Ge  Ge4  1  0.64265099  0.32977879  0.97843163  1
  Ge  Ge5  1  0.67547474  0.36191386  0.48320523  1
  Ge  Ge6  1  0.30403273  0.65408344  0.02295272  1
  Ge  Ge7  1  0.29612176  0.64555583  0.31328749  1
  Ge  Ge8  1  0.36165783  0.69647211  0.80615734  1
  S  S0  1  0.29334394  -0.00024795  0.25405102  1
  S  S1  1  0.70132503  0.70876959  0.25214711  1
  S  S2  1  0.00047993  0.71014743  0.75403613  1
  S  S3  1  0.94718290  0.33515513  0.58209870  1
  S  S4  1  0.65673014  0.04591201  0.08255564  1
  S  S5  1  0.62217308  0.66917213  0.91722772  1
  S  S6  1  0.03922490  0.37569937  0.91723342  1
  S  S7  1  0.61563177  0.94829724  0.41284056  1
  S  S8  1  0.33009942  0.37495627  0.41365447  1
  O  O0  1  0.20820682  0.02864510  0.30583656  1
  O  O1  1  0.82274587  0.78512599  0.30729806  1
  O  O2  1  0.95448879  0.15606011  0.31183224  1
  O  O3  1  0.21999356  0.16841732  0.81265748  1
  O  O4  1  0.96731139  0.79220046  0.80718207  1
  O  O5  1  0.84702603  0.03592037  0.81373792  1
  O  O6  1  0.81559899  0.98066116  0.69387531  1
  O  O7  1  0.17275945  0.20933753  0.69442683  1
  O  O8  1  0.03178831  0.82418835  0.69869486  1
  O  O9  1  0.78795294  0.81638713  0.19805801  1
  O  O10  1  0.01873478  0.18498910  0.19504168  1
  O  O11  1  0.17804338  0.96382810  0.19774646  1
  O  O12  1  0.87904847  0.37160339  0.63457557  1
  O  O13  1  0.51531958  0.13065770  0.64257388  1
  O  O14  1  0.64246823  0.48575482  0.64538861  1
  O  O15  1  0.88010796  0.49733905  0.14273535  1
  O  O16  1  0.63253780  0.12472924  0.13804260  1
  O  O17  1  0.51163490  0.36939691  0.14477702  1
  O  O18  1  0.45713006  0.28147592  0.02406442  1
  O  O19  1  0.81536293  0.51846096  0.02074440  1
  O  O20  1  0.70153119  0.16175487  0.02853015  1
  O  O21  1  0.48501082  0.18273425  0.51840684  1
  O  O22  1  0.72094123  0.55154963  0.52338842  1
  O  O23  1  0.84225931  0.30386737  0.52386219  1
  O  O24  1  0.54058445  0.68851598  0.97112527  1
  O  O25  1  0.15113544  0.44746869  0.97478719  1
  O  O26  1  0.30532208  0.82859100  0.97694524  1
  O  O27  1  0.53659415  0.83811993  0.46748702  1
  O  O28  1  0.30986763  0.46015551  0.46639262  1
  O  O29  1  0.16099923  0.69269130  0.47142670  1
  O  O30  1  0.11407817  0.62009452  0.35520189  1
  O  O31  1  0.50070223  0.86187424  0.35771135  1
  O  O32  1  0.36981891  0.49518189  0.35820150  1
  O  O33  1  0.12071931  0.48695980  0.86458143  1
  O  O34  1  0.36438447  0.85862673  0.85709532  1
  O  O35  1  0.51102096  0.63758059  0.86123264  1
  O  O36  1  0.02318188  0.84985372  0.40333340  1
  O  O37  1  0.79357355  0.95758254  0.40937936  1
  O  O38  1  0.16628999  0.19935018  0.40575607  1
  O  O39  1  0.02244801  0.19223707  0.91446803  1
  O  O40  1  0.14719907  0.96331961  0.90941261  1
  O  O41  1  0.80215904  0.82642111  0.91259079  1
  O  O42  1  0.96668655  0.17302649  0.58626777  1
  O  O43  1  0.20034008  0.04767057  0.59061490  1
  O  O44  1  0.83766712  0.81025214  0.59595027  1
  O  O45  1  0.96207182  0.80728612  0.09061108  1
  O  O46  1  0.82191302  0.02556843  0.09139801  1
  O  O47  1  0.19380577  0.17480894  0.09324286  1
  O  O48  1  0.71645190  0.20085877  0.74444404  1
  O  O49  1  0.49048238  0.32551877  0.74913650  1
  O  O50  1  0.84497326  0.53385916  0.74707643  1
  O  O51  1  0.68017734  0.52442919  0.24818464  1
  O  O52  1  0.80753025  0.30124054  0.24286396  1
  O  O53  1  0.46881542  0.15844871  0.24625098  1
  O  O54  1  0.63737897  0.49781251  0.91931078  1
  O  O55  1  0.85947901  0.35863158  0.92348528  1
  O  O56  1  0.51471275  0.15167876  0.92335151  1
  O  O57  1  0.63723595  0.12902224  0.41681736  1
  O  O58  1  0.49053184  0.35056829  0.41773294  1
  O  O59  1  0.83214531  0.47995308  0.42208394  1
  O  O60  1  0.38229613  0.52904098  0.06915466  1
  O  O61  1  0.14468984  0.63765651  0.07392082  1
  O  O62  1  0.50369804  0.86753278  0.07599365  1
  O  O63  1  0.37282021  0.87004852  0.57144511  1
  O  O64  1  0.48931549  0.61835469  0.57157835  1
  O  O65  1  0.13143519  0.49159523  0.57315657  1
  O  O66  1  0.31189930  0.83463301  0.26018696  1
  O  O67  1  0.52988507  0.70346486  0.26007976  1
  O  O68  1  0.17541442  0.47904574  0.25816418  1
  O  O69  1  0.29372719  0.49201708  0.76730273  1
  O  O70  1  0.16594024  0.69937639  0.76077368  1
  O  O71  1  0.52732786  0.84150684  0.75701613  1
loop_
_geom_bond_atom_site_label_1
_geom_bond_atom_site_label_2
_geom_bond_distance
_geom_bond_site_symmetry_2
Na0 O40 2.308773 1_555
Na0 O39 2.369513 1_565
Na0 O41 2.406836 1_455
Na0 O45 2.577623 1_456
Na0 O47 2.717634 1_566
Na0 O46 2.887701 1_466
Na1 O49 2.336887 1_555
Na1 O48 2.417579 1_555
Na1 O56 2.429792 1_555
Na1 O55 2.504386 1_555
Na1 O54 2.546309 1_555
Na1 O50 2.594990 1_555
Na2 O59 2.353965 1_555
Na2 O57 2.433748 1_555
Na2 O52 2.437587 1_555
Na2 O51 2.444090 1_555
Na2 O53 2.530216 1_555
Na2 O58 2.558144 1_555
Ge0 O36 1.756536 1_655
Ge0 O2 1.771589 1_565
Ge0 O1 1.941218 1_555
Ge0 O37 1.948029 1_555
Ge0 O38 2.020367 1_665
Ge0 O0 2.163017 1_665
Ge1 O3 1.746388 1_555
Ge1 O5 1.781782 1_455
Ge1 O40 1.835878 1_545
Ge1 O4 1.984411 1_445
Ge1 O39 2.116672 1_555
Ge1 O41 2.307886 1_445
Ge2 O13 1.766247 1_555
Ge2 O49 1.779470 1_555
Ge2 O14 1.781276 1_555
Ge2 O48 1.810877 1_555
Ge2 O50 2.236124 1_555
Ge2 O12 2.410094 1_555
Ge3 O15 1.740372 1_555
Ge3 O17 1.782239 1_555
Ge3 O52 1.821722 1_555
Ge3 O16 2.011224 1_555
Ge3 O51 2.151637 1_555
Ge3 O53 2.320699 1_555
Ge4 O18 1.789726 1_556
Ge4 O19 1.816855 1_556
Ge4 O56 1.835600 1_555
Ge4 O54 1.932425 1_555
Ge4 O20 2.030787 1_556
Ge4 O55 2.177672 1_555
Ge5 O22 1.731571 1_555
Ge5 O21 1.790069 1_555
Ge5 O59 1.847255 1_555
Ge5 O23 1.918433 1_555
Ge5 O58 2.078561 1_555
Ge5 O57 2.390872 1_555
Ge6 O61 1.762848 1_555
Ge6 O26 1.777195 1_554
Ge6 O60 1.797065 1_555
Ge6 O25 1.921996 1_554
Ge6 O62 2.129359 1_555
Ge6 O24 2.265076 1_554
Ge7 O30 1.770863 1_555
Ge7 O68 1.772418 1_555
Ge7 O66 1.923861 1_555
Ge7 O32 1.927412 1_555
Ge7 O31 2.059730 1_555
Ge7 O67 2.205382 1_555
Ge8 O71 1.752068 1_555
Ge8 O69 1.780636 1_555
Ge8 O34 1.802822 1_555
Ge8 O70 1.935567 1_555
Ge8 O35 1.966619 1_555
Ge8 O33 2.370186 1_555
O0 S0 1.477772 1_555
O1 S1 1.512948 1_555
O2 Si0 1.649809 1_555
O3 Si1 1.635518 1_555
O4 S2 1.495906 1_655
O5 Si2 1.648428 1_555
O6 Si2 1.625738 1_565
O6 Ta0 1.927502 1_665
O7 Si1 1.627351 1_555
O7 Ta0 1.948084 1_555
O8 S2 1.494623 1_555
O8 Ta0 2.031062 1_565
O9 S1 1.477047 1_555
O9 Ta1 2.218540 1_665
O10 Si0 1.629820 1_455
O10 Ta1 1.916690 1_555
O11 S0 1.504784 1_565
O11 Ta1 2.032067 1_565
O12 S3 1.433923 1_555
O13 Si3 1.610936 1_555
O14 Si4 1.601642 1_555
O15 Si5 1.633205 1_555
O16 S4 1.490812 1_555
O17 Si6 1.644885 1_555
O18 Si6 1.617420 1_555
O19 Si5 1.620445 1_555
O20 S4 1.470861 1_555
O21 Si3 1.644466 1_555
O22 Si4 1.635386 1_555
O23 S3 1.499372 1_555
O24 S5 1.465765 1_555
O25 S6 1.517261 1_555
O26 Si7 1.638387 1_555
O27 S7 1.481785 1_555
O27 Ta2 2.098243 1_555
O28 S8 1.456832 1_555
O28 Ta2 2.234220 1_555
O29 Si8 1.614592 1_555
O29 Ta2 1.935090 1_555
O30 Si8 1.646245 1_555
O31 S7 1.502579 1_555
O32 S8 1.518627 1_555
O33 S6 1.453239 1_555
O34 Si7 1.623618 1_555
O35 S5 1.484398 1_555
O36 Si8 1.636212 1_555
O37 S7 1.496492 1_555
O38 S8 1.475546 1_555
O39 S6 1.501551 1_555
O40 Si7 1.668615 1_555
O41 S5 1.472108 1_555
O42 S3 1.471943 1_555
O42 Ta0 2.035000 1_655
O43 Si3 1.611105 1_555
O43 Ta0 1.975808 1_555
O44 Si4 1.611025 1_555
O44 Ta0 1.917918 1_665
O45 Si5 1.663082 1_555
O45 Ta1 1.942211 1_665
O46 S4 1.516450 1_555
O46 Ta1 1.994227 1_655
O47 Si6 1.682786 1_555
O47 Ta1 1.870835 1_555
O48 Si2 1.645239 1_555
O49 Si1 1.639165 1_555
O50 S2 1.446035 1_655
O51 S1 1.495700 1_555
O52 Si0 1.655785 1_555
O53 S0 1.461865 1_555
O54 S5 1.528767 1_555
O55 S6 1.490193 1_655
O56 Si7 1.665609 1_545
O57 S7 1.463581 1_545
O58 S8 1.490444 1_555
O59 Si8 1.655852 1_655
O60 Si6 1.608340 1_555
O61 Si5 1.607204 1_455
O62 S4 1.447377 1_565
O63 Si3 1.658688 1_565
O63 Ta2 1.829441 1_555
O64 Si4 1.637360 1_555
O64 Ta2 1.889436 1_555
O65 S3 1.503390 1_455
O65 Ta2 1.981549 1_555
O66 S0 1.494620 1_565
O67 S1 1.468949 1_555
O68 Si0 1.631567 1_455
O69 Si1 1.613440 1_555
O70 S2 1.470203 1_555
O71 Si2 1.617179 1_565
