# generated using pymatgen
data_Na3HfZn(PO4)3
_symmetry_space_group_name_H-M   'P 1'
_cell_length_a   9.04507754
_cell_length_b   9.02851529
_cell_length_c   22.29785344
_cell_angle_alpha   89.99999999
_cell_angle_beta   90.11024633
_cell_angle_gamma   119.93944915
_symmetry_Int_Tables_number   1
_chemical_formula_structural   Na3HfZn(PO4)3
_chemical_formula_sum   'Na18 Hf6 Zn6 P18 O72'
_cell_volume   1577.92338050
_cell_formula_units_Z   6
loop_
 _symmetry_equiv_pos_site_id
 _symmetry_equiv_pos_as_xyz
  1  'x, y, z'
loop_
 _atom_site_type_symbol
 _atom_site_label
 _atom_site_symmetry_multiplicity
 _atom_site_fract_x
 _atom_site_fract_y
 _atom_site_fract_z
 _atom_site_occupancy
  Na  Na0  1  0.98178709  0.96570271  0.49023597  1
  Na  Na1  1  0.98178709  0.01608439  0.99023597  1
  Na  Na2  1  0.66652166  0.33829153  0.82337314  1
  Na  Na3  1  0.66652166  0.32822913  0.32337314  1
  Na  Na4  1  0.32815551  0.66138845  0.15671364  1
  Na  Na5  1  0.32815551  0.66676806  0.65671364  1
  Na  Na6  1  0.37340040  0.35908840  0.24459707  1
  Na  Na7  1  0.98316947  0.63090770  0.24480558  1
  Na  Na8  1  0.98316947  0.35226177  0.74480558  1
  Na  Na9  1  0.37340040  0.01431200  0.74459707  1
  Na  Na10  1  0.31237068  0.34998058  0.57809969  1
  Na  Na11  1  0.65321624  0.96213897  0.57826127  1
  Na  Na12  1  0.31237068  0.96238909  0.07809969  1
  Na  Na13  1  0.65321624  0.69107628  0.07826127  1
  Na  Na14  1  0.98054884  0.68556907  0.91099875  1
  Na  Na15  1  0.31919696  0.29418783  0.91187800  1
  Na  Na16  1  0.98054884  0.29498077  0.41099875  1
  Na  Na17  1  0.31919696  0.02501013  0.41187800  1
  Hf  Hf0  1  0.99753650  0.99254424  0.64846084  1
  Hf  Hf1  1  0.99753650  0.00499226  0.14846084  1
  Hf  Hf2  1  0.67154806  0.32785286  0.98169436  1
  Hf  Hf3  1  0.67154806  0.34369419  0.48169436  1
  Hf  Hf4  1  0.34226996  0.67293285  0.31510857  1
  Hf  Hf5  1  0.34226996  0.66933811  0.81510857  1
  Zn  Zn0  1  0.98933488  0.99308138  0.34716440  1
  Zn  Zn1  1  0.98933488  0.99625350  0.84716440  1
  Zn  Zn2  1  0.67063699  0.34382698  0.68052300  1
  Zn  Zn3  1  0.67063699  0.32680901  0.18052300  1
  Zn  Zn4  1  0.32948447  0.66043028  0.01402544  1
  Zn  Zn5  1  0.32948447  0.66905519  0.51402544  1
  P  P0  1  0.29581332  0.00142835  0.25229794  1
  P  P1  1  0.70445418  0.70346026  0.24967242  1
  P  P2  1  0.00056974  0.29851593  0.25517951  1
  P  P3  1  0.29581332  0.29438497  0.75229794  1
  P  P4  1  0.00056974  0.70205380  0.75517951  1
  P  P5  1  0.70445418  0.00099392  0.74967242  1
  P  P6  1  0.96473913  0.33373495  0.58640066  1
  P  P7  1  0.37228705  0.03852573  0.58563782  1
  P  P8  1  0.66413814  0.62905880  0.58547057  1
  P  P9  1  0.96473913  0.63100318  0.08640066  1
  P  P10  1  0.66413814  0.03507833  0.08547057  1
  P  P11  1  0.37228705  0.33376032  0.08563782  1
  P  P12  1  0.63208571  0.66800135  0.92212227  1
  P  P13  1  0.04068568  0.37243311  0.91624020  1
  P  P14  1  0.33453377  0.96391947  0.91909987  1
  P  P15  1  0.63208571  0.96408536  0.42212227  1
  P  P16  1  0.33453377  0.37061530  0.41909987  1
  P  P17  1  0.04068568  0.66825356  0.41624020  1
  O  O0  1  0.21411554  0.02468331  0.30898236  1
  O  O1  1  0.81819762  0.78854175  0.30338671  1
  O  O2  1  0.98504976  0.20468871  0.31368454  1
  O  O3  1  0.21411554  0.18943223  0.80898236  1
  O  O4  1  0.98504976  0.78036105  0.81368454  1
  O  O5  1  0.81819762  0.02965587  0.80338671  1
  O  O6  1  0.78828438  0.97861275  0.69139256  1
  O  O7  1  0.17701956  0.20254683  0.69658298  1
  O  O8  1  0.02202035  0.82344680  0.70128539  1
  O  O9  1  0.78828438  0.80967163  0.19139256  1
  O  O10  1  0.02202035  0.19857355  0.20128539  1
  O  O11  1  0.17701956  0.97447273  0.19658298  1
  O  O12  1  0.88242148  0.34854739  0.64399918  1
  O  O13  1  0.47623141  0.11965856  0.64254588  1
  O  O14  1  0.63537374  0.51914623  0.64025795  1
  O  O15  1  0.88242148  0.53387309  0.14399918  1
  O  O16  1  0.63537374  0.11622651  0.14025795  1
  O  O17  1  0.47623141  0.35657186  0.14254588  1
  O  O18  1  0.46504372  0.30693288  0.03026294  1
  O  O19  1  0.84882422  0.53656563  0.03054559  1
  O  O20  1  0.68723096  0.14634534  0.02853192  1
  O  O21  1  0.46504372  0.15810984  0.53026294  1
  O  O22  1  0.68723096  0.54088463  0.52853192  1
  O  O23  1  0.84882422  0.31225759  0.53054559  1
  O  O24  1  0.55559344  0.68532111  0.98030564  1
  O  O25  1  0.15273922  0.45665450  0.97034227  1
  O  O26  1  0.31376946  0.86016640  0.97550159  1
  O  O27  1  0.55559344  0.87027333  0.48030564  1
  O  O28  1  0.31376946  0.45360406  0.47550159  1
  O  O29  1  0.15273922  0.69608572  0.47034227  1
  O  O30  1  0.12538162  0.64047031  0.35872402  1
  O  O31  1  0.50978664  0.86671641  0.36804653  1
  O  O32  1  0.35232967  0.48126492  0.36244607  1
  O  O33  1  0.12538162  0.48491231  0.85872402  1
  O  O34  1  0.35232967  0.87106575  0.86244607  1
  O  O35  1  0.50978664  0.64307123  0.86804653  1
  O  O36  1  0.01607461  0.82335942  0.40940839  1
  O  O37  1  0.81470424  0.99796022  0.41383170  1
  O  O38  1  0.17858959  0.18889215  0.41398808  1
  O  O39  1  0.01607461  0.19271519  0.90940839  1
  O  O40  1  0.17858959  0.98969744  0.91398808  1
  O  O41  1  0.81470424  0.81674403  0.91383170  1
  O  O42  1  0.97125666  0.16090903  0.58727201  1
  O  O43  1  0.19504966  0.03192184  0.58870313  1
  O  O44  1  0.82959443  0.80977591  0.58857455  1
  O  O45  1  0.97125666  0.81034763  0.08727201  1
  O  O46  1  0.82959443  0.01981852  0.08857455  1
  O  O47  1  0.19504966  0.16312781  0.08870313  1
  O  O48  1  0.67577849  0.15531883  0.74491722  1
  O  O49  1  0.47254571  0.31426900  0.74495000  1
  O  O50  1  0.85299198  0.51893796  0.74753349  1
  O  O51  1  0.67577849  0.52045866  0.24491722  1
  O  O52  1  0.85299198  0.33405302  0.24753349  1
  O  O53  1  0.47254571  0.15827571  0.24495000  1
  O  O54  1  0.63930285  0.49564513  0.92215938  1
  O  O55  1  0.86495662  0.36859590  0.92114867  1
  O  O56  1  0.49793001  0.14663333  0.92082310  1
  O  O57  1  0.63930285  0.14365673  0.42215938  1
  O  O58  1  0.49793001  0.35129568  0.42082310  1
  O  O59  1  0.86495662  0.49635972  0.42114867  1
  O  O60  1  0.35056813  0.48975158  0.07830779  1
  O  O61  1  0.14767351  0.66633198  0.08001133  1
  O  O62  1  0.51014916  0.85330058  0.07919843  1
  O  O63  1  0.35056813  0.86081755  0.57830779  1
  O  O64  1  0.51014916  0.65684958  0.57919843  1
  O  O65  1  0.14767351  0.48134253  0.58001133  1
  O  O66  1  0.30253181  0.83085495  0.25512320  1
  O  O67  1  0.52336119  0.68680124  0.25456474  1
  O  O68  1  0.17374416  0.47669751  0.25459970  1
  O  O69  1  0.30253181  0.47167785  0.75512320  1
  O  O70  1  0.17374416  0.69704765  0.75459970  1
  O  O71  1  0.52336119  0.83656095  0.75456474  1
loop_
_geom_bond_atom_site_label_1
_geom_bond_atom_site_label_2
_geom_bond_distance
_geom_bond_site_symmetry_2
Na0 O36 2.322928 1_655
Na0 O37 2.387600 1_555
Na0 O38 2.559492 1_665
Na0 O44 2.600422 1_555
Na0 O43 2.780581 1_665
Na0 O42 2.822258 1_565
Na1 O39 2.322928 1_655
Na1 O41 2.387600 1_545
Na1 O40 2.559492 1_645
Na1 O46 2.600422 1_556
Na1 O47 2.780581 1_656
Na1 O45 2.822258 1_546
Na2 O50 2.372690 1_555
Na2 O49 2.406574 1_555
Na2 O48 2.436195 1_555
Na2 O54 2.698537 1_555
Na2 O56 2.723989 1_555
Na2 O55 2.746697 1_555
Na3 O52 2.372690 1_555
Na3 O53 2.406574 1_555
Na3 O51 2.436195 1_555
Na3 O57 2.698537 1_555
Na3 O58 2.723989 1_555
Na3 O59 2.746697 1_555
Na4 O61 2.377827 1_555
Na4 O60 2.411195 1_555
Na4 O62 2.421436 1_555
Na4 O68 2.679965 1_555
Na4 O67 2.740716 1_555
Na4 O66 2.750578 1_555
Na5 O65 2.377827 1_555
Na5 O63 2.411195 1_555
Na5 O64 2.421436 1_555
Na5 O70 2.679965 1_555
Na5 O71 2.740716 1_555
Na5 O69 2.750578 1_555
Na6 O51 2.371829 1_555
Na6 O53 2.390455 1_555
Na6 O17 2.464320 1_555
Na6 O68 2.520744 1_555
Na6 O67 2.576122 1_555
Na6 O32 2.893111 1_555
Na6 O10 2.919741 1_555
Na6 O0 2.986362 1_555
Na7 O52 2.328868 1_555
Na7 O15 2.417771 1_555
Na7 O51 2.440783 1_555
Na7 O66 2.539374 1_655
Na7 O68 2.711393 1_655
Na7 O30 2.826825 1_655
Na7 O1 2.843527 1_555
Na7 O11 2.903556 1_655
Na8 O50 2.328860 1_555
Na8 O12 2.417770 1_555
Na8 O48 2.440784 1_555
Na8 O69 2.539373 1_655
Na8 O70 2.711401 1_655
Na8 O33 2.826827 1_655
Na8 O5 2.843527 1_555
Na8 O7 2.903556 1_655
Na9 O48 2.371829 1_555
Na9 O49 2.390446 1_555
Na9 O13 2.464318 1_555
Na9 O70 2.520737 1_545
Na9 O71 2.576114 1_545
Na9 O34 2.893107 1_545
Na9 O8 2.919741 1_545
Na9 O3 2.986362 1_555
Na10 O65 2.321943 1_555
Na10 O64 2.435052 1_555
Na10 O28 2.469290 1_555
Na10 O43 2.527320 1_555
Na10 O42 2.687134 1_455
Na10 O14 2.884398 1_555
Na10 O21 2.905020 1_555
Na10 O7 2.938746 1_555
Na11 O27 2.345186 1_555
Na11 O64 2.389995 1_555
Na11 O63 2.414747 1_555
Na11 O42 2.526077 1_565
Na11 O44 2.584474 1_555
Na11 O6 2.772161 1_555
Na12 O61 2.321928 1_555
Na12 O62 2.435038 1_555
Na12 O26 2.469283 1_554
Na12 O47 2.527328 1_565
Na12 O45 2.687135 1_455
Na12 O16 2.884398 1_565
Na12 O18 2.905020 1_565
Na12 O11 2.938748 1_555
Na13 O24 2.345189 1_554
Na13 O62 2.390011 1_555
Na13 O60 2.414744 1_555
Na13 O45 2.526075 1_555
Na13 O46 2.584482 1_565
Na13 O9 2.772162 1_555
Na14 O4 2.325537 1_555
Na14 O41 2.330343 1_555
Na14 O40 2.417170 1_655
Na14 O55 2.519628 1_555
Na14 O54 2.692448 1_555
Na14 O33 2.954936 1_655
Na14 O19 2.957582 1_556
Na14 O26 2.979704 1_655
Na15 O40 2.384858 1_545
Na15 O39 2.419048 1_555
Na15 O3 2.481183 1_555
Na15 O54 2.546535 1_555
Na15 O56 2.564493 1_555
Na15 O25 2.886166 1_555
Na15 O35 2.904345 1_555
Na15 O18 2.925196 1_556
Na16 O2 2.325540 1_555
Na16 O37 2.330351 1_545
Na16 O38 2.417177 1_655
Na16 O59 2.519611 1_555
Na16 O57 2.692447 1_555
Na16 O30 2.954935 1_655
Na16 O23 2.957577 1_555
Na16 O28 2.979704 1_655
Na17 O38 2.384850 1_555
Na17 O36 2.419049 1_545
Na17 O0 2.481181 1_555
Na17 O57 2.546538 1_555
Na17 O58 2.564478 1_555
Na17 O29 2.886166 1_545
Na17 O31 2.904345 1_545
Na17 O21 2.925192 1_555
Hf0 O8 2.025763 1_655
Hf0 O6 2.069753 1_555
Hf0 O7 2.074285 1_665
Hf0 O44 2.074538 1_555
Hf0 O43 2.113931 1_665
Hf0 O42 2.141987 1_565
Hf1 O10 2.025763 1_655
Hf1 O9 2.069753 1_545
Hf1 O11 2.074285 1_645
Hf1 O46 2.074538 1_555
Hf1 O47 2.113931 1_655
Hf1 O45 2.141987 1_545
Hf2 O20 2.006936 1_556
Hf2 O19 2.070211 1_556
Hf2 O18 2.086385 1_556
Hf2 O55 2.094052 1_555
Hf2 O56 2.100587 1_555
Hf2 O54 2.140523 1_555
Hf3 O22 2.006936 1_555
Hf3 O23 2.070211 1_555
Hf3 O21 2.086385 1_555
Hf3 O59 2.094052 1_555
Hf3 O58 2.100587 1_555
Hf3 O57 2.140523 1_555
Hf4 O31 2.024158 1_555
Hf4 O32 2.067308 1_555
Hf4 O30 2.076942 1_555
Hf4 O67 2.079653 1_555
Hf4 O66 2.112067 1_555
Hf4 O68 2.139928 1_555
Hf5 O35 2.024158 1_555
Hf5 O34 2.067308 1_555
Hf5 O33 2.076942 1_555
Hf5 O71 2.079653 1_555
Hf5 O69 2.112067 1_555
Hf5 O70 2.139928 1_555
O0 P0 1.531717 1_555
O0 Zn0 2.089883 1_445
O1 P1 1.513097 1_555
O1 Zn0 1.974870 1_555
O2 P2 1.523529 1_655
O2 Zn0 2.069449 1_545
O3 P3 1.531717 1_555
O3 Zn1 2.089883 1_445
O4 P4 1.523529 1_655
O4 Zn1 2.069449 1_555
O5 P5 1.513097 1_555
O5 Zn1 1.974870 1_545
O6 P5 1.568836 1_565
O7 P3 1.578286 1_555
O8 P4 1.572143 1_555
O9 P1 1.568836 1_555
O10 P2 1.572143 1_555
O11 P0 1.578286 1_565
O12 P6 1.524738 1_555
O12 Zn2 2.063766 1_555
O13 P7 1.529271 1_555
O13 Zn2 2.085000 1_555
O14 P8 1.512733 1_555
O14 Zn2 1.978927 1_555
O15 P9 1.524738 1_555
O15 Zn3 2.063766 1_555
O16 P10 1.512733 1_555
O16 Zn3 1.978927 1_555
O17 P11 1.529271 1_555
O17 Zn3 2.085000 1_555
O18 P11 1.579236 1_555
O19 P9 1.574818 1_555
O20 P10 1.567253 1_555
O21 P7 1.579236 1_555
O22 P8 1.567253 1_555
O23 P6 1.574818 1_555
O24 P12 1.515833 1_555
O24 Zn4 2.084637 1_556
O25 P13 1.512208 1_555
O25 Zn4 1.986836 1_556
O26 P14 1.523056 1_555
O26 Zn4 2.065294 1_556
O27 P15 1.515833 1_555
O27 Zn5 2.084637 1_555
O28 P16 1.523056 1_555
O28 Zn5 2.065294 1_555
O29 P17 1.512208 1_555
O29 Zn5 1.986836 1_555
O30 P17 1.578027 1_555
O31 P15 1.573078 1_555
O32 P16 1.568441 1_555
O33 P13 1.578027 1_555
O34 P14 1.568441 1_555
O35 P12 1.573078 1_555
O36 P17 1.531289 1_555
O36 Zn0 2.168291 1_455
O37 P15 1.533970 1_555
O37 Zn0 2.187508 1_555
O38 P16 1.543964 1_555
O38 Zn0 2.290271 1_445
O39 P13 1.531298 1_555
O39 Zn1 2.168291 1_445
O40 P14 1.543958 1_555
O40 Zn1 2.290271 1_455
O41 P12 1.533967 1_555
O41 Zn1 2.187508 1_555
O42 P6 1.590721 1_555
O43 P7 1.575834 1_555
O44 P8 1.571275 1_555
O45 P9 1.590730 1_555
O46 P10 1.571270 1_555
O47 P11 1.575830 1_555
O48 P5 1.542886 1_555
O48 Zn2 2.244819 1_555
O49 P3 1.526112 1_555
O49 Zn2 2.208617 1_555
O50 P4 1.529863 1_655
O50 Zn2 2.200066 1_555
O51 P1 1.542894 1_555
O51 Zn3 2.244819 1_555
O52 P2 1.529857 1_655
O52 Zn3 2.200066 1_555
O53 P0 1.526108 1_555
O53 Zn3 2.208617 1_555
O54 P12 1.589708 1_555
O55 P13 1.576496 1_655
O56 P14 1.572657 1_545
O57 P15 1.589690 1_545
O58 P16 1.572668 1_555
O59 P17 1.576504 1_655
O60 P11 1.524747 1_555
O60 Zn4 2.181231 1_555
O61 P9 1.527749 1_455
O61 Zn4 2.229087 1_555
O62 P10 1.539668 1_565
O62 Zn4 2.228220 1_555
O63 P7 1.524729 1_565
O63 Zn5 2.181231 1_555
O64 P8 1.539679 1_555
O64 Zn5 2.228220 1_555
O65 P6 1.527755 1_455
O65 Zn5 2.229087 1_555
O66 P0 1.572494 1_565
O67 P1 1.572368 1_555
O68 P2 1.589498 1_555
O69 P3 1.572503 1_555
O70 P4 1.589493 1_555
O71 P5 1.572364 1_565
