# generated using pymatgen
data_MgMo2W(SeS2)2
_symmetry_space_group_name_H-M   'P 1'
_cell_length_a   6.46192000
_cell_length_b   6.46192970
_cell_length_c   59.27607400
_cell_angle_alpha   90.00006393
_cell_angle_beta   90.00000000
_cell_angle_gamma   120.00023553
_symmetry_Int_Tables_number   1
_chemical_formula_structural   MgMo2W(SeS2)2
_chemical_formula_sum   'Mg8 Mo16 W8 Se16 S32'
_cell_volume   2143.54615314
_cell_formula_units_Z   8
loop_
 _symmetry_equiv_pos_site_id
 _symmetry_equiv_pos_as_xyz
  1  'x, y, z'
loop_
 _atom_site_type_symbol
 _atom_site_label
 _atom_site_symmetry_multiplicity
 _atom_site_fract_x
 _atom_site_fract_y
 _atom_site_fract_z
 _atom_site_occupancy
  Mg  Mg0_0  1  0.49554400  0.00595850  0.42315050  1
  Mg  Mg0_1  1  0.49554400  0.00595850  0.92315050  1
  Mg  Mg0_2  1  0.49554400  0.50595850  0.42315050  1
  Mg  Mg0_3  1  0.49554400  0.50595850  0.92315050  1
  Mg  Mg0_4  1  0.99554400  0.00595850  0.42315050  1
  Mg  Mg0_5  1  0.99554400  0.00595850  0.92315050  1
  Mg  Mg0_6  1  0.99554400  0.50595850  0.42315050  1
  Mg  Mg0_7  1  0.99554400  0.50595850  0.92315050  1
  Mo  Mo0_0  1  0.16665500  0.33331200  0.05779650  1
  Mo  Mo0_1  1  0.16665500  0.33331200  0.55779650  1
  Mo  Mo0_2  1  0.16665500  0.83331200  0.05779650  1
  Mo  Mo0_3  1  0.16665500  0.83331200  0.55779650  1
  Mo  Mo0_4  1  0.66665500  0.33331200  0.05779650  1
  Mo  Mo0_5  1  0.66665500  0.33331200  0.55779650  1
  Mo  Mo0_6  1  0.66665500  0.83331200  0.05779650  1
  Mo  Mo0_7  1  0.66665500  0.83331200  0.55779650  1
  Mo  Mo1_0  1  0.16665550  0.33331250  0.28919100  1
  Mo  Mo1_1  1  0.16665550  0.33331250  0.78919100  1
  Mo  Mo1_2  1  0.16665550  0.83331250  0.28919100  1
  Mo  Mo1_3  1  0.16665550  0.83331250  0.78919100  1
  Mo  Mo1_4  1  0.66665550  0.33331250  0.28919100  1
  Mo  Mo1_5  1  0.66665550  0.33331250  0.78919100  1
  Mo  Mo1_6  1  0.66665550  0.83331250  0.28919100  1
  Mo  Mo1_7  1  0.66665550  0.83331250  0.78919100  1
  W  W0_0  1  0.33334300  0.16668800  0.17348750  1
  W  W0_1  1  0.33334300  0.16668800  0.67348750  1
  W  W0_2  1  0.33334300  0.66668800  0.17348750  1
  W  W0_3  1  0.33334300  0.66668800  0.67348750  1
  W  W0_4  1  0.83334300  0.16668800  0.17348750  1
  W  W0_5  1  0.83334300  0.16668800  0.67348750  1
  W  W0_6  1  0.83334300  0.66668800  0.17348750  1
  W  W0_7  1  0.83334300  0.66668800  0.67348750  1
  Se  Se0_0  1  0.16667550  0.33335250  0.20243900  1
  Se  Se0_1  1  0.16667550  0.33335250  0.70243900  1
  Se  Se0_2  1  0.16667550  0.83335250  0.20243900  1
  Se  Se0_3  1  0.16667550  0.83335250  0.70243900  1
  Se  Se0_4  1  0.66667550  0.33335250  0.20243900  1
  Se  Se0_5  1  0.66667550  0.33335250  0.70243900  1
  Se  Se0_6  1  0.66667550  0.83335250  0.20243900  1
  Se  Se0_7  1  0.66667550  0.83335250  0.70243900  1
  Se  Se1_0  1  0.16667550  0.33335300  0.14453150  1
  Se  Se1_1  1  0.16667550  0.33335300  0.64453150  1
  Se  Se1_2  1  0.16667550  0.83335300  0.14453150  1
  Se  Se1_3  1  0.16667550  0.83335300  0.64453150  1
  Se  Se1_4  1  0.66667550  0.33335300  0.14453150  1
  Se  Se1_5  1  0.66667550  0.33335300  0.64453150  1
  Se  Se1_6  1  0.66667550  0.83335300  0.14453150  1
  Se  Se1_7  1  0.66667550  0.83335300  0.64453150  1
  S  S0_0  1  0.33331850  0.16663750  0.03166850  1
  S  S0_1  1  0.33331850  0.16663750  0.53166850  1
  S  S0_2  1  0.33331850  0.66663750  0.03166850  1
  S  S0_3  1  0.33331850  0.66663750  0.53166850  1
  S  S0_4  1  0.83331850  0.16663750  0.03166850  1
  S  S0_5  1  0.83331850  0.16663750  0.53166850  1
  S  S0_6  1  0.83331850  0.66663750  0.03166850  1
  S  S0_7  1  0.83331850  0.66663750  0.53166850  1
  S  S1_0  1  0.33332300  0.16664700  0.26299450  1
  S  S1_1  1  0.33332300  0.16664700  0.76299450  1
  S  S1_2  1  0.33332300  0.66664700  0.26299450  1
  S  S1_3  1  0.33332300  0.66664700  0.76299450  1
  S  S1_4  1  0.83332300  0.16664700  0.26299450  1
  S  S1_5  1  0.83332300  0.16664700  0.76299450  1
  S  S1_6  1  0.83332300  0.66664700  0.26299450  1
  S  S1_7  1  0.83332300  0.66664700  0.76299450  1
  S  S2_0  1  0.33332350  0.16664700  0.08395750  1
  S  S2_1  1  0.33332350  0.16664700  0.58395750  1
  S  S2_2  1  0.33332350  0.66664700  0.08395750  1
  S  S2_3  1  0.33332350  0.66664700  0.58395750  1
  S  S2_4  1  0.83332350  0.16664700  0.08395750  1
  S  S2_5  1  0.83332350  0.16664700  0.58395750  1
  S  S2_6  1  0.83332350  0.66664700  0.08395750  1
  S  S2_7  1  0.83332350  0.66664700  0.58395750  1
  S  S3_0  1  0.33332250  0.16664550  0.31535400  1
  S  S3_1  1  0.33332250  0.16664550  0.81535400  1
  S  S3_2  1  0.33332250  0.66664550  0.31535400  1
  S  S3_3  1  0.33332250  0.66664550  0.81535400  1
  S  S3_4  1  0.83332250  0.16664550  0.31535400  1
  S  S3_5  1  0.83332250  0.16664550  0.81535400  1
  S  S3_6  1  0.83332250  0.66664550  0.31535400  1
  S  S3_7  1  0.83332250  0.66664550  0.81535400  1
loop_
_geom_bond_atom_site_label_1
_geom_bond_atom_site_label_2
_geom_bond_distance
_geom_bond_site_symmetry_2
Mg0_0 Mg0_6 3.230951 1_445
Mg0_0 Mg0_6 3.230951 1_555
Mg0_0 Mg0_4 3.230960 1_555
Mg0_0 Mg0_4 3.230960 1_455
Mg0_0 Mg0_2 3.230965 1_545
Mg0_0 Mg0_2 3.230965 1_555
Mg0_1 Mg0_7 3.230951 1_445
Mg0_1 Mg0_7 3.230951 1_555
Mg0_1 Mg0_5 3.230960 1_555
Mg0_1 Mg0_5 3.230960 1_455
Mg0_1 Mg0_3 3.230965 1_555
Mg0_1 Mg0_3 3.230965 1_545
Mg0_2 Mg0_4 3.230951 1_565
Mg0_2 Mg0_4 3.230951 1_455
Mg0_2 Mg0_6 3.230960 1_455
Mg0_2 Mg0_6 3.230960 1_555
Mg0_3 Mg0_5 3.230951 1_565
Mg0_3 Mg0_5 3.230951 1_455
Mg0_3 Mg0_7 3.230960 1_455
Mg0_3 Mg0_7 3.230960 1_555
Mg0_4 Mg0_6 3.230965 1_545
Mg0_4 Mg0_6 3.230965 1_555
Mg0_5 Mg0_7 3.230965 1_555
Mg0_5 Mg0_7 3.230965 1_545
Mo0_0 S0_2 2.424503 1_555
Mo0_0 S0_4 2.424545 1_455
Mo0_0 S0_0 2.424558 1_555
Mo0_0 S2_4 2.425775 1_455
Mo0_0 S2_0 2.425790 1_555
Mo0_0 S2_2 2.425790 1_555
Mo0_1 S0_3 2.424503 1_555
Mo0_1 S0_5 2.424545 1_455
Mo0_1 S0_1 2.424558 1_555
Mo0_1 S2_5 2.425775 1_455
Mo0_1 S2_1 2.425790 1_555
Mo0_1 S2_3 2.425790 1_555
Mo0_2 S0_0 2.424503 1_565
Mo0_2 S0_6 2.424545 1_455
Mo0_2 S0_2 2.424558 1_555
Mo0_2 S2_6 2.425775 1_455
Mo0_2 S2_2 2.425790 1_555
Mo0_2 S2_0 2.425790 1_565
Mo0_3 S0_1 2.424503 1_565
Mo0_3 S0_7 2.424545 1_455
Mo0_3 S0_3 2.424558 1_555
Mo0_3 S2_7 2.425775 1_455
Mo0_3 S2_3 2.425790 1_555
Mo0_3 S2_1 2.425790 1_565
Mo0_4 S0_6 2.424503 1_555
Mo0_4 S0_0 2.424545 1_555
Mo0_4 S0_4 2.424558 1_555
Mo0_4 S2_0 2.425775 1_555
Mo0_4 S2_4 2.425790 1_555
Mo0_4 S2_6 2.425790 1_555
Mo0_5 S0_7 2.424503 1_555
Mo0_5 S0_1 2.424545 1_555
Mo0_5 S0_5 2.424558 1_555
Mo0_5 S2_1 2.425775 1_555
Mo0_5 S2_5 2.425790 1_555
Mo0_5 S2_7 2.425790 1_555
Mo0_6 S0_4 2.424503 1_565
Mo0_6 S0_2 2.424545 1_555
Mo0_6 S0_6 2.424558 1_555
Mo0_6 S2_2 2.425775 1_555
Mo0_6 S2_6 2.425790 1_555
Mo0_6 S2_4 2.425790 1_565
Mo0_7 S0_5 2.424503 1_565
Mo0_7 S0_3 2.424545 1_555
Mo0_7 S0_7 2.424558 1_555
Mo0_7 S2_3 2.425775 1_555
Mo0_7 S2_7 2.425790 1_555
Mo0_7 S2_5 2.425790 1_565
Mo1_0 S3_2 2.425858 1_555
Mo1_0 S3_4 2.425858 1_455
Mo1_0 S3_0 2.425868 1_555
Mo1_0 S1_4 2.427124 1_455
Mo1_0 S1_0 2.427132 1_555
Mo1_0 S1_2 2.427137 1_555
Mo1_1 S3_3 2.425858 1_555
Mo1_1 S3_5 2.425858 1_455
Mo1_1 S3_1 2.425868 1_555
Mo1_1 S1_5 2.427124 1_455
Mo1_1 S1_1 2.427132 1_555
Mo1_1 S1_3 2.427137 1_555
Mo1_2 S3_0 2.425858 1_565
Mo1_2 S3_6 2.425858 1_455
Mo1_2 S3_2 2.425868 1_555
Mo1_2 S1_6 2.427124 1_455
Mo1_2 S1_2 2.427132 1_555
Mo1_2 S1_0 2.427137 1_565
Mo1_3 S3_1 2.425858 1_565
Mo1_3 S3_7 2.425858 1_455
Mo1_3 S3_3 2.425868 1_555
Mo1_3 S1_7 2.427124 1_455
Mo1_3 S1_3 2.427132 1_555
Mo1_3 S1_1 2.427137 1_565
Mo1_4 S3_6 2.425858 1_555
Mo1_4 S3_0 2.425858 1_555
Mo1_4 S3_4 2.425868 1_555
Mo1_4 S1_0 2.427124 1_555
Mo1_4 S1_4 2.427132 1_555
Mo1_4 S1_6 2.427137 1_555
Mo1_5 S3_7 2.425858 1_555
Mo1_5 S3_1 2.425858 1_555
Mo1_5 S3_5 2.425868 1_555
Mo1_5 S1_1 2.427124 1_555
Mo1_5 S1_5 2.427132 1_555
Mo1_5 S1_7 2.427137 1_555
Mo1_6 S3_4 2.425858 1_565
Mo1_6 S3_2 2.425858 1_555
Mo1_6 S3_6 2.425868 1_555
Mo1_6 S1_2 2.427124 1_555
Mo1_6 S1_6 2.427132 1_555
Mo1_6 S1_4 2.427137 1_565
Mo1_7 S3_5 2.425858 1_565
Mo1_7 S3_3 2.425858 1_555
Mo1_7 S3_7 2.425868 1_555
Mo1_7 S1_3 2.427124 1_555
Mo1_7 S1_7 2.427132 1_555
Mo1_7 S1_5 2.427137 1_565
Se0_0 W0_4 2.534713 1_455
Se0_0 W0_0 2.534717 1_555
Se0_0 W0_2 2.534730 1_555
Se0_1 W0_5 2.534713 1_455
Se0_1 W0_1 2.534717 1_555
Se0_1 W0_3 2.534730 1_555
Se0_2 W0_6 2.534713 1_455
Se0_2 W0_2 2.534717 1_555
Se0_2 W0_0 2.534730 1_565
Se0_3 W0_7 2.534713 1_455
Se0_3 W0_3 2.534717 1_555
Se0_3 W0_1 2.534730 1_565
Se0_4 W0_0 2.534713 1_555
Se0_4 W0_4 2.534717 1_555
Se0_4 W0_6 2.534730 1_555
Se0_5 W0_1 2.534713 1_555
Se0_5 W0_5 2.534717 1_555
Se0_5 W0_7 2.534730 1_555
Se0_6 W0_2 2.534713 1_555
Se0_6 W0_6 2.534717 1_555
Se0_6 W0_4 2.534730 1_565
Se0_7 W0_3 2.534713 1_555
Se0_7 W0_7 2.534717 1_555
Se0_7 W0_5 2.534730 1_565
Se1_0 W0_4 2.534895 1_455
Se1_0 W0_0 2.534901 1_555
Se1_0 W0_2 2.534905 1_555
Se1_1 W0_5 2.534895 1_455
Se1_1 W0_1 2.534901 1_555
Se1_1 W0_3 2.534905 1_555
Se1_2 W0_6 2.534895 1_455
Se1_2 W0_2 2.534901 1_555
Se1_2 W0_0 2.534905 1_565
Se1_3 W0_7 2.534895 1_455
Se1_3 W0_3 2.534901 1_555
Se1_3 W0_1 2.534905 1_565
Se1_4 W0_0 2.534895 1_555
Se1_4 W0_4 2.534901 1_555
Se1_4 W0_6 2.534905 1_555
Se1_5 W0_1 2.534895 1_555
Se1_5 W0_5 2.534901 1_555
Se1_5 W0_7 2.534905 1_555
Se1_6 W0_2 2.534895 1_555
Se1_6 W0_6 2.534901 1_555
Se1_6 W0_4 2.534905 1_565
Se1_7 W0_3 2.534895 1_555
Se1_7 W0_7 2.534901 1_555
Se1_7 W0_5 2.534905 1_565
