# generated using pymatgen
data_NbTeBr3
_symmetry_space_group_name_H-M   'P 1'
_cell_length_a   7.40403755
_cell_length_b   6.86569444
_cell_length_c   12.76672338
_cell_angle_alpha   82.25461189
_cell_angle_beta   90.00000000
_cell_angle_gamma   90.00000000
_symmetry_Int_Tables_number   1
_chemical_formula_structural   NbTeBr3
_chemical_formula_sum   'Nb4 Te4 Br12'
_cell_volume   643.06099711
_cell_formula_units_Z   4
loop_
 _symmetry_equiv_pos_site_id
 _symmetry_equiv_pos_as_xyz
  1  'x, y, z'
loop_
 _atom_site_type_symbol
 _atom_site_label
 _atom_site_symmetry_multiplicity
 _atom_site_fract_x
 _atom_site_fract_y
 _atom_site_fract_z
 _atom_site_occupancy
  Nb  Nb0  1  0.35988922  0.06846272  0.35169949  1
  Nb  Nb1  1  0.35988922  0.93153728  0.14830051  1
  Nb  Nb2  1  0.64011078  0.93153728  0.64830051  1
  Nb  Nb3  1  0.64011078  0.06846272  0.85169949  1
  Te  Te0  1  0.08259642  0.81796394  0.30411256  1
  Te  Te1  1  0.08259642  0.18203606  0.19588744  1
  Te  Te2  1  0.91740358  0.18203606  0.69588744  1
  Te  Te3  1  0.91740358  0.81796394  0.80411256  1
  Br  Br0  1  0.67579359  0.85394819  0.04314176  1
  Br  Br1  1  0.67579359  0.14605181  0.45685824  1
  Br  Br2  1  0.32420641  0.14605181  0.95685824  1
  Br  Br3  1  0.32420641  0.85394819  0.54314176  1
  Br  Br4  1  0.77028824  0.35876766  0.93300530  1
  Br  Br5  1  0.77028824  0.64123234  0.56699470  1
  Br  Br6  1  0.22971176  0.64123234  0.06699470  1
  Br  Br7  1  0.22971176  0.35876766  0.43300530  1
  Br  Br8  1  0.44733899  0.24543324  0.69704406  1
  Br  Br9  1  0.44733899  0.75456676  0.80295594  1
  Br  Br10  1  0.55266101  0.75456676  0.30295594  1
  Br  Br11  1  0.55266101  0.24543324  0.19704406  1
loop_
_geom_bond_atom_site_label_1
_geom_bond_atom_site_label_2
_geom_bond_distance
_geom_bond_site_symmetry_2
Nb0 Te0 2.797100 1_545
Nb0 Te1 2.891722 1_555
Nb1 Te1 2.797100 1_565
Nb1 Te0 2.891722 1_555
Nb2 Te2 2.797100 1_565
Nb2 Te3 2.891722 1_555
Nb3 Te3 2.797100 1_545
Nb3 Te2 2.891722 1_555
Te0 Te1 2.688154 1_565
Te2 Te3 2.688154 1_545
Br0 Nb3 2.691141 1_564
Br0 Nb1 2.783829 1_555
Br1 Nb2 2.691141 1_545
Br1 Nb0 2.783829 1_555
Br2 Nb1 2.691141 1_546
Br2 Nb3 2.783829 1_555
Br3 Nb0 2.691141 1_565
Br3 Nb2 2.783829 1_555
Br4 Nb3 2.556703 1_555
Br5 Nb2 2.556703 1_555
Br6 Nb1 2.556703 1_555
Br7 Nb0 2.556703 1_555
Br8 Nb3 2.601007 1_555
Br8 Nb2 2.725878 1_545
Br9 Nb2 2.601007 1_555
Br9 Nb3 2.725878 1_565
Br10 Nb1 2.601007 1_555
Br10 Nb0 2.725878 1_565
Br11 Nb0 2.601007 1_555
Br11 Nb1 2.725878 1_545
