# generated using pymatgen
data_Na4ZnSi3Ge3(SO8)3
_symmetry_space_group_name_H-M   'P 1'
_cell_length_a   8.72112628
_cell_length_b   8.69644472
_cell_length_c   22.03144192
_cell_angle_alpha   89.49419388
_cell_angle_beta   91.54462847
_cell_angle_gamma   119.91115323
_symmetry_Int_Tables_number   1
_chemical_formula_structural   Na4ZnSi3Ge3(SO8)3
_chemical_formula_sum   'Na12 Zn3 Si9 Ge9 S9 O72'
_cell_volume   1447.81140838
_cell_formula_units_Z   3
loop_
 _symmetry_equiv_pos_site_id
 _symmetry_equiv_pos_as_xyz
  1  'x, y, z'
loop_
 _atom_site_type_symbol
 _atom_site_label
 _atom_site_symmetry_multiplicity
 _atom_site_fract_x
 _atom_site_fract_y
 _atom_site_fract_z
 _atom_site_occupancy
  Na  Na0  1  0.63716828  0.00638817  0.24027485  1
  Na  Na1  1  0.37357567  0.35495643  0.25072943  1
  Na  Na2  1  0.98458372  0.63093819  0.24790846  1
  Na  Na3  1  0.99217325  0.36609399  0.75528399  1
  Na  Na4  1  0.38298041  0.01197206  0.75801928  1
  Na  Na5  1  0.71039907  0.67880387  0.40557823  1
  Na  Na6  1  0.01168661  0.02524418  0.49446625  1
  Na  Na7  1  0.00447042  0.00854124  0.00056553  1
  Na  Na8  1  0.65825462  0.33790778  0.83507154  1
  Na  Na9  1  0.64710672  0.31348845  0.32816568  1
  Na  Na10  1  0.34595953  0.67945819  0.16012010  1
  Na  Na11  1  0.35502007  0.66357063  0.66870162  1
  Zn  Zn0  1  0.00399841  0.00588739  0.35583924  1
  Zn  Zn1  1  0.65500966  0.32098553  0.68829129  1
  Zn  Zn2  1  0.64336169  0.30972687  0.17871175  1
  Si  Si0  1  0.27925778  -0.00683025  0.25199936  1
  Si  Si1  1  0.70877597  0.70441606  0.25306997  1
  Si  Si2  1  0.29225727  0.29869468  0.75188924  1
  Si  Si3  1  0.71111423  0.98674006  0.75540244  1
  Si  Si4  1  0.66931946  0.02714723  0.08404157  1
  Si  Si5  1  0.05126929  0.39514118  0.91760782  1
  Si  Si6  1  0.32691605  0.95429541  0.91481047  1
  Si  Si7  1  0.62415615  0.96165262  0.41905757  1
  Si  Si8  1  0.32780477  0.37965221  0.41802119  1
  Ge  Ge0  1  0.03049246  0.04553405  0.85915495  1
  Ge  Ge1  1  0.98212283  0.00925038  0.65542456  1
  Ge  Ge2  1  0.97692985  0.97389472  0.14918584  1
  Ge  Ge3  1  0.67417098  0.30287370  0.97664037  1
  Ge  Ge4  1  0.64879439  0.31941909  0.47570266  1
  Ge  Ge5  1  0.33203298  0.67870886  0.01641800  1
  Ge  Ge6  1  0.34471329  0.66495649  0.51373935  1
  Ge  Ge7  1  0.36358390  0.68892137  0.31261646  1
  Ge  Ge8  1  0.34562032  0.66795937  0.81837808  1
  S  S0  1  0.00697254  0.29421197  0.24949158  1
  S  S1  1  0.00081765  0.72102070  0.74860823  1
  S  S2  1  0.96316983  0.33770177  0.58351322  1
  S  S3  1  0.36235129  0.02714335  0.58170505  1
  S  S4  1  0.67126945  0.63300588  0.58260186  1
  S  S5  1  0.95840224  0.62260170  0.08133050  1
  S  S6  1  0.37059686  0.33420212  0.07944040  1
  S  S7  1  0.62582438  0.66506409  0.91939342  1
  S  S8  1  0.04471729  0.65610041  0.42113784  1
  O  O0  1  0.20728200  0.05076159  0.30746414  1
  O  O1  1  0.82126183  0.77766336  0.31519133  1
  O  O2  1  0.96530913  0.18646257  0.30430575  1
  O  O3  1  0.21033820  0.16514238  0.80946808  1
  O  O4  1  0.97838717  0.79995185  0.80281234  1
  O  O5  1  0.85126574  0.02451400  0.81138067  1
  O  O6  1  0.77941656  0.94396798  0.69060962  1
  O  O7  1  0.15158362  0.20837394  0.69119836  1
  O  O8  1  0.03472620  0.83779626  0.69156111  1
  O  O9  1  0.79018126  0.84268123  0.19492596  1
  O  O10  1  0.04077487  0.21348977  0.19508700  1
  O  O11  1  0.14810344  0.95173951  0.18859662  1
  O  O12  1  0.88786883  0.35676509  0.63977537  1
  O  O13  1  0.46791932  0.09971866  0.63809305  1
  O  O14  1  0.65193682  0.52599198  0.63605485  1
  O  O15  1  0.88644118  0.53178302  0.13861233  1
  O  O16  1  0.63208015  0.09556395  0.14550795  1
  O  O17  1  0.46658596  0.36487721  0.13851065  1
  O  O18  1  0.46657388  0.31416305  0.02764824  1
  O  O19  1  0.84290522  0.53248952  0.02698391  1
  O  O20  1  0.70736048  0.15864601  0.02475959  1
  O  O21  1  0.45047033  0.14535149  0.52783620  1
  O  O22  1  0.69071749  0.55201577  0.52557478  1
  O  O23  1  0.84798687  0.31496284  0.52862153  1
  O  O24  1  0.54139652  0.69782681  0.97097297  1
  O  O25  1  0.18076897  0.48337215  0.97599973  1
  O  O26  1  0.29718153  0.83569510  0.97450842  1
  O  O27  1  0.52547622  0.83735058  0.47805241  1
  O  O28  1  0.30119763  0.46499229  0.48083489  1
  O  O29  1  0.15218449  0.67749964  0.47837679  1
  O  O30  1  0.11959805  0.62818453  0.36624190  1
  O  O31  1  0.50339947  0.88578038  0.35588393  1
  O  O32  1  0.37527803  0.51707901  0.35908858  1
  O  O33  1  0.13558023  0.50669233  0.85435652  1
  O  O34  1  0.36720840  0.87124272  0.85374109  1
  O  O35  1  0.51320223  0.62731497  0.86114761  1
  O  O36  1  0.02372402  0.81176042  0.42100378  1
  O  O37  1  0.80978954  0.96991160  0.41823277  1
  O  O38  1  0.16868023  0.18526724  0.41621657  1
  O  O39  1  0.02812953  0.19487358  0.91441648  1
  O  O40  1  0.14218468  0.96380768  0.90849221  1
  O  O41  1  0.79983893  0.82312414  0.91255776  1
  O  O42  1  0.97700737  0.16901860  0.58484497  1
  O  O43  1  0.18506860  0.01117464  0.58477090  1
  O  O44  1  0.83396243  0.81562440  0.58578388  1
  O  O45  1  0.97890609  0.80521208  0.08188500  1
  O  O46  1  0.85498628  0.01445411  0.08928991  1
  O  O47  1  0.19407478  0.17148792  0.08203435  1
  O  O48  1  0.69864444  0.16658596  0.74914422  1
  O  O49  1  0.48072590  0.31365171  0.74452071  1
  O  O50  1  0.84860989  0.54192561  0.74011199  1
  O  O51  1  0.68042164  0.50914816  0.24140808  1
  O  O52  1  0.85954057  0.32950351  0.23961967  1
  O  O53  1  0.48092080  0.15060577  0.24513020  1
  O  O54  1  0.63824992  0.50232491  0.92569021  1
  O  O55  1  0.85296714  0.37453426  0.92264811  1
  O  O56  1  0.50208676  0.15671667  0.92218238  1
  O  O57  1  0.63574417  0.15643931  0.42570299  1
  O  O58  1  0.52589229  0.38640634  0.42531848  1
  O  O59  1  0.86392000  0.49117976  0.42641139  1
  O  O60  1  0.34991007  0.49490950  0.07306855  1
  O  O61  1  0.13869756  0.64127114  0.07658915  1
  O  O62  1  0.49296589  0.82805827  0.07152613  1
  O  O63  1  0.34268422  0.84487977  0.57458436  1
  O  O64  1  0.50654762  0.65221497  0.57932396  1
  O  O65  1  0.14358332  0.49698141  0.57844731  1
  O  O66  1  0.28087993  0.79925806  0.25862674  1
  O  O67  1  0.51084577  0.69395860  0.25407571  1
  O  O68  1  0.17523193  0.47015857  0.25586222  1
  O  O69  1  0.29216117  0.48669105  0.75901308  1
  O  O70  1  0.16661372  0.70865165  0.74949277  1
  O  O71  1  0.51058580  0.81484987  0.76074642  1
loop_
_geom_bond_atom_site_label_1
_geom_bond_atom_site_label_2
_geom_bond_distance
_geom_bond_site_symmetry_2
Na0 O16 2.227835 1_555
Na0 O53 2.270658 1_555
Na0 O67 2.388850 1_545
Na0 O52 2.494608 1_555
Na0 O9 2.607196 1_545
Na0 O66 2.745162 1_545
Na0 O31 2.800211 1_545
Na0 O2 2.825590 1_555
Na1 O51 2.333986 1_555
Na1 O53 2.391468 1_555
Na1 O68 2.397811 1_555
Na1 O67 2.570838 1_555
Na1 O17 2.610066 1_555
Na1 O0 2.622395 1_555
Na1 O10 2.777399 1_555
Na1 O32 2.779189 1_555
Na2 O66 2.253124 1_655
Na2 O52 2.289338 1_555
Na2 O51 2.314951 1_555
Na2 O15 2.542411 1_555
Na2 O68 2.654928 1_655
Na2 O11 2.755478 1_655
Na2 O1 2.795360 1_555
Na2 O30 2.836423 1_655
Na3 O48 2.266630 1_555
Na3 O69 2.281408 1_655
Na3 O50 2.428017 1_555
Na3 O33 2.489632 1_655
Na3 O70 2.586349 1_655
Na3 O12 2.667473 1_555
Na3 O7 2.801653 1_655
Na3 O5 2.870205 1_555
Na4 O49 2.338277 1_555
Na4 O70 2.362100 1_545
Na4 O48 2.399501 1_555
Na4 O34 2.401315 1_545
Na4 O71 2.465351 1_545
Na4 O3 2.728534 1_555
Na4 O13 2.760099 1_555
Na5 O1 2.209976 1_555
Na5 O37 2.247002 1_555
Na5 O58 2.276362 1_555
Na5 O36 2.392713 1_655
Na5 O59 2.607288 1_555
Na5 O32 2.708044 1_555
Na5 O22 2.831711 1_555
Na6 O38 2.228879 1_555
Na6 O37 2.272121 1_445
Na6 O42 2.464369 1_455
Na6 O43 2.505531 1_555
Na6 O36 2.516719 1_545
Na6 O44 2.656791 1_445
Na7 O47 2.347745 1_555
Na7 O46 2.393568 1_455
Na7 O39 2.429832 1_554
Na7 O45 2.441023 1_445
Na7 O40 2.513939 1_544
Na7 O41 2.557957 1_444
Na8 O49 2.436527 1_555
Na8 O56 2.443008 1_555
Na8 O55 2.450012 1_555
Na8 O54 2.525611 1_555
Na8 O48 2.556723 1_555
Na8 O50 2.732202 1_555
Na9 O53 2.304138 1_555
Na9 O51 2.472361 1_555
Na9 O57 2.513474 1_555
Na9 O58 2.629736 1_555
Na9 O52 2.681431 1_555
Na9 O59 2.751840 1_555
Na10 O62 2.358274 1_555
Na10 O61 2.448893 1_555
Na10 O67 2.455977 1_555
Na10 O60 2.523535 1_555
Na10 O66 2.610278 1_555
Na10 O68 2.716235 1_555
Na11 O69 2.406098 1_555
Na11 O71 2.408825 1_555
Na11 O64 2.430512 1_555
Na11 O65 2.577180 1_555
Na11 O70 2.614224 1_555
Na11 O63 2.626154 1_555
Ge0 O3 1.784853 1_555
Ge0 O5 1.792804 1_455
Ge0 O39 1.795926 1_555
Ge0 O40 1.804218 1_545
Ge0 O4 2.314526 1_445
Ge0 O41 2.319226 1_445
Ge1 O6 1.764537 1_545
Ge1 O7 1.792476 1_655
Ge1 O8 1.925889 1_645
Ge1 O42 2.090534 1_555
Ge1 O44 2.151237 1_545
Ge1 O43 2.382104 1_655
Ge2 O9 1.784613 1_555
Ge2 O11 1.798215 1_655
Ge2 O46 1.813001 1_565
Ge2 O45 2.101358 1_555
Ge2 O10 2.126966 1_665
Ge2 O47 2.364013 1_665
Ge3 O20 1.761508 1_556
Ge3 O56 1.826140 1_555
Ge3 O55 1.830996 1_555
Ge3 O19 2.098472 1_556
Ge3 O18 2.199831 1_556
Ge3 O54 2.203472 1_555
Ge4 O57 1.759316 1_555
Ge4 O58 1.807640 1_555
Ge4 O21 2.016800 1_555
Ge4 O59 2.053457 1_555
Ge4 O23 2.082243 1_555
Ge4 O22 2.170835 1_555
Ge5 O25 1.774078 1_554
Ge5 O26 1.784713 1_554
Ge5 O62 1.802444 1_555
Ge5 O24 2.038825 1_554
Ge5 O61 2.066812 1_555
Ge5 O60 2.083207 1_555
Ge6 O27 1.743542 1_555
Ge6 O28 1.744374 1_555
Ge6 O29 1.883822 1_555
Ge6 O64 2.033536 1_555
Ge6 O63 2.076403 1_555
Ge6 O65 2.187612 1_555
Ge7 O31 1.791817 1_555
Ge7 O67 1.829462 1_555
Ge7 O32 1.846972 1_555
Ge7 O66 1.865371 1_555
Ge7 O68 2.166950 1_555
Ge7 O30 2.281686 1_555
Ge8 O33 1.856657 1_555
Ge8 O34 1.858003 1_555
Ge8 O71 1.884346 1_555
Ge8 O35 1.893114 1_555
Ge8 O69 1.919249 1_555
Ge8 O70 2.297691 1_555
O0 Si0 1.582331 1_555
O0 Zn0 1.958502 1_555
O1 Si1 1.600329 1_555
O1 Zn0 2.020115 1_665
O2 S0 1.460330 1_655
O2 Zn0 2.084521 1_655
O3 Si2 1.632131 1_555
O4 S1 1.447938 1_655
O5 Si3 1.627362 1_545
O6 Si3 1.675432 1_555
O7 Si2 1.696760 1_555
O8 S1 1.548023 1_555
O9 Si1 1.661703 1_555
O10 S0 1.502220 1_555
O11 Si0 1.703252 1_565
O12 S2 1.466729 1_555
O12 Zn1 2.200999 1_555
O13 S3 1.470367 1_555
O13 Zn1 2.096926 1_555
O14 S4 1.454729 1_555
O14 Zn1 2.124475 1_555
O15 S5 1.463235 1_555
O15 Zn2 2.234227 1_555
O16 Si4 1.588699 1_555
O16 Zn2 1.962391 1_555
O17 S6 1.479961 1_555
O17 Zn2 2.011857 1_555
O18 S6 1.494480 1_555
O19 S5 1.492188 1_555
O20 Si4 1.655974 1_555
O21 S3 1.515128 1_555
O22 S4 1.499869 1_555
O23 S2 1.500436 1_555
O24 S7 1.474692 1_555
O25 Si5 1.610615 1_555
O26 Si6 1.608901 1_555
O27 Si7 1.645050 1_555
O28 Si8 1.651347 1_555
O29 S8 1.506580 1_555
O30 S8 1.467657 1_555
O31 Si7 1.650988 1_555
O32 Si8 1.671409 1_555
O33 Si5 1.656386 1_555
O34 Si6 1.658654 1_555
O35 S7 1.528755 1_555
O36 S8 1.453642 1_555
O36 Zn0 2.274718 1_565
O37 Si7 1.584938 1_555
O37 Zn0 2.108458 1_665
O38 Si8 1.563220 1_555
O38 Zn0 1.991193 1_555
O39 Si5 1.652202 1_555
O40 Si6 1.656011 1_555
O41 S7 1.464053 1_555
O42 S2 1.530670 1_555
O43 S3 1.485133 1_555
O44 S4 1.513132 1_555
O45 S5 1.507010 1_555
O46 Si4 1.677909 1_555
O47 S6 1.485370 1_555
O48 Si3 1.625426 1_545
O48 Zn1 2.048281 1_555
O49 Si2 1.595518 1_555
O49 Zn1 1.962758 1_555
O50 S1 1.467217 1_655
O50 Zn1 2.131984 1_555
O51 Si1 1.611309 1_555
O51 Zn2 2.116432 1_555
O52 S0 1.473775 1_655
O52 Zn2 2.220134 1_555
O53 Si0 1.612384 1_555
O53 Zn2 2.045471 1_555
O54 S7 1.477363 1_555
O55 Si5 1.654160 1_655
O56 Si6 1.663929 1_545
O57 Si7 1.653472 1_545
O58 Si8 1.702266 1_555
O59 S8 1.519291 1_655
O60 S6 1.500709 1_555
O61 S5 1.504526 1_455
O62 Si4 1.664026 1_565
O63 S3 1.515982 1_565
O64 S4 1.526549 1_555
O65 S2 1.496636 1_455
O66 Si0 1.698412 1_565
O67 Si1 1.683420 1_555
O68 S0 1.505873 1_555
O69 Si2 1.644213 1_555
O70 S1 1.502072 1_555
O71 Si3 1.645482 1_555
