# generated using pymatgen
data_Pb(NO3)2
_symmetry_space_group_name_H-M   'P 1'
_cell_length_a   7.82244910
_cell_length_b   7.82244910
_cell_length_c   7.82244910
_cell_angle_alpha   90.00000000
_cell_angle_beta   90.00000000
_cell_angle_gamma   90.00000000
_symmetry_Int_Tables_number   1
_chemical_formula_structural   Pb(NO3)2
_chemical_formula_sum   'Pb4 N8 O24'
_cell_volume   478.66121376
_cell_formula_units_Z   4
loop_
 _symmetry_equiv_pos_site_id
 _symmetry_equiv_pos_as_xyz
  1  'x, y, z'
loop_
 _atom_site_type_symbol
 _atom_site_label
 _atom_site_symmetry_multiplicity
 _atom_site_fract_x
 _atom_site_fract_y
 _atom_site_fract_z
 _atom_site_occupancy
  Pb  Pb0  1  0.00000000  0.50000000  0.50000000  1
  Pb  Pb1  1  0.50000000  0.50000000  -0.00000000  1
  Pb  Pb2  1  0.50000000  0.00000000  0.50000000  1
  Pb  Pb3  1  0.00000000  0.00000000  -0.00000000  1
  N  N0  1  0.34697899  0.34697899  0.34697899  1
  N  N1  1  0.34697899  0.15302101  0.84697899  1
  N  N2  1  0.15302101  0.84697899  0.34697899  1
  N  N3  1  0.84697899  0.34697899  0.15302101  1
  N  N4  1  0.65302101  0.65302101  0.65302101  1
  N  N5  1  0.15302101  0.65302101  0.84697899  1
  N  N6  1  0.84697899  0.15302101  0.65302101  1
  N  N7  1  0.65302101  0.84697899  0.15302101  1
  O  O0  1  0.77617430  0.28628263  0.02161357  1
  O  O1  1  0.21371737  0.97838643  0.27617430  1
  O  O2  1  0.22382570  0.78628263  0.47838643  1
  O  O3  1  0.27617430  0.21371737  0.97838643  1
  O  O4  1  0.27617430  0.28628263  0.47838643  1
  O  O5  1  0.47838643  0.27617430  0.28628263  1
  O  O6  1  0.28628263  0.47838643  0.27617430  1
  O  O7  1  0.21371737  0.52161357  0.77617430  1
  O  O8  1  0.97838643  0.22382570  0.71371737  1
  O  O9  1  0.71371737  0.97838643  0.22382570  1
  O  O10  1  0.02161357  0.72382570  0.78628263  1
  O  O11  1  0.52161357  0.77617430  0.21371737  1
  O  O12  1  0.78628263  0.02161357  0.72382570  1
  O  O13  1  0.77617430  0.21371737  0.52161357  1
  O  O14  1  0.72382570  0.78628263  0.02161357  1
  O  O15  1  0.22382570  0.71371737  0.97838643  1
  O  O16  1  0.72382570  0.71371737  0.52161357  1
  O  O17  1  0.52161357  0.72382570  0.71371737  1
  O  O18  1  0.71371737  0.52161357  0.72382570  1
  O  O19  1  0.78628263  0.47838643  0.22382570  1
  O  O20  1  0.02161357  0.77617430  0.28628263  1
  O  O21  1  0.28628263  0.02161357  0.77617430  1
  O  O22  1  0.97838643  0.27617430  0.21371737  1
  O  O23  1  0.47838643  0.22382570  0.78628263  1
loop_
_geom_bond_atom_site_label_1
_geom_bond_atom_site_label_2
_geom_bond_distance
_geom_bond_site_symmetry_2
N0 O6 1.260489 1_555
N0 O4 1.260489 1_555
N0 O5 1.260489 1_555
N1 O21 1.260489 1_555
N1 O3 1.260489 1_555
N1 O23 1.260489 1_555
N2 O20 1.260489 1_555
N2 O2 1.260489 1_555
N2 O1 1.260489 1_555
N3 O0 1.260489 1_555
N3 O22 1.260489 1_555
N3 O19 1.260489 1_555
N4 O16 1.260489 1_555
N4 O17 1.260489 1_555
N4 O18 1.260489 1_555
N5 O10 1.260489 1_555
N5 O15 1.260489 1_555
N5 O7 1.260489 1_555
N6 O12 1.260489 1_555
N6 O8 1.260489 1_555
N6 O13 1.260489 1_555
N7 O14 1.260489 1_555
N7 O11 1.260489 1_555
N7 O9 1.260489 1_555
O0 Pb1 2.736902 1_555
O0 Pb3 2.847660 1_655
O1 Pb3 2.736902 1_565
O1 Pb2 2.847660 1_565
O2 Pb2 2.736902 1_565
O2 Pb0 2.847660 1_555
O3 Pb3 2.736902 1_556
O3 Pb1 2.847660 1_556
O4 Pb0 2.736902 1_555
O4 Pb2 2.847660 1_555
O5 Pb2 2.736902 1_555
O5 Pb1 2.847660 1_555
O6 Pb1 2.736902 1_555
O6 Pb0 2.847660 1_555
O7 Pb0 2.736902 1_555
O7 Pb1 2.847660 1_556
O8 Pb0 2.736902 1_655
O8 Pb3 2.847660 1_656
O9 Pb2 2.736902 1_565
O9 Pb3 2.847660 1_665
O10 Pb3 2.736902 1_566
O10 Pb0 2.847660 1_555
O11 Pb1 2.736902 1_555
O11 Pb2 2.847660 1_565
O12 Pb3 2.736902 1_656
O12 Pb2 2.847660 1_555
O13 Pb2 2.736902 1_555
O13 Pb0 2.847660 1_655
O14 Pb3 2.736902 1_665
O14 Pb1 2.847660 1_555
O15 Pb1 2.736902 1_556
O15 Pb3 2.847660 1_566
O16 Pb0 2.736902 1_655
O16 Pb2 2.847660 1_565
O17 Pb2 2.736902 1_565
O17 Pb1 2.847660 1_556
O18 Pb1 2.736902 1_556
O18 Pb0 2.847660 1_655
O19 Pb0 2.736902 1_655
O19 Pb1 2.847660 1_555
O20 Pb0 2.736902 1_555
O20 Pb3 2.847660 1_565
O21 Pb2 2.736902 1_555
O21 Pb3 2.847660 1_556
O22 Pb3 2.736902 1_655
O22 Pb0 2.847660 1_655
O23 Pb1 2.736902 1_556
O23 Pb2 2.847660 1_555
