# generated using pymatgen
data_Ba2Mg(VS3)2
_symmetry_space_group_name_H-M   'P 1'
_cell_length_a   6.20440528
_cell_length_b   7.01272545
_cell_length_c   6.81851806
_cell_angle_alpha   118.68439332
_cell_angle_beta   88.10278441
_cell_angle_gamma   77.15073797
_symmetry_Int_Tables_number   1
_chemical_formula_structural   Ba2Mg(VS3)2
_chemical_formula_sum   'Ba2 Mg1 V2 S6'
_cell_volume   250.33149972
_cell_formula_units_Z   1
loop_
 _symmetry_equiv_pos_site_id
 _symmetry_equiv_pos_as_xyz
  1  'x, y, z'
loop_
 _atom_site_type_symbol
 _atom_site_label
 _atom_site_symmetry_multiplicity
 _atom_site_fract_x
 _atom_site_fract_y
 _atom_site_fract_z
 _atom_site_occupancy
  Ba  Ba0  1  0.65298999  0.20392554  0.59567523  1
  Ba  Ba1  1  0.26078466  0.69690078  0.34132705  1
  Mg  Mg0  1  0.06315643  0.49725360  0.74939464  1
  V  V0  1  0.53194793  0.99556862  0.99800281  1
  V  V1  1  0.00573761  0.00840586  0.00558436  1
  S  S0  1  0.81291028  0.78811964  0.12370828  1
  S  S1  1  0.35190038  0.69255295  0.84255876  1
  S  S2  1  0.22364339  0.17604402  0.84603055  1
  S  S3  1  0.20222195  0.16907954  0.34154377  1
  S  S4  1  0.68521691  0.30365371  0.16049383  1
  S  S5  1  0.82853848  0.80182875  0.67160673  1
loop_
_geom_bond_atom_site_label_1
_geom_bond_atom_site_label_2
_geom_bond_distance
_geom_bond_site_symmetry_2
Ba0 S0 3.055650 1_545
Ba0 S1 3.077739 1_555
Ba0 S5 3.078702 1_545
Ba0 S2 3.209249 1_555
Ba0 S3 3.332038 1_555
Ba0 S4 3.368824 1_555
Ba0 Mg0 3.498763 1_655
Ba0 S4 3.590072 1_556
Ba0 S3 3.675134 1_655
Ba1 S4 3.057903 1_555
Ba1 S5 3.152281 1_455
Ba1 S3 3.249094 1_565
Ba1 S0 3.275100 1_455
Ba1 S1 3.413482 1_554
Ba1 S2 3.418904 1_565
Ba1 S1 3.495882 1_555
Ba1 S2 3.658453 1_554
Ba1 S3 3.799509 1_555
Mg0 S1 2.412500 1_555
Mg0 S0 2.533130 1_456
Mg0 S3 2.566827 1_555
Mg0 S5 2.591937 1_455
Mg0 S2 2.640135 1_555
S0 V0 2.461265 1_554
S0 V1 2.533596 1_665
S1 V0 2.420506 1_555
S1 V1 2.473260 1_566
S2 V1 2.496144 1_556
S2 V0 2.578370 1_545
S3 V1 2.514216 1_555
S3 V0 2.644259 1_544
S4 V1 2.299448 1_655
S4 V0 2.342075 1_544
S5 V0 2.428851 1_555
S5 V1 2.490061 1_666
