# generated using pymatgen
data_Ca5Ni15B4
_symmetry_space_group_name_H-M   'P 1'
_cell_length_a   5.08436453
_cell_length_b   5.08436453
_cell_length_c   27.83177200
_cell_angle_alpha   90.00000000
_cell_angle_beta   90.00000000
_cell_angle_gamma   120.00000692
_symmetry_Int_Tables_number   1
_chemical_formula_structural   Ca5Ni15B4
_chemical_formula_sum   'Ca10 Ni30 B8'
_cell_volume   623.08144767
_cell_formula_units_Z   2
loop_
 _symmetry_equiv_pos_site_id
 _symmetry_equiv_pos_as_xyz
  1  'x, y, z'
loop_
 _atom_site_type_symbol
 _atom_site_label
 _atom_site_symmetry_multiplicity
 _atom_site_fract_x
 _atom_site_fract_y
 _atom_site_fract_z
 _atom_site_occupancy
  Ca  Ca0  1  0.66666700  0.33333300  0.75000000  1
  Ca  Ca1  1  0.33333300  0.66666700  0.25000000  1
  Ca  Ca2  1  0.33333300  0.66666700  0.48135800  1
  Ca  Ca3  1  0.66666700  0.33333300  0.98135800  1
  Ca  Ca4  1  0.66666700  0.33333300  0.51864200  1
  Ca  Ca5  1  0.33333300  0.66666700  0.01864200  1
  Ca  Ca6  1  0.33333300  0.66666700  0.36868000  1
  Ca  Ca7  1  0.66666700  0.33333300  0.86868000  1
  Ca  Ca8  1  0.66666700  0.33333300  0.63132000  1
  Ca  Ca9  1  0.33333300  0.66666700  0.13132000  1
  Ni  Ni0  1  0.83283700  0.16716300  0.17755900  1
  Ni  Ni1  1  0.16716300  0.33432600  0.82244100  1
  Ni  Ni2  1  0.16716300  0.83283700  0.82244100  1
  Ni  Ni3  1  0.16716300  0.33432600  0.67755900  1
  Ni  Ni4  1  0.66567400  0.83283700  0.82244100  1
  Ni  Ni5  1  0.33432600  0.16716300  0.32244100  1
  Ni  Ni6  1  0.83283700  0.66567400  0.32244100  1
  Ni  Ni7  1  0.83283700  0.16716300  0.32244100  1
  Ni  Ni8  1  0.33333300  0.66666700  0.75000000  1
  Ni  Ni9  1  0.66666700  0.33333300  0.25000000  1
  Ni  Ni10  1  0.00000000  0.00000000  0.25000000  1
  Ni  Ni11  1  0.00000000  0.00000000  0.75000000  1
  Ni  Ni12  1  0.33432600  0.16716300  0.17755900  1
  Ni  Ni13  1  0.66567400  0.83283700  0.67755900  1
  Ni  Ni14  1  0.16716300  0.83283700  0.67755900  1
  Ni  Ni15  1  0.83283700  0.66567400  0.17755900  1
  Ni  Ni16  1  0.83564900  0.16435100  0.42213600  1
  Ni  Ni17  1  0.83564900  0.67129800  0.42213600  1
  Ni  Ni18  1  0.32870200  0.16435100  0.42213600  1
  Ni  Ni19  1  0.67129800  0.83564900  0.92213600  1
  Ni  Ni20  1  0.16435100  0.32870200  0.57786400  1
  Ni  Ni21  1  0.16435100  0.83564900  0.92213600  1
  Ni  Ni22  1  0.16435100  0.32870200  0.92213600  1
  Ni  Ni23  1  0.83564900  0.16435100  0.07786400  1
  Ni  Ni24  1  0.32870200  0.16435100  0.07786400  1
  Ni  Ni25  1  0.67129800  0.83564900  0.57786400  1
  Ni  Ni26  1  0.16435100  0.83564900  0.57786400  1
  Ni  Ni27  1  0.83564900  0.67129800  0.07786400  1
  Ni  Ni28  1  0.00000000  0.00000000  0.50000000  1
  Ni  Ni29  1  0.00000000  0.00000000  0.00000000  1
  B  B0  1  0.00000000  0.00000000  0.37180700  1
  B  B1  1  0.00000000  0.00000000  0.87180700  1
  B  B2  1  0.00000000  0.00000000  0.62819300  1
  B  B3  1  0.00000000  0.00000000  0.12819300  1
  B  B4  1  0.33333300  0.66666700  0.87326600  1
  B  B5  1  0.66666700  0.33333300  0.37326600  1
  B  B6  1  0.66666700  0.33333300  0.12673400  1
  B  B7  1  0.33333300  0.66666700  0.62673400  1
loop_
_geom_bond_atom_site_label_1
_geom_bond_atom_site_label_2
_geom_bond_distance
_geom_bond_site_symmetry_2
Ca0 Ni8 2.935456 1_545
Ca0 Ni8 2.935456 1_655
Ca0 Ni11 2.935456 1_655
Ca0 Ni11 2.935460 1_555
Ca0 Ni11 2.935460 1_665
Ca0 Ni8 2.935465 1_555
Ca1 Ni9 2.935456 1_455
Ca1 Ni9 2.935456 1_565
Ca1 Ni10 2.935456 1_565
Ca1 Ni10 2.935460 1_665
Ca1 Ni10 2.935460 1_555
Ca1 Ni9 2.935465 1_555
Ca2 Ni28 2.980956 1_565
Ca2 Ni28 2.980960 1_665
Ca2 Ni28 2.980960 1_555
Ca2 Ni18 3.029824 1_565
Ca2 Ni17 3.029824 1_455
Ca2 Ni16 3.029826 1_455
Ca2 Ni16 3.029826 1_565
Ca2 Ni18 3.029828 1_555
Ca2 Ni17 3.029828 1_555
Ca2 Ni26 3.070625 1_555
Ca2 Ni20 3.070627 1_555
Ca2 Ni25 3.070627 1_555
Ca3 Ni29 2.980956 1_656
Ca3 Ni29 2.980960 1_666
Ca3 Ni29 2.980960 1_556
Ca3 Ni22 3.029824 1_655
Ca3 Ni19 3.029824 1_545
Ca3 Ni21 3.029826 1_655
Ca3 Ni21 3.029826 1_545
Ca3 Ni22 3.029828 1_555
Ca3 Ni19 3.029828 1_555
Ca3 Ni23 3.070625 1_556
Ca3 Ni27 3.070627 1_556
Ca3 Ni24 3.070627 1_556
Ca4 Ni28 2.980956 1_655
Ca4 Ni28 2.980960 1_665
Ca4 Ni28 2.980960 1_555
Ca4 Ni20 3.029824 1_655
Ca4 Ni25 3.029824 1_545
Ca4 Ni26 3.029826 1_655
Ca4 Ni26 3.029826 1_545
Ca4 Ni20 3.029828 1_555
Ca4 Ni25 3.029828 1_555
Ca4 Ni16 3.070625 1_555
Ca4 Ni18 3.070627 1_555
Ca4 Ni17 3.070627 1_555
Ca5 Ni29 2.980956 1_565
Ca5 Ni29 2.980960 1_555
Ca5 Ni29 2.980960 1_665
Ca5 Ni24 3.029824 1_565
Ca5 Ni27 3.029824 1_455
Ca5 Ni23 3.029826 1_565
Ca5 Ni23 3.029826 1_455
Ca5 Ni24 3.029828 1_555
Ca5 Ni27 3.029828 1_555
Ca5 Ni21 3.070625 1_554
Ca5 Ni19 3.070627 1_554
Ca5 Ni22 3.070627 1_554
Ca6 Ni5 2.849358 1_565
Ca6 Ni6 2.849358 1_455
Ca6 Ni7 2.849360 1_565
Ca6 Ni7 2.849360 1_455
Ca6 Ni6 2.849363 1_555
Ca6 Ni5 2.849363 1_555
Ca6 Ni18 2.945602 1_565
Ca6 Ni17 2.945602 1_455
Ca6 Ni16 2.945604 1_455
Ca6 Ni16 2.945604 1_565
Ca6 Ni18 2.945606 1_555
Ca6 Ni17 2.945606 1_555
Ca7 Ni1 2.849358 1_655
Ca7 Ni4 2.849358 1_545
Ca7 Ni2 2.849360 1_655
Ca7 Ni2 2.849360 1_545
Ca7 Ni4 2.849363 1_555
Ca7 Ni1 2.849363 1_555
Ca7 Ni19 2.945602 1_545
Ca7 Ni22 2.945602 1_655
Ca7 Ni21 2.945604 1_655
Ca7 Ni21 2.945604 1_545
Ca7 Ni19 2.945606 1_555
Ca7 Ni22 2.945606 1_555
Ca8 Ni3 2.849358 1_655
Ca8 Ni13 2.849358 1_545
Ca8 Ni14 2.849360 1_655
Ca8 Ni14 2.849360 1_545
Ca8 Ni13 2.849363 1_555
Ca8 Ni3 2.849363 1_555
Ca8 Ni20 2.945602 1_655
Ca8 Ni25 2.945602 1_545
Ca8 Ni26 2.945604 1_655
Ca8 Ni26 2.945604 1_545
Ca8 Ni20 2.945606 1_555
Ca8 Ni25 2.945606 1_555
Ca9 Ni12 2.849358 1_565
Ca9 Ni15 2.849358 1_455
Ca9 Ni0 2.849360 1_565
Ca9 Ni0 2.849360 1_455
Ca9 Ni15 2.849363 1_555
Ca9 Ni12 2.849363 1_555
Ca9 Ni24 2.945602 1_565
Ca9 Ni27 2.945602 1_455
Ca9 Ni23 2.945604 1_565
Ca9 Ni23 2.945604 1_455
Ca9 Ni24 2.945606 1_555
Ca9 Ni27 2.945606 1_555
Ni0 Ni9 2.491248 1_555
Ni0 Ni10 2.496395 1_655
Ni1 Ni8 2.491251 1_555
Ni1 Ni11 2.496395 1_555
Ni2 Ni8 2.491248 1_555
Ni3 Ni8 2.491251 1_555
Ni4 Ni8 2.491251 1_555
Ni5 Ni9 2.491251 1_555
Ni6 Ni9 2.491251 1_555
Ni7 Ni9 2.491248 1_555
Ni10 Ni5 2.496395 1_555
Ni10 Ni6 2.496395 1_445
Ni10 Ni12 2.496395 1_555
Ni10 Ni15 2.496395 1_445
Ni10 Ni7 2.496395 1_455
Ni11 Ni4 2.496395 1_445
Ni11 Ni13 2.496395 1_445
Ni11 Ni3 2.496395 1_555
Ni11 Ni2 2.496395 1_545
Ni11 Ni14 2.496395 1_545
Ni12 Ni9 2.491251 1_555
Ni13 Ni8 2.491251 1_555
Ni14 Ni8 2.491248 1_555
Ni15 Ni9 2.491251 1_555
Ni16 Ni28 2.605969 1_655
Ni17 Ni28 2.605969 1_665
Ni18 Ni28 2.605969 1_555
Ni19 Ni29 2.605969 1_666
Ni20 Ni28 2.605969 1_555
Ni21 Ni29 2.605969 1_566
Ni22 Ni29 2.605969 1_556
Ni23 Ni29 2.605969 1_655
Ni24 Ni29 2.605969 1_555
Ni25 Ni28 2.605969 1_665
Ni26 Ni28 2.605969 1_565
Ni27 Ni29 2.605969 1_665
B0 Ni5 2.013653 1_555
B0 Ni6 2.013653 1_445
B0 Ni7 2.013653 1_455
B0 Ni18 2.014168 1_555
B0 Ni17 2.014168 1_445
B0 Ni16 2.014168 1_455
B0 Ca6 2.936746 1_545
B0 Ca6 2.936750 1_555
B0 Ca6 2.936750 1_445
B1 Ni4 2.013653 1_445
B1 Ni1 2.013653 1_555
B1 Ni2 2.013653 1_545
B1 Ni22 2.014168 1_555
B1 Ni19 2.014168 1_445
B1 Ni21 2.014168 1_545
B1 Ca7 2.936746 1_455
B1 Ca7 2.936750 1_555
B1 Ca7 2.936750 1_445
B2 Ni13 2.013653 1_445
B2 Ni3 2.013653 1_555
B2 Ni14 2.013653 1_545
B2 Ni20 2.014168 1_555
B2 Ni25 2.014168 1_445
B2 Ni26 2.014168 1_545
B2 Ca8 2.936746 1_455
B2 Ca8 2.936750 1_555
B2 Ca8 2.936750 1_445
B3 Ni12 2.013653 1_555
B3 Ni15 2.013653 1_445
B3 Ni0 2.013653 1_455
B3 Ni24 2.014168 1_555
B3 Ni27 2.014168 1_445
B3 Ni23 2.014168 1_455
B3 Ca9 2.936746 1_545
B3 Ca9 2.936750 1_555
B3 Ca9 2.936750 1_445
B4 Ni21 2.016055 1_555
B4 Ni19 2.016058 1_555
B4 Ni22 2.016058 1_555
B4 Ni2 2.035279 1_555
B4 Ni1 2.035282 1_555
B4 Ni4 2.035282 1_555
B4 Ca7 2.938230 1_455
B4 Ca7 2.938230 1_565
B4 Ca7 2.938239 1_555
B5 Ni16 2.016055 1_555
B5 Ni17 2.016058 1_555
B5 Ni18 2.016058 1_555
B5 Ni7 2.035279 1_555
B5 Ni5 2.035282 1_555
B5 Ni6 2.035282 1_555
B5 Ca6 2.938230 1_545
B5 Ca6 2.938230 1_655
B5 Ca6 2.938239 1_555
B6 Ni23 2.016055 1_555
B6 Ni27 2.016058 1_555
B6 Ni24 2.016058 1_555
B6 Ni0 2.035279 1_555
B6 Ni15 2.035282 1_555
B6 Ni12 2.035282 1_555
B6 Ca9 2.938230 1_545
B6 Ca9 2.938230 1_655
B6 Ca9 2.938239 1_555
B7 Ni26 2.016055 1_555
B7 Ni20 2.016058 1_555
B7 Ni25 2.016058 1_555
B7 Ni14 2.035279 1_555
B7 Ni3 2.035282 1_555
B7 Ni13 2.035282 1_555
B7 Ca8 2.938230 1_455
B7 Ca8 2.938230 1_565
B7 Ca8 2.938239 1_555
