# generated using pymatgen
data_MgZn2(CoO2)4
_symmetry_space_group_name_H-M   'P 1'
_cell_length_a   5.93659162
_cell_length_b   5.88812785
_cell_length_c   6.26741037
_cell_angle_alpha   89.16372072
_cell_angle_beta   118.32705390
_cell_angle_gamma   120.34169660
_symmetry_Int_Tables_number   1
_chemical_formula_structural   MgZn2(CoO2)4
_chemical_formula_sum   'Mg1 Zn2 Co4 O8'
_cell_volume   158.95716185
_cell_formula_units_Z   1
loop_
 _symmetry_equiv_pos_site_id
 _symmetry_equiv_pos_as_xyz
  1  'x, y, z'
loop_
 _atom_site_type_symbol
 _atom_site_label
 _atom_site_symmetry_multiplicity
 _atom_site_fract_x
 _atom_site_fract_y
 _atom_site_fract_z
 _atom_site_occupancy
  Mg  Mg0  1  0.00000100  0.99999900  0.50000000  1
  Zn  Zn0  1  0.30967400  0.16096100  0.95845200  1
  Zn  Zn1  1  0.69032700  0.83903800  0.04154800  1
  Co  Co0  1  0.50000100  0.00000100  0.50000000  1
  Co  Co1  1  0.50000000  0.50000100  0.50000000  1
  Co  Co2  1  0.00000000  0.50000100  0.00000100  1
  Co  Co3  1  0.99999900  0.49999800  0.50000000  1
  O  O0  1  0.00594100  0.74813600  0.26832400  1
  O  O1  1  0.45478100  0.71524500  0.68822100  1
  O  O2  1  0.50659300  0.75014400  0.26422600  1
  O  O3  1  0.98967000  0.74393900  0.73671100  1
  O  O4  1  0.49340800  0.24985700  0.73577400  1
  O  O5  1  0.54521700  0.28475500  0.31177800  1
  O  O6  1  0.01032900  0.25606100  0.26328900  1
  O  O7  1  0.99405900  0.25186400  0.73167500  1
loop_
_geom_bond_atom_site_label_1
_geom_bond_atom_site_label_2
_geom_bond_distance
_geom_bond_site_symmetry_2
Mg0 O3 2.098943 1_455
Mg0 O6 2.098951 1_565
Mg0 O0 2.114982 1_555
Mg0 O7 2.114995 1_465
Mg0 O4 2.128363 1_565
Mg0 O2 2.128367 1_455
Co0 O5 2.015674 1_555
Co0 O1 2.015679 1_545
Co0 O4 2.127443 1_555
Co0 O2 2.127443 1_545
Co0 O7 2.130013 1_555
Co0 O0 2.130022 1_545
Co1 O1 1.938511 1_555
Co1 O5 1.938514 1_555
Co1 O2 2.070647 1_555
Co1 O4 2.070651 1_555
Co1 O3 2.113173 1_555
Co1 O6 2.113177 1_555
Co2 O6 2.171077 1_555
Co2 O3 2.171078 1_454
Co2 O4 2.196804 1_454
Co2 O2 2.196806 1_555
Co2 O0 2.219768 1_555
Co2 O7 2.219790 1_454
Co3 O1 1.962441 1_655
Co3 O5 1.962442 1_555
Co3 O7 2.044216 1_555
Co3 O0 2.044237 1_655
Co3 O6 2.122572 1_655
Co3 O3 2.122584 1_555
O0 Zn1 2.069051 1_455
O1 Zn1 1.862560 1_556
O2 Zn1 2.063484 1_555
O3 Zn0 2.109737 1_665
O4 Zn0 2.063484 1_555
O5 Zn0 1.862555 1_554
O6 Zn1 2.109741 1_445
O7 Zn0 2.069061 1_655
