# generated using pymatgen
data_NaTiGe(PO4)3
_symmetry_space_group_name_H-M   'P 1'
_cell_length_a   8.46584403
_cell_length_b   8.46584379
_cell_length_c   22.05518831
_cell_angle_alpha   90.00000000
_cell_angle_beta   90.00000000
_cell_angle_gamma   120.00000099
_symmetry_Int_Tables_number   1
_chemical_formula_structural   NaTiGe(PO4)3
_chemical_formula_sum   'Na6 Ti6 Ge6 P18 O72'
_cell_volume   1368.93211168
_cell_formula_units_Z   6
loop_
 _symmetry_equiv_pos_site_id
 _symmetry_equiv_pos_as_xyz
  1  'x, y, z'
loop_
 _atom_site_type_symbol
 _atom_site_label
 _atom_site_symmetry_multiplicity
 _atom_site_fract_x
 _atom_site_fract_y
 _atom_site_fract_z
 _atom_site_occupancy
  Na  Na0  1  -0.00000000  -0.00000000  0.49993640  1
  Na  Na1  1  -0.00000000  -0.00000000  0.99979532  1
  Na  Na2  1  0.66666700  0.33333300  0.83363616  1
  Na  Na3  1  0.66666700  0.33333300  0.33313889  1
  Na  Na4  1  0.33333300  0.66666700  0.16641104  1
  Na  Na5  1  0.33333300  0.66666700  0.66681400  1
  Ti  Ti0  1  -0.00000000  -0.00000000  0.64731679  1
  Ti  Ti1  1  -0.00000000  -0.00000000  0.14471892  1
  Ti  Ti2  1  0.66666700  0.33333300  0.68822646  1
  Ti  Ti3  1  0.66666700  0.33333300  0.47920995  1
  Ti  Ti4  1  0.33333300  0.66666700  0.51932070  1
  Ti  Ti5  1  0.33333300  0.66666700  0.31208968  1
  Ge  Ge0  1  -0.00000000  -0.00000000  0.35195945  1
  Ge  Ge1  1  -0.00000000  -0.00000000  0.85386882  1
  Ge  Ge2  1  0.66666700  0.33333300  0.18582190  1
  Ge  Ge3  1  0.66666700  0.33333300  0.97953522  1
  Ge  Ge4  1  0.33333300  0.66666700  0.01928232  1
  Ge  Ge5  1  0.33333300  0.66666700  0.81459983  1
  P  P0  1  0.28967115  0.00443579  0.24986159  1
  P  P1  1  0.71476463  0.71032885  0.24986159  1
  P  P2  1  0.99556421  0.28523537  0.24986159  1
  P  P3  1  0.28556940  0.28983581  0.75225935  1
  P  P4  1  0.00426641  0.71443060  0.75225935  1
  P  P5  1  0.71016419  0.99573359  0.75225935  1
  P  P6  1  0.95508020  0.33347609  0.58342518  1
  P  P7  1  0.37839688  0.04491980  0.58342518  1
  P  P8  1  0.66652391  0.62160312  0.58342518  1
  P  P9  1  0.95316352  0.61536070  0.08222480  1
  P  P10  1  0.66219818  0.04683648  0.08222480  1
  P  P11  1  0.38463930  0.33780182  0.08222480  1
  P  P12  1  0.62057460  0.66668116  0.91673106  1
  P  P13  1  0.04610556  0.37942540  0.91673106  1
  P  P14  1  0.33331884  0.95389444  0.91673106  1
  P  P15  1  0.62658463  0.95554440  0.41553418  1
  P  P16  1  0.32895876  0.37341537  0.41553418  1
  P  P17  1  0.04445560  0.67104124  0.41553418  1
  O  O0  1  0.20731191  0.03931960  0.30746487  1
  O  O1  1  0.83200769  0.79268809  0.30746487  1
  O  O2  1  0.96068040  0.16799231  0.30746487  1
  O  O3  1  0.20343626  0.16769965  0.80880256  1
  O  O4  1  0.96426338  0.79656374  0.80880256  1
  O  O5  1  0.83230035  0.03573662  0.80880256  1
  O  O6  1  0.79381302  0.96358094  0.69489699  1
  O  O7  1  0.16976792  0.20618698  0.69489699  1
  O  O8  1  0.03641906  0.83023208  0.69489699  1
  O  O9  1  0.79852610  0.82990867  0.19344356  1
  O  O10  1  0.03138257  0.20147390  0.19344356  1
  O  O11  1  0.17009133  0.96861743  0.19344356  1
  O  O12  1  0.86949972  0.36631981  0.64011792  1
  O  O13  1  0.49682109  0.13050028  0.64011792  1
  O  O14  1  0.63368019  0.50317891  0.64011792  1
  O  O15  1  0.87269005  0.49980515  0.14030605  1
  O  O16  1  0.62711610  0.12730995  0.14030605  1
  O  O17  1  0.50019485  0.37288390  0.14030605  1
  O  O18  1  0.46422892  0.29745873  0.02518946  1
  O  O19  1  0.83323080  0.53577108  0.02518946  1
  O  O20  1  0.70254127  0.16676920  0.02518946  1
  O  O21  1  0.46345036  0.16318411  0.52673189  1
  O  O22  1  0.69973476  0.53654964  0.52673189  1
  O  O23  1  0.83681589  0.30026524  0.52673189  1
  O  O24  1  0.53926362  0.70429733  0.97405999  1
  O  O25  1  0.16503271  0.46073638  0.97405999  1
  O  O26  1  0.29570267  0.83496729  0.97405999  1
  O  O27  1  0.54079864  0.83796339  0.47247576  1
  O  O28  1  0.29716375  0.45920136  0.47247576  1
  O  O29  1  0.16203661  0.70283625  0.47247576  1
  O  O30  1  0.13017340  0.63535028  0.35958631  1
  O  O31  1  0.50517588  0.86982660  0.35958631  1
  O  O32  1  0.36464972  0.49482412  0.35958631  1
  O  O33  1  0.12704492  0.49804947  0.85942746  1
  O  O34  1  0.37100354  0.87295508  0.85942746  1
  O  O35  1  0.50195053  0.62899646  0.85942746  1
  O  O36  1  0.02621986  0.84259643  0.40836395  1
  O  O37  1  0.81637657  0.97378014  0.40836395  1
  O  O38  1  0.15740357  0.18362343  0.40836395  1
  O  O39  1  0.02592752  0.18797674  0.90908365  1
  O  O40  1  0.16204922  0.97407248  0.90908365  1
  O  O41  1  0.81202326  0.83795078  0.90908365  1
  O  O42  1  0.97419291  0.16354267  0.59044789  1
  O  O43  1  0.18934976  0.02580709  0.59044789  1
  O  O44  1  0.83645733  0.81065024  0.59044789  1
  O  O45  1  0.97358394  0.80549820  0.08989375  1
  O  O46  1  0.83191426  0.02641606  0.08989375  1
  O  O47  1  0.19450180  0.16808574  0.08989375  1
  O  O48  1  0.69128889  0.16565131  0.74408748  1
  O  O49  1  0.47436342  0.30871111  0.74408748  1
  O  O50  1  0.83434869  0.52563658  0.74408748  1
  O  O51  1  0.69318329  0.51874119  0.24214171  1
  O  O52  1  0.82555890  0.30681671  0.24214171  1
  O  O53  1  0.48125881  0.17444110  0.24214171  1
  O  O54  1  0.64067502  0.49527277  0.92433026  1
  O  O55  1  0.85459876  0.35932498  0.92433026  1
  O  O56  1  0.50472723  0.14540124  0.92433026  1
  O  O57  1  0.64371858  0.14343296  0.42325664  1
  O  O58  1  0.49971538  0.35628142  0.42325664  1
  O  O59  1  0.85656704  0.50028462  0.42325664  1
  O  O60  1  0.36135567  0.50744154  0.07509750  1
  O  O61  1  0.14608487  0.63864433  0.07509750  1
  O  O62  1  0.49255846  0.85391513  0.07509750  1
  O  O63  1  0.35915613  0.85599451  0.57627159  1
  O  O64  1  0.49683738  0.64084387  0.57627159  1
  O  O65  1  0.14400549  0.50316262  0.57627159  1
  O  O66  1  0.30868197  0.83418252  0.25716543  1
  O  O67  1  0.52549955  0.69131803  0.25716543  1
  O  O68  1  0.16581748  0.47450045  0.25716543  1
  O  O69  1  0.30557987  0.48115853  0.75876056  1
  O  O70  1  0.17557766  0.69442013  0.75876056  1
  O  O71  1  0.51884147  0.82442234  0.75876056  1
loop_
_geom_bond_atom_site_label_1
_geom_bond_atom_site_label_2
_geom_bond_distance
_geom_bond_site_symmetry_2
Na0 O38 2.489928 1_555
Na0 O36 2.489928 1_545
Na0 O37 2.489928 1_445
Na0 O44 2.500429 1_445
Na0 O42 2.500429 1_455
Na0 O43 2.500429 1_555
Na1 O39 2.496802 1_555
Na1 O41 2.496802 1_445
Na1 O40 2.496802 1_545
Na1 O45 2.518303 1_446
Na1 O47 2.518303 1_556
Na1 O46 2.518303 1_456
Na2 O54 2.496140 1_555
Na2 O56 2.496140 1_555
Na2 O55 2.496140 1_555
Na2 O50 2.501039 1_555
Na2 O48 2.501039 1_555
Na2 O49 2.501039 1_555
Na3 O51 2.487908 1_555
Na3 O53 2.487908 1_555
Na3 O52 2.487908 1_555
Na3 O57 2.502080 1_555
Na3 O59 2.502080 1_555
Na3 O58 2.502080 1_555
Na4 O62 2.499811 1_555
Na4 O60 2.499811 1_555
Na4 O61 2.499811 1_555
Na4 O68 2.521331 1_555
Na4 O66 2.521331 1_555
Na4 O67 2.521331 1_555
Na5 O63 2.500829 1_555
Na5 O65 2.500829 1_555
Na5 O64 2.500829 1_555
Na5 O69 2.503000 1_555
Na5 O71 2.503000 1_555
Na5 O70 2.503000 1_555
Ge0 O1 1.889413 1_445
Ge0 O2 1.889413 1_455
Ge0 O0 1.889413 1_555
Ge0 O38 1.915288 1_555
Ge0 O36 1.915288 1_545
Ge0 O37 1.915288 1_445
Ge1 O4 1.877387 1_445
Ge1 O3 1.877387 1_555
Ge1 O5 1.877387 1_455
Ge1 O39 1.927263 1_555
Ge1 O41 1.927263 1_445
Ge1 O40 1.927263 1_545
Ge2 O16 1.891544 1_555
Ge2 O15 1.891544 1_555
Ge2 O17 1.891544 1_555
Ge2 O51 1.924764 1_555
Ge2 O53 1.924764 1_555
Ge2 O52 1.924764 1_555
Ge3 O20 1.876901 1_556
Ge3 O19 1.876901 1_556
Ge3 O18 1.876901 1_556
Ge3 O54 1.926669 1_555
Ge3 O56 1.926669 1_555
Ge3 O55 1.926669 1_555
Ge4 O25 1.892152 1_554
Ge4 O26 1.892152 1_554
Ge4 O24 1.892152 1_554
Ge4 O62 1.925749 1_555
Ge4 O60 1.925749 1_555
Ge4 O61 1.925749 1_555
Ge5 O35 1.890018 1_555
Ge5 O33 1.890018 1_555
Ge5 O34 1.890018 1_555
Ge5 O69 1.915553 1_555
Ge5 O71 1.915553 1_555
Ge5 O70 1.915553 1_555
O0 P0 1.547034 1_555
O1 P1 1.547034 1_555
O2 P2 1.547034 1_555
O3 P3 1.545585 1_555
O4 P4 1.545585 1_655
O5 P5 1.545585 1_545
O6 P5 1.539128 1_555
O6 Ti0 1.924845 1_665
O7 P3 1.539128 1_555
O7 Ti0 1.924845 1_555
O8 P4 1.539128 1_555
O8 Ti0 1.924845 1_565
O9 P1 1.535618 1_555
O9 Ti1 1.918721 1_665
O10 P2 1.535618 1_455
O10 Ti1 1.918721 1_555
O11 P0 1.535618 1_565
O11 Ti1 1.918721 1_565
O12 P6 1.538539 1_555
O12 Ti2 1.916473 1_555
O13 P7 1.538539 1_555
O13 Ti2 1.916473 1_555
O14 P8 1.538539 1_555
O14 Ti2 1.916473 1_555
O15 P9 1.547781 1_555
O16 P10 1.547781 1_555
O17 P11 1.547781 1_555
O18 P11 1.543745 1_555
O19 P9 1.543745 1_555
O20 P10 1.543745 1_555
O21 P7 1.537342 1_555
O21 Ti3 1.911819 1_555
O22 P8 1.537342 1_555
O22 Ti3 1.911819 1_555
O23 P6 1.537342 1_555
O23 Ti3 1.911819 1_555
O24 P12 1.546991 1_555
O25 P13 1.546991 1_555
O26 P14 1.546991 1_555
O27 P15 1.540311 1_555
O27 Ti4 1.925680 1_555
O28 P16 1.540311 1_555
O28 Ti4 1.925680 1_555
O29 P17 1.540311 1_555
O29 Ti4 1.925680 1_555
O30 P17 1.536156 1_555
O30 Ti5 1.915665 1_555
O31 P15 1.536156 1_555
O31 Ti5 1.915665 1_555
O32 P16 1.536156 1_555
O32 Ti5 1.915665 1_555
O33 P13 1.545060 1_555
O34 P14 1.545060 1_555
O35 P12 1.545061 1_555
O36 P17 1.543505 1_555
O37 P15 1.543513 1_555
O38 P16 1.543509 1_555
O39 P13 1.551667 1_555
O40 P14 1.551659 1_555
O41 P12 1.551664 1_555
O42 P6 1.533820 1_555
O42 Ti0 1.959666 1_655
O43 P7 1.533829 1_555
O43 Ti0 1.959666 1_555
O44 P8 1.533825 1_555
O44 Ti0 1.959666 1_665
O45 P9 1.539893 1_555
O45 Ti1 1.963479 1_665
O46 P10 1.539885 1_555
O46 Ti1 1.963479 1_655
O47 P11 1.539890 1_555
O47 Ti1 1.963479 1_555
O48 P5 1.535303 1_545
O48 Ti2 1.967843 1_555
O49 P3 1.535312 1_555
O49 Ti2 1.967844 1_555
O50 P4 1.535308 1_655
O50 Ti2 1.967843 1_555
O51 P1 1.548147 1_555
O52 P2 1.548138 1_555
O53 P0 1.548143 1_555
O54 P12 1.552327 1_555
O55 P13 1.552310 1_655
O56 P14 1.552317 1_545
O57 P15 1.532789 1_545
O57 Ti3 1.957779 1_555
O58 P16 1.532806 1_555
O58 Ti3 1.957779 1_555
O59 P17 1.532796 1_655
O59 Ti3 1.957779 1_555
O60 P11 1.552146 1_555
O61 P9 1.552130 1_455
O62 P10 1.552136 1_565
O63 P7 1.532650 1_565
O63 Ti4 1.960640 1_555
O64 P8 1.532667 1_555
O64 Ti4 1.960640 1_555
O65 P6 1.532657 1_455
O65 Ti4 1.960640 1_555
O66 P0 1.536645 1_565
O66 Ti5 1.953994 1_555
O67 P1 1.536654 1_555
O67 Ti5 1.953994 1_555
O68 P2 1.536650 1_455
O68 Ti5 1.953994 1_555
O69 P3 1.548653 1_555
O70 P4 1.548644 1_555
O71 P5 1.548649 1_555
