# generated using pymatgen
data_ReP4
_symmetry_space_group_name_H-M   'P 1'
_cell_length_a   6.24698160
_cell_length_b   9.25831724
_cell_length_c   10.86914502
_cell_angle_alpha   90.00000000
_cell_angle_beta   90.00000000
_cell_angle_gamma   90.00000000
_symmetry_Int_Tables_number   1
_chemical_formula_structural   ReP4
_chemical_formula_sum   'Re8 P32'
_cell_volume   628.63371295
_cell_formula_units_Z   8
loop_
 _symmetry_equiv_pos_site_id
 _symmetry_equiv_pos_as_xyz
  1  'x, y, z'
loop_
 _atom_site_type_symbol
 _atom_site_label
 _atom_site_symmetry_multiplicity
 _atom_site_fract_x
 _atom_site_fract_y
 _atom_site_fract_z
 _atom_site_occupancy
  Re  Re0  1  0.62223766  0.10953145  0.42400362  1
  Re  Re1  1  0.12223766  0.39046855  0.57599638  1
  Re  Re2  1  0.37776234  0.60953145  0.07599638  1
  Re  Re3  1  0.87776234  0.89046855  0.92400362  1
  Re  Re4  1  0.37776234  0.89046855  0.57599638  1
  Re  Re5  1  0.87776234  0.60953145  0.42400362  1
  Re  Re6  1  0.62223766  0.39046855  0.92400362  1
  Re  Re7  1  0.12223766  0.10953145  0.07599638  1
  P  P0  1  0.00143112  0.20852447  0.43020173  1
  P  P1  1  0.50143112  0.29147553  0.56979827  1
  P  P2  1  -0.00143112  0.70852447  0.06979827  1
  P  P3  1  0.49856888  0.79147553  0.93020173  1
  P  P4  1  -0.00143112  0.79147553  0.56979827  1
  P  P5  1  0.49856888  0.70852447  0.43020173  1
  P  P6  1  0.00143112  0.29147553  0.93020173  1
  P  P7  1  0.50143112  0.20852447  0.06979827  1
  P  P8  1  0.06207163  0.28326406  0.23595991  1
  P  P9  1  0.56207163  0.21673594  0.76404009  1
  P  P10  1  0.93792837  0.78326406  0.26404009  1
  P  P11  1  0.43792837  0.71673594  0.73595991  1
  P  P12  1  0.93792837  0.71673594  0.76404009  1
  P  P13  1  0.43792837  0.78326406  0.23595991  1
  P  P14  1  0.06207163  0.21673594  0.73595991  1
  P  P15  1  0.56207163  0.28326406  0.26404009  1
  P  P16  1  0.18843528  0.94734515  0.23862022  1
  P  P17  1  0.68843528  0.55265485  0.76137978  1
  P  P18  1  0.81156472  0.44734515  0.26137978  1
  P  P19  1  0.31156472  0.05265485  0.73862022  1
  P  P20  1  0.81156472  0.05265485  0.76137978  1
  P  P21  1  0.31156472  0.44734515  0.23862022  1
  P  P22  1  0.18843528  0.55265485  0.73862022  1
  P  P23  1  0.68843528  0.94734515  0.26137978  1
  P  P24  1  0.75632426  0.04347318  0.08154820  1
  P  P25  1  0.25632426  0.45652682  0.91845180  1
  P  P26  1  0.24367574  0.54347318  0.41845180  1
  P  P27  1  0.74367574  0.95652682  0.58154820  1
  P  P28  1  0.24367574  0.95652682  0.91845180  1
  P  P29  1  0.74367574  0.54347318  0.08154820  1
  P  P30  1  0.75632426  0.45652682  0.58154820  1
  P  P31  1  0.25632426  0.04347318  0.41845180  1
loop_
_geom_bond_atom_site_label_1
_geom_bond_atom_site_label_2
_geom_bond_distance
_geom_bond_site_symmetry_2
P0 P31 2.210622 1_555
P0 P8 2.253811 1_555
P0 Re1 2.432739 1_555
P0 Re0 2.540828 1_455
P1 P30 2.210622 1_555
P1 P9 2.253811 1_555
P1 Re0 2.432739 1_555
P1 Re1 2.540828 1_555
P2 P29 2.210622 1_455
P2 Re3 2.432739 1_454
P2 Re2 2.540828 1_555
P3 Re2 2.432739 1_556
P3 Re3 2.540828 1_555
P4 Re5 2.432739 1_455
P4 Re4 2.540828 1_555
P5 Re4 2.432739 1_555
P5 Re5 2.540828 1_555
P6 Re7 2.432739 1_556
P6 Re6 2.540828 1_455
P7 Re6 2.432739 1_554
P7 Re7 2.540828 1_555
P8 Re7 2.398210 1_555
P9 Re6 2.398210 1_555
P10 P23 2.176629 1_555
P10 P16 2.198408 1_655
P10 P2 2.253811 1_655
P10 Re5 2.398210 1_555
P11 P22 2.176629 1_555
P11 P17 2.198408 1_555
P11 P3 2.253811 1_555
P11 Re4 2.398210 1_555
P12 P17 2.176629 1_555
P12 P22 2.198408 1_655
P12 P4 2.253811 1_655
P12 Re3 2.398210 1_555
P13 P16 2.176629 1_555
P13 P23 2.198408 1_555
P13 P5 2.253811 1_555
P13 Re2 2.398210 1_555
P14 P19 2.176629 1_555
P14 P20 2.198408 1_455
P14 P6 2.253811 1_555
P14 Re1 2.398210 1_555
P15 P18 2.176629 1_555
P15 P21 2.198408 1_555
P15 P7 2.253811 1_555
P15 Re0 2.398210 1_555
P16 P31 2.189168 1_565
P16 Re7 2.355860 1_565
P17 P30 2.189168 1_555
P17 Re6 2.355860 1_555
P18 P29 2.189168 1_555
P18 P8 2.198408 1_655
P18 Re5 2.355860 1_555
P19 P28 2.189168 1_545
P19 P9 2.198408 1_555
P19 Re4 2.355860 1_545
P20 P9 2.176629 1_555
P20 P27 2.189168 1_545
P20 Re3 2.355860 1_545
P21 P8 2.176629 1_555
P21 P26 2.189168 1_555
P21 Re2 2.355860 1_555
P22 P25 2.189168 1_555
P22 Re1 2.355860 1_555
P23 P24 2.189168 1_565
P23 Re0 2.355860 1_565
P24 P7 2.210622 1_555
P24 Re3 2.348274 1_544
P24 Re7 2.367026 1_655
P25 P6 2.210622 1_555
P25 Re2 2.348274 1_556
P25 Re6 2.367026 1_555
P26 P5 2.210622 1_555
P26 Re1 2.348274 1_555
P26 Re5 2.367026 1_455
P27 P4 2.210622 1_655
P27 Re0 2.348274 1_565
P27 Re4 2.367026 1_555
P28 P3 2.210622 1_555
P28 Re7 2.348274 1_566
P28 Re3 2.367026 1_455
P29 Re6 2.348274 1_554
P29 Re2 2.367026 1_555
P30 Re5 2.348274 1_555
P30 Re1 2.367026 1_655
P31 Re4 2.348274 1_545
P31 Re0 2.367026 1_555
