# generated using pymatgen
data_Na7Zn2SiGe2P5O24
_symmetry_space_group_name_H-M   'P 1'
_cell_length_a   8.87558844
_cell_length_b   8.88502689
_cell_length_c   21.62843623
_cell_angle_alpha   90.14326542
_cell_angle_beta   89.63353092
_cell_angle_gamma   119.87261079
_symmetry_Int_Tables_number   1
_chemical_formula_structural   Na7Zn2SiGe2P5O24
_chemical_formula_sum   'Na21 Zn6 Si3 Ge6 P15 O72'
_cell_volume   1478.96770517
_cell_formula_units_Z   3
loop_
 _symmetry_equiv_pos_site_id
 _symmetry_equiv_pos_as_xyz
  1  'x, y, z'
loop_
 _atom_site_type_symbol
 _atom_site_label
 _atom_site_symmetry_multiplicity
 _atom_site_fract_x
 _atom_site_fract_y
 _atom_site_fract_z
 _atom_site_occupancy
  Na  Na0  1  0.35714067  0.36980559  0.25374648  1
  Na  Na1  1  0.00992452  0.63808447  0.25236324  1
  Na  Na2  1  0.62718891  0.64456773  0.75083373  1
  Na  Na3  1  0.00935477  0.36972075  0.75425912  1
  Na  Na4  1  0.36001287  0.98676014  0.75216696  1
  Na  Na5  1  0.29296887  0.31288726  0.58310136  1
  Na  Na6  1  0.02542173  0.70564615  0.58542130  1
  Na  Na7  1  0.67819762  0.97216969  0.58945157  1
  Na  Na8  1  0.29477301  0.97547040  0.08561276  1
  Na  Na9  1  0.68591664  0.70773667  0.08418077  1
  Na  Na10  1  0.02622753  0.32404878  0.08733022  1
  Na  Na11  1  0.96012423  0.65361493  0.92234620  1
  Na  Na12  1  0.69391605  0.03827312  0.91856345  1
  Na  Na13  1  0.96352048  0.30786961  0.41883488  1
  Na  Na14  1  0.34778580  0.03950593  0.42154405  1
  Na  Na15  1  0.99382707  0.98710183  0.50381063  1
  Na  Na16  1  0.01301139  0.00630304  0.00390784  1
  Na  Na17  1  0.65024601  0.33167767  0.83965840  1
  Na  Na18  1  0.66657349  0.33652127  0.33849526  1
  Na  Na19  1  0.34923788  0.68343650  0.17291999  1
  Na  Na20  1  0.33887014  0.67169359  0.67114732  1
  Zn  Zn0  1  0.00211369  0.99890983  0.65132616  1
  Zn  Zn1  1  0.99742033  0.99268926  0.15142212  1
  Zn  Zn2  1  0.66390346  0.33760054  0.98423240  1
  Zn  Zn3  1  0.66045261  0.33394152  0.48285452  1
  Zn  Zn4  1  0.34019699  0.67371830  0.31694836  1
  Zn  Zn5  1  0.33909349  0.67285274  0.81777560  1
  Si  Si0  1  0.71056811  0.00700756  0.74794925  1
  Si  Si1  1  0.37340091  0.03425164  0.57989379  1
  Si  Si2  1  0.96430854  0.62490404  0.08060811  1
  Ge  Ge0  1  0.99389538  0.99479556  0.35096001  1
  Ge  Ge1  1  0.00173691  0.00717204  0.85083261  1
  Ge  Ge2  1  0.66261199  0.32241171  0.68417856  1
  Ge  Ge3  1  0.67209897  0.33209937  0.18440665  1
  Ge  Ge4  1  0.32807144  0.66287439  0.01746009  1
  Ge  Ge5  1  0.33894065  0.67260922  0.51751917  1
  P  P0  1  0.30139523  0.00943892  0.24861589  1
  P  P1  1  0.70808206  0.70054085  0.24751141  1
  P  P2  1  0.98594219  0.28337164  0.24870995  1
  P  P3  1  0.29644938  0.28797415  0.74812779  1
  P  P4  1  0.98985033  0.70185116  0.74956525  1
  P  P5  1  0.96441768  0.34352211  0.57996335  1
  P  P6  1  0.65798803  0.61681834  0.58270689  1
  P  P7  1  0.65811005  0.03818414  0.08039885  1
  P  P8  1  0.37980436  0.34173308  0.08380620  1
  P  P9  1  0.62993520  0.67317203  0.91460531  1
  P  P10  1  0.04884620  0.36773628  0.91469799  1
  P  P11  1  0.32417022  0.96094508  0.91472073  1
  P  P12  1  0.63407972  0.95344497  0.41537632  1
  P  P13  1  0.32554509  0.37083504  0.41327750  1
  P  P14  1  0.04155167  0.67447074  0.41361069  1
  O  O0  1  0.21133808  0.04587342  0.30723931  1
  O  O1  1  0.83911121  0.79521373  0.30328228  1
  O  O2  1  0.96358311  0.17162675  0.30893521  1
  O  O3  1  0.20813759  0.15880021  0.80440289  1
  O  O4  1  0.95878810  0.79237991  0.80836267  1
  O  O5  1  0.84194108  0.04701587  0.80983893  1
  O  O6  1  0.79016517  0.97188003  0.68722834  1
  O  O7  1  0.19559057  0.21631305  0.68893528  1
  O  O8  1  0.02864329  0.81024453  0.69157047  1
  O  O9  1  0.78210848  0.79661012  0.18746086  1
  O  O10  1  0.01398134  0.20317206  0.19125140  1
  O  O11  1  0.19644489  0.98343746  0.19042210  1
  O  O12  1  0.88059050  0.38097378  0.63978481  1
  O  O13  1  0.50544285  0.12511715  0.64137666  1
  O  O14  1  0.62431233  0.50114092  0.64368358  1
  O  O15  1  0.87269010  0.49023550  0.14222738  1
  O  O16  1  0.61593704  0.12503209  0.13750284  1
  O  O17  1  0.49752264  0.37727144  0.14395068  1
  O  O18  1  0.45405151  0.29638521  0.02887333  1
  O  O19  1  0.85097513  0.54739831  0.02001135  1
  O  O20  1  0.68804876  0.14129138  0.02143987  1
  O  O21  1  0.44940993  0.14730469  0.51898810  1
  O  O22  1  0.69718890  0.53880973  0.52791205  1
  O  O23  1  0.85759285  0.31577879  0.52281984  1
  O  O24  1  0.53755280  0.70496218  0.97347984  1
  O  O25  1  0.15955378  0.45556685  0.97494662  1
  O  O26  1  0.28852935  0.83508833  0.97336408  1
  O  O27  1  0.55322592  0.84338198  0.47701559  1
  O  O28  1  0.29471396  0.46201469  0.47274540  1
  O  O29  1  0.16692771  0.71241897  0.47201067  1
  O  O30  1  0.12043357  0.64668348  0.35529416  1
  O  O31  1  0.51532207  0.87195406  0.36170341  1
  O  O32  1  0.33665590  0.46724437  0.35477186  1
  O  O33  1  0.13020205  0.47642430  0.85754817  1
  O  O34  1  0.35034136  0.88193109  0.85626557  1
  O  O35  1  0.53377579  0.65843684  0.85563654  1
  O  O36  1  0.03787583  0.85217230  0.40992741  1
  O  O37  1  0.81815536  0.96525636  0.41017215  1
  O  O38  1  0.14926190  0.18526227  0.41347516  1
  O  O39  1  0.03746224  0.18336492  0.91280858  1
  O  O40  1  0.14679380  0.96316968  0.91166846  1
  O  O41  1  0.81373141  0.84915778  0.91473994  1
  O  O42  1  0.99081490  0.18706719  0.58701743  1
  O  O43  1  0.17846863  0.00234422  0.58757490  1
  O  O44  1  0.80956394  0.80219838  0.58839672  1
  O  O45  1  0.99744518  0.82021484  0.08764996  1
  O  O46  1  0.81619731  0.01486413  0.08931794  1
  O  O47  1  0.19283659  0.19335541  0.09144986  1
  O  O48  1  0.70457275  0.19442248  0.74482889  1
  O  O49  1  0.48100484  0.30059503  0.74582390  1
  O  O50  1  0.81356770  0.52366070  0.74588064  1
  O  O51  1  0.70152957  0.51778796  0.24691827  1
  O  O52  1  0.81382253  0.29662290  0.24666920  1
  O  O53  1  0.48167971  0.18568640  0.24546146  1
  O  O54  1  0.65833757  0.51871994  0.91990576  1
  O  O55  1  0.86313439  0.33869779  0.91984460  1
  O  O56  1  0.48368593  0.13878033  0.92280799  1
  O  O57  1  0.66594953  0.13998638  0.42104875  1
  O  O58  1  0.48011112  0.34195941  0.41764660  1
  O  O59  1  0.86266038  0.51626237  0.42217894  1
  O  O60  1  0.37899989  0.51977261  0.07767290  1
  O  O61  1  0.15979450  0.63317263  0.07693940  1
  O  O62  1  0.48703599  0.85325118  0.07749826  1
  O  O63  1  0.36627836  0.84037402  0.57614483  1
  O  O64  1  0.48036710  0.61971449  0.57803989  1
  O  O65  1  0.14818809  0.51569994  0.57670897  1
  O  O66  1  0.32044369  0.84962592  0.25618617  1
  O  O67  1  0.52407161  0.66890938  0.25595086  1
  O  O68  1  0.14293465  0.46868287  0.25394779  1
  O  O69  1  0.32007185  0.46912845  0.75695161  1
  O  O70  1  0.14172828  0.66778970  0.75726386  1
  O  O71  1  0.51470663  0.84405103  0.75410875  1
loop_
_geom_bond_atom_site_label_1
_geom_bond_atom_site_label_2
_geom_bond_distance
_geom_bond_site_symmetry_2
Na0 O67 2.310408 1_555
Na0 O32 2.387288 1_555
Na0 O53 2.393198 1_555
Na0 O68 2.459696 1_555
Na0 O17 2.660208 1_555
Na0 O51 2.661847 1_555
Na0 O0 2.753950 1_555
Na0 O10 2.974263 1_555
Na1 O68 2.330473 1_555
Na1 O51 2.395336 1_455
Na1 O30 2.424134 1_555
Na1 O66 2.444849 1_555
Na1 O52 2.643816 1_455
Na1 O15 2.703900 1_455
Na1 O1 2.745868 1_455
Na2 O69 2.375149 1_555
Na2 O50 2.381038 1_555
Na2 O71 2.429876 1_555
Na2 O35 2.432477 1_555
Na2 O14 2.636088 1_555
Na2 O49 2.661889 1_555
Na2 O4 2.850148 1_555
Na2 O6 2.871664 1_555
Na3 O70 2.301942 1_555
Na3 O48 2.365073 1_455
Na3 O69 2.442199 1_555
Na3 O33 2.459073 1_555
Na3 O50 2.701148 1_455
Na3 O12 2.756350 1_455
Na3 O5 2.761231 1_455
Na3 O7 2.964979 1_555
Na4 O71 2.286891 1_555
Na4 O34 2.423318 1_555
Na4 O49 2.442237 1_565
Na4 O70 2.515324 1_555
Na4 O48 2.675136 1_565
Na4 O13 2.704384 1_565
Na4 O3 2.730286 1_565
Na4 O8 2.876041 1_555
Na5 O42 2.336671 1_455
Na5 O64 2.385943 1_555
Na5 O43 2.421172 1_555
Na5 O7 2.443082 1_555
Na5 O65 2.688448 1_555
Na5 O28 2.729049 1_555
Na5 O21 2.831135 1_555
Na5 O14 2.881247 1_555
Na6 O43 2.286883 1_565
Na6 O65 2.428718 1_555
Na6 O44 2.458860 1_455
Na6 O8 2.469637 1_555
Na6 O63 2.647940 1_555
Na6 O29 2.735647 1_555
Na6 O12 2.767716 1_455
Na6 O22 2.822565 1_455
Na7 O44 2.322541 1_555
Na7 O6 2.342918 1_555
Na7 O63 2.428498 1_555
Na7 O42 2.463414 1_565
Na7 O27 2.685082 1_555
Na7 O64 2.734041 1_555
Na7 O13 2.739520 1_565
Na8 O45 2.289424 1_455
Na8 O11 2.437364 1_555
Na8 O62 2.441952 1_555
Na8 O47 2.514825 1_565
Na8 O61 2.662818 1_555
Na8 O26 2.714882 1_554
Na8 O16 2.722317 1_565
Na8 O18 2.759449 1_565
Na9 O46 2.377571 1_565
Na9 O9 2.384586 1_555
Na9 O60 2.387752 1_555
Na9 O45 2.428839 1_555
Na9 O62 2.661947 1_555
Na9 O24 2.734031 1_554
Na9 O19 2.853952 1_555
Na9 O17 2.861632 1_555
Na10 O47 2.292554 1_555
Na10 O61 2.399115 1_555
Na10 O46 2.433474 1_455
Na10 O10 2.471817 1_555
Na10 O25 2.697028 1_554
Na10 O15 2.724344 1_455
Na10 O60 2.727786 1_555
Na10 O20 2.977399 1_455
Na11 O19 2.316074 1_556
Na11 O54 2.327522 1_555
Na11 O40 2.412884 1_655
Na11 O55 2.484651 1_555
Na11 O41 2.643253 1_555
Na11 O4 2.761889 1_555
Na11 O26 2.768384 1_655
Na12 O55 2.321240 1_555
Na12 O41 2.395682 1_545
Na12 O20 2.413962 1_556
Na12 O56 2.438195 1_555
Na12 O39 2.656148 1_655
Na12 O5 2.668634 1_555
Na12 O24 2.830106 1_545
Na12 O34 2.977864 1_545
Na13 O57 2.297196 1_555
Na13 O38 2.388269 1_655
Na13 O59 2.425812 1_555
Na13 O23 2.446422 1_555
Na13 O37 2.655989 1_545
Na13 O2 2.664874 1_555
Na13 O28 2.810983 1_655
Na13 O30 2.951343 1_655
Na14 O21 2.307898 1_555
Na14 O58 2.337515 1_555
Na14 O36 2.417770 1_545
Na14 O57 2.501959 1_555
Na14 O38 2.662795 1_555
Na14 O29 2.749613 1_545
Na14 O0 2.772911 1_555
Na14 O31 2.876344 1_545
Na15 O43 2.408714 1_665
Na15 O44 2.453759 1_555
Na15 O36 2.481488 1_655
Na15 O37 2.511446 1_555
Na15 O38 2.526592 1_665
Na15 O42 2.535105 1_565
Na16 O45 2.411954 1_445
Na16 O40 2.440485 1_544
Na16 O39 2.464591 1_554
Na16 O47 2.505000 1_555
Na16 O41 2.523361 1_444
Na16 O46 2.561267 1_455
Na17 O54 2.376481 1_555
Na17 O56 2.411344 1_555
Na17 O49 2.464633 1_555
Na17 O48 2.546955 1_555
Na17 O55 2.550670 1_555
Na17 O50 2.577086 1_555
Na18 O58 2.390587 1_555
Na18 O59 2.472331 1_555
Na18 O51 2.474578 1_555
Na18 O52 2.490565 1_555
Na18 O57 2.498632 1_555
Na18 O53 2.525050 1_555
Na19 O66 2.417785 1_555
Na19 O67 2.426091 1_555
Na19 O62 2.485308 1_555
Na19 O68 2.561284 1_555
Na19 O61 2.574494 1_555
Na19 O60 2.605541 1_555
Na20 O71 2.375234 1_555
Na20 O63 2.484595 1_555
Na20 O64 2.527158 1_555
Na20 O69 2.534710 1_555
Na20 O70 2.535775 1_555
Na20 O65 2.578898 1_555
Ge0 O1 1.917672 1_555
Ge0 O37 1.926208 1_555
Ge0 O2 1.948946 1_565
Ge0 O36 1.972810 1_655
Ge0 O0 1.982699 1_665
Ge0 O38 2.069154 1_665
Ge1 O5 1.854932 1_455
Ge1 O3 1.924608 1_555
Ge1 O39 1.961765 1_555
Ge1 O4 1.975401 1_445
Ge1 O40 2.016770 1_545
Ge1 O41 2.076667 1_445
Ge2 O13 1.856964 1_555
Ge2 O48 1.894265 1_555
Ge2 O12 1.977782 1_555
Ge2 O14 1.988201 1_555
Ge2 O49 2.018892 1_555
Ge2 O50 2.097095 1_555
Ge3 O15 1.862758 1_555
Ge3 O16 1.935468 1_555
Ge3 O52 1.978338 1_555
Ge3 O17 1.991519 1_555
Ge3 O53 2.020486 1_555
Ge3 O51 2.045061 1_555
Ge4 O61 1.881431 1_555
Ge4 O25 1.933926 1_554
Ge4 O24 1.946307 1_554
Ge4 O26 1.980044 1_554
Ge4 O60 2.026147 1_555
Ge4 O62 2.042821 1_555
Ge5 O63 1.876892 1_555
Ge5 O27 1.948741 1_555
Ge5 O28 1.963964 1_555
Ge5 O29 1.995914 1_555
Ge5 O65 2.019615 1_555
Ge5 O64 2.030186 1_555
O0 P0 1.610617 1_555
O1 P1 1.597950 1_555
O2 P2 1.590202 1_555
O3 P3 1.584836 1_555
O4 P4 1.597342 1_555
O5 Si0 1.697772 1_555
O6 Si0 1.589652 1_565
O6 Zn0 1.931745 1_655
O7 P3 1.512804 1_555
O7 Zn0 2.011832 1_545
O8 P4 1.513151 1_455
O8 Zn0 2.006528 1_555
O9 P1 1.511002 1_555
O9 Zn1 1.991470 1_555
O10 P2 1.510749 1_455
O10 Zn1 1.995212 1_445
O11 P0 1.518028 1_565
O11 Zn1 2.000675 1_455
O12 P5 1.603271 1_555
O13 Si1 1.692816 1_555
O14 P6 1.606467 1_555
O15 Si2 1.701170 1_555
O16 P7 1.593106 1_555
O17 P8 1.603186 1_555
O18 P8 1.503430 1_555
O18 Zn2 1.958257 1_554
O19 Si2 1.589366 1_555
O19 Zn2 1.938169 1_554
O20 P7 1.514923 1_555
O20 Zn2 2.029134 1_554
O21 Si1 1.587317 1_555
O21 Zn3 1.939796 1_555
O22 P6 1.495601 1_555
O22 Zn3 1.942506 1_555
O23 P5 1.505949 1_555
O23 Zn3 2.033742 1_555
O24 P9 1.609070 1_555
O25 P10 1.587439 1_555
O26 P11 1.615197 1_555
O27 P12 1.594938 1_555
O28 P13 1.611404 1_555
O29 P14 1.609191 1_555
O30 P14 1.517013 1_555
O30 Zn4 2.015858 1_555
O31 P12 1.494679 1_555
O31 Zn4 1.933599 1_555
O32 P13 1.504781 1_555
O32 Zn4 1.996357 1_555
O33 P10 1.510545 1_555
O33 Zn5 1.996791 1_555
O34 P11 1.516412 1_555
O34 Zn5 1.990603 1_555
O35 P9 1.507974 1_555
O35 Zn5 1.977817 1_555
O36 P14 1.597579 1_555
O37 P12 1.587397 1_555
O38 P13 1.611449 1_555
O39 P10 1.590671 1_555
O40 P11 1.586054 1_555
O41 P9 1.601629 1_555
O42 P5 1.528567 1_555
O42 Zn0 2.218092 1_645
O43 Si1 1.615335 1_555
O43 Zn0 2.068133 1_545
O44 P6 1.527008 1_555
O44 Zn0 2.206882 1_655
O45 Si2 1.616152 1_555
O45 Zn1 2.059267 1_555
O46 P7 1.530408 1_555
O46 Zn1 2.185141 1_545
O47 P8 1.528861 1_555
O47 Zn1 2.184469 1_445
O48 Si0 1.693844 1_555
O49 P3 1.585634 1_555
O50 P4 1.579349 1_555
O51 P1 1.595617 1_555
O52 P2 1.590479 1_555
O53 P0 1.587565 1_555
O54 P9 1.518451 1_555
O54 Zn2 2.149202 1_555
O55 P10 1.539486 1_655
O55 Zn2 2.240022 1_555
O56 P11 1.518238 1_545
O56 Zn2 2.155177 1_555
O57 P12 1.540951 1_545
O57 Zn3 2.197831 1_555
O58 P13 1.519590 1_555
O58 Zn3 2.167754 1_555
O59 P14 1.518399 1_655
O59 Zn3 2.156788 1_555
O60 P8 1.591328 1_555
O61 Si2 1.700998 1_455
O62 P7 1.588938 1_565
O63 Si1 1.693764 1_565
O64 P6 1.593308 1_555
O65 P5 1.587172 1_455
O66 P0 1.520620 1_565
O66 Zn4 2.118210 1_555
O67 P1 1.522779 1_555
O67 Zn4 2.108880 1_555
O68 P2 1.543064 1_455
O68 Zn4 2.254254 1_555
O69 P3 1.527703 1_555
O69 Zn5 2.173034 1_555
O70 P4 1.531647 1_455
O70 Zn5 2.175779 1_555
O71 Si0 1.620743 1_565
O71 Zn5 2.064129 1_555
