# generated using pymatgen
data_VXe2F17
_symmetry_space_group_name_H-M   'P 1'
_cell_length_a   9.02038000
_cell_length_b   9.16339900
_cell_length_c   18.27305768
_cell_angle_alpha   62.61302504
_cell_angle_beta   90.00000000
_cell_angle_gamma   90.00000000
_symmetry_Int_Tables_number   1
_chemical_formula_structural   VXe2F17
_chemical_formula_sum   'V4 Xe8 F68'
_cell_volume   1341.11643343
_cell_formula_units_Z   4
loop_
 _symmetry_equiv_pos_site_id
 _symmetry_equiv_pos_as_xyz
  1  'x, y, z'
loop_
 _atom_site_type_symbol
 _atom_site_label
 _atom_site_symmetry_multiplicity
 _atom_site_fract_x
 _atom_site_fract_y
 _atom_site_fract_z
 _atom_site_occupancy
  V  V0  1  0.65840700  0.22729200  0.02143600  1
  V  V1  1  0.15840700  0.77270800  0.47856400  1
  V  V2  1  0.34159300  0.77270800  0.97856400  1
  V  V3  1  0.84159300  0.22729200  0.52143600  1
  Xe  Xe0  1  0.30163800  0.40582400  0.84311900  1
  Xe  Xe1  1  0.80163800  0.59417600  0.65688100  1
  Xe  Xe2  1  0.69836200  0.59417600  0.15688100  1
  Xe  Xe3  1  0.19836200  0.40582400  0.34311900  1
  Xe  Xe4  1  0.21867300  0.11581800  0.12106100  1
  Xe  Xe5  1  0.71867300  0.88418200  0.37893900  1
  Xe  Xe6  1  0.78132700  0.88418200  0.87893900  1
  Xe  Xe7  1  0.28132700  0.11581800  0.62106100  1
  F  F0  1  0.63405800  0.40606700  0.03600000  1
  F  F1  1  0.13405800  0.59393300  0.46400000  1
  F  F2  1  0.36594200  0.59393300  0.96400000  1
  F  F3  1  0.86594200  0.40606700  0.53600000  1
  F  F4  1  0.75916500  0.12581000  0.11439300  1
  F  F5  1  0.25916500  0.87419000  0.38560700  1
  F  F6  1  0.24083500  0.87419000  0.88560700  1
  F  F7  1  0.74083500  0.12581000  0.61439300  1
  F  F8  1  0.81635400  0.30871600  0.95893900  1
  F  F9  1  0.31635400  0.69128400  0.54106100  1
  F  F10  1  0.18364600  0.69128400  0.04106100  1
  F  F11  1  0.68364600  0.30871600  0.45893900  1
  F  F12  1  0.19434000  0.89072300  0.67949600  1
  F  F13  1  0.69434000  0.10927700  0.82050400  1
  F  F14  1  0.80566000  0.10927700  0.32050400  1
  F  F15  1  0.30566000  0.89072300  0.17949600  1
  F  F16  1  0.17848300  0.18896900  0.69531700  1
  F  F17  1  0.67848300  0.81103100  0.80468300  1
  F  F18  1  0.82151700  0.81103100  0.30468300  1
  F  F19  1  0.32151700  0.18896900  0.19531700  1
  F  F20  1  0.41754600  0.01851800  0.71597500  1
  F  F21  1  0.91754600  0.98148200  0.78402500  1
  F  F22  1  0.58245400  0.98148200  0.28402500  1
  F  F23  1  0.08245400  0.01851800  0.21597500  1
  F  F24  1  0.41379600  0.30841200  0.59293100  1
  F  F25  1  0.91379600  0.69158800  0.90706900  1
  F  F26  1  0.58620400  0.69158800  0.40706900  1
  F  F27  1  0.08620400  0.30841200  0.09293100  1
  F  F28  1  0.42857200  0.01940500  0.57425400  1
  F  F29  1  0.92857200  0.98059500  0.92574600  1
  F  F30  1  0.57142800  0.98059500  0.42574600  1
  F  F31  1  0.07142800  0.01940500  0.07425400  1
  F  F32  1  0.25449200  0.27982900  0.47925500  1
  F  F33  1  0.75449200  0.72017100  0.02074500  1
  F  F34  1  0.74550800  0.72017100  0.52074500  1
  F  F35  1  0.24550800  0.27982900  0.97925500  1
  F  F36  1  0.35601600  0.55227100  0.34869400  1
  F  F37  1  0.85601600  0.44772900  0.15130600  1
  F  F38  1  0.64398400  0.44772900  0.65130600  1
  F  F39  1  0.14398400  0.55227100  0.84869400  1
  F  F40  1  0.35649200  0.24843600  0.35033000  1
  F  F41  1  0.85649200  0.75156400  0.14967000  1
  F  F42  1  0.64350800  0.75156400  0.64967000  1
  F  F43  1  0.14350800  0.24843600  0.85033000  1
  F  F44  1  0.25881800  0.51049700  0.22614200  1
  F  F45  1  0.75881800  0.48950300  0.27385800  1
  F  F46  1  0.74118200  0.48950300  0.77385800  1
  F  F47  1  0.24118200  0.51049700  0.72614200  1
  F  F48  1  0.06852000  0.28015500  0.30314500  1
  F  F49  1  0.56852000  0.71984500  0.19685500  1
  F  F50  1  0.93148000  0.71984500  0.69685500  1
  F  F51  1  0.43148000  0.28015500  0.80314500  1
  F  F52  1  0.06503100  0.60262300  0.29920900  1
  F  F53  1  0.56503100  0.39737700  0.20079100  1
  F  F54  1  0.93496900  0.39737700  0.70079100  1
  F  F55  1  0.43496900  0.60262300  0.79920900  1
  F  F56  1  0.02216000  0.14334900  0.58398200  1
  F  F57  1  0.52216000  0.85665100  0.91601800  1
  F  F58  1  0.97784000  0.85665100  0.41601800  1
  F  F59  1  0.47784000  0.14334900  0.08398200  1
  F  F60  1  0.96585300  0.32822200  0.42789700  1
  F  F61  1  0.46585300  0.67177800  0.07210300  1
  F  F62  1  0.03414700  0.67177800  0.57210300  1
  F  F63  1  0.53414700  0.32822200  0.92789700  1
  F  F64  1  0.84240900  0.04669600  0.50663800  1
  F  F65  1  0.34240900  0.95330400  0.99336200  1
  F  F66  1  0.15759100  0.95330400  0.49336200  1
  F  F67  1  0.65759100  0.04669600  0.00663800  1
loop_
_geom_bond_atom_site_label_1
_geom_bond_atom_site_label_2
_geom_bond_distance
_geom_bond_site_symmetry_2
F0 V0 1.789919 1_555
F1 V1 1.789919 1_555
F2 V2 1.789919 1_555
F3 V3 1.789919 1_555
F4 V0 1.767167 1_555
F5 V1 1.767167 1_555
F6 V2 1.767167 1_555
F7 V3 1.767167 1_555
F8 V0 1.762631 1_556
F9 V1 1.762631 1_555
F10 V2 1.762631 1_554
F11 V3 1.762631 1_555
F12 Xe7 1.996013 1_565
F13 Xe6 1.996013 1_545
F14 Xe5 1.996013 1_545
F15 Xe4 1.996013 1_565
F16 Xe7 1.996956 1_555
F17 Xe6 1.996956 1_555
F18 Xe5 1.996956 1_555
F19 Xe4 1.996956 1_555
F20 Xe7 1.972348 1_555
F21 Xe6 1.972348 1_555
F22 Xe5 1.972348 1_555
F23 Xe4 1.972348 1_555
F24 Xe7 1.993000 1_555
F25 Xe6 1.993000 1_555
F26 Xe5 1.993000 1_555
F27 Xe4 1.993000 1_555
F28 Xe7 1.992834 1_555
F29 Xe6 1.992834 1_555
F30 Xe5 1.992834 1_555
F31 Xe4 1.992834 1_555
F32 Xe3 2.266119 1_555
F32 Xe7 2.334304 1_555
F33 Xe2 2.266119 1_555
F33 Xe6 2.334304 1_554
F34 Xe1 2.266119 1_555
F34 Xe5 2.334304 1_555
F35 Xe0 2.266119 1_555
F35 Xe4 2.334304 1_556
F36 Xe3 1.989812 1_555
F37 Xe2 1.989812 1_555
F38 Xe1 1.989812 1_555
F39 Xe0 1.989812 1_555
F40 Xe3 1.989244 1_555
F41 Xe2 1.989244 1_555
F42 Xe1 1.989244 1_555
F43 Xe0 1.989244 1_555
F44 Xe3 1.974892 1_555
F45 Xe2 1.974892 1_555
F46 Xe1 1.974892 1_555
F47 Xe0 1.974892 1_555
F48 Xe3 2.001313 1_555
F49 Xe2 2.001313 1_555
F50 Xe1 2.001313 1_555
F51 Xe0 2.001313 1_555
F52 Xe3 2.002785 1_555
F53 Xe2 2.002785 1_555
F54 Xe1 2.002785 1_555
F55 Xe0 2.002785 1_555
F56 V3 1.934438 1_455
F56 Xe7 2.414684 1_555
F57 V2 1.934438 1_555
F57 Xe6 2.414684 1_555
F58 V1 1.934438 1_655
F58 Xe5 2.414684 1_555
F59 V0 1.934438 1_555
F59 Xe4 2.414684 1_555
F60 V3 1.891797 1_555
F60 Xe3 2.508150 1_655
F61 V2 1.891797 1_554
F61 Xe2 2.508150 1_555
F62 V1 1.891797 1_555
F62 Xe1 2.508150 1_455
F63 V0 1.891797 1_556
F63 Xe0 2.508150 1_555
F64 V3 1.795401 1_555
F65 V2 1.795401 1_555
F66 V1 1.795401 1_555
F67 V0 1.795401 1_555
