# generated using pymatgen
data_CsNaGe2
_symmetry_space_group_name_H-M   'P 1'
_cell_length_a   9.72585599
_cell_length_b   8.54394920
_cell_length_c   13.33475170
_cell_angle_alpha   68.65948400
_cell_angle_beta   90.00000000
_cell_angle_gamma   90.00000000
_symmetry_Int_Tables_number   1
_chemical_formula_structural   CsNaGe2
_chemical_formula_sum   'Cs8 Na8 Ge16'
_cell_volume   1032.10426134
_cell_formula_units_Z   8
loop_
 _symmetry_equiv_pos_site_id
 _symmetry_equiv_pos_as_xyz
  1  'x, y, z'
loop_
 _atom_site_type_symbol
 _atom_site_label
 _atom_site_symmetry_multiplicity
 _atom_site_fract_x
 _atom_site_fract_y
 _atom_site_fract_z
 _atom_site_occupancy
  Cs  Cs0  1  0.98077449  0.49171492  0.27789464  1
  Cs  Cs1  1  0.48077449  0.50828508  0.22210536  1
  Cs  Cs2  1  0.01922551  0.50828508  0.72210536  1
  Cs  Cs3  1  0.51922551  0.49171492  0.77789464  1
  Cs  Cs4  1  0.20398691  0.65385843  0.96562976  1
  Cs  Cs5  1  0.70398691  0.34614157  0.53437024  1
  Cs  Cs6  1  0.79601309  0.34614157  0.03437024  1
  Cs  Cs7  1  0.29601309  0.65385843  0.46562976  1
  Na  Na0  1  0.10065097  0.05419650  0.39634062  1
  Na  Na1  1  0.53587103  0.94980691  0.68569478  1
  Na  Na2  1  0.03587103  0.05019309  0.81430522  1
  Na  Na3  1  0.39934903  0.05419650  0.89634062  1
  Na  Na4  1  0.89934903  0.94580350  0.60365938  1
  Na  Na5  1  0.60065097  0.94580350  0.10365938  1
  Na  Na6  1  0.46412897  0.05019309  0.31430522  1
  Na  Na7  1  0.96412897  0.94980691  0.18569478  1
  Ge  Ge0  1  0.59823262  0.76627036  0.94095708  1
  Ge  Ge1  1  0.16489917  0.18658967  0.98896602  1
  Ge  Ge2  1  0.33510083  0.18658967  0.48896602  1
  Ge  Ge3  1  0.66489917  0.81341033  0.51103398  1
  Ge  Ge4  1  0.68963030  0.78515011  0.32881888  1
  Ge  Ge5  1  0.18963030  0.21484989  0.17118112  1
  Ge  Ge6  1  0.31036970  0.21484989  0.67118112  1
  Ge  Ge7  1  0.81036970  0.78515011  0.82881888  1
  Ge  Ge8  1  0.77742832  0.05563045  0.35415728  1
  Ge  Ge9  1  0.40176738  0.23372964  0.05904292  1
  Ge  Ge10  1  0.90176738  0.76627036  0.44095708  1
  Ge  Ge11  1  0.72257168  0.05563045  0.85415728  1
  Ge  Ge12  1  0.22257168  0.94436955  0.64584272  1
  Ge  Ge13  1  0.27742832  0.94436955  0.14584272  1
  Ge  Ge14  1  0.83510083  0.81341033  0.01103398  1
  Ge  Ge15  1  0.09823262  0.23372964  0.55904292  1
loop_
_geom_bond_atom_site_label_1
_geom_bond_atom_site_label_2
_geom_bond_distance
_geom_bond_site_symmetry_2
Cs0 Na7 3.654345 1_555
Cs0 Na0 3.678376 1_655
Cs0 Ge5 3.767856 1_655
Cs0 Ge15 3.768877 1_655
Cs0 Ge10 3.812290 1_555
Cs0 Ge14 3.886680 1_555
Cs0 Ge4 4.000482 1_555
Cs0 Ge8 4.008743 1_555
Cs1 Na6 3.654345 1_555
Cs1 Na5 3.678376 1_555
Cs1 Ge4 3.767856 1_555
Cs1 Ge0 3.768877 1_554
Cs1 Ge9 3.812290 1_555
Cs1 Ge2 3.886680 1_555
Cs1 Ge5 4.000482 1_555
Cs1 Ge13 4.008743 1_555
Cs2 Na2 3.654345 1_555
Cs2 Na4 3.678376 1_455
Cs2 Ge7 3.767856 1_455
Cs2 Ge10 3.768877 1_455
Cs2 Ge15 3.812290 1_555
Cs2 Ge1 3.886680 1_555
Cs2 Ge6 4.000482 1_555
Cs2 Ge12 4.008743 1_555
Cs3 Na1 3.654345 1_555
Cs3 Na3 3.678376 1_555
Cs3 Ge6 3.767856 1_555
Cs3 Ge9 3.768877 1_556
Cs3 Ge0 3.812290 1_555
Cs3 Ge3 3.886680 1_555
Cs3 Ge7 4.000482 1_555
Cs3 Ge11 4.008743 1_555
Cs4 Na2 3.638519 1_565
Cs4 Na3 3.723354 1_565
Cs4 Ge5 3.757487 1_556
Cs4 Ge9 3.857775 1_556
Cs4 Ge1 3.908424 1_555
Cs4 Ge0 3.937405 1_555
Cs4 Ge14 3.961999 1_456
Cs4 Ge12 4.083392 1_555
Cs4 Ge13 4.097220 1_556
Cs4 Ge7 4.213395 1_455
Cs5 Na1 3.638519 1_545
Cs5 Na4 3.723354 1_545
Cs5 Ge4 3.757487 1_555
Cs5 Ge10 3.857775 1_555
Cs5 Ge3 3.908424 1_555
Cs5 Ge15 3.937405 1_655
Cs5 Ge2 3.961999 1_555
Cs5 Ge11 4.083392 1_555
Cs5 Ge8 4.097220 1_555
Cs5 Ge6 4.213395 1_555
Cs6 Na7 3.638519 1_545
Cs6 Na5 3.723354 1_545
Cs6 Ge7 3.757487 1_554
Cs6 Ge0 3.857775 1_554
Cs6 Ge14 3.908424 1_555
Cs6 Ge9 3.937405 1_555
Cs6 Ge1 3.961999 1_654
Cs6 Ge8 4.083392 1_555
Cs6 Ge11 4.097220 1_554
Cs6 Ge5 4.213395 1_655
Cs7 Na6 3.638519 1_565
Cs7 Na0 3.723354 1_565
Cs7 Ge6 3.757487 1_555
Cs7 Ge15 3.857775 1_555
Cs7 Ge2 3.908424 1_555
Cs7 Ge10 3.937405 1_455
Cs7 Ge3 3.961999 1_555
Cs7 Ge13 4.083392 1_555
Cs7 Ge12 4.097220 1_555
Cs7 Ge4 4.213395 1_555
Ge0 Ge7 2.518600 1_555
Ge0 Ge14 2.572275 1_556
Ge0 Ge11 2.613729 1_565
Ge0 Na3 3.013641 1_565
Ge0 Na5 3.079414 1_556
Ge0 Na1 3.244730 1_555
Ge1 Ge5 2.539104 1_556
Ge1 Ge9 2.572275 1_556
Ge1 Ge13 2.589573 1_546
Ge1 Na3 3.003561 1_555
Ge1 Na2 3.214473 1_555
Ge1 Na7 3.305278 1_446
Ge2 Ge6 2.539104 1_555
Ge2 Na0 3.003561 1_555
Ge2 Na6 3.214473 1_555
Ge2 Na1 3.305278 1_545
Ge3 Ge4 2.539104 1_555
Ge3 Ge8 2.589573 1_565
Ge3 Na4 3.003561 1_555
Ge3 Na1 3.214473 1_555
Ge3 Na6 3.305278 1_565
Ge4 Ge8 2.598503 1_565
Ge4 Na5 2.940778 1_555
Ge4 Na6 3.107507 1_565
Ge4 Na7 3.285564 1_555
Ge5 Ge9 2.518600 1_555
Ge5 Na0 2.940778 1_555
Ge5 Na7 3.107507 1_445
Ge5 Na6 3.285564 1_555
Ge6 Na3 2.940778 1_555
Ge6 Na1 3.107507 1_545
Ge6 Na2 3.285564 1_555
Ge7 Na4 2.940778 1_555
Ge7 Na2 3.107507 1_665
Ge7 Na1 3.285564 1_555
Ge8 Na6 3.096349 1_555
Ge8 Na0 3.192785 1_655
Ge8 Na7 3.261796 1_545
Ge8 Na4 3.329208 1_545
Ge9 Na5 3.013641 1_545
Ge9 Na3 3.079414 1_554
Ge9 Na6 3.244730 1_555
Ge10 Ge4 2.518600 1_555
Ge10 Ge3 2.572275 1_555
Ge10 Ge8 2.613729 1_565
Ge10 Na0 3.013641 1_665
Ge10 Na4 3.079414 1_555
Ge10 Na7 3.244730 1_555
Ge11 Ge14 2.589573 1_546
Ge11 Ge7 2.598503 1_545
Ge11 Na2 3.096349 1_655
Ge11 Na3 3.192785 1_555
Ge11 Na1 3.261796 1_545
Ge11 Na5 3.329208 1_546
Ge12 Ge2 2.589573 1_565
Ge12 Ge6 2.598503 1_565
Ge12 Ge15 2.613729 1_565
Ge12 Na1 3.096349 1_555
Ge12 Na4 3.192785 1_455
Ge12 Na2 3.261796 1_565
Ge12 Na0 3.329208 1_565
Ge13 Ge5 2.598503 1_565
Ge13 Ge9 2.613729 1_565
Ge13 Na7 3.096349 1_455
Ge13 Na5 3.192785 1_555
Ge13 Na6 3.261796 1_565
Ge13 Na3 3.329208 1_564
Ge14 Ge7 2.539104 1_554
Ge14 Na5 3.003561 1_555
Ge14 Na7 3.214473 1_555
Ge14 Na2 3.305278 1_664
Ge15 Ge6 2.518600 1_555
Ge15 Ge2 2.572275 1_555
Ge15 Na4 3.013641 1_445
Ge15 Na0 3.079414 1_555
Ge15 Na2 3.244730 1_555
