# generated using pymatgen
data_Mg2Ga
_symmetry_space_group_name_H-M   'P 1'
_cell_length_a   5.91651946
_cell_length_b   5.91651946
_cell_length_c   4.69178934
_cell_angle_alpha   90.00000000
_cell_angle_beta   90.00000000
_cell_angle_gamma   133.09823532
_symmetry_Int_Tables_number   1
_chemical_formula_structural   Mg2Ga
_chemical_formula_sum   'Mg4 Ga2'
_cell_volume   119.92314450
_cell_formula_units_Z   2
loop_
 _symmetry_equiv_pos_site_id
 _symmetry_equiv_pos_as_xyz
  1  'x, y, z'
loop_
 _atom_site_type_symbol
 _atom_site_label
 _atom_site_symmetry_multiplicity
 _atom_site_fract_x
 _atom_site_fract_y
 _atom_site_fract_z
 _atom_site_occupancy
  Mg  Mg0  1  0.10865091  0.41699329  0.75000000  1
  Mg  Mg1  1  0.41699329  0.10865091  0.75000000  1
  Mg  Mg2  1  0.58300671  0.89134909  0.25000000  1
  Mg  Mg3  1  0.89134909  0.58300671  0.25000000  1
  Ga  Ga0  1  0.77074153  0.77074153  0.75000000  1
  Ga  Ga1  1  0.22925847  0.22925847  0.25000000  1
loop_
_geom_bond_atom_site_label_1
_geom_bond_atom_site_label_2
_geom_bond_distance
_geom_bond_site_symmetry_2
Ga0 Mg1 2.858449 1_665
Ga0 Mg0 2.858449 1_665
Ga0 Mg3 2.886041 1_555
Ga0 Mg2 2.886041 1_555
Ga0 Mg3 2.886041 1_556
Ga0 Mg2 2.886041 1_556
Ga0 Mg0 2.919241 1_555
Ga0 Mg1 2.919241 1_555
Ga1 Mg3 2.858449 1_445
Ga1 Mg2 2.858449 1_445
Ga1 Mg1 2.886041 1_555
Ga1 Mg1 2.886041 1_554
Ga1 Mg0 2.886041 1_554
Ga1 Mg0 2.886041 1_555
Ga1 Mg2 2.919241 1_555
Ga1 Mg3 2.919241 1_555
