# generated using pymatgen
data_La2Mg(CuO2)4
_symmetry_space_group_name_H-M   'P 1'
_cell_length_a   5.80647237
_cell_length_b   5.80653323
_cell_length_c   7.23798206
_cell_angle_alpha   113.65211658
_cell_angle_beta   113.65183802
_cell_angle_gamma   89.99043574
_symmetry_Int_Tables_number   1
_chemical_formula_structural   La2Mg(CuO2)4
_chemical_formula_sum   'La2 Mg1 Cu4 O8'
_cell_volume   200.96189388
_cell_formula_units_Z   1
loop_
 _symmetry_equiv_pos_site_id
 _symmetry_equiv_pos_as_xyz
  1  'x, y, z'
loop_
 _atom_site_type_symbol
 _atom_site_label
 _atom_site_symmetry_multiplicity
 _atom_site_fract_x
 _atom_site_fract_y
 _atom_site_fract_z
 _atom_site_occupancy
  La  La0  1  0.87493800  0.12493800  0.74987700  1
  La  La1  1  0.12495600  0.87495600  0.24991100  1
  Mg  Mg0  1  0.37507000  0.62507000  0.75013900  1
  Cu  Cu0  1  0.51483400  0.06527900  0.08044000  1
  Cu  Cu1  1  0.56560600  0.51516100  0.08044000  1
  Cu  Cu2  1  0.93496400  0.43458000  0.41959500  1
  Cu  Cu3  1  0.48463100  0.48501500  0.41959500  1
  O  O0  1  0.72045400  0.53336800  0.90524200  1
  O  O1  1  0.18478800  0.87187400  0.90524200  1
  O  O2  1  0.27839400  0.46580000  0.12126400  1
  O  O3  1  0.84287000  0.15546400  0.12126400  1
  O  O4  1  0.53405200  0.15696100  0.37870300  1
  O  O5  1  0.84465100  0.72174200  0.37870300  1
  O  O6  1  0.12818100  0.27965700  0.59479300  1
  O  O7  1  0.46661100  0.81513600  0.59479300  1
loop_
_geom_bond_atom_site_label_1
_geom_bond_atom_site_label_2
_geom_bond_distance
_geom_bond_site_symmetry_2
La0 O1 2.522361 1_645
La0 O0 2.522362 1_555
La0 O7 2.522539 1_545
La0 O6 2.522542 1_655
La0 O5 2.702593 1_545
La0 O4 2.702594 1_555
La0 O3 2.703927 1_556
La0 O2 2.703933 1_656
La1 O4 2.488512 1_565
La1 O5 2.488520 1_455
La1 O3 2.488983 1_465
La1 O2 2.488985 1_555
La1 O1 2.646537 1_554
La1 O0 2.646543 1_454
La1 O7 2.647556 1_555
La1 O6 2.647557 1_565
Mg0 O0 2.058776 1_555
Mg0 O1 2.058777 1_555
Mg0 O7 2.059162 1_555
Mg0 O6 2.059173 1_555
Cu0 O3 1.847738 1_555
Cu0 O1 1.857426 1_544
Cu0 O4 1.959840 1_555
Cu1 O2 1.847738 1_555
Cu1 O0 1.857426 1_554
Cu1 O5 1.959841 1_555
Cu2 O5 1.847708 1_555
Cu2 O6 1.857249 1_655
Cu2 O3 1.959878 1_555
Cu3 O4 1.847708 1_555
Cu3 O7 1.857251 1_555
Cu3 O2 1.959878 1_555
