# generated using pymatgen
data_RbAg5Se3
_symmetry_space_group_name_H-M   'P 1'
_cell_length_a   5.99592490
_cell_length_b   5.99592490
_cell_length_c   11.47253479
_cell_angle_alpha   90.00000000
_cell_angle_beta   90.00000000
_cell_angle_gamma   90.00000000
_symmetry_Int_Tables_number   1
_chemical_formula_structural   RbAg5Se3
_chemical_formula_sum   'Rb2 Ag10 Se6'
_cell_volume   412.45042224
_cell_formula_units_Z   2
loop_
 _symmetry_equiv_pos_site_id
 _symmetry_equiv_pos_as_xyz
  1  'x, y, z'
loop_
 _atom_site_type_symbol
 _atom_site_label
 _atom_site_symmetry_multiplicity
 _atom_site_fract_x
 _atom_site_fract_y
 _atom_site_fract_z
 _atom_site_occupancy
  Rb  Rb0  1  0.25000000  0.75000000  0.50000000  1
  Rb  Rb1  1  0.75000000  0.25000000  0.50000000  1
  Ag  Ag0  1  0.05635930  0.55635930  0.81104913  1
  Ag  Ag1  1  0.55635930  0.05635930  0.18895087  1
  Ag  Ag2  1  0.94364070  0.05635930  0.81104913  1
  Ag  Ag3  1  0.05635930  0.94364070  0.18895087  1
  Ag  Ag4  1  0.75000000  0.75000000  -0.00000000  1
  Ag  Ag5  1  0.44364070  0.55635930  0.18895087  1
  Ag  Ag6  1  0.25000000  0.25000000  -0.00000000  1
  Ag  Ag7  1  0.55635930  0.44364070  0.81104913  1
  Ag  Ag8  1  0.94364070  0.44364070  0.18895087  1
  Ag  Ag9  1  0.44364070  0.94364070  0.81104913  1
  Se  Se0  1  0.75000000  0.75000000  0.32405097  1
  Se  Se1  1  0.25000000  0.25000000  0.67594903  1
  Se  Se2  1  0.25000000  0.75000000  -0.00000000  1
  Se  Se3  1  0.75000000  0.75000000  0.67594903  1
  Se  Se4  1  0.25000000  0.25000000  0.32405097  1
  Se  Se5  1  0.75000000  0.25000000  -0.00000000  1
loop_
_geom_bond_atom_site_label_1
_geom_bond_atom_site_label_2
_geom_bond_distance
_geom_bond_site_symmetry_2
Rb0 Se1 3.614201 1_565
Rb0 Se1 3.614201 1_555
Rb0 Se3 3.614201 1_455
Rb0 Se4 3.614201 1_565
Rb0 Se0 3.614201 1_455
Rb0 Se0 3.614201 1_555
Rb0 Se3 3.614201 1_555
Rb0 Se4 3.614201 1_555
Rb1 Se1 3.614201 1_555
Rb1 Se1 3.614201 1_655
Rb1 Se4 3.614201 1_655
Rb1 Se0 3.614201 1_555
Rb1 Se3 3.614201 1_545
Rb1 Se3 3.614201 1_555
Rb1 Se4 3.614201 1_555
Rb1 Se0 3.614201 1_545
Ag0 Se3 2.669193 1_455
Ag0 Se1 2.669193 1_555
Ag0 Se2 2.719415 1_556
Ag1 Se0 2.669193 1_545
Ag1 Se4 2.669193 1_555
Ag1 Se5 2.719415 1_555
Ag2 Se3 2.669193 1_545
Ag2 Se1 2.669193 1_655
Ag2 Se5 2.719415 1_556
Ag3 Se0 2.669193 1_455
Ag3 Se4 2.669193 1_565
Ag3 Se2 2.719415 1_555
Ag4 Se5 2.997962 1_565
Ag4 Se2 2.997962 1_555
Ag4 Se5 2.997962 1_555
Ag4 Se2 2.997962 1_655
Ag5 Se0 2.669193 1_555
Ag5 Se4 2.669193 1_555
Ag5 Se2 2.719415 1_555
Ag6 Se5 2.997962 1_455
Ag6 Se2 2.997962 1_555
Ag6 Se5 2.997962 1_555
Ag6 Se2 2.997962 1_545
Ag7 Se3 2.669193 1_555
Ag7 Se1 2.669193 1_555
Ag7 Se5 2.719415 1_556
Ag8 Se0 2.669193 1_555
Ag8 Se4 2.669193 1_655
Ag8 Se5 2.719415 1_555
Ag9 Se3 2.669193 1_555
Ag9 Se1 2.669193 1_565
Ag9 Se2 2.719415 1_556
