# generated using pymatgen
data_Ba2MgNiWO6
_symmetry_space_group_name_H-M   'P 1'
_cell_length_a   6.26038342
_cell_length_b   6.26038327
_cell_length_c   6.26676154
_cell_angle_alpha   57.05276782
_cell_angle_beta   57.05276856
_cell_angle_gamma   57.00424556
_symmetry_Int_Tables_number   1
_chemical_formula_structural   Ba2MgNiWO6
_chemical_formula_sum   'Ba2 Mg1 Ni1 W1 O6'
_cell_volume   161.80725652
_cell_formula_units_Z   1
loop_
 _symmetry_equiv_pos_site_id
 _symmetry_equiv_pos_as_xyz
  1  'x, y, z'
loop_
 _atom_site_type_symbol
 _atom_site_label
 _atom_site_symmetry_multiplicity
 _atom_site_fract_x
 _atom_site_fract_y
 _atom_site_fract_z
 _atom_site_occupancy
  Ba  Ba0  1  0.21902143  0.21902143  0.21912884  1
  Ba  Ba1  1  0.75728948  0.75728948  0.75799385  1
  Mg  Mg0  1  0.43311382  0.43311382  0.43353040  1
  Ni  Ni0  1  0.58421420  0.58421420  0.58179982  1
  W  W0  1  0.98231635  0.98231635  0.98261340  1
  O  O0  1  0.20817079  0.75685469  0.75863740  1
  O  O1  1  0.21461422  0.74715997  0.21486963  1
  O  O2  1  0.75685469  0.20817079  0.75863740  1
  O  O3  1  0.21458747  0.21458747  0.74759358  1
  O  O4  1  0.74715997  0.21461422  0.21486963  1
  O  O5  1  0.75765758  0.75765758  0.20793004  1
loop_
_geom_bond_atom_site_label_1
_geom_bond_atom_site_label_2
_geom_bond_distance
_geom_bond_site_symmetry_2
Ba0 O1 2.983810 1_545
Ba0 O4 2.983811 1_455
Ba0 O3 2.985439 1_554
Ba0 O0 3.010722 1_554
Ba0 O2 3.010722 1_554
Ba0 O5 3.012190 1_455
Ba0 O5 3.012190 1_545
Ba0 O0 3.021708 1_545
Ba0 O2 3.021708 1_455
Ba0 O1 3.277022 1_555
Ba0 O4 3.277022 1_555
Ba0 O3 3.281793 1_555
Ba1 Ni0 2.729207 1_555
Ba1 O5 2.822151 1_556
Ba1 O2 2.823403 1_565
Ba1 O0 2.823403 1_655
Ba1 O3 3.031086 1_655
Ba1 O3 3.031086 1_565
Ba1 O4 3.033194 1_556
Ba1 O1 3.033194 1_556
Ba1 O4 3.036950 1_565
Ba1 O1 3.036950 1_655
Mg0 O1 1.947695 1_555
Mg0 O4 1.947695 1_555
Mg0 O3 1.948768 1_555
Mg0 Ni0 2.353654 1_555
Ni0 O5 1.896608 1_555
Ni0 O2 1.905828 1_555
Ni0 O0 1.905828 1_555
O0 W0 1.945293 1_455
O1 W0 2.010104 1_454
O2 W0 1.945293 1_545
O3 W0 2.010454 1_445
O4 W0 2.010104 1_544
O5 W0 1.945284 1_554
