# generated using pymatgen
data_VBiO4
_symmetry_space_group_name_H-M   'P 1'
_cell_length_a   6.92556626
_cell_length_b   6.92556626
_cell_length_c   5.17744778
_cell_angle_alpha   68.04993963
_cell_angle_beta   68.04993963
_cell_angle_gamma   116.02028971
_symmetry_Int_Tables_number   1
_chemical_formula_structural   VBiO4
_chemical_formula_sum   'V2 Bi2 O8'
_cell_volume   158.13454078
_cell_formula_units_Z   2
loop_
 _symmetry_equiv_pos_site_id
 _symmetry_equiv_pos_as_xyz
  1  'x, y, z'
loop_
 _atom_site_type_symbol
 _atom_site_label
 _atom_site_symmetry_multiplicity
 _atom_site_fract_x
 _atom_site_fract_y
 _atom_site_fract_z
 _atom_site_occupancy
  V  V0  1  0.12727400  0.87272600  0.25000000  1
  V  V1  1  0.87272600  0.12727400  0.75000000  1
  Bi  Bi0  1  0.62688200  0.37311800  0.25000000  1
  Bi  Bi1  1  0.37311800  0.62688200  0.75000000  1
  O  O0  1  0.20082900  0.29629300  0.36226000  1
  O  O1  1  0.70370700  0.79917100  0.13774000  1
  O  O2  1  0.79917100  0.70370700  0.63774000  1
  O  O3  1  0.29629300  0.20082900  0.86226000  1
  O  O4  1  0.65046900  0.06162400  0.64058700  1
  O  O5  1  0.93837600  0.34953100  0.85941300  1
  O  O6  1  0.34953100  0.93837600  0.35941300  1
  O  O7  1  0.06162400  0.65046900  0.14058700  1
loop_
_geom_bond_atom_site_label_1
_geom_bond_atom_site_label_2
_geom_bond_distance
_geom_bond_site_symmetry_2
Bi0 O6 2.431645 1_545
Bi0 O7 2.431645 1_655
Bi0 O3 2.462481 1_555
Bi0 O2 2.462481 1_554
Bi0 O5 2.462664 1_554
Bi0 O4 2.462664 1_555
Bi0 O1 2.537040 1_555
Bi0 O0 2.537040 1_555
Bi1 O5 2.431645 1_455
Bi1 O4 2.431645 1_565
Bi1 O0 2.462481 1_556
Bi1 O1 2.462481 1_555
Bi1 O6 2.462664 1_555
Bi1 O7 2.462664 1_556
Bi1 O2 2.537040 1_555
Bi1 O3 2.537040 1_555
O0 V1 1.750107 1_455
O1 V1 1.750107 1_564
O2 V0 1.750107 1_655
O3 V0 1.750107 1_546
O4 V1 1.768423 1_555
O5 V1 1.768423 1_555
O6 V0 1.768423 1_555
O7 V0 1.768423 1_555
