# generated using pymatgen
data_Ca3C3Cl2
_symmetry_space_group_name_H-M   'P 1'
_cell_length_a   3.84052644
_cell_length_b   6.97937067
_cell_length_c   11.52304964
_cell_angle_alpha   90.00000000
_cell_angle_beta   90.00000000
_cell_angle_gamma   105.97000881
_symmetry_Int_Tables_number   1
_chemical_formula_structural   Ca3C3Cl2
_chemical_formula_sum   'Ca6 C6 Cl4'
_cell_volume   296.94855382
_cell_formula_units_Z   2
loop_
 _symmetry_equiv_pos_site_id
 _symmetry_equiv_pos_as_xyz
  1  'x, y, z'
loop_
 _atom_site_type_symbol
 _atom_site_label
 _atom_site_symmetry_multiplicity
 _atom_site_fract_x
 _atom_site_fract_y
 _atom_site_fract_z
 _atom_site_occupancy
  Ca  Ca0  1  0.34397687  0.68795474  0.56113867  1
  Ca  Ca1  1  0.65602313  0.31204526  0.43886133  1
  Ca  Ca2  1  0.65602313  0.31204526  0.06113867  1
  Ca  Ca3  1  0.34397687  0.68795474  0.93886133  1
  Ca  Ca4  1  0.87899146  0.75798392  0.25000000  1
  Ca  Ca5  1  0.12100854  0.24201608  0.75000000  1
  C  C0  1  0.73272711  0.46545521  0.63535609  1
  C  C1  1  0.26727289  0.53454479  0.36464391  1
  C  C2  1  0.26727289  0.53454479  0.13535609  1
  C  C3  1  0.73272711  0.46545521  0.86464391  1
  C  C4  1  0.25732189  0.51464278  0.25000000  1
  C  C5  1  0.74267811  0.48535722  0.75000000  1
  Cl  Cl0  1  0.47069358  0.94138716  0.75000000  1
  Cl  Cl1  1  0.52930642  0.05861284  0.25000000  1
  Cl  Cl2  1  -0.00000000  -0.00000000  -0.00000000  1
  Cl  Cl3  1  -0.00000000  -0.00000000  0.50000000  1
loop_
_geom_bond_atom_site_label_1
_geom_bond_atom_site_label_2
_geom_bond_distance
_geom_bond_site_symmetry_2
Ca0 Cl0 2.761868 1_555
Ca0 Cl3 2.927087 1_565
Ca0 Cl3 2.927089 1_665
Ca1 Cl1 2.761868 1_555
Ca1 Cl3 2.927087 1_655
Ca1 Cl3 2.927089 1_555
Ca2 Cl1 2.761868 1_555
Ca2 Cl2 2.927087 1_655
Ca2 Cl2 2.927089 1_555
Ca3 Cl0 2.761868 1_555
Ca3 Cl2 2.927087 1_566
Ca3 Cl2 2.927089 1_666
Ca4 Cl1 2.785065 1_565
Ca4 Cl1 2.785068 1_665
Ca4 Cl3 3.306953 1_665
Ca4 Cl2 3.306953 1_665
Ca5 Cl0 2.785065 1_545
Ca5 Cl0 2.785068 1_445
Ca5 Cl2 3.306953 1_556
Ca5 Cl3 3.306953 1_555
C0 C5 1.327780 1_555
C0 Ca1 2.487230 1_555
C0 Ca0 2.578326 1_655
C0 Ca0 2.578326 1_555
C0 Ca5 2.771353 1_555
C0 Ca5 2.771358 1_655
C1 C4 1.327780 1_555
C1 Ca0 2.487230 1_555
C1 Ca1 2.578326 1_455
C1 Ca1 2.578326 1_555
C1 Ca4 2.771353 1_555
C1 Ca4 2.771358 1_455
C2 C4 1.327780 1_555
C2 Ca3 2.487230 1_554
C2 Ca2 2.578326 1_455
C2 Ca2 2.578326 1_555
C2 Ca4 2.771353 1_555
C2 Ca4 2.771358 1_455
C3 C5 1.327780 1_555
C3 Ca2 2.487230 1_556
C3 Ca3 2.578326 1_655
C3 Ca3 2.578326 1_555
C3 Ca5 2.771353 1_555
C3 Ca5 2.771358 1_655
C4 Ca4 2.520615 1_555
C4 Ca4 2.520621 1_455
C5 Ca5 2.520615 1_555
C5 Ca5 2.520621 1_655
