# generated using pymatgen
data_Li4Cu(PO4)2
_symmetry_space_group_name_H-M   'P 1'
_cell_length_a   10.37230100
_cell_length_b   8.17534900
_cell_length_c   8.27297599
_cell_angle_alpha   73.57839185
_cell_angle_beta   90.00000000
_cell_angle_gamma   90.00000000
_symmetry_Int_Tables_number   1
_chemical_formula_structural   Li4Cu(PO4)2
_chemical_formula_sum   'Li16 Cu4 P8 O32'
_cell_volume   672.90802672
_cell_formula_units_Z   4
loop_
 _symmetry_equiv_pos_site_id
 _symmetry_equiv_pos_as_xyz
  1  'x, y, z'
loop_
 _atom_site_type_symbol
 _atom_site_label
 _atom_site_symmetry_multiplicity
 _atom_site_fract_x
 _atom_site_fract_y
 _atom_site_fract_z
 _atom_site_occupancy
  Li  Li0  1  0.66403700  0.09519900  0.40407300  1
  Li  Li1  1  0.33596300  0.90480100  0.59592700  1
  Li  Li2  1  0.83554300  0.83009300  0.66752700  1
  Li  Li3  1  0.57421900  0.76908600  0.48253600  1
  Li  Li4  1  0.64807700  0.85275200  0.14615600  1
  Li  Li5  1  0.16445700  0.16990700  0.33247300  1
  Li  Li6  1  0.42578100  0.23091400  0.51746400  1
  Li  Li7  1  0.35192300  0.14724800  0.85384400  1
  Li  Li8  1  0.85192300  0.35275200  0.14615600  1
  Li  Li9  1  0.92578100  0.26908600  0.48253600  1
  Li  Li10  1  0.66445700  0.33009300  0.66752700  1
  Li  Li11  1  0.16403700  0.40480100  0.59592700  1
  Li  Li12  1  0.83596300  0.59519900  0.40407300  1
  Li  Li13  1  0.33554300  0.66990700  0.33247300  1
  Li  Li14  1  0.07421900  0.73091400  0.51746400  1
  Li  Li15  1  0.14807700  0.64724800  0.85384400  1
  Cu  Cu0  1  0.14333800  0.92673100  0.08613500  1
  Cu  Cu1  1  0.64333800  0.57326900  0.91386500  1
  Cu  Cu2  1  0.35666200  0.42673100  0.08613500  1
  Cu  Cu3  1  0.85666200  0.07326900  0.91386500  1
  P  P0  1  0.09035900  0.54588000  0.22647000  1
  P  P1  1  0.90964100  0.45412000  0.77353000  1
  P  P2  1  0.40564200  0.52738400  0.70197300  1
  P  P3  1  0.90564200  0.97261600  0.29802700  1
  P  P4  1  0.40964100  0.04588000  0.22647000  1
  P  P5  1  0.09435800  0.02738400  0.70197300  1
  P  P6  1  0.59035900  0.95412000  0.77353000  1
  P  P7  1  0.59435800  0.47261600  0.29802700  1
  O  O0  1  0.32864500  0.90457300  0.18133000  1
  O  O1  1  0.58998000  0.79771600  0.93551000  1
  O  O2  1  0.65393000  0.90281300  0.62451200  1
  O  O3  1  0.94706100  0.99762100  0.74266900  1
  O  O4  1  0.05293900  0.00237900  0.25733100  1
  O  O5  1  0.34607000  0.09718700  0.37548800  1
  O  O6  1  0.41002000  0.20228400  0.06449000  1
  O  O7  1  0.45217200  0.02105700  0.72327100  1
  O  O8  1  0.85033400  0.12975300  0.34264700  1
  O  O9  1  0.17152100  0.05572600  0.85427000  1
  O  O10  1  0.67135500  0.09542700  0.81867000  1
  O  O11  1  0.14966600  0.87024700  0.65735300  1
  O  O12  1  0.60646200  0.30802200  0.44631800  1
  O  O13  1  0.17135500  0.40457300  0.18133000  1
  O  O14  1  0.67152100  0.44427400  0.14573000  1
  O  O15  1  0.35033400  0.37024700  0.65735300  1
  O  O16  1  0.95217200  0.47894300  0.27672900  1
  O  O17  1  0.91002000  0.29771600  0.93551000  1
  O  O18  1  0.44706100  0.50237900  0.25733100  1
  O  O19  1  0.84607000  0.40281300  0.62451200  1
  O  O20  1  0.15393000  0.59718700  0.37548800  1
  O  O21  1  0.55293900  0.49762100  0.74266900  1
  O  O22  1  0.08998000  0.70228400  0.06449000  1
  O  O23  1  0.04782800  0.52105700  0.72327100  1
  O  O24  1  0.64966600  0.62975300  0.34264700  1
  O  O25  1  0.32847900  0.55572600  0.85427000  1
  O  O26  1  0.82864500  0.59542700  0.81867000  1
  O  O27  1  0.39353800  0.69197800  0.55368200  1
  O  O28  1  0.89353800  0.80802200  0.44631800  1
  O  O29  1  0.10646200  0.19197800  0.55368200  1
  O  O30  1  0.82847900  0.94427400  0.14573000  1
  O  O31  1  0.54782800  0.97894300  0.27672900  1
loop_
_geom_bond_atom_site_label_1
_geom_bond_atom_site_label_2
_geom_bond_distance
_geom_bond_site_symmetry_2
Li0 O12 1.962103 1_555
Li0 O8 1.997691 1_555
Li0 O31 2.008042 1_545
Li0 O2 2.046660 1_545
Li1 O27 1.962103 1_555
Li1 O11 1.997691 1_555
Li1 O7 2.008042 1_565
Li1 O5 2.046660 1_565
Li2 O26 1.973029 1_555
Li2 O2 1.977108 1_555
Li2 O28 1.982479 1_555
Li2 O3 2.020295 1_555
Li3 O2 1.996108 1_555
Li3 O24 1.998659 1_555
Li3 O27 2.011517 1_555
Li3 O31 2.065367 1_555
Li4 O31 1.985577 1_555
Li4 O1 2.011417 1_554
Li4 O30 2.014867 1_555
Li4 O24 2.071423 1_555
Li5 O13 1.973029 1_555
Li5 O5 1.977108 1_555
Li5 O29 1.982479 1_555
Li5 O4 2.020295 1_555
Li6 O5 1.996108 1_555
Li6 O15 1.998659 1_555
Li6 O12 2.011517 1_555
Li6 O7 2.065367 1_555
Li7 O7 1.985577 1_555
Li7 O6 2.011417 1_556
Li7 O9 2.014867 1_555
Li7 O15 2.071423 1_555
Li8 O16 1.985577 1_555
Li8 O17 2.011417 1_554
Li8 O14 2.014867 1_555
Li8 O8 2.071423 1_555
Li9 O19 1.996108 1_555
Li9 O8 1.998659 1_555
Li9 O29 2.011517 1_655
Li9 O16 2.065367 1_555
Li10 O10 1.973029 1_555
Li10 O19 1.977108 1_555
Li10 O12 1.982479 1_555
Li10 O21 2.020295 1_555
Li11 O29 1.962103 1_555
Li11 O15 1.997691 1_555
Li11 O23 2.008042 1_555
Li11 O20 2.046660 1_555
Li12 O28 1.962103 1_555
Li12 O24 1.997691 1_555
Li12 O16 2.008042 1_555
Li12 O19 2.046660 1_555
Li13 O0 1.973029 1_555
Li13 O20 1.977108 1_555
Li13 O27 1.982479 1_555
Li13 O18 2.020295 1_555
Li14 O20 1.996108 1_555
Li14 O11 1.998659 1_555
Li14 O28 2.011517 1_455
Li14 O23 2.065367 1_555
Li15 O23 1.985577 1_555
Li15 O22 2.011417 1_556
Li15 O25 2.014867 1_555
Li15 O11 2.071423 1_555
Cu0 O9 1.932192 1_564
Cu0 O4 1.939796 1_565
Cu0 O22 1.972594 1_555
Cu0 O0 2.065598 1_555
Cu1 O14 1.932192 1_556
Cu1 O21 1.939796 1_555
Cu1 O1 1.972594 1_555
Cu1 O26 2.065598 1_555
Cu2 O25 1.932192 1_554
Cu2 O18 1.939796 1_555
Cu2 O6 1.972594 1_555
Cu2 O13 2.065598 1_555
Cu3 O30 1.932192 1_546
Cu3 O3 1.939796 1_545
Cu3 O17 1.972594 1_555
Cu3 O10 2.065598 1_555
O0 P4 1.556837 1_565
O1 P6 1.569052 1_555
O2 P6 1.556582 1_555
O3 P5 1.568578 1_665
O4 P3 1.568578 1_445
O5 P4 1.556582 1_555
O6 P4 1.569052 1_555
O7 P6 1.548578 1_545
O8 P3 1.543960 1_545
O9 P5 1.564224 1_555
O10 P6 1.556837 1_545
O11 P5 1.543960 1_565
O12 P7 1.548585 1_555
O13 P0 1.556837 1_555
O14 P7 1.564224 1_555
O15 P2 1.543960 1_555
O16 P0 1.548578 1_655
O17 P1 1.569052 1_555
O18 P7 1.568578 1_555
O19 P1 1.556582 1_555
O20 P0 1.556582 1_555
O21 P2 1.568578 1_555
O22 P0 1.569052 1_555
O23 P1 1.548578 1_455
O24 P7 1.543960 1_555
O25 P2 1.564224 1_555
O26 P1 1.556837 1_555
O27 P2 1.548585 1_555
O28 P3 1.548585 1_555
O29 P5 1.548585 1_555
O30 P3 1.564224 1_555
O31 P4 1.548578 1_565
