# generated using pymatgen
data_Na9Mg4Nb8Si3(P5O24)3
_symmetry_space_group_name_H-M   'P 1'
_cell_length_a   8.83117177
_cell_length_b   8.83674123
_cell_length_c   22.70305040
_cell_angle_alpha   89.91013796
_cell_angle_beta   90.13618681
_cell_angle_gamma   120.01720958
_symmetry_Int_Tables_number   1
_chemical_formula_structural   Na9Mg4Nb8Si3(P5O24)3
_chemical_formula_sum   'Na9 Mg4 Nb8 Si3 P15 O72'
_cell_volume   1534.08246847
_cell_formula_units_Z   1
loop_
 _symmetry_equiv_pos_site_id
 _symmetry_equiv_pos_as_xyz
  1  'x, y, z'
loop_
 _atom_site_type_symbol
 _atom_site_label
 _atom_site_symmetry_multiplicity
 _atom_site_fract_x
 _atom_site_fract_y
 _atom_site_fract_z
 _atom_site_occupancy
  Na  Na0  1  0.98655763  0.62746633  0.24406020  1
  Na  Na1  1  0.37318039  0.01542003  0.74418981  1
  Na  Na2  1  0.32064806  0.03032313  0.41076283  1
  Na  Na3  1  0.99162067  0.00336511  0.49386291  1
  Na  Na4  1  0.00034855  0.99976933  0.99260351  1
  Na  Na5  1  0.67899475  0.34525936  0.82551217  1
  Na  Na6  1  0.66542455  0.33053928  0.32448605  1
  Na  Na7  1  0.34197987  0.66794445  0.16504874  1
  Na  Na8  1  0.33288334  0.65965761  0.66471200  1
  Mg  Mg0  1  0.99597747  0.00231044  0.35390849  1
  Mg  Mg1  1  0.99866534  0.99839890  0.85439144  1
  Mg  Mg2  1  0.67160115  0.33575079  0.68577574  1
  Mg  Mg3  1  0.66309915  0.32823601  0.18522351  1
  Nb  Nb0  1  0.00269064  0.00155221  0.64634687  1
  Nb  Nb1  1  0.00042513  -0.00005090  0.14577830  1
  Nb  Nb2  1  0.66905926  0.33790231  0.97915674  1
  Nb  Nb3  1  0.66379463  0.33532405  0.48045039  1
  Nb  Nb4  1  0.33084704  0.66770992  0.02119608  1
  Nb  Nb5  1  0.33230556  0.66426824  0.52177810  1
  Nb  Nb6  1  0.33837603  0.66169063  0.31057884  1
  Nb  Nb7  1  0.33377520  0.66365008  0.81088710  1
  Si  Si0  1  0.37862695  0.04506773  0.58746755  1
  Si  Si1  1  0.95311858  0.62117804  0.08773486  1
  Si  Si2  1  0.32846754  0.37071924  0.41719413  1
  P  P0  1  0.29454677  0.00669204  0.25332523  1
  P  P1  1  0.71455027  0.71167180  0.25180521  1
  P  P2  1  0.99364369  0.28454636  0.25224220  1
  P  P3  1  0.28974034  0.28689586  0.75264781  1
  P  P4  1  0.99200153  0.70709784  0.75294021  1
  P  P5  1  0.71672213  0.00584769  0.75303091  1
  P  P6  1  0.95246482  0.33265502  0.58517705  1
  P  P7  1  0.66741701  0.62136820  0.58587441  1
  P  P8  1  0.66733375  0.04785194  0.08437286  1
  P  P9  1  0.38100074  0.33414685  0.08445353  1
  P  P10  1  0.62394164  0.66885715  0.91712523  1
  P  P11  1  0.04469985  0.37510309  0.91665221  1
  P  P12  1  0.33205073  0.95660291  0.91581394  1
  P  P13  1  0.62417992  0.95366540  0.41701113  1
  P  P14  1  0.04280008  0.66272956  0.41549577  1
  O  O0  1  0.21088674  0.02028073  0.30953463  1
  O  O1  1  0.82624691  0.79668023  0.30500120  1
  O  O2  1  0.97910079  0.18195548  0.30637470  1
  O  O3  1  0.20370861  0.17401528  0.80542542  1
  O  O4  1  0.97866828  0.79649158  0.80692210  1
  O  O5  1  0.82070521  0.02171467  0.80698453  1
  O  O6  1  0.79929994  0.97359215  0.69608262  1
  O  O7  1  0.17116064  0.20015429  0.69554687  1
  O  O8  1  0.03072061  0.83094717  0.69635685  1
  O  O9  1  0.80241420  0.82953265  0.19495618  1
  O  O10  1  0.02477226  0.20100843  0.19547927  1
  O  O11  1  0.16799536  0.97377007  0.19788944  1
  O  O12  1  0.88075460  0.36831584  0.63919637  1
  O  O13  1  0.48348119  0.11579512  0.64663707  1
  O  O14  1  0.63423955  0.51231297  0.63936003  1
  O  O15  1  0.88681507  0.51701370  0.14714596  1
  O  O16  1  0.62880243  0.11693654  0.13860265  1
  O  O17  1  0.48845702  0.36789379  0.13864585  1
  O  O18  1  0.46552516  0.30450311  0.02809722  1
  O  O19  1  0.83033876  0.52409893  0.02822616  1
  O  O20  1  0.69113713  0.16075043  0.02816770  1
  O  O21  1  0.47114074  0.16530270  0.52655203  1
  O  O22  1  0.69531754  0.53503620  0.52900568  1
  O  O23  1  0.84135915  0.30931212  0.52859004  1
  O  O24  1  0.52537056  0.68097962  0.97116785  1
  O  O25  1  0.15772144  0.47563186  0.97104409  1
  O  O26  1  0.31942413  0.84056309  0.96976241  1
  O  O27  1  0.52558355  0.84309725  0.47161334  1
  O  O28  1  0.31630405  0.47950395  0.47286790  1
  O  O29  1  0.16217832  0.68773949  0.46950093  1
  O  O30  1  0.13105593  0.63838327  0.35922833  1
  O  O31  1  0.50091667  0.86892870  0.36216990  1
  O  O32  1  0.36153651  0.50130527  0.35950642  1
  O  O33  1  0.13513757  0.49490847  0.86188073  1
  O  O34  1  0.35938012  0.86813783  0.85998101  1
  O  O35  1  0.50416653  0.64053323  0.86183532  1
  O  O36  1  0.02748772  0.82500939  0.41203937  1
  O  O37  1  0.79965587  0.96844872  0.41288098  1
  O  O38  1  0.17007395  0.17674512  0.41520915  1
  O  O39  1  0.02766119  0.19819774  0.91342153  1
  O  O40  1  0.17094122  0.97234920  0.91349862  1
  O  O41  1  0.80256243  0.82623567  0.91314609  1
  O  O42  1  0.97135572  0.16636745  0.58937573  1
  O  O43  1  0.18044904  0.02354997  0.59063153  1
  O  O44  1  0.83054326  0.80764737  0.58964821  1
  O  O45  1  0.97799280  0.81998434  0.09034182  1
  O  O46  1  0.83407135  0.02999852  0.08894302  1
  O  O47  1  0.19351509  0.17140857  0.08948600  1
  O  O48  1  0.67738727  0.15347195  0.74634034  1
  O  O49  1  0.47119056  0.31365240  0.74386406  1
  O  O50  1  0.84317937  0.52598879  0.74347780  1
  O  O51  1  0.68704650  0.52977219  0.24362055  1
  O  O52  1  0.84445028  0.32197093  0.24594041  1
  O  O53  1  0.47440740  0.15924971  0.24368111  1
  O  O54  1  0.62983387  0.49423466  0.92275920  1
  O  O55  1  0.86370394  0.36611714  0.92337879  1
  O  O56  1  0.50322798  0.13539604  0.92361914  1
  O  O57  1  0.63134929  0.13384602  0.42342611  1
  O  O58  1  0.51292776  0.36313167  0.42282793  1
  O  O59  1  0.86536788  0.49354037  0.42328701  1
  O  O60  1  0.35482095  0.49401028  0.07234698  1
  O  O61  1  0.15054204  0.65250270  0.07223653  1
  O  O62  1  0.51128036  0.85910544  0.07213627  1
  O  O63  1  0.34681747  0.84849001  0.57286030  1
  O  O64  1  0.50770718  0.64768571  0.57436694  1
  O  O65  1  0.14074412  0.49101382  0.57406229  1
  O  O66  1  0.29714749  0.82694593  0.25489581  1
  O  O67  1  0.53083323  0.70347349  0.25528336  1
  O  O68  1  0.16856751  0.47629708  0.25590706  1
  O  O69  1  0.30037349  0.47136943  0.75688581  1
  O  O70  1  0.17320563  0.70265768  0.75672089  1
  O  O71  1  0.52482775  0.83049123  0.75770743  1
loop_
_geom_bond_atom_site_label_1
_geom_bond_atom_site_label_2
_geom_bond_distance
_geom_bond_site_symmetry_2
Na0 O51 2.335990 1_555
Na0 O52 2.339820 1_555
Na0 O15 2.388927 1_555
Na0 O66 2.419048 1_655
Na0 O68 2.566231 1_655
Na0 O11 2.850078 1_655
Na0 O1 2.878934 1_555
Na0 O30 2.887206 1_655
Na1 O49 2.326433 1_555
Na1 O48 2.329898 1_555
Na1 O13 2.404231 1_555
Na1 O70 2.440247 1_545
Na1 O71 2.596986 1_545
Na1 O8 2.835574 1_545
Na1 O3 2.872516 1_555
Na1 O34 2.907145 1_545
Na2 O38 2.274877 1_555
Na2 O36 2.301262 1_545
Na2 O57 2.435969 1_555
Na2 O0 2.476513 1_555
Na2 O58 2.571264 1_555
Na2 O31 2.840859 1_545
Na2 O21 2.916612 1_555
Na2 O29 2.942596 1_545
Na3 O38 2.368260 1_655
Na3 O37 2.411015 1_545
Na3 O36 2.558646 1_645
Na3 O42 2.660538 1_555
Na3 O44 2.699088 1_545
Na3 O43 2.706547 1_655
Na4 O40 2.435805 1_555
Na4 O39 2.435866 1_565
Na4 O41 2.443441 1_455
Na4 O45 2.676559 1_456
Na4 O46 2.724157 1_466
Na4 O47 2.729901 1_566
Na5 O50 2.410028 1_555
Na5 O48 2.467514 1_555
Na5 O49 2.520810 1_555
Na5 O55 2.704577 1_555
Na5 O54 2.716882 1_555
Na5 O56 2.816551 1_555
Na6 O52 2.412220 1_555
Na6 O53 2.437523 1_555
Na6 O51 2.482287 1_555
Na6 O58 2.699218 1_555
Na6 O57 2.761321 1_555
Na6 O59 2.769586 1_555
Na7 O67 2.557101 1_555
Na7 O66 2.619378 1_555
Na7 O68 2.622501 1_555
Na7 O60 2.643923 1_555
Na7 O62 2.648652 1_555
Na7 O61 2.658933 1_555
Na8 O69 2.596905 1_555
Na8 O64 2.604038 1_555
Na8 O65 2.607400 1_555
Na8 O63 2.633054 1_555
Na8 O71 2.653770 1_555
Na8 O70 2.654979 1_555
Mg0 O2 1.984306 1_555
Mg0 O1 2.013652 1_545
Mg0 O38 2.074155 1_655
Mg0 O0 2.085471 1_655
Mg0 O37 2.092530 1_545
Mg0 O36 2.168387 1_645
Mg1 O5 1.996493 1_565
Mg1 O4 2.016402 1_555
Mg1 O3 2.028706 1_665
Mg1 O41 2.112244 1_555
Mg1 O40 2.123228 1_655
Mg1 O39 2.128919 1_665
Mg2 O12 2.022201 1_555
Mg2 O13 2.023635 1_555
Mg2 O14 2.040073 1_555
Mg2 O50 2.070513 1_555
Mg2 O48 2.136077 1_555
Mg2 O49 2.138742 1_555
Mg3 O16 2.034035 1_555
Mg3 O15 2.034584 1_555
Mg3 O17 2.037536 1_555
Mg3 O53 2.069468 1_555
Mg3 O52 2.132166 1_555
Mg3 O51 2.145548 1_555
Nb0 O43 1.950757 1_555
Nb0 O7 1.981670 1_555
Nb0 O8 1.997466 1_545
Nb0 O6 2.031510 1_445
Nb0 O42 2.065508 1_455
Nb0 O44 2.072562 1_445
Nb1 O45 1.960155 1_445
Nb1 O9 1.985314 1_445
Nb1 O11 1.994109 1_545
Nb1 O10 2.024611 1_555
Nb1 O47 2.063009 1_555
Nb1 O46 2.067352 1_455
Nb2 O19 1.905361 1_556
Nb2 O20 2.006394 1_556
Nb2 O18 2.007522 1_556
Nb2 O54 2.034455 1_555
Nb2 O55 2.049651 1_555
Nb2 O56 2.076790 1_555
Nb3 O21 1.921829 1_555
Nb3 O58 1.966001 1_555
Nb3 O22 1.979977 1_555
Nb3 O23 2.014435 1_555
Nb3 O59 2.079182 1_555
Nb3 O57 2.103110 1_555
Nb4 O61 1.921053 1_555
Nb4 O26 1.963376 1_554
Nb4 O25 1.978964 1_554
Nb4 O62 2.009488 1_555
Nb4 O24 2.015483 1_554
Nb4 O60 2.016883 1_555
Nb5 O28 1.921675 1_555
Nb5 O63 1.951405 1_555
Nb5 O29 2.002858 1_555
Nb5 O27 2.003150 1_555
Nb5 O65 2.006823 1_555
Nb5 O64 2.015962 1_555
Nb6 O32 1.889029 1_555
Nb6 O67 1.995453 1_555
Nb6 O68 2.003215 1_555
Nb6 O31 2.038304 1_555
Nb6 O30 2.060596 1_555
Nb6 O66 2.094571 1_555
Nb7 O35 1.985562 1_555
Nb7 O69 1.995114 1_555
Nb7 O71 1.998329 1_555
Nb7 O33 2.007018 1_555
Nb7 O70 2.030092 1_555
Nb7 O34 2.038381 1_555
O0 P0 1.510791 1_555
O1 P1 1.500560 1_555
O2 P2 1.493151 1_555
O3 P3 1.500092 1_555
O4 P4 1.495544 1_555
O5 P5 1.493217 1_555
O6 P5 1.580589 1_565
O7 P3 1.599464 1_555
O8 P4 1.608783 1_455
O9 P1 1.595169 1_555
O10 P2 1.577640 1_455
O11 P0 1.608352 1_565
O12 P6 1.486268 1_555
O13 Si0 1.571714 1_555
O14 P7 1.484776 1_555
O15 Si1 1.571633 1_555
O16 P8 1.488783 1_555
O17 P9 1.488502 1_555
O18 P9 1.569731 1_555
O19 Si1 1.674189 1_555
O20 P8 1.566910 1_555
O21 Si0 1.685594 1_555
O22 P7 1.581870 1_555
O23 P6 1.564633 1_555
O24 P10 1.540582 1_555
O25 P11 1.555867 1_555
O26 P12 1.564078 1_555
O27 P13 1.549079 1_555
O28 Si2 1.625121 1_555
O29 P14 1.557290 1_555
O30 P14 1.568113 1_555
O31 P13 1.573781 1_555
O32 Si2 1.670952 1_555
O33 P11 1.568294 1_555
O34 P12 1.571452 1_555
O35 P10 1.577001 1_555
O36 P14 1.508140 1_555
O37 P13 1.491779 1_555
O38 Si2 1.580450 1_555
O39 P11 1.495588 1_555
O40 P12 1.498046 1_555
O41 P10 1.495300 1_555
O42 P6 1.562348 1_555
O43 Si0 1.664907 1_555
O44 P7 1.555494 1_555
O45 Si1 1.658992 1_555
O46 P8 1.560618 1_555
O47 P9 1.562247 1_555
O48 P5 1.515923 1_555
O49 P3 1.511857 1_555
O50 P4 1.493335 1_555
O51 P1 1.512400 1_555
O52 P2 1.516804 1_555
O53 P0 1.498865 1_555
O54 P10 1.574768 1_555
O55 P11 1.568012 1_655
O56 P12 1.556542 1_545
O57 P13 1.568494 1_545
O58 Si2 1.668160 1_555
O59 P14 1.542211 1_655
O60 P9 1.565215 1_555
O61 Si1 1.661295 1_455
O62 P8 1.567857 1_565
O63 Si0 1.649109 1_565
O64 P7 1.561370 1_555
O65 P6 1.568274 1_455
O66 P0 1.600324 1_565
O67 P1 1.589583 1_555
O68 P2 1.626454 1_455
O69 P3 1.588314 1_555
O70 P4 1.622297 1_455
O71 P5 1.630120 1_565
