# generated using pymatgen
data_NaZnP3(H4O5)2
_symmetry_space_group_name_H-M   'P 1'
_cell_length_a   9.34676300
_cell_length_b   14.84485300
_cell_length_c   14.98446900
_cell_angle_alpha   90.00000000
_cell_angle_beta   90.00000000
_cell_angle_gamma   90.00000000
_symmetry_Int_Tables_number   1
_chemical_formula_structural   NaZnP3(H4O5)2
_chemical_formula_sum   'Na8 Zn8 P24 H64 O80'
_cell_volume   2079.11489462
_cell_formula_units_Z   8
loop_
 _symmetry_equiv_pos_site_id
 _symmetry_equiv_pos_as_xyz
  1  'x, y, z'
loop_
 _atom_site_type_symbol
 _atom_site_label
 _atom_site_symmetry_multiplicity
 _atom_site_fract_x
 _atom_site_fract_y
 _atom_site_fract_z
 _atom_site_occupancy
  Na  Na0  1  0.07446300  0.16387600  0.42665900  1
  Na  Na1  1  0.57446300  0.33612400  0.57334100  1
  Na  Na2  1  0.92553700  0.66387600  0.07334100  1
  Na  Na3  1  0.42553700  0.83612400  0.92665900  1
  Na  Na4  1  0.92553700  0.83612400  0.57334100  1
  Na  Na5  1  0.42553700  0.66387600  0.42665900  1
  Na  Na6  1  0.07446300  0.33612400  0.92665900  1
  Na  Na7  1  0.57446300  0.16387600  0.07334100  1
  Zn  Zn0  1  0.44841200  0.16162900  0.45217400  1
  Zn  Zn1  1  0.94841200  0.33837100  0.54782600  1
  Zn  Zn2  1  0.55158800  0.66162900  0.04782600  1
  Zn  Zn3  1  0.05158800  0.83837100  0.95217400  1
  Zn  Zn4  1  0.55158800  0.83837100  0.54782600  1
  Zn  Zn5  1  0.05158800  0.66162900  0.45217400  1
  Zn  Zn6  1  0.44841200  0.33837100  0.95217400  1
  Zn  Zn7  1  0.94841200  0.16162900  0.04782600  1
  P  P0  1  0.23986900  0.22469100  0.61689700  1
  P  P1  1  0.73986900  0.27530900  0.38310300  1
  P  P2  1  0.76013100  0.72469100  0.88310300  1
  P  P3  1  0.26013100  0.77530900  0.11689700  1
  P  P4  1  0.76013100  0.77530900  0.38310300  1
  P  P5  1  0.26013100  0.72469100  0.61689700  1
  P  P6  1  0.23986900  0.27530900  0.11689700  1
  P  P7  1  0.73986900  0.22469100  0.88310300  1
  P  P8  1  0.46596400  0.03163400  0.26155000  1
  P  P9  1  0.96596400  0.46836600  0.73845000  1
  P  P10  1  0.53403600  0.53163400  0.23845000  1
  P  P11  1  0.03403600  0.96836600  0.76155000  1
  P  P12  1  0.53403600  0.96836600  0.73845000  1
  P  P13  1  0.03403600  0.53163400  0.26155000  1
  P  P14  1  0.46596400  0.46836600  0.76155000  1
  P  P15  1  0.96596400  0.03163400  0.23845000  1
  P  P16  1  0.27784200  0.96765000  0.48338000  1
  P  P17  1  0.77784200  0.53235000  0.51662000  1
  P  P18  1  0.72215800  0.46765000  0.01662000  1
  P  P19  1  0.22215800  0.03235000  0.98338000  1
  P  P20  1  0.72215800  0.03235000  0.51662000  1
  P  P21  1  0.22215800  0.46765000  0.48338000  1
  P  P22  1  0.27784200  0.53235000  0.98338000  1
  P  P23  1  0.77784200  0.96765000  0.01662000  1
  H  H0  1  0.23584500  0.13951600  0.65787700  1
  H  H1  1  0.73584500  0.36048400  0.34212300  1
  H  H2  1  0.76415500  0.63951600  0.84212300  1
  H  H3  1  0.26415500  0.86048400  0.15787700  1
  H  H4  1  0.76415500  0.86048400  0.34212300  1
  H  H5  1  0.26415500  0.63951600  0.65787700  1
  H  H6  1  0.23584500  0.36048400  0.15787700  1
  H  H7  1  0.73584500  0.13951600  0.84212300  1
  H  H8  1  0.31540900  0.03628600  0.26221900  1
  H  H9  1  0.81540900  0.46371400  0.73778100  1
  H  H10  1  0.68459100  0.53628600  0.23778100  1
  H  H11  1  0.18459100  0.96371400  0.76221900  1
  H  H12  1  0.68459100  0.96371400  0.73778100  1
  H  H13  1  0.18459100  0.53628600  0.26221900  1
  H  H14  1  0.31540900  0.46371400  0.76221900  1
  H  H15  1  0.81540900  0.03628600  0.23778100  1
  H  H16  1  0.23888000  0.95184700  0.57266300  1
  H  H17  1  0.73888000  0.54815300  0.42733700  1
  H  H18  1  0.76112000  0.45184700  0.92733700  1
  H  H19  1  0.26112000  0.04815300  0.07266300  1
  H  H20  1  0.76112000  0.04815300  0.42733700  1
  H  H21  1  0.26112000  0.45184700  0.57266300  1
  H  H22  1  0.23888000  0.54815300  0.07266300  1
  H  H23  1  0.73888000  0.95184700  0.92733700  1
  H  H24  1  0.29384700  0.23468000  0.31138400  1
  H  H25  1  0.79384700  0.26532000  0.68861600  1
  H  H26  1  0.70615300  0.73468000  0.18861600  1
  H  H27  1  0.20615300  0.76532000  0.81138400  1
  H  H28  1  0.70615300  0.76532000  0.68861600  1
  H  H29  1  0.20615300  0.73468000  0.31138400  1
  H  H30  1  0.29384700  0.26532000  0.81138400  1
  H  H31  1  0.79384700  0.23468000  0.18861600  1
  H  H32  1  0.31325800  0.30660400  0.38978200  1
  H  H33  1  0.81325800  0.19339600  0.61021800  1
  H  H34  1  0.68674200  0.80660400  0.11021800  1
  H  H35  1  0.18674200  0.69339600  0.88978200  1
  H  H36  1  0.68674200  0.69339600  0.61021800  1
  H  H37  1  0.18674200  0.80660400  0.38978200  1
  H  H38  1  0.31325800  0.19339600  0.88978200  1
  H  H39  1  0.81325800  0.30660400  0.11021800  1
  H  H40  1  0.15179500  0.33582900  0.69591100  1
  H  H41  1  0.65179500  0.16417100  0.30408900  1
  H  H42  1  0.84820500  0.83582900  0.80408900  1
  H  H43  1  0.34820500  0.66417100  0.19591100  1
  H  H44  1  0.84820500  0.66417100  0.30408900  1
  H  H45  1  0.34820500  0.83582900  0.69591100  1
  H  H46  1  0.15179500  0.16417100  0.19591100  1
  H  H47  1  0.65179500  0.33582900  0.80408900  1
  H  H48  1  0.47361000  0.92349600  0.36193500  1
  H  H49  1  0.97361000  0.57650400  0.63806500  1
  H  H50  1  0.52639000  0.42349600  0.13806500  1
  H  H51  1  0.02639000  0.07650400  0.86193500  1
  H  H52  1  0.52639000  0.07650400  0.63806500  1
  H  H53  1  0.02639000  0.42349600  0.36193500  1
  H  H54  1  0.47361000  0.57650400  0.86193500  1
  H  H55  1  0.97361000  0.92349600  0.13806500  1
  H  H56  1  0.09533000  0.96758600  0.38623200  1
  H  H57  1  0.59533000  0.53241400  0.61376800  1
  H  H58  1  0.90467000  0.46758600  0.11376800  1
  H  H59  1  0.40467000  0.03241400  0.88623200  1
  H  H60  1  0.90467000  0.03241400  0.61376800  1
  H  H61  1  0.40467000  0.46758600  0.38623200  1
  H  H62  1  0.09533000  0.53241400  0.88623200  1
  H  H63  1  0.59533000  0.96758600  0.11376800  1
  O  O0  1  0.38131500  0.23451100  0.56753300  1
  O  O1  1  0.88131500  0.26548900  0.43246700  1
  O  O2  1  0.61868500  0.73451100  0.93246700  1
  O  O3  1  0.11868500  0.76548900  0.06753300  1
  O  O4  1  0.61868500  0.76548900  0.43246700  1
  O  O5  1  0.11868500  0.73451100  0.56753300  1
  O  O6  1  0.38131500  0.26548900  0.06753300  1
  O  O7  1  0.88131500  0.23451100  0.93246700  1
  O  O8  1  0.52098800  0.10562600  0.32455800  1
  O  O9  1  0.02098800  0.39437400  0.67544200  1
  O  O10  1  0.47901200  0.60562600  0.17544200  1
  O  O11  1  0.97901200  0.89437400  0.82455800  1
  O  O12  1  0.47901200  0.89437400  0.67544200  1
  O  O13  1  0.97901200  0.60562600  0.32455800  1
  O  O14  1  0.52098800  0.39437400  0.82455800  1
  O  O15  1  0.02098800  0.10562600  0.17544200  1
  O  O16  1  0.58430800  0.08435700  0.53548400  1
  O  O17  1  0.08430800  0.41564300  0.46451600  1
  O  O18  1  0.41569200  0.58435700  0.96451600  1
  O  O19  1  0.91569200  0.91564300  0.03548400  1
  O  O20  1  0.41569200  0.91564300  0.46451600  1
  O  O21  1  0.91569200  0.58435700  0.53548400  1
  O  O22  1  0.58430800  0.41564300  0.03548400  1
  O  O23  1  0.08430800  0.08435700  0.96451600  1
  O  O24  1  0.28030700  0.06855900  0.46508400  1
  O  O25  1  0.78030700  0.43144100  0.53491600  1
  O  O26  1  0.71969300  0.56855900  0.03491600  1
  O  O27  1  0.21969300  0.93144100  0.96508400  1
  O  O28  1  0.71969300  0.93144100  0.53491600  1
  O  O29  1  0.21969300  0.56855900  0.46508400  1
  O  O30  1  0.28030700  0.43144100  0.96508400  1
  O  O31  1  0.78030700  0.06855900  0.03491600  1
  O  O32  1  0.60352600  0.26227500  0.43700400  1
  O  O33  1  0.10352600  0.23772500  0.56299600  1
  O  O34  1  0.39647400  0.76227400  0.06299600  1
  O  O35  1  0.89647400  0.73772600  0.93700400  1
  O  O36  1  0.39647400  0.73772600  0.56299600  1
  O  O37  1  0.89647400  0.76227400  0.43700400  1
  O  O38  1  0.60352600  0.23772500  0.93700400  1
  O  O39  1  0.10352600  0.26227500  0.06299600  1
  O  O40  1  0.29397900  0.24229400  0.37705500  1
  O  O41  1  0.79397900  0.25770600  0.62294500  1
  O  O42  1  0.70602100  0.74229400  0.12294500  1
  O  O43  1  0.20602100  0.75770600  0.87705500  1
  O  O44  1  0.70602100  0.75770600  0.62294500  1
  O  O45  1  0.20602100  0.74229400  0.37705500  1
  O  O46  1  0.29397900  0.25770600  0.87705500  1
  O  O47  1  0.79397900  0.24229400  0.12294500  1
  O  O48  1  0.23933700  0.29333700  0.69961600  1
  O  O49  1  0.73933700  0.20666300  0.30038400  1
  O  O50  1  0.76066300  0.79333700  0.80038400  1
  O  O51  1  0.26066300  0.70666300  0.19961600  1
  O  O52  1  0.76066300  0.70666300  0.30038400  1
  O  O53  1  0.26066300  0.79333700  0.69961600  1
  O  O54  1  0.23933700  0.20666300  0.19961600  1
  O  O55  1  0.73933700  0.29333700  0.80038400  1
  O  O56  1  0.50346200  0.93397600  0.29748600  1
  O  O57  1  0.00346200  0.56602400  0.70251400  1
  O  O58  1  0.49653800  0.43397600  0.20251400  1
  O  O59  1  0.99653800  0.06602400  0.79748600  1
  O  O60  1  0.49653800  0.06602400  0.70251400  1
  O  O61  1  0.99653800  0.43397600  0.29748600  1
  O  O62  1  0.50346200  0.56602400  0.79748600  1
  O  O63  1  0.00346200  0.93397600  0.20251400  1
  O  O64  1  0.52015700  0.03884600  0.16625800  1
  O  O65  1  0.02015700  0.46115400  0.83374200  1
  O  O66  1  0.47984300  0.53884600  0.33374200  1
  O  O67  1  0.97984300  0.96115400  0.66625800  1
  O  O68  1  0.47984300  0.96115400  0.83374200  1
  O  O69  1  0.97984300  0.53884600  0.16625800  1
  O  O70  1  0.52015700  0.46115400  0.66625800  1
  O  O71  1  0.02015700  0.03884600  0.33374200  1
  O  O72  1  0.15133400  0.92279800  0.42718600  1
  O  O73  1  0.65133400  0.57720200  0.57281400  1
  O  O74  1  0.84866600  0.42279800  0.07281400  1
  O  O75  1  0.34866600  0.07720200  0.92718600  1
  O  O76  1  0.84866600  0.07720200  0.57281400  1
  O  O77  1  0.34866600  0.42279800  0.42718600  1
  O  O78  1  0.15133400  0.57720200  0.92718600  1
  O  O79  1  0.65133400  0.92279800  0.07281400  1
loop_
_geom_bond_atom_site_label_1
_geom_bond_atom_site_label_2
_geom_bond_distance
_geom_bond_site_symmetry_2
Na0 O33 2.334354 1_555
Na0 O1 2.354161 1_455
Na0 O71 2.375101 1_555
Na0 O24 2.456691 1_555
Na0 O40 2.473328 1_555
Na1 O32 2.334354 1_555
Na1 O0 2.354161 1_555
Na1 O70 2.375101 1_555
Na1 O25 2.456691 1_555
Na1 O41 2.473328 1_555
Na2 O35 2.334361 1_554
Na2 O3 2.354161 1_655
Na2 O69 2.375101 1_555
Na2 O26 2.456691 1_555
Na2 O42 2.473328 1_555
Na3 O34 2.334361 1_556
Na3 O2 2.354161 1_555
Na3 O68 2.375101 1_555
Na3 O27 2.456691 1_555
Na3 O43 2.473328 1_555
Na4 O37 2.334361 1_555
Na4 O5 2.354161 1_655
Na4 O67 2.375101 1_555
Na4 O28 2.456691 1_555
Na4 O44 2.473328 1_555
Na5 O36 2.334361 1_555
Na5 O4 2.354161 1_555
Na5 O66 2.375101 1_555
Na5 O29 2.456691 1_555
Na5 O45 2.473328 1_555
Na6 O39 2.334354 1_556
Na6 O7 2.354161 1_455
Na6 O65 2.375101 1_555
Na6 O30 2.456691 1_555
Na6 O46 2.473328 1_555
Na7 O38 2.334354 1_554
Na7 O6 2.354161 1_555
Na7 O64 2.375101 1_555
Na7 O31 2.456691 1_555
Na7 O47 2.473328 1_555
H0 P0 1.406137 1_555
H1 P1 1.406137 1_555
H2 P2 1.406137 1_555
H3 P3 1.406137 1_555
H4 P4 1.406137 1_555
H5 P5 1.406137 1_555
H6 P6 1.406137 1_555
H7 P7 1.406137 1_555
H8 P8 1.408931 1_555
H9 P9 1.408931 1_555
H10 P10 1.408931 1_555
H11 P11 1.408931 1_555
H12 P12 1.408931 1_555
H13 P13 1.408931 1_555
H14 P14 1.408931 1_555
H15 P15 1.408931 1_555
H16 P16 1.406242 1_555
H17 P17 1.406242 1_555
H18 P18 1.406242 1_556
H19 P19 1.406242 1_554
H20 P20 1.406242 1_555
H21 P21 1.406242 1_555
H22 P22 1.406242 1_554
H23 P23 1.406242 1_556
H24 O40 0.990516 1_555
H25 O41 0.990516 1_555
H26 O42 0.990516 1_555
H27 O43 0.990516 1_555
H28 O44 0.990516 1_555
H29 O45 0.990516 1_555
H30 O46 0.990516 1_555
H31 O47 0.990516 1_555
H32 O40 0.990070 1_555
H33 O41 0.990070 1_555
H34 O42 0.990070 1_555
H35 O43 0.990070 1_555
H36 O44 0.990070 1_555
H37 O45 0.990070 1_555
H38 O46 0.990070 1_555
H39 O47 0.990070 1_555
H40 O48 1.034641 1_555
H40 O9 1.531078 1_555
H41 O49 1.034641 1_555
H41 O8 1.531078 1_555
H42 O50 1.034641 1_555
H42 O11 1.531078 1_555
H43 O51 1.034641 1_555
H43 O10 1.531078 1_555
H44 O52 1.034641 1_555
H44 O13 1.531078 1_555
H45 O53 1.034641 1_555
H45 O12 1.531078 1_555
H46 O54 1.034641 1_555
H46 O15 1.531078 1_555
H47 O55 1.034641 1_555
H47 O14 1.531078 1_555
H48 O56 1.017201 1_555
H48 O20 1.633826 1_555
H49 O57 1.017201 1_655
H49 O21 1.633826 1_555
H50 O58 1.017201 1_555
H50 O22 1.633826 1_555
H51 O59 1.017201 1_455
H51 O23 1.633826 1_555
H52 O60 1.017201 1_555
H52 O16 1.633826 1_555
H53 O61 1.017201 1_455
H53 O17 1.633826 1_555
H54 O62 1.017201 1_555
H54 O18 1.633826 1_555
H55 O63 1.017201 1_655
H55 O19 1.633826 1_555
H56 O72 1.045302 1_555
H56 O71 1.493771 1_565
H57 O73 1.045302 1_555
H57 O70 1.493771 1_555
H58 O74 1.045302 1_555
H58 O69 1.493771 1_555
H59 O75 1.045302 1_555
H59 O68 1.493771 1_545
H60 O76 1.045302 1_555
H60 O67 1.493771 1_545
H61 O77 1.045302 1_555
H61 O66 1.493771 1_555
H62 O78 1.045302 1_555
H62 O65 1.493771 1_555
H63 O79 1.045302 1_555
H63 O64 1.493771 1_565
O0 P0 1.521922 1_555
O0 Zn0 2.133517 1_555
O1 P1 1.521922 1_555
O1 Zn1 2.133517 1_555
O2 P2 1.521922 1_555
O2 Zn2 2.133517 1_556
O3 P3 1.521922 1_555
O3 Zn3 2.133517 1_554
O4 P4 1.521922 1_555
O4 Zn4 2.133517 1_555
O5 P5 1.521922 1_555
O5 Zn5 2.133517 1_555
O6 P6 1.521922 1_555
O6 Zn6 2.133517 1_554
O7 P7 1.521922 1_555
O7 Zn7 2.133517 1_556
O8 P8 1.537006 1_555
O8 Zn0 2.192725 1_555
O9 P9 1.537006 1_455
O9 Zn1 2.192725 1_455
O10 P10 1.537006 1_555
O10 Zn2 2.192725 1_555
O11 P11 1.537006 1_655
O11 Zn3 2.192725 1_655
O12 P12 1.537006 1_555
O12 Zn4 2.192725 1_555
O13 P13 1.537006 1_655
O13 Zn5 2.192725 1_655
O14 P14 1.537006 1_555
O14 Zn6 2.192725 1_555
O15 P15 1.537006 1_455
O15 Zn7 2.192725 1_455
O16 P20 1.528413 1_555
O16 Zn0 2.118393 1_555
O17 P21 1.528413 1_555
O17 Zn1 2.118393 1_455
O18 P22 1.528413 1_555
O18 Zn2 2.118393 1_556
O19 P23 1.528413 1_555
O19 Zn3 2.118393 1_654
O20 P16 1.528413 1_555
O20 Zn4 2.118393 1_555
O21 P17 1.528413 1_555
O21 Zn5 2.118393 1_655
O22 P18 1.528413 1_555
O22 Zn6 2.118393 1_554
O23 P19 1.528413 1_555
O23 Zn7 2.118393 1_456
O24 P16 1.523035 1_545
O24 Zn0 2.101204 1_555
O25 P17 1.523035 1_555
O25 Zn1 2.101204 1_555
O26 P18 1.523035 1_555
O26 Zn2 2.101204 1_555
O27 P19 1.523035 1_565
O27 Zn3 2.101204 1_555
O28 P20 1.523035 1_565
O28 Zn4 2.101204 1_555
O29 P21 1.523035 1_555
O29 Zn5 2.101204 1_555
O30 P22 1.523035 1_555
O30 Zn6 2.101204 1_555
O31 P23 1.523035 1_545
O31 Zn7 2.101204 1_555
O32 P1 1.521114 1_555
O32 Zn0 2.094252 1_555
O33 P0 1.521114 1_555
O33 Zn1 2.094252 1_455
O34 P3 1.521116 1_555
O34 Zn2 2.094242 1_555
O35 P2 1.521116 1_555
O35 Zn3 2.094242 1_655
O36 P5 1.521116 1_555
O36 Zn4 2.094242 1_555
O37 P4 1.521116 1_555
O37 Zn5 2.094242 1_655
O38 P7 1.521114 1_555
O38 Zn6 2.094252 1_555
O39 P6 1.521114 1_555
O39 Zn7 2.094252 1_455
O40 Zn0 2.187343 1_555
O41 Zn1 2.187343 1_555
O42 Zn2 2.187343 1_555
O43 Zn3 2.187343 1_555
O44 Zn4 2.187343 1_555
O45 Zn5 2.187343 1_555
O46 Zn6 2.187343 1_555
O47 Zn7 2.187343 1_555
O48 P0 1.604627 1_555
O49 P1 1.604627 1_555
O50 P2 1.604627 1_555
O51 P3 1.604627 1_555
O52 P4 1.604627 1_555
O53 P5 1.604627 1_555
O54 P6 1.604627 1_555
O55 P7 1.604627 1_555
O56 P8 1.585713 1_565
O57 P9 1.585713 1_455
O58 P10 1.585713 1_555
O59 P11 1.585713 1_645
O60 P12 1.585713 1_545
O61 P13 1.585713 1_655
O62 P14 1.585713 1_555
O63 P15 1.585713 1_465
O64 P8 1.518859 1_555
O65 P9 1.518859 1_455
O66 P10 1.518859 1_555
O67 P11 1.518859 1_655
O68 P12 1.518859 1_555
O69 P13 1.518859 1_655
O70 P14 1.518859 1_555
O71 P15 1.518859 1_455
O72 P16 1.597032 1_555
O73 P17 1.597032 1_555
O74 P18 1.597032 1_555
O75 P19 1.597032 1_555
O76 P20 1.597032 1_555
O77 P21 1.597032 1_555
O78 P22 1.597032 1_555
O79 P23 1.597032 1_555
