# generated using pymatgen
data_Na2CaGaP(SO6)2
_symmetry_space_group_name_H-M   'P 1'
_cell_length_a   9.04555928
_cell_length_b   9.02365875
_cell_length_c   22.63754613
_cell_angle_alpha   91.02857389
_cell_angle_beta   90.00000000
_cell_angle_gamma   120.08031745
_symmetry_Int_Tables_number   1
_chemical_formula_structural   Na2CaGaP(SO6)2
_chemical_formula_sum   'Na12 Ca6 Ga6 P6 S12 O72'
_cell_volume   1598.57324551
_cell_formula_units_Z   6
loop_
 _symmetry_equiv_pos_site_id
 _symmetry_equiv_pos_as_xyz
  1  'x, y, z'
loop_
 _atom_site_type_symbol
 _atom_site_label
 _atom_site_symmetry_multiplicity
 _atom_site_fract_x
 _atom_site_fract_y
 _atom_site_fract_z
 _atom_site_occupancy
  Na  Na0  1  0.99898265  0.63758031  0.24433234  1
  Na  Na1  1  0.63859766  0.63758031  0.74433234  1
  Na  Na2  1  0.65896532  0.96472190  0.57959007  1
  Na  Na3  1  0.30575757  0.96472190  0.07959007  1
  Na  Na4  1  0.69496325  0.02564643  0.91219553  1
  Na  Na5  1  0.33068218  0.02564643  0.41219553  1
  Na  Na6  1  0.98499249  0.99239821  0.50142546  1
  Na  Na7  1  0.00740572  0.99239821  0.00142546  1
  Na  Na8  1  0.65964647  0.31457362  0.83450350  1
  Na  Na9  1  0.65492814  0.31457362  0.33450350  1
  Na  Na10  1  0.33517077  0.65361177  0.16717933  1
  Na  Na11  1  0.31844000  0.65361177  0.66717933  1
  Ca  Ca0  1  0.99257262  0.00732729  0.35347623  1
  Ca  Ca1  1  0.01475467  0.00732729  0.85347623  1
  Ca  Ca2  1  0.66418437  0.32560955  0.68586942  1
  Ca  Ca3  1  0.66142618  0.32560955  0.18586942  1
  Ca  Ca4  1  0.32578249  0.65962240  0.01904484  1
  Ca  Ca5  1  0.33383891  0.65962240  0.51904484  1
  Ga  Ga0  1  0.98570025  0.98112541  0.65290927  1
  Ga  Ga1  1  0.99542516  0.98112541  0.15290927  1
  Ga  Ga2  1  0.66895880  0.34772658  0.98420448  1
  Ga  Ga3  1  0.67876878  0.34772658  0.48420448  1
  Ga  Ga4  1  0.35376651  0.69502917  0.31746616  1
  Ga  Ga5  1  0.34126166  0.69502917  0.81746616  1
  P  P0  1  0.29126768  0.98438172  0.25334974  1
  P  P1  1  0.69311403  0.98438172  0.75334974  1
  P  P2  1  0.68412159  0.63656359  0.58656912  1
  P  P3  1  0.95244300  0.63656359  0.08656912  1
  P  P4  1  0.35556007  0.98227475  0.92294421  1
  P  P5  1  0.62671368  0.98227475  0.42294421  1
  S  S0  1  0.69395244  0.71204323  0.24962346  1
  S  S1  1  0.01780578  0.30303635  0.24792190  1
  S  S2  1  0.28523056  0.30303635  0.74792190  1
  S  S3  1  0.01809080  0.71204323  0.74962346  1
  S  S4  1  0.95591245  0.31871674  0.58310401  1
  S  S5  1  0.35398774  0.04157343  0.58112307  1
  S  S6  1  0.68758669  0.04157343  0.08112307  1
  S  S7  1  0.36280529  0.31871674  0.08310401  1
  S  S8  1  0.62247287  0.65178460  0.91468043  1
  S  S9  1  0.02847498  0.38152754  0.91399840  1
  S  S10  1  0.35305156  0.38152754  0.41399840  1
  S  S11  1  0.02931073  0.65178460  0.41468043  1
  O  O0  1  0.20865016  -0.00127072  0.30931009  1
  O  O1  1  0.79599210  0.79040355  0.30279766  1
  O  O2  1  0.99434086  0.20832814  0.30161376  1
  O  O3  1  0.21398728  0.20832814  0.80161376  1
  O  O4  1  0.99441145  0.79040355  0.80279766  1
  O  O5  1  0.79007912  -0.00127072  0.80931009  1
  O  O6  1  0.78093045  0.95299339  0.69708024  1
  O  O7  1  0.17838197  0.20852969  0.69404944  1
  O  O8  1  0.04193407  0.81689269  0.69637040  1
  O  O9  1  0.77495861  0.81689269  0.19637040  1
  O  O10  1  0.03014772  0.20852969  0.19404944  1
  O  O11  1  0.17206293  0.95299339  0.19708024  1
  O  O12  1  0.87947425  0.34022580  0.63697313  1
  O  O13  1  0.46640774  0.12326547  0.63209288  1
  O  O14  1  0.66606535  0.54649086  0.64425843  1
  O  O15  1  0.88042651  0.54649086  0.14425843  1
  O  O16  1  0.65685872  0.12326547  0.13209288  1
  O  O17  1  0.46075255  0.34022580  0.13697313  1
  O  O18  1  0.44948526  0.29269361  0.02971299  1
  O  O19  1  0.83514303  0.53783049  0.03137554  1
  O  O20  1  0.70526045  0.13944350  0.02592853  1
  O  O21  1  0.43418405  0.13944350  0.52592853  1
  O  O22  1  0.70268846  0.53783049  0.53137554  1
  O  O23  1  0.84320935  0.29269361  0.52971299  1
  O  O24  1  0.53903987  0.67548308  0.96616994  1
  O  O25  1  0.12403183  0.45397507  0.96868109  1
  O  O26  1  0.33618723  0.88491054  0.97877526  1
  O  O27  1  0.54872231  0.88491054  0.47877526  1
  O  O28  1  0.32994224  0.45397507  0.46868109  1
  O  O29  1  0.13644222  0.67548308  0.46616994  1
  O  O30  1  0.10745228  0.62910261  0.35884997  1
  O  O31  1  0.50108732  0.88881294  0.36774300  1
  O  O32  1  0.36426685  0.48426176  0.36097138  1
  O  O33  1  0.11999391  0.48426176  0.86097138  1
  O  O34  1  0.38772461  0.88881294  0.86774300  1
  O  O35  1  0.52164933  0.62910261  0.85884997  1
  O  O36  1  0.01276922  0.80734483  0.41178531  1
  O  O37  1  0.80420092  0.00797704  0.41520101  1
  O  O38  1  0.20933909  0.20225603  0.40940651  1
  O  O39  1  0.99291694  0.20225603  0.90940651  1
  O  O40  1  0.20377612  0.00797704  0.91520101  1
  O  O41  1  0.79457561  0.80734483  0.91178531  1
  O  O42  1  0.96046664  0.15409932  0.58583434  1
  O  O43  1  0.18566435  0.03181430  0.58801798  1
  O  O44  1  0.85081122  0.82020902  0.58865969  1
  O  O45  1  0.96939780  0.82020902  0.08865969  1
  O  O46  1  0.84614995  0.03181430  0.08801798  1
  O  O47  1  0.19363268  0.15409932  0.08583434  1
  O  O48  1  0.66465627  0.13510145  0.74788560  1
  O  O49  1  0.46270910  0.33680596  0.74318442  1
  O  O50  1  0.86448845  0.54059959  0.74388154  1
  O  O51  1  0.67611213  0.54059959  0.24388154  1
  O  O52  1  0.87409787  0.33680596  0.24318442  1
  O  O53  1  0.47044618  0.13510145  0.24788560  1
  O  O54  1  0.63851071  0.49515505  0.91965822  1
  O  O55  1  0.85614054  0.37110681  0.91697890  1
  O  O56  1  0.52887124  0.15899100  0.92579378  1
  O  O57  1  0.63012076  0.15899100  0.42579378  1
  O  O58  1  0.51496727  0.37110681  0.41697890  1
  O  O59  1  0.85664534  0.49515505  0.41965822  1
  O  O60  1  0.33814662  0.46604012  0.07774412  1
  O  O61  1  0.13520156  0.66890666  0.07993493  1
  O  O62  1  0.53528257  0.86651984  0.07709805  1
  O  O63  1  0.33123627  0.86651984  0.57709805  1
  O  O64  1  0.53370410  0.66890666  0.57993493  1
  O  O65  1  0.12789250  0.46604012  0.57774412  1
  O  O66  1  0.29645378  0.80986450  0.25518539  1
  O  O67  1  0.52137821  0.69638698  0.25447424  1
  O  O68  1  0.18058331  0.47627446  0.25101128  1
  O  O69  1  0.29569015  0.47627446  0.75101128  1
  O  O70  1  0.17500777  0.69638698  0.75447424  1
  O  O71  1  0.51340972  0.80986450  0.75518539  1
loop_
_geom_bond_atom_site_label_1
_geom_bond_atom_site_label_2
_geom_bond_distance
_geom_bond_site_symmetry_2
Na0 O66 2.347456 1_655
Na0 O52 2.359471 1_555
Na0 O15 2.450994 1_555
Na0 O51 2.594835 1_555
Na0 O68 2.691593 1_655
Na0 O11 2.708976 1_655
Na0 O30 2.787729 1_655
Na1 O71 2.347464 1_555
Na1 O49 2.359470 1_555
Na1 O14 2.450996 1_555
Na1 O50 2.594843 1_555
Na1 O69 2.691601 1_555
Na1 O6 2.708976 1_555
Na1 O35 2.787732 1_555
Na2 O64 2.319080 1_555
Na2 O42 2.386966 1_565
Na2 O27 2.437746 1_555
Na2 O63 2.634675 1_555
Na2 O44 2.651826 1_555
Na2 O23 2.826086 1_565
Na2 O6 2.903350 1_555
Na2 O13 2.988323 1_565
Na3 O61 2.319081 1_555
Na3 O47 2.386973 1_565
Na3 O26 2.437741 1_554
Na3 O62 2.634658 1_555
Na3 O45 2.651834 1_455
Na3 O18 2.826086 1_565
Na3 O11 2.903354 1_555
Na3 O16 2.988323 1_565
Na4 O39 2.346410 1_555
Na4 O56 2.366143 1_555
Na4 O5 2.532391 1_555
Na4 O41 2.543818 1_545
Na4 O34 2.603153 1_545
Na4 O55 2.699438 1_555
Na4 O20 2.738811 1_556
Na5 O38 2.346402 1_555
Na5 O57 2.366159 1_555
Na5 O0 2.532387 1_555
Na5 O36 2.543811 1_545
Na5 O31 2.603153 1_545
Na5 O58 2.699439 1_555
Na5 O21 2.738813 1_555
Na6 O44 2.450878 1_555
Na6 O42 2.460464 1_565
Na6 O43 2.567440 1_665
Na6 O37 2.597003 1_565
Na6 O36 2.695973 1_655
Na6 O38 2.886671 1_665
Na7 O45 2.450878 1_455
Na7 O47 2.460464 1_565
Na7 O46 2.567440 1_465
Na7 O40 2.597003 1_564
Na7 O41 2.695973 1_454
Na7 O39 2.886671 1_464
Na8 O55 2.441744 1_555
Na8 O56 2.465868 1_555
Na8 O48 2.535583 1_555
Na8 O54 2.570479 1_555
Na8 O49 2.803620 1_555
Na8 O50 2.857190 1_555
Na9 O58 2.441744 1_555
Na9 O57 2.465868 1_555
Na9 O53 2.535583 1_555
Na9 O59 2.570479 1_555
Na9 O52 2.803620 1_555
Na9 O51 2.857190 1_555
Na10 O68 2.446113 1_555
Na10 O67 2.492400 1_555
Na10 O66 2.544374 1_555
Na10 O60 2.624344 1_555
Na10 O61 2.729760 1_555
Na10 O62 2.789372 1_555
Na11 O69 2.446113 1_555
Na11 O70 2.492400 1_555
Na11 O71 2.544374 1_555
Na11 O65 2.624344 1_555
Na11 O64 2.729760 1_555
Na11 O63 2.789372 1_555
Ca0 O2 2.171573 1_555
Ca0 O1 2.177134 1_545
Ca0 O37 2.205802 1_555
Ca0 O0 2.230495 1_655
Ca0 O38 2.237054 1_655
Ca0 O36 2.334136 1_645
Ca1 O3 2.171573 1_555
Ca1 O4 2.177134 1_445
Ca1 O40 2.205802 1_555
Ca1 O5 2.230495 1_455
Ca1 O39 2.237054 1_455
Ca1 O41 2.334136 1_445
Ca2 O13 2.159195 1_555
Ca2 O12 2.186963 1_555
Ca2 O14 2.212168 1_555
Ca2 O48 2.240575 1_555
Ca2 O50 2.270695 1_555
Ca2 O49 2.279222 1_555
Ca3 O16 2.159195 1_555
Ca3 O17 2.186963 1_555
Ca3 O15 2.212168 1_555
Ca3 O53 2.240575 1_555
Ca3 O51 2.270695 1_555
Ca3 O52 2.279222 1_555
Ca4 O25 2.145498 1_554
Ca4 O26 2.201680 1_554
Ca4 O24 2.214442 1_554
Ca4 O61 2.240427 1_555
Ca4 O60 2.260264 1_555
Ca4 O62 2.273584 1_555
Ca5 O28 2.145498 1_555
Ca5 O27 2.201680 1_555
Ca5 O29 2.214442 1_555
Ca5 O64 2.240427 1_555
Ca5 O65 2.260264 1_555
Ca5 O63 2.273584 1_555
Ga0 O44 1.964895 1_555
Ga0 O6 2.008211 1_555
Ga0 O8 2.056935 1_655
Ga0 O7 2.112366 1_665
Ga0 O43 2.198546 1_665
Ga0 O42 2.288268 1_565
Ga1 O45 1.964895 1_555
Ga1 O11 2.008211 1_655
Ga1 O9 2.056936 1_555
Ga1 O10 2.112366 1_665
Ga1 O46 2.198546 1_565
Ga1 O47 2.288268 1_665
Ga2 O19 1.921450 1_556
Ga2 O56 2.002610 1_555
Ga2 O18 2.068643 1_556
Ga2 O54 2.101849 1_555
Ga2 O55 2.209231 1_555
Ga2 O20 2.283590 1_556
Ga3 O22 1.921450 1_555
Ga3 O57 2.002610 1_555
Ga3 O23 2.068643 1_555
Ga3 O59 2.101849 1_555
Ga3 O58 2.209231 1_555
Ga3 O21 2.283590 1_555
Ga4 O31 1.929142 1_555
Ga4 O66 1.980224 1_555
Ga4 O67 2.077081 1_555
Ga4 O32 2.201018 1_555
Ga4 O30 2.210675 1_555
Ga4 O68 2.325365 1_555
Ga5 O34 1.929142 1_555
Ga5 O71 1.980224 1_555
Ga5 O70 2.077081 1_555
Ga5 O33 2.201018 1_555
Ga5 O35 2.210675 1_555
Ga5 O69 2.325365 1_555
O0 P0 1.507032 1_545
O1 S0 1.454683 1_555
O2 S1 1.451964 1_655
O3 S2 1.451964 1_555
O4 S3 1.454683 1_655
O5 P1 1.507033 1_545
O6 P1 1.595735 1_555
O7 S2 1.511655 1_555
O8 S3 1.493768 1_555
O9 S0 1.493768 1_555
O10 S1 1.511655 1_555
O11 P0 1.595735 1_555
O12 S4 1.459062 1_555
O13 S5 1.458371 1_555
O14 P2 1.515857 1_555
O15 P3 1.515857 1_555
O16 S6 1.458371 1_555
O17 S7 1.459062 1_555
O18 S7 1.518254 1_555
O19 P3 1.578960 1_555
O20 S6 1.504913 1_555
O21 S5 1.504913 1_555
O22 P2 1.578960 1_555
O23 S4 1.518254 1_555
O24 S8 1.458337 1_555
O25 S9 1.453052 1_555
O26 P4 1.511798 1_555
O27 P5 1.511798 1_555
O28 S10 1.453052 1_555
O29 S11 1.458337 1_555
O30 S11 1.508176 1_555
O31 P5 1.601750 1_555
O32 S10 1.502110 1_555
O33 S9 1.502110 1_555
O34 P4 1.601750 1_555
O35 S8 1.508176 1_555
O36 S11 1.486932 1_555
O37 P5 1.513359 1_545
O38 S10 1.484432 1_555
O39 S9 1.484435 1_655
O40 P4 1.513350 1_545
O41 S8 1.486938 1_555
O42 S4 1.508881 1_555
O43 S5 1.488775 1_555
O44 P2 1.585662 1_555
O45 P3 1.585666 1_555
O46 S6 1.488766 1_555
O47 S7 1.508886 1_555
O48 P1 1.512702 1_545
O49 S2 1.480685 1_555
O50 S3 1.476078 1_655
O51 S0 1.476081 1_555
O52 S1 1.480675 1_655
O53 P0 1.512708 1_545
O54 S8 1.497537 1_555
O55 S9 1.515497 1_655
O56 P4 1.579562 1_545
O57 P5 1.579554 1_545
O58 S10 1.515515 1_555
O59 S11 1.497527 1_655
O60 S7 1.461096 1_555
O61 P3 1.535765 1_455
O62 S6 1.488236 1_565
O63 S5 1.488229 1_565
O64 P2 1.535783 1_555
O65 S4 1.461085 1_455
O66 P0 1.600086 1_555
O67 S0 1.499439 1_555
O68 S1 1.518344 1_555
O69 S2 1.518348 1_555
O70 S3 1.499430 1_555
O71 P1 1.600091 1_555
