# generated using pymatgen
data_MgNi2(AgO2)2
_symmetry_space_group_name_H-M   'P 1'
_cell_length_a   3.03359119
_cell_length_b   3.03359059
_cell_length_c   14.22455794
_cell_angle_alpha   90.00000000
_cell_angle_beta   90.00000000
_cell_angle_gamma   120.00000639
_symmetry_Int_Tables_number   1
_chemical_formula_structural   MgNi2(AgO2)2
_chemical_formula_sum   'Mg1 Ni2 Ag2 O4'
_cell_volume   113.36615207
_cell_formula_units_Z   1
loop_
 _symmetry_equiv_pos_site_id
 _symmetry_equiv_pos_as_xyz
  1  'x, y, z'
loop_
 _atom_site_type_symbol
 _atom_site_label
 _atom_site_symmetry_multiplicity
 _atom_site_fract_x
 _atom_site_fract_y
 _atom_site_fract_z
 _atom_site_occupancy
  Mg  Mg0  1  0.00000000  0.00000000  0.63094524  1
  Ni  Ni0  1  0.00000000  0.00000000  0.44846937  1
  Ni  Ni1  1  -0.00000000  -0.00000000  0.02475161  1
  Ag  Ag0  1  0.66666600  0.33333200  0.80179888  1
  Ag  Ag1  1  0.33333400  0.66666700  0.24076578  1
  O  O0  1  0.33333400  0.66666700  0.38771234  1
  O  O1  1  0.66666600  0.33333200  0.95645730  1
  O  O2  1  0.66666600  0.33333200  0.56492369  1
  O  O3  1  0.33333400  0.66666700  0.09521779  1
loop_
_geom_bond_atom_site_label_1
_geom_bond_atom_site_label_2
_geom_bond_distance
_geom_bond_site_symmetry_2
Mg0 O2 1.987338 1_455
Mg0 O2 1.987338 1_555
Mg0 O2 1.987342 1_445
Ni0 O0 1.953066 1_445
Ni0 O0 1.953068 1_555
Ni0 O0 1.953068 1_545
Ni0 O2 2.410722 1_455
Ni0 O2 2.410722 1_555
Ni0 O2 2.410726 1_445
Ni1 O1 2.002818 1_454
Ni1 O1 2.002818 1_554
Ni1 O1 2.002822 1_444
Ni1 O3 2.017984 1_445
Ni1 O3 2.017986 1_555
Ni1 O3 2.017986 1_545
Ag0 O1 2.199948 1_555
Ag1 O3 2.070356 1_555
Ag1 O0 2.090250 1_555
