# generated using pymatgen
data_MgNb4O10
_symmetry_space_group_name_H-M   'P 1'
_cell_length_a   5.11302399
_cell_length_b   5.68944356
_cell_length_c   7.06843674
_cell_angle_alpha   102.89077377
_cell_angle_beta   111.78118182
_cell_angle_gamma   90.06167287
_symmetry_Int_Tables_number   1
_chemical_formula_structural   MgNb4O10
_chemical_formula_sum   'Mg1 Nb4 O10'
_cell_volume   185.33008005
_cell_formula_units_Z   1
loop_
 _symmetry_equiv_pos_site_id
 _symmetry_equiv_pos_as_xyz
  1  'x, y, z'
loop_
 _atom_site_type_symbol
 _atom_site_label
 _atom_site_symmetry_multiplicity
 _atom_site_fract_x
 _atom_site_fract_y
 _atom_site_fract_z
 _atom_site_occupancy
  Mg  Mg0  1  0.70476400  0.34976800  0.94301200  1
  Nb  Nb0  1  0.38645200  0.27418800  0.25957600  1
  Nb  Nb1  1  0.06879900  0.19795700  0.66256400  1
  Nb  Nb2  1  0.59688800  0.73175800  0.72725000  1
  Nb  Nb3  1  0.92171900  0.79535200  0.31998500  1
  O  O0  1  0.73443400  0.37043700  0.60723200  1
  O  O1  1  0.14791900  0.15029000  0.39622600  1
  O  O2  1  0.27554900  0.63904000  0.40912000  1
  O  O3  1  0.85996100  0.84739600  0.60020400  1
  O  O4  1  0.86376300  0.72779400  0.99969100  1
  O  O5  1  0.09487600  0.24654200  0.98864100  1
  O  O6  1  0.35012900  0.49868700  0.77022400  1
  O  O7  1  0.57559300  0.99919900  0.23062400  1
  O  O8  1  0.66544900  0.48014900  0.21971900  1
  O  O9  1  0.45370500  0.03668200  0.79185800  1
loop_
_geom_bond_atom_site_label_1
_geom_bond_atom_site_label_2
_geom_bond_distance
_geom_bond_site_symmetry_2
Mg0 O5 2.009275 1_655
Mg0 O8 2.015168 1_556
Mg0 O9 2.022473 1_555
Mg0 O6 2.078206 1_555
Mg0 O4 2.194821 1_555
Mg0 O0 2.462065 1_555
Nb0 O7 1.852611 1_545
Nb0 O5 1.913414 1_554
Nb0 O8 1.982271 1_555
Nb0 O1 2.023252 1_555
Nb0 O2 2.283896 1_555
Nb0 O0 2.378446 1_555
Nb1 O0 1.928049 1_455
Nb1 O1 2.029529 1_555
Nb1 O6 2.043794 1_555
Nb1 O3 2.136902 1_445
Nb1 O9 2.143261 1_555
Nb1 O5 2.212268 1_555
Nb2 O4 1.907944 1_555
Nb2 O9 1.910909 1_565
Nb2 O6 1.975614 1_555
Nb2 O3 2.051028 1_555
Nb2 O2 2.182047 1_555
Nb2 O0 2.260088 1_555
Nb3 O2 1.966829 1_655
Nb3 O8 2.043017 1_555
Nb3 O3 2.076843 1_555
Nb3 O7 2.092310 1_555
Nb3 O4 2.115360 1_554
Nb3 O1 2.180113 1_665
