# generated using pymatgen
data_Na(NiO2)2
_symmetry_space_group_name_H-M   'P 1'
_cell_length_a   4.86511345
_cell_length_b   5.66380941
_cell_length_c   11.06387262
_cell_angle_alpha   92.01105976
_cell_angle_beta   90.11216071
_cell_angle_gamma   91.19520258
_symmetry_Int_Tables_number   1
_chemical_formula_structural   Na(NiO2)2
_chemical_formula_sum   'Na4 Ni8 O16'
_cell_volume   304.61067693
_cell_formula_units_Z   4
loop_
 _symmetry_equiv_pos_site_id
 _symmetry_equiv_pos_as_xyz
  1  'x, y, z'
loop_
 _atom_site_type_symbol
 _atom_site_label
 _atom_site_symmetry_multiplicity
 _atom_site_fract_x
 _atom_site_fract_y
 _atom_site_fract_z
 _atom_site_occupancy
  Na  Na0  1  0.01051289  0.75859561  0.25222366  1
  Na  Na1  1  0.35572955  0.74881994  0.74988384  1
  Na  Na2  1  0.64547037  0.25254819  0.24908095  1
  Na  Na3  1  0.98569574  0.24432211  0.74929887  1
  Ni  Ni0  1  0.00390107  0.24738190  0.00237892  1
  Ni  Ni1  1  0.99781550  0.75059655  0.99804034  1
  Ni  Ni2  1  0.00149342  0.25034695  0.49651506  1
  Ni  Ni3  1  -0.00118671  0.74975922  0.50370180  1
  Ni  Ni4  1  0.50005630  0.50136446  -0.00193660  1
  Ni  Ni5  1  0.50008356  0.99759200  0.00124651  1
  Ni  Ni6  1  0.50014106  0.00024392  0.50006689  1
  Ni  Ni7  1  0.50007402  0.49997530  0.49997482  1
  O  O0  1  0.17801617  0.98961228  0.59285829  1
  O  O1  1  0.16645068  -0.00506224  0.91210100  1
  O  O2  1  0.17799983  0.48554434  0.59146521  1
  O  O3  1  0.17019410  0.51738314  0.90535649  1
  O  O4  1  0.34343814  0.25878869  0.08458057  1
  O  O5  1  0.34241985  0.24007481  0.41221244  1
  O  O6  1  0.31375718  0.77227383  0.09033384  1
  O  O7  1  0.33489049  0.74072086  0.41499661  1
  O  O8  1  0.66482158  0.25964288  0.58530289  1
  O  O9  1  0.68315069  0.22217554  0.91194573  1
  O  O10  1  0.65833161  0.75998258  0.58760639  1
  O  O11  1  0.66052621  0.74429908  0.91381602  1
  O  O12  1  0.82184318  0.01134997  0.40742951  1
  O  O13  1  0.82259756  0.51395301  0.40843809  1
  O  O14  1  0.81899344  0.98375612  0.09423117  1
  O  O15  1  0.84278551  0.50396093  0.08685271  1
loop_
_geom_bond_atom_site_label_1
_geom_bond_atom_site_label_2
_geom_bond_distance
_geom_bond_site_symmetry_2
Na0 O6 2.325085 1_555
Na0 O12 2.393541 1_465
Na0 O14 2.397847 1_455
Na0 O7 2.398401 1_555
Na0 O15 2.419355 1_455
Na0 O13 2.421630 1_455
Na1 O10 2.325791 1_555
Na1 O11 2.341681 1_555
Na1 O3 2.367874 1_555
Na1 O2 2.408330 1_555
Na1 O0 2.415643 1_555
Na1 O1 2.428309 1_565
Na2 O5 2.334810 1_555
Na2 O4 2.338611 1_555
Na2 O13 2.408482 1_555
Na2 O14 2.416973 1_545
Na2 O12 2.425456 1_555
Na2 O15 2.509948 1_555
Na3 O9 2.332165 1_555
Na3 O8 2.396310 1_555
Na3 O0 2.416576 1_645
Na3 O2 2.431425 1_655
Na3 O3 2.434609 1_655
Na3 O1 2.497393 1_655
Ni0 O9 1.852337 1_454
Ni0 O4 1.882970 1_555
Ni0 O15 1.885418 1_455
Ni0 O1 1.901945 1_554
Ni0 O14 2.031130 1_445
Ni0 O3 2.052408 1_554
Ni1 O6 1.843259 1_656
Ni1 O3 1.858516 1_655
Ni1 O1 1.881593 1_665
Ni1 O15 1.881755 1_556
Ni1 O11 1.884561 1_555
Ni1 O14 1.893758 1_556
Ni2 O12 1.849685 1_455
Ni2 O2 1.861732 1_555
Ni2 O5 1.905445 1_555
Ni2 O8 1.912301 1_455
Ni2 O13 2.022176 1_455
Ni2 O0 2.052887 1_545
Ni3 O0 1.852505 1_555
Ni3 O13 1.865339 1_455
Ni3 O10 1.901393 1_455
Ni3 O7 1.909309 1_555
Ni3 O2 2.023687 1_555
Ni3 O12 2.057023 1_465
Ni4 O11 1.849206 1_554
Ni4 O4 1.853630 1_555
Ni4 O3 1.908372 1_554
Ni4 O15 1.933148 1_555
Ni4 O9 2.039133 1_554
Ni4 O6 2.041983 1_555
Ni5 O9 1.852507 1_564
Ni5 O6 1.861545 1_555
Ni5 O14 1.864469 1_555
Ni5 O11 1.885566 1_554
Ni5 O4 1.890359 1_565
Ni5 O1 1.897190 1_564
Ni6 O12 1.873693 1_555
Ni6 O5 1.874024 1_555
Ni6 O10 1.874936 1_545
Ni6 O0 1.876256 1_545
Ni6 O8 1.881604 1_555
Ni6 O7 1.882403 1_545
Ni7 O2 1.869022 1_555
Ni7 O13 1.871020 1_555
Ni7 O8 1.875973 1_555
Ni7 O7 1.876632 1_555
Ni7 O5 1.883521 1_555
Ni7 O10 1.884420 1_555
