# generated using pymatgen
data_Na2CaInP(SO6)2
_symmetry_space_group_name_H-M   'P 1'
_cell_length_a   9.17585022
_cell_length_b   9.15280135
_cell_length_c   23.35819829
_cell_angle_alpha   90.32838903
_cell_angle_beta   90.00000000
_cell_angle_gamma   120.08333745
_symmetry_Int_Tables_number   1
_chemical_formula_structural   Na2CaInP(SO6)2
_chemical_formula_sum   'Na12 Ca6 In6 P6 S12 O72'
_cell_volume   1697.44409748
_cell_formula_units_Z   6
loop_
 _symmetry_equiv_pos_site_id
 _symmetry_equiv_pos_as_xyz
  1  'x, y, z'
loop_
 _atom_site_type_symbol
 _atom_site_label
 _atom_site_symmetry_multiplicity
 _atom_site_fract_x
 _atom_site_fract_y
 _atom_site_fract_z
 _atom_site_occupancy
  Na  Na0  1  0.00183702  0.64082573  0.24366268  1
  Na  Na1  1  0.63898872  0.64082573  0.74366268  1
  Na  Na2  1  0.66219825  0.95994809  0.58013587  1
  Na  Na3  1  0.29775083  0.95994809  0.08013587  1
  Na  Na4  1  0.69163175  0.02666866  0.91080511  1
  Na  Na5  1  0.33503591  0.02666866  0.41080511  1
  Na  Na6  1  0.97987692  0.98882654  0.49876719  1
  Na  Na7  1  0.00894962  0.98882654  0.99876719  1
  Na  Na8  1  0.65933617  0.31338098  0.83199191  1
  Na  Na9  1  0.65404582  0.31338098  0.33199191  1
  Na  Na10  1  0.33243942  0.65977397  0.16575917  1
  Na  Na11  1  0.32733355  0.65977397  0.66575917  1
  Ca  Ca0  1  0.99163280  0.00400312  0.35169019  1
  Ca  Ca1  1  0.01237031  0.00400312  0.85169019  1
  Ca  Ca2  1  0.66574522  0.32724568  0.68451012  1
  Ca  Ca3  1  0.66150146  0.32724568  0.18451012  1
  Ca  Ca4  1  0.32453019  0.66022031  0.01764183  1
  Ca  Ca5  1  0.33568913  0.66022031  0.51764183  1
  In  In0  1  0.99504715  0.99375903  0.65243352  1
  In  In1  1  0.99871188  0.99375903  0.15243352  1
  In  In2  1  0.67116437  0.34429112  0.98567934  1
  In  In3  1  0.67312775  0.34429112  0.48567934  1
  In  In4  1  0.34716718  0.68091699  0.31868376  1
  In  In5  1  0.33374880  0.68091699  0.81868376  1
  P  P0  1  0.29595393  0.99195551  0.25278472  1
  P  P1  1  0.69600158  0.99195551  0.75278472  1
  P  P2  1  0.67454277  0.63693884  0.58656505  1
  P  P3  1  0.96239707  0.63693884  0.08656505  1
  P  P4  1  0.34532015  0.97651406  0.92181284  1
  P  P5  1  0.63119291  0.97651406  0.42181284  1
  S  S0  1  0.69779925  0.70471618  0.25007157  1
  S  S1  1  0.00944414  0.30464329  0.24965768  1
  S  S2  1  0.29519915  0.30464329  0.74965768  1
  S  S3  1  0.00691693  0.70471618  0.75007157  1
  S  S4  1  0.96195594  0.32618962  0.58417049  1
  S  S5  1  0.36118380  0.03752417  0.58214128  1
  S  S6  1  0.67634136  0.03752417  0.08214128  1
  S  S7  1  0.36423467  0.32618962  0.08417049  1
  S  S8  1  0.62638193  0.66013362  0.91539043  1
  S  S9  1  0.03007253  0.37134897  0.91546560  1
  S  S10  1  0.34127544  0.37134897  0.41546560  1
  S  S11  1  0.03375069  0.66013362  0.41539043  1
  O  O0  1  0.20932718  0.00532221  0.30672858  1
  O  O1  1  0.79996467  0.78777993  0.30065597  1
  O  O2  1  0.98719744  0.20414527  0.30028590  1
  O  O3  1  0.21694784  0.20414527  0.80028590  1
  O  O4  1  0.98781526  0.78777993  0.80065597  1
  O  O5  1  0.79599503  0.00532221  0.80672858  1
  O  O6  1  0.77882243  0.96297785  0.69721499  1
  O  O7  1  0.19599874  0.22216618  0.69642680  1
  O  O8  1  0.03558796  0.80825418  0.69738418  1
  O  O9  1  0.77266622  0.80825418  0.19738418  1
  O  O10  1  0.02616744  0.22216618  0.19642680  1
  O  O11  1  0.18415542  0.96297785  0.19721499  1
  O  O12  1  0.88125015  0.34492460  0.63514750  1
  O  O13  1  0.47180189  0.12234452  0.63100772  1
  O  O14  1  0.66063382  0.54357420  0.64180818  1
  O  O15  1  0.88294137  0.54357420  0.14180818  1
  O  O16  1  0.65054363  0.12234452  0.13100772  1
  O  O17  1  0.46367545  0.34492460  0.13514750  1
  O  O18  1  0.44125840  0.29529502  0.03169077  1
  O  O19  1  0.85384841  0.54809203  0.03204000  1
  O  O20  1  0.69866213  0.13448403  0.02783557  1
  O  O21  1  0.43582289  0.13448403  0.52783557  1
  O  O22  1  0.69424463  0.54809203  0.53204000  1
  O  O23  1  0.85403761  0.29529502  0.53169077  1
  O  O24  1  0.53965196  0.67901515  0.96492460  1
  O  O25  1  0.12869683  0.44966107  0.96687358  1
  O  O26  1  0.32862110  0.87840349  0.97637425  1
  O  O27  1  0.54978139  0.87840349  0.47637425  1
  O  O28  1  0.32096323  0.44966107  0.46687358  1
  O  O29  1  0.13936219  0.67901515  0.46492460  1
  O  O30  1  0.10762300  0.63508338  0.36104283  1
  O  O31  1  0.51253704  0.89156475  0.36806900  1
  O  O32  1  0.35737902  0.47089747  0.36288800  1
  O  O33  1  0.11351744  0.47089747  0.86288800  1
  O  O34  1  0.37902671  0.89156475  0.86806900  1
  O  O35  1  0.52745938  0.63508338  0.86104283  1
  O  O36  1  0.02420480  0.81710385  0.41188168  1
  O  O37  1  0.80650881  0.00006455  0.41490485  1
  O  O38  1  0.19667474  0.19666052  0.41146506  1
  O  O39  1  -0.00001422  0.19666052  0.91146506  1
  O  O40  1  0.19355574  0.00006455  0.91490485  1
  O  O41  1  0.79289905  0.81710385  0.91188168  1
  O  O42  1  0.97149635  0.16572313  0.58776125  1
  O  O43  1  0.19245897  0.02342262  0.58860801  1
  O  O44  1  0.83678083  0.82126395  0.58664307  1
  O  O45  1  0.98448312  0.82126395  0.08664307  1
  O  O46  1  0.83096364  0.02342262  0.08860801  1
  O  O47  1  0.19422678  0.16572313  0.08776125  1
  O  O48  1  0.67007382  0.14330477  0.74772494  1
  O  O49  1  0.46947684  0.33395663  0.74535965  1
  O  O50  1  0.85053746  0.53922817  0.74495390  1
  O  O51  1  0.68869171  0.53922817  0.24495390  1
  O  O52  1  0.86448080  0.33395663  0.24535965  1
  O  O53  1  0.47323195  0.14330477  0.24772494  1
  O  O54  1  0.64752174  0.50896265  0.91972226  1
  O  O55  1  0.85820819  0.35572256  0.91849956  1
  O  O56  1  0.51772013  0.15300043  0.92396398  1
  O  O57  1  0.63528130  0.15300043  0.42396398  1
  O  O58  1  0.49751537  0.35572256  0.41849956  1
  O  O59  1  0.86144192  0.50896265  0.41972226  1
  O  O60  1  0.34379846  0.47382016  0.07850271  1
  O  O61  1  0.14299763  0.66516380  0.08166157  1
  O  O62  1  0.52413281  0.86753940  0.07814283  1
  O  O63  1  0.34340559  0.86753940  0.57814283  1
  O  O64  1  0.52216517  0.66516380  0.58166157  1
  O  O65  1  0.13002070  0.47382016  0.57850271  1
  O  O66  1  0.29874523  0.81855692  0.25399400  1
  O  O67  1  0.52422357  0.68085334  0.25432922  1
  O  O68  1  0.16618270  0.47654277  0.25366269  1
  O  O69  1  0.31035907  0.47654277  0.75366269  1
  O  O70  1  0.15662877  0.68085334  0.75432922  1
  O  O71  1  0.51981069  0.81855692  0.75399400  1
loop_
_geom_bond_atom_site_label_1
_geom_bond_atom_site_label_2
_geom_bond_distance
_geom_bond_site_symmetry_2
Na0 O66 2.383121 1_555
Na0 O52 2.435429 1_455
Na0 O51 2.538414 1_455
Na0 O15 2.577792 1_455
Na0 O68 2.620473 1_555
Na0 O11 2.785936 1_555
Na0 O30 2.918078 1_555
Na1 O71 2.383129 1_555
Na1 O49 2.435428 1_555
Na1 O50 2.538422 1_555
Na1 O14 2.577794 1_555
Na1 O69 2.620481 1_555
Na1 O6 2.785936 1_555
Na1 O35 2.918081 1_555
Na2 O64 2.336144 1_555
Na2 O44 2.498265 1_555
Na2 O42 2.504209 1_565
Na2 O27 2.588972 1_555
Na2 O63 2.606433 1_555
Na3 O61 2.336145 1_555
Na3 O45 2.498273 1_455
Na3 O47 2.504216 1_565
Na3 O26 2.588967 1_554
Na3 O62 2.606416 1_555
Na4 O56 2.413251 1_555
Na4 O39 2.452139 1_655
Na4 O41 2.516062 1_545
Na4 O55 2.611142 1_555
Na4 O5 2.654674 1_555
Na4 O34 2.680171 1_545
Na4 O20 2.890658 1_556
Na5 O57 2.413268 1_555
Na5 O38 2.452131 1_555
Na5 O36 2.516055 1_545
Na5 O58 2.611142 1_555
Na5 O0 2.654671 1_555
Na5 O31 2.680171 1_545
Na5 O21 2.890660 1_555
Na6 O44 2.511315 1_555
Na6 O37 2.558273 1_565
Na6 O42 2.652320 1_565
Na6 O36 2.712746 1_655
Na6 O43 2.771667 1_665
Na6 O38 2.825794 1_665
Na7 O45 2.511315 1_456
Na7 O40 2.558273 1_565
Na7 O47 2.652320 1_566
Na7 O41 2.712746 1_455
Na7 O46 2.771667 1_466
Na7 O39 2.825794 1_565
Na8 O48 2.534932 1_555
Na8 O56 2.565625 1_555
Na8 O55 2.616349 1_555
Na8 O49 2.738354 1_555
Na8 O54 2.751018 1_555
Na8 O50 2.810119 1_555
Na9 O53 2.534932 1_555
Na9 O57 2.565625 1_555
Na9 O58 2.616349 1_555
Na9 O52 2.738354 1_555
Na9 O59 2.751018 1_555
Na9 O51 2.810119 1_555
Na10 O68 2.613496 1_555
Na10 O66 2.621367 1_555
Na10 O61 2.640058 1_555
Na10 O67 2.658795 1_555
Na10 O60 2.683247 1_555
Na10 O62 2.754966 1_555
Na11 O69 2.613496 1_555
Na11 O71 2.621367 1_555
Na11 O64 2.640058 1_555
Na11 O70 2.658795 1_555
Na11 O65 2.683247 1_555
Na11 O63 2.754966 1_555
Ca0 O2 2.213376 1_555
Ca0 O1 2.216833 1_545
Ca0 O37 2.237474 1_555
Ca0 O0 2.251491 1_655
Ca0 O38 2.290081 1_655
Ca0 O36 2.352132 1_645
Ca1 O3 2.213376 1_555
Ca1 O4 2.216833 1_445
Ca1 O40 2.237474 1_555
Ca1 O5 2.251491 1_455
Ca1 O39 2.290081 1_555
Ca1 O41 2.352132 1_445
Ca2 O13 2.207532 1_555
Ca2 O12 2.224247 1_555
Ca2 O14 2.243496 1_555
Ca2 O48 2.260937 1_555
Ca2 O50 2.302911 1_555
Ca2 O49 2.318882 1_555
Ca3 O16 2.207532 1_555
Ca3 O17 2.224247 1_555
Ca3 O15 2.243496 1_555
Ca3 O53 2.260937 1_555
Ca3 O51 2.302911 1_555
Ca3 O52 2.318882 1_555
Ca4 O25 2.202584 1_554
Ca4 O26 2.205778 1_554
Ca4 O61 2.255575 1_555
Ca4 O24 2.259265 1_554
Ca4 O60 2.300680 1_555
Ca4 O62 2.331822 1_555
Ca5 O28 2.202584 1_555
Ca5 O27 2.205778 1_555
Ca5 O64 2.255575 1_555
Ca5 O29 2.259265 1_555
Ca5 O65 2.300680 1_555
Ca5 O63 2.331822 1_555
In0 O6 2.133765 1_555
In0 O44 2.153329 1_555
In0 O8 2.185697 1_655
In0 O7 2.221998 1_665
In0 O43 2.255922 1_665
In0 O42 2.274701 1_565
In1 O11 2.133765 1_655
In1 O45 2.153329 1_555
In1 O9 2.185697 1_555
In1 O10 2.221998 1_665
In1 O46 2.255922 1_565
In1 O47 2.274701 1_665
In2 O19 2.074667 1_556
In2 O56 2.150737 1_555
In2 O18 2.205362 1_556
In2 O54 2.246490 1_555
In2 O20 2.286558 1_556
In2 O55 2.289285 1_555
In3 O22 2.074667 1_555
In3 O57 2.150737 1_555
In3 O23 2.205362 1_555
In3 O59 2.246490 1_555
In3 O21 2.286558 1_555
In3 O58 2.289285 1_555
In4 O31 2.095711 1_555
In4 O66 2.156545 1_555
In4 O67 2.213602 1_555
In4 O32 2.230098 1_555
In4 O30 2.250913 1_555
In4 O68 2.327407 1_555
In5 O34 2.095711 1_555
In5 O71 2.156546 1_555
In5 O70 2.213602 1_555
In5 O33 2.230098 1_555
In5 O35 2.250914 1_555
In5 O69 2.327407 1_555
O0 P0 1.526498 1_545
O1 S0 1.458802 1_555
O2 S1 1.452758 1_655
O3 S2 1.452758 1_555
O4 S3 1.458802 1_655
O5 P1 1.526498 1_545
O6 P1 1.590855 1_555
O7 S2 1.498257 1_555
O8 S3 1.498427 1_555
O9 S0 1.498427 1_555
O10 S1 1.498257 1_555
O11 P0 1.590855 1_555
O12 S4 1.456234 1_555
O13 S5 1.461400 1_555
O14 P2 1.521487 1_555
O15 P3 1.521487 1_555
O16 S6 1.461400 1_555
O17 S7 1.456234 1_555
O18 S7 1.509474 1_555
O19 P3 1.565744 1_555
O20 S6 1.506406 1_555
O21 S5 1.506406 1_555
O22 P2 1.565744 1_555
O23 S4 1.509474 1_555
O24 S8 1.462019 1_555
O25 S9 1.454127 1_555
O26 P4 1.526196 1_555
O27 P5 1.526196 1_555
O28 S10 1.454127 1_555
O29 S11 1.462019 1_555
O30 S11 1.508656 1_555
O31 P5 1.583042 1_555
O32 S10 1.496045 1_555
O33 S9 1.496045 1_555
O34 P4 1.583042 1_555
O35 S8 1.508656 1_555
O36 S11 1.485280 1_555
O37 P5 1.520887 1_545
O38 S10 1.482279 1_555
O39 S9 1.482282 1_555
O40 P4 1.520878 1_545
O41 S8 1.485285 1_555
O42 S4 1.517280 1_555
O43 S5 1.495418 1_555
O44 P2 1.595161 1_555
O45 P3 1.595165 1_555
O46 S6 1.495409 1_555
O47 S7 1.517285 1_555
O48 P1 1.523751 1_545
O49 S2 1.486442 1_555
O50 S3 1.478695 1_655
O51 S0 1.478699 1_555
O52 S1 1.486433 1_655
O53 P0 1.523756 1_545
O54 S8 1.494320 1_555
O55 S9 1.512088 1_655
O56 P4 1.597378 1_545
O57 P5 1.597369 1_545
O58 S10 1.512106 1_555
O59 S11 1.494309 1_655
O60 S7 1.461024 1_555
O61 P3 1.548290 1_455
O62 S6 1.483198 1_565
O63 S5 1.483190 1_565
O64 P2 1.548308 1_555
O65 S4 1.461014 1_455
O66 P0 1.600485 1_555
O67 S0 1.498602 1_555
O68 S1 1.510780 1_555
O69 S2 1.510784 1_555
O70 S3 1.498593 1_555
O71 P1 1.600489 1_555
