# generated using pymatgen
data_Na2YScP2SO12
_symmetry_space_group_name_H-M   'P 1'
_cell_length_a   9.08614535
_cell_length_b   9.09454732
_cell_length_c   23.35615078
_cell_angle_alpha   90.33173168
_cell_angle_beta   89.67390796
_cell_angle_gamma   119.84334772
_symmetry_Int_Tables_number   1
_chemical_formula_structural   Na2YScP2SO12
_chemical_formula_sum   'Na12 Y6 Sc6 P12 S6 O72'
_cell_volume   1674.04256344
_cell_formula_units_Z   6
loop_
 _symmetry_equiv_pos_site_id
 _symmetry_equiv_pos_as_xyz
  1  'x, y, z'
loop_
 _atom_site_type_symbol
 _atom_site_label
 _atom_site_symmetry_multiplicity
 _atom_site_fract_x
 _atom_site_fract_y
 _atom_site_fract_z
 _atom_site_occupancy
  Na  Na0  1  0.99507660  0.63028723  0.25446820  1
  Na  Na1  1  0.37258030  0.00915795  0.74978675  1
  Na  Na2  1  0.66318568  0.96039824  0.58676418  1
  Na  Na3  1  0.03894450  0.33772499  0.08776687  1
  Na  Na4  1  0.32613509  0.29584809  0.91948506  1
  Na  Na5  1  0.70293566  0.67273042  0.41793701  1
  Na  Na6  1  0.02257230  0.99456814  0.49996824  1
  Na  Na7  1  0.00969202  0.98061012  0.00056131  1
  Na  Na8  1  0.68800666  0.32494196  0.83220974  1
  Na  Na9  1  0.67107051  0.31238510  0.33437853  1
  Na  Na10  1  0.35339893  0.65919951  0.17020117  1
  Na  Na11  1  0.34070360  0.64671822  0.66648035  1
  Y  Y0  1  0.99414688  0.00551801  0.84772368  1
  Y  Y1  1  0.00079349  0.99816345  0.15309415  1
  Y  Y2  1  0.66874459  0.33147337  0.98278923  1
  Y  Y3  1  0.32805255  0.67396487  0.01976079  1
  Y  Y4  1  0.32731312  0.67170970  0.51698541  1
  Y  Y5  1  0.33367297  0.66417319  0.81244964  1
  Sc  Sc0  1  0.98854911  0.00191986  0.34912162  1
  Sc  Sc1  1  0.00287738  0.00050464  0.64695011  1
  Sc  Sc2  1  0.65840638  0.33686801  0.68227950  1
  Sc  Sc3  1  0.66351049  0.34449569  0.18642306  1
  Sc  Sc4  1  0.66515935  0.33134881  0.48211313  1
  Sc  Sc5  1  0.33392399  0.66765682  0.31830578  1
  P  P0  1  0.69751098  0.70148630  0.25329484  1
  P  P1  1  0.00028868  0.30280281  0.25042292  1
  P  P2  1  0.29612054  0.29218027  0.74670582  1
  P  P3  1  0.70363561  0.00701040  0.74319250  1
  P  P4  1  0.37563945  0.04941041  0.58441154  1
  P  P5  1  0.67232558  0.62831922  0.58208641  1
  P  P6  1  0.95823164  0.62669479  0.08729301  1
  P  P7  1  0.37105253  0.33435598  0.08409377  1
  P  P8  1  0.03662912  0.36898147  0.91773009  1
  P  P9  1  0.33217297  0.96876238  0.91329140  1
  P  P10  1  0.62909078  0.96490146  0.41655094  1
  P  P11  1  0.03074917  0.66758637  0.41329516  1
  S  S0  1  0.29965608  0.00003046  0.25351863  1
  S  S1  1  0.99313795  0.70180142  0.74608580  1
  S  S2  1  0.95237576  0.32886551  0.58441918  1
  S  S3  1  0.66700014  0.04194614  0.08770094  1
  S  S4  1  0.63144174  0.66744994  0.91708202  1
  S  S5  1  0.33144015  0.36763473  0.41534251  1
  O  O0  1  0.21287224  0.02404815  0.30331984  1
  O  O1  1  0.81649481  0.78696423  0.30581067  1
  O  O2  1  0.98102311  0.18253201  0.30029933  1
  O  O3  1  0.22610330  0.19256182  0.80360836  1
  O  O4  1  0.97105142  0.77543876  0.79990620  1
  O  O5  1  0.80288516  0.02177622  0.79815254  1
  O  O6  1  0.79373073  0.98572582  0.68969708  1
  O  O7  1  0.17809080  0.18740573  0.69699511  1
  O  O8  1  0.01442430  0.81271516  0.69677536  1
  O  O9  1  0.77946247  0.80911723  0.19971269  1
  O  O10  1  0.02905670  0.23323213  0.19336610  1
  O  O11  1  0.19525215  0.96787648  0.20111687  1
  O  O12  1  0.87058512  0.34883336  0.63593158  1
  O  O13  1  0.48358546  0.13009624  0.63891582  1
  O  O14  1  0.65655655  0.51825176  0.63413376  1
  O  O15  1  0.86747525  0.51824066  0.14139250  1
  O  O16  1  0.65220002  0.13211816  0.13811811  1
  O  O17  1  0.48280567  0.34165631  0.13524555  1
  O  O18  1  0.44559563  0.31652505  0.02649292  1
  O  O19  1  0.85815110  0.53776630  0.03312406  1
  O  O20  1  0.68513493  0.13653199  0.03427719  1
  O  O21  1  0.46974683  0.15873151  0.53143860  1
  O  O22  1  0.69008208  0.54477235  0.52592542  1
  O  O23  1  0.84979374  0.30832718  0.53236353  1
  O  O24  1  0.54890254  0.68512399  0.96919993  1
  O  O25  1  0.13927878  0.44983396  0.97342490  1
  O  O26  1  0.32365405  0.86466828  0.96630309  1
  O  O27  1  0.56040577  0.85626173  0.47190517  1
  O  O28  1  0.30350126  0.44150975  0.46814429  1
  O  O29  1  0.13915427  0.69132198  0.46671517  1
  O  O30  1  0.11668470  0.64297116  0.35925601  1
  O  O31  1  0.51000528  0.86677035  0.36614327  1
  O  O32  1  0.35901265  0.48063762  0.36583524  1
  O  O33  1  0.13400271  0.47639551  0.86544030  1
  O  O34  1  0.34902239  0.88643036  0.85724458  1
  O  O35  1  0.52977252  0.65035698  0.86552803  1
  O  O36  1  0.00782993  0.82649949  0.40721779  1
  O  O37  1  0.80682459  0.97972084  0.40666107  1
  O  O38  1  0.18455723  0.19589959  0.40694271  1
  O  O39  1  0.02637782  0.19310183  0.91413196  1
  O  O40  1  0.17061682  0.98662905  0.91294626  1
  O  O41  1  0.80346786  0.81556706  0.91321587  1
  O  O42  1  0.96394177  0.16979520  0.58801121  1
  O  O43  1  0.19598834  0.02775148  0.58927152  1
  O  O44  1  0.83023495  0.81129433  0.58792359  1
  O  O45  1  0.98180707  0.80581613  0.08982455  1
  O  O46  1  0.82524329  0.03097371  0.09049935  1
  O  O47  1  0.18771747  0.17986366  0.08863054  1
  O  O48  1  0.68300951  0.16687877  0.73957769  1
  O  O49  1  0.47392339  0.30726043  0.74000365  1
  O  O50  1  0.84704190  0.52970589  0.73978355  1
  O  O51  1  0.68849327  0.52521111  0.24648249  1
  O  O52  1  0.83860379  0.32228479  0.24658661  1
  O  O53  1  0.47025558  0.15070900  0.24652611  1
  O  O54  1  0.63939683  0.50794975  0.91929258  1
  O  O55  1  0.85875469  0.34899037  0.91874156  1
  O  O56  1  0.48728873  0.15187530  0.91643327  1
  O  O57  1  0.64720951  0.14236938  0.42354435  1
  O  O58  1  0.49223871  0.35983858  0.42090496  1
  O  O59  1  0.84844863  0.50919841  0.42056606  1
  O  O60  1  0.35375044  0.49665333  0.08447924  1
  O  O61  1  0.13368858  0.63380741  0.08566859  1
  O  O62  1  0.51679326  0.87007984  0.08503798  1
  O  O63  1  0.36512037  0.87267811  0.57962970  1
  O  O64  1  0.51287816  0.65151144  0.57991882  1
  O  O65  1  0.12564456  0.47763483  0.57978452  1
  O  O66  1  0.31288856  0.84326330  0.26003217  1
  O  O67  1  0.51883200  0.67803334  0.26198947  1
  O  O68  1  0.15548669  0.48489832  0.25978617  1
  O  O69  1  0.31315286  0.46917684  0.74866932  1
  O  O70  1  0.15472368  0.69511802  0.74894615  1
  O  O71  1  0.52016162  0.84994832  0.74655841  1
loop_
_geom_bond_atom_site_label_1
_geom_bond_atom_site_label_2
_geom_bond_distance
_geom_bond_site_symmetry_2
Na0 O68 2.410417 1_655
Na0 O52 2.436189 1_555
Na0 O51 2.462181 1_555
Na0 O66 2.557719 1_655
Na0 O30 2.669239 1_655
Na0 O15 2.861013 1_555
Na0 O1 2.891442 1_555
Na0 O11 2.957681 1_655
Na1 O49 2.402164 1_555
Na1 O71 2.414610 1_545
Na1 O48 2.457595 1_555
Na1 O70 2.539457 1_545
Na1 O34 2.716479 1_545
Na1 O13 2.798534 1_555
Na1 O3 2.880931 1_555
Na2 O63 2.419124 1_555
Na2 O42 2.432288 1_565
Na2 O64 2.441554 1_555
Na2 O44 2.488523 1_555
Na2 O6 2.644600 1_555
Na2 O27 2.843343 1_555
Na3 O61 2.385010 1_555
Na3 O47 2.412680 1_555
Na3 O60 2.482097 1_555
Na3 O46 2.483247 1_455
Na3 O10 2.633230 1_555
Na3 O25 2.842783 1_554
Na4 O56 2.401979 1_555
Na4 O39 2.403442 1_555
Na4 O40 2.443577 1_545
Na4 O54 2.521522 1_555
Na4 O18 2.698570 1_556
Na4 O3 2.860435 1_555
Na5 O36 2.415234 1_655
Na5 O59 2.433680 1_555
Na5 O37 2.477509 1_555
Na5 O58 2.519168 1_555
Na5 O22 2.761289 1_555
Na5 O1 2.817118 1_555
Na5 O27 2.856643 1_555
Na5 O32 2.980494 1_555
Na6 O43 2.545818 1_565
Na6 O36 2.609271 1_555
Na6 O44 2.674352 1_455
Na6 O38 2.750835 1_565
Na6 O42 2.801154 1_465
Na6 O37 2.896925 1_455
Na7 O40 2.493213 1_554
Na7 O45 2.563072 1_455
Na7 O41 2.671087 1_454
Na7 O47 2.684913 1_565
Na7 O39 2.753665 1_564
Na7 O46 2.853744 1_465
Na8 O55 2.496460 1_555
Na8 O48 2.578663 1_555
Na8 O56 2.609821 1_555
Na8 O50 2.747526 1_555
Na8 O54 2.790027 1_555
Na8 O49 2.860051 1_555
Na9 O52 2.521899 1_555
Na9 O57 2.544287 1_555
Na9 O59 2.641525 1_555
Na9 O53 2.653122 1_555
Na9 O58 2.749747 1_555
Na9 O51 2.779073 1_555
Na10 O60 2.482787 1_555
Na10 O67 2.580881 1_555
Na10 O62 2.648680 1_555
Na10 O68 2.698711 1_555
Na10 O61 2.741799 1_555
Na10 O66 2.811319 1_555
Na11 O69 2.445989 1_555
Na11 O64 2.536504 1_555
Na11 O71 2.562854 1_555
Na11 O65 2.702132 1_555
Na11 O70 2.729935 1_555
Na11 O63 2.824261 1_555
O0 S0 1.476646 1_555
O0 Sc0 2.215557 1_455
O1 P0 1.563708 1_555
O1 Sc0 2.059706 1_565
O2 P1 1.551119 1_655
O2 Sc0 2.034064 1_555
O3 P2 1.556445 1_555
O3 Y0 2.196508 1_455
O4 S1 1.479882 1_555
O4 Y0 2.282182 1_565
O5 P3 1.539381 1_555
O5 Y0 2.159404 1_555
O6 P3 1.553059 1_565
O6 Sc1 2.086123 1_665
O7 P2 1.546104 1_555
O7 Sc1 2.023591 1_555
O8 S1 1.482588 1_455
O8 Sc1 2.117733 1_565
O9 P0 1.535239 1_555
O9 Y1 2.177471 1_655
O10 P1 1.547715 1_555
O10 Y1 2.225782 1_545
O11 S0 1.488735 1_565
O11 Y1 2.228517 1_555
O12 S2 1.467788 1_555
O12 Sc2 2.160839 1_555
O13 P4 1.551805 1_555
O13 Sc2 2.026958 1_555
O14 P5 1.539372 1_555
O14 Sc2 2.008796 1_555
O15 P6 1.562854 1_555
O15 Sc3 2.029797 1_555
O16 S3 1.474450 1_555
O16 Sc3 2.189195 1_555
O17 P7 1.551959 1_555
O17 Sc3 2.026101 1_555
O18 P7 1.546411 1_555
O18 Y2 2.207972 1_554
O19 P6 1.533288 1_555
O19 Y2 2.155867 1_554
O20 S3 1.480904 1_555
O20 Y2 2.213825 1_554
O21 P4 1.551291 1_555
O21 Sc4 2.041515 1_555
O22 P5 1.559482 1_555
O22 Sc4 2.099529 1_555
O23 S2 1.489586 1_555
O23 Sc4 2.147215 1_555
O24 S4 1.475587 1_555
O24 Y3 2.281077 1_556
O25 P8 1.556562 1_555
O25 Y3 2.187249 1_556
O26 P9 1.541031 1_555
O26 Y3 2.159433 1_556
O27 P10 1.558554 1_555
O27 Y4 2.206451 1_555
O28 S5 1.480988 1_555
O28 Y4 2.292478 1_555
O29 P11 1.540379 1_555
O29 Y4 2.159167 1_555
O30 P11 1.553156 1_555
O30 Sc5 2.097925 1_555
O31 P10 1.547455 1_555
O31 Sc5 2.049557 1_555
O32 S5 1.486672 1_555
O32 Sc5 2.141924 1_555
O33 P8 1.539462 1_555
O33 Y5 2.157544 1_555
O34 P9 1.548593 1_555
O34 Y5 2.212788 1_555
O35 S4 1.481543 1_555
O35 Y5 2.230965 1_555
O36 P11 1.566683 1_555
O36 Sc0 2.173250 1_465
O37 P10 1.568109 1_555
O37 Sc0 2.054097 1_565
O38 S5 1.477800 1_555
O38 Sc0 2.231736 1_455
O39 P8 1.557092 1_555
O39 Y0 2.208888 1_455
O40 P9 1.555251 1_555
O40 Y0 2.286060 1_465
O41 S4 1.473131 1_555
O41 Y0 2.312455 1_565
O42 S2 1.504580 1_555
O42 Sc1 2.227725 1_655
O43 P4 1.547367 1_555
O43 Sc1 2.121128 1_555
O44 P5 1.571518 1_555
O44 Sc1 2.152445 1_665
O45 P6 1.534549 1_555
O45 Y1 2.223999 1_655
O46 S3 1.491811 1_555
O46 Y1 2.296948 1_645
O47 P7 1.559026 1_555
O47 Y1 2.255796 1_545
O48 P3 1.558512 1_555
O48 Sc2 2.145295 1_555
O49 P2 1.558892 1_555
O49 Sc2 2.056508 1_555
O50 S1 1.471460 1_555
O50 Sc2 2.196479 1_555
O51 P0 1.571165 1_555
O51 Sc3 2.079916 1_555
O52 P1 1.567927 1_655
O52 Sc3 2.212458 1_555
O53 S0 1.480854 1_555
O53 Sc3 2.254010 1_555
O54 S4 1.489074 1_555
O54 Y2 2.303141 1_555
O55 P8 1.533904 1_655
O55 Y2 2.223377 1_555
O56 P9 1.558490 1_545
O56 Y2 2.260021 1_555
O57 P10 1.546464 1_545
O57 Sc4 2.132620 1_555
O58 S5 1.503964 1_555
O58 Sc4 2.239305 1_555
O59 P11 1.572390 1_655
O59 Sc4 2.185145 1_555
O60 P7 1.560195 1_555
O60 Y3 2.312301 1_555
O61 P6 1.563294 1_455
O61 Y3 2.226086 1_555
O62 S3 1.478637 1_565
O62 Y3 2.323932 1_555
O63 P4 1.565302 1_565
O63 Y4 2.224674 1_555
O64 P5 1.565583 1_555
O64 Y4 2.318776 1_555
O65 S2 1.483456 1_455
O65 Y4 2.324823 1_555
O66 S0 1.497872 1_565
O66 Sc5 2.184381 1_555
O67 P0 1.540974 1_555
O67 Sc5 2.092899 1_555
O68 P1 1.566527 1_555
O68 Sc5 2.139220 1_555
O69 P2 1.538990 1_555
O69 Y5 2.245508 1_555
O70 S1 1.501241 1_455
O70 Y5 2.326054 1_555
O71 P3 1.567001 1_565
O71 Y5 2.290261 1_555
