# generated using pymatgen
data_Ba2Mg(VS3)2
_symmetry_space_group_name_H-M   'P 1'
_cell_length_a   7.02953000
_cell_length_b   7.02952952
_cell_length_c   7.00158200
_cell_angle_alpha   90.00000000
_cell_angle_beta   90.00000000
_cell_angle_gamma   120.00000227
_symmetry_Int_Tables_number   1
_chemical_formula_structural   Ba2Mg(VS3)2
_chemical_formula_sum   'Ba2 Mg1 V2 S6'
_cell_volume   299.62589816
_cell_formula_units_Z   1
loop_
 _symmetry_equiv_pos_site_id
 _symmetry_equiv_pos_as_xyz
  1  'x, y, z'
loop_
 _atom_site_type_symbol
 _atom_site_label
 _atom_site_symmetry_multiplicity
 _atom_site_fract_x
 _atom_site_fract_y
 _atom_site_fract_z
 _atom_site_occupancy
  Ba  Ba0  1  0.66666700  0.33333300  0.25000000  1
  Ba  Ba1  1  0.33333300  0.66666700  0.75000000  1
  Mg  Mg0  1  0.00000000  0.00000000  0.75000000  1
  V  V0  1  0.00000000  0.00000000  0.40229000  1
  V  V1  1  0.00000000  0.00000000  0.09771000  1
  S  S0  1  0.81688400  0.63376800  0.75000000  1
  S  S1  1  0.16690600  0.83309400  0.25000000  1
  S  S2  1  0.66618800  0.83309400  0.25000000  1
  S  S3  1  0.36623200  0.18311600  0.75000000  1
  S  S4  1  0.16690600  0.33381200  0.25000000  1
  S  S5  1  0.81688400  0.18311600  0.75000000  1
loop_
_geom_bond_atom_site_label_1
_geom_bond_atom_site_label_2
_geom_bond_distance
_geom_bond_site_symmetry_2
Ba0 S2 3.514762 1_545
Ba0 S4 3.514763 1_655
Ba0 S1 3.514766 1_545
Ba0 S1 3.514766 1_655
Ba0 S2 3.514769 1_555
Ba0 S4 3.514770 1_555
Ba1 S3 3.520463 1_565
Ba1 S0 3.520463 1_455
Ba1 S5 3.520466 1_565
Ba1 S5 3.520466 1_455
Ba1 S3 3.520470 1_555
Ba1 S0 3.520470 1_555
Mg0 S0 2.229529 1_445
Mg0 S5 2.229529 1_455
Mg0 S3 2.229529 1_555
Mg0 V1 2.434520 1_556
Mg0 V0 2.434520 1_555
V0 V1 2.132542 1_555
S1 V0 2.294913 1_565
S1 V1 2.294913 1_565
S2 V0 2.294913 1_665
S2 V1 2.294913 1_665
S4 V0 2.294913 1_555
S4 V1 2.294913 1_555
