# generated using pymatgen
data_Na14Zn8Si3(S3O16)3
_symmetry_space_group_name_H-M   'P 1'
_cell_length_a   18.24821119
_cell_length_b   9.13421214
_cell_length_c   21.97985593
_cell_angle_alpha   90.40932211
_cell_angle_beta   89.11300146
_cell_angle_gamma   120.08496341
_symmetry_Int_Tables_number   1
_chemical_formula_structural   Na14Zn8Si3(S3O16)3
_chemical_formula_sum   'Na42 Zn24 Si9 S27 O144'
_cell_volume   3169.72988033
_cell_formula_units_Z   3
loop_
 _symmetry_equiv_pos_site_id
 _symmetry_equiv_pos_as_xyz
  1  'x, y, z'
loop_
 _atom_site_type_symbol
 _atom_site_label
 _atom_site_symmetry_multiplicity
 _atom_site_fract_x
 _atom_site_fract_y
 _atom_site_fract_z
 _atom_site_occupancy
  Na  Na0  1  0.80949856  0.99945980  0.25520751  1
  Na  Na1  1  0.18273334  0.36713435  0.25723862  1
  Na  Na2  1  0.68309418  0.35390172  0.25238301  1
  Na  Na3  1  0.99788235  0.62630728  0.24034748  1
  Na  Na4  1  0.50694328  0.65068540  0.24631064  1
  Na  Na5  1  0.31247113  0.62442072  0.75597580  1
  Na  Na6  1  0.00521098  0.36410937  0.74592400  1
  Na  Na7  1  0.50556717  0.36481299  0.73843484  1
  Na  Na8  1  0.18383417  0.01366116  0.75192805  1
  Na  Na9  1  0.67844011  0.00704015  0.76101634  1
  Na  Na10  1  0.14813621  0.33135332  0.58538848  1
  Na  Na11  1  0.64217648  0.33511079  0.59204084  1
  Na  Na12  1  0.34108413  0.99056268  0.58420207  1
  Na  Na13  1  0.83095843  0.95550781  0.57891144  1
  Na  Na14  1  0.14444665  0.95094295  0.08092563  1
  Na  Na15  1  0.64867352  0.96394798  0.07948865  1
  Na  Na16  1  0.33253406  0.70948234  0.07339350  1
  Na  Na17  1  0.83987108  0.68797997  0.07816899  1
  Na  Na18  1  0.48547861  0.68548975  0.91503988  1
  Na  Na19  1  0.98033064  0.66072252  0.92384760  1
  Na  Na20  1  0.35096664  0.01817252  0.91722365  1
  Na  Na21  1  0.84083547  0.02952314  0.91161829  1
  Na  Na22  1  0.17242535  0.31771552  0.90495608  1
  Na  Na23  1  0.66530568  0.28023821  0.90787709  1
  Na  Na24  1  0.48164299  0.30063462  0.42818013  1
  Na  Na25  1  0.98435139  0.28713631  0.42202051  1
  Na  Na26  1  0.16837074  0.04818430  0.41956283  1
  Na  Na27  1  0.67181057  0.03013321  0.40969929  1
  Na  Na28  1  0.34318737  0.65265755  0.41762941  1
  Na  Na29  1  0.84642141  0.67853240  0.42353974  1
  Na  Na30  1  0.99941459  0.99958054  0.49835947  1
  Na  Na31  1  0.50165418  0.99652244  0.50902433  1
  Na  Na32  1  0.99874154  0.00020064  0.00374504  1
  Na  Na33  1  0.50094192  0.00244718  0.99325053  1
  Na  Na34  1  0.32961496  0.34877533  0.83081481  1
  Na  Na35  1  0.81970649  0.32819123  0.83160902  1
  Na  Na36  1  0.32891000  0.32440238  0.33661760  1
  Na  Na37  1  0.82508386  0.30588122  0.33347948  1
  Na  Na38  1  0.15828654  0.66103723  0.16026196  1
  Na  Na39  1  0.66110341  0.66508128  0.16568073  1
  Na  Na40  1  0.16207124  0.65899728  0.66849752  1
  Na  Na41  1  0.65667782  0.63894167  0.66781758  1
  Zn  Zn0  1  0.99955086  0.01531811  0.35617925  1
  Zn  Zn1  1  0.50591687  0.00555468  0.33683990  1
  Zn  Zn2  1  0.00550463  0.00764515  0.83478611  1
  Zn  Zn3  1  0.51019461  0.99573988  0.85253416  1
  Zn  Zn4  1  0.00494795  0.99906394  0.65874960  1
  Zn  Zn5  1  0.50543971  0.03733067  0.65412623  1
  Zn  Zn6  1  0.99950854  0.98602211  0.14855273  1
  Zn  Zn7  1  0.50569987  0.00898855  0.15724922  1
  Zn  Zn8  1  0.33739219  0.34226292  0.67802313  1
  Zn  Zn9  1  0.82381337  0.34332577  0.68576677  1
  Zn  Zn10  1  0.33530104  0.32835560  0.17953117  1
  Zn  Zn11  1  0.83407202  0.33227721  0.17597968  1
  Zn  Zn12  1  0.33472557  0.34679121  0.98420799  1
  Zn  Zn13  1  0.83268687  0.32918417  0.98843519  1
  Zn  Zn14  1  0.33301309  0.33873460  0.49128385  1
  Zn  Zn15  1  0.83418170  0.32208119  0.48752766  1
  Zn  Zn16  1  0.16189322  0.65741673  0.01505609  1
  Zn  Zn17  1  0.66455314  0.66814893  0.00570794  1
  Zn  Zn18  1  0.16214169  0.65399883  0.51111235  1
  Zn  Zn19  1  0.66127959  0.66611663  0.51733943  1
  Zn  Zn20  1  0.17126123  0.65616421  0.32688258  1
  Zn  Zn21  1  0.67048206  0.70283565  0.32010763  1
  Zn  Zn22  1  0.17117229  0.64160855  0.81926862  1
  Zn  Zn23  1  0.67146233  0.67088382  0.81798764  1
  Si  Si0  1  0.65300179  0.00387600  0.24555841  1
  Si  Si1  1  0.15320181  0.30239460  0.74543886  1
  Si  Si2  1  0.65175014  0.30999217  0.75327901  1
  Si  Si3  1  0.48236367  0.33752318  0.58057882  1
  Si  Si4  1  0.98289852  0.62663576  0.08257832  1
  Si  Si5  1  0.31619847  0.66652796  0.92007061  1
  Si  Si6  1  0.67107006  0.96777778  0.91967860  1
  Si  Si7  1  0.81483503  0.96655083  0.42064432  1
  Si  Si8  1  0.17068150  0.36576572  0.41834269  1
  S  S0  1  0.15047082  0.99843231  0.25090150  1
  S  S1  1  0.34885665  0.70037483  0.24757312  1
  S  S2  1  0.85252956  0.70578792  0.25217465  1
  S  S3  1  0.00192930  0.29403268  0.24916997  1
  S  S4  1  0.49683625  0.29778420  0.25181628  1
  S  S5  1  0.00039057  0.69970340  0.75225164  1
  S  S6  1  0.49779869  0.70647297  0.74832051  1
  S  S7  1  0.34892120  0.99715209  0.75167945  1
  S  S8  1  0.85178356  0.00033060  0.74712385  1
  S  S9  1  0.98109204  0.33463906  0.58553563  1
  S  S10  1  0.17889551  0.02001099  0.58148253  1
  S  S11  1  0.68488302  0.03745036  0.58391838  1
  S  S12  1  0.33231466  0.64007895  0.58327818  1
  S  S13  1  0.83875578  0.63273824  0.58148347  1
  S  S14  1  0.48203049  0.63097817  0.08619308  1
  S  S15  1  0.33723899  0.04301592  0.08392399  1
  S  S16  1  0.83322754  0.02655878  0.08415958  1
  S  S17  1  0.18606680  0.32962541  0.08729800  1
  S  S18  1  0.67947581  0.33772364  0.08295996  1
  S  S19  1  0.81931561  0.67335320  0.91676836  1
  S  S20  1  0.01647430  0.36296969  0.91496096  1
  S  S21  1  0.51611224  0.37073760  0.91853496  1
  S  S22  1  0.16428201  0.96190295  0.91632827  1
  S  S23  1  0.31699630  0.96161974  0.41391800  1
  S  S24  1  0.66387571  0.36736767  0.41430836  1
  S  S25  1  0.01955023  0.66607007  0.41463647  1
  S  S26  1  0.51596757  0.67006938  0.41378872  1
  O  O0  1  0.10876371  0.02217489  0.30564721  1
  O  O1  1  0.61312409  0.04005927  0.30816607  1
  O  O2  1  0.39887060  0.78284344  0.30343033  1
  O  O3  1  0.90425307  0.79215508  0.30623053  1
  O  O4  1  0.48255954  0.19715442  0.30866070  1
  O  O5  1  0.99446708  0.20287949  0.30681726  1
  O  O6  1  0.11343027  0.18655980  0.80774010  1
  O  O7  1  0.60668408  0.18543274  0.81203569  1
  O  O8  1  0.48517413  0.77605432  0.80675281  1
  O  O9  1  0.98527581  0.77174100  0.80952076  1
  O  O10  1  0.39801010  0.01080332  0.80598814  1
  O  O11  1  0.90071270  0.01296969  0.80357572  1
  O  O12  1  0.38700317  0.96931351  0.69539492  1
  O  O13  1  0.89424188  0.98021092  0.69200149  1
  O  O14  1  0.09207943  0.21452225  0.68690569  1
  O  O15  1  0.59744920  0.23350168  0.69048633  1
  O  O16  1  0.00891236  0.80527571  0.69894367  1
  O  O17  1  0.50333517  0.81065248  0.69611917  1
  O  O18  1  0.39202761  0.79935489  0.19225431  1
  O  O19  1  0.89141453  0.80853980  0.19620246  1
  O  O20  1  0.01233349  0.20522551  0.19629426  1
  O  O21  1  0.50443953  0.20862626  0.19804665  1
  O  O22  1  0.10002917  0.97681652  0.19516737  1
  O  O23  1  0.59132007  0.96683200  0.18740357  1
  O  O24  1  0.43607670  0.34964740  0.64323887  1
  O  O25  1  0.93570790  0.34261808  0.64049678  1
  O  O26  1  0.22977889  0.10018877  0.63668669  1
  O  O27  1  0.73939418  0.12471476  0.63707144  1
  O  O28  1  0.31711752  0.52781602  0.63635479  1
  O  O29  1  0.83244477  0.52795295  0.63356241  1
  O  O30  1  0.43966318  0.53720551  0.14341935  1
  O  O31  1  0.93856164  0.52319618  0.14583417  1
  O  O32  1  0.32696352  0.12950587  0.13802984  1
  O  O33  1  0.82053474  0.10756267  0.13911051  1
  O  O34  1  0.23727984  0.34984393  0.14245385  1
  O  O35  1  0.72969353  0.36108541  0.13910306  1
  O  O36  1  0.22649817  0.30304707  0.03191331  1
  O  O37  1  0.72098675  0.31064205  0.02887847  1
  O  O38  1  0.43205555  0.54061655  0.03202036  1
  O  O39  1  0.92133747  0.54145480  0.02356639  1
  O  O40  1  0.34444948  0.13663220  0.02698642  1
  O  O41  1  0.84072757  0.12223395  0.02827480  1
  O  O42  1  0.21932957  0.12798046  0.52660389  1
  O  O43  1  0.72302674  0.14174764  0.52723143  1
  O  O44  1  0.33956220  0.56101692  0.52589007  1
  O  O45  1  0.84629471  0.55491526  0.52282340  1
  O  O46  1  0.42233901  0.30379097  0.52065367  1
  O  O47  1  0.93555652  0.32685630  0.52878365  1
  O  O48  1  0.26973777  0.69533614  0.98012755  1
  O  O49  1  0.78123243  0.69177915  0.97553032  1
  O  O50  1  0.07098985  0.44445677  0.96782053  1
  O  O51  1  0.57022219  0.44938154  0.97233924  1
  O  O52  1  0.15359512  0.86107505  0.97176859  1
  O  O53  1  0.65534960  0.85656170  0.98192595  1
  O  O54  1  0.27808066  0.86494529  0.47140583  1
  O  O55  1  0.76730618  0.84186010  0.47865670  1
  O  O56  1  0.15048507  0.45084236  0.47727365  1
  O  O57  1  0.65425137  0.45023808  0.46927987  1
  O  O58  1  0.07456945  0.69503892  0.46734978  1
  O  O59  1  0.57066438  0.69644551  0.46589604  1
  O  O60  1  0.05790542  0.64053969  0.35760004  1
  O  O61  1  0.55313931  0.64359486  0.35622648  1
  O  O62  1  0.26160745  0.87772883  0.36143569  1
  O  O63  1  0.76071794  0.89803234  0.35767410  1
  O  O64  1  0.18956853  0.47950419  0.35594170  1
  O  O65  1  0.67198373  0.46519520  0.35833405  1
  O  O66  1  0.05460468  0.46458477  0.85826257  1
  O  O67  1  0.55364123  0.47394389  0.86311100  1
  O  O68  1  0.17209268  0.87774094  0.86081726  1
  O  O69  1  0.68681322  0.87785907  0.85941436  1
  O  O70  1  0.25787801  0.62231001  0.85930359  1
  O  O71  1  0.76465494  0.65187215  0.86540016  1
  O  O72  1  0.00994561  0.81816092  0.41040468  1
  O  O73  1  0.50527675  0.82194444  0.40968618  1
  O  O74  1  0.40174555  0.97418679  0.40786633  1
  O  O75  1  0.90866103  0.97985710  0.41714255  1
  O  O76  1  0.08691542  0.17556719  0.41402784  1
  O  O77  1  0.58684988  0.19327998  0.41301625  1
  O  O78  1  0.00558872  0.18948242  0.90998884  1
  O  O79  1  0.50500248  0.19803803  0.91397994  1
  O  O80  1  0.08808813  0.98380106  0.91471497  1
  O  O81  1  0.58615715  0.98584412  0.91750880  1
  O  O82  1  0.40960703  0.83914227  0.91416999  1
  O  O83  1  0.90461380  0.82994438  0.91172989  1
  O  O84  1  0.49001101  0.16164743  0.58244870  1
  O  O85  1  0.98742360  0.17706491  0.58456170  1
  O  O86  1  0.09294866  0.00169796  0.58633579  1
  O  O87  1  0.59941661  0.01671054  0.58921294  1
  O  O88  1  0.40909550  0.80858056  0.58881428  1
  O  O89  1  0.91360921  0.80774347  0.58532207  1
  O  O90  1  0.48687746  0.79975296  0.08556090  1
  O  O91  1  0.99346157  0.82170063  0.08536952  1
  O  O92  1  0.41243666  0.02009855  0.08834969  1
  O  O93  1  0.91104051  0.01149216  0.08813139  1
  O  O94  1  0.10092935  0.17660085  0.09141814  1
  O  O95  1  0.59367014  0.18328271  0.08767265  1
  O  O96  1  0.34293807  0.15434093  0.74793820  1
  O  O97  1  0.85062476  0.16253471  0.74525755  1
  O  O98  1  0.24847965  0.32242392  0.74021686  1
  O  O99  1  0.74328001  0.31191780  0.74890041  1
  O  O100  1  0.42265857  0.53082959  0.74607804  1
  O  O101  1  0.92926957  0.52263232  0.74660959  1
  O  O102  1  0.34118168  0.52814997  0.24569148  1
  O  O103  1  0.84570022  0.53622472  0.24876714  1
  O  O104  1  0.42413917  0.33060251  0.24735402  1
  O  O105  1  0.92435840  0.30863732  0.24667885  1
  O  O106  1  0.23574074  0.15723420  0.24625129  1
  O  O107  1  0.74837287  0.17546515  0.24032072  1
  O  O108  1  0.32804506  0.49730081  0.92378788  1
  O  O109  1  0.82930386  0.52125914  0.91813425  1
  O  O110  1  0.42985950  0.35103616  0.92548518  1
  O  O111  1  0.93180262  0.34756481  0.92093949  1
  O  O112  1  0.24303698  0.13285628  0.91978350  1
  O  O113  1  0.75682165  0.16105261  0.92330526  1
  O  O114  1  0.32775637  0.13412032  0.41627538  1
  O  O115  1  0.82890601  0.16124795  0.42449298  1
  O  O116  1  0.25664418  0.34836862  0.42468275  1
  O  O117  1  0.74207505  0.35225698  0.41746924  1
  O  O118  1  0.43085098  0.51627936  0.41930940  1
  O  O119  1  0.93396082  0.51360690  0.42108380  1
  O  O120  1  0.18111070  0.48613512  0.08334683  1
  O  O121  1  0.67480366  0.49532548  0.07666726  1
  O  O122  1  0.08071413  0.65915085  0.07707355  1
  O  O123  1  0.56816091  0.65304821  0.08465716  1
  O  O124  1  0.25903389  0.87221942  0.08386527  1
  O  O125  1  0.75799929  0.85158169  0.08247400  1
  O  O126  1  0.17469372  0.85312061  0.57466978  1
  O  O127  1  0.68109148  0.87176433  0.57998906  1
  O  O128  1  0.25594121  0.66282325  0.58153640  1
  O  O129  1  0.76017942  0.64480311  0.58219498  1
  O  O130  1  0.06847941  0.48609129  0.58506457  1
  O  O131  1  0.58038315  0.49969527  0.57633517  1
  O  O132  1  0.15752964  0.84373083  0.25542100  1
  O  O133  1  0.65924166  0.82909348  0.24900973  1
  O  O134  1  0.26217164  0.67764640  0.25017842  1
  O  O135  1  0.76489634  0.67951589  0.25605728  1
  O  O136  1  0.07845611  0.46913263  0.25044249  1
  O  O137  1  0.57671245  0.46370272  0.25479786  1
  O  O138  1  0.15869644  0.48856250  0.74900413  1
  O  O139  1  0.65626537  0.49509594  0.75904251  1
  O  O140  1  0.08099803  0.69662363  0.75546693  1
  O  O141  1  0.57647022  0.69427815  0.75007442  1
  O  O142  1  0.26013369  0.84903318  0.75471756  1
  O  O143  1  0.76448883  0.85729905  0.74913553  1
loop_
_geom_bond_atom_site_label_1
_geom_bond_atom_site_label_2
_geom_bond_distance
_geom_bond_site_symmetry_2
Na0 O133 2.385169 1_555
Na0 O107 2.398444 1_565
Na0 O63 2.421580 1_555
Na0 O105 2.542586 1_565
Na0 O135 2.611327 1_555
Na0 O33 2.710713 1_565
Na1 O64 2.371482 1_555
Na1 O134 2.459109 1_555
Na1 O136 2.509871 1_555
Na1 O102 2.511350 1_555
Na1 O106 2.552524 1_555
Na1 O34 2.730416 1_555
Na1 O0 2.936298 1_555
Na2 O107 2.465029 1_555
Na2 O103 2.573862 1_555
Na2 O135 2.574876 1_555
Na2 O65 2.579920 1_555
Na2 O137 2.593321 1_555
Na2 O35 2.609164 1_555
Na2 O1 2.771944 1_555
Na3 O31 2.322481 1_555
Na3 O103 2.473594 1_555
Na3 O105 2.517145 1_555
Na3 O136 2.530455 1_655
Na3 O132 2.600193 1_655
Na3 O60 2.792561 1_655
Na3 O22 2.952291 1_655
Na4 O133 2.417867 1_555
Na4 O104 2.530321 1_555
Na4 O30 2.544193 1_555
Na4 O61 2.582945 1_555
Na4 O137 2.600918 1_555
Na4 O102 2.647532 1_555
Na4 O23 2.814289 1_555
Na5 O98 2.421224 1_555
Na5 O138 2.440720 1_555
Na5 O70 2.462151 1_555
Na5 O100 2.555054 1_555
Na5 O142 2.662393 1_555
Na5 O28 2.780964 1_555
Na6 O138 2.440121 1_555
Na6 O101 2.455220 1_455
Na6 O97 2.478212 1_455
Na6 O25 2.617591 1_455
Na6 O66 2.637949 1_555
Na6 O140 2.640111 1_555
Na6 O14 2.853955 1_555
Na7 O24 2.430476 1_555
Na7 O139 2.435898 1_555
Na7 O96 2.610236 1_555
Na7 O141 2.625176 1_555
Na7 O100 2.627812 1_555
Na7 O15 2.702599 1_555
Na7 O67 2.903709 1_555
Na8 O98 2.465239 1_555
Na8 O142 2.511303 1_545
Na8 O96 2.518284 1_555
Na8 O140 2.542469 1_545
Na8 O26 2.653703 1_555
Na8 O68 2.659961 1_545
Na8 O6 2.758143 1_555
Na9 O99 2.433818 1_555
Na9 O69 2.514102 1_545
Na9 O141 2.521168 1_545
Na9 O143 2.557352 1_545
Na9 O97 2.740252 1_555
Na9 O7 2.773964 1_555
Na9 O27 2.926378 1_555
Na10 O14 2.456215 1_555
Na10 O130 2.484145 1_555
Na10 O85 2.538677 1_455
Na10 O56 2.612874 1_555
Na10 O86 2.653606 1_555
Na10 O128 2.659182 1_555
Na10 O28 2.917925 1_555
Na10 O42 3.023479 1_555
Na11 O131 2.317277 1_555
Na11 O15 2.328997 1_555
Na11 O84 2.422334 1_555
Na11 O129 2.563809 1_555
Na11 O87 2.606698 1_555
Na11 O57 2.867906 1_555
Na12 O84 2.359870 1_565
Na12 O88 2.527509 1_555
Na12 O128 2.591613 1_555
Na12 O12 2.635566 1_555
Na12 O126 2.652083 1_555
Na12 O54 2.740450 1_555
Na12 O46 2.841692 1_565
Na12 O26 2.899825 1_565
Na13 O127 2.442494 1_555
Na13 O129 2.460273 1_555
Na13 O55 2.473918 1_555
Na13 O89 2.483249 1_555
Na13 O85 2.545099 1_565
Na13 O13 2.717137 1_555
Na14 O122 2.314227 1_555
Na14 O91 2.393057 1_455
Na14 O124 2.530985 1_555
Na14 O52 2.560270 1_554
Na14 O94 2.561435 1_565
Na14 O22 2.671814 1_555
Na15 O53 2.378478 1_554
Na15 O123 2.460187 1_555
Na15 O90 2.556472 1_555
Na15 O23 2.583044 1_555
Na15 O95 2.656863 1_565
Na15 O125 2.663771 1_555
Na16 O48 2.335104 1_554
Na16 O124 2.458847 1_555
Na16 O92 2.477487 1_565
Na16 O120 2.486191 1_555
Na16 O90 2.525054 1_555
Na16 O18 2.800282 1_555
Na17 O91 2.439503 1_555
Na17 O49 2.519675 1_554
Na17 O93 2.572697 1_565
Na17 O125 2.589619 1_555
Na17 O121 2.618972 1_555
Na17 O39 2.712617 1_555
Na17 O19 2.797205 1_555
Na17 O35 2.950735 1_555
Na18 O82 2.415868 1_555
Na18 O81 2.419237 1_555
Na18 O108 2.506354 1_555
Na18 O8 2.526369 1_555
Na18 O110 2.703679 1_555
Na18 O38 2.826711 1_556
Na19 O109 2.392184 1_555
Na19 O39 2.436187 1_556
Na19 O111 2.535748 1_555
Na19 O83 2.554936 1_555
Na19 O80 2.606563 1_655
Na19 O9 2.699763 1_555
Na20 O82 2.361016 1_545
Na20 O79 2.443538 1_555
Na20 O10 2.590331 1_555
Na20 O110 2.638498 1_555
Na20 O112 2.654002 1_555
Na20 O40 2.662381 1_556
Na20 O48 2.901222 1_545
Na21 O113 2.385333 1_555
Na21 O111 2.530650 1_555
Na21 O78 2.601588 1_655
Na21 O83 2.608661 1_545
Na21 O11 2.633706 1_555
Na21 O41 2.694848 1_556
Na21 O69 2.703494 1_545
Na22 O6 2.429339 1_555
Na22 O108 2.506580 1_555
Na22 O112 2.611497 1_555
Na22 O70 2.611723 1_555
Na22 O80 2.647709 1_545
Na22 O78 2.658807 1_555
Na22 O50 2.953315 1_555
Na22 O36 3.000272 1_556
Na23 O7 2.333858 1_555
Na23 O81 2.338108 1_545
Na23 O113 2.436114 1_555
Na23 O79 2.631747 1_555
Na23 O109 2.694826 1_555
Na23 O37 2.823683 1_556
Na24 O46 2.294688 1_555
Na24 O114 2.450007 1_555
Na24 O118 2.572633 1_555
Na24 O77 2.573205 1_555
Na24 O74 2.618961 1_545
Na24 O4 2.788180 1_555
Na24 O57 2.891333 1_555
Na25 O75 2.431197 1_545
Na25 O115 2.469305 1_555
Na25 O76 2.543984 1_655
Na25 O47 2.584224 1_555
Na25 O119 2.652069 1_555
Na25 O5 2.671758 1_555
Na25 O56 2.906006 1_655
Na26 O76 2.306431 1_555
Na26 O116 2.387209 1_555
Na26 O42 2.509007 1_555
Na26 O72 2.595189 1_545
Na26 O114 2.605026 1_555
Na26 O0 2.706581 1_555
Na27 O1 2.511922 1_555
Na27 O115 2.517797 1_555
Na27 O117 2.558876 1_555
Na27 O77 2.634583 1_555
Na27 O73 2.656619 1_545
Na27 O63 2.698386 1_545
Na27 O43 2.769181 1_555
Na27 O59 2.926706 1_545
Na28 O116 2.416864 1_555
Na28 O118 2.472361 1_555
Na28 O44 2.517022 1_555
Na28 O73 2.563741 1_555
Na28 O74 2.582423 1_555
Na28 O2 2.738490 1_555
Na28 O64 2.800039 1_555
Na28 O54 2.966844 1_555
Na29 O75 2.398283 1_555
Na29 O45 2.463652 1_555
Na29 O72 2.603342 1_655
Na29 O117 2.615017 1_555
Na29 O119 2.689421 1_555
Na29 O3 2.774005 1_555
Na29 O55 2.803035 1_555
Na30 O75 2.397835 1_555
Na30 O76 2.438654 1_665
Na30 O89 2.525903 1_555
Na30 O85 2.562218 1_565
Na30 O86 2.592570 1_665
Na30 O72 2.604301 1_655
Na31 O84 2.280459 1_565
Na31 O88 2.433085 1_555
Na31 O87 2.466990 1_565
Na31 O77 2.692860 1_565
Na31 O73 2.714055 1_555
Na31 O74 2.838186 1_555
Na32 O91 2.401123 1_545
Na32 O93 2.466375 1_555
Na32 O80 2.579131 1_644
Na32 O94 2.615633 1_655
Na32 O83 2.616071 1_544
Na32 O78 2.660428 1_654
Na33 O81 2.316315 1_545
Na33 O82 2.363117 1_545
Na33 O79 2.478080 1_555
Na33 O92 2.674951 1_556
Na33 O95 2.675155 1_556
Na33 O90 2.677986 1_546
Na34 O98 2.437740 1_555
Na34 O108 2.452536 1_555
Na34 O100 2.496532 1_555
Na34 O96 2.627651 1_555
Na34 O112 2.654316 1_555
Na34 O110 2.784954 1_555
Na35 O99 2.266887 1_555
Na35 O113 2.434265 1_555
Na35 O109 2.531861 1_555
Na35 O97 2.644243 1_555
Na35 O101 2.648374 1_555
Na35 O111 2.797730 1_555
Na36 O116 2.395427 1_555
Na36 O114 2.468308 1_555
Na36 O106 2.574059 1_555
Na36 O118 2.574144 1_555
Na36 O104 2.582601 1_555
Na36 O102 2.670088 1_555
Na37 O115 2.426214 1_555
Na37 O107 2.439961 1_555
Na37 O117 2.535257 1_555
Na37 O105 2.601994 1_555
Na37 O103 2.697405 1_555
Na37 O119 2.746274 1_555
Na38 O122 2.324356 1_555
Na38 O120 2.488084 1_555
Na38 O124 2.513129 1_555
Na38 O136 2.554188 1_555
Na38 O132 2.670584 1_555
Na38 O134 2.710368 1_555
Na39 O133 2.368550 1_555
Na39 O123 2.442129 1_555
Na39 O125 2.509534 1_555
Na39 O121 2.573885 1_555
Na39 O137 2.590369 1_555
Na39 O135 2.722714 1_555
Na40 O138 2.344880 1_555
Na40 O130 2.474980 1_555
Na40 O140 2.524641 1_555
Na40 O128 2.535437 1_555
Na40 O142 2.598176 1_555
Na40 O126 2.660525 1_555
Na41 O139 2.402949 1_555
Na41 O131 2.423647 1_555
Na41 O141 2.512628 1_555
Na41 O129 2.627157 1_555
Na41 O143 2.677159 1_555
Na41 O127 2.744076 1_555
O0 S0 1.485803 1_545
O0 Zn0 2.239794 1_455
O1 Si0 1.654107 1_555
O1 Zn1 1.915805 1_555
O2 S1 1.496643 1_555
O2 Zn1 2.128956 1_565
O3 S2 1.483144 1_555
O3 Zn0 2.204047 1_565
O4 S4 1.496691 1_555
O4 Zn1 2.097550 1_555
O5 S3 1.487729 1_655
O5 Zn0 2.076036 1_555
O6 Si1 1.655736 1_555
O6 Zn2 1.911462 1_555
O7 Si2 1.639728 1_555
O7 Zn3 1.951844 1_545
O8 S6 1.494158 1_555
O8 Zn3 2.077144 1_555
O9 S5 1.500971 1_655
O9 Zn2 2.068719 1_665
O10 S7 1.470335 1_545
O10 Zn3 2.367648 1_545
O11 S8 1.509651 1_555
O11 Zn2 2.064959 1_655
O12 S7 1.491347 1_555
O12 Zn5 2.116829 1_565
O13 S8 1.487451 1_565
O13 Zn4 2.062108 1_655
O14 Si1 1.635737 1_555
O14 Zn4 1.913144 1_545
O15 Si2 1.646018 1_555
O15 Zn5 1.916602 1_555
O16 S5 1.478898 1_555
O16 Zn4 2.017847 1_555
O17 S6 1.465553 1_555
O17 Zn5 2.255431 1_565
O18 S1 1.479327 1_555
O18 Zn7 2.133269 1_565
O19 S2 1.489871 1_555
O19 Zn6 2.090509 1_555
O20 S3 1.476102 1_555
O20 Zn6 2.161644 1_445
O21 S4 1.474347 1_555
O21 Zn7 2.036653 1_555
O22 S0 1.495390 1_555
O22 Zn6 2.153052 1_455
O23 Si0 1.634576 1_565
O23 Zn7 1.915096 1_565
O24 Si3 1.636500 1_555
O24 Zn8 1.915296 1_555
O25 S9 1.476086 1_555
O25 Zn9 2.260445 1_555
O26 S10 1.487021 1_555
O26 Zn8 2.290034 1_555
O27 S11 1.489131 1_555
O27 Zn9 2.107740 1_555
O28 S12 1.487073 1_555
O28 Zn8 2.123596 1_555
O29 S13 1.463125 1_555
O29 Zn9 1.985248 1_555
O30 S14 1.494952 1_555
O30 Zn10 2.056345 1_555
O31 Si4 1.642540 1_555
O31 Zn11 1.938963 1_555
O32 S15 1.483834 1_555
O32 Zn10 1.964151 1_555
O33 S16 1.486712 1_555
O33 Zn11 2.098795 1_555
O34 S17 1.495340 1_555
O34 Zn10 2.074023 1_555
O35 S18 1.497762 1_555
O35 Zn11 2.215294 1_555
O36 S17 1.494245 1_555
O36 Zn12 2.076124 1_554
O37 S18 1.484519 1_555
O37 Zn13 2.138601 1_554
O38 S14 1.481768 1_555
O38 Zn12 2.066894 1_554
O39 Si4 1.644431 1_555
O39 Zn13 1.960942 1_554
O40 S15 1.487319 1_555
O40 Zn12 2.230033 1_554
O41 S16 1.476990 1_555
O41 Zn13 2.160409 1_554
O42 S10 1.493960 1_555
O42 Zn14 2.140062 1_555
O43 S11 1.506591 1_555
O43 Zn15 2.050654 1_555
O44 S12 1.485827 1_555
O44 Zn14 2.110154 1_555
O45 S13 1.505354 1_555
O45 Zn15 2.164310 1_555
O46 Si3 1.652300 1_555
O46 Zn14 1.932037 1_555
O47 S9 1.491015 1_555
O47 Zn15 2.053492 1_555
O48 Si5 1.647610 1_555
O48 Zn16 1.963648 1_556
O49 S19 1.505267 1_555
O49 Zn17 2.125457 1_556
O50 S20 1.474658 1_555
O50 Zn16 2.098311 1_556
O51 S21 1.484069 1_555
O51 Zn17 2.015858 1_556
O52 S22 1.483160 1_555
O52 Zn16 2.168160 1_556
O53 Si6 1.643704 1_555
O53 Zn17 1.889087 1_556
O54 S23 1.496714 1_555
O54 Zn18 2.197792 1_555
O55 Si7 1.634466 1_555
O55 Zn19 1.974328 1_555
O56 Si8 1.635692 1_555
O56 Zn18 1.905625 1_555
O57 S24 1.475594 1_555
O57 Zn19 2.177500 1_555
O58 S25 1.478428 1_555
O58 Zn18 2.067081 1_555
O59 S26 1.468464 1_555
O59 Zn19 2.147365 1_555
O60 S25 1.499400 1_555
O60 Zn20 2.101723 1_555
O61 S26 1.500954 1_555
O61 Zn21 2.073656 1_555
O62 S23 1.478663 1_555
O62 Zn20 2.015531 1_555
O63 Si7 1.641005 1_555
O63 Zn21 1.910448 1_555
O64 Si8 1.651076 1_555
O64 Zn20 1.919695 1_555
O65 S24 1.487128 1_555
O65 Zn21 2.346246 1_555
O66 S20 1.496970 1_555
O66 Zn22 2.094979 1_555
O67 S21 1.478194 1_555
O67 Zn23 2.219048 1_555
O68 S22 1.480225 1_555
O68 Zn22 2.328612 1_555
O69 Si6 1.649523 1_555
O69 Zn23 1.983463 1_555
O70 Si5 1.638616 1_555
O70 Zn22 1.906250 1_555
O71 S19 1.464138 1_555
O71 Zn23 2.088478 1_555
O72 S25 1.488554 1_555
O72 Zn0 2.253847 1_465
O73 S26 1.498113 1_555
O73 Zn1 2.322660 1_565
O74 S23 1.496151 1_555
O74 Zn1 2.345488 1_565
O75 Si7 1.655173 1_555
O75 Zn0 2.012482 1_565
O76 Si8 1.644234 1_555
O76 Zn0 1.999376 1_455
O77 S24 1.504932 1_555
O77 Zn1 2.328408 1_555
O78 S20 1.498395 1_555
O78 Zn2 2.334363 1_555
O79 S21 1.489058 1_555
O79 Zn3 2.320218 1_545
O80 S22 1.501645 1_555
O80 Zn2 2.412762 1_565
O81 Si6 1.639891 1_555
O81 Zn3 2.039114 1_555
O82 Si5 1.646172 1_555
O82 Zn3 2.137520 1_555
O83 S19 1.498592 1_555
O83 Zn2 2.414787 1_665
O84 Si3 1.681620 1_555
O84 Zn5 2.051977 1_555
O85 S9 1.500548 1_555
O85 Zn4 2.445424 1_645
O86 S10 1.493725 1_555
O86 Zn4 2.235031 1_545
O87 S11 1.476582 1_555
O87 Zn5 2.292672 1_555
O88 S12 1.478991 1_555
O88 Zn5 2.422792 1_565
O89 S13 1.496916 1_555
O89 Zn4 2.357876 1_655
O90 S14 1.499395 1_555
O90 Zn7 2.359892 1_565
O91 Si4 1.694130 1_555
O91 Zn6 2.000645 1_555
O92 S15 1.492880 1_555
O92 Zn7 2.335653 1_555
O93 S16 1.497578 1_555
O93 Zn6 2.207130 1_545
O94 S17 1.481868 1_555
O94 Zn6 2.182181 1_445
O95 S18 1.495008 1_555
O95 Zn7 2.201545 1_555
O96 S7 1.496437 1_545
O96 Zn8 2.352629 1_555
O97 S8 1.493183 1_555
O97 Zn9 2.353072 1_555
O98 Si1 1.656733 1_555
O98 Zn8 2.043071 1_555
O99 Si2 1.662805 1_555
O99 Zn9 1.920282 1_555
O100 S6 1.500661 1_555
O100 Zn8 2.230156 1_555
O101 S5 1.487734 1_655
O101 Zn9 2.250029 1_555
O102 S1 1.508128 1_555
O102 Zn10 2.286321 1_555
O103 S2 1.491683 1_555
O103 Zn11 2.376254 1_555
O104 S4 1.504150 1_555
O104 Zn10 2.211748 1_555
O105 S3 1.488739 1_655
O105 Zn11 2.369940 1_555
O106 S0 1.506663 1_545
O106 Zn10 2.235561 1_555
O107 Si0 1.661406 1_555
O107 Zn11 2.052313 1_555
O108 Si5 1.667376 1_555
O108 Zn12 1.966641 1_555
O109 S19 1.489563 1_555
O109 Zn13 2.370622 1_555
O110 S21 1.497345 1_555
O110 Zn12 2.131922 1_555
O111 S20 1.483384 1_655
O111 Zn13 2.261963 1_555
O112 S22 1.503758 1_545
O112 Zn12 2.319288 1_555
O113 Si6 1.674484 1_545
O113 Zn13 2.054950 1_555
O114 S23 1.487583 1_545
O114 Zn14 2.449813 1_555
O115 Si7 1.666289 1_545
O115 Zn15 1.979981 1_555
O116 Si8 1.662041 1_555
O116 Zn14 2.068999 1_555
O117 S24 1.503620 1_555
O117 Zn15 2.413063 1_555
O118 S26 1.486493 1_555
O118 Zn14 2.316597 1_555
O119 S25 1.488014 1_655
O119 Zn15 2.295494 1_555
O120 S17 1.480236 1_555
O120 Zn16 2.328881 1_555
O121 S18 1.491649 1_555
O121 Zn17 2.302135 1_555
O122 Si4 1.658693 1_455
O122 Zn16 2.003385 1_555
O123 S14 1.480843 1_555
O123 Zn17 2.406235 1_555
O124 S15 1.496132 1_565
O124 Zn16 2.415156 1_555
O125 S16 1.497131 1_565
O125 Zn17 2.397158 1_555
O126 S10 1.494003 1_565
O126 Zn18 2.206369 1_555
O127 S11 1.481890 1_565
O127 Zn19 2.202956 1_555
O128 S12 1.509641 1_555
O128 Zn18 2.296579 1_555
O129 S13 1.492012 1_555
O129 Zn19 2.400619 1_555
O130 S9 1.498273 1_455
O130 Zn18 2.288479 1_555
O131 Si3 1.656133 1_555
O131 Zn19 1.972455 1_555
O132 S0 1.485979 1_555
O132 Zn20 2.438501 1_555
O133 Si0 1.658851 1_565
O133 Zn21 2.021640 1_555
O134 S1 1.488872 1_555
O134 Zn20 2.285785 1_555
O135 S2 1.494482 1_555
O135 Zn21 2.298745 1_555
O136 S3 1.506759 1_555
O136 Zn20 2.399157 1_555
O137 S4 1.487467 1_555
O137 Zn21 2.458413 1_555
O138 Si1 1.653869 1_555
O138 Zn22 2.013020 1_555
O139 Si2 1.655040 1_555
O139 Zn23 1.966899 1_555
O140 S5 1.488015 1_555
O140 Zn22 2.416069 1_555
O141 S6 1.495654 1_555
O141 Zn23 2.394728 1_555
O142 S7 1.503419 1_555
O142 Zn22 2.263098 1_555
O143 S8 1.469191 1_565
O143 Zn23 2.265102 1_555
