# generated using pymatgen
data_MgNb2(PbO3)3
_symmetry_space_group_name_H-M   'P 1'
_cell_length_a   4.28962336
_cell_length_b   5.74064162
_cell_length_c   9.09337101
_cell_angle_alpha   71.60162431
_cell_angle_beta   89.83124079
_cell_angle_gamma   89.46943701
_symmetry_Int_Tables_number   1
_chemical_formula_structural   MgNb2(PbO3)3
_chemical_formula_sum   'Mg1 Nb2 Pb3 O9'
_cell_volume   212.47089640
_cell_formula_units_Z   1
loop_
 _symmetry_equiv_pos_site_id
 _symmetry_equiv_pos_as_xyz
  1  'x, y, z'
loop_
 _atom_site_type_symbol
 _atom_site_label
 _atom_site_symmetry_multiplicity
 _atom_site_fract_x
 _atom_site_fract_y
 _atom_site_fract_z
 _atom_site_occupancy
  Mg  Mg0  1  0.46841776  0.48380674  0.00547202  1
  Nb  Nb0  1  0.45124503  0.82713759  0.34382603  1
  Nb  Nb1  1  0.45101506  0.16569641  0.66729503  1
  Pb  Pb0  1  0.91844139  0.63258643  0.71719850  1
  Pb  Pb1  1  0.91958687  0.34412904  0.29316666  1
  Pb  Pb2  1  0.90624499  0.93776135  0.00556005  1
  O  O0  1  0.51695132  0.33921465  0.82068145  1
  O  O1  1  0.53349182  0.67248358  0.17733321  1
  O  O2  1  0.52966478  0.96816391  0.51594604  1
  O  O3  1  0.53346029  0.84470461  0.83399417  1
  O  O4  1  0.53013897  0.47867203  0.49536428  1
  O  O5  1  0.51735544  0.15389902  0.19026911  1
  O  O6  1  0.01756444  0.15874758  0.67060955  1
  O  O7  1  0.01776163  0.82359141  0.34052566  1
  O  O8  1  0.99208020  0.52181664  0.00565726  1
loop_
_geom_bond_atom_site_label_1
_geom_bond_atom_site_label_2
_geom_bond_distance
_geom_bond_site_symmetry_2
Mg0 O8 2.052969 1_455
Mg0 O0 2.105033 1_554
Mg0 O5 2.107239 1_555
Mg0 O1 2.184056 1_555
Mg0 O3 2.184139 1_554
Mg0 O8 2.258955 1_555
Nb0 O7 1.860215 1_555
Nb0 O5 1.975606 1_565
Nb0 O2 2.006561 1_555
Nb0 O1 2.011058 1_555
Nb0 O4 2.065238 1_555
Nb0 O7 2.430216 1_655
Nb1 O6 1.860088 1_555
Nb1 O0 1.975415 1_555
Nb1 O4 2.005639 1_555
Nb1 O3 2.011539 1_545
Nb1 O2 2.066192 1_545
Nb1 O6 2.430361 1_655
O0 Pb0 2.394102 1_555
O1 Pb2 2.417539 1_555
O1 Pb1 2.470774 1_555
O2 Pb0 2.752188 1_555
O3 Pb2 2.415176 1_556
O3 Pb0 2.471186 1_555
O4 Pb1 2.760889 1_555
O5 Pb1 2.394694 1_555
O8 Pb2 2.412364 1_555
O8 Pb1 2.508006 1_555
O8 Pb0 2.516516 1_554
