# generated using pymatgen
data_LaN
_symmetry_space_group_name_H-M   'P 1'
_cell_length_a   3.74809091
_cell_length_b   3.74809183
_cell_length_c   3.74809031
_cell_angle_alpha   60.00000426
_cell_angle_beta   59.99999605
_cell_angle_gamma   60.00000553
_symmetry_Int_Tables_number   1
_chemical_formula_structural   LaN
_chemical_formula_sum   'La1 N1'
_cell_volume   37.23191777
_cell_formula_units_Z   1
loop_
 _symmetry_equiv_pos_site_id
 _symmetry_equiv_pos_as_xyz
  1  'x, y, z'
loop_
 _atom_site_type_symbol
 _atom_site_label
 _atom_site_symmetry_multiplicity
 _atom_site_fract_x
 _atom_site_fract_y
 _atom_site_fract_z
 _atom_site_occupancy
  La  La0  1  -0.00000000  -0.00000000  0.00000000  1
  N  N0  1  0.50000000  0.50000000  0.50000000  1
loop_
_geom_bond_atom_site_label_1
_geom_bond_atom_site_label_2
_geom_bond_distance
_geom_bond_site_symmetry_2
La0 N0 2.650301 1_455
La0 N0 2.650301 1_544
La0 N0 2.650301 1_454
La0 N0 2.650301 1_545
La0 N0 2.650301 1_445
La0 N0 2.650301 1_554
