# generated using pymatgen
data_Ba2LaMgNbO6
_symmetry_space_group_name_H-M   'P 1'
_cell_length_a   6.44730001
_cell_length_b   6.44730001
_cell_length_c   6.47241927
_cell_angle_alpha   86.74322721
_cell_angle_beta   120.76363189
_cell_angle_gamma   122.92506895
_symmetry_Int_Tables_number   1
_chemical_formula_structural   Ba2LaMgNbO6
_chemical_formula_sum   'Ba2 La1 Mg1 Nb1 O6'
_cell_volume   184.70067263
_cell_formula_units_Z   1
loop_
 _symmetry_equiv_pos_site_id
 _symmetry_equiv_pos_as_xyz
  1  'x, y, z'
loop_
 _atom_site_type_symbol
 _atom_site_label
 _atom_site_symmetry_multiplicity
 _atom_site_fract_x
 _atom_site_fract_y
 _atom_site_fract_z
 _atom_site_occupancy
  Ba  Ba0  1  0.99769700  0.81492100  0.81261700  1
  Ba  Ba1  1  0.00230300  0.18507900  0.18738300  1
  La  La0  1  0.50000000  0.00000000  0.50000000  1
  Mg  Mg0  1  0.00000000  0.50000000  0.50000000  1
  Nb  Nb0  1  0.50000000  0.50000000  0.00000000  1
  O  O0  1  0.43610900  0.28640800  0.72251900  1
  O  O1  1  0.56389100  0.71359200  0.27748100  1
  O  O2  1  0.01988600  0.31506400  0.77599000  1
  O  O3  1  0.53907400  0.24389600  0.22401000  1
  O  O4  1  0.98011400  0.68493600  0.22401000  1
  O  O5  1  0.46092600  0.75610400  0.77599000  1
loop_
_geom_bond_atom_site_label_1
_geom_bond_atom_site_label_2
_geom_bond_distance
_geom_bond_site_symmetry_2
Ba0 O3 2.785165 1_666
Ba0 O4 2.785169 1_556
Ba0 O1 2.933719 1_555
Ba0 Mg0 2.957550 1_655
Ba0 O0 3.116789 1_665
Ba0 O0 3.116808 1_555
Ba0 O2 3.149745 1_665
Ba0 O5 3.149748 1_555
Ba0 O5 3.329462 1_655
Ba0 O2 3.329464 1_655
Ba1 O5 2.785165 1_444
Ba1 O2 2.785169 1_554
Ba1 O0 2.933719 1_555
Ba1 Mg0 2.957550 1_555
Ba1 O1 3.116789 1_445
Ba1 O1 3.116808 1_555
Ba1 O4 3.149745 1_445
Ba1 O3 3.149748 1_555
Ba1 O3 3.329462 1_455
Ba1 O4 3.329464 1_455
La0 O4 2.331876 1_445
La0 O3 2.331876 1_555
La0 O5 2.331876 1_545
La0 O2 2.331876 1_655
La0 O0 2.718402 1_555
La0 O1 2.718402 1_545
Mg0 O3 2.078207 1_455
Mg0 O2 2.078207 1_555
Mg0 O5 2.078207 1_555
Mg0 O4 2.078207 1_455
Nb0 O1 2.049176 1_555
Nb0 O0 2.049176 1_554
Nb0 O3 2.167614 1_555
Nb0 O5 2.167614 1_554
Nb0 O4 2.167614 1_555
Nb0 O2 2.167614 1_554
