# generated using pymatgen
data_Ce(GePt)2
_symmetry_space_group_name_H-M   'P 1'
_cell_length_a   4.39565737
_cell_length_b   4.39565737
_cell_length_c   9.90030939
_cell_angle_alpha   90.00000000
_cell_angle_beta   90.00000000
_cell_angle_gamma   90.00000000
_symmetry_Int_Tables_number   1
_chemical_formula_structural   Ce(GePt)2
_chemical_formula_sum   'Ce2 Ge4 Pt4'
_cell_volume   191.29183475
_cell_formula_units_Z   2
loop_
 _symmetry_equiv_pos_site_id
 _symmetry_equiv_pos_as_xyz
  1  'x, y, z'
loop_
 _atom_site_type_symbol
 _atom_site_label
 _atom_site_symmetry_multiplicity
 _atom_site_fract_x
 _atom_site_fract_y
 _atom_site_fract_z
 _atom_site_occupancy
  Ce  Ce0  1  0.75000000  0.75000000  0.25454318  1
  Ce  Ce1  1  0.25000000  0.25000000  0.74545682  1
  Ge  Ge0  1  0.25000000  0.75000000  0.50000000  1
  Ge  Ge1  1  0.25000000  0.25000000  0.12886276  1
  Ge  Ge2  1  0.75000000  0.25000000  0.50000000  1
  Ge  Ge3  1  0.75000000  0.75000000  0.87113724  1
  Pt  Pt0  1  0.75000000  0.25000000  0.00000000  1
  Pt  Pt1  1  0.75000000  0.75000000  0.62229788  1
  Pt  Pt2  1  0.25000000  0.25000000  0.37770212  1
  Pt  Pt3  1  0.25000000  0.75000000  0.00000000  1
loop_
_geom_bond_atom_site_label_1
_geom_bond_atom_site_label_2
_geom_bond_distance
_geom_bond_site_symmetry_2
Ce0 Ge0 3.276558 1_555
Ce0 Ge2 3.276558 1_565
Ce0 Ge2 3.276558 1_555
Ce0 Ge0 3.276558 1_655
Ce0 Pt2 3.338806 1_655
Ce0 Pt2 3.338806 1_565
Ce0 Pt2 3.338806 1_665
Ce0 Pt2 3.338806 1_555
Ce0 Pt3 3.343820 1_555
Ce0 Pt0 3.343820 1_555
Ce0 Pt0 3.343820 1_565
Ce0 Pt3 3.343820 1_655
Ce0 Ge1 3.348003 1_655
Ce0 Ge1 3.348003 1_665
Ce0 Ge1 3.348003 1_555
Ce0 Ge1 3.348003 1_565
Ce1 Ge0 3.276558 1_555
Ce1 Ge2 3.276558 1_555
Ce1 Ge2 3.276558 1_455
Ce1 Ge0 3.276558 1_545
Ce1 Pt1 3.338806 1_455
Ce1 Pt1 3.338806 1_555
Ce1 Pt1 3.338806 1_545
Ce1 Pt1 3.338806 1_445
Ce1 Pt0 3.343820 1_456
Ce1 Pt0 3.343820 1_556
Ce1 Pt3 3.343820 1_556
Ce1 Pt3 3.343820 1_546
Ce1 Ge3 3.348003 1_455
Ce1 Ge3 3.348003 1_555
Ce1 Ge3 3.348003 1_545
Ce1 Ge3 3.348003 1_445
Ge0 Pt1 2.509274 1_455
Ge0 Pt2 2.509274 1_565
Ge0 Pt1 2.509274 1_555
Ge0 Pt2 2.509274 1_555
Ge1 Pt2 2.463587 1_555
Ge1 Pt3 2.541273 1_555
Ge1 Pt3 2.541273 1_545
Ge1 Pt0 2.541273 1_555
Ge1 Pt0 2.541273 1_455
Ge2 Pt1 2.509274 1_545
Ge2 Pt2 2.509274 1_655
Ge2 Pt1 2.509274 1_555
Ge2 Pt2 2.509274 1_555
Ge3 Pt1 2.463587 1_555
Ge3 Pt0 2.541273 1_556
Ge3 Pt3 2.541273 1_556
Ge3 Pt3 2.541273 1_656
Ge3 Pt0 2.541273 1_566
