# generated using pymatgen
data_PrMnO3
_symmetry_space_group_name_H-M   'P 1'
_cell_length_a   5.47926694
_cell_length_b   5.57528151
_cell_length_c   7.78248656
_cell_angle_alpha   90.00000000
_cell_angle_beta   90.00000000
_cell_angle_gamma   90.00000000
_symmetry_Int_Tables_number   1
_chemical_formula_structural   PrMnO3
_chemical_formula_sum   'Pr4 Mn4 O12'
_cell_volume   237.74294559
_cell_formula_units_Z   4
loop_
 _symmetry_equiv_pos_site_id
 _symmetry_equiv_pos_as_xyz
  1  'x, y, z'
loop_
 _atom_site_type_symbol
 _atom_site_label
 _atom_site_symmetry_multiplicity
 _atom_site_fract_x
 _atom_site_fract_y
 _atom_site_fract_z
 _atom_site_occupancy
  Pr  Pr0  1  0.00986338  0.95563148  0.75000000  1
  Pr  Pr1  1  0.50986338  0.54436852  0.25000000  1
  Pr  Pr2  1  0.49013662  0.45563148  0.75000000  1
  Pr  Pr3  1  0.99013662  0.04436852  0.25000000  1
  Mn  Mn0  1  0.50000000  0.00000000  0.50000000  1
  Mn  Mn1  1  0.00000000  0.50000000  0.50000000  1
  Mn  Mn2  1  0.00000000  0.50000000  0.00000000  1
  Mn  Mn3  1  0.50000000  0.00000000  0.00000000  1
  O  O0  1  0.71570057  0.28991657  0.45877738  1
  O  O1  1  0.21570057  0.21008343  0.54122262  1
  O  O2  1  0.78429943  0.78991657  0.04122262  1
  O  O3  1  0.28429943  0.71008343  0.95877738  1
  O  O4  1  0.28429943  0.71008343  0.54122262  1
  O  O5  1  0.78429943  0.78991657  0.45877738  1
  O  O6  1  0.21570057  0.21008343  0.95877738  1
  O  O7  1  0.71570057  0.28991657  0.04122262  1
  O  O8  1  0.07655775  0.48424730  0.25000000  1
  O  O9  1  0.57655775  0.01575270  0.75000000  1
  O  O10  1  0.42344225  0.98424730  0.25000000  1
  O  O11  1  0.92344225  0.51575270  0.75000000  1
loop_
_geom_bond_atom_site_label_1
_geom_bond_atom_site_label_2
_geom_bond_distance
_geom_bond_site_symmetry_2
Mn0 O5 1.975196 1_545
Mn0 O1 1.975196 1_555
Mn0 O10 1.992265 1_545
Mn0 O9 1.992265 1_555
Mn0 O0 2.027907 1_555
Mn0 O4 2.027907 1_545
Mn1 O4 1.975196 1_555
Mn1 O0 1.975196 1_455
Mn1 O11 1.992265 1_455
Mn1 O8 1.992265 1_555
Mn1 O5 2.027907 1_455
Mn1 O1 2.027907 1_555
Mn2 O3 1.975196 1_554
Mn2 O7 1.975196 1_455
Mn2 O11 1.992265 1_454
Mn2 O8 1.992265 1_555
Mn2 O6 2.027907 1_554
Mn2 O2 2.027907 1_455
Mn3 O6 1.975196 1_554
Mn3 O2 1.975196 1_545
Mn3 O9 1.992265 1_554
Mn3 O10 1.992265 1_545
Mn3 O7 2.027907 1_555
Mn3 O3 2.027907 1_544
O0 Pr1 2.434041 1_555
O0 Pr3 2.602940 1_555
O0 Pr2 2.741869 1_555
O1 Pr0 2.434041 1_545
O1 Pr2 2.602940 1_555
O1 Pr3 2.741869 1_455
O2 Pr3 2.434041 1_565
O2 Pr1 2.602940 1_555
O2 Pr0 2.741869 1_654
O3 Pr2 2.434041 1_555
O3 Pr0 2.602940 1_555
O3 Pr1 2.741869 1_556
O4 Pr2 2.434041 1_555
O4 Pr0 2.602940 1_555
O4 Pr1 2.741869 1_555
O5 Pr3 2.434041 1_565
O5 Pr1 2.602940 1_555
O5 Pr0 2.741869 1_655
O6 Pr0 2.434041 1_545
O6 Pr2 2.602940 1_555
O6 Pr3 2.741869 1_456
O7 Pr1 2.434041 1_555
O7 Pr3 2.602940 1_555
O7 Pr2 2.741869 1_554
O8 Pr1 2.397742 1_555
O8 Pr3 2.497744 1_455
O9 Pr0 2.397742 1_645
O9 Pr2 2.497744 1_555
O10 Pr3 2.397742 1_465
O10 Pr1 2.497744 1_555
O11 Pr2 2.397742 1_555
O11 Pr0 2.497744 1_655
