# generated using pymatgen
data_HoSi3Rh5
_symmetry_space_group_name_H-M   'P 1'
_cell_length_a   15.48160893
_cell_length_b   15.48160894
_cell_length_c   3.85536769
_cell_angle_alpha   90.00000000
_cell_angle_beta   90.00000000
_cell_angle_gamma   119.99999994
_symmetry_Int_Tables_number   1
_chemical_formula_structural   HoSi3Rh5
_chemical_formula_sum   'Ho6 Si18 Rh30'
_cell_volume   800.25541478
_cell_formula_units_Z   6
loop_
 _symmetry_equiv_pos_site_id
 _symmetry_equiv_pos_as_xyz
  1  'x, y, z'
loop_
 _atom_site_type_symbol
 _atom_site_label
 _atom_site_symmetry_multiplicity
 _atom_site_fract_x
 _atom_site_fract_y
 _atom_site_fract_z
 _atom_site_occupancy
  Ho  Ho0  1  0.60540645  0.89965882  0.25000000  1
  Ho  Ho1  1  0.70574763  0.60540645  0.75000000  1
  Ho  Ho2  1  0.89965882  0.29425237  0.75000000  1
  Ho  Ho3  1  0.10034118  0.70574763  0.25000000  1
  Ho  Ho4  1  0.29425237  0.39459355  0.25000000  1
  Ho  Ho5  1  0.39459355  0.10034118  0.75000000  1
  Si  Si0  1  0.44145930  0.76026144  0.75000000  1
  Si  Si1  1  0.68119786  0.44145930  0.25000000  1
  Si  Si2  1  0.76026144  0.31880214  0.25000000  1
  Si  Si3  1  0.23973856  0.68119786  0.75000000  1
  Si  Si4  1  0.31880214  0.55854070  0.75000000  1
  Si  Si5  1  0.55854070  0.23973856  0.25000000  1
  Si  Si6  1  0.88102477  0.13112741  0.25000000  1
  Si  Si7  1  0.11897523  0.86887259  0.75000000  1
  Si  Si8  1  0.13112741  0.25010263  0.75000000  1
  Si  Si9  1  0.25010263  0.11897523  0.25000000  1
  Si  Si10  1  0.37036438  0.93852050  0.25000000  1
  Si  Si11  1  0.43184388  0.37036438  0.75000000  1
  Si  Si12  1  0.93852050  0.56815612  0.75000000  1
  Si  Si13  1  0.06147950  0.43184388  0.25000000  1
  Si  Si14  1  0.56815612  0.62963562  0.25000000  1
  Si  Si15  1  0.62963562  0.06147950  0.75000000  1
  Si  Si16  1  0.74989737  0.88102477  0.75000000  1
  Si  Si17  1  0.86887259  0.74989737  0.25000000  1
  Rh  Rh0  1  0.46329157  0.92492418  0.75000000  1
  Rh  Rh1  1  0.15325619  0.41404057  0.75000000  1
  Rh  Rh2  1  0.26078437  0.84674381  0.75000000  1
  Rh  Rh3  1  0.73921563  0.15325619  0.25000000  1
  Rh  Rh4  1  0.84674381  0.58595943  0.25000000  1
  Rh  Rh5  1  0.41404057  0.26078437  0.25000000  1
  Rh  Rh6  1  0.65268933  0.22330438  0.75000000  1
  Rh  Rh7  1  0.42938495  0.65268933  0.25000000  1
  Rh  Rh8  1  0.22330438  0.57061505  0.25000000  1
  Rh  Rh9  1  0.77669562  0.42938495  0.75000000  1
  Rh  Rh10  1  0.57061505  0.34731067  0.75000000  1
  Rh  Rh11  1  0.34731067  0.77669562  0.25000000  1
  Rh  Rh12  1  0.13995204  0.02780058  0.75000000  1
  Rh  Rh13  1  0.11215146  0.13995204  0.25000000  1
  Rh  Rh14  1  0.02780058  0.88784854  0.25000000  1
  Rh  Rh15  1  0.97219942  0.11215146  0.75000000  1
  Rh  Rh16  1  0.88784854  0.86004796  0.75000000  1
  Rh  Rh17  1  0.86004796  0.97219942  0.25000000  1
  Rh  Rh18  1  0.92492418  0.46163261  0.25000000  1
  Rh  Rh19  1  0.07507582  0.53836739  0.75000000  1
  Rh  Rh20  1  0.46163261  0.53670843  0.75000000  1
  Rh  Rh21  1  0.53670843  0.07507582  0.25000000  1
  Rh  Rh22  1  0.72955181  0.77416656  0.25000000  1
  Rh  Rh23  1  0.95538525  0.72955181  0.75000000  1
  Rh  Rh24  1  0.77416656  0.04461475  0.75000000  1
  Rh  Rh25  1  0.22583344  0.95538525  0.25000000  1
  Rh  Rh26  1  0.04461475  0.27044819  0.25000000  1
  Rh  Rh27  1  0.27044819  0.22583344  0.75000000  1
  Rh  Rh28  1  0.58595943  0.73921563  0.75000000  1
  Rh  Rh29  1  0.53836739  0.46329157  0.25000000  1
loop_
_geom_bond_atom_site_label_1
_geom_bond_atom_site_label_2
_geom_bond_distance
_geom_bond_site_symmetry_2
Ho0 Si15 3.032027 1_564
Ho0 Si15 3.032027 1_565
Ho0 Rh28 3.037865 1_555
Ho0 Rh28 3.037865 1_554
Ho0 Si0 3.055818 1_555
Ho0 Si0 3.055818 1_554
Ho0 Si16 3.073836 1_554
Ho0 Si16 3.073836 1_555
Ho0 Rh0 3.093588 1_555
Ho0 Rh0 3.093588 1_554
Ho0 Rh24 3.116893 1_564
Ho0 Rh24 3.116893 1_565
Ho1 Si14 3.032027 1_555
Ho1 Si14 3.032027 1_556
Ho1 Rh4 3.037865 1_555
Ho1 Rh4 3.037865 1_556
Ho1 Si1 3.055818 1_555
Ho1 Si1 3.055818 1_556
Ho1 Si17 3.073836 1_556
Ho1 Si17 3.073836 1_555
Ho1 Rh29 3.093588 1_555
Ho1 Rh29 3.093588 1_556
Ho1 Rh22 3.116893 1_556
Ho1 Rh22 3.116893 1_555
Ho2 Si13 3.032027 1_655
Ho2 Si13 3.032027 1_656
Ho2 Rh3 3.037865 1_556
Ho2 Rh3 3.037865 1_555
Ho2 Si2 3.055818 1_555
Ho2 Si2 3.055818 1_556
Ho2 Si6 3.073836 1_556
Ho2 Si6 3.073836 1_555
Ho2 Rh18 3.093588 1_556
Ho2 Rh18 3.093588 1_555
Ho2 Rh26 3.116893 1_655
Ho2 Rh26 3.116893 1_656
Ho3 Si12 3.032027 1_455
Ho3 Si12 3.032027 1_454
Ho3 Rh2 3.037865 1_554
Ho3 Rh2 3.037865 1_555
Ho3 Si3 3.055818 1_554
Ho3 Si3 3.055818 1_555
Ho3 Si7 3.073836 1_555
Ho3 Si7 3.073836 1_554
Ho3 Rh19 3.093588 1_555
Ho3 Rh19 3.093588 1_554
Ho3 Rh23 3.116893 1_454
Ho3 Rh23 3.116893 1_455
Ho4 Si11 3.032027 1_555
Ho4 Si11 3.032027 1_554
Ho4 Rh1 3.037865 1_554
Ho4 Rh1 3.037865 1_555
Ho4 Si4 3.055818 1_555
Ho4 Si4 3.055818 1_554
Ho4 Si8 3.073836 1_555
Ho4 Si8 3.073836 1_554
Ho4 Rh20 3.093588 1_554
Ho4 Rh20 3.093588 1_555
Ho4 Rh27 3.116893 1_555
Ho4 Rh27 3.116893 1_554
Ho5 Si10 3.032027 1_546
Ho5 Si10 3.032027 1_545
Ho5 Rh5 3.037865 1_555
Ho5 Rh5 3.037865 1_556
Ho5 Si5 3.055818 1_555
Ho5 Si5 3.055818 1_556
Ho5 Si9 3.073836 1_555
Ho5 Si9 3.073836 1_556
Ho5 Rh21 3.093588 1_556
Ho5 Rh21 3.093588 1_555
Ho5 Rh25 3.116893 1_546
Ho5 Rh25 3.116893 1_545
Rh0 Si15 2.378458 1_565
Rh0 Si0 2.398176 1_555
Rh0 Si10 2.476459 1_555
Rh0 Si10 2.476459 1_556
Rh1 Si8 2.385252 1_555
Rh1 Si4 2.416537 1_555
Rh1 Si13 2.490456 1_556
Rh1 Si13 2.490456 1_555
Rh2 Si7 2.385252 1_555
Rh2 Si3 2.416537 1_555
Rh2 Si10 2.490456 1_555
Rh2 Si10 2.490456 1_556
Rh3 Si6 2.385252 1_555
Rh3 Si2 2.416537 1_555
Rh3 Si15 2.490456 1_554
Rh3 Si15 2.490456 1_555
Rh4 Si17 2.385252 1_555
Rh4 Si1 2.416537 1_555
Rh4 Si12 2.490456 1_554
Rh4 Si12 2.490456 1_555
Rh5 Si9 2.385252 1_555
Rh5 Si5 2.416537 1_555
Rh5 Si11 2.490456 1_554
Rh5 Si11 2.490456 1_555
Rh6 Si15 2.347295 1_555
Rh6 Si2 2.492613 1_555
Rh6 Si2 2.492613 1_556
Rh6 Si5 2.505207 1_555
Rh6 Si5 2.505207 1_556
Rh7 Si14 2.347295 1_555
Rh7 Si0 2.492613 1_555
Rh7 Si0 2.492613 1_554
Rh7 Si4 2.505207 1_555
Rh7 Si4 2.505207 1_554
Rh8 Si13 2.347295 1_555
Rh8 Si4 2.492613 1_555
Rh8 Si4 2.492613 1_554
Rh8 Si3 2.505207 1_555
Rh8 Si3 2.505207 1_554
Rh9 Si12 2.347295 1_555
Rh9 Si1 2.492613 1_555
Rh9 Si1 2.492613 1_556
Rh9 Si2 2.505207 1_556
Rh9 Si2 2.505207 1_555
Rh10 Si11 2.347295 1_555
Rh10 Si5 2.492613 1_555
Rh10 Si5 2.492613 1_556
Rh10 Si1 2.505207 1_555
Rh10 Si1 2.505207 1_556
Rh11 Si10 2.347295 1_555
Rh11 Si3 2.492613 1_554
Rh11 Si3 2.492613 1_555
Rh11 Si0 2.505207 1_554
Rh11 Si0 2.505207 1_555
Rh12 Si7 2.315229 1_545
Rh12 Si9 2.491860 1_555
Rh12 Si9 2.491860 1_556
Rh13 Si9 2.315229 1_555
Rh13 Si8 2.491860 1_554
Rh13 Si8 2.491860 1_555
Rh14 Si17 2.315229 1_455
Rh14 Si7 2.491860 1_555
Rh14 Si7 2.491860 1_554
Rh15 Si8 2.315229 1_655
Rh15 Si6 2.491860 1_555
Rh15 Si6 2.491860 1_556
Rh16 Si16 2.315229 1_555
Rh16 Si17 2.491860 1_555
Rh16 Si17 2.491860 1_556
Rh17 Si6 2.315229 1_565
Rh17 Si16 2.491860 1_555
Rh17 Si16 2.491860 1_554
Rh18 Si13 2.378458 1_655
Rh18 Si2 2.398176 1_555
Rh18 Si12 2.476459 1_554
Rh18 Si12 2.476459 1_555
Rh19 Si12 2.378458 1_455
Rh19 Si3 2.398176 1_555
Rh19 Si13 2.476459 1_556
Rh19 Si13 2.476459 1_555
Rh20 Si11 2.378458 1_555
Rh20 Si4 2.398176 1_555
Rh20 Si14 2.476459 1_555
Rh20 Si14 2.476459 1_556
Rh21 Si10 2.378458 1_545
Rh21 Si5 2.398176 1_555
Rh21 Si15 2.476459 1_554
Rh21 Si15 2.476459 1_555
Rh22 Si17 2.367243 1_555
Rh22 Si14 2.378889 1_555
Rh22 Si16 2.455794 1_554
Rh22 Si16 2.455794 1_555
Rh23 Si7 2.367243 1_655
Rh23 Si12 2.378889 1_555
Rh23 Si17 2.455794 1_556
Rh23 Si17 2.455794 1_555
Rh24 Si16 2.367243 1_545
Rh24 Si15 2.378889 1_555
Rh24 Si6 2.455794 1_556
Rh24 Si6 2.455794 1_555
Rh25 Si9 2.367243 1_565
Rh25 Si10 2.378889 1_555
Rh25 Si7 2.455794 1_555
Rh25 Si7 2.455794 1_554
Rh26 Si6 2.367243 1_455
Rh26 Si13 2.378889 1_555
Rh26 Si8 2.455794 1_554
Rh26 Si8 2.455794 1_555
Rh27 Si8 2.367243 1_555
Rh27 Si11 2.378889 1_555
Rh27 Si9 2.455794 1_555
Rh27 Si9 2.455794 1_556
Rh28 Si16 2.385252 1_555
Rh28 Si0 2.416537 1_555
Rh28 Si14 2.490456 1_555
Rh28 Si14 2.490456 1_556
Rh29 Si14 2.378458 1_555
Rh29 Si1 2.398176 1_555
Rh29 Si11 2.476459 1_554
Rh29 Si11 2.476459 1_555
