# generated using pymatgen
data_MgZn2(NiS2)4
_symmetry_space_group_name_H-M   'P 1'
_cell_length_a   7.17370476
_cell_length_b   6.86837665
_cell_length_c   6.87210400
_cell_angle_alpha   120.01429134
_cell_angle_beta   118.59760574
_cell_angle_gamma   89.94376579
_symmetry_Int_Tables_number   1
_chemical_formula_structural   MgZn2(NiS2)4
_chemical_formula_sum   'Mg1 Zn2 Ni4 S8'
_cell_volume   244.43615909
_cell_formula_units_Z   1
loop_
 _symmetry_equiv_pos_site_id
 _symmetry_equiv_pos_as_xyz
  1  'x, y, z'
loop_
 _atom_site_type_symbol
 _atom_site_label
 _atom_site_symmetry_multiplicity
 _atom_site_fract_x
 _atom_site_fract_y
 _atom_site_fract_z
 _atom_site_occupancy
  Mg  Mg0  1  0.00000000  0.50000000  0.50000000  1
  Zn  Zn0  1  0.44618900  0.64883300  0.79778300  1
  Zn  Zn1  1  0.55381100  0.35116700  0.20221700  1
  Ni  Ni0  1  0.00000000  0.00000000  0.50000000  1
  Ni  Ni1  1  0.00000000  0.50000000  0.00000000  1
  Ni  Ni2  1  0.50000000  0.00000000  0.50000000  1
  Ni  Ni3  1  0.00000000  0.00000000  0.00000000  1
  S  S0  1  0.75864000  0.77629600  0.51749800  1
  S  S1  1  0.75867200  0.24110300  0.98219000  1
  S  S2  1  0.17566100  0.22486400  0.95016400  1
  S  S3  1  0.24136000  0.22370400  0.48250200  1
  S  S4  1  0.24119600  0.75865200  0.48238400  1
  S  S5  1  0.24132800  0.75889700  0.01781000  1
  S  S6  1  0.75880400  0.24134800  0.51761600  1
  S  S7  1  0.82433900  0.77513600  0.04983600  1
loop_
_geom_bond_atom_site_label_1
_geom_bond_atom_site_label_2
_geom_bond_distance
_geom_bond_site_symmetry_2
Mg0 S3 2.564804 1_555
Mg0 S0 2.564804 1_455
Mg0 S6 2.566363 1_455
Mg0 S4 2.566363 1_555
Mg0 S1 2.569020 1_454
Mg0 S5 2.569020 1_556
Mg0 Zn1 2.668536 1_455
Mg0 Zn0 2.668536 1_555
Ni0 S7 2.243980 1_445
Ni0 S2 2.243980 1_555
Ni0 S6 2.398016 1_455
Ni0 S4 2.398016 1_545
Ni0 S3 2.400525 1_555
Ni0 S0 2.400525 1_445
Ni1 S2 2.244405 1_554
Ni1 S7 2.244405 1_455
Ni1 S1 2.399908 1_454
Ni1 S5 2.399908 1_555
Ni1 S4 2.400500 1_555
Ni1 S6 2.400500 1_454
Ni2 S3 2.404877 1_555
Ni2 S0 2.404877 1_545
Ni2 S5 2.407458 1_545
Ni2 S1 2.407458 1_555
Ni2 S4 2.408224 1_545
Ni2 S6 2.408224 1_555
Ni3 S7 2.244261 1_445
Ni3 S2 2.244261 1_554
Ni3 S5 2.397640 1_545
Ni3 S1 2.397640 1_454
Ni3 S3 2.401153 1_555
Ni3 S0 2.401153 1_444
S0 Zn1 2.451734 1_555
S1 Zn1 2.449299 1_556
S2 Zn1 2.261614 1_556
S3 Zn0 2.451734 1_555
S4 Zn0 2.451822 1_555
S5 Zn0 2.449299 1_554
S6 Zn1 2.451822 1_555
S7 Zn0 2.261614 1_554
