# generated using pymatgen
data_Na2LaTa3Si4(SO12)2
_symmetry_space_group_name_H-M   'P 1'
_cell_length_a   9.00079457
_cell_length_b   9.05726961
_cell_length_c   23.38889986
_cell_angle_alpha   90.72987713
_cell_angle_beta   90.15861959
_cell_angle_gamma   119.92692575
_symmetry_Int_Tables_number   1
_chemical_formula_structural   Na2LaTa3Si4(SO12)2
_chemical_formula_sum   'Na6 La3 Ta9 Si12 S6 O72'
_cell_volume   1652.26073525
_cell_formula_units_Z   3
loop_
 _symmetry_equiv_pos_site_id
 _symmetry_equiv_pos_as_xyz
  1  'x, y, z'
loop_
 _atom_site_type_symbol
 _atom_site_label
 _atom_site_symmetry_multiplicity
 _atom_site_fract_x
 _atom_site_fract_y
 _atom_site_fract_z
 _atom_site_occupancy
  Na  Na0  1  0.98628179  0.98101389  0.49999055  1
  Na  Na1  1  0.99934173  0.99372470  0.99917025  1
  Na  Na2  1  0.65361920  0.31562235  0.83427460  1
  Na  Na3  1  0.66844746  0.31780888  0.32700717  1
  Na  Na4  1  0.32014284  0.65147254  0.16095012  1
  Na  Na5  1  0.35415882  0.66382513  0.66898465  1
  La  La0  1  0.65297884  0.33027759  0.69525069  1
  La  La1  1  0.67319216  0.33719415  0.18443698  1
  La  La2  1  0.34722711  0.67779110  0.51157350  1
  Ta  Ta0  1  0.99936763  0.00301002  0.35135694  1
  Ta  Ta1  1  0.00434407  0.01367124  0.86054854  1
  Ta  Ta2  1  0.98575430  0.99411205  0.65107661  1
  Ta  Ta3  1  0.02537735  0.01448194  0.14239606  1
  Ta  Ta4  1  0.66272983  0.34707732  0.97616443  1
  Ta  Ta5  1  0.68044323  0.34492368  0.47737429  1
  Ta  Ta6  1  0.32512520  0.66167034  0.01434243  1
  Ta  Ta7  1  0.31908754  0.67865697  0.31074005  1
  Ta  Ta8  1  0.34121107  0.66340454  0.81602674  1
  Si  Si0  1  0.28438445  -0.00002267  0.25151146  1
  Si  Si1  1  0.01157048  0.29067359  0.25146216  1
  Si  Si2  1  0.27142221  0.28937230  0.75473711  1
  Si  Si3  1  0.70683178  0.98633396  0.75682698  1
  Si  Si4  1  0.67574617  0.63360476  0.58498546  1
  Si  Si5  1  0.96535992  0.63191066  0.08148101  1
  Si  Si6  1  0.37746470  0.34509345  0.08072841  1
  Si  Si7  1  0.62469710  0.67214989  0.91727234  1
  Si  Si8  1  0.03983133  0.38388388  0.91456125  1
  Si  Si9  1  0.33749806  0.95493292  0.91569684  1
  Si  Si10  1  0.63271358  0.96845226  0.41368335  1
  Si  Si11  1  0.03420624  0.67257605  0.41487962  1
  S  S0  1  0.70833330  0.72448141  0.25224616  1
  S  S1  1  0.01788523  0.73231105  0.75371722  1
  S  S2  1  0.95282847  0.31838995  0.58277116  1
  S  S3  1  0.36274454  0.04646404  0.58146011  1
  S  S4  1  0.66690041  0.02987737  0.07919274  1
  S  S5  1  0.33614587  0.36225425  0.41358141  1
  O  O0  1  0.16969736  0.99430352  0.30530684  1
  O  O1  1  0.81222197  0.81598776  0.30425646  1
  O  O2  1  0.00251969  0.17412123  0.30543839  1
  O  O3  1  0.16840367  0.16844517  0.80843811  1
  O  O4  1  0.00236745  0.82023955  0.80451290  1
  O  O5  1  0.82658675  0.99074446  0.80932790  1
  O  O6  1  0.80231076  0.96528103  0.69543425  1
  O  O7  1  0.16047863  0.18595812  0.69438956  1
  O  O8  1  0.02683263  0.82916031  0.69894040  1
  O  O9  1  0.78795316  0.82086563  0.19984662  1
  O  O10  1  0.02356074  0.18711706  0.19333637  1
  O  O11  1  0.16961652  0.97498554  0.19208063  1
  O  O12  1  0.87646483  0.33960426  0.63405299  1
  O  O13  1  0.46280863  0.11741534  0.63370884  1
  O  O14  1  0.66304014  0.52897099  0.64005207  1
  O  O15  1  0.91202948  0.52922657  0.13959109  1
  O  O16  1  0.62953744  0.08810382  0.13316054  1
  O  O17  1  0.47327286  0.37978469  0.14058160  1
  O  O18  1  0.47378453  0.30817028  0.02665694  1
  O  O19  1  0.83192094  0.52339008  0.02740883  1
  O  O20  1  0.69556974  0.14470206  0.03095666  1
  O  O21  1  0.45652840  0.15026906  0.53026330  1
  O  O22  1  0.68977667  0.52061303  0.52667508  1
  O  O23  1  0.84301534  0.30065556  0.52954601  1
  O  O24  1  0.53005766  0.69811582  0.97169069  1
  O  O25  1  0.16367923  0.47245598  0.97028079  1
  O  O26  1  0.30868077  0.83392882  0.97007233  1
  O  O27  1  0.58723121  0.86624638  0.47168422  1
  O  O28  1  0.29398856  0.41557724  0.46711922  1
  O  O29  1  0.13415870  0.71192408  0.47369216  1
  O  O30  1  0.13498681  0.63709789  0.36058702  1
  O  O31  1  0.49574366  0.85626600  0.36064785  1
  O  O32  1  0.36498019  0.47639735  0.36548090  1
  O  O33  1  0.13590705  0.50236200  0.85941970  1
  O  O34  1  0.36268136  0.85862455  0.85924880  1
  O  O35  1  0.50102644  0.63499154  0.86008335  1
  O  O36  1  0.99642852  0.82540679  0.40041763  1
  O  O37  1  0.82631234  0.00785425  0.39895850  1
  O  O38  1  0.19052067  0.18525242  0.40292511  1
  O  O39  1  0.02239937  0.19358064  0.90921622  1
  O  O40  1  0.16799856  0.97635595  0.90634454  1
  O  O41  1  0.81607396  0.83391660  0.90860023  1
  O  O42  1  0.95939219  0.15461518  0.58579516  1
  O  O43  1  0.19441628  0.04289929  0.58593371  1
  O  O44  1  0.85991805  0.82275373  0.59059752  1
  O  O45  1  0.97334373  0.82006224  0.09102337  1
  O  O46  1  0.82527997  0.01424655  0.08683070  1
  O  O47  1  0.18247359  0.16568116  0.08848161  1
  O  O48  1  0.70089565  0.15867520  0.75643500  1
  O  O49  1  0.45899362  0.31201467  0.75898247  1
  O  O50  1  0.86765427  0.56292330  0.75156562  1
  O  O51  1  0.69330146  0.55674533  0.25366487  1
  O  O52  1  0.84995389  0.31718430  0.25463528  1
  O  O53  1  0.46996383  0.16156115  0.25474361  1
  O  O54  1  0.63897725  0.49786220  0.92538010  1
  O  O55  1  0.84980112  0.35739775  0.92657096  1
  O  O56  1  0.50603517  0.14418470  0.92768555  1
  O  O57  1  0.64140492  0.15441514  0.42599723  1
  O  O58  1  0.49405904  0.34609968  0.42165161  1
  O  O59  1  0.84410006  0.49217912  0.42398704  1
  O  O60  1  0.34386186  0.50212458  0.06684633  1
  O  O61  1  0.16009926  0.67093332  0.06642890  1
  O  O62  1  0.51855385  0.85585120  0.06882035  1
  O  O63  1  0.32953146  0.87013994  0.57719642  1
  O  O64  1  0.51610737  0.66571960  0.58133743  1
  O  O65  1  0.12606840  0.46230303  0.57562461  1
  O  O66  1  0.29277219  0.81826256  0.25766296  1
  O  O67  1  0.53571272  0.70923593  0.25917276  1
  O  O68  1  0.19414881  0.47632813  0.26195313  1
  O  O69  1  0.27900741  0.47474044  0.75843741  1
  O  O70  1  0.17747519  0.72346019  0.75437741  1
  O  O71  1  0.51814996  0.81245343  0.75928985  1
loop_
_geom_bond_atom_site_label_1
_geom_bond_atom_site_label_2
_geom_bond_distance
_geom_bond_site_symmetry_2
Na0 O44 2.510635 1_555
Na0 O43 2.601344 1_665
Na0 O42 2.619243 1_565
Na0 O36 2.732114 1_555
Na0 O37 2.839230 1_565
Na0 O38 2.948286 1_665
Na1 O41 2.612205 1_555
Na1 O47 2.615849 1_666
Na1 O45 2.620267 1_556
Na1 O46 2.644120 1_566
Na1 O40 2.700125 1_655
Na1 O39 2.733279 1_665
Na2 O48 2.461341 1_555
Na2 O49 2.468862 1_555
Na2 O56 2.644486 1_555
Na2 O55 2.685639 1_555
Na2 O54 2.722386 1_555
Na2 O50 2.880284 1_555
Na3 O53 2.334675 1_555
Na3 O52 2.357654 1_555
Na3 O51 2.699936 1_555
Na3 O57 2.709394 1_555
Na3 O59 2.745231 1_555
Na3 O58 2.799225 1_555
Na4 O60 2.633356 1_555
Na4 O61 2.690578 1_555
Na4 O68 2.774619 1_555
Na4 O66 2.783314 1_555
Na4 O62 2.843156 1_555
Na4 O67 2.871929 1_555
Na5 O64 2.513952 1_555
Na5 O71 2.525807 1_555
Na5 O69 2.590573 1_555
Na5 O70 2.767114 1_555
Na5 O65 2.906727 1_555
Na5 O63 2.943249 1_555
La0 O14 2.193360 1_555
La0 O49 2.242856 1_555
La0 O13 2.311195 1_555
La0 O48 2.317683 1_555
La0 O50 2.400242 1_555
La0 O12 2.439611 1_555
La1 O15 2.252745 1_555
La1 O17 2.265248 1_555
La1 O52 2.353858 1_555
La1 O16 2.393020 1_555
La1 O53 2.400096 1_555
La1 O51 2.483131 1_555
La2 O27 2.196154 1_555
La2 O64 2.267513 1_555
La2 O29 2.268837 1_555
La2 O63 2.371989 1_555
La2 O28 2.397879 1_555
La2 O65 2.496094 1_555
O0 Si0 1.614697 1_565
O0 Ta0 1.909003 1_465
O1 S0 1.495260 1_555
O1 Ta0 2.003868 1_565
O2 Si1 1.632025 1_555
O2 Ta0 1.885426 1_455
O3 Si2 1.632517 1_555
O3 Ta1 1.902417 1_555
O4 S1 1.467319 1_555
O4 Ta1 2.167410 1_565
O5 Si3 1.618559 1_555
O5 Ta1 1.920864 1_665
O6 Si3 1.732080 1_555
O6 Ta2 1.859295 1_555
O7 Si2 1.700578 1_555
O7 Ta2 1.933516 1_445
O8 S1 1.541447 1_555
O8 Ta2 2.052683 1_455
O9 S0 1.478368 1_555
O9 Ta3 2.405049 1_665
O10 Si1 1.675989 1_555
O10 Ta3 1.960306 1_555
O11 Si0 1.673683 1_565
O11 Ta3 1.905127 1_565
O12 S2 1.441678 1_555
O13 S3 1.453934 1_555
O14 Si4 1.579172 1_555
O15 Si5 1.591537 1_555
O16 S4 1.465209 1_555
O17 Si6 1.585511 1_555
O18 Si6 1.657537 1_555
O18 Ta4 1.958276 1_554
O19 Si5 1.670353 1_555
O19 Ta4 1.954579 1_554
O20 S4 1.478081 1_555
O20 Ta4 2.384912 1_554
O21 S3 1.507567 1_555
O21 Ta5 2.285688 1_555
O22 Si4 1.737133 1_555
O22 Ta5 1.920452 1_555
O23 S2 1.543421 1_555
O23 Ta5 2.092584 1_555
O24 Si7 1.612196 1_555
O24 Ta6 1.979280 1_556
O25 Si8 1.630214 1_555
O25 Ta6 1.890113 1_556
O26 Si9 1.624668 1_555
O26 Ta6 1.949088 1_556
O27 Si10 1.588006 1_555
O28 S5 1.454404 1_555
O29 Si11 1.577750 1_555
O30 Si11 1.680900 1_555
O30 Ta7 1.909522 1_555
O31 Si10 1.673484 1_555
O31 Ta7 1.966793 1_555
O32 S5 1.471512 1_555
O32 Ta7 2.444926 1_555
O33 Si8 1.636513 1_555
O33 Ta8 1.982678 1_555
O34 Si9 1.650743 1_555
O34 Ta8 1.948878 1_555
O35 Si7 1.657698 1_555
O35 Ta8 1.888152 1_555
O36 Si11 1.620819 1_655
O36 Ta0 1.977303 1_565
O37 Si10 1.633519 1_545
O37 Ta0 1.935005 1_555
O38 S5 1.497198 1_555
O38 Ta0 2.060005 1_455
O39 Si8 1.653995 1_555
O39 Ta1 1.914373 1_555
O40 Si9 1.645493 1_555
O40 Ta1 1.982055 1_565
O41 Si7 1.626738 1_555
O41 Ta1 2.022301 1_665
O42 S2 1.516218 1_555
O42 Ta2 2.213511 1_545
O43 S3 1.503209 1_555
O43 Ta2 2.291059 1_445
O44 Si4 1.691025 1_555
O44 Ta2 1.968194 1_555
O45 Si5 1.681398 1_555
O45 Ta3 1.970779 1_665
O46 S4 1.511533 1_555
O46 Ta3 2.217175 1_655
O47 Si6 1.708025 1_555
O47 Ta3 1.893844 1_555
O48 Si3 1.588413 1_545
O49 Si2 1.598541 1_555
O50 S1 1.453418 1_655
O51 S0 1.457286 1_555
O52 Si1 1.589941 1_655
O53 Si0 1.579549 1_555
O54 Si7 1.659610 1_555
O54 Ta4 1.911266 1_555
O55 Si8 1.630019 1_655
O55 Ta4 2.011435 1_555
O56 Si9 1.645866 1_545
O56 Ta4 2.000948 1_555
O57 Si10 1.667943 1_545
O57 Ta5 1.970945 1_555
O58 S5 1.511284 1_555
O58 Ta5 2.125823 1_555
O59 Si11 1.692389 1_655
O59 Ta5 1.897414 1_555
O60 Si6 1.631012 1_555
O60 Ta6 1.977836 1_555
O61 Si5 1.646100 1_455
O61 Ta6 1.956841 1_555
O62 S4 1.488166 1_565
O62 Ta6 2.150172 1_555
O63 S3 1.472815 1_565
O64 Si4 1.604206 1_555
O65 S2 1.461971 1_455
O66 Si0 1.692673 1_565
O66 Ta7 1.879689 1_555
O67 S0 1.499087 1_555
O67 Ta7 2.194495 1_555
O68 Si1 1.678797 1_555
O68 Ta7 1.951479 1_555
O69 Si2 1.647073 1_555
O69 Ta8 2.007552 1_555
O70 S1 1.478114 1_555
O70 Ta8 2.314088 1_555
O71 Si3 1.643749 1_555
O71 Ta8 2.007954 1_555
