# generated using pymatgen
data_Na7Mg2Nb2Si3(PO8)3
_symmetry_space_group_name_H-M   'P 1'
_cell_length_a   9.10904903
_cell_length_b   9.08589774
_cell_length_c   22.20430779
_cell_angle_alpha   90.16009212
_cell_angle_beta   89.91803494
_cell_angle_gamma   120.05491475
_symmetry_Int_Tables_number   1
_chemical_formula_structural   Na7Mg2Nb2Si3(PO8)3
_chemical_formula_sum   'Na21 Mg6 Nb6 Si9 P9 O72'
_cell_volume   1590.62012518
_cell_formula_units_Z   3
loop_
 _symmetry_equiv_pos_site_id
 _symmetry_equiv_pos_as_xyz
  1  'x, y, z'
loop_
 _atom_site_type_symbol
 _atom_site_label
 _atom_site_symmetry_multiplicity
 _atom_site_fract_x
 _atom_site_fract_y
 _atom_site_fract_z
 _atom_site_occupancy
  Na  Na0  1  0.61773003  0.98110678  0.26071519  1
  Na  Na1  1  0.35485027  0.37170717  0.25546093  1
  Na  Na2  1  0.02523787  0.64516349  0.25508363  1
  Na  Na3  1  0.64895531  0.62366167  0.74491091  1
  Na  Na4  1  0.98144927  0.36004877  0.74127070  1
  Na  Na5  1  0.37410774  0.01759563  0.74248088  1
  Na  Na6  1  0.01255686  0.67721241  0.58475824  1
  Na  Na7  1  0.66829681  0.99083172  0.58349214  1
  Na  Na8  1  0.27906842  0.94928720  0.08632388  1
  Na  Na9  1  0.66791563  0.71506114  0.07881222  1
  Na  Na10  1  0.04950996  0.33495829  0.08673821  1
  Na  Na11  1  0.97541938  0.68926529  0.90671080  1
  Na  Na12  1  0.31955956  0.29174268  0.90817671  1
  Na  Na13  1  0.95357311  0.30555910  0.42611490  1
  Na  Na14  1  0.35553885  0.04110565  0.42373202  1
  Na  Na15  1  0.99943742  0.00136917  0.50187956  1
  Na  Na16  1  0.98300965  0.99189098  0.99571053  1
  Na  Na17  1  0.66753548  0.32866264  0.82164460  1
  Na  Na18  1  0.66661024  0.34139095  0.34721492  1
  Na  Na19  1  0.32392316  0.66663240  0.17015636  1
  Na  Na20  1  0.32695414  0.65346017  0.66322303  1
  Mg  Mg0  1  0.99269401  0.99682603  0.85231868  1
  Mg  Mg1  1  0.00142886  0.99701277  0.14686365  1
  Mg  Mg2  1  0.66790192  0.33384750  0.68114632  1
  Mg  Mg3  1  0.66461369  0.33113139  0.48525217  1
  Mg  Mg4  1  0.33327000  0.66735803  0.01973368  1
  Mg  Mg5  1  0.33155069  0.66812801  0.31538691  1
  Nb  Nb0  1  0.99875331  0.00213432  0.35251880  1
  Nb  Nb1  1  0.01178394  0.00684681  0.64804155  1
  Nb  Nb2  1  0.67118649  0.33255837  0.18973000  1
  Nb  Nb3  1  0.67038064  0.33854025  0.97611386  1
  Nb  Nb4  1  0.33902811  0.66785191  0.51849445  1
  Nb  Nb5  1  0.33594654  0.66662677  0.81443081  1
  Si  Si0  1  0.29017913  0.99636713  0.24557101  1
  Si  Si1  1  0.00479161  0.29341379  0.24514713  1
  Si  Si2  1  0.29636551  0.29251529  0.75635463  1
  Si  Si3  1  0.99771727  0.70371926  0.75462599  1
  Si  Si4  1  0.96110632  0.33244837  0.58264069  1
  Si  Si5  1  0.37456284  0.04288855  0.58195717  1
  Si  Si6  1  0.96272416  0.63052948  0.08302932  1
  Si  Si7  1  0.63091247  0.67734561  0.92273234  1
  Si  Si8  1  0.62899693  0.96285048  0.41192221  1
  P  P0  1  0.71025086  0.71022099  0.24643586  1
  P  P1  1  0.71080731  0.99903850  0.75222394  1
  P  P2  1  0.66642839  0.62548909  0.58471292  1
  P  P3  1  0.66519222  0.04412463  0.08277667  1
  P  P4  1  0.37834630  0.33319425  0.08294709  1
  P  P5  1  0.04248853  0.37379969  0.91972010  1
  P  P6  1  0.33465611  0.95819405  0.92069665  1
  P  P7  1  0.33637225  0.37616830  0.41189017  1
  P  P8  1  0.03913482  0.66680773  0.41438865  1
  O  O0  1  0.19485754  0.02931155  0.30564739  1
  O  O1  1  0.83284397  0.80080365  0.30174423  1
  O  O2  1  0.96815753  0.16372851  0.30516916  1
  O  O3  1  0.20964420  0.18407753  0.81487538  1
  O  O4  1  0.97263652  0.78996172  0.81298370  1
  O  O5  1  0.82107089  0.02503106  0.80541438  1
  O  O6  1  0.78473214  0.96344574  0.69326628  1
  O  O7  1  0.16378928  0.19423991  0.69738029  1
  O  O8  1  0.02582538  0.82882980  0.69461606  1
  O  O9  1  0.78612726  0.81364080  0.18957604  1
  O  O10  1  0.02664659  0.20683130  0.18595824  1
  O  O11  1  0.17715093  0.96563880  0.18687993  1
  O  O12  1  0.89296191  0.37914425  0.64260249  1
  O  O13  1  0.48663913  0.10994884  0.64224999  1
  O  O14  1  0.63759258  0.53072285  0.64414538  1
  O  O15  1  0.85361210  0.50247810  0.14102980  1
  O  O16  1  0.64732174  0.13773218  0.14080960  1
  O  O17  1  0.49158706  0.34892367  0.13890460  1
  O  O18  1  0.47502341  0.31589559  0.02663016  1
  O  O19  1  0.83591428  0.51854307  0.02485759  1
  O  O20  1  0.68131647  0.16157423  0.02901545  1
  O  O21  1  0.44669541  0.14411268  0.52073784  1
  O  O22  1  0.70300922  0.54608192  0.53121983  1
  O  O23  1  0.84657637  0.29206887  0.52343957  1
  O  O24  1  0.53694583  0.68319240  0.98231508  1
  O  O25  1  0.14516669  0.45896887  0.97625307  1
  O  O26  1  0.30940999  0.85006512  0.97631876  1
  O  O27  1  0.52792975  0.84075808  0.47226372  1
  O  O28  1  0.30794636  0.46904848  0.46680582  1
  O  O29  1  0.15825033  0.69367451  0.47041953  1
  O  O30  1  0.11860151  0.64158502  0.35760225  1
  O  O31  1  0.51693885  0.87246250  0.35403977  1
  O  O32  1  0.34534647  0.46890125  0.35399012  1
  O  O33  1  0.13074309  0.49543219  0.86315399  1
  O  O34  1  0.35631473  0.86696833  0.86305760  1
  O  O35  1  0.50033645  0.64201484  0.86255598  1
  O  O36  1  0.03744649  0.84012649  0.41143647  1
  O  O37  1  0.82151283  0.97672927  0.41086771  1
  O  O38  1  0.16334318  0.19382247  0.41162937  1
  O  O39  1  0.02275539  0.20011842  0.91120132  1
  O  O40  1  0.18561814  0.98866730  0.91438663  1
  O  O41  1  0.82217216  0.82591929  0.91561087  1
  O  O42  1  0.97648177  0.15732716  0.59287700  1
  O  O43  1  0.17237380  0.00207151  0.59048347  1
  O  O44  1  0.82324128  0.81341423  0.59039465  1
  O  O45  1  0.96484803  0.80855484  0.08175743  1
  O  O46  1  0.82736956  0.03432666  0.08442948  1
  O  O47  1  0.20458870  0.17163680  0.08275350  1
  O  O48  1  0.67973752  0.14937126  0.74499734  1
  O  O49  1  0.48294140  0.32055783  0.74523652  1
  O  O50  1  0.84000620  0.51355414  0.74618784  1
  O  O51  1  0.70120101  0.53126183  0.24482283  1
  O  O52  1  0.82411808  0.30392282  0.24508630  1
  O  O53  1  0.47843738  0.18033633  0.24419650  1
  O  O54  1  0.63473393  0.48747337  0.92167431  1
  O  O55  1  0.86362352  0.36464363  0.92110530  1
  O  O56  1  0.50173540  0.13800031  0.92258321  1
  O  O57  1  0.65748132  0.15268373  0.41849066  1
  O  O58  1  0.48389069  0.34573130  0.42000165  1
  O  O59  1  0.86339906  0.51461495  0.42395569  1
  O  O60  1  0.36779232  0.49606408  0.08269812  1
  O  O61  1  0.14268311  0.63702488  0.08285442  1
  O  O62  1  0.50212042  0.87121878  0.08216676  1
  O  O63  1  0.34266510  0.84044923  0.57424049  1
  O  O64  1  0.50970015  0.65545879  0.57532984  1
  O  O65  1  0.15611438  0.49945966  0.57175614  1
  O  O66  1  0.32418764  0.84006647  0.25355363  1
  O  O67  1  0.53096120  0.67735925  0.25586416  1
  O  O68  1  0.16237970  0.48179453  0.25480177  1
  O  O69  1  0.30433949  0.48320187  0.75708174  1
  O  O70  1  0.18125019  0.69855387  0.75678573  1
  O  O71  1  0.52764414  0.83098676  0.75769129  1
loop_
_geom_bond_atom_site_label_1
_geom_bond_atom_site_label_2
_geom_bond_distance
_geom_bond_site_symmetry_2
Na0 O31 2.282452 1_555
Na0 O66 2.320566 1_555
Na0 O67 2.463038 1_555
Na0 O52 2.595812 1_565
Na0 O53 2.706815 1_565
Na0 O2 2.934505 1_565
Na0 O16 2.970049 1_565
Na1 O32 2.374645 1_555
Na1 O67 2.413172 1_555
Na1 O68 2.414789 1_555
Na1 O53 2.512110 1_555
Na1 O51 2.743990 1_555
Na2 O68 2.370913 1_555
Na2 O66 2.392153 1_555
Na2 O30 2.437165 1_555
Na2 O51 2.603099 1_455
Na2 O52 2.706711 1_455
Na2 O15 2.915667 1_455
Na2 O1 2.934889 1_455
Na2 O11 2.944414 1_555
Na3 O14 2.373273 1_555
Na3 O49 2.387420 1_555
Na3 O50 2.403018 1_555
Na3 O71 2.632723 1_555
Na3 O69 2.746363 1_555
Na3 O6 2.926915 1_555
Na3 O4 2.966231 1_555
Na3 O35 2.982922 1_555
Na4 O50 2.327215 1_555
Na4 O12 2.372112 1_555
Na4 O48 2.440264 1_555
Na4 O69 2.594283 1_655
Na4 O70 2.698052 1_655
Na4 O7 2.910613 1_655
Na4 O5 2.998720 1_555
Na4 O33 3.000512 1_655
Na5 O49 2.414456 1_555
Na5 O48 2.418377 1_555
Na5 O13 2.418739 1_555
Na5 O70 2.548068 1_545
Na5 O71 2.706399 1_545
Na5 O8 2.947076 1_545
Na5 O34 2.977314 1_545
Na6 O65 2.552154 1_555
Na6 O43 2.557730 1_565
Na6 O44 2.580134 1_455
Na6 O63 2.613215 1_555
Na6 O12 2.689071 1_455
Na6 O22 2.723963 1_455
Na6 O8 2.770901 1_555
Na6 O29 2.832465 1_555
Na7 O42 2.441061 1_565
Na7 O63 2.578374 1_555
Na7 O44 2.625835 1_555
Na7 O64 2.644492 1_555
Na7 O13 2.718722 1_565
Na7 O6 2.720874 1_555
Na7 O23 2.732859 1_565
Na7 O27 2.799582 1_555
Na8 O47 2.433495 1_565
Na8 O11 2.449411 1_555
Na8 O61 2.463211 1_555
Na8 O62 2.466276 1_555
Na8 O45 2.484332 1_455
Na8 O26 2.662838 1_554
Na9 O45 2.395918 1_555
Na9 O24 2.399147 1_554
Na9 O60 2.447870 1_555
Na9 O46 2.513584 1_565
Na9 O62 2.538674 1_555
Na9 O9 2.653253 1_555
Na10 O61 2.434788 1_555
Na10 O46 2.453861 1_455
Na10 O10 2.454075 1_555
Na10 O47 2.510768 1_555
Na10 O60 2.511062 1_555
Na10 O25 2.659536 1_554
Na11 O4 2.280988 1_555
Na11 O41 2.294181 1_555
Na11 O40 2.424136 1_655
Na11 O55 2.614262 1_555
Na11 O54 2.720986 1_555
Na11 O33 2.919124 1_655
Na11 O19 2.990280 1_556
Na12 O3 2.294526 1_555
Na12 O40 2.393085 1_545
Na12 O39 2.398408 1_555
Na12 O54 2.525895 1_555
Na12 O56 2.670827 1_555
Na12 O35 2.937711 1_555
Na12 O18 2.944071 1_556
Na13 O57 2.340917 1_555
Na13 O23 2.347504 1_555
Na13 O59 2.418341 1_555
Na13 O38 2.593233 1_655
Na13 O37 2.623666 1_545
Na14 O21 2.328160 1_555
Na14 O58 2.407101 1_555
Na14 O57 2.410984 1_555
Na14 O36 2.550355 1_545
Na14 O38 2.738483 1_555
Na15 O43 2.520102 1_655
Na15 O37 2.530637 1_545
Na15 O42 2.532551 1_555
Na15 O44 2.572837 1_545
Na15 O38 2.588150 1_655
Na15 O36 2.605536 1_645
Na16 O41 2.315869 1_555
Na16 O45 2.488665 1_556
Na16 O39 2.561916 1_665
Na16 O46 2.564099 1_566
Na16 O40 2.590754 1_655
Na16 O47 2.677350 1_666
Na17 O50 2.337104 1_555
Na17 O49 2.365298 1_555
Na17 O48 2.393295 1_555
Na17 O54 2.741648 1_555
Na17 O55 2.756252 1_555
Na17 O56 2.774274 1_555
Na18 O57 2.307242 1_555
Na18 O58 2.332706 1_555
Na18 O59 2.400358 1_555
Na18 O51 2.778456 1_555
Na18 O53 2.791400 1_555
Na18 O52 2.791497 1_555
Na19 O66 2.427376 1_555
Na19 O68 2.460207 1_555
Na19 O61 2.473259 1_555
Na19 O62 2.626057 1_555
Na19 O60 2.633233 1_555
Na19 O67 2.648213 1_555
Na20 O65 2.513254 1_555
Na20 O69 2.544880 1_555
Na20 O64 2.557491 1_555
Na20 O63 2.566151 1_555
Na20 O70 2.603348 1_555
Na20 O71 2.716997 1_555
Mg0 O4 1.994049 1_555
Mg0 O5 2.000443 1_565
Mg0 O3 2.031409 1_665
Mg0 O41 2.094993 1_555
Mg0 O39 2.162651 1_665
Mg0 O40 2.265204 1_655
Mg1 O11 1.973675 1_555
Mg1 O10 1.998327 1_565
Mg1 O9 2.062079 1_455
Mg1 O45 2.132824 1_455
Mg1 O47 2.243321 1_565
Mg1 O46 2.257873 1_465
Mg2 O13 2.059216 1_555
Mg2 O12 2.063127 1_555
Mg2 O14 2.110577 1_555
Mg2 O50 2.153776 1_555
Mg2 O49 2.160707 1_555
Mg2 O48 2.241836 1_555
Mg3 O21 2.018156 1_555
Mg3 O23 2.046272 1_555
Mg3 O22 2.069801 1_555
Mg3 O57 2.170677 1_555
Mg3 O59 2.211880 1_555
Mg3 O58 2.247977 1_555
Mg4 O24 1.970285 1_554
Mg4 O26 2.025651 1_554
Mg4 O25 2.048869 1_554
Mg4 O61 2.137795 1_555
Mg4 O62 2.203728 1_555
Mg4 O60 2.231463 1_555
Mg5 O31 1.972313 1_555
Mg5 O30 2.055961 1_555
Mg5 O32 2.064946 1_555
Mg5 O68 2.104896 1_555
Mg5 O66 2.108850 1_555
Mg5 O67 2.212335 1_555
Nb0 O2 1.938575 1_555
Nb0 O0 1.972148 1_655
Nb0 O37 1.990185 1_545
Nb0 O1 2.031127 1_545
Nb0 O38 2.093121 1_655
Nb0 O36 2.129362 1_645
Nb1 O7 1.910192 1_555
Nb1 O43 1.957811 1_555
Nb1 O8 1.979623 1_545
Nb1 O42 1.980913 1_455
Nb1 O6 2.149601 1_445
Nb1 O44 2.155728 1_445
Nb2 O15 1.936140 1_555
Nb2 O52 1.972017 1_555
Nb2 O16 1.991273 1_555
Nb2 O53 2.007265 1_555
Nb2 O17 2.054759 1_555
Nb2 O51 2.079632 1_555
Nb3 O19 1.909049 1_556
Nb3 O54 1.961664 1_555
Nb3 O18 2.023864 1_556
Nb3 O20 2.036262 1_556
Nb3 O55 2.055221 1_555
Nb3 O56 2.069321 1_555
Nb4 O27 1.943936 1_555
Nb4 O63 1.982357 1_555
Nb4 O65 1.991646 1_555
Nb4 O28 2.034018 1_555
Nb4 O64 2.050372 1_555
Nb4 O29 2.073555 1_555
Nb5 O35 1.943071 1_555
Nb5 O69 1.997620 1_555
Nb5 O70 2.030966 1_555
Nb5 O34 2.040824 1_555
Nb5 O33 2.043315 1_555
Nb5 O71 2.063672 1_555
O0 Si0 1.696393 1_545
O1 P0 1.584382 1_555
O2 Si1 1.699891 1_655
O3 Si2 1.583617 1_555
O4 Si3 1.586847 1_555
O5 P1 1.491214 1_545
O6 P1 1.576404 1_555
O7 Si2 1.699509 1_555
O8 Si3 1.687955 1_455
O9 P0 1.519294 1_555
O10 Si1 1.592511 1_555
O11 Si0 1.596927 1_555
O12 Si4 1.611286 1_555
O13 Si5 1.606879 1_555
O14 P2 1.526659 1_555
O15 Si6 1.687157 1_555
O16 P3 1.594446 1_555
O17 P4 1.575836 1_555
O18 P4 1.580606 1_555
O19 Si6 1.690454 1_555
O20 P3 1.560437 1_555
O21 Si5 1.588869 1_555
O22 P2 1.509065 1_555
O23 Si4 1.602746 1_555
O24 Si7 1.589872 1_555
O25 P5 1.523905 1_555
O26 P6 1.524172 1_555
O27 Si8 1.689713 1_555
O28 P7 1.574257 1_555
O29 P8 1.587951 1_555
O30 P8 1.525882 1_555
O31 Si8 1.589462 1_555
O32 P7 1.518618 1_555
O33 P5 1.600042 1_555
O34 P6 1.587788 1_555
O35 Si7 1.709630 1_555
O36 P8 1.584055 1_555
O37 Si8 1.694133 1_555
O38 P7 1.616623 1_555
O39 P5 1.507526 1_555
O40 P6 1.522046 1_555
O41 Si7 1.589721 1_555
O42 Si4 1.681758 1_555
O43 Si5 1.697248 1_555
O44 P2 1.589977 1_555
O45 Si6 1.608245 1_555
O46 P3 1.524315 1_555
O47 P4 1.527310 1_555
O48 P1 1.536269 1_545
O49 Si2 1.606135 1_555
O50 Si3 1.611503 1_555
O51 P0 1.586628 1_555
O52 Si1 1.695603 1_655
O53 Si0 1.692515 1_545
O54 Si7 1.742947 1_555
O55 P5 1.589515 1_655
O56 P6 1.579970 1_545
O57 Si8 1.616781 1_545
O58 P7 1.512544 1_555
O59 P8 1.517635 1_655
O60 P4 1.530256 1_555
O61 Si6 1.610507 1_455
O62 P3 1.528787 1_565
O63 Si5 1.720472 1_565
O64 P2 1.595710 1_555
O65 Si4 1.678476 1_455
O66 Si0 1.608225 1_555
O67 P0 1.520236 1_555
O68 Si1 1.604348 1_555
O69 Si2 1.697377 1_555
O70 Si3 1.696551 1_455
O71 P1 1.605785 1_555
