# generated using pymatgen
data_Hf(BH4)4
_symmetry_space_group_name_H-M   'P 1'
_cell_length_a   5.98272337
_cell_length_b   5.98272337
_cell_length_c   5.98272337
_cell_angle_alpha   90.00000000
_cell_angle_beta   90.00000000
_cell_angle_gamma   90.00000000
_symmetry_Int_Tables_number   1
_chemical_formula_structural   Hf(BH4)4
_chemical_formula_sum   'Hf1 B4 H16'
_cell_volume   214.13949148
_cell_formula_units_Z   1
loop_
 _symmetry_equiv_pos_site_id
 _symmetry_equiv_pos_as_xyz
  1  'x, y, z'
loop_
 _atom_site_type_symbol
 _atom_site_label
 _atom_site_symmetry_multiplicity
 _atom_site_fract_x
 _atom_site_fract_y
 _atom_site_fract_z
 _atom_site_occupancy
  Hf  Hf0  1  0.00000000  -0.00000000  -0.00000000  1
  B  B0  1  0.21997531  0.78002469  0.78002469  1
  B  B1  1  0.78002469  0.78002469  0.21997531  1
  B  B2  1  0.78002469  0.21997531  0.78002469  1
  B  B3  1  0.21997531  0.21997531  0.21997531  1
  H  H0  1  0.75058018  0.75058018  0.01634708  1
  H  H1  1  0.24941982  0.98365292  0.75058018  1
  H  H2  1  0.98365292  0.24941982  0.75058018  1
  H  H3  1  0.24941982  0.01634708  0.24941982  1
  H  H4  1  0.01634708  0.24941982  0.24941982  1
  H  H5  1  0.33437469  0.33437469  0.33437469  1
  H  H6  1  0.66562531  0.33437469  0.66562531  1
  H  H7  1  0.66562531  0.66562531  0.33437469  1
  H  H8  1  0.33437469  0.66562531  0.66562531  1
  H  H9  1  0.24941982  0.24941982  0.01634708  1
  H  H10  1  0.75058018  0.01634708  0.75058018  1
  H  H11  1  0.75058018  0.98365292  0.24941982  1
  H  H12  1  0.98365292  0.75058018  0.24941982  1
  H  H13  1  0.01634708  0.75058018  0.75058018  1
  H  H14  1  0.24941982  0.75058018  0.98365292  1
  H  H15  1  0.75058018  0.24941982  0.98365292  1
loop_
_geom_bond_atom_site_label_1
_geom_bond_atom_site_label_2
_geom_bond_distance
_geom_bond_site_symmetry_2
B0 H8 1.185450 1_555
B0 H13 1.243463 1_555
B0 H1 1.243463 1_555
B0 H14 1.243463 1_555
B1 H7 1.185450 1_555
B1 H0 1.243463 1_555
B1 H12 1.243463 1_555
B1 H11 1.243463 1_555
B2 H6 1.185450 1_555
B2 H10 1.243463 1_555
B2 H15 1.243463 1_555
B2 H2 1.243463 1_555
B3 H5 1.185450 1_555
B3 H9 1.243463 1_555
B3 H3 1.243463 1_555
B3 H4 1.243463 1_555
H0 Hf0 2.112568 1_665
H1 Hf0 2.112568 1_566
H2 Hf0 2.112568 1_656
H3 Hf0 2.112568 1_555
H4 Hf0 2.112568 1_555
H9 Hf0 2.112568 1_555
H10 Hf0 2.112568 1_656
H11 Hf0 2.112568 1_665
H12 Hf0 2.112568 1_665
H13 Hf0 2.112568 1_566
H14 Hf0 2.112568 1_566
H15 Hf0 2.112568 1_656
