# generated using pymatgen
data_Tb4BBr6
_symmetry_space_group_name_H-M   'P 1'
_cell_length_a   10.66271974
_cell_length_b   10.66276247
_cell_length_c   12.62052334
_cell_angle_alpha   84.32806647
_cell_angle_beta   84.32670670
_cell_angle_gamma   63.66562611
_symmetry_Int_Tables_number   1
_chemical_formula_structural   Tb4BBr6
_chemical_formula_sum   'Tb16 B4 Br24'
_cell_volume   1277.23444372
_cell_formula_units_Z   4
loop_
 _symmetry_equiv_pos_site_id
 _symmetry_equiv_pos_as_xyz
  1  'x, y, z'
loop_
 _atom_site_type_symbol
 _atom_site_label
 _atom_site_symmetry_multiplicity
 _atom_site_fract_x
 _atom_site_fract_y
 _atom_site_fract_z
 _atom_site_occupancy
  Tb  Tb0  1  0.71329004  0.47065748  0.19154338  1
  Tb  Tb1  1  0.52934958  0.28672451  0.30847883  1
  Tb  Tb2  1  0.28672470  0.52935022  0.80845442  1
  Tb  Tb3  1  0.47065057  0.71326728  0.69152212  1
  Tb  Tb4  1  0.78549534  0.54511554  0.45404420  1
  Tb  Tb5  1  0.45488082  0.21451635  0.04597678  1
  Tb  Tb6  1  0.21451941  0.45487845  0.54596709  1
  Tb  Tb7  1  0.54510156  0.78549392  0.95400923  1
  Tb  Tb8  1  0.58142441  0.35795758  0.58873599  1
  Tb  Tb9  1  0.64202119  0.41856064  0.91126525  1
  Tb  Tb10  1  0.41857003  0.64203687  0.41127279  1
  Tb  Tb11  1  0.35795562  0.58143955  0.08871616  1
  Tb  Tb12  1  0.11471531  0.81309411  0.60506463  1
  Tb  Tb13  1  0.18690324  0.88527585  0.89492641  1
  Tb  Tb14  1  0.88530333  0.18689937  0.39494166  1
  Tb  Tb15  1  0.81310030  0.11471768  0.10506465  1
  B  B0  1  0.66212288  0.41194674  0.39493894  1
  B  B1  1  0.58804229  0.33790102  0.10506260  1
  B  B2  1  0.33789046  0.58805200  0.60506055  1
  B  B3  1  0.41195455  0.66209803  0.89493418  1
  Br  Br0  1  0.14085869  0.37586734  0.74813037  1
  Br  Br1  1  0.62414416  0.85913993  0.75186073  1
  Br  Br2  1  0.85913552  0.62416193  0.25187633  1
  Br  Br3  1  0.37582846  0.14088246  0.24813284  1
  Br  Br4  1  0.15848927  0.91407678  0.39524652  1
  Br  Br5  1  0.08592273  0.84149520  0.10474196  1
  Br  Br6  1  0.84151158  0.08592246  0.60474944  1
  Br  Br7  1  0.91410810  0.15849109  0.89526733  1
  Br  Br8  1  0.05451467  0.30702545  0.46606701  1
  Br  Br9  1  0.69296823  0.94549795  0.03400017  1
  Br  Br10  1  0.94551259  0.69296517  0.53391802  1
  Br  Br11  1  0.30702967  0.05450546  0.96604292  1
  Br  Br12  1  0.98705702  0.22533447  0.18015881  1
  Br  Br13  1  0.77467653  0.01295211  0.31983688  1
  Br  Br14  1  0.01293528  0.77468598  0.81983518  1
  Br  Br15  1  0.22534324  0.98704443  0.68015720  1
  Br  Br16  1  0.47035987  0.74894475  0.18439982  1
  Br  Br17  1  0.25104779  0.52964983  0.31558184  1
  Br  Br18  1  0.52963422  0.25105882  0.81559170  1
  Br  Br19  1  0.74894369  0.47035494  0.68442220  1
  Br  Br20  1  0.80897814  0.54664014  0.97375712  1
  Br  Br21  1  0.45334630  0.19096201  0.52625144  1
  Br  Br22  1  0.19099072  0.45335428  0.02623538  1
  Br  Br23  1  0.54664693  0.80900283  0.47376092  1
loop_
_geom_bond_atom_site_label_1
_geom_bond_atom_site_label_2
_geom_bond_distance
_geom_bond_site_symmetry_2
B0 Tb14 2.520882 1_555
B0 Tb4 2.522659 1_555
B0 Tb8 2.607473 1_555
B0 Tb0 2.643355 1_555
B0 Tb10 2.673407 1_555
B0 Tb1 2.692257 1_555
B1 Tb15 2.520959 1_555
B1 Tb5 2.522600 1_555
B1 Tb9 2.607314 1_554
B1 Tb1 2.643572 1_555
B1 Tb11 2.673326 1_555
B1 Tb0 2.692457 1_555
B2 Tb12 2.520823 1_555
B2 Tb6 2.522628 1_555
B2 Tb10 2.607289 1_555
B2 Tb2 2.643310 1_555
B2 Tb8 2.673309 1_555
B2 Tb3 2.692099 1_555
B3 Tb13 2.520890 1_555
B3 Tb7 2.522514 1_555
B3 Tb11 2.607197 1_556
B3 Tb3 2.643514 1_555
B3 Tb9 2.673199 1_555
B3 Tb2 2.692231 1_555
Br0 Tb6 2.757231 1_555
Br0 Tb2 2.900974 1_555
Br1 Tb7 2.757131 1_555
Br1 Tb3 2.901194 1_555
Br2 Tb4 2.757337 1_555
Br2 Tb0 2.901028 1_555
Br3 Tb5 2.757206 1_555
Br3 Tb1 2.901207 1_555
Br4 Tb12 2.833226 1_555
Br4 Tb10 3.000576 1_555
Br4 Tb14 3.070747 1_465
Br5 Tb13 2.833192 1_554
Br5 Tb11 3.000390 1_555
Br5 Tb15 3.070952 1_465
Br6 Tb14 2.833135 1_555
Br6 Tb8 3.000572 1_555
Br6 Tb12 3.070880 1_645
Br7 Tb15 2.833076 1_556
Br7 Tb9 3.000759 1_555
Br7 Tb13 3.070759 1_645
Br8 Tb4 2.871444 1_455
Br8 Tb14 2.880900 1_455
Br8 Tb6 3.074685 1_555
Br9 Tb5 2.871384 1_565
Br9 Tb15 2.880703 1_565
Br9 Tb7 3.075291 1_554
Br10 Tb6 2.871368 1_655
Br10 Tb12 2.880957 1_655
Br10 Tb4 3.074622 1_555
Br11 Tb7 2.871313 1_545
Br11 Tb13 2.881021 1_545
Br11 Tb5 3.074907 1_556
Br12 Tb15 2.870430 1_555
Br12 Tb14 2.878594 1_555
Br12 Tb0 2.932750 1_555
Br13 Tb14 2.870477 1_555
Br13 Tb15 2.878509 1_555
Br13 Tb1 2.932799 1_555
Br14 Tb13 2.870308 1_555
Br14 Tb12 2.878491 1_555
Br14 Tb2 2.932952 1_555
Br15 Tb12 2.870447 1_555
Br15 Tb13 2.878523 1_555
Br15 Tb3 2.932737 1_555
Br16 Tb11 2.948980 1_555
Br16 Tb0 2.949007 1_555
Br16 Tb7 2.972349 1_554
Br16 Tb10 3.066489 1_555
Br17 Tb10 2.949049 1_555
Br17 Tb1 2.949064 1_555
Br17 Tb6 2.972334 1_555
Br17 Tb11 3.066393 1_555
Br18 Tb9 2.948754 1_555
Br18 Tb2 2.948937 1_555
Br18 Tb5 2.972301 1_556
Br18 Tb8 3.066263 1_555
Br19 Tb3 2.948946 1_555
Br19 Tb8 2.949072 1_555
Br19 Tb4 2.972260 1_555
Br19 Tb9 3.066211 1_555
Br20 Tb7 2.849659 1_555
Br20 Tb9 2.881626 1_555
Br20 Tb0 2.998474 1_556
Br21 Tb6 2.849738 1_555
Br21 Tb8 2.881931 1_555
Br21 Tb1 2.998698 1_555
Br22 Tb5 2.849662 1_555
Br22 Tb11 2.881693 1_555
Br22 Tb2 2.998645 1_554
Br23 Tb4 2.849655 1_555
Br23 Tb10 2.881668 1_555
Br23 Tb3 2.998444 1_555
