# generated using pymatgen
data_MgMo2W(Se2S)2
_symmetry_space_group_name_H-M   'P 1'
_cell_length_a   6.53886600
_cell_length_b   6.53890681
_cell_length_c   60.27509600
_cell_angle_alpha   90.00053382
_cell_angle_beta   90.00010010
_cell_angle_gamma   119.99998973
_symmetry_Int_Tables_number   1
_chemical_formula_structural   MgMo2W(Se2S)2
_chemical_formula_sum   'Mg8 Mo16 W8 Se32 S16'
_cell_volume   2231.90740542
_cell_formula_units_Z   8
loop_
 _symmetry_equiv_pos_site_id
 _symmetry_equiv_pos_as_xyz
  1  'x, y, z'
loop_
 _atom_site_type_symbol
 _atom_site_label
 _atom_site_symmetry_multiplicity
 _atom_site_fract_x
 _atom_site_fract_y
 _atom_site_fract_z
 _atom_site_occupancy
  Mg  Mg0_0  1  0.33284300  0.16670550  0.42818750  1
  Mg  Mg0_1  1  0.33284300  0.16670550  0.92818750  1
  Mg  Mg0_2  1  0.33284300  0.66670550  0.42818750  1
  Mg  Mg0_3  1  0.33284300  0.66670550  0.92818750  1
  Mg  Mg0_4  1  0.83284300  0.16670550  0.42818750  1
  Mg  Mg0_5  1  0.83284300  0.16670550  0.92818750  1
  Mg  Mg0_6  1  0.83284300  0.66670550  0.42818750  1
  Mg  Mg0_7  1  0.83284300  0.66670550  0.92818750  1
  Mo  Mo0_0  1  0.16665650  0.33331800  0.05771050  1
  Mo  Mo0_1  1  0.16665650  0.33331800  0.55771050  1
  Mo  Mo0_2  1  0.16665650  0.83331800  0.05771050  1
  Mo  Mo0_3  1  0.16665650  0.83331800  0.55771050  1
  Mo  Mo0_4  1  0.66665650  0.33331800  0.05771050  1
  Mo  Mo0_5  1  0.66665650  0.33331800  0.55771050  1
  Mo  Mo0_6  1  0.66665650  0.83331800  0.05771050  1
  Mo  Mo0_7  1  0.66665650  0.83331800  0.55771050  1
  Mo  Mo1_0  1  0.16664850  0.33330950  0.28912550  1
  Mo  Mo1_1  1  0.16664850  0.33330950  0.78912550  1
  Mo  Mo1_2  1  0.16664850  0.83330950  0.28912550  1
  Mo  Mo1_3  1  0.16664850  0.83330950  0.78912550  1
  Mo  Mo1_4  1  0.66664850  0.33330950  0.28912550  1
  Mo  Mo1_5  1  0.66664850  0.33330950  0.78912550  1
  Mo  Mo1_6  1  0.66664850  0.83330950  0.28912550  1
  Mo  Mo1_7  1  0.66664850  0.83330950  0.78912550  1
  W  W0_0  1  0.33334050  0.16668700  0.17340650  1
  W  W0_1  1  0.33334050  0.16668700  0.67340650  1
  W  W0_2  1  0.33334050  0.66668700  0.17340650  1
  W  W0_3  1  0.33334050  0.66668700  0.67340650  1
  W  W0_4  1  0.83334050  0.16668700  0.17340650  1
  W  W0_5  1  0.83334050  0.16668700  0.67340650  1
  W  W0_6  1  0.83334050  0.66668700  0.17340650  1
  W  W0_7  1  0.83334050  0.66668700  0.67340650  1
  Se  Se0_0  1  0.33332300  0.16665100  0.02962450  1
  Se  Se0_1  1  0.33332300  0.16665100  0.52962450  1
  Se  Se0_2  1  0.33332300  0.66665100  0.02962450  1
  Se  Se0_3  1  0.33332300  0.66665100  0.52962450  1
  Se  Se0_4  1  0.83332300  0.16665100  0.02962450  1
  Se  Se0_5  1  0.83332300  0.16665100  0.52962450  1
  Se  Se0_6  1  0.83332300  0.66665100  0.02962450  1
  Se  Se0_7  1  0.83332300  0.66665100  0.52962450  1
  Se  Se1_0  1  0.33331200  0.16663300  0.26098250  1
  Se  Se1_1  1  0.33331200  0.16663300  0.76098250  1
  Se  Se1_2  1  0.33331200  0.66663300  0.26098250  1
  Se  Se1_3  1  0.33331200  0.66663300  0.76098250  1
  Se  Se1_4  1  0.83331200  0.16663300  0.26098250  1
  Se  Se1_5  1  0.83331200  0.16663300  0.76098250  1
  Se  Se1_6  1  0.83331200  0.66663300  0.26098250  1
  Se  Se1_7  1  0.83331200  0.66663300  0.76098250  1
  Se  Se2_0  1  0.33332600  0.16665750  0.08581850  1
  Se  Se2_1  1  0.33332600  0.16665750  0.58581850  1
  Se  Se2_2  1  0.33332600  0.66665750  0.08581850  1
  Se  Se2_3  1  0.33332600  0.66665750  0.58581850  1
  Se  Se2_4  1  0.83332600  0.16665750  0.08581850  1
  Se  Se2_5  1  0.83332600  0.16665750  0.58581850  1
  Se  Se2_6  1  0.83332600  0.66665750  0.08581850  1
  Se  Se2_7  1  0.83332600  0.66665750  0.58581850  1
  Se  Se3_0  1  0.33332000  0.16664500  0.31721300  1
  Se  Se3_1  1  0.33332000  0.16664500  0.81721300  1
  Se  Se3_2  1  0.33332000  0.66664500  0.31721300  1
  Se  Se3_3  1  0.33332000  0.66664500  0.81721300  1
  Se  Se3_4  1  0.83332000  0.16664500  0.31721300  1
  Se  Se3_5  1  0.83332000  0.16664500  0.81721300  1
  Se  Se3_6  1  0.83332000  0.66664500  0.31721300  1
  Se  Se3_7  1  0.83332000  0.66664500  0.81721300  1
  S  S0_0  1  0.16667350  0.33335200  0.19898800  1
  S  S0_1  1  0.16667350  0.33335200  0.69898800  1
  S  S0_2  1  0.16667350  0.83335200  0.19898800  1
  S  S0_3  1  0.16667350  0.83335200  0.69898800  1
  S  S0_4  1  0.66667350  0.33335200  0.19898800  1
  S  S0_5  1  0.66667350  0.33335200  0.69898800  1
  S  S0_6  1  0.66667350  0.83335200  0.19898800  1
  S  S0_7  1  0.66667350  0.83335200  0.69898800  1
  S  S1_0  1  0.16667350  0.33335200  0.14783150  1
  S  S1_1  1  0.16667350  0.33335200  0.64783150  1
  S  S1_2  1  0.16667350  0.83335200  0.14783150  1
  S  S1_3  1  0.16667350  0.83335200  0.64783150  1
  S  S1_4  1  0.66667350  0.33335200  0.14783150  1
  S  S1_5  1  0.66667350  0.33335200  0.64783150  1
  S  S1_6  1  0.66667350  0.83335200  0.14783150  1
  S  S1_7  1  0.66667350  0.83335200  0.64783150  1
loop_
_geom_bond_atom_site_label_1
_geom_bond_atom_site_label_2
_geom_bond_distance
_geom_bond_site_symmetry_2
Mg0_0 Mg0_4 3.269433 1_555
Mg0_0 Mg0_4 3.269433 1_455
Mg0_0 Mg0_6 3.269444 1_445
Mg0_0 Mg0_6 3.269444 1_555
Mg0_0 Mg0_2 3.269453 1_555
Mg0_0 Mg0_2 3.269453 1_545
Mg0_1 Mg0_5 3.269433 1_555
Mg0_1 Mg0_5 3.269433 1_455
Mg0_1 Mg0_7 3.269444 1_445
Mg0_1 Mg0_7 3.269444 1_555
Mg0_1 Mg0_3 3.269453 1_545
Mg0_1 Mg0_3 3.269453 1_555
Mg0_2 Mg0_6 3.269433 1_555
Mg0_2 Mg0_6 3.269433 1_455
Mg0_2 Mg0_4 3.269444 1_565
Mg0_2 Mg0_4 3.269444 1_455
Mg0_3 Mg0_7 3.269433 1_455
Mg0_3 Mg0_7 3.269433 1_555
Mg0_3 Mg0_5 3.269444 1_565
Mg0_3 Mg0_5 3.269444 1_455
Mg0_4 Mg0_6 3.269453 1_555
Mg0_4 Mg0_6 3.269453 1_545
Mg0_5 Mg0_7 3.269453 1_555
Mg0_5 Mg0_7 3.269453 1_545
Mo0_0 Se0_4 2.535525 1_455
Mo0_0 Se0_0 2.535533 1_555
Mo0_0 Se0_2 2.535555 1_555
Mo0_0 Se2_0 2.536414 1_555
Mo0_0 Se2_4 2.536416 1_455
Mo0_0 Se2_2 2.536439 1_555
Mo0_1 Se0_5 2.535525 1_455
Mo0_1 Se0_1 2.535533 1_555
Mo0_1 Se0_3 2.535555 1_555
Mo0_1 Se2_1 2.536414 1_555
Mo0_1 Se2_5 2.536416 1_455
Mo0_1 Se2_3 2.536439 1_555
Mo0_2 Se0_6 2.535525 1_455
Mo0_2 Se0_2 2.535533 1_555
Mo0_2 Se0_0 2.535555 1_565
Mo0_2 Se2_2 2.536414 1_555
Mo0_2 Se2_6 2.536416 1_455
Mo0_2 Se2_0 2.536439 1_565
Mo0_3 Se0_7 2.535525 1_455
Mo0_3 Se0_3 2.535533 1_555
Mo0_3 Se0_1 2.535555 1_565
Mo0_3 Se2_3 2.536414 1_555
Mo0_3 Se2_7 2.536416 1_455
Mo0_3 Se2_1 2.536439 1_565
Mo0_4 Se0_0 2.535525 1_555
Mo0_4 Se0_4 2.535533 1_555
Mo0_4 Se0_6 2.535555 1_555
Mo0_4 Se2_4 2.536414 1_555
Mo0_4 Se2_0 2.536416 1_555
Mo0_4 Se2_6 2.536439 1_555
Mo0_5 Se0_1 2.535525 1_555
Mo0_5 Se0_5 2.535533 1_555
Mo0_5 Se0_7 2.535555 1_555
Mo0_5 Se2_5 2.536414 1_555
Mo0_5 Se2_1 2.536416 1_555
Mo0_5 Se2_7 2.536439 1_555
Mo0_6 Se0_2 2.535525 1_555
Mo0_6 Se0_6 2.535533 1_555
Mo0_6 Se0_4 2.535555 1_565
Mo0_6 Se2_6 2.536414 1_555
Mo0_6 Se2_2 2.536416 1_555
Mo0_6 Se2_4 2.536439 1_565
Mo0_7 Se0_3 2.535525 1_555
Mo0_7 Se0_7 2.535533 1_555
Mo0_7 Se0_5 2.535555 1_565
Mo0_7 Se2_7 2.536414 1_555
Mo0_7 Se2_3 2.536416 1_555
Mo0_7 Se2_5 2.536439 1_565
Mo1_0 Se3_4 2.535583 1_455
Mo1_0 Se3_2 2.535597 1_555
Mo1_0 Se3_0 2.535615 1_555
Mo1_0 Se1_2 2.537811 1_555
Mo1_0 Se1_4 2.537832 1_455
Mo1_0 Se1_0 2.537855 1_555
Mo1_1 Se3_5 2.535583 1_455
Mo1_1 Se3_3 2.535597 1_555
Mo1_1 Se3_1 2.535615 1_555
Mo1_1 Se1_3 2.537811 1_555
Mo1_1 Se1_5 2.537832 1_455
Mo1_1 Se1_1 2.537855 1_555
Mo1_2 Se3_6 2.535583 1_455
Mo1_2 Se3_0 2.535597 1_565
Mo1_2 Se3_2 2.535615 1_555
Mo1_2 Se1_0 2.537811 1_565
Mo1_2 Se1_6 2.537832 1_455
Mo1_2 Se1_2 2.537855 1_555
Mo1_3 Se3_7 2.535583 1_455
Mo1_3 Se3_1 2.535597 1_565
Mo1_3 Se3_3 2.535615 1_555
Mo1_3 Se1_1 2.537811 1_565
Mo1_3 Se1_7 2.537832 1_455
Mo1_3 Se1_3 2.537855 1_555
Mo1_4 Se3_0 2.535583 1_555
Mo1_4 Se3_6 2.535597 1_555
Mo1_4 Se3_4 2.535615 1_555
Mo1_4 Se1_6 2.537811 1_555
Mo1_4 Se1_0 2.537832 1_555
Mo1_4 Se1_4 2.537855 1_555
Mo1_5 Se3_1 2.535583 1_555
Mo1_5 Se3_7 2.535597 1_555
Mo1_5 Se3_5 2.535615 1_555
Mo1_5 Se1_7 2.537811 1_555
Mo1_5 Se1_1 2.537832 1_555
Mo1_5 Se1_5 2.537855 1_555
Mo1_6 Se3_2 2.535583 1_555
Mo1_6 Se3_4 2.535597 1_565
Mo1_6 Se3_6 2.535615 1_555
Mo1_6 Se1_4 2.537811 1_565
Mo1_6 Se1_2 2.537832 1_555
Mo1_6 Se1_6 2.537855 1_555
Mo1_7 Se3_3 2.535583 1_555
Mo1_7 Se3_5 2.535597 1_565
Mo1_7 Se3_7 2.535615 1_555
Mo1_7 Se1_5 2.537811 1_565
Mo1_7 Se1_3 2.537832 1_555
Mo1_7 Se1_7 2.537855 1_555
S0_0 W0_4 2.437325 1_455
S0_0 W0_0 2.437329 1_555
S0_0 W0_2 2.437366 1_555
S0_1 W0_5 2.437325 1_455
S0_1 W0_1 2.437329 1_555
S0_1 W0_3 2.437366 1_555
S0_2 W0_6 2.437325 1_455
S0_2 W0_2 2.437329 1_555
S0_2 W0_0 2.437366 1_565
S0_3 W0_7 2.437325 1_455
S0_3 W0_3 2.437329 1_555
S0_3 W0_1 2.437366 1_565
S0_4 W0_0 2.437325 1_555
S0_4 W0_4 2.437329 1_555
S0_4 W0_6 2.437366 1_555
S0_5 W0_1 2.437325 1_555
S0_5 W0_5 2.437329 1_555
S0_5 W0_7 2.437366 1_555
S0_6 W0_2 2.437325 1_555
S0_6 W0_6 2.437329 1_555
S0_6 W0_4 2.437366 1_565
S0_7 W0_3 2.437325 1_555
S0_7 W0_7 2.437329 1_555
S0_7 W0_5 2.437366 1_565
S1_0 W0_2 2.437090 1_555
S1_0 W0_0 2.437091 1_555
S1_0 W0_4 2.437095 1_455
S1_1 W0_3 2.437090 1_555
S1_1 W0_1 2.437091 1_555
S1_1 W0_5 2.437095 1_455
S1_2 W0_0 2.437090 1_565
S1_2 W0_2 2.437091 1_555
S1_2 W0_6 2.437095 1_455
S1_3 W0_1 2.437090 1_565
S1_3 W0_3 2.437091 1_555
S1_3 W0_7 2.437095 1_455
S1_4 W0_6 2.437090 1_555
S1_4 W0_4 2.437091 1_555
S1_4 W0_0 2.437095 1_555
S1_5 W0_7 2.437090 1_555
S1_5 W0_5 2.437091 1_555
S1_5 W0_1 2.437095 1_555
S1_6 W0_4 2.437090 1_565
S1_6 W0_6 2.437091 1_555
S1_6 W0_2 2.437095 1_555
S1_7 W0_5 2.437090 1_565
S1_7 W0_7 2.437091 1_555
S1_7 W0_3 2.437095 1_555
