# generated using pymatgen
data_CaIn
_symmetry_space_group_name_H-M   'P 1'
_cell_length_a   6.68950981
_cell_length_b   6.68950925
_cell_length_c   6.68951000
_cell_angle_alpha   101.92745523
_cell_angle_beta   113.36976154
_cell_angle_gamma   113.36975824
_symmetry_Int_Tables_number   1
_chemical_formula_structural   CaIn
_chemical_formula_sum   'Ca4 In4'
_cell_volume   227.50115006
_cell_formula_units_Z   4
loop_
 _symmetry_equiv_pos_site_id
 _symmetry_equiv_pos_as_xyz
  1  'x, y, z'
loop_
 _atom_site_type_symbol
 _atom_site_label
 _atom_site_symmetry_multiplicity
 _atom_site_fract_x
 _atom_site_fract_y
 _atom_site_fract_z
 _atom_site_occupancy
  Ca  Ca0  1  0.50000000  0.75000000  0.25000000  1
  Ca  Ca1  1  0.50000000  0.25000000  0.75000000  1
  Ca  Ca2  1  0.00000000  0.70679669  0.70679669  1
  Ca  Ca3  1  -0.00000000  0.29320331  0.29320331  1
  In  In0  1  0.56646720  0.78323460  0.78323460  1
  In  In1  1  -0.00000000  0.78323460  0.21676540  1
  In  In2  1  0.00000000  0.21676540  0.78323460  1
  In  In3  1  0.43353280  0.21676540  0.21676540  1
loop_
_geom_bond_atom_site_label_1
_geom_bond_atom_site_label_2
_geom_bond_distance
_geom_bond_site_symmetry_2
Ca0 In3 3.362533 1_565
Ca0 In0 3.362533 1_554
Ca0 In1 3.362539 1_555
Ca0 In1 3.362539 1_655
Ca0 In2 3.362539 1_554
Ca0 In2 3.362540 1_665
Ca0 In3 3.362543 1_555
Ca0 In0 3.362544 1_555
Ca1 In0 3.362533 1_545
Ca1 In3 3.362533 1_556
Ca1 In2 3.362539 1_655
Ca1 In2 3.362539 1_555
Ca1 In1 3.362539 1_656
Ca1 In1 3.362540 1_545
Ca1 In0 3.362543 1_555
Ca1 In3 3.362544 1_555
Ca2 In2 3.343405 1_565
Ca2 In1 3.343405 1_556
Ca2 In3 3.343406 1_566
Ca2 In0 3.343418 1_455
Ca2 In0 3.420519 1_555
Ca2 In3 3.420528 1_455
Ca2 In2 3.420532 1_555
Ca2 In1 3.420532 1_555
Ca3 In1 3.343405 1_545
Ca3 In2 3.343405 1_554
Ca3 In0 3.343406 1_444
Ca3 In3 3.343418 1_555
Ca3 In3 3.420519 1_455
Ca3 In0 3.420528 1_555
Ca3 In1 3.420532 1_555
Ca3 In2 3.420532 1_555
In0 In2 3.185738 1_665
In0 In1 3.185738 1_656
In1 In3 3.185738 1_565
In2 In3 3.185738 1_556
