# generated using pymatgen
data_Na10Nb4Ga4Si9(SO16)3
_symmetry_space_group_name_H-M   'P 1'
_cell_length_a   17.91031504
_cell_length_b   8.92703988
_cell_length_c   22.37842865
_cell_angle_alpha   89.99378250
_cell_angle_beta   90.66045259
_cell_angle_gamma   119.73460509
_symmetry_Int_Tables_number   1
_chemical_formula_structural   Na10Nb4Ga4Si9(SO16)3
_chemical_formula_sum   'Na30 Nb12 Ga12 Si27 S9 O144'
_cell_volume   3106.62073372
_cell_formula_units_Z   3
loop_
 _symmetry_equiv_pos_site_id
 _symmetry_equiv_pos_as_xyz
  1  'x, y, z'
loop_
 _atom_site_type_symbol
 _atom_site_label
 _atom_site_symmetry_multiplicity
 _atom_site_fract_x
 _atom_site_fract_y
 _atom_site_fract_z
 _atom_site_occupancy
  Na  Na0  1  0.18709608  0.36457988  0.24383334  1
  Na  Na1  1  0.68708282  0.36548753  0.24350867  1
  Na  Na2  1  0.18759474  0.00963267  0.74316602  1
  Na  Na3  1  0.68554413  0.00639208  0.74357260  1
  Na  Na4  1  0.65093954  0.33983211  0.58064987  1
  Na  Na5  1  0.02175088  0.70276206  0.57656756  1
  Na  Na6  1  0.51946935  0.69267737  0.58013611  1
  Na  Na7  1  0.32669453  0.96864918  0.58397075  1
  Na  Na8  1  0.15157892  0.96247662  0.08043529  1
  Na  Na9  1  0.65153161  0.96228737  0.08030865  1
  Na  Na10  1  0.32773559  0.68968668  0.08197251  1
  Na  Na11  1  0.82781858  0.69003832  0.08194100  1
  Na  Na12  1  0.02057701  0.34661980  0.08020352  1
  Na  Na13  1  0.52049616  0.34672176  0.08013595  1
  Na  Na14  1  0.48678737  0.67239108  0.91418999  1
  Na  Na15  1  0.98680474  0.67253357  0.91484129  1
  Na  Na16  1  0.35249291  0.66798489  0.41058175  1
  Na  Na17  1  0.85300710  0.67483998  0.41020324  1
  Na  Na18  1  0.01167410  0.02095674  0.49305601  1
  Na  Na19  1  0.50998487  0.01147714  0.49192008  1
  Na  Na20  1  0.00594811  0.01820606  0.99130336  1
  Na  Na21  1  0.50607391  0.01832978  0.99124775  1
  Na  Na22  1  0.33971683  0.33208603  0.82656815  1
  Na  Na23  1  0.83942219  0.33057878  0.82807247  1
  Na  Na24  1  0.34318643  0.33609274  0.32789145  1
  Na  Na25  1  0.84432505  0.33451426  0.32571005  1
  Na  Na26  1  0.16761231  0.67362693  0.16252652  1
  Na  Na27  1  0.66769871  0.67347260  0.16227801  1
  Na  Na28  1  0.17245222  0.65727124  0.66241851  1
  Na  Na29  1  0.67317544  0.67248447  0.66004582  1
  Nb  Nb0  1  0.99509801  0.98706872  0.64605515  1
  Nb  Nb1  1  0.49356692  0.98467794  0.64361794  1
  Nb  Nb2  1  0.99540818  0.00086615  0.14551670  1
  Nb  Nb3  1  0.49517187  0.00095203  0.14543167  1
  Nb  Nb4  1  0.33327728  0.32246142  0.97853643  1
  Nb  Nb5  1  0.83322227  0.32248219  0.97868553  1
  Nb  Nb6  1  0.33275947  0.33716255  0.47986429  1
  Nb  Nb7  1  0.82932312  0.33992765  0.47670103  1
  Nb  Nb8  1  0.16059742  0.64713258  0.31171733  1
  Nb  Nb9  1  0.66076005  0.65047495  0.31155427  1
  Nb  Nb10  1  0.16289380  0.67558519  0.81160793  1
  Nb  Nb11  1  0.66239148  0.67581684  0.81144186  1
  Ga  Ga0  1  0.00157050  0.00109851  0.35295140  1
  Ga  Ga1  1  0.50100453  0.99895420  0.35243570  1
  Ga  Ga2  1  0.99983594  0.00744150  0.85215348  1
  Ga  Ga3  1  0.49979907  0.00675686  0.85219867  1
  Ga  Ga4  1  0.34242486  0.33804507  0.68356950  1
  Ga  Ga5  1  0.83555350  0.33331328  0.68623921  1
  Ga  Ga6  1  0.34324989  0.34916047  0.18382204  1
  Ga  Ga7  1  0.84328106  0.34930869  0.18353712  1
  Ga  Ga8  1  0.15871006  0.66134070  0.01979988  1
  Ga  Ga9  1  0.65869769  0.66129138  0.01972818  1
  Ga  Ga10  1  0.16515128  0.66276676  0.51717722  1
  Ga  Ga11  1  0.66062996  0.66007571  0.52200992  1
  Si  Si0  1  0.35608128  0.70690996  0.25384401  1
  Si  Si1  1  0.85650362  0.70760382  0.25417054  1
  Si  Si2  1  0.99057196  0.27816005  0.25246450  1
  Si  Si3  1  0.49061505  0.27823372  0.25277858  1
  Si  Si4  1  0.99082560  0.70049486  0.75323939  1
  Si  Si5  1  0.49008284  0.70144299  0.75342195  1
  Si  Si6  1  0.35722895  0.00666539  0.75273611  1
  Si  Si7  1  0.85709014  0.00694352  0.75290588  1
  Si  Si8  1  0.47967687  0.33655709  0.58420959  1
  Si  Si9  1  0.18899506  0.04540923  0.58550643  1
  Si  Si10  1  0.69309915  0.04172428  0.58654935  1
  Si  Si11  1  0.32286173  0.60761116  0.58565286  1
  Si  Si12  1  0.82901152  0.61872247  0.58530533  1
  Si  Si13  1  0.47929490  0.62211297  0.08286875  1
  Si  Si14  1  0.97936840  0.62227649  0.08284385  1
  Si  Si15  1  0.32797280  0.04145696  0.08623325  1
  Si  Si16  1  0.82804985  0.04129732  0.08627899  1
  Si  Si17  1  0.19141544  0.33727611  0.08568961  1
  Si  Si18  1  0.69139363  0.33731496  0.08575504  1
  Si  Si19  1  0.02350516  0.36860039  0.91818914  1
  Si  Si20  1  0.52362871  0.36843549  0.91817203  1
  Si  Si21  1  0.16329246  0.95987346  0.91854923  1
  Si  Si22  1  0.66338400  0.95996283  0.91867722  1
  Si  Si23  1  0.16008683  0.36487313  0.41922487  1
  Si  Si24  1  0.65753889  0.36686500  0.41882487  1
  Si  Si25  1  0.02415218  0.67470146  0.41982062  1
  Si  Si26  1  0.52300622  0.67431601  0.41932992  1
  S  S0  1  0.14510765  0.99824441  0.25118352  1
  S  S1  1  0.64511123  -0.00135596  0.25112462  1
  S  S2  1  0.14422003  0.28946585  0.75106882  1
  S  S3  1  0.64518700  0.29109962  0.75092486  1
  S  S4  1  0.97804711  0.33243859  0.58392355  1
  S  S5  1  0.31061544  0.66752860  0.91810402  1
  S  S6  1  0.81063024  0.66753934  0.91802657  1
  S  S7  1  0.31110140  0.95737974  0.41688736  1
  S  S8  1  0.81008403  0.95464321  0.41811513  1
  O  O0  1  0.10355269  0.02327100  0.30325286  1
  O  O1  1  0.60383933  0.02337999  0.30324303  1
  O  O2  1  0.41285844  0.79715157  0.31270741  1
  O  O3  1  0.91328251  0.79770445  0.31319712  1
  O  O4  1  0.48910602  0.16738117  0.30880047  1
  O  O5  1  0.98846629  0.16702612  0.30856445  1
  O  O6  1  0.10504460  0.18157960  0.80408755  1
  O  O7  1  0.60535447  0.18195734  0.80297333  1
  O  O8  1  0.48891483  0.80218772  0.81266456  1
  O  O9  1  0.98633322  0.79777639  0.81221289  1
  O  O10  1  0.41780998  0.03210865  0.80874828  1
  O  O11  1  0.91741281  0.03319689  0.80930636  1
  O  O12  1  0.40266891  0.97743445  0.69104644  1
  O  O13  1  0.90554263  0.97990782  0.69280108  1
  O  O14  1  0.08985062  0.20938160  0.69627695  1
  O  O15  1  0.59334508  0.21477102  0.69478661  1
  O  O16  1  0.01517976  0.83216703  0.69354058  1
  O  O17  1  0.51567742  0.83245284  0.69374614  1
  O  O18  1  0.40424737  0.83020921  0.19338986  1
  O  O19  1  0.90441253  0.83024338  0.19359918  1
  O  O20  1  0.01611817  0.20172276  0.19167666  1
  O  O21  1  0.51632845  0.20182965  0.19194808  1
  O  O22  1  0.09266932  0.97159230  0.19481942  1
  O  O23  1  0.59283657  0.97161396  0.19482200  1
  O  O24  1  0.43879182  0.37650768  0.64080991  1
  O  O25  1  0.93926166  0.36106576  0.63744892  1
  O  O26  1  0.24872347  0.12543402  0.64466126  1
  O  O27  1  0.74672041  0.13212053  0.64685410  1
  O  O28  1  0.31304382  0.49474383  0.64273194  1
  O  O29  1  0.81682207  0.49376969  0.64011780  1
  O  O30  1  0.43829585  0.49830742  0.13901068  1
  O  O31  1  0.93834380  0.49853112  0.13897086  1
  O  O32  1  0.30896750  0.12989128  0.14139907  1
  O  O33  1  0.80893838  0.12989642  0.14136440  1
  O  O34  1  0.24879570  0.37049310  0.14573018  1
  O  O35  1  0.74882266  0.37059126  0.14582950  1
  O  O36  1  0.23772232  0.29891877  0.02800933  1
  O  O37  1  0.73773040  0.29894735  0.02809782  1
  O  O38  1  0.41724021  0.54338369  0.02239448  1
  O  O39  1  0.91734045  0.54336072  0.02236325  1
  O  O40  1  0.35316504  0.17012422  0.02642134  1
  O  O41  1  0.85317321  0.17012157  0.02646581  1
  O  O42  1  0.23691715  0.16800911  0.52645393  1
  O  O43  1  0.74142427  0.17472253  0.52873341  1
  O  O44  1  0.34890770  0.53577767  0.52471417  1
  O  O45  1  0.85218230  0.53759353  0.52433073  1
  O  O46  1  0.41477447  0.29388322  0.52535318  1
  O  O47  1  0.92511700  0.30563013  0.52936195  1
  O  O48  1  0.27168157  0.68688942  0.97326891  1
  O  O49  1  0.77191840  0.68687907  0.97322055  1
  O  O50  1  0.07711661  0.45644400  0.97937184  1
  O  O51  1  0.57716691  0.45608447  0.97943031  1
  O  O52  1  0.14978851  0.84057229  0.97655291  1
  O  O53  1  0.65016914  0.84077734  0.97668572  1
  O  O54  1  0.27330800  0.85766219  0.47242242  1
  O  O55  1  0.77022555  0.84784539  0.47082079  1
  O  O56  1  0.15344224  0.47062001  0.47494423  1
  O  O57  1  0.65456976  0.46474222  0.47784878  1
  O  O58  1  0.07860477  0.69750604  0.48054960  1
  O  O59  1  0.57930402  0.70029232  0.47903592  1
  O  O60  1  0.07437363  0.64842771  0.36163894  1
  O  O61  1  0.57442561  0.64935262  0.36090358  1
  O  O62  1  0.25685410  0.86907564  0.36358729  1
  O  O63  1  0.75776255  0.87774619  0.36276991  1
  O  O64  1  0.18127879  0.49386344  0.35816831  1
  O  O65  1  0.68253441  0.49726747  0.35911440  1
  O  O66  1  0.07383429  0.50372308  0.86137173  1
  O  O67  1  0.57412432  0.50388873  0.86146724  1
  O  O68  1  0.17994696  0.86752906  0.85826672  1
  O  O69  1  0.68019034  0.86827464  0.85831493  1
  O  O70  1  0.25721776  0.64653109  0.86432243  1
  O  O71  1  0.75752595  0.64673673  0.86423869  1
  O  O72  1  0.00351898  0.83152689  0.41218712  1
  O  O73  1  0.50415619  0.83394898  0.41124549  1
  O  O74  1  0.39682137  0.97293014  0.41288603  1
  O  O75  1  0.89660393  0.97309928  0.41321436  1
  O  O76  1  0.07809548  0.17673918  0.40968317  1
  O  O77  1  0.57832030  0.17665770  0.40944793  1
  O  O78  1  0.01003460  0.17819465  0.91036651  1
  O  O79  1  0.51012983  0.17817338  0.91012640  1
  O  O80  1  0.07582476  0.96891461  0.90946538  1
  O  O81  1  0.57612762  0.96977349  0.91019561  1
  O  O82  1  0.39835862  0.81694102  0.91423814  1
  O  O83  1  0.89865942  0.81724969  0.91419277  1
  O  O84  1  0.48845179  0.16017735  0.58920184  1
  O  O85  1  0.98819130  0.17710881  0.58902718  1
  O  O86  1  0.09182066  0.02652308  0.59058575  1
  O  O87  1  0.59639838  0.03133181  0.59030680  1
  O  O88  1  0.41578374  0.80354070  0.58981644  1
  O  O89  1  0.92006954  0.80918480  0.58966691  1
  O  O90  1  0.48876775  0.81618056  0.09008607  1
  O  O91  1  0.98866644  0.81611170  0.08996655  1
  O  O92  1  0.41818675  0.02873008  0.09004707  1
  O  O93  1  0.91818548  0.02849585  0.09010500  1
  O  O94  1  0.09510063  0.15999408  0.09048073  1
  O  O95  1  0.59514525  0.16005613  0.09056008  1
  O  O96  1  0.33558233  0.16201393  0.74530498  1
  O  O97  1  0.83693938  0.16453688  0.74470639  1
  O  O98  1  0.22947706  0.30545644  0.74532324  1
  O  O99  1  0.73132655  0.30788814  0.74622530  1
  O  O100  1  0.40853450  0.51305330  0.74588702  1
  O  O101  1  0.91087305  0.51094713  0.74248394  1
  O  O102  1  0.33667706  0.50988429  0.24597130  1
  O  O103  1  0.83680015  0.51018314  0.24633782  1
  O  O104  1  0.40878005  0.30332958  0.24461798  1
  O  O105  1  0.90879202  0.30337105  0.24418491  1
  O  O106  1  0.23009111  0.15382235  0.24613892  1
  O  O107  1  0.73031005  0.15410286  0.24620653  1
  O  O108  1  0.31905564  0.50767140  0.91956563  1
  O  O109  1  0.81933912  0.50784231  0.91953006  1
  O  O110  1  0.42990502  0.37026563  0.92140936  1
  O  O111  1  0.92979870  0.37046281  0.92123247  1
  O  O112  1  0.25140140  0.15068111  0.92118762  1
  O  O113  1  0.75157289  0.15112069  0.92115768  1
  O  O114  1  0.31825393  0.13036452  0.41893371  1
  O  O115  1  0.82009779  0.13135835  0.42323392  1
  O  O116  1  0.25198168  0.35960552  0.42177963  1
  O  O117  1  0.75127157  0.35998265  0.42209469  1
  O  O118  1  0.42628820  0.49532742  0.42183972  1
  O  O119  1  0.92735140  0.49241579  0.42365829  1
  O  O120  1  0.17893136  0.50463491  0.07696618  1
  O  O121  1  0.67900361  0.50472021  0.07704200  1
  O  O122  1  0.07622860  0.65113963  0.07874366  1
  O  O123  1  0.57619483  0.65105008  0.07874632  1
  O  O124  1  0.24975962  0.84727291  0.07508313  1
  O  O125  1  0.74978373  0.84721162  0.07515259  1
  O  O126  1  0.17456894  0.84902324  0.57740607  1
  O  O127  1  0.67536147  0.84780381  0.57834586  1
  O  O128  1  0.24831420  0.65846732  0.57551205  1
  O  O129  1  0.74661153  0.64115071  0.57576483  1
  O  O130  1  0.06430428  0.48850047  0.57952312  1
  O  O131  1  0.57550359  0.50017969  0.57870338  1
  O  O132  1  0.15394144  0.84151940  0.25546591  1
  O  O133  1  0.65418090  0.84180140  0.25527070  1
  O  O134  1  0.25901743  0.69449496  0.25700613  1
  O  O135  1  0.75937760  0.69494170  0.25733708  1
  O  O136  1  0.08308101  0.47375373  0.25610579  1
  O  O137  1  0.58361087  0.47392477  0.25668104  1
  O  O138  1  0.15247889  0.46371206  0.75615243  1
  O  O139  1  0.65445220  0.46602938  0.75646159  1
  O  O140  1  0.08410653  0.69341850  0.75554852  1
  O  O141  1  0.58372025  0.69277531  0.75635398  1
  O  O142  1  0.25988163  0.82435349  0.75720044  1
  O  O143  1  0.75998836  0.82646910  0.75695024  1
loop_
_geom_bond_atom_site_label_1
_geom_bond_atom_site_label_2
_geom_bond_distance
_geom_bond_site_symmetry_2
Na0 O102 2.326373 1_555
Na0 O106 2.360445 1_555
Na0 O34 2.457995 1_555
Na0 O136 2.511716 1_555
Na0 O134 2.578436 1_555
Na0 O64 2.831173 1_555
Na0 O20 2.890527 1_555
Na0 O0 2.968686 1_555
Na1 O103 2.328758 1_555
Na1 O107 2.368987 1_555
Na1 O35 2.451273 1_555
Na1 O137 2.500114 1_555
Na1 O135 2.575951 1_555
Na1 O65 2.860787 1_555
Na1 O21 2.881952 1_555
Na1 O1 2.977431 1_555
Na2 O96 2.301837 1_555
Na2 O98 2.360754 1_555
Na2 O26 2.461517 1_555
Na2 O140 2.510440 1_545
Na2 O142 2.573954 1_545
Na2 O68 2.845643 1_545
Na2 O16 2.889183 1_545
Na2 O6 2.949395 1_555
Na3 O97 2.355266 1_555
Na3 O99 2.393655 1_555
Na3 O27 2.445236 1_555
Na3 O141 2.488564 1_545
Na3 O143 2.561682 1_545
Na3 O69 2.830283 1_545
Na3 O17 2.854194 1_545
Na3 O7 2.926339 1_555
Na4 O129 2.369743 1_555
Na4 O131 2.406944 1_555
Na4 O87 2.433420 1_555
Na4 O84 2.541846 1_555
Na4 O57 2.543820 1_555
Na4 O15 2.784269 1_555
Na4 O29 2.888880 1_555
Na4 O43 2.926080 1_555
Na5 O126 2.377033 1_555
Na5 O130 2.385082 1_555
Na5 O58 2.398745 1_555
Na5 O89 2.456360 1_455
Na5 O86 2.533749 1_565
Na5 O45 2.870645 1_455
Na5 O16 2.888456 1_555
Na5 O25 2.986405 1_455
Na6 O131 2.381752 1_555
Na6 O127 2.425310 1_555
Na6 O59 2.501082 1_555
Na6 O88 2.511461 1_555
Na6 O87 2.636437 1_565
Na6 O24 2.810086 1_555
Na6 O17 2.848538 1_555
Na6 O44 2.915582 1_555
Na7 O126 2.385391 1_555
Na7 O128 2.410802 1_555
Na7 O84 2.531591 1_565
Na7 O88 2.657753 1_555
Na7 O54 2.670782 1_555
Na7 O12 2.723682 1_555
Na7 O26 2.781494 1_565
Na7 O46 2.853498 1_565
Na8 O122 2.413602 1_555
Na8 O94 2.440777 1_565
Na8 O124 2.441913 1_555
Na8 O91 2.549281 1_455
Na8 O52 2.560051 1_554
Na8 O32 2.788130 1_565
Na8 O22 2.796349 1_555
Na8 O36 2.867361 1_565
Na9 O123 2.412802 1_555
Na9 O125 2.441965 1_555
Na9 O95 2.442037 1_565
Na9 O90 2.547575 1_555
Na9 O53 2.554915 1_554
Na9 O33 2.789415 1_565
Na9 O23 2.797873 1_555
Na9 O37 2.866908 1_565
Na10 O120 2.338864 1_555
Na10 O124 2.428393 1_555
Na10 O90 2.526591 1_555
Na10 O48 2.616294 1_554
Na10 O92 2.635767 1_565
Na10 O18 2.808017 1_555
Na10 O38 2.860010 1_555
Na10 O34 2.864157 1_555
Na11 O121 2.339270 1_555
Na11 O125 2.425988 1_555
Na11 O91 2.523891 1_555
Na11 O49 2.615049 1_554
Na11 O93 2.631413 1_565
Na11 O19 2.812573 1_555
Na11 O39 2.862710 1_555
Na11 O35 2.867335 1_555
Na12 O122 2.386941 1_555
Na12 O120 2.464768 1_555
Na12 O50 2.479032 1_554
Na12 O93 2.514018 1_455
Na12 O94 2.609351 1_555
Na12 O31 2.786418 1_455
Na12 O20 2.793554 1_555
Na12 O41 2.854716 1_455
Na13 O123 2.385196 1_555
Na13 O121 2.467012 1_555
Na13 O51 2.476187 1_554
Na13 O92 2.512882 1_555
Na13 O95 2.611800 1_555
Na13 O30 2.784935 1_555
Na13 O21 2.801310 1_555
Na13 O40 2.853528 1_555
Na14 O81 2.324973 1_555
Na14 O110 2.369878 1_555
Na14 O82 2.490154 1_555
Na14 O8 2.542353 1_555
Na14 O108 2.613014 1_555
Na14 O38 2.717940 1_556
Na14 O53 2.884628 1_555
Na14 O67 2.911797 1_555
Na15 O80 2.318756 1_655
Na15 O111 2.367850 1_555
Na15 O83 2.486786 1_555
Na15 O9 2.555997 1_555
Na15 O109 2.607998 1_555
Na15 O39 2.704168 1_556
Na15 O52 2.870947 1_655
Na15 O66 2.916481 1_655
Na16 O73 2.362355 1_555
Na16 O74 2.428752 1_555
Na16 O116 2.444650 1_555
Na16 O2 2.472488 1_555
Na16 O118 2.489790 1_555
Na16 O44 2.801507 1_555
Na16 O64 2.895608 1_555
Na17 O72 2.341424 1_655
Na17 O75 2.374876 1_555
Na17 O3 2.441302 1_555
Na17 O117 2.494366 1_555
Na17 O119 2.580176 1_555
Na17 O45 2.829570 1_555
Na17 O65 2.874188 1_555
Na17 O55 2.956671 1_555
Na18 O76 2.289047 1_555
Na18 O72 2.430148 1_545
Na18 O75 2.581526 1_445
Na18 O86 2.585267 1_555
Na18 O85 2.708441 1_455
Na18 O89 2.818535 1_445
Na19 O77 2.310798 1_555
Na19 O73 2.369392 1_545
Na19 O74 2.565172 1_545
Na19 O87 2.631319 1_555
Na19 O84 2.679193 1_555
Na19 O88 2.840662 1_545
Na20 O78 2.285732 1_555
Na20 O80 2.390239 1_545
Na20 O83 2.528469 1_445
Na20 O94 2.644178 1_556
Na20 O93 2.755212 1_456
Na20 O91 2.772455 1_446
Na21 O79 2.288367 1_555
Na21 O81 2.375751 1_545
Na21 O82 2.531296 1_545
Na21 O95 2.646076 1_556
Na21 O92 2.756813 1_556
Na21 O90 2.775785 1_546
Na22 O100 2.337604 1_555
Na22 O96 2.345976 1_555
Na22 O110 2.570005 1_555
Na22 O98 2.590797 1_555
Na22 O112 2.672734 1_555
Na22 O108 2.742048 1_555
Na23 O97 2.369146 1_555
Na23 O101 2.431179 1_555
Na23 O111 2.538469 1_555
Na23 O99 2.583283 1_555
Na23 O113 2.637397 1_555
Na23 O109 2.721153 1_555
Na24 O104 2.308653 1_555
Na24 O102 2.440335 1_555
Na24 O118 2.546733 1_555
Na24 O106 2.596800 1_555
Na24 O114 2.632465 1_555
Na24 O116 2.747040 1_555
Na25 O105 2.259646 1_555
Na25 O103 2.415768 1_555
Na25 O107 2.565872 1_555
Na25 O119 2.617062 1_555
Na25 O115 2.735090 1_555
Na25 O117 2.817895 1_555
Na26 O122 2.416173 1_555
Na26 O124 2.490021 1_555
Na26 O120 2.509187 1_555
Na26 O134 2.608224 1_555
Na26 O132 2.647351 1_555
Na26 O136 2.693306 1_555
Na27 O123 2.413358 1_555
Na27 O125 2.484334 1_555
Na27 O121 2.502173 1_555
Na27 O135 2.620223 1_555
Na27 O133 2.649628 1_555
Na27 O137 2.704764 1_555
Na28 O128 2.382247 1_555
Na28 O130 2.546755 1_555
Na28 O126 2.547057 1_555
Na28 O142 2.604409 1_555
Na28 O138 2.630019 1_555
Na28 O140 2.744803 1_555
Na29 O127 2.394578 1_555
Na29 O129 2.405763 1_555
Na29 O131 2.449026 1_555
Na29 O143 2.610094 1_555
Na29 O139 2.750881 1_555
Na29 O141 2.759045 1_555
Nb0 O13 1.899493 1_555
Nb0 O16 1.911803 1_655
Nb0 O89 1.940195 1_555
Nb0 O86 2.027347 1_665
Nb0 O14 2.167332 1_665
Nb0 O85 2.173969 1_565
Nb1 O12 1.927827 1_555
Nb1 O88 1.931912 1_555
Nb1 O17 1.945544 1_555
Nb1 O84 2.021190 1_565
Nb1 O87 2.068437 1_565
Nb1 O15 2.244106 1_565
Nb2 O19 1.926540 1_545
Nb2 O20 1.936884 1_655
Nb2 O93 1.951977 1_555
Nb2 O91 2.019802 1_545
Nb2 O94 2.063298 1_655
Nb2 O22 2.174233 1_645
Nb3 O18 1.924773 1_545
Nb3 O21 1.939118 1_555
Nb3 O92 1.948981 1_555
Nb3 O90 2.019252 1_545
Nb3 O95 2.063691 1_555
Nb3 O23 2.181687 1_545
Nb4 O40 1.896300 1_556
Nb4 O112 1.968604 1_555
Nb4 O36 1.971216 1_556
Nb4 O110 2.032196 1_555
Nb4 O38 2.034370 1_556
Nb4 O108 2.224771 1_555
Nb5 O41 1.895761 1_556
Nb5 O113 1.968235 1_555
Nb5 O37 1.969534 1_556
Nb5 O39 2.032931 1_556
Nb5 O111 2.035840 1_555
Nb5 O109 2.225412 1_555
Nb6 O44 1.928653 1_555
Nb6 O42 1.945122 1_555
Nb6 O46 1.967651 1_555
Nb6 O116 2.016669 1_555
Nb6 O118 2.046778 1_555
Nb6 O114 2.202588 1_555
Nb7 O117 1.920516 1_555
Nb7 O45 1.921233 1_555
Nb7 O43 1.935984 1_555
Nb7 O119 2.005365 1_555
Nb7 O115 2.148578 1_555
Nb7 O47 2.213718 1_555
Nb8 O64 1.892986 1_555
Nb8 O60 1.921075 1_555
Nb8 O136 1.923762 1_555
Nb8 O134 2.023701 1_555
Nb8 O62 2.193427 1_555
Nb8 O132 2.193483 1_555
Nb9 O61 1.906484 1_555
Nb9 O65 1.916938 1_555
Nb9 O137 1.924121 1_555
Nb9 O135 2.025629 1_555
Nb9 O133 2.171006 1_555
Nb9 O63 2.215024 1_555
Nb10 O68 1.895648 1_555
Nb10 O66 1.936837 1_555
Nb10 O140 1.942260 1_555
Nb10 O142 2.005898 1_555
Nb10 O70 2.168295 1_555
Nb10 O138 2.190316 1_555
Nb11 O69 1.898181 1_555
Nb11 O141 1.923417 1_555
Nb11 O67 1.934339 1_555
Nb11 O143 2.016936 1_555
Nb11 O71 2.181488 1_555
Nb11 O139 2.184868 1_555
Ga0 O5 1.890764 1_455
Ga0 O3 1.925752 1_445
Ga0 O76 1.943541 1_555
Ga0 O72 2.025055 1_545
Ga0 O0 2.073762 1_555
Ga0 O75 2.237802 1_445
Ga1 O4 1.890065 1_565
Ga1 O2 1.917019 1_555
Ga1 O77 1.960231 1_565
Ga1 O73 1.996328 1_555
Ga1 O1 2.073639 1_565
Ga1 O74 2.234701 1_555
Ga2 O11 1.858898 1_555
Ga2 O78 1.942353 1_655
Ga2 O9 1.976605 1_545
Ga2 O80 2.009848 1_645
Ga2 O6 2.065164 1_655
Ga2 O83 2.258192 1_545
Ga3 O10 1.857346 1_555
Ga3 O79 1.941749 1_555
Ga3 O8 1.949089 1_545
Ga3 O81 2.017198 1_545
Ga3 O7 2.085263 1_555
Ga3 O82 2.259082 1_545
Ga4 O24 1.860813 1_555
Ga4 O28 1.946207 1_555
Ga4 O100 1.978638 1_555
Ga4 O26 1.995978 1_555
Ga4 O96 2.050729 1_555
Ga4 O98 2.359502 1_555
Ga5 O27 1.915048 1_555
Ga5 O29 1.923016 1_555
Ga5 O101 1.938539 1_555
Ga5 O97 2.004625 1_555
Ga5 O25 2.072157 1_555
Ga5 O99 2.230619 1_555
Ga6 O30 1.861975 1_555
Ga6 O104 1.958389 1_555
Ga6 O32 1.975993 1_555
Ga6 O34 1.977643 1_555
Ga6 O102 2.044153 1_555
Ga6 O106 2.377394 1_555
Ga7 O31 1.859316 1_555
Ga7 O105 1.956354 1_555
Ga7 O35 1.973872 1_555
Ga7 O33 1.974196 1_555
Ga7 O103 2.054411 1_555
Ga7 O107 2.380079 1_555
Ga8 O50 1.902136 1_554
Ga8 O52 1.942138 1_554
Ga8 O122 1.960104 1_555
Ga8 O124 2.052752 1_555
Ga8 O120 2.053347 1_555
Ga8 O48 2.195682 1_554
Ga9 O51 1.902068 1_554
Ga9 O53 1.938422 1_554
Ga9 O123 1.961404 1_555
Ga9 O125 2.054837 1_555
Ga9 O121 2.055244 1_555
Ga9 O49 2.199215 1_554
Ga10 O56 1.875745 1_555
Ga10 O58 1.902173 1_555
Ga10 O128 1.983950 1_555
Ga10 O126 2.080088 1_555
Ga10 O54 2.117477 1_555
Ga10 O130 2.213465 1_555
Ga11 O59 1.913559 1_555
Ga11 O57 1.959401 1_555
Ga11 O131 1.963933 1_555
Ga11 O127 2.005411 1_555
Ga11 O129 2.015546 1_555
Ga11 O55 2.182321 1_555
O0 S0 1.465126 1_545
O1 S1 1.461963 1_555
O2 Si0 1.604676 1_555
O3 Si1 1.607425 1_555
O4 Si3 1.589248 1_555
O5 Si2 1.589178 1_555
O6 S2 1.475200 1_555
O7 S3 1.464353 1_555
O8 Si5 1.608249 1_555
O9 Si4 1.604482 1_555
O10 Si6 1.588800 1_555
O11 Si7 1.591438 1_555
O12 Si6 1.694965 1_565
O13 Si7 1.689741 1_565
O14 S2 1.498295 1_555
O15 S3 1.500123 1_555
O16 Si4 1.691516 1_455
O17 Si5 1.686217 1_555
O18 Si0 1.694302 1_555
O19 Si1 1.693180 1_555
O20 Si2 1.688112 1_455
O21 Si3 1.690165 1_555
O22 S0 1.510216 1_555
O23 S1 1.507010 1_565
O24 Si8 1.596334 1_555
O25 S4 1.475793 1_555
O26 Si9 1.617599 1_555
O27 Si10 1.611313 1_555
O28 Si11 1.583309 1_555
O29 Si12 1.600253 1_555
O30 Si13 1.598465 1_555
O31 Si14 1.598009 1_555
O32 Si15 1.593619 1_555
O33 Si16 1.593999 1_555
O34 Si17 1.617204 1_555
O35 Si18 1.618227 1_555
O36 Si17 1.666655 1_555
O37 Si18 1.666620 1_555
O38 Si13 1.658722 1_555
O39 Si14 1.658775 1_555
O40 Si15 1.677490 1_555
O41 Si16 1.678363 1_555
O42 Si9 1.665799 1_555
O43 Si10 1.684897 1_555
O44 Si11 1.673360 1_555
O45 Si12 1.694126 1_555
O46 Si8 1.660326 1_555
O47 S4 1.481602 1_555
O48 S5 1.476336 1_555
O49 S6 1.474675 1_555
O50 Si19 1.623133 1_555
O51 Si20 1.623771 1_555
O52 Si21 1.621433 1_555
O53 Si22 1.621791 1_555
O54 S7 1.488813 1_555
O55 S8 1.467567 1_555
O56 Si23 1.604748 1_555
O57 Si24 1.599660 1_555
O58 Si25 1.616191 1_555
O59 Si26 1.610207 1_555
O60 Si25 1.672024 1_555
O61 Si26 1.684850 1_555
O62 S7 1.483859 1_555
O63 S8 1.489520 1_555
O64 Si23 1.707336 1_555
O65 Si24 1.684505 1_555
O66 Si19 1.682779 1_555
O67 Si20 1.682758 1_555
O68 Si21 1.685783 1_555
O69 Si22 1.685010 1_555
O70 S5 1.481213 1_555
O71 S6 1.478654 1_555
O72 Si25 1.624010 1_555
O73 Si26 1.628883 1_555
O74 S7 1.475162 1_555
O75 S8 1.480231 1_555
O76 Si23 1.602833 1_555
O77 Si24 1.594894 1_555
O78 Si19 1.603226 1_555
O79 Si20 1.602316 1_555
O80 Si21 1.618663 1_555
O81 Si22 1.617076 1_555
O82 S5 1.476491 1_555
O83 S6 1.480601 1_555
O84 Si8 1.661750 1_555
O85 S4 1.489364 1_555
O86 Si9 1.668504 1_555
O87 Si10 1.690936 1_555
O88 Si11 1.716576 1_555
O89 Si12 1.675085 1_555
O90 Si13 1.662562 1_555
O91 Si14 1.661607 1_555
O92 Si15 1.676243 1_555
O93 Si16 1.675219 1_555
O94 Si17 1.669723 1_555
O95 Si18 1.668986 1_555
O96 Si6 1.622649 1_555
O97 Si7 1.626408 1_555
O98 S2 1.468631 1_555
O99 S3 1.479218 1_555
O100 Si5 1.596180 1_555
O101 Si4 1.600078 1_555
O102 Si0 1.624098 1_555
O103 Si1 1.625716 1_555
O104 Si3 1.597289 1_555
O105 Si2 1.597208 1_555
O106 S0 1.471512 1_545
O107 S1 1.472999 1_555
O108 S5 1.508066 1_555
O109 S6 1.509406 1_555
O110 Si20 1.689169 1_555
O111 Si19 1.688775 1_655
O112 Si21 1.651252 1_545
O113 Si22 1.653547 1_545
O114 S7 1.485543 1_545
O115 S8 1.500945 1_545
O116 Si23 1.670017 1_555
O117 Si24 1.710824 1_555
O118 Si26 1.677360 1_555
O119 Si25 1.692935 1_655
O120 Si17 1.628034 1_555
O121 Si18 1.627420 1_555
O122 Si14 1.626220 1_455
O123 Si13 1.626713 1_555
O124 Si15 1.616410 1_565
O125 Si16 1.616086 1_565
O126 Si9 1.650089 1_565
O127 Si10 1.607682 1_565
O128 Si11 1.623137 1_555
O129 Si12 1.596722 1_555
O130 S4 1.485188 1_455
O131 Si8 1.616299 1_555
O132 S0 1.486900 1_555
O133 S1 1.490176 1_565
O134 Si0 1.688547 1_555
O135 Si1 1.688682 1_555
O136 Si2 1.711072 1_455
O137 Si3 1.715803 1_555
O138 S2 1.491919 1_555
O139 S3 1.491312 1_555
O140 Si4 1.703106 1_455
O141 Si5 1.717283 1_555
O142 Si6 1.699355 1_565
O143 Si7 1.688962 1_565
