# generated using pymatgen
data_LiH2N
_symmetry_space_group_name_H-M   'P 1'
_cell_length_a   4.93582519
_cell_length_b   4.93582403
_cell_length_c   6.17904506
_cell_angle_alpha   113.54069253
_cell_angle_beta   113.54068121
_cell_angle_gamma   89.99999578
_symmetry_Int_Tables_number   1
_chemical_formula_structural   LiH2N
_chemical_formula_sum   'Li4 H8 N4'
_cell_volume   124.22279105
_cell_formula_units_Z   4
loop_
 _symmetry_equiv_pos_site_id
 _symmetry_equiv_pos_as_xyz
  1  'x, y, z'
loop_
 _atom_site_type_symbol
 _atom_site_label
 _atom_site_symmetry_multiplicity
 _atom_site_fract_x
 _atom_site_fract_y
 _atom_site_fract_z
 _atom_site_occupancy
  Li  Li0  1  0.25000000  0.75000000  0.50000000  1
  Li  Li1  1  0.00663497  0.50663497  0.01326993  1
  Li  Li2  1  0.49336503  0.99336503  0.98673007  1
  Li  Li3  1  0.00000000  0.00000000  0.00000000  1
  H  H0  1  0.70720873  0.78943911  0.24788739  1
  H  H1  1  0.54155071  0.29279127  0.75211261  1
  H  H2  1  0.21056089  0.45932134  0.75211261  1
  H  H3  1  0.54067866  0.45844929  0.24788739  1
  H  H4  1  0.96251965  0.07952618  0.38525901  1
  H  H5  1  0.42274036  0.30573283  0.38525901  1
  H  H6  1  0.92047382  0.57725964  0.61474099  1
  H  H7  1  0.69426717  0.03748035  0.61474099  1
  N  N0  1  0.34639798  0.36134275  0.23113725  1
  N  N1  1  0.13020450  0.65360202  0.76886275  1
  N  N2  1  0.63865725  0.11525873  0.76886275  1
  N  N3  1  0.88474127  0.86979550  0.23113725  1
loop_
_geom_bond_atom_site_label_1
_geom_bond_atom_site_label_2
_geom_bond_distance
_geom_bond_site_symmetry_2
Li0 N2 2.179918 1_565
Li0 N3 2.179921 1_455
Li0 N0 2.179923 1_555
Li0 N1 2.179926 1_555
Li1 N3 2.026505 1_455
Li1 N0 2.026508 1_555
Li1 N1 2.188559 1_554
Li1 N2 2.188568 1_454
Li2 N2 2.026502 1_565
Li2 N1 2.026511 1_555
Li2 N0 2.188561 1_566
Li2 N3 2.188565 1_556
Li3 N3 2.039278 1_445
Li3 N2 2.039282 1_454
Li3 N1 2.039284 1_544
Li3 N0 2.039287 1_555
H0 N3 1.020348 1_555
H0 Li2 2.160586 1_554
H1 N2 1.020348 1_555
H1 Li1 2.160591 1_656
H2 N1 1.020339 1_555
H2 Li1 2.160586 1_556
H3 N0 1.020339 1_555
H3 Li2 2.160590 1_544
H4 N3 1.022936 1_545
H5 N0 1.022940 1_555
H6 N1 1.022937 1_655
H7 N2 1.022939 1_555
