# generated using pymatgen
data_Na9TaZn11(SO4)18
_symmetry_space_group_name_H-M   'P 1'
_cell_length_a   8.76655411
_cell_length_b   8.77593659
_cell_length_c   22.60080163
_cell_angle_alpha   90.23975008
_cell_angle_beta   89.82896731
_cell_angle_gamma   120.18034705
_symmetry_Int_Tables_number   1
_chemical_formula_structural   Na9TaZn11(SO4)18
_chemical_formula_sum   'Na9 Ta1 Zn11 S18 O72'
_cell_volume   1503.07526494
_cell_formula_units_Z   1
loop_
 _symmetry_equiv_pos_site_id
 _symmetry_equiv_pos_as_xyz
  1  'x, y, z'
loop_
 _atom_site_type_symbol
 _atom_site_label
 _atom_site_symmetry_multiplicity
 _atom_site_fract_x
 _atom_site_fract_y
 _atom_site_fract_z
 _atom_site_occupancy
  Na  Na0  1  0.36191482  0.36245602  0.25391370  1
  Na  Na1  1  0.30338143  0.97178071  0.08851572  1
  Na  Na2  1  0.97131970  0.30425103  0.41964447  1
  Na  Na3  1  0.00064631  0.98361786  0.50165621  1
  Na  Na4  1  0.98466267  0.00059115  0.00241331  1
  Na  Na5  1  0.66690011  0.33362761  0.83105824  1
  Na  Na6  1  0.66767338  0.33422352  0.33667860  1
  Na  Na7  1  0.33406438  0.66724392  0.17067192  1
  Na  Na8  1  0.33437761  0.66780666  0.65075849  1
  Ta  Ta0  1  0.33326462  0.66678685  0.81373677  1
  Zn  Zn0  1  0.99596962  0.98587734  0.34960797  1
  Zn  Zn1  1  0.99939240  -0.00053642  0.84822510  1
  Zn  Zn2  1  0.00008853  0.00057908  0.64547598  1
  Zn  Zn3  1  0.98746069  0.99670195  0.15428224  1
  Zn  Zn4  1  0.66653367  0.33481117  0.67174266  1
  Zn  Zn5  1  0.68051368  0.33691146  0.18261994  1
  Zn  Zn6  1  0.67098248  0.33597720  0.98606274  1
  Zn  Zn7  1  0.65792548  0.33412289  0.48742204  1
  Zn  Zn8  1  0.33419470  0.65773755  0.01840232  1
  Zn  Zn9  1  0.33780008  0.67183330  0.51548653  1
  Zn  Zn10  1  0.33632818  0.67853640  0.32143864  1
  S  S0  1  0.29782299  0.99841260  0.24751491  1
  S  S1  1  0.70006111  0.70042296  0.24960277  1
  S  S2  1  -0.00052083  0.29804862  0.25146136  1
  S  S3  1  0.29692969  0.29155495  0.75184943  1
  S  S4  1  0.99485549  0.70261472  0.75189874  1
  S  S5  1  0.70897545  0.00610752  0.75183819  1
  S  S6  1  0.96714032  0.33401822  0.58232049  1
  S  S7  1  0.36791933  0.03361033  0.58407312  1
  S  S8  1  0.66548763  0.63186418  0.58390607  1
  S  S9  1  0.96417207  0.63206578  0.08201256  1
  S  S10  1  0.66882708  0.03795086  0.08178575  1
  S  S11  1  0.36971921  0.33375579  0.08401236  1
  S  S12  1  0.62799336  0.66817259  0.91699122  1
  S  S13  1  0.03928754  0.37123781  0.91711386  1
  S  S14  1  0.33192464  0.96125550  0.91820865  1
  S  S15  1  0.63221434  0.96594716  0.41696128  1
  S  S16  1  0.33507072  0.36917452  0.41470585  1
  S  S17  1  0.03648164  0.66684625  0.41739178  1
  O  O0  1  0.20822772  0.02672048  0.29851874  1
  O  O1  1  0.80474215  0.78418891  0.30271997  1
  O  O2  1  0.97988604  0.19745297  0.30629159  1
  O  O3  1  0.21591787  0.19130714  0.80605692  1
  O  O4  1  0.97496140  0.78304117  0.80628146  1
  O  O5  1  0.80906808  0.02579080  0.80604354  1
  O  O6  1  0.77684103  0.96462723  0.69887876  1
  O  O7  1  0.18753738  0.22225084  0.69898579  1
  O  O8  1  0.03659117  0.81178840  0.69915317  1
  O  O9  1  0.77849992  0.80009634  0.19484802  1
  O  O10  1  0.02891037  0.21432356  0.19864470  1
  O  O11  1  0.19997870  0.97728494  0.19102439  1
  O  O12  1  0.88436064  0.35648743  0.63692160  1
  O  O13  1  0.46865490  0.11159878  0.63975844  1
  O  O14  1  0.64187328  0.53161421  0.63955898  1
  O  O15  1  0.88102913  0.52750283  0.13521172  1
  O  O16  1  0.63854253  0.12125996  0.13428678  1
  O  O17  1  0.47034434  0.35307884  0.13888143  1
  O  O18  1  0.45429996  0.30570374  0.03092429  1
  O  O19  1  0.86315324  0.55240953  0.02724339  1
  O  O20  1  0.69201742  0.14010916  0.02685007  1
  O  O21  1  0.45427653  0.14004102  0.53140363  1
  O  O22  1  0.68788296  0.54625265  0.53125591  1
  O  O23  1  0.86448388  0.31438425  0.52798690  1
  O  O24  1  0.54522185  0.68990900  0.97004958  1
  O  O25  1  0.14319384  0.45522863  0.97001729  1
  O  O26  1  0.31255651  0.86150927  0.97227559  1
  O  O27  1  0.54823416  0.86068603  0.46980534  1
  O  O28  1  0.30735677  0.45867928  0.46570324  1
  O  O29  1  0.14230165  0.68862950  0.47046723  1
  O  O30  1  0.11443958  0.63567415  0.36322677  1
  O  O31  1  0.53218601  0.88791405  0.36203966  1
  O  O32  1  0.35632080  0.46671914  0.35826923  1
  O  O33  1  0.14116648  0.48609137  0.86325504  1
  O  O34  1  0.34517125  0.85562242  0.86517547  1
  O  O35  1  0.51262610  0.65440159  0.86323973  1
  O  O36  1  0.01774565  0.82457203  0.41205244  1
  O  O37  1  0.81426529  0.99001589  0.41292010  1
  O  O38  1  0.16984193  0.19157782  0.41124081  1
  O  O39  1  0.02343789  0.19797611  0.90933496  1
  O  O40  1  0.17376833  0.97517995  0.90951695  1
  O  O41  1  0.80157973  0.82623364  0.90925601  1
  O  O42  1  0.98186035  0.17285393  0.58700328  1
  O  O43  1  0.19046035  0.01708991  0.58786624  1
  O  O44  1  0.82690539  0.80945393  0.58777157  1
  O  O45  1  0.98826534  0.81345469  0.08661620  1
  O  O46  1  0.82478440  0.01735872  0.08781238  1
  O  O47  1  0.19116622  0.16972774  0.08739352  1
  O  O48  1  0.67610347  0.15317073  0.74619295  1
  O  O49  1  0.47761620  0.32500766  0.74602489  1
  O  O50  1  0.84721097  0.52174885  0.74598722  1
  O  O51  1  0.67627649  0.51873829  0.24572380  1
  O  O52  1  0.84138935  0.31587255  0.24556775  1
  O  O53  1  0.47506380  0.16380076  0.24435230  1
  O  O54  1  0.63282487  0.50308534  0.91588777  1
  O  O55  1  0.86844419  0.36521248  0.91606201  1
  O  O56  1  0.49717484  0.13235654  0.91612683  1
  O  O57  1  0.65643976  0.14778272  0.42170966  1
  O  O58  1  0.49174621  0.34942669  0.42113254  1
  O  O59  1  0.85815661  0.50311065  0.42222441  1
  O  O60  1  0.35084899  0.49097116  0.07883173  1
  O  O61  1  0.14643243  0.65617991  0.07850817  1
  O  O62  1  0.50312550  0.86078141  0.07773083  1
  O  O63  1  0.34887456  0.85635536  0.57910231  1
  O  O64  1  0.50634383  0.64913531  0.57871108  1
  O  O65  1  0.14503867  0.49302489  0.57846963  1
  O  O66  1  0.31701957  0.84205965  0.25404258  1
  O  O67  1  0.51835257  0.67652943  0.25427891  1
  O  O68  1  0.16340786  0.47628925  0.25489360  1
  O  O69  1  0.31536682  0.47750308  0.76149759  1
  O  O70  1  0.16254069  0.68461133  0.76181768  1
  O  O71  1  0.52220897  0.83807439  0.76162293  1
loop_
_geom_bond_atom_site_label_1
_geom_bond_atom_site_label_2
_geom_bond_distance
_geom_bond_site_symmetry_2
Na0 O67 2.382697 1_555
Na0 O51 2.389331 1_555
Na0 O68 2.402993 1_555
Na0 O53 2.409213 1_555
Na0 O32 2.535472 1_555
Na0 O0 2.745576 1_555
Na0 O17 2.780558 1_555
Na0 O10 2.822242 1_555
Na1 O45 2.388450 1_455
Na1 O47 2.388494 1_565
Na1 O61 2.404266 1_555
Na1 O62 2.405218 1_555
Na1 O11 2.494406 1_555
Na1 O16 2.748717 1_565
Na1 O26 2.810777 1_554
Na1 O18 2.855829 1_565
Na2 O57 2.386683 1_555
Na2 O37 2.388279 1_545
Na2 O38 2.401953 1_655
Na2 O59 2.402656 1_555
Na2 O23 2.636113 1_555
Na2 O2 2.738022 1_555
Na2 O28 2.755159 1_655
Na2 O30 2.830554 1_655
Na3 O44 2.471950 1_455
Na3 O43 2.484886 1_565
Na3 O36 2.501332 1_555
Na3 O42 2.598483 1_465
Na3 O37 2.609148 1_455
Na3 O38 2.645361 1_565
Na4 O46 2.429025 1_555
Na4 O45 2.529509 1_545
Na4 O47 2.542527 1_655
Na4 O41 2.621865 1_544
Na4 O39 2.641157 1_654
Na4 O40 2.748291 1_644
Na5 O48 2.509081 1_555
Na5 O50 2.511068 1_555
Na5 O49 2.518776 1_555
Na5 O54 2.529022 1_555
Na5 O56 2.529657 1_555
Na5 O55 2.532352 1_555
Na6 O58 2.495364 1_555
Na6 O59 2.496019 1_555
Na6 O57 2.498640 1_555
Na6 O51 2.599544 1_555
Na6 O52 2.609682 1_555
Na6 O53 2.626378 1_555
Na7 O67 2.464105 1_555
Na7 O66 2.476086 1_555
Na7 O68 2.481671 1_555
Na7 O61 2.629076 1_555
Na7 O60 2.631211 1_555
Na7 O62 2.640823 1_555
Na8 O64 2.276510 1_555
Na8 O63 2.277423 1_555
Na8 O65 2.283085 1_555
O0 S0 1.481824 1_545
O0 Zn0 2.060150 1_445
O1 S1 1.464461 1_555
O1 Zn0 2.019339 1_555
O2 S2 1.483217 1_655
O2 Zn0 2.169139 1_545
O3 S3 1.467970 1_555
O3 Zn1 2.033551 1_455
O4 S4 1.467819 1_555
O4 Zn1 2.031998 1_565
O5 S5 1.467265 1_555
O5 Zn1 2.035933 1_555
O6 S5 1.459099 1_565
O6 Zn2 2.180546 1_665
O7 S3 1.459916 1_555
O7 Zn2 2.173796 1_555
O8 S4 1.458563 1_455
O8 Zn2 2.207119 1_565
O9 S1 1.472620 1_555
O9 Zn3 1.999647 1_555
O10 S2 1.487548 1_555
O10 Zn3 2.018206 1_445
O11 S0 1.498272 1_555
O11 Zn3 2.125836 1_455
O12 S6 1.491588 1_555
O12 Zn4 1.982199 1_555
O13 S7 1.491285 1_555
O13 Zn4 1.986971 1_555
O14 S8 1.491150 1_555
O14 Zn4 1.986370 1_555
O15 S9 1.466446 1_555
O15 Zn5 2.020696 1_555
O16 S10 1.482894 1_555
O16 Zn5 2.048251 1_555
O17 S11 1.482935 1_555
O17 Zn5 2.160292 1_555
O18 S11 1.491895 1_555
O18 Zn6 2.047011 1_554
O19 S9 1.477165 1_555
O19 Zn6 2.022212 1_554
O20 S10 1.487011 1_555
O20 Zn6 2.042413 1_554
O21 S7 1.468159 1_555
O21 Zn7 2.005649 1_555
O22 S8 1.469153 1_555
O22 Zn7 2.002663 1_555
O23 S6 1.482041 1_555
O23 Zn7 2.115696 1_555
O24 S12 1.460467 1_555
O24 Zn8 2.040032 1_556
O25 S13 1.458322 1_555
O25 Zn8 2.039765 1_556
O26 S14 1.465110 1_555
O26 Zn8 2.163012 1_556
O27 S15 1.463537 1_555
O27 Zn9 2.035879 1_555
O28 S16 1.478883 1_555
O28 Zn9 2.078133 1_555
O29 S17 1.470531 1_555
O29 Zn9 2.063957 1_555
O30 S17 1.490196 1_555
O30 Zn10 2.018313 1_555
O31 S15 1.474546 1_555
O31 Zn10 1.997399 1_555
O32 S16 1.497274 1_555
O32 Zn10 2.126146 1_555
O33 S13 1.547251 1_555
O33 Ta0 1.980332 1_555
O34 S14 1.551645 1_555
O34 Ta0 1.979761 1_555
O35 S12 1.548063 1_555
O35 Ta0 1.979718 1_555
O36 S17 1.479065 1_555
O36 Zn0 2.078984 1_455
O37 S15 1.503460 1_555
O37 Zn0 2.151820 1_555
O38 S16 1.504391 1_555
O38 Zn0 2.178878 1_445
O39 S13 1.465511 1_555
O39 Zn1 2.144611 1_455
O40 S14 1.465620 1_555
O40 Zn1 2.154956 1_465
O41 S12 1.465778 1_555
O41 Zn1 2.138593 1_565
O42 S6 1.487660 1_555
O42 Zn2 2.078131 1_655
O43 S7 1.490340 1_555
O43 Zn2 2.060820 1_555
O44 S8 1.490374 1_555
O44 Zn2 2.062114 1_665
O45 S9 1.500046 1_555
O45 Zn3 2.217157 1_555
O46 S10 1.473163 1_555
O46 Zn3 2.144407 1_545
O47 S11 1.504273 1_555
O47 Zn3 2.248735 1_445
O48 S5 1.463066 1_555
O48 Zn4 2.353104 1_555
O49 S3 1.464269 1_555
O49 Zn4 2.325961 1_555
O50 S4 1.464985 1_555
O50 Zn4 2.322934 1_555
O51 S1 1.502702 1_555
O51 Zn5 2.149864 1_555
O52 S2 1.477220 1_655
O52 Zn5 2.079205 1_555
O53 S0 1.502909 1_545
O53 Zn5 2.179473 1_555
O54 S12 1.470651 1_555
O54 Zn6 2.300851 1_555
O55 S13 1.472095 1_655
O55 Zn6 2.259611 1_555
O56 S14 1.472629 1_545
O56 Zn6 2.294847 1_555
O57 S15 1.503689 1_545
O57 Zn7 2.199650 1_555
O58 S16 1.475934 1_555
O58 Zn7 2.143919 1_555
O59 S17 1.504097 1_655
O59 Zn7 2.199383 1_555
O60 S11 1.475003 1_555
O60 Zn8 2.064287 1_555
O61 S9 1.504466 1_455
O61 Zn8 2.125826 1_555
O62 S10 1.504904 1_565
O62 Zn8 2.122472 1_555
O63 S7 1.482511 1_565
O63 Zn9 2.126543 1_555
O64 S8 1.482202 1_555
O64 Zn9 2.139057 1_555
O65 S6 1.482942 1_455
O65 Zn9 2.163895 1_555
O66 S0 1.472032 1_555
O66 Zn10 2.161551 1_555
O67 S1 1.501995 1_555
O67 Zn10 2.205479 1_555
O68 S2 1.502506 1_555
O68 Zn10 2.235226 1_555
O69 S3 1.571212 1_555
O69 Ta0 1.974988 1_555
O70 S4 1.572249 1_455
O70 Ta0 1.971997 1_555
O71 S5 1.573917 1_565
O71 Ta0 1.972364 1_555
