# generated using pymatgen
data_PrNiSn
_symmetry_space_group_name_H-M   'P 1'
_cell_length_a   7.43161613
_cell_length_b   7.43161665
_cell_length_c   4.05601383
_cell_angle_alpha   90.00000000
_cell_angle_beta   90.00000000
_cell_angle_gamma   120.00000688
_symmetry_Int_Tables_number   1
_chemical_formula_structural   PrNiSn
_chemical_formula_sum   'Pr3 Ni3 Sn3'
_cell_volume   193.99770693
_cell_formula_units_Z   3
loop_
 _symmetry_equiv_pos_site_id
 _symmetry_equiv_pos_as_xyz
  1  'x, y, z'
loop_
 _atom_site_type_symbol
 _atom_site_label
 _atom_site_symmetry_multiplicity
 _atom_site_fract_x
 _atom_site_fract_y
 _atom_site_fract_z
 _atom_site_occupancy
  Pr  Pr0  1  0.00000000  0.58653234  0.00000000  1
  Pr  Pr1  1  0.41346766  0.41346766  -0.00000000  1
  Pr  Pr2  1  0.58653234  0.00000000  -0.00000000  1
  Ni  Ni0  1  0.66666700  0.33333300  0.50000000  1
  Ni  Ni1  1  -0.00000000  -0.00000000  -0.00000000  1
  Ni  Ni2  1  0.33333300  0.66666700  0.50000000  1
  Sn  Sn0  1  0.75227828  0.75227828  0.50000000  1
  Sn  Sn1  1  0.00000000  0.24772172  0.50000000  1
  Sn  Sn2  1  0.24772172  0.00000000  0.50000000  1
loop_
_geom_bond_atom_site_label_1
_geom_bond_atom_site_label_2
_geom_bond_distance
_geom_bond_site_symmetry_2
Pr0 Sn1 3.233061 1_555
Pr0 Sn1 3.233061 1_554
Pr0 Sn2 3.359593 1_565
Pr0 Sn2 3.359593 1_564
Pr0 Sn0 3.359593 1_455
Pr0 Sn0 3.359593 1_454
Pr1 Sn0 3.233061 1_555
Pr1 Sn0 3.233061 1_554
Pr1 Sn1 3.359593 1_555
Pr1 Sn1 3.359593 1_554
Pr1 Sn2 3.359593 1_554
Pr1 Sn2 3.359593 1_555
Pr2 Sn2 3.233061 1_555
Pr2 Sn2 3.233061 1_554
Pr2 Sn1 3.359592 1_654
Pr2 Sn1 3.359592 1_655
Pr2 Sn0 3.359593 1_544
Pr2 Sn0 3.359593 1_545
Ni0 Sn1 2.849104 1_655
Ni0 Sn2 2.849109 1_555
Ni0 Sn0 2.849112 1_555
Ni0 Pr2 3.021383 1_556
Ni0 Pr2 3.021383 1_555
Ni0 Pr0 3.021384 1_656
Ni0 Pr0 3.021384 1_655
Ni0 Pr1 3.021388 1_555
Ni0 Pr1 3.021388 1_556
Ni1 Sn0 2.738976 1_444
Ni1 Sn0 2.738976 1_445
Ni1 Sn2 2.738977 1_554
Ni1 Sn2 2.738977 1_555
Ni1 Sn1 2.738977 1_555
Ni1 Sn1 2.738977 1_554
Ni1 Pr1 3.072733 1_555
Ni1 Pr2 3.072733 1_455
Ni1 Pr0 3.072733 1_545
Ni2 Sn2 2.849104 1_565
Ni2 Sn1 2.849109 1_555
Ni2 Sn0 2.849111 1_555
Ni2 Pr0 3.021383 1_555
Ni2 Pr0 3.021383 1_556
Ni2 Pr2 3.021384 1_566
Ni2 Pr2 3.021384 1_565
Ni2 Pr1 3.021388 1_556
Ni2 Pr1 3.021388 1_555
