# generated using pymatgen
data_Sr2Mg(CuO2)2
_symmetry_space_group_name_H-M   'P 1'
_cell_length_a   3.36311255
_cell_length_b   3.50273922
_cell_length_c   11.86721599
_cell_angle_alpha   90.00000000
_cell_angle_beta   98.62999091
_cell_angle_gamma   90.00000000
_symmetry_Int_Tables_number   1
_chemical_formula_structural   Sr2Mg(CuO2)2
_chemical_formula_sum   'Sr2 Mg1 Cu2 O4'
_cell_volume   138.21427868
_cell_formula_units_Z   1
loop_
 _symmetry_equiv_pos_site_id
 _symmetry_equiv_pos_as_xyz
  1  'x, y, z'
loop_
 _atom_site_type_symbol
 _atom_site_label
 _atom_site_symmetry_multiplicity
 _atom_site_fract_x
 _atom_site_fract_y
 _atom_site_fract_z
 _atom_site_occupancy
  Sr  Sr0  1  0.35811605  0.75000000  0.72156578  1
  Sr  Sr1  1  0.65014051  0.25000000  0.28167060  1
  Mg  Mg0  1  0.74327067  0.75000000  0.50029548  1
  Cu  Cu0  1  0.95718448  0.25000000  0.91173243  1
  Cu  Cu1  1  0.04687927  0.75000000  0.09166711  1
  O  O0  1  0.19025200  0.75000000  0.39662806  1
  O  O1  1  0.79907056  0.25000000  0.60245279  1
  O  O2  1  0.07196210  0.25000000  0.13795306  1
  O  O3  1  0.93312437  0.75000000  0.86384669  1
loop_
_geom_bond_atom_site_label_1
_geom_bond_atom_site_label_2
_geom_bond_distance
_geom_bond_site_symmetry_2
Mg0 O0 2.070248 1_555
Mg0 O0 2.080447 1_655
Mg0 O1 2.122254 1_555
Mg0 O1 2.122254 1_565
Cu0 O3 1.839286 1_545
Cu0 O3 1.839286 1_555
Cu1 O2 1.833636 1_565
Cu1 O2 1.833636 1_555
O0 Sr1 2.735734 1_455
O0 Sr1 2.735734 1_465
O0 Sr1 2.820243 1_555
O0 Sr1 2.820243 1_565
O1 Sr0 2.793334 1_655
O1 Sr0 2.793334 1_645
O1 Sr0 2.809576 1_545
O1 Sr0 2.809576 1_555
O2 Sr1 2.376437 1_455
O2 Sr1 2.386328 1_555
O3 Sr0 2.368692 1_555
O3 Sr0 2.370253 1_655
