# generated using pymatgen
data_Bi3Se4Br
_symmetry_space_group_name_H-M   'P 1'
_cell_length_a   10.77301435
_cell_length_b   10.77301435
_cell_length_c   12.20323122
_cell_angle_alpha   66.50671578
_cell_angle_beta   66.50671578
_cell_angle_gamma   22.07744946
_symmetry_Int_Tables_number   1
_chemical_formula_structural   Bi3Se4Br
_chemical_formula_sum   'Bi6 Se8 Br2'
_cell_volume   486.43835216
_cell_formula_units_Z   2
loop_
 _symmetry_equiv_pos_site_id
 _symmetry_equiv_pos_as_xyz
  1  'x, y, z'
loop_
 _atom_site_type_symbol
 _atom_site_label
 _atom_site_symmetry_multiplicity
 _atom_site_fract_x
 _atom_site_fract_y
 _atom_site_fract_z
 _atom_site_occupancy
  Bi  Bi0  1  0.08905500  0.08905500  0.03731800  1
  Bi  Bi1  1  0.91094500  0.91094500  0.96268200  1
  Bi  Bi2  1  0.67269200  0.67269200  0.26274300  1
  Bi  Bi3  1  0.32730800  0.32730800  0.73725700  1
  Bi  Bi4  1  0.15156400  0.15156400  0.58541200  1
  Bi  Bi5  1  0.84843600  0.84843600  0.41458800  1
  Se  Se0  1  0.41443100  0.41443100  0.49199700  1
  Se  Se1  1  0.58556900  0.58556900  0.50800300  1
  Se  Se2  1  0.68653300  0.68653300  0.98164800  1
  Se  Se3  1  0.31346700  0.31346700  0.01835200  1
  Se  Se4  1  0.07702800  0.07702800  0.27299500  1
  Se  Se5  1  0.92297200  0.92297200  0.72700500  1
  Se  Se6  1  0.25350300  0.25350300  0.35740400  1
  Se  Se7  1  0.74649700  0.74649700  0.64259600  1
  Br  Br0  1  0.45670500  0.45670500  0.16539400  1
  Br  Br1  1  0.54329500  0.54329500  0.83460600  1
loop_
_geom_bond_atom_site_label_1
_geom_bond_atom_site_label_2
_geom_bond_distance
_geom_bond_site_symmetry_2
Bi0 Se4 2.782443 1_555
Bi0 Se2 2.797893 1_544
Bi0 Se2 2.797893 1_454
Bi0 Br0 3.313282 1_455
Bi0 Br0 3.313282 1_545
Bi1 Se5 2.782443 1_555
Bi1 Se3 2.797893 1_656
Bi1 Se3 2.797893 1_566
Bi1 Br1 3.313282 1_565
Bi1 Br1 3.313282 1_655
Bi2 Se1 2.805890 1_555
Bi2 Se4 2.856158 1_565
Bi2 Se4 2.856158 1_655
Bi2 Se6 3.180153 1_565
Bi2 Se6 3.180153 1_655
Bi2 Se2 3.322170 1_554
Bi3 Se0 2.805890 1_555
Bi3 Se5 2.856158 1_545
Bi3 Se5 2.856158 1_455
Bi3 Se7 3.180153 1_455
Bi3 Se7 3.180153 1_545
Bi3 Se3 3.322170 1_556
Bi4 Se6 2.741668 1_555
Bi4 Se1 2.857604 1_455
Bi4 Se1 2.857604 1_545
Bi4 Se7 3.148055 1_455
Bi4 Se7 3.148055 1_545
Bi5 Se7 2.741668 1_555
Bi5 Se0 2.857604 1_565
Bi5 Se0 2.857604 1_655
Bi5 Se6 3.148055 1_655
Bi5 Se6 3.148055 1_565
