# generated using pymatgen
data_Na2Sc2Nb2Si3(SO8)3
_symmetry_space_group_name_H-M   'P 1'
_cell_length_a   8.91098048
_cell_length_b   8.90639285
_cell_length_c   23.13576285
_cell_angle_alpha   90.63301253
_cell_angle_beta   90.10439103
_cell_angle_gamma   119.88771851
_symmetry_Int_Tables_number   1
_chemical_formula_structural   Na2Sc2Nb2Si3(SO8)3
_chemical_formula_sum   'Na6 Sc6 Nb6 Si9 S9 O72'
_cell_volume   1591.80563396
_cell_formula_units_Z   3
loop_
 _symmetry_equiv_pos_site_id
 _symmetry_equiv_pos_as_xyz
  1  'x, y, z'
loop_
 _atom_site_type_symbol
 _atom_site_label
 _atom_site_symmetry_multiplicity
 _atom_site_fract_x
 _atom_site_fract_y
 _atom_site_fract_z
 _atom_site_occupancy
  Na  Na0  1  0.98924465  0.98676220  0.49245966  1
  Na  Na1  1  0.00718084  0.99347360  0.99803185  1
  Na  Na2  1  0.65504039  0.32023067  0.82602998  1
  Na  Na3  1  0.66694135  0.32108545  0.32874859  1
  Na  Na4  1  0.31974920  0.66147290  0.16845128  1
  Na  Na5  1  0.34347560  0.66308694  0.66026778  1
  Sc  Sc0  1  0.99985785  0.00421410  0.35428661  1
  Sc  Sc1  1  0.01273487  0.01109878  0.85095437  1
  Sc  Sc2  1  0.65265817  0.33297723  0.68730911  1
  Sc  Sc3  1  0.68211598  0.33499234  0.19003279  1
  Sc  Sc4  1  0.32090015  0.67500294  0.02036101  1
  Sc  Sc5  1  0.34779169  0.67942826  0.51744459  1
  Nb  Nb0  1  0.98872940  0.00434726  0.64549357  1
  Nb  Nb1  1  0.00726427  0.99431327  0.15169073  1
  Nb  Nb2  1  0.66689697  0.33596692  0.97988395  1
  Nb  Nb3  1  0.67587597  0.34624428  0.47455011  1
  Nb  Nb4  1  0.31811528  0.67635674  0.31278930  1
  Nb  Nb5  1  0.34598826  0.68209909  0.80774524  1
  Si  Si0  1  0.29857397  0.00963055  0.25374745  1
  Si  Si1  1  0.00415313  0.29142117  0.25240331  1
  Si  Si2  1  0.29011593  0.28813650  0.75106612  1
  Si  Si3  1  0.71991309  0.01327867  0.75241332  1
  Si  Si4  1  0.66113699  0.62065000  0.58495842  1
  Si  Si5  1  0.95845950  0.62743148  0.08545980  1
  Si  Si6  1  0.32746224  0.95654500  0.91784144  1
  Si  Si7  1  0.62601369  0.95518221  0.41770875  1
  Si  Si8  1  0.04937779  0.67766164  0.41996944  1
  S  S0  1  0.70855555  0.71070819  0.25030292  1
  S  S1  1  0.99993008  0.71157976  0.75000228  1
  S  S2  1  0.95516368  0.33574075  0.58375857  1
  S  S3  1  0.37495127  0.04402373  0.58349977  1
  S  S4  1  0.66882408  0.04426774  0.08279660  1
  S  S5  1  0.37723246  0.33370843  0.08349312  1
  S  S6  1  0.62121627  0.66647082  0.91760949  1
  S  S7  1  0.04346424  0.37799153  0.91723461  1
  S  S8  1  0.33353720  0.37907543  0.41708264  1
  O  O0  1  0.20084754  0.02564755  0.30770397  1
  O  O1  1  0.81406125  0.78810064  0.30149113  1
  O  O2  1  0.97161856  0.17140514  0.30627063  1
  O  O3  1  0.20444308  0.17442016  0.80712806  1
  O  O4  1  0.97541586  0.78802015  0.80276845  1
  O  O5  1  0.82278414  0.02032990  0.80909206  1
  O  O6  1  0.80323164  0.96888725  0.69324031  1
  O  O7  1  0.16428679  0.19261283  0.69312819  1
  O  O8  1  0.03244545  0.82024807  0.69816553  1
  O  O9  1  0.79486188  0.82189381  0.19665716  1
  O  O10  1  0.02590995  0.18921352  0.19196668  1
  O  O11  1  0.16716491  0.96620795  0.19316095  1
  O  O12  1  0.87422203  0.35395263  0.63581868  1
  O  O13  1  0.48001995  0.12190503  0.63592876  1
  O  O14  1  0.64832526  0.50996292  0.64050053  1
  O  O15  1  0.86072793  0.50771819  0.13837121  1
  O  O16  1  0.63807636  0.12090471  0.13397934  1
  O  O17  1  0.48061173  0.35615250  0.13454067  1
  O  O18  1  0.46075959  0.30410746  0.02948152  1
  O  O19  1  0.83057337  0.52333783  0.02611950  1
  O  O20  1  0.68976501  0.15503839  0.02997798  1
  O  O21  1  0.45539714  0.15009773  0.53179730  1
  O  O22  1  0.69150592  0.52354197  0.52697464  1
  O  O23  1  0.84585341  0.30211718  0.53078002  1
  O  O24  1  0.53875543  0.68542063  0.96933981  1
  O  O25  1  0.14759498  0.45684003  0.96961626  1
  O  O26  1  0.31217414  0.84284198  0.97290883  1
  O  O27  1  0.53835645  0.84146099  0.47357738  1
  O  O28  1  0.31199993  0.45781782  0.46976692  1
  O  O29  1  0.15658514  0.68637349  0.47572230  1
  O  O30  1  0.13124683  0.63395720  0.35991624  1
  O  O31  1  0.49720080  0.85759831  0.35979712  1
  O  O32  1  0.36566978  0.48539824  0.36489735  1
  O  O33  1  0.11941112  0.48363592  0.86549699  1
  O  O34  1  0.35959298  0.85878569  0.86024503  1
  O  O35  1  0.51152128  0.63410255  0.86422720  1
  O  O36  1  0.01701246  0.83507205  0.41090631  1
  O  O37  1  0.81871366  0.98896934  0.41076052  1
  O  O38  1  0.18531235  0.20478358  0.41163532  1
  O  O39  1  0.01533249  0.20143671  0.91222701  1
  O  O40  1  0.16109936  0.98008653  0.91226762  1
  O  O41  1  0.79479548  0.81460724  0.91090814  1
  O  O42  1  0.96994563  0.17057494  0.58854107  1
  O  O43  1  0.19908950  0.02868677  0.59038792  1
  O  O44  1  0.84675614  0.81635043  0.59259243  1
  O  O45  1  0.96954701  0.81992856  0.08905237  1
  O  O46  1  0.82909887  0.03323816  0.08639952  1
  O  O47  1  0.20183703  0.17312997  0.08654252  1
  O  O48  1  0.69033179  0.17208598  0.74227434  1
  O  O49  1  0.48354886  0.32219903  0.74489756  1
  O  O50  1  0.85379924  0.53626970  0.74287042  1
  O  O51  1  0.68762372  0.53821705  0.24115288  1
  O  O52  1  0.84131598  0.32133340  0.24343730  1
  O  O53  1  0.48259611  0.17248172  0.24010916  1
  O  O54  1  0.63502595  0.50207002  0.92310665  1
  O  O55  1  0.86429543  0.36117293  0.92466418  1
  O  O56  1  0.50951887  0.15111331  0.92699416  1
  O  O57  1  0.63302839  0.14641832  0.42773884  1
  O  O58  1  0.49496186  0.36037485  0.42343521  1
  O  O59  1  0.85353500  0.49185580  0.42510685  1
  O  O60  1  0.35890485  0.48628554  0.07384746  1
  O  O61  1  0.14849482  0.64805117  0.07748984  1
  O  O62  1  0.51922414  0.86915687  0.07449597  1
  O  O63  1  0.35007668  0.86795428  0.57857801  1
  O  O64  1  0.49657862  0.64765028  0.57935004  1
  O  O65  1  0.12934270  0.48272303  0.57752726  1
  O  O66  1  0.30911101  0.82690501  0.25553719  1
  O  O67  1  0.53679675  0.69803785  0.25325258  1
  O  O68  1  0.18704560  0.48010493  0.25715092  1
  O  O69  1  0.30030381  0.48102061  0.76157656  1
  O  O70  1  0.16223949  0.69515391  0.75662865  1
  O  O71  1  0.52210066  0.82778716  0.75812396  1
loop_
_geom_bond_atom_site_label_1
_geom_bond_atom_site_label_2
_geom_bond_distance
_geom_bond_site_symmetry_2
Na0 O36 2.392698 1_655
Na0 O37 2.429494 1_555
Na0 O38 2.651563 1_665
Na0 O44 2.729551 1_555
Na0 O42 2.802253 1_565
Na0 O43 2.835349 1_665
Na1 O40 2.449532 1_555
Na1 O45 2.548324 1_456
Na1 O47 2.628874 1_566
Na1 O41 2.663266 1_455
Na1 O39 2.706376 1_565
Na1 O46 2.716495 1_466
Na2 O49 2.424026 1_555
Na2 O48 2.440070 1_555
Na2 O50 2.690485 1_555
Na2 O56 2.747513 1_555
Na2 O54 2.812099 1_555
Na2 O55 2.847077 1_555
Na3 O52 2.513555 1_555
Na3 O53 2.533119 1_555
Na3 O57 2.714626 1_555
Na3 O59 2.727466 1_555
Na3 O51 2.759278 1_555
Na3 O58 2.792794 1_555
Na4 O66 2.512692 1_555
Na4 O68 2.529293 1_555
Na4 O61 2.563747 1_555
Na4 O67 2.653370 1_555
Na4 O60 2.795830 1_555
Na4 O62 2.851718 1_555
Na5 O64 2.361249 1_555
Na5 O65 2.598042 1_555
Na5 O63 2.621889 1_555
Na5 O71 2.719830 1_555
Na5 O69 2.781486 1_555
Na5 O70 2.849322 1_555
Nb0 O6 1.883190 1_545
Nb0 O44 1.933907 1_545
Nb0 O7 1.952456 1_655
Nb0 O42 2.060413 1_555
Nb0 O43 2.189986 1_655
Nb0 O8 2.237012 1_645
Nb1 O11 1.835548 1_555
Nb1 O10 1.893502 1_565
Nb1 O45 2.013356 1_455
Nb1 O9 2.041730 1_455
Nb1 O47 2.263851 1_565
Nb1 O46 2.339639 1_465
Nb2 O19 1.893561 1_556
Nb2 O56 1.955194 1_555
Nb2 O18 2.065622 1_556
Nb2 O20 2.085439 1_556
Nb2 O55 2.097056 1_555
Nb2 O54 2.110694 1_555
Nb3 O59 1.868130 1_555
Nb3 O22 1.929213 1_555
Nb3 O57 1.940315 1_555
Nb3 O58 2.052272 1_555
Nb3 O23 2.176798 1_555
Nb3 O21 2.303491 1_555
Nb4 O30 1.869025 1_555
Nb4 O66 1.924801 1_555
Nb4 O31 1.929446 1_555
Nb4 O68 1.996626 1_555
Nb4 O32 2.299391 1_555
Nb4 O67 2.317874 1_555
Nb5 O71 1.864007 1_555
Nb5 O34 1.932214 1_555
Nb5 O69 1.934812 1_555
Nb5 O70 2.068537 1_555
Nb5 O35 2.167920 1_555
Nb5 O33 2.343375 1_555
O0 Si0 1.568712 1_555
O0 Sc0 2.019038 1_455
O1 S0 1.446927 1_555
O1 Sc0 2.168564 1_565
O2 Si1 1.581676 1_655
O2 Sc0 1.980830 1_555
O3 Si2 1.597796 1_555
O3 Sc1 1.903871 1_555
O4 S1 1.460259 1_555
O4 Sc1 2.142923 1_665
O5 Si3 1.581202 1_555
O5 Sc1 1.986030 1_655
O6 Si3 1.692936 1_565
O7 Si2 1.672256 1_555
O8 S1 1.485392 1_455
O9 S0 1.544069 1_555
O10 Si1 1.723392 1_555
O11 Si0 1.736746 1_565
O12 S2 1.453507 1_555
O12 Sc2 2.235618 1_555
O13 S3 1.469390 1_555
O13 Sc2 2.091760 1_555
O14 Si4 1.597651 1_555
O14 Sc2 1.938358 1_555
O15 Si5 1.581491 1_555
O15 Sc3 1.983874 1_555
O16 S4 1.453574 1_555
O16 Sc3 2.160847 1_555
O17 S5 1.445927 1_555
O17 Sc3 2.289579 1_555
O18 S5 1.541645 1_555
O19 Si5 1.719371 1_555
O20 S4 1.531475 1_555
O21 S3 1.480000 1_555
O22 Si4 1.682206 1_555
O23 S2 1.495876 1_555
O24 S6 1.457101 1_555
O24 Sc4 2.236495 1_556
O25 S7 1.466470 1_555
O25 Sc4 2.119236 1_556
O26 Si6 1.599650 1_555
O26 Sc4 1.896745 1_556
O27 Si7 1.597141 1_555
O27 Sc5 1.895419 1_555
O28 S8 1.459612 1_555
O28 Sc5 2.130116 1_555
O29 Si8 1.581736 1_555
O29 Sc5 1.984694 1_555
O30 Si8 1.699662 1_555
O31 Si7 1.685973 1_555
O32 S8 1.480774 1_555
O33 S7 1.472865 1_555
O34 Si6 1.685206 1_555
O35 S6 1.506922 1_555
O36 Si8 1.581730 1_555
O36 Sc0 2.069073 1_465
O37 Si7 1.597526 1_555
O37 Sc0 2.030834 1_565
O38 S8 1.456653 1_555
O38 Sc0 2.163346 1_455
O39 S7 1.466947 1_555
O39 Sc1 2.188962 1_555
O40 Si6 1.602479 1_555
O40 Sc1 2.049912 1_565
O41 S6 1.459044 1_555
O41 Sc1 2.331202 1_665
O42 S2 1.546020 1_555
O43 S3 1.512586 1_555
O44 Si4 1.709974 1_555
O45 Si5 1.668542 1_555
O46 S4 1.481870 1_555
O47 S5 1.506026 1_555
O48 Si3 1.582312 1_555
O48 Sc2 2.073966 1_555
O49 Si2 1.601304 1_555
O49 Sc2 1.980200 1_555
O50 S1 1.458776 1_555
O50 Sc2 2.202086 1_555
O51 S0 1.465208 1_555
O51 Sc3 2.131020 1_555
O52 Si1 1.613970 1_655
O52 Sc3 1.929462 1_555
O53 Si0 1.591831 1_555
O53 Sc3 2.019438 1_555
O54 S6 1.535865 1_555
O55 S7 1.537610 1_655
O56 Si6 1.693680 1_545
O57 Si7 1.686368 1_545
O58 S8 1.535260 1_555
O59 Si8 1.710313 1_655
O60 S5 1.466581 1_555
O60 Sc4 2.254494 1_555
O61 Si5 1.620891 1_455
O61 Sc4 1.952349 1_555
O62 S4 1.472001 1_565
O62 Sc4 2.140214 1_555
O63 S3 1.473338 1_565
O63 Sc5 2.175668 1_555
O64 Si4 1.605101 1_555
O64 Sc5 2.065246 1_555
O65 S2 1.457245 1_455
O65 Sc5 2.335747 1_555
O66 Si0 1.677143 1_565
O67 S0 1.479312 1_555
O68 Si1 1.660721 1_555
O69 Si2 1.689325 1_555
O70 S1 1.532108 1_455
O71 Si3 1.719695 1_565
