# generated using pymatgen
data_Na6Ca6SiSn2S11O48
_symmetry_space_group_name_H-M   'P 1'
_cell_length_a   18.31632232
_cell_length_b   9.15650755
_cell_length_c   23.77115773
_cell_angle_alpha   89.85881885
_cell_angle_beta   90.07951618
_cell_angle_gamma   119.84104125
_symmetry_Int_Tables_number   1
_chemical_formula_structural   Na6Ca6SiSn2S11O48
_chemical_formula_sum   'Na18 Ca18 Si3 Sn6 S33 O144'
_cell_volume   3458.12899899
_cell_formula_units_Z   3
loop_
 _symmetry_equiv_pos_site_id
 _symmetry_equiv_pos_as_xyz
  1  'x, y, z'
loop_
 _atom_site_type_symbol
 _atom_site_label
 _atom_site_symmetry_multiplicity
 _atom_site_fract_x
 _atom_site_fract_y
 _atom_site_fract_z
 _atom_site_occupancy
  Na  Na0  1  0.68832871  0.37008538  0.24414631  1
  Na  Na1  1  0.99052017  0.63614445  0.25421524  1
  Na  Na2  1  0.33477876  0.96311881  0.59571842  1
  Na  Na3  1  0.83595808  0.96499452  0.59582204  1
  Na  Na4  1  0.33420705  0.69586606  0.08089921  1
  Na  Na5  1  0.34517383  0.66457324  0.41271701  1
  Na  Na6  1  0.00879354  0.99705755  0.49512301  1
  Na  Na7  1  0.51238590  0.01782809  0.50065626  1
  Na  Na8  1  0.99844463  0.99848696  0.99795936  1
  Na  Na9  1  0.50985502  0.01725010  0.99926879  1
  Na  Na10  1  0.33462433  0.32145330  0.83447271  1
  Na  Na11  1  0.83384181  0.32181690  0.83465180  1
  Na  Na12  1  0.32983344  0.32192835  0.32916612  1
  Na  Na13  1  0.83702468  0.34307822  0.33298597  1
  Na  Na14  1  0.16743419  0.66993323  0.16505154  1
  Na  Na15  1  0.67120940  0.67708303  0.15957864  1
  Na  Na16  1  0.17101182  0.67425393  0.67818883  1
  Na  Na17  1  0.67267283  0.67537784  0.67899583  1
  Ca  Ca0  1  0.99819917  0.99648246  0.35121679  1
  Ca  Ca1  1  0.49920471  0.00216185  0.34852559  1
  Ca  Ca2  1  0.00022886  0.00037311  0.65221580  1
  Ca  Ca3  1  0.50061335  0.99994116  0.65256449  1
  Ca  Ca4  1  0.50430788  0.00736354  0.15108144  1
  Ca  Ca5  1  0.33504827  0.33198991  0.18216983  1
  Ca  Ca6  1  0.83214079  0.33034165  0.17974881  1
  Ca  Ca7  1  0.33087722  0.32575847  0.98224142  1
  Ca  Ca8  1  0.83466288  0.33439834  0.98369172  1
  Ca  Ca9  1  0.33370109  0.32808474  0.48087283  1
  Ca  Ca10  1  0.83365793  0.33755110  0.47831911  1
  Ca  Ca11  1  0.16119054  0.66831372  0.01160687  1
  Ca  Ca12  1  0.66705407  0.66790674  0.01262498  1
  Ca  Ca13  1  0.16063385  0.65907292  0.51898642  1
  Ca  Ca14  1  0.66382163  0.66011256  0.52074557  1
  Ca  Ca15  1  0.16725578  0.66700759  0.31536702  1
  Ca  Ca16  1  0.17089090  0.67469985  0.81566692  1
  Ca  Ca17  1  0.67131855  0.67530916  0.81595349  1
  Si  Si0  1  0.85006062  0.70249936  0.25182813  1
  Si  Si1  1  0.35056564  0.00165741  0.74442782  1
  Si  Si2  1  0.85012791  0.00240018  0.74429554  1
  Sn  Sn0  1  0.99442683  0.00217943  0.84603587  1
  Sn  Sn1  1  0.49548920  0.00372734  0.84663370  1
  Sn  Sn2  1  0.99084100  0.99128819  0.15258049  1
  Sn  Sn3  1  0.33444705  0.32999063  0.68870622  1
  Sn  Sn4  1  0.83479912  0.33107680  0.68831127  1
  Sn  Sn5  1  0.67229651  0.67456521  0.31639463  1
  S  S0  1  0.14455999  0.99916741  0.24699426  1
  S  S1  1  0.64951655  0.99216383  0.25322619  1
  S  S2  1  0.34866473  0.69656637  0.25007093  1
  S  S3  1  0.00174222  0.29666126  0.24697906  1
  S  S4  1  0.50421571  0.31155863  0.25421805  1
  S  S5  1  0.15073488  0.29305119  0.74970476  1
  S  S6  1  0.65090423  0.29344648  0.74964711  1
  S  S7  1  0.99532860  0.69861157  0.75007715  1
  S  S8  1  0.49529950  0.69838383  0.75010880  1
  S  S9  1  0.47871976  0.33474322  0.58566123  1
  S  S10  1  0.97767167  0.33455775  0.58521082  1
  S  S11  1  0.18965111  0.04411049  0.58535576  1
  S  S12  1  0.68999445  0.04601216  0.58425766  1
  S  S13  1  0.33389604  0.62311019  0.58466119  1
  S  S14  1  0.83321499  0.62074724  0.58659179  1
  S  S15  1  0.48258620  0.63303749  0.08318078  1
  S  S16  1  0.98603636  0.64779766  0.08763944  1
  S  S17  1  0.33202912  0.02623954  0.08346588  1
  S  S18  1  0.83792386  0.03075862  0.08504152  1
  S  S19  1  0.17713056  0.32335117  0.08651576  1
  S  S20  1  0.68154817  0.33467438  0.08409729  1
  S  S21  1  0.32316571  0.67601364  0.91616751  1
  S  S22  1  0.82315651  0.67584801  0.91417267  1
  S  S23  1  0.01630601  0.35575050  0.91358286  1
  S  S24  1  0.51662182  0.35686522  0.91348694  1
  S  S25  1  0.15884007  0.97008743  0.91221523  1
  S  S26  1  0.65962232  0.96975542  0.91290238  1
  S  S27  1  0.31684871  0.96215575  0.41865293  1
  S  S28  1  0.81115467  0.95955111  0.41712841  1
  S  S29  1  0.16842574  0.37025768  0.41743958  1
  S  S30  1  0.66603573  0.37487965  0.41361504  1
  S  S31  1  0.01651525  0.66726835  0.41510550  1
  S  S32  1  0.52127088  0.66620081  0.41347881  1
  O  O0  1  0.10719355  0.02222875  0.29823902  1
  O  O1  1  0.60933936  0.01747688  0.30288771  1
  O  O2  1  0.39613308  0.77886776  0.30266550  1
  O  O3  1  0.91152784  0.78516679  0.30377306  1
  O  O4  1  0.49455686  0.21107452  0.30459705  1
  O  O5  1  0.99503659  0.20005516  0.29775288  1
  O  O6  1  0.11264519  0.18335018  0.80111521  1
  O  O7  1  0.61281597  0.18361086  0.80111725  1
  O  O8  1  0.48399838  0.78048886  0.80176860  1
  O  O9  1  0.98426063  0.78083658  0.80188072  1
  O  O10  1  0.41466878  0.03499807  0.80072819  1
  O  O11  1  0.91426154  0.03643754  0.80064624  1
  O  O12  1  0.38953823  0.98914161  0.68531583  1
  O  O13  1  0.88926790  0.98902336  0.68541121  1
  O  O14  1  0.10369415  0.21359221  0.69861091  1
  O  O15  1  0.60352365  0.21369148  0.69864141  1
  O  O16  1  0.00759404  0.79813375  0.69936583  1
  O  O17  1  0.50739248  0.79722090  0.69922594  1
  O  O18  1  0.39291562  0.79747164  0.19963045  1
  O  O19  1  0.89009291  0.81821640  0.19311665  1
  O  O20  1  0.01300132  0.21382374  0.19478713  1
  O  O21  1  0.52129854  0.23913351  0.20382421  1
  O  O22  1  0.08994729  0.97878690  0.19550866  1
  O  O23  1  0.60020445  0.96516830  0.20184463  1
  O  O24  1  0.43600044  0.35338832  0.63754754  1
  O  O25  1  0.93552310  0.35445304  0.63757500  1
  O  O26  1  0.24369609  0.13182072  0.63693237  1
  O  O27  1  0.74294628  0.13231267  0.63617053  1
  O  O28  1  0.32558080  0.51642605  0.63608123  1
  O  O29  1  0.82429597  0.51834834  0.63955348  1
  O  O30  1  0.44313879  0.53503395  0.13479534  1
  O  O31  1  0.94835434  0.55474338  0.14034262  1
  O  O32  1  0.32391496  0.10703747  0.13468794  1
  O  O33  1  0.82990603  0.10907189  0.13660667  1
  O  O34  1  0.23033445  0.34837032  0.13620471  1
  O  O35  1  0.72474335  0.34522314  0.13867609  1
  O  O36  1  0.21304766  0.29466048  0.03524106  1
  O  O37  1  0.72883991  0.32108412  0.03628053  1
  O  O38  1  0.42920630  0.54760955  0.03357841  1
  O  O39  1  0.93385006  0.56737420  0.03798525  1
  O  O40  1  0.33896484  0.12378606  0.03270562  1
  O  O41  1  0.84938188  0.13216939  0.03448446  1
  O  O42  1  0.22935878  0.14115276  0.53445815  1
  O  O43  1  0.72992910  0.14318790  0.53339385  1
  O  O44  1  0.33978137  0.54351408  0.53254516  1
  O  O45  1  0.83782249  0.53517164  0.53631965  1
  O  O46  1  0.42858639  0.31723194  0.53541021  1
  O  O47  1  0.92631772  0.31523659  0.53534242  1
  O  O48  1  0.28809908  0.70065509  0.96946884  1
  O  O49  1  0.78634898  0.70340570  0.96521422  1
  O  O50  1  0.06514234  0.42990103  0.96538829  1
  O  O51  1  0.56546239  0.43133994  0.96511240  1
  O  O52  1  0.14512006  0.87240882  0.96443312  1
  O  O53  1  0.64577176  0.87095651  0.96475785  1
  O  O54  1  0.27672084  0.86739950  0.47118641  1
  O  O55  1  0.77026601  0.86264777  0.46830114  1
  O  O56  1  0.16253028  0.45369960  0.46885093  1
  O  O57  1  0.65894786  0.46227871  0.46296915  1
  O  O58  1  0.06700040  0.67383159  0.46452798  1
  O  O59  1  0.56947213  0.68134864  0.46436193  1
  O  O60  1  0.05610165  0.65719782  0.36177166  1
  O  O61  1  0.56483891  0.64950223  0.36147775  1
  O  O62  1  0.26652187  0.87589275  0.36866441  1
  O  O63  1  0.75745841  0.87104613  0.36523045  1
  O  O64  1  0.17676971  0.47153747  0.36695519  1
  O  O65  1  0.67306613  0.47373715  0.35950443  1
  O  O66  1  0.05767773  0.45587997  0.86345730  1
  O  O67  1  0.55784984  0.45552130  0.86308301  1
  O  O68  1  0.16909878  0.88616128  0.86308719  1
  O  O69  1  0.66939876  0.88723162  0.86324632  1
  O  O70  1  0.27047168  0.65916351  0.86753638  1
  O  O71  1  0.77350825  0.65723723  0.86370530  1
  O  O72  1  0.00912848  0.82161650  0.41692952  1
  O  O73  1  0.51013141  0.81602955  0.40944023  1
  O  O74  1  0.40034430  0.96713070  0.41584690  1
  O  O75  1  0.89467058  0.97529903  0.41201639  1
  O  O76  1  0.09478631  0.19853518  0.41491833  1
  O  O77  1  0.59016783  0.20705298  0.41030875  1
  O  O78  1  0.01070363  0.18185280  0.90922303  1
  O  O79  1  0.51121346  0.18231817  0.90943999  1
  O  O80  1  0.07843338  0.98375913  0.90532419  1
  O  O81  1  0.57867971  0.98341904  0.90608496  1
  O  O82  1  0.41008631  0.83534873  0.90971792  1
  O  O83  1  0.91095972  0.83595173  0.90882761  1
  O  O84  1  0.48494096  0.17896170  0.58846811  1
  O  O85  1  0.98401939  0.17915894  0.58880546  1
  O  O86  1  0.10465294  0.02057689  0.59037947  1
  O  O87  1  0.60463030  0.02181546  0.58884777  1
  O  O88  1  0.41008874  0.79282657  0.58794244  1
  O  O89  1  0.90924610  0.79032555  0.58909465  1
  O  O90  1  0.48591231  0.80023200  0.08691170  1
  O  O91  1  0.99428906  0.82378197  0.09131002  1
  O  O92  1  0.40784512  0.00421080  0.08683016  1
  O  O93  1  0.92001629  0.02100921  0.08845011  1
  O  O94  1  0.08969573  0.16987935  0.09414513  1
  O  O95  1  0.59655528  0.18116123  0.08464164  1
  O  O96  1  0.34476576  0.18341318  0.74559879  1
  O  O97  1  0.84446611  0.18408175  0.74527777  1
  O  O98  1  0.23884619  0.31387623  0.74567629  1
  O  O99  1  0.73870722  0.31372014  0.74551441  1
  O  O100  1  0.41251357  0.53057420  0.74566690  1
  O  O101  1  0.91292396  0.53101153  0.74582164  1
  O  O102  1  0.34017096  0.52671540  0.24797180  1
  O  O103  1  0.83454224  0.51096711  0.24455235  1
  O  O104  1  0.43087018  0.33436391  0.24843746  1
  O  O105  1  0.92587110  0.31444811  0.24230444  1
  O  O106  1  0.22991301  0.14228866  0.24056740  1
  O  O107  1  0.73453394  0.14168687  0.24822921  1
  O  O108  1  0.33482346  0.52818622  0.91990577  1
  O  O109  1  0.83586016  0.52924679  0.91965648  1
  O  O110  1  0.43001783  0.32906002  0.91791443  1
  O  O111  1  0.93004247  0.32940516  0.91851466  1
  O  O112  1  0.23216383  0.14131542  0.91726297  1
  O  O113  1  0.73292092  0.14137666  0.91845437  1
  O  O114  1  0.32996955  0.13487911  0.41971324  1
  O  O115  1  0.81706854  0.12602907  0.41657922  1
  O  O116  1  0.24904930  0.36328175  0.41901256  1
  O  O117  1  0.74279196  0.36121703  0.41429356  1
  O  O118  1  0.43559005  0.51524796  0.41421771  1
  O  O119  1  0.93163668  0.51410691  0.41708425  1
  O  O120  1  0.17084938  0.47961301  0.08039050  1
  O  O121  1  0.67365052  0.48808812  0.07992539  1
  O  O122  1  0.07135479  0.66996660  0.08190153  1
  O  O123  1  0.56849736  0.65734227  0.07821856  1
  O  O124  1  0.25707415  0.85082075  0.08014550  1
  O  O125  1  0.76520520  0.85891919  0.08018799  1
  O  O126  1  0.18763016  0.87901463  0.58416755  1
  O  O127  1  0.68773237  0.88036650  0.58303216  1
  O  O128  1  0.25859945  0.64516820  0.58461136  1
  O  O129  1  0.75798465  0.64392209  0.58583381  1
  O  O130  1  0.06185636  0.48479580  0.58371723  1
  O  O131  1  0.56300432  0.48518709  0.58395475  1
  O  O132  1  0.14536265  0.83683873  0.24860604  1
  O  O133  1  0.65644058  0.83382640  0.26010977  1
  O  O134  1  0.26433145  0.68282904  0.25157782  1
  O  O135  1  0.75160116  0.67678303  0.25754722  1
  O  O136  1  0.07625615  0.46900000  0.24804186  1
  O  O137  1  0.58483054  0.48404065  0.25999687  1
  O  O138  1  0.15885057  0.45895175  0.75663666  1
  O  O139  1  0.65875723  0.45911073  0.75651578  1
  O  O140  1  0.06517568  0.66594643  0.75691145  1
  O  O141  1  0.56493267  0.66532434  0.75694278  1
  O  O142  1  0.25789765  0.84275627  0.75245365  1
  O  O143  1  0.75746972  0.84364939  0.75236017  1
loop_
_geom_bond_atom_site_label_1
_geom_bond_atom_site_label_2
_geom_bond_distance
_geom_bond_site_symmetry_2
Na0 O103 2.323412 1_555
Na0 O135 2.468901 1_555
Na0 O137 2.607080 1_555
Na0 O107 2.619066 1_555
Na0 O35 2.634587 1_555
Na0 O21 2.839552 1_555
Na0 O65 2.962694 1_555
Na1 O132 2.500305 1_655
Na1 O103 2.503849 1_555
Na1 O105 2.586685 1_555
Na1 O136 2.687651 1_655
Na1 O3 2.705644 1_555
Na1 O60 2.789345 1_655
Na1 O31 2.812562 1_555
Na2 O12 2.314669 1_555
Na2 O126 2.421992 1_555
Na2 O84 2.467889 1_565
Na2 O128 2.540173 1_555
Na2 O88 2.551654 1_555
Na3 O13 2.306499 1_555
Na3 O85 2.436197 1_565
Na3 O127 2.443161 1_555
Na3 O89 2.554197 1_555
Na3 O129 2.561850 1_555
Na4 O124 2.450329 1_555
Na4 O90 2.451873 1_555
Na4 O92 2.453998 1_565
Na4 O120 2.641501 1_555
Na4 O48 2.785950 1_554
Na5 O116 2.428570 1_555
Na5 O74 2.432363 1_555
Na5 O118 2.620400 1_555
Na5 O73 2.624577 1_555
Na5 O2 2.798453 1_555
Na6 O72 2.461738 1_555
Na6 O76 2.572635 1_565
Na6 O86 2.805630 1_565
Na6 O75 2.808538 1_455
Na6 O89 2.907460 1_455
Na6 O85 2.952884 1_465
Na7 O77 2.679139 1_555
Na7 O87 2.679574 1_555
Na7 O74 2.745243 1_545
Na7 O84 2.746445 1_555
Na7 O73 2.839206 1_545
Na7 O88 2.865053 1_545
Na8 O83 2.627653 1_555
Na8 O78 2.632019 1_665
Na8 O93 2.653074 1_566
Na8 O80 2.687146 1_655
Na8 O91 2.711234 1_556
Na8 O94 2.807301 1_666
Na9 O95 2.554807 1_556
Na9 O79 2.606062 1_555
Na9 O81 2.644141 1_545
Na9 O90 2.756143 1_546
Na9 O82 2.760916 1_545
Na9 O92 2.761391 1_556
Na10 O96 2.518581 1_555
Na10 O110 2.619543 1_555
Na10 O112 2.651299 1_555
Na10 O98 2.721610 1_555
Na10 O100 2.725444 1_555
Na10 O108 2.778427 1_555
Na11 O97 2.529945 1_555
Na11 O111 2.636821 1_555
Na11 O113 2.658894 1_555
Na11 O99 2.719109 1_555
Na11 O101 2.730092 1_555
Na11 O109 2.764187 1_555
Na12 O102 2.628124 1_555
Na12 O104 2.630485 1_555
Na12 O116 2.732139 1_555
Na12 O106 2.738836 1_555
Na12 O114 2.748153 1_555
Na12 O118 2.750922 1_555
Na13 O119 2.599426 1_555
Na13 O103 2.614914 1_555
Na13 O117 2.652999 1_555
Na13 O115 2.700299 1_555
Na13 O107 2.747104 1_555
Na13 O105 2.792968 1_555
Na14 O124 2.607496 1_555
Na14 O122 2.644747 1_555
Na14 O136 2.645627 1_555
Na14 O132 2.660082 1_555
Na14 O134 2.678976 1_555
Na14 O120 2.686456 1_555
Na15 O125 2.537443 1_555
Na15 O121 2.583657 1_555
Na15 O123 2.639249 1_555
Na15 O135 2.754291 1_555
Na15 O133 2.872103 1_555
Na15 O137 2.920986 1_555
Na16 O142 2.364676 1_555
Na16 O138 2.638101 1_555
Na16 O140 2.669862 1_555
Na16 O126 2.831319 1_555
Na16 O128 2.833873 1_555
Na16 O130 2.933420 1_555
Na17 O143 2.334921 1_555
Na17 O139 2.619745 1_555
Na17 O141 2.676661 1_555
Na17 O129 2.808850 1_555
Na17 O127 2.875459 1_555
Na17 O131 2.949126 1_555
Ca0 O3 2.117745 1_555
Ca0 O0 2.272483 1_665
Ca0 O5 2.277865 1_565
Ca0 O72 2.312929 1_655
Ca0 O75 2.315695 1_555
Ca0 O76 2.365311 1_665
Ca1 O4 2.215597 1_555
Ca1 O1 2.233773 1_555
Ca1 O2 2.257606 1_545
Ca1 O77 2.312711 1_555
Ca1 O73 2.316894 1_545
Ca1 O74 2.317369 1_545
Ca2 O13 2.134936 1_445
Ca2 O16 2.222963 1_545
Ca2 O14 2.223080 1_555
Ca2 O86 2.346808 1_555
Ca2 O85 2.347436 1_455
Ca2 O89 2.354819 1_445
Ca3 O12 2.135144 1_555
Ca3 O17 2.215873 1_555
Ca3 O15 2.217363 1_565
Ca3 O84 2.354920 1_565
Ca3 O88 2.362925 1_555
Ca3 O87 2.364479 1_565
Ca4 O95 2.280527 1_555
Ca4 O18 2.298163 1_545
Ca4 O23 2.314689 1_545
Ca4 O92 2.323201 1_555
Ca4 O90 2.326865 1_545
Ca4 O21 2.351014 1_555
Ca5 O30 2.230956 1_555
Ca5 O32 2.269590 1_555
Ca5 O34 2.274785 1_555
Ca5 O106 2.306337 1_555
Ca5 O102 2.341248 1_555
Ca5 O104 2.348794 1_555
Ca6 O103 2.247284 1_555
Ca6 O33 2.255196 1_555
Ca6 O35 2.258799 1_555
Ca6 O31 2.296459 1_555
Ca6 O105 2.328149 1_555
Ca6 O107 2.398107 1_555
Ca7 O40 2.267668 1_556
Ca7 O38 2.285733 1_556
Ca7 O112 2.339528 1_555
Ca7 O108 2.343062 1_555
Ca7 O110 2.364202 1_555
Ca7 O36 2.391729 1_556
Ca8 O37 2.259508 1_556
Ca8 O41 2.333288 1_556
Ca8 O109 2.334190 1_555
Ca8 O111 2.354124 1_555
Ca8 O39 2.380574 1_556
Ca8 O113 2.393548 1_555
Ca9 O46 2.208173 1_555
Ca9 O42 2.223808 1_555
Ca9 O114 2.267167 1_555
Ca9 O116 2.271326 1_555
Ca9 O44 2.281482 1_555
Ca9 O118 2.396304 1_555
Ca10 O45 2.248493 1_555
Ca10 O119 2.249745 1_555
Ca10 O47 2.257643 1_555
Ca10 O43 2.263052 1_555
Ca10 O115 2.329068 1_555
Ca10 O117 2.341706 1_555
Ca11 O50 2.291741 1_554
Ca11 O52 2.317914 1_554
Ca11 O122 2.352127 1_555
Ca11 O124 2.369843 1_555
Ca11 O48 2.411281 1_554
Ca11 O120 2.445333 1_555
Ca12 O51 2.329194 1_554
Ca12 O49 2.334186 1_554
Ca12 O121 2.338684 1_555
Ca12 O123 2.352146 1_555
Ca12 O53 2.369179 1_554
Ca12 O125 2.397298 1_555
Ca13 O58 2.204318 1_555
Ca13 O56 2.243657 1_555
Ca13 O130 2.304320 1_555
Ca13 O54 2.326038 1_555
Ca13 O126 2.392331 1_555
Ca13 O128 2.426545 1_555
Ca14 O57 2.242015 1_555
Ca14 O59 2.268785 1_555
Ca14 O55 2.278522 1_555
Ca14 O131 2.299006 1_555
Ca14 O127 2.363318 1_555
Ca14 O129 2.374122 1_555
Ca15 O64 2.244250 1_555
Ca15 O62 2.261396 1_555
Ca15 O60 2.278961 1_555
Ca15 O134 2.287327 1_555
Ca15 O136 2.371932 1_555
Ca15 O132 2.388345 1_555
Ca16 O142 2.172632 1_555
Ca16 O68 2.257189 1_555
Ca16 O70 2.262398 1_555
Ca16 O66 2.337861 1_555
Ca16 O138 2.345098 1_555
Ca16 O140 2.354795 1_555
Ca17 O143 2.173861 1_555
Ca17 O69 2.260368 1_555
Ca17 O71 2.262895 1_555
Ca17 O67 2.336138 1_555
Ca17 O139 2.351115 1_555
Ca17 O141 2.364077 1_555
O0 S0 1.464345 1_545
O1 S1 1.470504 1_545
O2 S2 1.495490 1_555
O3 Si0 1.586776 1_555
O4 S4 1.464645 1_555
O5 S3 1.463324 1_655
O6 S5 1.512648 1_555
O6 Sn0 2.236897 1_455
O7 S6 1.514323 1_555
O7 Sn1 2.230893 1_555
O8 S8 1.508703 1_555
O8 Sn1 2.223053 1_565
O9 S7 1.510472 1_555
O9 Sn0 2.208701 1_565
O10 Si1 1.704064 1_555
O10 Sn1 1.969759 1_555
O11 Si2 1.704317 1_555
O11 Sn0 1.967455 1_555
O12 Si1 1.606910 1_565
O13 Si2 1.606008 1_565
O14 S5 1.457556 1_555
O15 S6 1.458508 1_555
O16 S7 1.457958 1_455
O17 S8 1.458405 1_555
O18 S2 1.483321 1_555
O19 Si0 1.682410 1_555
O19 Sn2 1.982992 1_555
O20 S3 1.522536 1_555
O20 Sn2 2.123493 1_445
O21 S4 1.477889 1_555
O22 S0 1.531421 1_555
O22 Sn2 2.133232 1_455
O23 S1 1.464566 1_555
O24 S9 1.516351 1_555
O24 Sn3 2.143157 1_555
O25 S10 1.523925 1_555
O25 Sn4 2.125074 1_555
O26 S11 1.529174 1_555
O26 Sn3 2.138667 1_555
O27 S12 1.525350 1_555
O27 Sn4 2.153407 1_555
O28 S13 1.522518 1_555
O28 Sn3 2.184091 1_555
O29 S14 1.527453 1_555
O29 Sn4 2.153746 1_555
O30 S15 1.477997 1_555
O31 S16 1.477767 1_555
O32 S17 1.471859 1_555
O33 S18 1.465569 1_555
O34 S19 1.474193 1_555
O35 S20 1.496749 1_555
O36 S19 1.470790 1_555
O37 S20 1.472584 1_555
O38 S15 1.482677 1_555
O39 S16 1.466217 1_555
O40 S17 1.466993 1_555
O41 S18 1.466924 1_555
O42 S11 1.461629 1_555
O43 S12 1.462224 1_555
O44 S13 1.469891 1_555
O45 S14 1.455989 1_555
O46 S9 1.465323 1_555
O47 S10 1.467525 1_555
O48 S21 1.488863 1_555
O49 S22 1.470851 1_555
O50 S23 1.474552 1_555
O51 S24 1.471490 1_555
O52 S25 1.474986 1_555
O53 S26 1.472818 1_555
O54 S27 1.488299 1_555
O55 S28 1.470982 1_555
O56 S29 1.475138 1_555
O57 S30 1.463605 1_555
O58 S31 1.476800 1_555
O59 S32 1.462090 1_555
O60 S31 1.487024 1_555
O61 S32 1.520953 1_555
O61 Sn5 2.151792 1_555
O62 S27 1.470584 1_555
O63 S28 1.534391 1_555
O63 Sn5 2.056682 1_555
O64 S29 1.475642 1_555
O65 S30 1.539209 1_555
O65 Sn5 2.109103 1_555
O66 S23 1.462975 1_555
O67 S24 1.462930 1_555
O68 S25 1.462332 1_555
O69 S26 1.461501 1_555
O70 S21 1.463319 1_555
O71 S22 1.462519 1_555
O72 S31 1.485998 1_555
O73 S32 1.486891 1_555
O74 S27 1.508747 1_555
O75 S28 1.468492 1_555
O76 S29 1.478123 1_555
O77 S30 1.474385 1_555
O78 S23 1.547531 1_555
O78 Sn0 2.138788 1_455
O79 S24 1.554546 1_555
O79 Sn1 2.127949 1_555
O80 S25 1.547327 1_555
O80 Sn0 2.152528 1_465
O81 S26 1.556843 1_555
O81 Sn1 2.151346 1_565
O82 S21 1.541012 1_555
O82 Sn1 2.160486 1_565
O83 S22 1.550812 1_555
O83 Sn0 2.135714 1_565
O84 S9 1.487737 1_555
O85 S10 1.486442 1_555
O86 S11 1.466633 1_555
O87 S12 1.470139 1_555
O88 S13 1.486822 1_555
O89 S14 1.483973 1_555
O90 S15 1.504368 1_555
O91 S16 1.544450 1_555
O91 Sn2 2.141358 1_555
O92 S17 1.501284 1_555
O93 S18 1.551983 1_555
O93 Sn2 2.103491 1_545
O94 S19 1.527180 1_555
O94 Sn2 2.220637 1_445
O95 S20 1.490550 1_555
O96 Si1 1.719874 1_555
O96 Sn3 1.977078 1_555
O97 Si2 1.717745 1_555
O97 Sn4 1.975915 1_555
O98 S5 1.531079 1_555
O98 Sn3 2.161115 1_555
O99 S6 1.527661 1_555
O99 Sn4 2.167776 1_555
O100 S8 1.533962 1_555
O100 Sn3 2.155119 1_555
O101 S7 1.529264 1_555
O101 Sn4 2.160530 1_555
O102 S2 1.484937 1_555
O103 Si0 1.640630 1_555
O104 S4 1.464852 1_555
O105 S3 1.481488 1_655
O106 S0 1.464776 1_545
O107 S1 1.480351 1_545
O108 S21 1.473997 1_555
O109 S22 1.477480 1_555
O110 S24 1.480051 1_555
O111 S23 1.479692 1_655
O112 S25 1.476892 1_545
O113 S26 1.479951 1_545
O114 S27 1.477021 1_545
O115 S28 1.473482 1_545
O116 S29 1.509937 1_555
O117 S30 1.472210 1_555
O118 S32 1.488252 1_555
O119 S31 1.488640 1_655
O120 S19 1.498135 1_555
O121 S20 1.485105 1_555
O122 S16 1.478738 1_455
O123 S15 1.480358 1_555
O124 S17 1.508901 1_565
O125 S18 1.475779 1_565
O126 S11 1.493964 1_565
O127 S12 1.496906 1_565
O128 S13 1.489992 1_555
O129 S14 1.494988 1_555
O130 S10 1.469771 1_455
O131 S9 1.471744 1_555
O132 S0 1.494131 1_555
O133 S1 1.525316 1_555
O133 Sn5 2.100435 1_555
O134 S2 1.486572 1_555
O135 Si0 1.704156 1_555
O135 Sn5 2.010809 1_555
O136 S3 1.486697 1_555
O137 S4 1.540501 1_555
O137 Sn5 2.152085 1_555
O138 S5 1.460570 1_555
O139 S6 1.460263 1_555
O140 S7 1.460329 1_455
O141 S8 1.458814 1_555
O142 Si1 1.605034 1_565
O143 Si2 1.604511 1_565
