# generated using pymatgen
data_HoIn5Co
_symmetry_space_group_name_H-M   'P 1'
_cell_length_a   4.53717186
_cell_length_b   4.53717186
_cell_length_c   7.42624961
_cell_angle_alpha   90.00000000
_cell_angle_beta   90.00000000
_cell_angle_gamma   90.00000000
_symmetry_Int_Tables_number   1
_chemical_formula_structural   HoIn5Co
_chemical_formula_sum   'Ho1 In5 Co1'
_cell_volume   152.87624340
_cell_formula_units_Z   1
loop_
 _symmetry_equiv_pos_site_id
 _symmetry_equiv_pos_as_xyz
  1  'x, y, z'
loop_
 _atom_site_type_symbol
 _atom_site_label
 _atom_site_symmetry_multiplicity
 _atom_site_fract_x
 _atom_site_fract_y
 _atom_site_fract_z
 _atom_site_occupancy
  Ho  Ho0  1  -0.00000000  -0.00000000  0.00000000  1
  In  In0  1  0.00000000  0.50000000  0.30650997  1
  In  In1  1  0.50000000  0.50000000  0.00000000  1
  In  In2  1  0.50000000  0.00000000  0.30650997  1
  In  In3  1  -0.00000000  0.50000000  0.69349003  1
  In  In4  1  0.50000000  -0.00000000  0.69349003  1
  Co  Co0  1  -0.00000000  -0.00000000  0.50000000  1
loop_
_geom_bond_atom_site_label_1
_geom_bond_atom_site_label_2
_geom_bond_distance
_geom_bond_site_symmetry_2
Ho0 In1 3.208265 1_455
Ho0 In1 3.208265 1_545
Ho0 In1 3.208265 1_445
Ho0 In1 3.208265 1_555
Ho0 In0 3.213667 1_545
Ho0 In2 3.213667 1_455
Ho0 In2 3.213667 1_555
Ho0 In3 3.213667 1_554
Ho0 In4 3.213667 1_554
Ho0 In3 3.213667 1_544
Ho0 In0 3.213667 1_555
Ho0 In4 3.213667 1_454
In0 In3 2.873811 1_555
In0 In2 3.208265 1_565
In0 In2 3.208265 1_455
In0 In2 3.208265 1_555
In0 In2 3.208265 1_465
In0 In1 3.213667 1_555
In0 In1 3.213667 1_455
In1 In4 3.213667 1_564
In1 In2 3.213667 1_555
In1 In3 3.213667 1_554
In1 In4 3.213667 1_554
In1 In2 3.213667 1_565
In1 In3 3.213667 1_654
In2 In4 2.873811 1_555
In3 In4 3.208265 1_455
In3 In4 3.208265 1_555
In3 In4 3.208265 1_565
In3 In4 3.208265 1_465
Co0 In4 2.685364 1_455
Co0 In0 2.685364 1_545
Co0 In4 2.685364 1_555
Co0 In2 2.685364 1_455
Co0 In2 2.685364 1_555
Co0 In3 2.685364 1_555
Co0 In0 2.685364 1_555
Co0 In3 2.685364 1_545
