# generated using pymatgen
data_Ta2Zn4(SO4)9
_symmetry_space_group_name_H-M   'P 1'
_cell_length_a   8.72027910
_cell_length_b   8.72027882
_cell_length_c   22.53123844
_cell_angle_alpha   90.00000000
_cell_angle_beta   90.00000000
_cell_angle_gamma   120.00000105
_symmetry_Int_Tables_number   1
_chemical_formula_structural   Ta2Zn4(SO4)9
_chemical_formula_sum   'Ta4 Zn8 S18 O72'
_cell_volume   1483.80369143
_cell_formula_units_Z   2
loop_
 _symmetry_equiv_pos_site_id
 _symmetry_equiv_pos_as_xyz
  1  'x, y, z'
loop_
 _atom_site_type_symbol
 _atom_site_label
 _atom_site_symmetry_multiplicity
 _atom_site_fract_x
 _atom_site_fract_y
 _atom_site_fract_z
 _atom_site_occupancy
  Ta  Ta0  1  0.66666700  0.33333300  0.98108107  1
  Ta  Ta1  1  0.66666700  0.33333300  0.48108107  1
  Ta  Ta2  1  0.33333300  0.66666700  0.30942681  1
  Ta  Ta3  1  0.33333300  0.66666700  0.80942681  1
  Zn  Zn0  1  0.00000000  -0.00000000  0.35161278  1
  Zn  Zn1  1  0.00000000  -0.00000000  0.85161278  1
  Zn  Zn2  1  0.00000000  0.00000000  0.64462915  1
  Zn  Zn3  1  0.00000000  0.00000000  0.14462915  1
  Zn  Zn4  1  0.66666700  0.33333300  0.68684128  1
  Zn  Zn5  1  0.66666700  0.33333300  0.18684128  1
  Zn  Zn6  1  0.33333300  0.66666700  0.02236231  1
  Zn  Zn7  1  0.33333300  0.66666700  0.52236231  1
  S  S0  1  0.29129300  0.00607423  0.25018058  1
  S  S1  1  0.71478123  0.70870700  0.25018058  1
  S  S2  1  0.99392577  0.28521877  0.25018058  1
  S  S3  1  0.29129300  0.28521877  0.75018058  1
  S  S4  1  0.99392577  0.70870700  0.75018058  1
  S  S5  1  0.71478123  0.00607423  0.75018058  1
  S  S6  1  0.95971011  0.33408101  0.58517856  1
  S  S7  1  0.37437191  0.04028989  0.58517856  1
  S  S8  1  0.66591899  0.62562809  0.58517856  1
  S  S9  1  0.95971011  0.62562809  0.08517856  1
  S  S10  1  0.66591899  0.04028989  0.08517856  1
  S  S11  1  0.37437191  0.33408101  0.08517856  1
  S  S12  1  0.62408344  0.66977421  0.91761612  1
  S  S13  1  0.04568978  0.37591656  0.91761612  1
  S  S14  1  0.33022579  0.95431022  0.91761612  1
  S  S15  1  0.62408344  0.95431022  0.41761612  1
  S  S16  1  0.33022579  0.37591656  0.41761612  1
  S  S17  1  0.04568978  0.66977421  0.41761612  1
  O  O0  1  0.21378180  0.02954272  0.30426290  1
  O  O1  1  0.81576092  0.78621820  0.30426290  1
  O  O2  1  0.97045728  0.18423908  0.30426290  1
  O  O3  1  0.21378180  0.18423908  0.80426290  1
  O  O4  1  0.97045728  0.78621820  0.80426290  1
  O  O5  1  0.81576092  0.02954272  0.80426290  1
  O  O6  1  0.77945185  0.95915742  0.69750467  1
  O  O7  1  0.17970557  0.22054815  0.69750467  1
  O  O8  1  0.04084258  0.82029443  0.69750467  1
  O  O9  1  0.77945185  0.82029443  0.19750467  1
  O  O10  1  0.04084258  0.22054815  0.19750467  1
  O  O11  1  0.17970557  0.95915742  0.19750467  1
  O  O12  1  0.87692313  0.36436425  0.63644883  1
  O  O13  1  0.48744212  0.12307687  0.63644883  1
  O  O14  1  0.63563575  0.51255788  0.63644883  1
  O  O15  1  0.87692313  0.51255788  0.13644883  1
  O  O16  1  0.63563575  0.12307687  0.13644883  1
  O  O17  1  0.48744212  0.36436425  0.13644883  1
  O  O18  1  0.47234942  0.30935427  0.02916130  1
  O  O19  1  0.83700585  0.52765058  0.02916130  1
  O  O20  1  0.69064573  0.16299415  0.02916130  1
  O  O21  1  0.47234942  0.16299415  0.52916130  1
  O  O22  1  0.69064573  0.52765058  0.52916130  1
  O  O23  1  0.83700585  0.30935427  0.52916130  1
  O  O24  1  0.54290597  0.69503002  0.96990583  1
  O  O25  1  0.15212305  0.45709403  0.96990583  1
  O  O26  1  0.30496998  0.84787695  0.96990583  1
  O  O27  1  0.54290597  0.84787695  0.46990583  1
  O  O28  1  0.30496998  0.45709403  0.46990583  1
  O  O29  1  0.15212305  0.69503002  0.46990583  1
  O  O30  1  0.12943376  0.63517578  0.36367768  1
  O  O31  1  0.50574102  0.87056624  0.36367768  1
  O  O32  1  0.36482422  0.49425898  0.36367768  1
  O  O33  1  0.12943376  0.49425898  0.86367768  1
  O  O34  1  0.36482422  0.87056624  0.86367768  1
  O  O35  1  0.50574102  0.63517578  0.86367768  1
  O  O36  1  0.01916791  0.81789518  0.40677654  1
  O  O37  1  0.79872727  0.98083209  0.40677654  1
  O  O38  1  0.18210482  0.20127273  0.40677654  1
  O  O39  1  0.01916791  0.20127273  0.90677654  1
  O  O40  1  0.18210482  0.98083209  0.90677654  1
  O  O41  1  0.79872727  0.81789518  0.90677654  1
  O  O42  1  0.96658485  0.17107473  0.58743864  1
  O  O43  1  0.20448988  0.03341515  0.58743864  1
  O  O44  1  0.82892527  0.79551012  0.58743864  1
  O  O45  1  0.96658485  0.79551012  0.08743864  1
  O  O46  1  0.82892527  0.03341515  0.08743864  1
  O  O47  1  0.20448988  0.17107473  0.08743864  1
  O  O48  1  0.68108437  0.15208050  0.74278993  1
  O  O49  1  0.47099713  0.31891563  0.74278993  1
  O  O50  1  0.84791950  0.52900287  0.74278993  1
  O  O51  1  0.68108437  0.52900287  0.24278993  1
  O  O52  1  0.84791950  0.31891563  0.24278993  1
  O  O53  1  0.47099713  0.15208050  0.24278993  1
  O  O54  1  0.63610229  0.50243867  0.92495750  1
  O  O55  1  0.86633738  0.36389771  0.92495750  1
  O  O56  1  0.49756133  0.13366262  0.92495750  1
  O  O57  1  0.63610229  0.13366262  0.42495750  1
  O  O58  1  0.49756133  0.36389771  0.42495750  1
  O  O59  1  0.86633738  0.50243867  0.42495750  1
  O  O60  1  0.36103197  0.49038395  0.07317237  1
  O  O61  1  0.12935099  0.63896803  0.07317237  1
  O  O62  1  0.50961605  0.87064901  0.07317237  1
  O  O63  1  0.36103197  0.87064901  0.57317237  1
  O  O64  1  0.50961605  0.63896803  0.57317237  1
  O  O65  1  0.12935099  0.49038395  0.57317237  1
  O  O66  1  0.30986134  0.83721520  0.26227742  1
  O  O67  1  0.52735286  0.69013866  0.26227742  1
  O  O68  1  0.16278480  0.47264714  0.26227742  1
  O  O69  1  0.30986134  0.47264714  0.76227742  1
  O  O70  1  0.16278480  0.69013866  0.76227742  1
  O  O71  1  0.52735286  0.83721520  0.76227742  1
loop_
_geom_bond_atom_site_label_1
_geom_bond_atom_site_label_2
_geom_bond_distance
_geom_bond_site_symmetry_2
O0 S0 1.456682 1_555
O0 Zn0 2.049306 1_555
O1 S1 1.456682 1_555
O1 Zn0 2.049306 1_665
O2 S2 1.456682 1_555
O2 Zn0 2.049306 1_655
O3 S3 1.456682 1_555
O3 Zn1 2.049306 1_555
O4 S4 1.456682 1_555
O4 Zn1 2.049306 1_665
O5 S5 1.456682 1_555
O5 Zn1 2.049306 1_655
O6 S5 1.457658 1_565
O6 Zn2 2.135426 1_665
O7 S3 1.457658 1_555
O7 Zn2 2.135426 1_555
O8 S4 1.457658 1_455
O8 Zn2 2.135426 1_565
O9 S1 1.457658 1_555
O9 Zn3 2.135426 1_665
O10 S2 1.457658 1_455
O10 Zn3 2.135426 1_555
O11 S0 1.457658 1_565
O11 Zn3 2.135426 1_565
O12 S6 1.454650 1_555
O12 Zn4 2.056190 1_555
O13 S7 1.454650 1_555
O13 Zn4 2.056190 1_555
O14 S8 1.454650 1_555
O14 Zn4 2.056190 1_555
O15 S9 1.454650 1_555
O15 Zn5 2.056190 1_555
O16 S10 1.454650 1_555
O16 Zn5 2.056190 1_555
O17 S11 1.454650 1_555
O17 Zn5 2.056190 1_555
O18 S11 1.598030 1_555
O18 Ta0 1.932433 1_554
O19 S9 1.598030 1_555
O19 Ta0 1.932433 1_554
O20 S10 1.598030 1_555
O20 Ta0 1.932433 1_554
O21 S7 1.598030 1_555
O21 Ta1 1.932433 1_555
O22 S8 1.598030 1_555
O22 Ta1 1.932433 1_555
O23 S6 1.598030 1_555
O23 Ta1 1.932433 1_555
O24 S12 1.446914 1_555
O24 Zn6 2.084696 1_556
O25 S13 1.446914 1_555
O25 Zn6 2.084696 1_556
O26 S14 1.446914 1_555
O26 Zn6 2.084696 1_556
O27 S15 1.446914 1_555
O27 Zn7 2.084696 1_555
O28 S16 1.446914 1_555
O28 Zn7 2.084696 1_555
O29 S17 1.446914 1_555
O29 Zn7 2.084696 1_555
O30 S17 1.523682 1_555
O30 Ta2 2.059791 1_555
O31 S15 1.523682 1_555
O31 Ta2 2.059791 1_555
O32 S16 1.523682 1_555
O32 Ta2 2.059791 1_555
O33 S13 1.523682 1_555
O33 Ta3 2.059791 1_555
O34 S14 1.523682 1_555
O34 Ta3 2.059791 1_555
O35 S12 1.523682 1_555
O35 Ta3 2.059791 1_555
O36 S17 1.442305 1_555
O36 Zn0 2.088050 1_565
O37 S15 1.442314 1_555
O37 Zn0 2.088050 1_665
O38 S16 1.442311 1_555
O38 Zn0 2.088050 1_555
O39 S13 1.442314 1_555
O39 Zn1 2.088050 1_555
O40 S14 1.442305 1_555
O40 Zn1 2.088050 1_565
O41 S12 1.442311 1_555
O41 Zn1 2.088050 1_665
O42 S6 1.453256 1_555
O42 Zn2 2.098941 1_655
O43 S7 1.453265 1_555
O43 Zn2 2.098941 1_555
O44 S8 1.453260 1_555
O44 Zn2 2.098941 1_665
O45 S9 1.453265 1_555
O45 Zn3 2.098941 1_665
O46 S10 1.453256 1_555
O46 Zn3 2.098941 1_655
O47 S11 1.453260 1_555
O47 Zn3 2.098941 1_555
O48 S5 1.452336 1_555
O48 Zn4 2.074084 1_555
O49 S3 1.452345 1_555
O49 Zn4 2.074084 1_555
O50 S4 1.452342 1_555
O50 Zn4 2.074084 1_555
O51 S1 1.452345 1_555
O51 Zn5 2.074084 1_555
O52 S2 1.452337 1_555
O52 Zn5 2.074084 1_555
O53 S0 1.452342 1_555
O53 Zn5 2.074084 1_555
O54 S12 1.523346 1_555
O54 Ta0 2.058571 1_555
O55 S13 1.523329 1_655
O55 Ta0 2.058571 1_555
O56 S14 1.523337 1_545
O56 Ta0 2.058571 1_555
O57 S15 1.523329 1_545
O57 Ta1 2.058571 1_555
O58 S16 1.523346 1_555
O58 Ta1 2.058571 1_555
O59 S17 1.523337 1_655
O59 Ta1 2.058571 1_555
O60 S11 1.450189 1_555
O60 Zn6 2.025672 1_555
O61 S9 1.450172 1_455
O61 Zn6 2.025672 1_555
O62 S10 1.450180 1_565
O62 Zn6 2.025672 1_555
O63 S7 1.450172 1_565
O63 Zn7 2.025672 1_555
O64 S8 1.450189 1_555
O64 Zn7 2.025672 1_555
O65 S6 1.450180 1_455
O65 Zn7 2.025672 1_555
O66 S0 1.583409 1_565
O66 Ta2 1.920078 1_555
O67 S1 1.583418 1_555
O67 Ta2 1.920078 1_555
O68 S2 1.583414 1_455
O68 Ta2 1.920078 1_555
O69 S3 1.583418 1_555
O69 Ta3 1.920078 1_555
O70 S4 1.583409 1_455
O70 Ta3 1.920078 1_555
O71 S5 1.583414 1_565
O71 Ta3 1.920078 1_555
