# generated using pymatgen
data_Cd(FeO2)2
_symmetry_space_group_name_H-M   'P 1'
_cell_length_a   6.01859183
_cell_length_b   6.31905715
_cell_length_c   6.31611535
_cell_angle_alpha   56.93513206
_cell_angle_beta   61.50486157
_cell_angle_gamma   61.46340942
_symmetry_Int_Tables_number   1
_chemical_formula_structural   Cd(FeO2)2
_chemical_formula_sum   'Cd2 Fe4 O8'
_cell_volume   169.03937463
_cell_formula_units_Z   2
loop_
 _symmetry_equiv_pos_site_id
 _symmetry_equiv_pos_as_xyz
  1  'x, y, z'
loop_
 _atom_site_type_symbol
 _atom_site_label
 _atom_site_symmetry_multiplicity
 _atom_site_fract_x
 _atom_site_fract_y
 _atom_site_fract_z
 _atom_site_occupancy
  Cd  Cd0  1  0.12579400  0.12492100  0.12554200  1
  Cd  Cd1  1  0.87423400  0.87507200  0.87443700  1
  Fe  Fe0  1  0.49999900  0.00015000  0.49990000  1
  Fe  Fe1  1  0.00015400  0.49997700  0.49998700  1
  Fe  Fe2  1  0.49998600  0.49991000  0.00014500  1
  Fe  Fe3  1  0.49992900  0.49997900  0.49996400  1
  O  O0  1  0.72815400  0.73238200  0.73437500  1
  O  O1  1  0.26657700  0.27132800  0.69561000  1
  O  O2  1  0.26671200  0.69519800  0.27148200  1
  O  O3  1  0.69539400  0.26628000  0.26738100  1
  O  O4  1  0.73325200  0.30475700  0.72857100  1
  O  O5  1  0.30455800  0.73370600  0.73263200  1
  O  O6  1  0.27187100  0.26762600  0.26561800  1
  O  O7  1  0.73338400  0.72871300  0.30435700  1
loop_
_geom_bond_atom_site_label_1
_geom_bond_atom_site_label_2
_geom_bond_distance
_geom_bond_site_symmetry_2
Cd0 O6 2.176952 1_555
Cd0 O2 2.181035 1_545
Cd0 O3 2.181465 1_455
Cd0 O1 2.181746 1_554
Cd1 O0 2.176815 1_555
Cd1 O4 2.180868 1_565
Cd1 O5 2.181089 1_655
Cd1 O7 2.181703 1_556
Fe0 O3 1.978526 1_555
Fe0 O5 1.980144 1_545
Fe0 O6 1.980865 1_555
Fe0 O0 1.981927 1_545
Fe0 O1 2.189132 1_555
Fe0 O7 2.189693 1_545
Fe1 O1 1.978459 1_555
Fe1 O2 1.979249 1_555
Fe1 O7 1.980074 1_455
Fe1 O4 1.980821 1_455
Fe1 O6 2.188388 1_555
Fe1 O0 2.188881 1_455
Fe2 O6 1.973376 1_555
Fe2 O0 1.974520 1_554
Fe2 O3 1.981872 1_555
Fe2 O5 1.983221 1_554
Fe2 O2 2.188058 1_555
Fe2 O4 2.188649 1_554
Fe3 O2 1.977479 1_555
Fe3 O4 1.978536 1_555
Fe3 O1 1.980331 1_555
Fe3 O7 1.981212 1_555
Fe3 O3 2.186579 1_555
Fe3 O5 2.187198 1_555
