# generated using pymatgen
data_Hf6Zr8Ta5Ti5(NbB18)3
_symmetry_space_group_name_H-M   'P 1'
_cell_length_a   9.36903741
_cell_length_b   9.37412186
_cell_length_c   10.22767800
_cell_angle_alpha   89.99771958
_cell_angle_beta   90.00162590
_cell_angle_gamma   120.01570098
_symmetry_Int_Tables_number   1
_chemical_formula_structural   Hf6Zr8Ta5Ti5(NbB18)3
_chemical_formula_sum   'Hf6 Zr8 Ta5 Ti5 Nb3 B54'
_cell_volume   777.79386410
_cell_formula_units_Z   1
loop_
 _symmetry_equiv_pos_site_id
 _symmetry_equiv_pos_as_xyz
  1  'x, y, z'
loop_
 _atom_site_type_symbol
 _atom_site_label
 _atom_site_symmetry_multiplicity
 _atom_site_fract_x
 _atom_site_fract_y
 _atom_site_fract_z
 _atom_site_occupancy
  Hf  Hf0  1  0.33556000  0.00057400  0.16470600  1
  Hf  Hf1  1  0.66544500  0.00024200  0.50191200  1
  Hf  Hf2  1  0.00034500  0.33464100  0.50279500  1
  Hf  Hf3  1  0.66634100  0.33230300  0.83318800  1
  Hf  Hf4  1  0.66556600  0.66603200  0.83316100  1
  Hf  Hf5  1  0.00025200  0.00029400  0.83310500  1
  Zr  Zr0  1  0.33484700  0.66794100  0.16362400  1
  Zr  Zr1  1  0.33504500  0.33432800  0.16490500  1
  Zr  Zr2  1  0.99854900  0.99945600  0.16451100  1
  Zr  Zr3  1  0.66524000  0.66481900  0.50173500  1
  Zr  Zr4  1  0.00057200  0.00014900  0.50245100  1
  Zr  Zr5  1  0.33433100  0.00039700  0.50293000  1
  Zr  Zr6  1  0.99906400  0.66568100  0.16498100  1
  Zr  Zr7  1  0.99846900  0.33303100  0.16451600  1
  Ta  Ta0  1  0.00026000  0.33460300  0.83238400  1
  Ta  Ta1  1  0.66652500  0.33264600  0.16378000  1
  Ta  Ta2  1  0.66652100  0.33360500  0.50265800  1
  Ta  Ta3  1  0.00002500  0.66543600  0.50246200  1
  Ta  Ta4  1  0.33261400  0.66621900  0.50376400  1
  Ti  Ti0  1  0.66533600  0.00011900  0.83380300  1
  Ti  Ti1  1  0.33427400  0.99969900  0.83226900  1
  Ti  Ti2  1  0.00082600  0.66609900  0.83264700  1
  Ti  Ti3  1  0.33385600  0.33362600  0.83294600  1
  Ti  Ti4  1  0.66599900  0.00008200  0.16416200  1
  Nb  Nb0  1  0.33471000  0.33456600  0.50223700  1
  Nb  Nb1  1  0.66587100  0.66606100  0.16530300  1
  Nb  Nb2  1  0.33301100  0.66697600  0.83270700  1
  B  B0  1  0.11151800  0.55630900  0.33725500  1
  B  B1  1  0.11305500  0.88868800  0.99267500  1
  B  B2  1  0.44733300  0.22333900  0.33388800  1
  B  B3  1  0.11163300  0.22319300  0.33535600  1
  B  B4  1  0.77525300  0.88980500  0.99691000  1
  B  B5  1  0.44691700  0.89168800  0.99490600  1
  B  B6  1  0.11052800  0.55631400  0.99312700  1
  B  B7  1  0.77769200  0.55513500  0.99580800  1
  B  B8  1  0.44450200  0.55492300  0.99458600  1
  B  B9  1  0.77524100  0.21894300  0.99696400  1
  B  B10  1  0.44413300  0.22081500  0.99404900  1
  B  B11  1  0.11210600  0.22307300  0.99340100  1
  B  B12  1  0.77558800  0.22153500  0.33293900  1
  B  B13  1  0.89057500  0.77608200  0.67088000  1
  B  B14  1  0.55417000  0.77881900  0.67048000  1
  B  B15  1  0.77690900  0.55342200  0.33443000  1
  B  B16  1  0.88885200  0.77677900  0.99474600  1
  B  B17  1  0.22366600  0.11211800  0.33397800  1
  B  B18  1  0.55775500  0.11227400  0.33143600  1
  B  B19  1  0.88598800  0.11058100  0.33312700  1
  B  B20  1  0.22312900  0.44542300  0.33686100  1
  B  B21  1  0.55679700  0.44352000  0.33372400  1
  B  B22  1  0.88662100  0.44330700  0.33605700  1
  B  B23  1  0.22261000  0.77719000  0.33571700  1
  B  B24  1  0.55612600  0.77942300  0.33246900  1
  B  B25  1  0.88797200  0.77641200  0.33436800  1
  B  B26  1  0.22479000  0.11290600  0.67333100  1
  B  B27  1  0.55511000  0.11021100  0.67224500  1
  B  B28  1  0.88753000  0.11186800  0.67099600  1
  B  B29  1  0.22293800  0.44456300  0.67008700  1
  B  B30  1  0.55331700  0.44208800  0.67020300  1
  B  B31  1  0.88967300  0.44592000  0.66950100  1
  B  B32  1  0.22147700  0.77755400  0.67196400  1
  B  B33  1  0.55730400  0.78139500  0.99690400  1
  B  B34  1  0.22298000  0.77976900  0.99222200  1
  B  B35  1  0.88850500  0.44459900  0.99450200  1
  B  B36  1  0.44235100  0.55385000  0.67036400  1
  B  B37  1  0.11131100  0.88767400  0.33463900  1
  B  B38  1  0.44650100  0.88963200  0.33279500  1
  B  B39  1  0.77534900  0.88896500  0.33178600  1
  B  B40  1  0.11332200  0.22431200  0.67131100  1
  B  B41  1  0.44355400  0.22198800  0.67245600  1
  B  B42  1  0.77723500  0.22157400  0.67017300  1
  B  B43  1  0.11094200  0.55679400  0.66982500  1
  B  B44  1  0.77986100  0.55540600  0.66987100  1
  B  B45  1  0.55507700  0.44336000  0.99572300  1
  B  B46  1  0.11182300  0.88681400  0.67286900  1
  B  B47  1  0.44438200  0.88919900  0.67244100  1
  B  B48  1  0.77625400  0.88994900  0.67124400  1
  B  B49  1  0.22456400  0.11136300  0.99272400  1
  B  B50  1  0.55578600  0.10947700  0.99599000  1
  B  B51  1  0.88512900  0.11001700  0.99577200  1
  B  B52  1  0.22255300  0.44394800  0.99318000  1
  B  B53  1  0.44436500  0.55618000  0.33515500  1
loop_
_geom_bond_atom_site_label_1
_geom_bond_atom_site_label_2
_geom_bond_distance
_geom_bond_site_symmetry_2
B0 B23 1.792954 1_555
B0 B20 1.805940 1_555
B0 B22 1.824535 1_455
B0 Ta3 2.462107 1_555
B0 Hf2 2.470574 1_555
B0 Ta4 2.473331 1_555
B0 Zr6 2.519166 1_455
B0 Zr7 2.531045 1_455
B0 Zr0 2.536961 1_555
B1 B34 1.776294 1_555
B1 B49 1.807440 1_565
B1 B16 1.818980 1_455
B1 Ti1 2.431530 1_555
B1 Ti2 2.437906 1_555
B1 Hf5 2.445609 1_565
B1 Hf0 2.520725 1_566
B1 Zr6 2.526374 1_456
B1 Zr2 2.536254 1_456
B2 B21 1.787211 1_555
B2 Ta2 2.478182 1_555
B2 Ta1 2.487773 1_555
B2 Hf0 2.502748 1_555
B2 Zr5 2.502757 1_555
B2 Nb0 2.503222 1_555
B2 Zr1 2.504220 1_555
B3 Nb0 2.487613 1_555
B3 Zr4 2.489615 1_555
B3 Hf2 2.490252 1_555
B3 Zr1 2.514793 1_555
B3 Zr7 2.515795 1_455
B3 Zr2 2.520237 1_445
B4 B51 1.787489 1_565
B4 Ti0 2.444993 1_565
B4 Ti4 2.470111 1_566
B4 Hf4 2.470759 1_555
B4 Hf5 2.477693 1_665
B4 Zr2 2.494030 1_556
B4 Nb1 2.502979 1_556
B5 B50 1.767816 1_565
B5 Ti0 2.419670 1_565
B5 Ti1 2.444315 1_555
B5 Nb2 2.465614 1_555
B5 Ti4 2.481044 1_566
B5 Hf0 2.492387 1_566
B5 Zr0 2.505166 1_556
B6 Ti2 2.422295 1_555
B6 Ta0 2.437552 1_555
B6 Nb2 2.439208 1_555
B6 Zr6 2.510470 1_456
B6 Zr0 2.520401 1_556
B6 Zr7 2.521354 1_456
B7 Hf3 2.457223 1_555
B7 Hf4 2.458426 1_555
B7 Ti2 2.462034 1_655
B7 Ta1 2.492509 1_556
B7 Zr6 2.493775 1_556
B7 Nb1 2.504825 1_556
B8 Hf4 2.437652 1_555
B8 Ti3 2.441267 1_555
B8 Nb2 2.456238 1_555
B8 Zr1 2.498087 1_556
B8 Zr0 2.501214 1_556
B8 Nb1 2.504743 1_556
B9 Ti0 2.437163 1_555
B9 Hf3 2.461805 1_555
B9 Ti4 2.465761 1_556
B9 Ta0 2.483283 1_655
B9 Ta1 2.484123 1_556
B9 Zr7 2.493325 1_556
B10 B49 1.781316 1_555
B10 B45 1.806471 1_555
B10 B50 1.810052 1_555
B10 Hf3 2.440592 1_555
B10 Ti1 2.441168 1_545
B10 Ti3 2.448189 1_555
B10 Hf0 2.498475 1_556
B10 Ta1 2.503701 1_556
B10 Zr1 2.513721 1_556
B11 B52 1.792831 1_555
B11 B49 1.819512 1_555
B11 B51 1.841524 1_455
B11 Ti3 2.435048 1_555
B11 Hf5 2.440880 1_555
B11 Ta0 2.449292 1_555
B11 Zr1 2.519485 1_556
B11 Zr7 2.521320 1_456
B11 Zr2 2.521367 1_446
B12 B18 1.767249 1_555
B12 B19 1.796661 1_555
B12 B22 1.800394 1_555
B12 Ta1 2.487324 1_555
B12 Ti4 2.492220 1_555
B12 Hf1 2.492578 1_555
B12 Ta2 2.497045 1_555
B12 Zr7 2.497332 1_555
B12 Hf2 2.518446 1_655
B13 B44 1.791246 1_555
B13 B46 1.794999 1_655
B13 B48 1.852130 1_555
B13 Ti2 2.435679 1_655
B13 Hf5 2.462872 1_665
B13 Hf4 2.467276 1_555
B13 Ta3 2.481687 1_655
B13 Zr4 2.505097 1_665
B13 Zr3 2.516863 1_555
B14 B47 1.787148 1_555
B14 B48 1.801683 1_555
B14 B36 1.826076 1_555
B14 Nb2 2.443804 1_555
B14 Ti0 2.452977 1_565
B14 Hf4 2.465608 1_555
B14 Ta4 2.477548 1_555
B14 Hf1 2.490466 1_565
B14 Zr3 2.513237 1_555
B15 B22 1.784342 1_555
B15 B21 1.785683 1_555
B15 B25 1.810004 1_555
B15 Ta2 2.478659 1_555
B15 Zr3 2.491255 1_555
B15 Ta3 2.495937 1_655
B15 Zr6 2.500358 1_555
B15 Ta1 2.501560 1_555
B15 Nb1 2.507596 1_555
B16 B7 1.799105 1_555
B16 B4 1.839574 1_555
B16 Hf4 2.452031 1_555
B16 Ti2 2.452526 1_655
B16 Hf5 2.454483 1_665
B16 Zr6 2.501586 1_556
B16 Zr2 2.506412 1_556
B16 Nb1 2.513031 1_556
B17 B3 1.810952 1_555
B17 B2 1.814517 1_555
B17 B37 1.821811 1_545
B17 Nb0 2.494367 1_555
B17 Zr1 2.498649 1_555
B17 Zr5 2.498774 1_555
B17 Zr4 2.498939 1_555
B17 Hf0 2.507299 1_555
B17 Zr2 2.517811 1_445
B18 B2 1.797917 1_555
B18 B38 1.807226 1_545
B18 Ti4 2.475642 1_555
B18 Ta1 2.477891 1_555
B18 Hf0 2.481357 1_555
B18 Hf1 2.494156 1_555
B18 Ta2 2.508940 1_555
B18 Zr5 2.522264 1_555
B19 B39 1.798899 1_545
B19 B3 1.830697 1_655
B19 Ti4 2.484232 1_555
B19 Hf1 2.486203 1_555
B19 Zr7 2.496812 1_555
B19 Zr2 2.504136 1_545
B19 Hf2 2.513865 1_655
B19 Zr4 2.516913 1_655
B20 B53 1.794871 1_555
B20 B3 1.803896 1_555
B20 Nb0 2.473926 1_555
B20 Ta4 2.475109 1_555
B20 Hf2 2.479274 1_555
B20 Zr1 2.523847 1_555
B20 Zr0 2.530094 1_555
B20 Zr7 2.535498 1_455
B21 B53 1.827057 1_555
B21 Ta2 2.482582 1_555
B21 Zr3 2.485964 1_555
B21 Nb0 2.493385 1_555
B21 Zr1 2.493536 1_555
B21 Ta1 2.495490 1_555
B21 Nb1 2.496075 1_555
B22 Ta2 2.468146 1_555
B22 Ta3 2.479525 1_655
B22 Hf2 2.483289 1_655
B22 Ta1 2.508533 1_555
B22 Zr6 2.513848 1_555
B22 Zr7 2.515733 1_555
B23 B37 1.800174 1_555
B23 B38 1.816577 1_555
B23 Ta3 2.483783 1_555
B23 Ta4 2.484100 1_555
B23 Zr5 2.491473 1_565
B23 Zr0 2.515996 1_555
B23 Zr6 2.517568 1_455
B23 Hf0 2.519279 1_565
B24 B39 1.778469 1_555
B24 B38 1.784327 1_555
B24 B53 1.812258 1_555
B24 Ti4 2.484146 1_565
B24 Nb1 2.490586 1_555
B24 Zr0 2.490917 1_555
B24 Hf1 2.493239 1_565
B24 Zr3 2.508946 1_555
B24 Ta4 2.521399 1_555
B25 B37 1.811853 1_655
B25 B39 1.827868 1_555
B25 Zr3 2.489018 1_555
B25 Ta3 2.496492 1_655
B25 Nb1 2.497280 1_555
B25 Zr6 2.498649 1_555
B25 Zr4 2.500719 1_665
B25 Zr2 2.509103 1_555
B26 B41 1.774757 1_555
B26 B40 1.809111 1_555
B26 B46 1.835183 1_545
B26 Ti3 2.423861 1_555
B26 Ti1 2.430981 1_545
B26 Hf5 2.447149 1_555
B26 Zr5 2.507221 1_555
B26 Nb0 2.509813 1_555
B26 Zr4 2.522525 1_555
B27 B47 1.793943 1_545
B27 B42 1.802125 1_555
B27 B41 1.812722 1_555
B27 Ti1 2.426598 1_545
B27 Ti0 2.434728 1_555
B27 Hf3 2.441207 1_555
B27 Zr5 2.491327 1_555
B27 Hf1 2.496522 1_555
B27 Ta2 2.509228 1_555
B28 B42 1.785695 1_555
B28 B48 1.801307 1_545
B28 B40 1.831754 1_655
B28 Ta0 2.448157 1_655
B28 Ti0 2.453975 1_555
B28 Hf5 2.462334 1_655
B28 Hf2 2.495824 1_655
B28 Hf1 2.497319 1_555
B28 Zr4 2.509970 1_655
B29 B36 1.780003 1_555
B29 B40 1.787818 1_555
B29 B43 1.819979 1_555
B29 Ti3 2.452921 1_555
B29 Ta0 2.453355 1_555
B29 Nb2 2.454748 1_555
B29 Ta4 2.476026 1_555
B29 Nb0 2.487468 1_555
B29 Hf2 2.487679 1_555
B30 B41 1.786691 1_555
B30 B36 1.807816 1_555
B30 B44 1.837851 1_555
B30 Ti3 2.437310 1_555
B30 Hf3 2.459524 1_555
B30 Hf4 2.466210 1_555
B30 Nb0 2.469121 1_555
B30 Ta2 2.484912 1_555
B30 Zr3 2.497433 1_555
B31 B44 1.779973 1_555
B31 B43 1.795058 1_655
B31 B42 1.821017 1_555
B31 Ti2 2.445099 1_655
B31 Ta0 2.453384 1_655
B31 Hf3 2.466924 1_555
B31 Ta3 2.468471 1_655
B31 Hf2 2.480473 1_655
B31 Ta2 2.487798 1_555
B32 B46 1.776877 1_555
B32 B43 1.792031 1_555
B32 B47 1.808333 1_555
B32 Ti2 2.430066 1_555
B32 Ti1 2.437176 1_555
B32 Nb2 2.439821 1_555
B32 Ta4 2.494059 1_555
B32 Ta3 2.496612 1_555
B32 Zr5 2.502115 1_565
B33 B4 1.768128 1_555
B33 B5 1.791302 1_555
B33 B8 1.838421 1_555
B33 Ti0 2.436114 1_565
B33 Ti4 2.465252 1_566
B33 Hf4 2.469945 1_555
B33 Nb2 2.476191 1_555
B33 Zr0 2.482936 1_556
B33 Nb1 2.503985 1_556
B34 B6 1.813804 1_555
B34 B5 1.816905 1_555
B34 Ti1 2.421379 1_555
B34 Ti2 2.431517 1_555
B34 Nb2 2.435798 1_555
B34 Hf0 2.514925 1_566
B34 Zr0 2.523792 1_556
B34 Zr6 2.534216 1_456
B35 B7 1.796666 1_555
B35 B6 1.801238 1_655
B35 B9 1.831812 1_555
B35 Hf3 2.443456 1_555
B35 Ti2 2.443935 1_655
B35 Ta0 2.447267 1_655
B35 Ta1 2.498114 1_556
B35 Zr7 2.501318 1_556
B35 Zr6 2.502121 1_556
B36 Ti3 2.441399 1_555
B36 Nb2 2.453158 1_555
B36 Hf4 2.459971 1_555
B36 Nb0 2.474979 1_555
B36 Ta4 2.480578 1_555
B36 Zr3 2.498837 1_555
B37 Ta3 2.489982 1_555
B37 Zr4 2.495708 1_565
B37 Zr5 2.497220 1_565
B37 Zr6 2.501620 1_455
B37 Hf0 2.516033 1_565
B37 Zr2 2.519741 1_455
B38 Ti4 2.479036 1_565
B38 Hf1 2.479251 1_565
B38 Hf0 2.489717 1_565
B38 Zr0 2.496386 1_555
B38 Zr5 2.510464 1_565
B38 Ta4 2.519202 1_555
B39 Ti4 2.478142 1_565
B39 Nb1 2.484640 1_555
B39 Zr2 2.491150 1_555
B39 Hf1 2.500163 1_565
B39 Zr3 2.516270 1_555
B39 Zr4 2.526918 1_665
B40 Ti3 2.435934 1_555
B40 Ta0 2.449664 1_555
B40 Hf5 2.458567 1_555
B40 Nb0 2.493194 1_555
B40 Hf2 2.501117 1_555
B40 Zr4 2.508694 1_555
B41 Ti3 2.433539 1_555
B41 Ti1 2.434612 1_545
B41 Hf3 2.443170 1_555
B41 Zr5 2.498361 1_555
B41 Nb0 2.502189 1_555
B41 Ta2 2.507557 1_555
B42 Hf3 2.452720 1_555
B42 Ta0 2.454818 1_655
B42 Ti0 2.455982 1_555
B42 Hf1 2.487848 1_555
B42 Ta2 2.490751 1_555
B42 Hf2 2.491362 1_655
B43 Ti2 2.438294 1_555
B43 Ta0 2.452905 1_555
B43 Nb2 2.453732 1_555
B43 Ta3 2.470976 1_555
B43 Ta4 2.473626 1_555
B43 Hf2 2.483977 1_555
B44 Ti2 2.446414 1_655
B44 Hf3 2.463659 1_555
B44 Ta3 2.474232 1_655
B44 Hf4 2.474369 1_555
B44 Ta2 2.483282 1_555
B44 Zr3 2.502813 1_555
B45 B8 1.803066 1_555
B45 B7 1.805979 1_555
B45 Ti3 2.447956 1_555
B45 Hf3 2.453549 1_555
B45 Hf4 2.455809 1_555
B45 Zr1 2.486063 1_556
B45 Ta1 2.491131 1_556
B45 Nb1 2.505196 1_556
B46 Ti2 2.424852 1_555
B46 Ti1 2.432031 1_555
B46 Hf5 2.454148 1_565
B46 Ta3 2.503349 1_555
B46 Zr5 2.505967 1_565
B46 Zr4 2.522058 1_565
B47 Ti1 2.424590 1_555
B47 Ti0 2.436533 1_565
B47 Nb2 2.437258 1_555
B47 Zr5 2.496085 1_565
B47 Ta4 2.500442 1_555
B47 Hf1 2.501648 1_565
B48 Ti0 2.446366 1_565
B48 Hf5 2.458236 1_665
B48 Hf4 2.458826 1_555
B48 Hf1 2.493947 1_565
B48 Zr4 2.508456 1_665
B48 Zr3 2.519000 1_555
B49 Ti1 2.433526 1_545
B49 Ti3 2.434213 1_555
B49 Hf5 2.444720 1_555
B49 Hf0 2.516805 1_556
B49 Zr1 2.525236 1_556
B49 Zr2 2.539504 1_446
B50 B9 1.780367 1_555
B50 Ti0 2.430816 1_555
B50 Ti1 2.456262 1_545
B50 Hf3 2.458392 1_555
B50 Ti4 2.476984 1_556
B50 Hf0 2.483889 1_556
B50 Ta1 2.495320 1_556
B51 B9 1.776086 1_555
B51 Ti0 2.433830 1_555
B51 Hf5 2.469689 1_655
B51 Ta0 2.473082 1_655
B51 Ti4 2.475156 1_556
B51 Zr7 2.501165 1_556
B51 Zr2 2.506664 1_546
B52 B8 1.800628 1_555
B52 B6 1.821309 1_555
B52 Ti3 2.433488 1_555
B52 Ta0 2.440685 1_555
B52 Nb2 2.443543 1_555
B52 Zr1 2.516899 1_556
B52 Zr0 2.518874 1_556
B52 Zr7 2.525014 1_456
B53 Zr3 2.472581 1_555
B53 Nb0 2.481118 1_555
B53 Ta4 2.492954 1_555
B53 Nb1 2.499417 1_555
B53 Zr1 2.505030 1_555
B53 Zr0 2.510671 1_555
