# generated using pymatgen
data_Mg(Mo2O5)2
_symmetry_space_group_name_H-M   'P 1'
_cell_length_a   4.01833184
_cell_length_b   3.98813714
_cell_length_c   13.15238063
_cell_angle_alpha   89.96450380
_cell_angle_beta   90.04456610
_cell_angle_gamma   89.73609291
_symmetry_Int_Tables_number   1
_chemical_formula_structural   Mg(Mo2O5)2
_chemical_formula_sum   'Mg1 Mo4 O10'
_cell_volume   210.77321893
_cell_formula_units_Z   1
loop_
 _symmetry_equiv_pos_site_id
 _symmetry_equiv_pos_as_xyz
  1  'x, y, z'
loop_
 _atom_site_type_symbol
 _atom_site_label
 _atom_site_symmetry_multiplicity
 _atom_site_fract_x
 _atom_site_fract_y
 _atom_site_fract_z
 _atom_site_occupancy
  Mg  Mg0  1  0.19510500  0.46793800  0.99995600  1
  Mo  Mo0  1  0.04435100  0.96847300  0.16631600  1
  Mo  Mo1  1  0.53470700  0.06908900  0.35570900  1
  Mo  Mo2  1  0.53544300  0.06788700  0.64460000  1
  Mo  Mo3  1  0.04465800  0.96991900  0.83375000  1
  O  O0  1  0.53292500  0.99071100  0.19544400  1
  O  O1  1  0.03323900  0.00445600  0.32823600  1
  O  O2  1  0.03334400  0.00485300  0.67183200  1
  O  O3  1  0.53509400  0.98870600  0.80483900  1
  O  O4  1  0.02121200  0.47492000  0.85941700  1
  O  O5  1  0.53312600  0.50932000  0.65045800  1
  O  O6  1  0.53321600  0.51013100  0.34942500  1
  O  O7  1  0.52564300  0.98025500  0.49995300  1
  O  O8  1  0.15942000  0.96831200  0.00028300  1
  O  O9  1  0.01517600  0.47502800  0.13977800  1
loop_
_geom_bond_atom_site_label_1
_geom_bond_atom_site_label_2
_geom_bond_distance
_geom_bond_site_symmetry_2
Mg0 O4 1.975716 1_555
Mg0 O9 1.976711 1_556
Mg0 O8 1.998391 1_546
Mg0 O8 2.000054 1_556
Mo0 O0 2.002366 1_555
Mo0 O9 2.002803 1_555
Mo0 O9 2.052731 1_565
Mo0 O0 2.092265 1_455
Mo0 O1 2.135040 1_565
Mo0 O8 2.232497 1_555
Mo1 O6 1.760808 1_555
Mo1 O7 1.930135 1_545
Mo1 O1 2.050992 1_655
Mo1 O1 2.064282 1_555
Mo1 O0 2.131120 1_545
Mo1 O6 2.230819 1_545
Mo2 O5 1.762210 1_555
Mo2 O7 1.934904 1_545
Mo2 O2 2.046594 1_655
Mo2 O2 2.065884 1_555
Mo2 O3 2.130860 1_545
Mo2 O5 2.228989 1_545
Mo3 O4 2.005228 1_555
Mo3 O3 2.009101 1_555
Mo3 O4 2.044072 1_565
Mo3 O3 2.083314 1_455
Mo3 O2 2.134509 1_565
Mo3 O8 2.237973 1_556
