# generated using pymatgen
data_Na6Nb4Ga4Si7S5O48
_symmetry_space_group_name_H-M   'P 1'
_cell_length_a   17.68951514
_cell_length_b   8.79617905
_cell_length_c   22.55124927
_cell_angle_alpha   89.88652046
_cell_angle_beta   90.27326265
_cell_angle_gamma   119.81922250
_symmetry_Int_Tables_number   1
_chemical_formula_structural   Na6Nb4Ga4Si7S5O48
_chemical_formula_sum   'Na18 Nb12 Ga12 Si21 S15 O144'
_cell_volume   3044.34937052
_cell_formula_units_Z   3
loop_
 _symmetry_equiv_pos_site_id
 _symmetry_equiv_pos_as_xyz
  1  'x, y, z'
loop_
 _atom_site_type_symbol
 _atom_site_label
 _atom_site_symmetry_multiplicity
 _atom_site_fract_x
 _atom_site_fract_y
 _atom_site_fract_z
 _atom_site_occupancy
  Na  Na0  1  0.99989009  0.61898169  0.25189834  1
  Na  Na1  1  0.50084646  0.64102397  0.25652124  1
  Na  Na2  1  0.99982154  0.36176661  0.75058671  1
  Na  Na3  1  0.49990227  0.37992484  0.74885403  1
  Na  Na4  1  0.33292314  0.96888829  0.58166796  1
  Na  Na5  1  0.83170837  0.69542875  0.08395583  1
  Na  Na6  1  0.00060073  0.98560811  0.50093169  1
  Na  Na7  1  0.50249699  0.00526958  0.49938802  1
  Na  Na8  1  0.99790661  0.99850818  0.00212990  1
  Na  Na9  1  0.50191883  0.01739942  0.00257495  1
  Na  Na10  1  0.33077455  0.34847763  0.82391466  1
  Na  Na11  1  0.82919565  0.33366402  0.83219998  1
  Na  Na12  1  0.33066434  0.32805347  0.33371993  1
  Na  Na13  1  0.82783213  0.31201664  0.32630691  1
  Na  Na14  1  0.16997095  0.66121165  0.17485635  1
  Na  Na15  1  0.66950506  0.66875448  0.16869885  1
  Na  Na16  1  0.16881210  0.66952153  0.66454170  1
  Na  Na17  1  0.66989871  0.67815399  0.66951304  1
  Nb  Nb0  1  0.99482249  0.00711588  0.35704590  1
  Nb  Nb1  1  0.50053405  0.98384791  0.35725600  1
  Nb  Nb2  1  0.99564310  0.01605601  0.85303308  1
  Nb  Nb3  1  0.49569679  0.98340943  0.85621828  1
  Nb  Nb4  1  0.99835673  0.00319442  0.64426839  1
  Nb  Nb5  1  0.49910952  0.99503914  0.14706762  1
  Nb  Nb6  1  0.34210784  0.33151324  0.97451141  1
  Nb  Nb7  1  0.83543017  0.35593651  0.98031904  1
  Nb  Nb8  1  0.33590898  0.31291332  0.48024429  1
  Nb  Nb9  1  0.83636929  0.35515268  0.47094945  1
  Nb  Nb10  1  0.16738771  0.66571982  0.02526650  1
  Nb  Nb11  1  0.66575764  0.65161481  0.52141101  1
  Ga  Ga0  1  0.50547069  0.99909997  0.64652655  1
  Ga  Ga1  1  0.00116901  0.00356833  0.15045864  1
  Ga  Ga2  1  0.33263468  0.34105786  0.68550059  1
  Ga  Ga3  1  0.82554853  0.32116051  0.68375632  1
  Ga  Ga4  1  0.32671802  0.32666124  0.18755113  1
  Ga  Ga5  1  0.83251576  0.32454160  0.18676671  1
  Ga  Ga6  1  0.67138444  0.63562689  0.01434504  1
  Ga  Ga7  1  0.17027426  0.70646189  0.51436932  1
  Ga  Ga8  1  0.16716279  0.65914827  0.31231913  1
  Ga  Ga9  1  0.66702221  0.68700565  0.32137335  1
  Ga  Ga10  1  0.16540658  0.63276645  0.81557073  1
  Ga  Ga11  1  0.66632096  0.67307667  0.81175823  1
  Si  Si0  1  0.65189411  0.00143285  0.25067701  1
  Si  Si1  1  0.34828006  0.69745321  0.24904670  1
  Si  Si2  1  0.00112735  0.29427752  0.24449361  1
  Si  Si3  1  0.15095491  0.29428825  0.74892480  1
  Si  Si4  1  0.50106029  0.70766720  0.74449794  1
  Si  Si5  1  0.84587253  0.99898929  0.74649061  1
  Si  Si6  1  0.47979842  0.32790660  0.59243021  1
  Si  Si7  1  0.19058634  0.04512488  0.58743203  1
  Si  Si8  1  0.83196667  0.61401735  0.58881241  1
  Si  Si9  1  0.97895975  0.63314944  0.09130122  1
  Si  Si10  1  0.33351367  0.05069037  0.08877582  1
  Si  Si11  1  0.68974028  0.33460600  0.08742961  1
  Si  Si12  1  0.30700902  0.66343456  0.91715230  1
  Si  Si13  1  0.80730656  0.67223097  0.91389015  1
  Si  Si14  1  0.02212765  0.38493751  0.91533015  1
  Si  Si15  1  0.53209484  0.38760286  0.91228997  1
  Si  Si16  1  0.30587508  0.93908322  0.41371866  1
  Si  Si17  1  0.80643155  0.95190039  0.41786561  1
  Si  Si18  1  0.66359856  0.38412995  0.40961503  1
  Si  Si19  1  0.03142566  0.67381113  0.41200183  1
  Si  Si20  1  0.52162243  0.65743785  0.41641684  1
  S  S0  1  0.14531721  0.00372354  0.24866795  1
  S  S1  1  0.85325096  0.71164456  0.24905608  1
  S  S2  1  0.49926746  0.28982378  0.24958295  1
  S  S3  1  0.64521706  0.28660099  0.74901945  1
  S  S4  1  0.00180133  0.71193167  0.75065580  1
  S  S5  1  0.35095832  0.99151239  0.75049805  1
  S  S6  1  0.98036027  0.34122794  0.58333767  1
  S  S7  1  0.68875615  0.04602548  0.58369858  1
  S  S8  1  0.33124543  0.62188721  0.58322114  1
  S  S9  1  0.48072070  0.62111551  0.08358385  1
  S  S10  1  0.83111733  0.04047188  0.08292717  1
  S  S11  1  0.18866539  0.32727077  0.08394675  1
  S  S12  1  0.16606362  0.95098182  0.91531416  1
  S  S13  1  0.66800997  0.95257590  0.91811945  1
  S  S14  1  0.16800774  0.38296684  0.41828509  1
  O  O0  1  0.10232647  0.02545573  0.30184659  1
  O  O1  1  0.59798213  0.02217301  0.30696584  1
  O  O2  1  0.41719758  0.79258876  0.30470210  1
  O  O3  1  0.91156298  0.80404787  0.30205401  1
  O  O4  1  0.48631481  0.18285765  0.30208640  1
  O  O5  1  0.99048371  0.16858246  0.30442985  1
  O  O6  1  0.09800785  0.17035612  0.80739114  1
  O  O7  1  0.60152415  0.17846402  0.80267688  1
  O  O8  1  0.49032468  0.81131858  0.80496674  1
  O  O9  1  0.98865210  0.79541274  0.80380956  1
  O  O10  1  0.41020465  0.01624510  0.80370699  1
  O  O11  1  0.91523229  0.04226339  0.80497292  1
  O  O12  1  0.38951423  0.96598199  0.69642768  1
  O  O13  1  0.90058478  0.97610610  0.69167356  1
  O  O14  1  0.08080520  0.19164572  0.69438525  1
  O  O15  1  0.59091928  0.20836631  0.69521481  1
  O  O16  1  0.01176101  0.81761881  0.69664548  1
  O  O17  1  0.51531332  0.83742945  0.68969578  1
  O  O18  1  0.40001033  0.82559641  0.19091597  1
  O  O19  1  0.89412776  0.81433337  0.19418451  1
  O  O20  1  0.01654820  0.19706050  0.18855108  1
  O  O21  1  0.50907339  0.20167594  0.19499868  1
  O  O22  1  0.09169103  0.97464625  0.19422255  1
  O  O23  1  0.58173309  0.96773804  0.19409619  1
  O  O24  1  0.43612920  0.35972100  0.64958849  1
  O  O25  1  0.94189341  0.36103940  0.63925358  1
  O  O26  1  0.25647187  0.13507334  0.64208787  1
  O  O27  1  0.73955732  0.11804150  0.63940883  1
  O  O28  1  0.31981872  0.52113262  0.63778340  1
  O  O29  1  0.81851415  0.49508750  0.64625838  1
  O  O30  1  0.44065557  0.51974983  0.13747621  1
  O  O31  1  0.93815922  0.51221889  0.14820419  1
  O  O32  1  0.31730992  0.14325254  0.14418020  1
  O  O33  1  0.82020524  0.11943394  0.13700097  1
  O  O34  1  0.24059602  0.36018542  0.13809886  1
  O  O35  1  0.75774974  0.37888387  0.14094746  1
  O  O36  1  0.23246082  0.31225930  0.03021512  1
  O  O37  1  0.73481665  0.30605601  0.02628258  1
  O  O38  1  0.42369861  0.53467584  0.02972401  1
  O  O39  1  0.91587291  0.54006981  0.03035282  1
  O  O40  1  0.34391407  0.16764134  0.02798984  1
  O  O41  1  0.84527993  0.15151655  0.02929305  1
  O  O42  1  0.23387670  0.16336421  0.52667362  1
  O  O43  1  0.73272901  0.15468170  0.53157571  1
  O  O44  1  0.34513753  0.53900632  0.53004119  1
  O  O45  1  0.84546618  0.52337455  0.52886305  1
  O  O46  1  0.41601573  0.29190695  0.53149943  1
  O  O47  1  0.92437363  0.31268391  0.53134880  1
  O  O48  1  0.26529593  0.70021608  0.97587285  1
  O  O49  1  0.77834461  0.71307568  0.97775594  1
  O  O50  1  0.08552461  0.48251463  0.97241283  1
  O  O51  1  0.57874839  0.46219771  0.97498969  1
  O  O52  1  0.15567408  0.84949459  0.97008167  1
  O  O53  1  0.65138397  0.84593268  0.97129174  1
  O  O54  1  0.27677754  0.84233649  0.47814369  1
  O  O55  1  0.76577740  0.83029476  0.47634786  1
  O  O56  1  0.15124585  0.45621400  0.47120207  1
  O  O57  1  0.65171108  0.46627417  0.47259746  1
  O  O58  1  0.07937341  0.69924164  0.47482600  1
  O  O59  1  0.58437165  0.69126298  0.47388618  1
  O  O60  1  0.06424760  0.63140722  0.35163525  1
  O  O61  1  0.55527847  0.62183448  0.35442349  1
  O  O62  1  0.24384143  0.85619770  0.35782440  1
  O  O63  1  0.75545576  0.88712645  0.35644129  1
  O  O64  1  0.18017083  0.48009810  0.36312328  1
  O  O65  1  0.68489844  0.50901399  0.35346873  1
  O  O66  1  0.05818789  0.49444773  0.85423953  1
  O  O67  1  0.56339659  0.49636984  0.85205107  1
  O  O68  1  0.18248646  0.87652031  0.86214983  1
  O  O69  1  0.68014062  0.87954620  0.86324139  1
  O  O70  1  0.25454374  0.63440689  0.85684730  1
  O  O71  1  0.74573231  0.63578404  0.85801390  1
  O  O72  1  0.01509946  0.84277295  0.40379780  1
  O  O73  1  0.51280967  0.83568218  0.41392286  1
  O  O74  1  0.40601805  0.97849072  0.40439587  1
  O  O75  1  0.90656860  0.97618448  0.41106444  1
  O  O76  1  0.08908570  0.19838916  0.41136471  1
  O  O77  1  0.57848175  0.18978017  0.40702223  1
  O  O78  1  0.01651269  0.19035773  0.91233602  1
  O  O79  1  0.51389962  0.18571018  0.90499928  1
  O  O80  1  0.08799216  0.97006856  0.91117377  1
  O  O81  1  0.58933990  0.97994715  0.91130522  1
  O  O82  1  0.40713277  0.83388524  0.91123650  1
  O  O83  1  0.90983573  0.83301263  0.90468726  1
  O  O84  1  0.48462832  0.14472746  0.59479318  1
  O  O85  1  0.98575967  0.17327379  0.58689052  1
  O  O86  1  0.09301587  0.02472365  0.59301973  1
  O  O87  1  0.60174000  0.03339606  0.58712291  1
  O  O88  1  0.40958882  0.80269526  0.58705852  1
  O  O89  1  0.91970962  0.80952981  0.59248471  1
  O  O90  1  0.48404457  0.79575927  0.08548478  1
  O  O91  1  0.98525705  0.82645222  0.09398025  1
  O  O92  1  0.41938821  0.02775184  0.09067671  1
  O  O93  1  0.90930971  0.01626575  0.08649276  1
  O  O94  1  0.10141783  0.17221793  0.08652543  1
  O  O95  1  0.59259103  0.15998715  0.09190720  1
  O  O96  1  0.34880759  0.15683011  0.75045526  1
  O  O97  1  0.84861292  0.18820272  0.73957573  1
  O  O98  1  0.24364678  0.30752638  0.74329506  1
  O  O99  1  0.73173060  0.29757649  0.74611311  1
  O  O100  1  0.41379822  0.51467167  0.74407413  1
  O  O101  1  0.92492148  0.53361268  0.74595180  1
  O  O102  1  0.34931020  0.51144594  0.23958468  1
  O  O103  1  0.85050912  0.54184704  0.24859244  1
  O  O104  1  0.42138176  0.31267710  0.24361466  1
  O  O105  1  0.91385614  0.31304469  0.24383766  1
  O  O106  1  0.23213956  0.16615223  0.24552045  1
  O  O107  1  0.74324625  0.17678269  0.24262443  1
  O  O108  1  0.31958018  0.49281640  0.92854729  1
  O  O109  1  0.81887492  0.49393291  0.92195972  1
  O  O110  1  0.42894937  0.35554511  0.92297618  1
  O  O111  1  0.92275115  0.34572445  0.92604541  1
  O  O112  1  0.24462139  0.13278718  0.92314266  1
  O  O113  1  0.74567863  0.13165319  0.92392276  1
  O  O114  1  0.31781104  0.14151607  0.42233911  1
  O  O115  1  0.82415471  0.14973143  0.43030017  1
  O  O116  1  0.24564047  0.35932743  0.42412611  1
  O  O117  1  0.74916512  0.35726625  0.42217377  1
  O  O118  1  0.42199133  0.49513193  0.42734118  1
  O  O119  1  0.92986917  0.50350282  0.42190530  1
  O  O120  1  0.17932672  0.48982438  0.07896034  1
  O  O121  1  0.68201326  0.51319375  0.08002122  1
  O  O122  1  0.07399495  0.65175552  0.07499742  1
  O  O123  1  0.56819427  0.64701765  0.07598158  1
  O  O124  1  0.24750061  0.85665455  0.07745741  1
  O  O125  1  0.75193366  0.86407555  0.07691742  1
  O  O126  1  0.18225189  0.85092143  0.58046056  1
  O  O127  1  0.67842014  0.86825643  0.57917910  1
  O  O128  1  0.25231755  0.64061456  0.57754947  1
  O  O129  1  0.74836127  0.64321241  0.58076698  1
  O  O130  1  0.06912459  0.48997906  0.57760590  1
  O  O131  1  0.57405694  0.50130419  0.57986111  1
  O  O132  1  0.15382374  0.84597351  0.25243334  1
  O  O133  1  0.65026408  0.81321070  0.25435643  1
  O  O134  1  0.25549363  0.68382814  0.25546917  1
  O  O135  1  0.76718904  0.69654914  0.25419876  1
  O  O136  1  0.08600875  0.48790532  0.25330162  1
  O  O137  1  0.57835941  0.46451088  0.25090194  1
  O  O138  1  0.14904495  0.47983887  0.75182042  1
  O  O139  1  0.65343789  0.46129822  0.75354703  1
  O  O140  1  0.08226280  0.69850200  0.75467799  1
  O  O141  1  0.58611163  0.68456617  0.75350553  1
  O  O142  1  0.26334634  0.83758845  0.75885934  1
  O  O143  1  0.75492174  0.82661680  0.75578512  1
loop_
_geom_bond_atom_site_label_1
_geom_bond_atom_site_label_2
_geom_bond_distance
_geom_bond_site_symmetry_2
Na0 O136 2.323210 1_655
Na0 O105 2.348886 1_555
Na0 O103 2.379879 1_555
Na0 O132 2.448302 1_655
Na0 O60 2.493930 1_655
Na0 O31 2.550899 1_555
Na1 O133 2.302620 1_555
Na1 O102 2.363044 1_555
Na1 O61 2.443352 1_555
Na1 O104 2.522715 1_555
Na1 O137 2.535068 1_555
Na1 O2 2.670303 1_555
Na1 O23 2.863863 1_555
Na1 O30 2.886740 1_555
Na2 O138 2.306569 1_655
Na2 O97 2.341141 1_555
Na2 O101 2.457881 1_555
Na2 O140 2.571472 1_655
Na2 O66 2.584839 1_655
Na2 O25 2.706052 1_555
Na2 O11 2.731886 1_555
Na2 O14 2.838069 1_655
Na3 O141 2.335110 1_555
Na3 O100 2.351546 1_555
Na3 O96 2.404236 1_555
Na3 O139 2.442171 1_555
Na3 O24 2.468499 1_555
Na3 O67 2.562615 1_555
Na4 O126 2.330275 1_555
Na4 O84 2.355374 1_565
Na4 O88 2.441408 1_555
Na4 O128 2.506939 1_555
Na4 O54 2.562143 1_555
Na4 O46 2.713530 1_565
Na4 O12 2.775047 1_555
Na4 O26 2.795331 1_565
Na5 O121 2.316526 1_555
Na5 O91 2.374655 1_555
Na5 O93 2.449322 1_565
Na5 O125 2.509206 1_555
Na5 O49 2.602618 1_554
Na5 O19 2.707002 1_555
Na5 O35 2.737746 1_555
Na5 O39 2.755451 1_555
Na6 O86 2.552375 1_565
Na6 O89 2.553525 1_455
Na6 O75 2.590807 1_455
Na6 O72 2.603711 1_555
Na6 O85 2.645770 1_465
Na6 O76 2.671049 1_565
Na7 O73 2.501711 1_545
Na7 O87 2.568003 1_555
Na7 O77 2.573569 1_555
Na7 O84 2.576089 1_555
Na7 O88 2.624799 1_545
Na7 O74 2.669175 1_545
Na8 O91 2.507231 1_555
Na8 O93 2.524513 1_565
Na8 O78 2.548930 1_664
Na8 O94 2.550595 1_665
Na8 O83 2.664506 1_554
Na8 O80 2.690546 1_654
Na9 O95 2.486491 1_555
Na9 O92 2.499534 1_555
Na9 O79 2.599665 1_554
Na9 O90 2.602855 1_545
Na9 O82 2.635962 1_544
Na9 O81 2.697422 1_544
Na10 O98 2.287862 1_555
Na10 O100 2.327096 1_555
Na10 O96 2.497760 1_555
Na10 O108 2.735915 1_555
Na10 O110 2.804750 1_555
Na10 O112 2.840710 1_555
Na11 O99 2.503685 1_555
Na11 O109 2.527627 1_555
Na11 O97 2.563723 1_555
Na11 O101 2.607625 1_555
Na11 O111 2.649878 1_555
Na11 O113 2.649981 1_555
Na12 O114 2.521544 1_555
Na12 O106 2.555681 1_555
Na12 O102 2.584873 1_555
Na12 O118 2.616444 1_555
Na12 O116 2.633881 1_555
Na12 O104 2.640176 1_555
Na13 O107 2.329590 1_555
Na13 O105 2.405777 1_555
Na13 O103 2.550589 1_555
Na13 O117 2.711414 1_555
Na13 O115 2.727207 1_555
Na13 O119 2.774242 1_555
Na14 O134 2.304131 1_555
Na14 O136 2.328511 1_555
Na14 O132 2.502232 1_555
Na14 O120 2.690966 1_555
Na14 O124 2.707357 1_555
Na14 O122 2.790057 1_555
Na15 O133 2.430629 1_555
Na15 O121 2.497328 1_555
Na15 O135 2.512630 1_555
Na15 O137 2.529477 1_555
Na15 O125 2.623960 1_555
Na15 O123 2.691690 1_555
Na16 O126 2.410998 1_555
Na16 O138 2.488658 1_555
Na16 O128 2.549205 1_555
Na16 O130 2.580113 1_555
Na16 O140 2.638311 1_555
Na16 O142 2.650639 1_555
Na17 O143 2.404451 1_555
Na17 O141 2.428590 1_555
Na17 O129 2.545475 1_555
Na17 O127 2.589903 1_555
Na17 O131 2.595884 1_555
Na17 O139 2.598691 1_555
Nb0 O5 1.879335 1_555
Nb0 O75 1.894635 1_545
Nb0 O72 1.958572 1_645
Nb0 O3 2.067047 1_545
Nb0 O76 2.076113 1_655
Nb0 O0 2.215559 1_655
Nb1 O73 1.910757 1_555
Nb1 O1 1.952064 1_565
Nb1 O74 1.966244 1_555
Nb1 O2 1.983133 1_555
Nb1 O77 1.987784 1_565
Nb1 O4 2.258715 1_565
Nb2 O11 1.887199 1_555
Nb2 O78 1.927686 1_655
Nb2 O6 1.936101 1_655
Nb2 O83 1.957587 1_545
Nb2 O9 2.186962 1_545
Nb2 O80 2.277298 1_645
Nb3 O8 1.870590 1_555
Nb3 O82 1.920025 1_555
Nb3 O79 1.978608 1_565
Nb3 O10 2.046658 1_565
Nb3 O81 2.078118 1_555
Nb3 O7 2.173740 1_565
Nb4 O14 1.933800 1_655
Nb4 O13 1.948773 1_545
Nb4 O89 1.958714 1_545
Nb4 O86 1.969173 1_655
Nb4 O85 2.069598 1_555
Nb4 O16 2.119104 1_645
Nb5 O23 1.910996 1_555
Nb5 O18 1.919507 1_555
Nb5 O95 2.003338 1_565
Nb5 O92 2.018353 1_565
Nb5 O21 2.047070 1_565
Nb5 O90 2.147999 1_555
Nb6 O110 1.856965 1_555
Nb6 O40 1.889918 1_556
Nb6 O108 1.949086 1_555
Nb6 O38 2.062404 1_556
Nb6 O112 2.088642 1_555
Nb6 O36 2.250434 1_556
Nb7 O39 1.902920 1_556
Nb7 O109 1.906504 1_555
Nb7 O37 1.916711 1_556
Nb7 O111 2.012101 1_555
Nb7 O41 2.187513 1_556
Nb7 O113 2.214917 1_555
Nb8 O114 1.898543 1_555
Nb8 O46 1.903191 1_555
Nb8 O42 1.932790 1_555
Nb8 O118 1.973209 1_555
Nb8 O44 2.219706 1_555
Nb8 O116 2.223755 1_555
Nb9 O119 1.878008 1_555
Nb9 O117 1.897923 1_555
Nb9 O45 1.920930 1_555
Nb9 O115 1.941227 1_555
Nb9 O47 2.230341 1_555
Nb9 O43 2.266948 1_555
Nb10 O50 1.945487 1_554
Nb10 O122 1.953840 1_555
Nb10 O48 1.956239 1_554
Nb10 O124 1.959370 1_555
Nb10 O120 2.054206 1_555
Nb10 O52 2.127793 1_554
Nb11 O57 1.879624 1_555
Nb11 O59 1.956038 1_555
Nb11 O55 1.969420 1_555
Nb11 O131 1.999347 1_555
Nb11 O129 2.005168 1_555
Nb11 O127 2.227382 1_555
Ga0 O17 1.799867 1_555
Ga0 O84 1.896723 1_565
Ga0 O15 2.025758 1_565
Ga0 O87 2.072414 1_565
Ga0 O88 2.175592 1_555
Ga0 O12 2.232747 1_555
Ga1 O20 1.803272 1_555
Ga1 O91 1.922744 1_445
Ga1 O22 1.997990 1_545
Ga1 O19 2.050644 1_445
Ga1 O94 2.196308 1_555
Ga1 O93 2.211619 1_455
Ga2 O26 1.903475 1_555
Ga2 O24 1.936298 1_555
Ga2 O98 1.954465 1_555
Ga2 O100 1.986862 1_555
Ga2 O28 2.016523 1_555
Ga2 O96 2.302435 1_555
Ga3 O29 1.803979 1_555
Ga3 O97 1.892784 1_555
Ga3 O27 1.948308 1_555
Ga3 O99 2.110322 1_555
Ga3 O25 2.160156 1_555
Ga3 O101 2.295520 1_555
Ga4 O32 1.823379 1_555
Ga4 O102 1.880322 1_555
Ga4 O34 2.020111 1_555
Ga4 O106 2.041026 1_555
Ga4 O104 2.145174 1_555
Ga4 O30 2.198132 1_555
Ga5 O35 1.912880 1_555
Ga5 O107 1.934156 1_555
Ga5 O105 1.965589 1_555
Ga5 O31 1.978766 1_555
Ga5 O33 2.043744 1_555
Ga5 O103 2.258352 1_555
Ga6 O51 1.818101 1_554
Ga6 O49 1.858930 1_554
Ga6 O121 1.892395 1_555
Ga6 O53 2.265046 1_554
Ga6 O125 2.281203 1_555
Ga6 O123 2.341103 1_555
Ga7 O58 1.808279 1_555
Ga7 O54 1.848426 1_555
Ga7 O126 1.902023 1_555
Ga7 O56 2.274824 1_555
Ga7 O128 2.298872 1_555
Ga7 O130 2.342283 1_555
Ga8 O62 1.884884 1_555
Ga8 O60 1.932014 1_555
Ga8 O134 1.952665 1_555
Ga8 O136 1.985012 1_555
Ga8 O64 2.048615 1_555
Ga8 O132 2.225744 1_555
Ga9 O63 1.851026 1_555
Ga9 O65 1.887016 1_555
Ga9 O61 1.917511 1_555
Ga9 O133 1.980074 1_555
Ga9 O135 2.306228 1_555
Ga9 O137 2.398242 1_555
Ga10 O70 1.821090 1_555
Ga10 O66 1.885364 1_555
Ga10 O138 1.891189 1_555
Ga10 O142 2.188802 1_555
Ga10 O68 2.270125 1_555
Ga10 O140 2.281794 1_555
Ga11 O71 1.900521 1_555
Ga11 O67 1.937065 1_555
Ga11 O143 1.944410 1_555
Ga11 O141 1.968102 1_555
Ga11 O69 2.066440 1_555
Ga11 O139 2.197728 1_555
O0 S0 1.485683 1_555
O1 Si0 1.655177 1_555
O2 Si1 1.654314 1_555
O3 S1 1.520312 1_555
O4 S2 1.457206 1_555
O5 Si2 1.695370 1_655
O6 Si3 1.671729 1_555
O7 S3 1.496514 1_555
O8 Si4 1.704833 1_555
O9 S4 1.485322 1_655
O10 S5 1.532261 1_545
O11 Si5 1.706375 1_545
O12 S5 1.470977 1_555
O13 Si5 1.646673 1_555
O14 Si3 1.656310 1_555
O15 S3 1.484320 1_555
O16 S4 1.487774 1_555
O17 Si4 1.613973 1_555
O18 Si1 1.675166 1_555
O19 S1 1.491477 1_555
O20 Si2 1.623821 1_555
O21 S2 1.511978 1_555
O22 S0 1.490522 1_565
O23 Si0 1.696131 1_565
O24 Si6 1.600771 1_555
O25 S6 1.486753 1_555
O26 Si7 1.605186 1_555
O27 S7 1.487771 1_555
O28 S8 1.469761 1_555
O29 Si8 1.606009 1_555
O30 S9 1.466223 1_555
O31 Si9 1.593425 1_555
O32 Si10 1.595529 1_555
O33 S10 1.464798 1_555
O34 S11 1.464655 1_555
O35 Si11 1.605503 1_555
O36 S11 1.482298 1_555
O37 Si11 1.676715 1_555
O38 S9 1.516596 1_555
O39 Si9 1.698828 1_555
O40 Si10 1.667274 1_555
O41 S10 1.494862 1_555
O42 Si7 1.660659 1_555
O43 S7 1.471422 1_555
O44 S8 1.488151 1_555
O45 Si8 1.648380 1_555
O46 Si6 1.700871 1_555
O47 S6 1.470112 1_555
O48 Si12 1.628237 1_555
O49 Si13 1.630347 1_555
O50 Si14 1.638531 1_555
O51 Si15 1.601528 1_555
O52 S12 1.480112 1_555
O53 S13 1.459046 1_555
O54 Si16 1.632961 1_555
O55 Si17 1.624542 1_555
O56 S14 1.457230 1_555
O57 Si18 1.655800 1_555
O58 Si19 1.605539 1_555
O59 Si20 1.630832 1_555
O60 Si19 1.598250 1_555
O61 Si20 1.613107 1_555
O62 Si16 1.587235 1_555
O63 Si17 1.592724 1_555
O64 S14 1.462614 1_555
O65 Si18 1.593507 1_555
O66 Si14 1.620122 1_555
O67 Si15 1.594530 1_555
O68 S12 1.465086 1_555
O69 S13 1.460497 1_555
O70 Si12 1.590494 1_555
O71 Si13 1.586883 1_555
O72 Si19 1.658842 1_555
O73 Si20 1.651766 1_555
O74 Si16 1.641665 1_555
O75 Si17 1.683175 1_555
O76 S14 1.534306 1_555
O77 Si18 1.622535 1_555
O78 Si14 1.665887 1_555
O79 Si15 1.648204 1_555
O80 S12 1.474279 1_555
O81 S13 1.532731 1_555
O82 Si12 1.662279 1_555
O83 Si13 1.668565 1_555
O84 Si6 1.656164 1_555
O85 S6 1.529023 1_555
O86 Si7 1.649551 1_555
O87 S7 1.489531 1_555
O88 S8 1.504954 1_555
O89 Si8 1.648694 1_555
O90 S9 1.508511 1_555
O91 Si9 1.648980 1_555
O92 Si10 1.629210 1_555
O93 S10 1.502256 1_555
O94 S11 1.467178 1_555
O95 Si11 1.642745 1_555
O96 S5 1.473451 1_545
O97 Si5 1.647892 1_545
O98 Si3 1.590676 1_555
O99 S3 1.486499 1_555
O100 Si4 1.630508 1_555
O101 S4 1.482850 1_655
O102 Si1 1.659498 1_555
O103 S1 1.470110 1_555
O104 S2 1.493425 1_555
O105 Si2 1.632167 1_655
O106 S0 1.491137 1_555
O107 Si0 1.595684 1_555
O108 Si12 1.642466 1_555
O109 Si13 1.688902 1_555
O110 Si15 1.720163 1_555
O111 Si14 1.633506 1_655
O112 S12 1.519318 1_545
O113 S13 1.494247 1_545
O114 Si16 1.697088 1_545
O115 Si17 1.632049 1_545
O116 S14 1.492870 1_555
O117 Si18 1.666878 1_555
O118 Si20 1.644819 1_555
O119 Si19 1.687425 1_655
O120 S11 1.522665 1_555
O121 Si11 1.651236 1_555
O122 Si9 1.649297 1_455
O123 S9 1.458559 1_555
O124 Si10 1.645782 1_565
O125 S10 1.491786 1_565
O126 Si7 1.647706 1_565
O127 S7 1.484942 1_565
O128 S8 1.489902 1_555
O129 Si8 1.631289 1_555
O130 S6 1.467051 1_455
O131 Si6 1.631078 1_555
O132 S0 1.470493 1_565
O133 Si0 1.643425 1_565
O134 Si1 1.592458 1_555
O135 S1 1.466065 1_555
O136 Si2 1.627870 1_555
O137 S2 1.476873 1_555
O138 Si3 1.650624 1_555
O139 S3 1.473485 1_555
O140 S4 1.487944 1_555
O141 Si4 1.626989 1_555
O142 S5 1.478354 1_555
O143 Si5 1.583423 1_555
