# generated using pymatgen
data_Na3ZrGaSi2SO12
_symmetry_space_group_name_H-M   'P 1'
_cell_length_a   9.06624641
_cell_length_b   9.06627302
_cell_length_c   22.59780123
_cell_angle_alpha   91.34805280
_cell_angle_beta   88.65241227
_cell_angle_gamma   120.21441547
_symmetry_Int_Tables_number   1
_chemical_formula_structural   Na3ZrGaSi2SO12
_chemical_formula_sum   'Na18 Zr6 Ga6 Si12 S6 O72'
_cell_volume   1604.54104643
_cell_formula_units_Z   6
loop_
 _symmetry_equiv_pos_site_id
 _symmetry_equiv_pos_as_xyz
  1  'x, y, z'
loop_
 _atom_site_type_symbol
 _atom_site_label
 _atom_site_symmetry_multiplicity
 _atom_site_fract_x
 _atom_site_fract_y
 _atom_site_fract_z
 _atom_site_occupancy
  Na  Na0  1  0.62543504  -0.00028576  0.24102302  1
  Na  Na1  1  -0.00031963  0.64363240  0.24400384  1
  Na  Na2  1  0.00028326  0.37456435  0.74102348  1
  Na  Na3  1  0.35636350  0.00031933  0.74400478  1
  Na  Na4  1  0.29210649  0.33308628  0.57435131  1
  Na  Na5  1  0.66636535  0.97698986  0.57735376  1
  Na  Na6  1  0.66690584  0.70789069  0.07435179  1
  Na  Na7  1  0.02300479  0.33363002  0.07735354  1
  Na  Na8  1  0.95881973  0.66639948  0.90768862  1
  Na  Na9  1  0.33302350  0.31033235  0.91067279  1
  Na  Na10  1  0.33360664  0.04117960  0.40768743  1
  Na  Na11  1  0.68966757  0.66697671  0.41067485  1
  Na  Na12  1  0.00156164  0.02678143  0.49368968  1
  Na  Na13  1  0.97322074  0.99844612  0.99369063  1
  Na  Na14  1  0.66825840  0.36012160  0.82703866  1
  Na  Na15  1  0.63987931  0.33173992  0.32703878  1
  Na  Na16  1  0.33494321  0.69347606  0.16036144  1
  Na  Na17  1  0.30652725  0.66505664  0.66036131  1
  Zr  Zr0  1  0.01610568  0.00255889  0.64642722  1
  Zr  Zr1  1  0.99743934  0.98389381  0.14642808  1
  Zr  Zr2  1  0.68277592  0.33591467  0.97977040  1
  Zr  Zr3  1  0.66408763  0.31722908  0.47976981  1
  Zr  Zr4  1  0.34942186  0.66923826  0.31311074  1
  Zr  Zr5  1  0.33076415  0.65058479  0.81311022  1
  Ga  Ga0  1  0.00386188  0.00636294  0.35202069  1
  Ga  Ga1  1  0.99363863  0.99613843  0.85201952  1
  Ga  Ga2  1  0.67052104  0.33968554  0.68535262  1
  Ga  Ga3  1  0.66031789  0.32947981  0.18535289  1
  Ga  Ga4  1  0.33721079  0.67304257  0.01869271  1
  Ga  Ga5  1  0.32695879  0.66278673  0.51869214  1
  Si  Si0  1  0.29713911  0.01017055  0.25377560  1
  Si  Si1  1  0.71321170  0.69852351  0.25148089  1
  Si  Si2  1  0.30147857  0.28679417  0.75148032  1
  Si  Si3  1  0.98982815  0.70286115  0.75377448  1
  Si  Si4  1  0.96378950  0.34347687  0.58710219  1
  Si  Si5  1  0.37988246  0.03183858  0.58481823  1
  Si  Si6  1  0.96816191  0.62011868  0.08481894  1
  Si  Si7  1  0.65652163  0.03620990  0.08710183  1
  Si  Si8  1  0.63046544  0.67680209  0.92044022  1
  Si  Si9  1  0.04654626  0.36517246  0.91815396  1
  Si  Si10  1  0.63483018  0.95345540  0.41815567  1
  Si  Si11  1  0.32319555  0.36953349  0.42044026  1
  S  S0  1  0.99729470  0.28996482  0.25139425  1
  S  S1  1  0.71003966  0.00270174  0.75138747  1
  S  S2  1  0.66395379  0.62333404  0.58473337  1
  S  S3  1  0.37666325  0.33604276  0.08472982  1
  S  S4  1  0.33058189  0.95671206  0.91805270  1
  S  S5  1  0.04327792  0.66941331  0.41805446  1
  O  O0  1  0.20561098  0.02478917  0.31514953  1
  O  O1  1  0.83349155  0.79306620  0.30918739  1
  O  O2  1  0.98154550  0.18407520  0.30247347  1
  O  O3  1  0.20693547  0.16651156  0.80918793  1
  O  O4  1  0.97520891  0.79438639  0.81515081  1
  O  O5  1  0.81592884  0.01845514  0.80247665  1
  O  O6  1  0.78260980  0.98074641  0.69471654  1
  O  O7  1  0.17934869  0.20694064  0.69268861  1
  O  O8  1  0.01811343  0.82722301  0.69774602  1
  O  O9  1  0.79305933  0.82064995  0.19268842  1
  O  O10  1  0.01925391  0.21738473  0.19471220  1
  O  O11  1  0.17277411  0.98188483  0.19774549  1
  O  O12  1  0.87226180  0.35813383  0.64847520  1
  O  O13  1  0.50017208  0.12636607  0.64252808  1
  O  O14  1  0.64820796  0.51740981  0.63581723  1
  O  O15  1  0.87363841  0.49983040  0.14252868  1
  O  O16  1  0.64186654  0.12773981  0.14847523  1
  O  O17  1  0.48259320  0.35179124  0.13581916  1
  O  O18  1  0.44927248  0.31407963  0.02804227  1
  O  O19  1  0.84601671  0.54029154  0.02602662  1
  O  O20  1  0.68480224  0.16058992  0.03108154  1
  O  O21  1  0.45970682  0.15398135  0.52602602  1
  O  O22  1  0.68592344  0.55072620  0.52804070  1
  O  O23  1  0.83940712  0.31519701  0.53107980  1
  O  O24  1  0.53893730  0.69144261  0.98181823  1
  O  O25  1  0.16685811  0.45974540  0.97586097  1
  O  O26  1  0.31488206  0.85071554  0.96915026  1
  O  O27  1  0.54025592  0.83314439  0.47586035  1
  O  O28  1  0.30855585  0.46105916  0.48181849  1
  O  O29  1  0.14928764  0.68511850  0.46915041  1
  O  O30  1  0.11592488  0.64743427  0.36137211  1
  O  O31  1  0.51266420  0.87360580  0.35936804  1
  O  O32  1  0.35146927  0.49389961  0.36440949  1
  O  O33  1  0.12639084  0.48733381  0.85936856  1
  O  O34  1  0.35256537  0.88407872  0.86137469  1
  O  O35  1  0.50610081  0.64852910  0.86441006  1
  O  O36  1  0.03087181  0.82665456  0.41806557  1
  O  O37  1  0.82126830  0.96687213  0.40933852  1
  O  O38  1  0.16179577  0.17543152  0.41289185  1
  O  O39  1  0.03312600  0.17873102  0.90933751  1
  O  O40  1  0.17334462  0.96913035  0.91806569  1
  O  O41  1  0.82456574  0.83820446  0.91289101  1
  O  O42  1  0.97072272  0.16169818  0.58772656  1
  O  O43  1  0.19114311  0.01762706  0.58709280  1
  O  O44  1  0.81205719  0.79996218  0.58908170  1
  O  O45  1  0.98237195  0.80885693  0.08709400  1
  O  O46  1  0.83830317  0.02927871  0.08772653  1
  O  O47  1  0.20003838  0.18794259  0.08908169  1
  O  O48  1  0.69753512  0.16002027  0.75138421  1
  O  O49  1  0.48793025  0.30020501  0.74265774  1
  O  O50  1  0.82842601  0.50874395  0.74621977  1
  O  O51  1  0.69979655  0.51207034  0.24265671  1
  O  O52  1  0.83998037  0.30246714  0.25138342  1
  O  O53  1  0.49125550  0.17157337  0.24621885  1
  O  O54  1  0.63738019  0.49500066  0.92106348  1
  O  O55  1  0.85780025  0.35098210  0.92044056  1
  O  O56  1  0.47875589  0.13330297  0.92241767  1
  O  O57  1  0.64901668  0.14219570  0.42043998  1
  O  O58  1  0.50499910  0.36261946  0.42106186  1
  O  O59  1  0.86670267  0.52124782  0.42241651  1
  O  O60  1  0.36421591  0.49335611  0.08472169  1
  O  O61  1  0.15461028  0.63352884  0.07600313  1
  O  O62  1  0.49511083  0.84210114  0.07956035  1
  O  O63  1  0.36646901  0.84538844  0.57600245  1
  O  O64  1  0.50664665  0.63578450  0.58472069  1
  O  O65  1  0.15789926  0.50488995  0.57955953  1
  O  O66  1  0.30408775  0.82838793  0.25439912  1
  O  O67  1  0.52445532  0.68432784  0.25376926  1
  O  O68  1  0.14540621  0.46662969  0.25575145  1
  O  O69  1  0.31567168  0.47554616  0.75377030  1
  O  O70  1  0.17161100  0.69591300  0.75439911  1
  O  O71  1  0.53336925  0.85459276  0.75575211  1
loop_
_geom_bond_atom_site_label_1
_geom_bond_atom_site_label_2
_geom_bond_distance
_geom_bond_site_symmetry_2
Na0 O16 2.380932 1_555
Na0 O53 2.411187 1_555
Na0 O52 2.447453 1_555
Na0 O66 2.533387 1_545
Na0 O67 2.547309 1_545
Na0 O31 2.888485 1_545
Na0 O9 2.908576 1_545
Na1 O51 2.356665 1_455
Na1 O66 2.415955 1_555
Na1 O68 2.561581 1_555
Na1 O15 2.597513 1_455
Na1 O52 2.682704 1_455
Na1 O1 2.851605 1_455
Na1 O11 2.861813 1_555
Na1 O30 2.870020 1_555
Na2 O12 2.380915 1_455
Na2 O50 2.411171 1_455
Na2 O48 2.447419 1_455
Na2 O70 2.533399 1_555
Na2 O69 2.547313 1_555
Na2 O33 2.888466 1_555
Na2 O7 2.908582 1_555
Na3 O49 2.356685 1_555
Na3 O70 2.415951 1_545
Na3 O71 2.561609 1_545
Na3 O13 2.597585 1_555
Na3 O48 2.682744 1_555
Na3 O3 2.851585 1_555
Na3 O8 2.861778 1_545
Na3 O34 2.870057 1_545
Na4 O28 2.380371 1_555
Na4 O65 2.410949 1_555
Na4 O64 2.447103 1_555
Na4 O42 2.533683 1_455
Na4 O43 2.547950 1_555
Na4 O7 2.888389 1_555
Na4 O21 2.908629 1_555
Na5 O63 2.356743 1_555
Na5 O42 2.415489 1_565
Na5 O44 2.561467 1_555
Na5 O27 2.598106 1_555
Na5 O64 2.682996 1_555
Na5 O13 2.851152 1_565
Na5 O23 2.861616 1_565
Na5 O6 2.869984 1_555
Na6 O24 2.380358 1_554
Na6 O62 2.410902 1_555
Na6 O60 2.447038 1_555
Na6 O46 2.533720 1_565
Na6 O45 2.547993 1_555
Na6 O9 2.888377 1_555
Na6 O19 2.908663 1_555
Na7 O61 2.356768 1_555
Na7 O46 2.415449 1_455
Na7 O47 2.561481 1_555
Na7 O25 2.598136 1_554
Na7 O60 2.683031 1_555
Na7 O15 2.851144 1_455
Na7 O20 2.861544 1_455
Na7 O10 2.869920 1_555
Na8 O4 2.380643 1_555
Na8 O41 2.411308 1_555
Na8 O40 2.447299 1_655
Na8 O54 2.534110 1_555
Na8 O55 2.547517 1_555
Na8 O19 2.888376 1_556
Na8 O33 2.908088 1_655
Na9 O39 2.356742 1_555
Na9 O54 2.415486 1_555
Na9 O56 2.561837 1_555
Na9 O3 2.597837 1_555
Na9 O40 2.683029 1_545
Na9 O25 2.851359 1_555
Na9 O35 2.861444 1_555
Na9 O18 2.870158 1_556
Na10 O0 2.380669 1_555
Na10 O38 2.411341 1_555
Na10 O36 2.447327 1_545
Na10 O58 2.534112 1_555
Na10 O57 2.547450 1_555
Na10 O21 2.888353 1_555
Na10 O31 2.908042 1_545
Na11 O37 2.356734 1_555
Na11 O58 2.415491 1_555
Na11 O59 2.561846 1_555
Na11 O1 2.597917 1_555
Na11 O36 2.683033 1_655
Na11 O27 2.851335 1_555
Na11 O32 2.861457 1_555
Na11 O22 2.870101 1_555
Na12 O38 2.298032 1_555
Na12 O37 2.409263 1_445
Na12 O42 2.506805 1_455
Na12 O36 2.569274 1_545
Na12 O43 2.781846 1_555
Na12 O44 2.881992 1_445
Na13 O41 2.298081 1_555
Na13 O39 2.409276 1_665
Na13 O46 2.506776 1_566
Na13 O40 2.569293 1_655
Na13 O45 2.781899 1_556
Na13 O47 2.881929 1_666
Na14 O50 2.298145 1_555
Na14 O49 2.409978 1_555
Na14 O54 2.506519 1_555
Na14 O48 2.569410 1_555
Na14 O55 2.781543 1_555
Na14 O56 2.881765 1_555
Na15 O53 2.298147 1_555
Na15 O51 2.410027 1_555
Na15 O58 2.506501 1_555
Na15 O52 2.569411 1_555
Na15 O57 2.781551 1_555
Na15 O59 2.881748 1_555
Na16 O62 2.297833 1_555
Na16 O61 2.409556 1_555
Na16 O66 2.506848 1_555
Na16 O60 2.569305 1_555
Na16 O67 2.781499 1_555
Na16 O68 2.882128 1_555
Na17 O65 2.297833 1_555
Na17 O63 2.409584 1_555
Na17 O70 2.506878 1_555
Na17 O64 2.569316 1_555
Na17 O69 2.781511 1_555
Na17 O71 2.882099 1_555
Ga0 O0 1.922264 1_555
Ga0 O37 1.967430 1_445
Ga0 O1 2.009547 1_445
Ga0 O38 2.019000 1_555
Ga0 O2 2.077048 1_455
Ga0 O36 2.339907 1_545
Ga1 O4 1.922250 1_555
Ga1 O39 1.967426 1_665
Ga1 O3 2.009548 1_665
Ga1 O41 2.019037 1_555
Ga1 O5 2.076966 1_565
Ga1 O40 2.339891 1_655
Ga2 O12 1.922178 1_555
Ga2 O49 1.967248 1_555
Ga2 O13 2.009511 1_555
Ga2 O50 2.018813 1_555
Ga2 O14 2.076974 1_555
Ga2 O48 2.339429 1_555
Ga3 O16 1.922161 1_555
Ga3 O51 1.967224 1_555
Ga3 O15 2.009529 1_555
Ga3 O53 2.018830 1_555
Ga3 O17 2.076939 1_555
Ga3 O52 2.339377 1_555
Ga4 O24 1.922201 1_554
Ga4 O61 1.967321 1_555
Ga4 O25 2.009485 1_554
Ga4 O62 2.018806 1_555
Ga4 O26 2.076745 1_554
Ga4 O60 2.339499 1_555
Ga5 O28 1.922190 1_555
Ga5 O63 1.967328 1_555
Ga5 O27 2.009510 1_555
Ga5 O65 2.018811 1_555
Ga5 O29 2.076726 1_555
Ga5 O64 2.339479 1_555
O0 Si0 1.636340 1_555
O1 Si1 1.642534 1_555
O2 S0 1.476758 1_555
O3 Si2 1.642579 1_555
O4 Si3 1.636370 1_555
O5 S1 1.476916 1_555
O6 S1 1.480786 1_565
O6 Zr0 2.278474 1_665
O7 Si2 1.652985 1_555
O7 Zr0 1.984508 1_555
O8 Si3 1.643461 1_455
O8 Zr0 1.997257 1_565
O9 Si1 1.652994 1_555
O9 Zr1 1.984502 1_555
O10 S0 1.481054 1_455
O10 Zr1 2.278370 1_445
O11 Si0 1.643496 1_565
O11 Zr1 1.997224 1_455
O12 Si4 1.636431 1_555
O13 Si5 1.642609 1_555
O14 S2 1.477043 1_555
O15 Si6 1.642609 1_555
O16 Si7 1.636440 1_555
O17 S3 1.477159 1_555
O18 S3 1.481304 1_555
O18 Zr2 2.278277 1_554
O19 Si6 1.653042 1_555
O19 Zr2 1.984417 1_554
O20 Si7 1.643428 1_555
O20 Zr2 1.997143 1_554
O21 Si5 1.653041 1_555
O21 Zr3 1.984467 1_555
O22 S2 1.481414 1_555
O22 Zr3 2.278211 1_555
O23 Si4 1.643469 1_555
O23 Zr3 1.997099 1_555
O24 Si8 1.636480 1_555
O25 Si9 1.642712 1_555
O26 S4 1.477800 1_555
O27 Si10 1.642682 1_555
O28 Si11 1.636466 1_555
O29 S5 1.477824 1_555
O30 S5 1.481421 1_555
O30 Zr4 2.278221 1_555
O31 Si10 1.653061 1_555
O31 Zr4 1.984388 1_555
O32 Si11 1.643547 1_555
O32 Zr4 1.997159 1_555
O33 Si9 1.653010 1_555
O33 Zr5 1.984464 1_555
O34 S4 1.481288 1_555
O34 Zr5 2.278235 1_555
O35 Si8 1.643519 1_555
O35 Zr5 1.997179 1_555
O36 S5 1.485372 1_555
O37 Si10 1.640107 1_555
O38 Si11 1.634937 1_555
O39 Si9 1.640124 1_555
O40 S4 1.485393 1_555
O41 Si8 1.634938 1_555
O42 Si4 1.680963 1_555
O42 Zr0 2.173429 1_655
O43 Si5 1.649720 1_555
O43 Zr0 2.006284 1_555
O44 S2 1.487155 1_555
O44 Zr0 2.248608 1_665
O45 Si6 1.649721 1_555
O45 Zr1 2.006271 1_555
O46 Si7 1.680974 1_555
O46 Zr1 2.173422 1_545
O47 S3 1.487131 1_555
O47 Zr1 2.248646 1_445
O48 S1 1.486578 1_555
O49 Si2 1.640264 1_555
O50 Si3 1.635045 1_555
O51 Si1 1.640267 1_555
O52 S0 1.486529 1_555
O53 Si0 1.635048 1_555
O54 Si8 1.681079 1_555
O54 Zr2 2.173207 1_555
O55 Si9 1.649867 1_655
O55 Zr2 2.006130 1_555
O56 S4 1.487201 1_545
O56 Zr2 2.248645 1_555
O57 Si10 1.649835 1_545
O57 Zr3 2.006175 1_555
O58 Si11 1.681089 1_555
O58 Zr3 2.173206 1_555
O59 S5 1.487081 1_655
O59 Zr3 2.248677 1_555
O60 S3 1.486244 1_555
O61 Si6 1.640222 1_455
O62 Si7 1.634995 1_565
O63 Si5 1.640228 1_565
O64 S2 1.486202 1_555
O65 Si4 1.635012 1_455
O66 Si0 1.681072 1_565
O66 Zr4 2.173420 1_555
O67 Si1 1.649940 1_555
O67 Zr4 2.006300 1_555
O68 S0 1.487401 1_455
O68 Zr4 2.248702 1_555
O69 Si2 1.649916 1_555
O69 Zr5 2.006298 1_555
O70 Si3 1.681068 1_455
O70 Zr5 2.173401 1_555
O71 S1 1.487434 1_565
O71 Zr5 2.248663 1_555
