# generated using pymatgen
data_Na5Mg2Sn2P5SO24
_symmetry_space_group_name_H-M   'P 1'
_cell_length_a   8.89564748
_cell_length_b   8.89735997
_cell_length_c   22.42593660
_cell_angle_alpha   90.34158027
_cell_angle_beta   89.67457345
_cell_angle_gamma   120.18614591
_symmetry_Int_Tables_number   1
_chemical_formula_structural   Na5Mg2Sn2P5SO24
_chemical_formula_sum   'Na15 Mg6 Sn6 P15 S3 O72'
_cell_volume   1534.23702686
_cell_formula_units_Z   3
loop_
 _symmetry_equiv_pos_site_id
 _symmetry_equiv_pos_as_xyz
  1  'x, y, z'
loop_
 _atom_site_type_symbol
 _atom_site_label
 _atom_site_symmetry_multiplicity
 _atom_site_fract_x
 _atom_site_fract_y
 _atom_site_fract_z
 _atom_site_occupancy
  Na  Na0  1  0.63942893  0.99936920  0.25212954  1
  Na  Na1  1  0.36869863  0.37424488  0.24723666  1
  Na  Na2  1  0.99356449  0.62348005  0.25248631  1
  Na  Na3  1  0.64037920  0.63176045  0.74727049  1
  Na  Na4  1  0.99130201  0.36013546  0.74874030  1
  Na  Na5  1  0.36897289  0.00942321  0.74876542  1
  Na  Na6  1  0.30459823  0.96464884  0.07617830  1
  Na  Na7  1  0.03716823  0.34323596  0.07785662  1
  Na  Na8  1  0.70758284  0.67810377  0.41697085  1
  Na  Na9  1  0.00327779  0.00287086  0.49981337  1
  Na  Na10  1  0.99958052  0.99921333  0.99057462  1
  Na  Na11  1  0.66736287  0.32918172  0.83375920  1
  Na  Na12  1  0.67775306  0.32962815  0.33527945  1
  Na  Na13  1  0.34307586  0.66249672  0.16160273  1
  Na  Na14  1  0.33343777  0.66669389  0.66320153  1
  Mg  Mg0  1  0.99165361  0.99881167  0.35434485  1
  Mg  Mg1  1  0.00708419  0.00651155  0.85349690  1
  Mg  Mg2  1  0.66765119  0.33455576  0.68193303  1
  Mg  Mg3  1  0.67117907  0.33841043  0.18116670  1
  Mg  Mg4  1  0.33329177  0.66624502  0.01663789  1
  Mg  Mg5  1  0.33033307  0.66544615  0.31932675  1
  Sn  Sn0  1  0.99962474  0.99927656  0.64766123  1
  Sn  Sn1  1  0.98979958  0.99699559  0.14750772  1
  Sn  Sn2  1  0.66763167  0.33023339  0.98131327  1
  Sn  Sn3  1  0.67436466  0.32822549  0.48590682  1
  Sn  Sn4  1  0.33182640  0.67376708  0.51975699  1
  Sn  Sn5  1  0.32870737  0.66829924  0.82005029  1
  P  P0  1  0.70389221  0.70279006  0.25265090  1
  P  P1  1  0.00048662  0.29350520  0.25142704  1
  P  P2  1  0.29308953  0.29251655  0.75169504  1
  P  P3  1  0.99802263  0.70892466  0.75178104  1
  P  P4  1  0.70907675  0.99962165  0.75243399  1
  P  P5  1  0.96467158  0.33274034  0.58583581  1
  P  P6  1  0.37273194  0.04246269  0.58539433  1
  P  P7  1  0.66501963  0.62713425  0.58376115  1
  P  P8  1  0.95964048  0.62681986  0.08479461  1
  P  P9  1  0.66260138  0.03729083  0.08551954  1
  P  P10  1  0.37607255  0.33669156  0.08608977  1
  P  P11  1  0.03657964  0.36765399  0.91929078  1
  P  P12  1  0.33036223  0.96319152  0.91944090  1
  P  P13  1  0.62545278  0.96190162  0.41500483  1
  P  P14  1  0.03890007  0.66779265  0.41527038  1
  S  S0  1  0.29213679  0.00043597  0.25107797  1
  S  S1  1  0.62899920  0.66730787  0.91770129  1
  S  S2  1  0.33174584  0.37026975  0.41600549  1
  O  O0  1  0.20674975  0.02911968  0.30171493  1
  O  O1  1  0.82256692  0.78657033  0.30616414  1
  O  O2  1  0.97171436  0.17149600  0.30255344  1
  O  O3  1  0.20900521  0.17666909  0.80434672  1
  O  O4  1  0.96699381  0.79351528  0.80488680  1
  O  O5  1  0.82436343  0.02945396  0.80502127  1
  O  O6  1  0.77990560  0.95428643  0.69449683  1
  O  O7  1  0.17517901  0.22116423  0.69460691  1
  O  O8  1  0.04390302  0.82597830  0.69452802  1
  O  O9  1  0.78428595  0.82250194  0.19573417  1
  O  O10  1  0.04138271  0.21968452  0.19184951  1
  O  O11  1  0.18501421  0.96597075  0.19459776  1
  O  O12  1  0.88566967  0.36220030  0.64148368  1
  O  O13  1  0.47880229  0.12107092  0.64124749  1
  O  O14  1  0.63870760  0.52025824  0.63917751  1
  O  O15  1  0.88151211  0.51978691  0.14119495  1
  O  O16  1  0.63497963  0.11734048  0.14222320  1
  O  O17  1  0.47656925  0.35530545  0.14302235  1
  O  O18  1  0.45506366  0.29375928  0.03067646  1
  O  O19  1  0.84247564  0.54635925  0.02940838  1
  O  O20  1  0.70750925  0.16086687  0.03096549  1
  O  O21  1  0.45244652  0.15233958  0.52765617  1
  O  O22  1  0.69381264  0.54802706  0.52458543  1
  O  O23  1  0.85531467  0.29911210  0.52810825  1
  O  O24  1  0.53905810  0.68724146  0.96919713  1
  O  O25  1  0.14624451  0.45792836  0.97399713  1
  O  O26  1  0.31528413  0.85620210  0.97418557  1
  O  O27  1  0.54130968  0.83929166  0.47020177  1
  O  O28  1  0.30540618  0.45189906  0.47025526  1
  O  O29  1  0.14924673  0.69105105  0.47155295  1
  O  O30  1  0.11404556  0.63346678  0.35880121  1
  O  O31  1  0.51808330  0.88300432  0.35847446  1
  O  O32  1  0.36583019  0.48040663  0.36251287  1
  O  O33  1  0.11286815  0.47868644  0.85959917  1
  O  O34  1  0.37144829  0.89004239  0.85985289  1
  O  O35  1  0.52354593  0.63302737  0.86044908  1
  O  O36  1  0.01463641  0.82615821  0.41178206  1
  O  O37  1  0.80510956  0.97813349  0.41227764  1
  O  O38  1  0.18116301  0.19762573  0.40984520  1
  O  O39  1  0.01489804  0.18891389  0.91204380  1
  O  O40  1  0.16905342  0.97697134  0.91207890  1
  O  O41  1  0.79960072  0.82090519  0.91092346  1
  O  O42  1  0.98276027  0.16807767  0.58853322  1
  O  O43  1  0.18820202  0.02107446  0.58765988  1
  O  O44  1  0.83086047  0.81093408  0.58673311  1
  O  O45  1  0.98670657  0.81619549  0.08914993  1
  O  O46  1  0.83625933  0.02998329  0.08783523  1
  O  O47  1  0.18914704  0.16236313  0.08904026  1
  O  O48  1  0.68338399  0.15695190  0.74409489  1
  O  O49  1  0.47639716  0.31830316  0.74319300  1
  O  O50  1  0.84044291  0.52511477  0.74344641  1
  O  O51  1  0.68356904  0.52078323  0.24470479  1
  O  O52  1  0.83501494  0.30790837  0.24464358  1
  O  O53  1  0.46694935  0.15698254  0.24438984  1
  O  O54  1  0.64186226  0.50572898  0.92177670  1
  O  O55  1  0.85507156  0.36018644  0.92151255  1
  O  O56  1  0.50079927  0.14859528  0.92150189  1
  O  O57  1  0.63809599  0.14331796  0.42267184  1
  O  O58  1  0.49773321  0.36329859  0.42221760  1
  O  O59  1  0.84813733  0.50147233  0.42218522  1
  O  O60  1  0.34614713  0.48956415  0.07827699  1
  O  O61  1  0.14190361  0.64877531  0.07779594  1
  O  O62  1  0.50201241  0.85889175  0.07708580  1
  O  O63  1  0.35525832  0.85913194  0.57896417  1
  O  O64  1  0.49925269  0.64353381  0.57633263  1
  O  O65  1  0.14779571  0.49816507  0.57760240  1
  O  O66  1  0.31007198  0.84385286  0.25554252  1
  O  O67  1  0.52289190  0.68729761  0.25685984  1
  O  O68  1  0.16411238  0.47670287  0.25539009  1
  O  O69  1  0.31300956  0.48088219  0.75719413  1
  O  O70  1  0.16748592  0.69072269  0.75561793  1
  O  O71  1  0.52106138  0.82913317  0.75695750  1
loop_
_geom_bond_atom_site_label_1
_geom_bond_atom_site_label_2
_geom_bond_distance
_geom_bond_site_symmetry_2
Na0 O52 2.406330 1_565
Na0 O67 2.429643 1_555
Na0 O66 2.535028 1_555
Na0 O53 2.553524 1_565
Na0 O31 2.607898 1_555
Na0 O16 2.692960 1_565
Na0 O9 2.780888 1_555
Na0 O2 2.797576 1_565
Na1 O68 2.416445 1_555
Na1 O67 2.416678 1_555
Na1 O51 2.423885 1_555
Na1 O53 2.490297 1_555
Na1 O17 2.558061 1_555
Na1 O32 2.751428 1_555
Na1 O10 2.811759 1_555
Na1 O0 2.928031 1_555
Na2 O52 2.432747 1_555
Na2 O51 2.437100 1_555
Na2 O68 2.450700 1_655
Na2 O66 2.495089 1_655
Na2 O30 2.602260 1_655
Na2 O15 2.673919 1_555
Na2 O1 2.836652 1_555
Na2 O11 2.945296 1_655
Na3 O50 2.402186 1_555
Na3 O49 2.412829 1_555
Na3 O71 2.474854 1_555
Na3 O69 2.529268 1_555
Na3 O14 2.611040 1_555
Na3 O35 2.739324 1_555
Na3 O6 2.760078 1_555
Na3 O4 2.828055 1_555
Na4 O48 2.408980 1_555
Na4 O50 2.440194 1_555
Na4 O69 2.508375 1_655
Na4 O70 2.548178 1_655
Na4 O12 2.590847 1_555
Na4 O33 2.704624 1_655
Na4 O7 2.769767 1_655
Na4 O5 2.843241 1_555
Na5 O49 2.417282 1_555
Na5 O48 2.421354 1_555
Na5 O70 2.483515 1_545
Na5 O71 2.574119 1_545
Na5 O13 2.604031 1_555
Na5 O34 2.718579 1_545
Na5 O8 2.788438 1_545
Na5 O3 2.807148 1_555
Na6 O62 2.373219 1_555
Na6 O61 2.429973 1_555
Na6 O47 2.457622 1_565
Na6 O45 2.462740 1_455
Na6 O26 2.497030 1_554
Na6 O18 2.736046 1_565
Na6 O11 2.857350 1_555
Na6 O16 2.947393 1_565
Na7 O60 2.377251 1_555
Na7 O61 2.389823 1_555
Na7 O46 2.450707 1_455
Na7 O25 2.532725 1_554
Na7 O47 2.584001 1_555
Na7 O20 2.750998 1_455
Na7 O10 2.796611 1_555
Na7 O15 2.922461 1_455
Na8 O37 2.358640 1_555
Na8 O36 2.364202 1_655
Na8 O59 2.454916 1_555
Na8 O58 2.467231 1_555
Na8 O22 2.658216 1_555
Na8 O1 2.675740 1_555
Na8 O27 2.786089 1_555
Na8 O32 2.909776 1_555
Na9 O43 2.525562 1_555
Na9 O42 2.526527 1_455
Na9 O44 2.537740 1_445
Na9 O36 2.549539 1_545
Na9 O37 2.579469 1_445
Na9 O38 2.612549 1_555
Na10 O40 2.382530 1_655
Na10 O39 2.402157 1_665
Na10 O41 2.456916 1_555
Na10 O46 2.701860 1_566
Na10 O47 2.714654 1_666
Na10 O45 2.721062 1_556
Na11 O56 2.501883 1_555
Na11 O55 2.510929 1_555
Na11 O48 2.567392 1_555
Na11 O54 2.594483 1_555
Na11 O50 2.611351 1_555
Na11 O49 2.625216 1_555
Na12 O59 2.470013 1_555
Na12 O57 2.481162 1_555
Na12 O52 2.522046 1_555
Na12 O58 2.625914 1_555
Na12 O51 2.640584 1_555
Na12 O53 2.672087 1_555
Na13 O60 2.422285 1_555
Na13 O62 2.483827 1_555
Na13 O61 2.562324 1_555
Na13 O67 2.617073 1_555
Na13 O68 2.654767 1_555
Na13 O66 2.748972 1_555
Na14 O65 2.484371 1_555
Na14 O63 2.497631 1_555
Na14 O64 2.506305 1_555
Na14 O70 2.607244 1_555
Na14 O71 2.621667 1_555
Na14 O69 2.635225 1_555
Mg0 O2 2.009671 1_565
Mg0 O1 2.033145 1_555
Mg0 O37 2.036372 1_555
Mg0 O36 2.098370 1_655
Mg0 O38 2.125779 1_665
Mg0 O0 2.141543 1_665
Mg1 O3 1.999028 1_555
Mg1 O4 2.051126 1_445
Mg1 O5 2.054712 1_455
Mg1 O39 2.055410 1_555
Mg1 O40 2.068197 1_545
Mg1 O41 2.173825 1_445
Mg2 O13 2.012571 1_555
Mg2 O12 2.036580 1_555
Mg2 O14 2.040862 1_555
Mg2 O50 2.125027 1_555
Mg2 O49 2.128662 1_555
Mg2 O48 2.170451 1_555
Mg3 O15 1.967333 1_555
Mg3 O17 2.007830 1_555
Mg3 O16 2.020158 1_555
Mg3 O51 2.114192 1_555
Mg3 O52 2.156409 1_555
Mg3 O53 2.228336 1_555
Mg4 O25 2.003489 1_554
Mg4 O26 2.020322 1_554
Mg4 O24 2.038044 1_554
Mg4 O62 2.106328 1_555
Mg4 O61 2.124553 1_555
Mg4 O60 2.145581 1_555
Mg5 O30 1.999901 1_555
Mg5 O31 2.013056 1_555
Mg5 O32 2.072070 1_555
Mg5 O68 2.135576 1_555
Mg5 O67 2.139041 1_555
Mg5 O66 2.217199 1_555
O0 S0 1.453724 1_555
O1 P0 1.524042 1_555
O2 P1 1.513486 1_655
O3 P2 1.498422 1_555
O4 P3 1.501828 1_555
O5 P4 1.499754 1_545
O6 P4 1.577303 1_555
O6 Sn0 2.068472 1_555
O7 P2 1.574226 1_555
O7 Sn0 2.082838 1_445
O8 P3 1.575534 1_455
O8 Sn0 2.066888 1_455
O9 P0 1.585870 1_555
O9 Sn1 2.016328 1_555
O10 P1 1.604109 1_555
O10 Sn1 2.047568 1_445
O11 S0 1.523697 1_565
O11 Sn1 2.171041 1_455
O12 P5 1.513727 1_555
O13 P6 1.512522 1_555
O14 P7 1.513422 1_555
O15 P8 1.525948 1_555
O16 P9 1.531776 1_555
O17 P10 1.522604 1_555
O18 P10 1.561506 1_555
O18 Sn2 2.066354 1_554
O19 P8 1.547691 1_555
O19 Sn2 2.065631 1_554
O20 P9 1.560142 1_555
O20 Sn2 2.049040 1_554
O21 P6 1.562910 1_555
O21 Sn3 2.027919 1_555
O22 P7 1.577470 1_555
O22 Sn3 2.061103 1_555
O23 P5 1.558469 1_555
O23 Sn3 1.998334 1_555
O24 S1 1.461168 1_555
O25 P11 1.521788 1_555
O26 P12 1.521533 1_555
O27 P13 1.570677 1_555
O27 Sn4 2.027982 1_555
O28 S2 1.489922 1_555
O28 Sn4 2.166730 1_555
O29 P14 1.551187 1_555
O29 Sn4 2.025651 1_555
O30 P14 1.528039 1_555
O31 P13 1.530069 1_555
O32 S2 1.484042 1_555
O33 P11 1.599906 1_555
O33 Sn5 2.015040 1_555
O34 P12 1.601936 1_555
O34 Sn5 2.015509 1_555
O35 S1 1.530616 1_555
O35 Sn5 2.119325 1_555
O36 P14 1.531480 1_555
O37 P13 1.531540 1_555
O38 S2 1.450290 1_555
O39 P11 1.510476 1_555
O40 P12 1.510368 1_555
O41 S1 1.451925 1_555
O42 P5 1.553769 1_555
O42 Sn0 2.070996 1_545
O43 P6 1.555119 1_555
O43 Sn0 2.076675 1_445
O44 P7 1.558481 1_555
O44 Sn0 2.096430 1_555
O45 P8 1.580153 1_555
O45 Sn1 2.057197 1_555
O46 P9 1.579648 1_555
O46 Sn1 2.042315 1_545
O47 P10 1.606700 1_555
O47 Sn1 2.097972 1_445
O48 P4 1.540149 1_545
O49 P2 1.539073 1_555
O50 P3 1.538981 1_555
O51 P0 1.545751 1_555
O52 P1 1.548791 1_655
O53 S0 1.484068 1_555
O54 S1 1.501774 1_555
O54 Sn2 2.159077 1_555
O55 P11 1.582775 1_655
O55 Sn2 2.044934 1_555
O56 P12 1.583293 1_545
O56 Sn2 2.048973 1_555
O57 P13 1.569066 1_545
O57 Sn3 2.065275 1_555
O58 S2 1.515928 1_555
O58 Sn3 2.264974 1_555
O59 P14 1.602500 1_655
O59 Sn3 2.100636 1_555
O60 P10 1.522858 1_555
O61 P8 1.539654 1_455
O62 P9 1.521582 1_565
O63 P6 1.564646 1_565
O63 Sn4 2.039072 1_555
O64 P7 1.562995 1_555
O64 Sn4 2.080564 1_555
O65 P5 1.562940 1_455
O65 Sn4 2.057138 1_555
O66 S0 1.483842 1_565
O67 P0 1.547779 1_555
O68 P1 1.548305 1_555
O69 P2 1.598303 1_555
O69 Sn5 2.127711 1_555
O70 P3 1.597903 1_455
O70 Sn5 2.121146 1_555
O71 P4 1.599122 1_555
O71 Sn5 2.124128 1_555
