# generated using pymatgen
data_Na7CaHf3Si3(PO8)3
_symmetry_space_group_name_H-M   'P 1'
_cell_length_a   9.21733008
_cell_length_b   9.21006674
_cell_length_c   22.61938765
_cell_angle_alpha   90.04328490
_cell_angle_beta   90.09073421
_cell_angle_gamma   119.95054702
_symmetry_Int_Tables_number   1
_chemical_formula_structural   Na7CaHf3Si3(PO8)3
_chemical_formula_sum   'Na21 Ca3 Hf9 Si9 P9 O72'
_cell_volume   1663.77409855
_cell_formula_units_Z   3
loop_
 _symmetry_equiv_pos_site_id
 _symmetry_equiv_pos_as_xyz
  1  'x, y, z'
loop_
 _atom_site_type_symbol
 _atom_site_label
 _atom_site_symmetry_multiplicity
 _atom_site_fract_x
 _atom_site_fract_y
 _atom_site_fract_z
 _atom_site_occupancy
  Na  Na0  1  0.63926678  0.01219718  0.24454819  1
  Na  Na1  1  0.37450590  0.36222052  0.24508795  1
  Na  Na2  1  0.98845375  0.63055521  0.24910984  1
  Na  Na3  1  0.63838507  0.62248536  0.74861381  1
  Na  Na4  1  0.98663181  0.37207443  0.74380579  1
  Na  Na5  1  0.37231052  0.00675469  0.74467927  1
  Na  Na6  1  0.02573170  0.68399135  0.58456519  1
  Na  Na7  1  0.66808939  0.97885390  0.57777861  1
  Na  Na8  1  0.32044231  0.98112125  0.08332573  1
  Na  Na9  1  0.65595322  0.68423737  0.08360669  1
  Na  Na10  1  0.02419034  0.33440737  0.07822102  1
  Na  Na11  1  0.33328162  0.30465688  0.91863045  1
  Na  Na12  1  0.97026420  0.28806205  0.41669003  1
  Na  Na13  1  0.31777659  0.03023739  0.41547100  1
  Na  Na14  1  0.71296239  0.68191688  0.41541777  1
  Na  Na15  1  0.00920597  0.01306880  0.49365826  1
  Na  Na16  1  0.98281579  0.99409884  0.99659621  1
  Na  Na17  1  0.69195336  0.34984726  0.83485810  1
  Na  Na18  1  0.66457482  0.33309143  0.33399864  1
  Na  Na19  1  0.34185268  0.66885533  0.16453935  1
  Na  Na20  1  0.32071733  0.64663965  0.66297185  1
  Ca  Ca0  1  0.99901822  0.00042756  0.35273813  1
  Ca  Ca1  1  0.66895958  0.33735888  0.68231619  1
  Ca  Ca2  1  0.66416576  0.33142543  0.17666197  1
  Hf  Hf0  1  0.99098387  0.99109032  0.85644260  1
  Hf  Hf1  1  0.00621868  0.00361500  0.64635239  1
  Hf  Hf2  1  0.00010043  0.00317462  0.14792909  1
  Hf  Hf3  1  0.67087508  0.33096867  0.98022750  1
  Hf  Hf4  1  0.66840524  0.33168290  0.48205274  1
  Hf  Hf5  1  0.33656718  0.66494319  0.01338068  1
  Hf  Hf6  1  0.33083604  0.65949559  0.51765130  1
  Hf  Hf7  1  0.33385814  0.66627527  0.31751209  1
  Hf  Hf8  1  0.32753738  0.66296201  0.81669970  1
  Si  Si0  1  0.00768203  0.71186009  0.75043888  1
  Si  Si1  1  0.97107453  0.33405442  0.58583999  1
  Si  Si2  1  0.66390422  0.02905396  0.08495985  1
  Si  Si3  1  0.36432806  0.33481336  0.08274133  1
  Si  Si4  1  0.62902545  0.66219582  0.91563476  1
  Si  Si5  1  0.03286848  0.36900825  0.91575523  1
  Si  Si6  1  0.62129476  0.96377120  0.41923499  1
  Si  Si7  1  0.34305369  0.37713873  0.41609830  1
  Si  Si8  1  0.03637387  0.65894886  0.41834869  1
  P  P0  1  0.29647013  0.99325339  0.25061117  1
  P  P1  1  0.69747085  0.70290759  0.25049753  1
  P  P2  1  0.00674481  0.30464852  0.25039015  1
  P  P3  1  0.28372018  0.29092571  0.75373905  1
  P  P4  1  0.70802337  0.99171548  0.75073561  1
  P  P5  1  0.36565747  0.03259786  0.58414420  1
  P  P6  1  0.66751262  0.63639727  0.58516940  1
  P  P7  1  0.96816360  0.63507950  0.08282500  1
  P  P8  1  0.33575320  0.96282373  0.91621457  1
  O  O0  1  0.21625983  0.01119030  0.30668113  1
  O  O1  1  0.79457473  0.78128763  0.30703993  1
  O  O2  1  0.98394761  0.20546557  0.30648008  1
  O  O3  1  0.19604874  0.19002525  0.80955363  1
  O  O4  1  0.99699493  0.82292781  0.80472930  1
  O  O5  1  0.82239673  0.01368403  0.80413189  1
  O  O6  1  0.79502360  0.97269367  0.69403518  1
  O  O7  1  0.17079729  0.19922634  0.69888072  1
  O  O8  1  0.02788261  0.82288564  0.69014918  1
  O  O9  1  0.79665976  0.81613040  0.19554749  1
  O  O10  1  0.02072619  0.20372143  0.19548068  1
  O  O11  1  0.18293164  0.97736505  0.19521350  1
  O  O12  1  0.90387283  0.37315869  0.64580817  1
  O  O13  1  0.46387750  0.10089967  0.64131474  1
  O  O14  1  0.63802265  0.54308746  0.64300923  1
  O  O15  1  0.91329843  0.53636148  0.14088015  1
  O  O16  1  0.62095374  0.08509845  0.14651318  1
  O  O17  1  0.47166075  0.38578619  0.14281253  1
  O  O18  1  0.46123497  0.30117103  0.02765563  1
  O  O19  1  0.84017022  0.53912353  0.03258849  1
  O  O20  1  0.70176171  0.16921731  0.03306780  1
  O  O21  1  0.45843388  0.14707093  0.53023154  1
  O  O22  1  0.69121317  0.54110075  0.53201632  1
  O  O23  1  0.83990822  0.30560031  0.53024010  1
  O  O24  1  0.53581440  0.68490623  0.97357785  1
  O  O25  1  0.15165481  0.46422403  0.97278630  1
  O  O26  1  0.31205646  0.85524472  0.97143831  1
  O  O27  1  0.52626508  0.85169094  0.47679396  1
  O  O28  1  0.32266229  0.48124719  0.47003814  1
  O  O29  1  0.15349116  0.67967036  0.47517754  1
  O  O30  1  0.12708604  0.63235200  0.35841431  1
  O  O31  1  0.50510347  0.86976321  0.35947046  1
  O  O32  1  0.36752500  0.49012164  0.35540997  1
  O  O33  1  0.12848739  0.48738396  0.85758411  1
  O  O34  1  0.35632587  0.87419604  0.86079715  1
  O  O35  1  0.50843714  0.63792658  0.85803862  1
  O  O36  1  0.01396413  0.82098961  0.41785339  1
  O  O37  1  0.80626915  0.98778028  0.41832817  1
  O  O38  1  0.18064535  0.19359933  0.41692675  1
  O  O39  1  0.03095591  0.19010689  0.91168222  1
  O  O40  1  0.18285222  0.98990142  0.91082725  1
  O  O41  1  0.81482232  0.82780418  0.91199949  1
  O  O42  1  0.97372610  0.15605496  0.58834541  1
  O  O43  1  0.18652690  0.01185554  0.58685383  1
  O  O44  1  0.83534788  0.81078826  0.58747930  1
  O  O45  1  0.97842685  0.80988305  0.08874496  1
  O  O46  1  0.83369164  0.00979595  0.08875284  1
  O  O47  1  0.17944042  0.15975893  0.08906015  1
  O  O48  1  0.68268099  0.14387297  0.74922677  1
  O  O49  1  0.45741414  0.30807880  0.74984872  1
  O  O50  1  0.84125633  0.52886736  0.75342228  1
  O  O51  1  0.67461887  0.52629042  0.24573286  1
  O  O52  1  0.85697429  0.33309460  0.24427295  1
  O  O53  1  0.47299447  0.14679264  0.24631624  1
  O  O54  1  0.63341303  0.48709743  0.92260867  1
  O  O55  1  0.84819649  0.34912206  0.92223025  1
  O  O56  1  0.49311277  0.13930927  0.92208406  1
  O  O57  1  0.62734469  0.14582566  0.42243092  1
  O  O58  1  0.51749509  0.37131166  0.42297558  1
  O  O59  1  0.85349660  0.48509913  0.42341372  1
  O  O60  1  0.32723958  0.49112000  0.07263108  1
  O  O61  1  0.14687124  0.66722355  0.06993542  1
  O  O62  1  0.50035195  0.84287739  0.07250499  1
  O  O63  1  0.34225553  0.85371676  0.57665947  1
  O  O64  1  0.52367502  0.67571948  0.57623176  1
  O  O65  1  0.15628235  0.49991297  0.57700608  1
  O  O66  1  0.30241140  0.82490669  0.25037373  1
  O  O67  1  0.52403242  0.69789385  0.24990449  1
  O  O68  1  0.17597358  0.47679573  0.24970593  1
  O  O69  1  0.30005816  0.46949685  0.75459567  1
  O  O70  1  0.18308691  0.70181076  0.75391450  1
  O  O71  1  0.53448893  0.82648639  0.75534897  1
loop_
_geom_bond_atom_site_label_1
_geom_bond_atom_site_label_2
_geom_bond_distance
_geom_bond_site_symmetry_2
Na0 O16 2.347510 1_555
Na0 O53 2.405044 1_555
Na0 O67 2.540338 1_545
Na0 O52 2.615325 1_555
Na0 O66 2.699464 1_545
Na0 O31 2.898777 1_545
Na1 O51 2.400363 1_555
Na1 O17 2.452375 1_555
Na1 O68 2.530160 1_555
Na1 O53 2.561256 1_555
Na1 O67 2.685833 1_555
Na1 O32 2.773198 1_555
Na2 O52 2.381216 1_555
Na2 O66 2.531146 1_655
Na2 O51 2.553687 1_555
Na2 O15 2.572349 1_555
Na2 O68 2.727102 1_655
Na2 O30 2.777531 1_655
Na3 O50 2.421013 1_555
Na3 O14 2.497116 1_555
Na3 O71 2.503406 1_555
Na3 O49 2.519047 1_555
Na3 O69 2.709743 1_555
Na3 O35 2.785688 1_555
Na4 O12 2.344737 1_555
Na4 O50 2.420902 1_555
Na4 O48 2.530499 1_555
Na4 O69 2.572909 1_655
Na4 O70 2.657189 1_655
Na4 O33 2.838939 1_655
Na5 O70 2.466676 1_545
Na5 O49 2.481197 1_555
Na5 O48 2.486161 1_555
Na5 O13 2.491827 1_555
Na5 O71 2.743537 1_545
Na5 O34 2.870067 1_545
Na6 O65 2.527604 1_555
Na6 O63 2.536859 1_555
Na6 O44 2.548341 1_455
Na6 O43 2.616941 1_565
Na6 O8 2.703782 1_555
Na6 O29 2.750686 1_555
Na6 O12 2.859436 1_455
Na6 O22 2.930223 1_455
Na7 O64 2.420056 1_555
Na7 O42 2.462414 1_565
Na7 O27 2.599218 1_555
Na7 O63 2.625332 1_555
Na7 O44 2.683864 1_555
Na7 O23 2.823487 1_565
Na7 O6 2.888588 1_555
Na7 O13 2.998440 1_565
Na8 O61 2.527471 1_555
Na8 O62 2.557341 1_555
Na8 O47 2.558933 1_565
Na8 O45 2.734506 1_455
Na8 O26 2.767773 1_554
Na8 O16 2.822953 1_565
Na8 O11 2.824771 1_555
Na8 O18 2.854781 1_565
Na9 O62 2.519256 1_555
Na9 O45 2.598404 1_555
Na9 O46 2.604223 1_565
Na9 O60 2.649759 1_555
Na9 O24 2.723681 1_554
Na9 O17 2.754110 1_555
Na9 O9 2.825013 1_555
Na9 O19 2.875934 1_555
Na10 O60 2.424356 1_555
Na10 O46 2.615118 1_455
Na10 O47 2.644432 1_555
Na10 O25 2.666088 1_554
Na10 O61 2.692616 1_555
Na10 O20 2.768297 1_455
Na10 O15 2.900360 1_455
Na10 O10 2.907124 1_555
Na11 O54 2.417035 1_555
Na11 O39 2.442522 1_555
Na11 O40 2.518406 1_545
Na11 O56 2.595293 1_555
Na11 O3 2.730331 1_555
Na11 O18 2.739027 1_556
Na12 O37 2.400211 1_545
Na12 O38 2.490338 1_655
Na12 O59 2.534776 1_555
Na12 O2 2.627355 1_555
Na12 O57 2.755128 1_555
Na12 O23 2.875685 1_555
Na13 O38 2.400303 1_555
Na13 O36 2.484106 1_545
Na13 O57 2.503031 1_555
Na13 O0 2.605730 1_555
Na13 O58 2.740362 1_555
Na13 O21 2.858168 1_555
Na14 O36 2.406694 1_655
Na14 O37 2.502005 1_555
Na14 O58 2.512811 1_555
Na14 O1 2.595158 1_555
Na14 O59 2.709404 1_555
Na14 O22 2.902629 1_555
Na15 O38 2.379826 1_555
Na15 O37 2.451691 1_445
Na15 O36 2.478848 1_545
Na15 O42 2.618463 1_455
Na15 O43 2.668821 1_555
Na15 O44 2.752853 1_445
Na16 O41 2.454218 1_555
Na16 O39 2.520518 1_665
Na16 O46 2.542148 1_566
Na16 O45 2.676155 1_556
Na16 O47 2.684943 1_666
Na16 O40 2.692071 1_655
Na17 O50 2.398419 1_555
Na17 O55 2.445496 1_555
Na17 O54 2.551354 1_555
Na17 O48 2.681376 1_555
Na17 O56 2.735041 1_555
Na17 O49 2.770233 1_555
Na18 O58 2.548810 1_555
Na18 O57 2.551470 1_555
Na18 O59 2.575499 1_555
Na18 O53 2.637095 1_555
Na18 O51 2.646186 1_555
Na18 O52 2.697288 1_555
Na19 O67 2.481975 1_555
Na19 O66 2.546974 1_555
Na19 O68 2.547884 1_555
Na19 O62 2.591051 1_555
Na19 O60 2.606422 1_555
Na19 O61 2.787487 1_555
Na20 O65 2.417850 1_555
Na20 O69 2.586377 1_555
Na20 O70 2.597952 1_555
Na20 O64 2.633052 1_555
Na20 O63 2.667808 1_555
Na20 O71 2.777599 1_555
Ca0 O1 2.210446 1_545
Ca0 O0 2.216588 1_655
Ca0 O2 2.223659 1_555
Ca0 O38 2.256186 1_655
Ca0 O36 2.269336 1_645
Ca0 O37 2.274434 1_545
Ca1 O12 2.184550 1_555
Ca1 O14 2.236788 1_555
Ca1 O13 2.248789 1_555
Ca1 O50 2.326087 1_555
Ca1 O49 2.386038 1_555
Ca1 O48 2.389709 1_555
Ca2 O16 2.205714 1_555
Ca2 O17 2.206501 1_555
Ca2 O15 2.274026 1_555
Ca2 O52 2.336985 1_555
Ca2 O51 2.343893 1_555
Ca2 O53 2.345172 1_555
Hf0 O4 1.962962 1_555
Hf0 O41 2.012074 1_555
Hf0 O5 2.043391 1_565
Hf0 O39 2.092237 1_665
Hf0 O3 2.146121 1_665
Hf0 O40 2.157195 1_655
Hf1 O8 2.031177 1_545
Hf1 O42 2.050322 1_455
Hf1 O7 2.054470 1_555
Hf1 O43 2.111965 1_555
Hf1 O6 2.118351 1_445
Hf1 O44 2.145875 1_445
Hf2 O47 2.053032 1_555
Hf2 O46 2.057931 1_455
Hf2 O10 2.061638 1_555
Hf2 O9 2.104229 1_445
Hf2 O11 2.105955 1_545
Hf2 O45 2.154462 1_445
Hf3 O20 2.038140 1_556
Hf3 O55 2.038274 1_555
Hf3 O54 2.093499 1_555
Hf3 O18 2.106555 1_556
Hf3 O19 2.125256 1_556
Hf3 O56 2.152203 1_555
Hf4 O23 2.029478 1_555
Hf4 O57 2.059154 1_555
Hf4 O59 2.066247 1_555
Hf4 O58 2.086986 1_555
Hf4 O21 2.132598 1_555
Hf4 O22 2.152346 1_555
Hf5 O24 1.971175 1_554
Hf5 O25 2.002982 1_554
Hf5 O60 2.057347 1_555
Hf5 O62 2.067171 1_555
Hf5 O26 2.102434 1_554
Hf5 O61 2.176651 1_555
Hf6 O28 1.932420 1_555
Hf6 O29 1.981962 1_555
Hf6 O27 2.013994 1_555
Hf6 O65 2.049378 1_555
Hf6 O64 2.159747 1_555
Hf6 O63 2.190958 1_555
Hf7 O31 1.985790 1_555
Hf7 O32 1.991792 1_555
Hf7 O30 1.999357 1_555
Hf7 O66 2.224768 1_555
Hf7 O68 2.229049 1_555
Hf7 O67 2.235063 1_555
Hf8 O33 1.970160 1_555
Hf8 O35 2.021646 1_555
Hf8 O34 2.081102 1_555
Hf8 O70 2.094778 1_555
Hf8 O69 2.181021 1_555
Hf8 O71 2.230619 1_555
O0 P0 1.518882 1_545
O1 P1 1.519134 1_555
O2 P2 1.516307 1_655
O3 P3 1.538072 1_555
O4 Si0 1.631942 1_655
O5 P4 1.547154 1_545
O6 P4 1.569021 1_555
O7 P3 1.566194 1_555
O8 Si0 1.659158 1_555
O9 P1 1.588009 1_555
O10 P2 1.594254 1_555
O11 P0 1.590422 1_555
O12 Si1 1.605617 1_555
O13 P5 1.521188 1_555
O14 P6 1.514485 1_555
O15 P7 1.533496 1_555
O16 Si2 1.601986 1_555
O17 Si3 1.605130 1_555
O18 Si3 1.650961 1_555
O19 P7 1.554752 1_555
O20 Si2 1.649167 1_555
O21 P5 1.560434 1_555
O22 P6 1.566603 1_555
O23 Si1 1.670430 1_555
O24 Si4 1.637760 1_555
O25 Si5 1.633106 1_555
O26 P8 1.541550 1_555
O27 Si6 1.621941 1_555
O28 Si7 1.619330 1_555
O29 Si8 1.625922 1_555
O30 Si8 1.674686 1_555
O31 Si6 1.670884 1_555
O32 Si7 1.669388 1_555
O33 Si5 1.656238 1_555
O34 P8 1.557977 1_555
O35 Si4 1.652138 1_555
O36 Si8 1.605582 1_555
O37 Si6 1.606210 1_555
O38 Si7 1.603804 1_555
O39 Si5 1.641479 1_555
O40 P8 1.553617 1_555
O41 Si4 1.630482 1_555
O42 Si1 1.652738 1_555
O43 P5 1.565818 1_555
O44 P6 1.579326 1_555
O45 P7 1.570474 1_555
O46 Si2 1.662758 1_555
O47 Si3 1.667835 1_555
O48 P4 1.531829 1_545
O49 P3 1.530949 1_555
O50 Si0 1.617776 1_655
O51 P1 1.536079 1_555
O52 P2 1.534309 1_655
O53 P0 1.536169 1_545
O54 Si4 1.640946 1_555
O55 Si5 1.625410 1_655
O56 P8 1.551916 1_545
O57 Si6 1.651125 1_545
O58 Si7 1.642484 1_555
O59 Si8 1.650509 1_655
O60 Si3 1.653253 1_555
O61 P7 1.549409 1_455
O62 Si2 1.645909 1_565
O63 P5 1.560157 1_565
O64 P6 1.551924 1_555
O65 Si1 1.638704 1_455
O66 P0 1.578543 1_555
O67 P1 1.576129 1_555
O68 P2 1.574107 1_555
O69 P3 1.574984 1_555
O70 Si0 1.666643 1_555
O71 P4 1.566988 1_555
