# generated using pymatgen
data_MgV6O15
_symmetry_space_group_name_H-M   'P 1'
_cell_length_a   7.86001075
_cell_length_b   7.86001159
_cell_length_c   10.31069510
_cell_angle_alpha   71.93335478
_cell_angle_beta   108.06664555
_cell_angle_gamma   153.37028512
_symmetry_Int_Tables_number   1
_chemical_formula_structural   MgV6O15
_chemical_formula_sum   'Mg1 V6 O15'
_cell_volume   270.62752190
_cell_formula_units_Z   1
loop_
 _symmetry_equiv_pos_site_id
 _symmetry_equiv_pos_as_xyz
  1  'x, y, z'
loop_
 _atom_site_type_symbol
 _atom_site_label
 _atom_site_symmetry_multiplicity
 _atom_site_fract_x
 _atom_site_fract_y
 _atom_site_fract_z
 _atom_site_occupancy
  Mg  Mg0  1  0.01491500  0.98508500  0.40071200  1
  V  V0  1  0.10968500  0.89031500  0.11498900  1
  V  V1  1  0.87501400  0.12498600  0.87843000  1
  V  V2  1  0.29879000  0.70121000  0.42452600  1
  V  V3  1  0.33381500  0.66618500  0.11292400  1
  V  V4  1  0.66257600  0.33742400  0.89552000  1
  V  V5  1  0.70630000  0.29370000  0.57710700  1
  O  O0  1  0.18369800  0.81630200  0.95451100  1
  O  O1  1  0.09463400  0.90536600  0.26865700  1
  O  O2  1  0.24734900  0.75265100  0.58118100  1
  O  O3  1  0.36530900  0.63469100  0.92780000  1
  O  O4  1  0.26342900  0.73657100  0.22215700  1
  O  O5  1  0.41385500  0.58614500  0.46518800  1
  O  O6  1  0.43843900  0.56156100  0.22912500  1
  O  O7  1  0.56145100  0.43854900  0.78461100  1
  O  O8  1  0.99824200  0.00175800  0.00124100  1
  O  O9  1  0.58850600  0.41149400  0.49474500  1
  O  O10  1  0.73619600  0.26380400  0.78404400  1
  O  O11  1  0.63348200  0.36651800  0.07929900  1
  O  O12  1  0.75621000  0.24379000  0.42650300  1
  O  O13  1  0.89224800  0.10775200  0.73183800  1
  O  O14  1  0.81752100  0.18247900  0.05738900  1
loop_
_geom_bond_atom_site_label_1
_geom_bond_atom_site_label_2
_geom_bond_distance
_geom_bond_site_symmetry_2
Mg0 O1 2.097476 1_555
Mg0 O9 2.188242 1_565
Mg0 O9 2.188242 1_455
Mg0 O6 2.540899 1_455
Mg0 O6 2.540899 1_565
Mg0 O5 2.600720 1_455
Mg0 O5 2.600721 1_565
O0 V4 1.904162 1_455
O0 V4 1.904162 1_565
O0 V0 2.283375 1_556
O0 V3 2.355974 1_556
O1 V0 1.672103 1_555
O2 V5 1.912069 1_455
O2 V5 1.912069 1_565
O2 V2 2.009556 1_555
O3 V1 1.898966 1_565
O3 V1 1.898966 1_455
O3 V3 2.112249 1_556
O4 V3 1.789067 1_555
O4 V2 1.981655 1_555
O4 V0 2.257423 1_555
O5 V2 1.674430 1_555
O6 V3 1.665774 1_555
O7 V4 1.604132 1_555
O8 V0 1.734199 1_645
O8 V1 1.906701 1_554
O9 V5 1.729982 1_555
O10 V4 1.847833 1_555
O10 V1 2.034548 1_555
O10 V5 2.034632 1_555
O11 V0 1.905272 1_545
O11 V0 1.905272 1_655
O11 V4 2.079957 1_554
O12 V2 1.926109 1_655
O12 V2 1.926109 1_545
O12 V5 1.936460 1_555
O13 V1 1.614934 1_555
O14 V3 1.890972 1_655
O14 V3 1.890972 1_545
O14 V1 2.283114 1_554
O14 V4 2.425330 1_554
