# generated using pymatgen
data_NdGa2
_symmetry_space_group_name_H-M   'P 1'
_cell_length_a   4.23849217
_cell_length_b   4.23849142
_cell_length_c   4.33303362
_cell_angle_alpha   90.00000000
_cell_angle_beta   90.00000000
_cell_angle_gamma   119.99999796
_symmetry_Int_Tables_number   1
_chemical_formula_structural   NdGa2
_chemical_formula_sum   'Nd1 Ga2'
_cell_volume   67.41326987
_cell_formula_units_Z   1
loop_
 _symmetry_equiv_pos_site_id
 _symmetry_equiv_pos_as_xyz
  1  'x, y, z'
loop_
 _atom_site_type_symbol
 _atom_site_label
 _atom_site_symmetry_multiplicity
 _atom_site_fract_x
 _atom_site_fract_y
 _atom_site_fract_z
 _atom_site_occupancy
  Nd  Nd0  1  -0.00000000  -0.00000000  -0.00000000  1
  Ga  Ga0  1  0.33333300  0.66666700  0.50000000  1
  Ga  Ga1  1  0.66666700  0.33333300  0.50000000  1
loop_
_geom_bond_atom_site_label_1
_geom_bond_atom_site_label_2
_geom_bond_distance
_geom_bond_site_symmetry_2
Ga0 Ga1 2.447092 1_565
Ga0 Ga1 2.447092 1_455
Ga0 Ga1 2.447099 1_555
Ga0 Nd0 3.268341 1_565
Ga0 Nd0 3.268341 1_566
Ga0 Nd0 3.268344 1_555
Ga0 Nd0 3.268344 1_556
Ga0 Nd0 3.268344 1_665
Ga0 Nd0 3.268344 1_666
Ga1 Nd0 3.268341 1_655
Ga1 Nd0 3.268341 1_656
Ga1 Nd0 3.268344 1_665
Ga1 Nd0 3.268344 1_666
Ga1 Nd0 3.268344 1_555
Ga1 Nd0 3.268344 1_556
