# generated using pymatgen
data_Ba(PO3)2
_symmetry_space_group_name_H-M   'P 1'
_cell_length_a   4.50771806
_cell_length_b   8.35305869
_cell_length_c   13.45394245
_cell_angle_alpha   90.00000000
_cell_angle_beta   90.00000000
_cell_angle_gamma   90.00000000
_symmetry_Int_Tables_number   1
_chemical_formula_structural   Ba(PO3)2
_chemical_formula_sum   'Ba4 P8 O24'
_cell_volume   506.58443674
_cell_formula_units_Z   4
loop_
 _symmetry_equiv_pos_site_id
 _symmetry_equiv_pos_as_xyz
  1  'x, y, z'
loop_
 _atom_site_type_symbol
 _atom_site_label
 _atom_site_symmetry_multiplicity
 _atom_site_fract_x
 _atom_site_fract_y
 _atom_site_fract_z
 _atom_site_occupancy
  Ba  Ba0  1  0.01166406  0.44756144  0.12483576  1
  Ba  Ba1  1  0.51166406  0.05243856  0.87516424  1
  Ba  Ba2  1  0.98833594  0.94756144  0.37516424  1
  Ba  Ba3  1  0.48833594  0.55243856  0.62483576  1
  P  P0  1  0.96288748  0.67360663  0.84738785  1
  P  P1  1  0.46288748  0.82639337  0.15261215  1
  P  P2  1  0.03711252  0.17360663  0.65261215  1
  P  P3  1  0.53711252  0.32639337  0.34738785  1
  P  P4  1  0.45868775  0.46865587  0.89677465  1
  P  P5  1  0.95868775  0.03134413  0.10322535  1
  P  P6  1  0.54131225  0.96865587  0.60322535  1
  P  P7  1  0.04131225  0.53134413  0.39677465  1
  O  O0  1  0.52978237  0.66310741  0.11674753  1
  O  O1  1  0.02978237  0.83689259  0.88325247  1
  O  O2  1  0.47021763  0.16310741  0.38325247  1
  O  O3  1  0.97021763  0.33689259  0.61674753  1
  O  O4  1  0.50041652  0.37149683  0.24167137  1
  O  O5  1  0.00041652  0.12850317  0.75832863  1
  O  O6  1  0.49958348  0.87149683  0.25832863  1
  O  O7  1  -0.00041652  0.62850317  0.74167137  1
  O  O8  1  0.53817375  0.38088938  0.98914802  1
  O  O9  1  0.03817375  0.11911062  0.01085198  1
  O  O10  1  0.46182625  0.88088938  0.51085198  1
  O  O11  1  0.96182625  0.61911062  0.48914802  1
  O  O12  1  0.36499717  0.45750555  0.41623001  1
  O  O13  1  0.86499717  0.04249445  0.58376999  1
  O  O14  1  0.63500283  0.95750555  0.08376999  1
  O  O15  1  0.13500283  0.54249445  0.91623001  1
  O  O16  1  0.86744349  0.36426980  0.38518757  1
  O  O17  1  0.36744349  0.13573020  0.61481243  1
  O  O18  1  0.13255651  0.86426980  0.11481243  1
  O  O19  1  0.63255651  0.63573020  0.88518757  1
  O  O20  1  0.02534274  0.62132684  0.30176184  1
  O  O21  1  0.52534274  0.87867316  0.69823816  1
  O  O22  1  0.97465726  0.12132684  0.19823816  1
  O  O23  1  0.47465726  0.37867316  0.80176184  1
loop_
_geom_bond_atom_site_label_1
_geom_bond_atom_site_label_2
_geom_bond_distance
_geom_bond_site_symmetry_2
Ba0 O4 2.780013 1_555
Ba0 O20 2.788666 1_555
Ba0 O0 2.823459 1_455
Ba0 O4 2.861042 1_455
Ba0 O8 2.863255 1_454
Ba0 O22 2.903278 1_455
Ba0 O0 2.950972 1_555
Ba0 O15 2.968967 1_554
Ba0 O8 3.045580 1_554
Ba0 O9 3.145341 1_555
Ba1 O5 2.780013 1_655
Ba1 O21 2.788666 1_545
Ba1 O1 2.823459 1_545
Ba1 O5 2.861042 1_555
Ba1 O9 2.863255 1_556
Ba1 O23 2.903278 1_555
Ba1 O1 2.950972 1_645
Ba1 O14 2.968967 1_546
Ba1 O9 3.045580 1_656
Ba1 O8 3.145341 1_555
Ba2 O6 2.780013 1_555
Ba2 O22 2.788666 1_565
Ba2 O2 2.823459 1_665
Ba2 O6 2.861042 1_655
Ba2 O10 2.863255 1_655
Ba2 O20 2.903278 1_655
Ba2 O2 2.950972 1_565
Ba2 O13 2.968967 1_565
Ba2 O10 3.045580 1_555
Ba2 O11 3.145341 1_555
Ba3 O7 2.780013 1_555
Ba3 O23 2.788666 1_555
Ba3 O3 2.823459 1_555
Ba3 O7 2.861042 1_655
Ba3 O11 2.863255 1_555
Ba3 O21 2.903278 1_555
Ba3 O3 2.950972 1_455
Ba3 O12 2.968967 1_555
Ba3 O11 3.045580 1_455
Ba3 O10 3.145341 1_555
O0 P1 1.477863 1_555
O1 P0 1.477863 1_455
O2 P3 1.477863 1_555
O3 P2 1.477863 1_655
O4 P3 1.480625 1_555
O5 P2 1.480625 1_555
O6 P1 1.480625 1_555
O7 P0 1.480625 1_455
O8 P4 1.486728 1_555
O9 P5 1.486728 1_455
O10 P6 1.486728 1_555
O11 P7 1.486728 1_655
O12 P7 1.605567 1_555
O12 P3 1.630711 1_555
O13 P6 1.605567 1_545
O13 P2 1.630711 1_655
O14 P5 1.605567 1_565
O14 P1 1.630711 1_555
O15 P4 1.605567 1_555
O15 P0 1.630711 1_455
O16 P3 1.604981 1_555
O16 P7 1.608172 1_655
O17 P2 1.604981 1_555
O17 P6 1.608172 1_545
O18 P1 1.604981 1_555
O18 P5 1.608172 1_465
O19 P0 1.604981 1_555
O19 P4 1.608172 1_555
O20 P7 1.484646 1_555
O21 P6 1.484646 1_555
O22 P5 1.484646 1_555
O23 P4 1.484646 1_555
