# generated using pymatgen
data_UNb2O7
_symmetry_space_group_name_H-M   'P 1'
_cell_length_a   10.81807734
_cell_length_b   10.81807734
_cell_length_c   6.54308300
_cell_angle_alpha   90.00000000
_cell_angle_beta   90.00000000
_cell_angle_gamma   159.67399374
_symmetry_Int_Tables_number   1
_chemical_formula_structural   UNb2O7
_chemical_formula_sum   'U2 Nb4 O14'
_cell_volume   265.98922776
_cell_formula_units_Z   2
loop_
 _symmetry_equiv_pos_site_id
 _symmetry_equiv_pos_as_xyz
  1  'x, y, z'
loop_
 _atom_site_type_symbol
 _atom_site_label
 _atom_site_symmetry_multiplicity
 _atom_site_fract_x
 _atom_site_fract_y
 _atom_site_fract_z
 _atom_site_occupancy
  U  U0  1  0.14363100  0.85636900  0.25000000  1
  U  U1  1  0.85636900  0.14363100  0.75000000  1
  Nb  Nb0  1  0.66440400  0.33559600  0.75000000  1
  Nb  Nb1  1  0.33559600  0.66440400  0.25000000  1
  Nb  Nb2  1  0.02394100  0.97605900  0.75000000  1
  Nb  Nb3  1  0.97605900  0.02394100  0.25000000  1
  O  O0  1  0.65287000  0.34713000  0.05577400  1
  O  O1  1  0.34713000  0.65287000  0.94422600  1
  O  O2  1  0.34713000  0.65287000  0.55577400  1
  O  O3  1  0.65287000  0.34713000  0.44422600  1
  O  O4  1  0.75100500  0.24899500  0.75000000  1
  O  O5  1  0.24899500  0.75100500  0.25000000  1
  O  O6  1  0.45060500  0.54939500  0.25000000  1
  O  O7  1  0.54939500  0.45060500  0.75000000  1
  O  O8  1  0.86335900  0.13664100  0.25000000  1
  O  O9  1  0.13664100  0.86335900  0.75000000  1
  O  O10  1  0.05190700  0.94809300  0.43444100  1
  O  O11  1  0.94809300  0.05190700  0.56555900  1
  O  O12  1  0.94809300  0.05190700  0.93444100  1
  O  O13  1  0.05190700  0.94809300  0.06555900  1
loop_
_geom_bond_atom_site_label_1
_geom_bond_atom_site_label_2
_geom_bond_distance
_geom_bond_site_symmetry_2
Nb0 O4 1.844314 1_555
Nb0 O9 1.998315 1_655
Nb0 O9 1.998315 1_545
Nb0 O0 2.015727 1_556
Nb0 O3 2.015727 1_555
Nb0 O7 2.449310 1_555
Nb1 O5 1.844314 1_555
Nb1 O8 1.998315 1_565
Nb1 O8 1.998315 1_455
Nb1 O1 2.015727 1_554
Nb1 O2 2.015727 1_555
Nb1 O6 2.449310 1_555
Nb2 O7 1.984321 1_565
Nb2 O7 1.984321 1_455
Nb2 O11 2.016339 1_465
Nb2 O12 2.016339 1_465
Nb2 O10 2.148912 1_555
Nb2 O13 2.148912 1_556
Nb2 O9 2.400136 1_555
Nb3 O6 1.984321 1_655
Nb3 O6 1.984321 1_545
Nb3 O13 2.016339 1_645
Nb3 O10 2.016339 1_645
Nb3 O12 2.148912 1_554
Nb3 O11 2.148912 1_555
Nb3 O8 2.400136 1_555
O0 U0 2.301611 1_655
O0 U0 2.301611 1_545
O1 U1 2.301611 1_565
O1 U1 2.301611 1_455
O2 U1 2.301611 1_565
O2 U1 2.301611 1_455
O3 U0 2.301611 1_655
O3 U0 2.301611 1_545
O4 U1 2.243903 1_555
O5 U0 2.243903 1_555
O10 U0 2.296134 1_555
O11 U1 2.296134 1_555
O12 U1 2.296134 1_555
O13 U0 2.296134 1_555
