# generated using pymatgen
data_Na6Ta3Al5Si6(SO8)6
_symmetry_space_group_name_H-M   'P 1'
_cell_length_a   17.31579357
_cell_length_b   8.63613722
_cell_length_c   22.19457158
_cell_angle_alpha   89.78977472
_cell_angle_beta   90.19407771
_cell_angle_gamma   119.66727952
_symmetry_Int_Tables_number   1
_chemical_formula_structural   Na6Ta3Al5Si6(SO8)6
_chemical_formula_sum   'Na18 Ta9 Al15 Si18 S18 O144'
_cell_volume   2883.91211243
_cell_formula_units_Z   3
loop_
 _symmetry_equiv_pos_site_id
 _symmetry_equiv_pos_as_xyz
  1  'x, y, z'
loop_
 _atom_site_type_symbol
 _atom_site_label
 _atom_site_symmetry_multiplicity
 _atom_site_fract_x
 _atom_site_fract_y
 _atom_site_fract_z
 _atom_site_occupancy
  Na  Na0  1  0.48123259  0.67512583  0.91271177  1
  Na  Na1  1  0.16718137  0.31403656  0.91325202  1
  Na  Na2  1  0.48537783  0.30087564  0.41622777  1
  Na  Na3  1  0.97940015  0.29521525  0.41168675  1
  Na  Na4  1  0.16583639  0.02529972  0.41391263  1
  Na  Na5  1  0.66742765  0.03025951  0.41864455  1
  Na  Na6  1  0.98895661  0.97854634  0.49401373  1
  Na  Na7  1  0.49576931  0.98968711  0.49528777  1
  Na  Na8  1  0.99559551  0.99439166  0.99641114  1
  Na  Na9  1  0.50151043  0.00272242  0.99148488  1
  Na  Na10  1  0.33361017  0.32952720  0.82544173  1
  Na  Na11  1  0.83220022  0.33428959  0.82948729  1
  Na  Na12  1  0.33620974  0.33464576  0.33093197  1
  Na  Na13  1  0.83664417  0.33903814  0.33350472  1
  Na  Na14  1  0.15761370  0.66043941  0.16277921  1
  Na  Na15  1  0.66603367  0.65566080  0.16416290  1
  Na  Na16  1  0.16882600  0.67022511  0.66846627  1
  Na  Na17  1  0.66245346  0.65846015  0.66261580  1
  Ta  Ta0  1  0.00443080  0.99917558  0.64593959  1
  Ta  Ta1  1  0.50035685  0.00435896  0.64935933  1
  Ta  Ta2  1  0.00519405  0.00050172  0.14598175  1
  Ta  Ta3  1  0.50456905  0.01604714  0.14367643  1
  Ta  Ta4  1  0.83332015  0.33755860  0.97775685  1
  Ta  Ta5  1  0.15952404  0.67199210  0.31090302  1
  Ta  Ta6  1  0.66292694  0.65819365  0.31755050  1
  Ta  Ta7  1  0.16675982  0.65398477  0.80865244  1
  Ta  Ta8  1  0.66333875  0.66934875  0.80902835  1
  Al  Al0  1  0.99521789  0.99358041  0.35172418  1
  Al  Al1  1  0.49607419  0.00900976  0.36030472  1
  Al  Al2  1  0.00549798  0.00639292  0.85022993  1
  Al  Al3  1  0.49890082  0.98904559  0.85139086  1
  Al  Al4  1  0.33521324  0.33393248  0.69530619  1
  Al  Al5  1  0.83126687  0.34813917  0.69015933  1
  Al  Al6  1  0.33347766  0.32379554  0.19184716  1
  Al  Al7  1  0.84420224  0.35378117  0.18264379  1
  Al  Al8  1  0.33182788  0.33554204  0.98014850  1
  Al  Al9  1  0.33883418  0.33814890  0.47833905  1
  Al  Al10  1  0.83383400  0.33427693  0.47380193  1
  Al  Al11  1  0.15826435  0.64777285  0.01365181  1
  Al  Al12  1  0.66707979  0.66489213  0.01894301  1
  Al  Al13  1  0.16964548  0.67954511  0.51472896  1
  Al  Al14  1  0.66621415  0.67041332  0.50852790  1
  Si  Si0  1  0.14779092  0.01776872  0.25407410  1
  Si  Si1  1  0.99157461  0.28191996  0.25193084  1
  Si  Si2  1  0.49832343  0.29198388  0.25360250  1
  Si  Si3  1  0.14729298  0.28201425  0.75162895  1
  Si  Si4  1  0.64645637  0.27820971  0.75421611  1
  Si  Si5  1  0.99424037  0.70418891  0.75556687  1
  Si  Si6  1  0.49404284  0.70871442  0.75131008  1
  Si  Si7  1  0.35952915  0.00883907  0.75462269  1
  Si  Si8  1  0.98586959  0.62307873  0.08281941  1
  Si  Si9  1  0.69636804  0.35303786  0.08535781  1
  Si  Si10  1  0.31290860  0.67533023  0.92309441  1
  Si  Si11  1  0.02067484  0.36574165  0.91613047  1
  Si  Si12  1  0.66412672  0.95330628  0.92065217  1
  Si  Si13  1  0.31168320  0.95460080  0.42109790  1
  Si  Si14  1  0.81559227  0.95392157  0.41954317  1
  Si  Si15  1  0.66836359  0.37547474  0.42189952  1
  Si  Si16  1  0.01854229  0.67145707  0.42162965  1
  Si  Si17  1  0.51654294  0.67012224  0.42003719  1
  S  S0  1  0.64669547  0.00652173  0.25052076  1
  S  S1  1  0.35813423  0.70949690  0.24985634  1
  S  S2  1  0.85600470  0.70885710  0.25034101  1
  S  S3  1  0.85820188  0.00723457  0.74950499  1
  S  S4  1  0.47728234  0.34049959  0.58256251  1
  S  S5  1  0.97680462  0.34007669  0.58250605  1
  S  S6  1  0.19382267  0.04656610  0.58202208  1
  S  S7  1  0.69401913  0.04781763  0.58292677  1
  S  S8  1  0.32909235  0.61179575  0.58139141  1
  S  S9  1  0.82912471  0.61359278  0.58207393  1
  S  S10  1  0.47448883  0.61101062  0.08384609  1
  S  S11  1  0.32998820  0.05018795  0.08257393  1
  S  S12  1  0.82932587  0.04054451  0.08436787  1
  S  S13  1  0.19578986  0.34038012  0.08398073  1
  S  S14  1  0.81207088  0.67556434  0.91733254  1
  S  S15  1  0.52174856  0.37430610  0.92055328  1
  S  S16  1  0.16801025  0.95615403  0.91969729  1
  S  S17  1  0.17004743  0.38393124  0.42040426  1
  O  O0  1  0.09871469  0.03215278  0.31291465  1
  O  O1  1  0.60357500  0.02546550  0.30426900  1
  O  O2  1  0.41290097  0.79033289  0.30348488  1
  O  O3  1  0.91013946  0.79059600  0.30426633  1
  O  O4  1  0.48587607  0.16699337  0.31046175  1
  O  O5  1  0.98317609  0.16699870  0.31153361  1
  O  O6  1  0.10242112  0.16915717  0.81136728  1
  O  O7  1  0.59794218  0.16098436  0.81153129  1
  O  O8  1  0.48285521  0.78808380  0.81302737  1
  O  O9  1  0.97814604  0.80507516  0.81067632  1
  O  O10  1  0.42113809  0.03709280  0.81134197  1
  O  O11  1  0.91084112  0.03226674  0.80420638  1
  O  O12  1  0.40067427  0.96478518  0.69175506  1
  O  O13  1  0.89679941  0.97061860  0.69447711  1
  O  O14  1  0.08051768  0.19268460  0.69165313  1
  O  O15  1  0.58363181  0.20459763  0.69136563  1
  O  O16  1  0.01008702  0.83106311  0.69296426  1
  O  O17  1  0.51926568  0.83656951  0.69065448  1
  O  O18  1  0.39828094  0.82183055  0.19456631  1
  O  O19  1  0.89740226  0.81937682  0.19486948  1
  O  O20  1  0.00943189  0.18974810  0.19151937  1
  O  O21  1  0.51300416  0.19328359  0.19299172  1
  O  O22  1  0.08380020  0.96753121  0.19309926  1
  O  O23  1  0.58706451  0.97202622  0.19517580  1
  O  O24  1  0.43235990  0.35727683  0.63584031  1
  O  O25  1  0.93447988  0.36027898  0.63671827  1
  O  O26  1  0.24500659  0.13203292  0.63585073  1
  O  O27  1  0.74799167  0.13622696  0.63688533  1
  O  O28  1  0.31945022  0.50804745  0.63609374  1
  O  O29  1  0.82094825  0.51073417  0.63733735  1
  O  O30  1  0.43070926  0.50258286  0.13721275  1
  O  O31  1  0.93918085  0.50588283  0.14154562  1
  O  O32  1  0.32193720  0.13779597  0.13711627  1
  O  O33  1  0.81632199  0.12214156  0.13823745  1
  O  O34  1  0.24933970  0.35684921  0.13737459  1
  O  O35  1  0.75254060  0.36400360  0.14429644  1
  O  O36  1  0.23295762  0.30468152  0.02857300  1
  O  O37  1  0.73341077  0.30337747  0.02501931  1
  O  O38  1  0.42147379  0.53274233  0.02787473  1
  O  O39  1  0.91911417  0.53078189  0.02471008  1
  O  O40  1  0.34785467  0.16467822  0.02821709  1
  O  O41  1  0.84725508  0.15223432  0.02930107  1
  O  O42  1  0.23049560  0.15372200  0.52665480  1
  O  O43  1  0.73412619  0.15601467  0.52775259  1
  O  O44  1  0.34198246  0.52615334  0.52714994  1
  O  O45  1  0.84669439  0.53520851  0.52872845  1
  O  O46  1  0.42294371  0.31108213  0.52685439  1
  O  O47  1  0.92314633  0.31131194  0.52730760  1
  O  O48  1  0.26162390  0.69751849  0.97999274  1
  O  O49  1  0.76912220  0.69433338  0.97157563  1
  O  O50  1  0.08431015  0.44935994  0.97424355  1
  O  O51  1  0.57826210  0.46203380  0.97341442  1
  O  O52  1  0.15333635  0.84530922  0.97330237  1
  O  O53  1  0.64930458  0.81855571  0.97621931  1
  O  O54  1  0.26726745  0.82972324  0.47858342  1
  O  O55  1  0.76832578  0.82855591  0.47689264  1
  O  O56  1  0.15235754  0.46670698  0.47311164  1
  O  O57  1  0.64196608  0.46277496  0.47644718  1
  O  O58  1  0.08683684  0.70726248  0.47675912  1
  O  O59  1  0.58439433  0.71454399  0.47604475  1
  O  O60  1  0.06315045  0.62525531  0.36082782  1
  O  O61  1  0.56187435  0.62018976  0.36083417  1
  O  O62  1  0.24651811  0.86348474  0.36107255  1
  O  O63  1  0.74885875  0.87028079  0.35901733  1
  O  O64  1  0.18583026  0.48984173  0.36450232  1
  O  O65  1  0.68659974  0.50064240  0.35993820  1
  O  O66  1  0.06537731  0.49767508  0.85816510  1
  O  O67  1  0.56044850  0.49072852  0.86497622  1
  O  O68  1  0.18510385  0.88540531  0.86435329  1
  O  O69  1  0.68128746  0.85622049  0.86118488  1
  O  O70  1  0.24667455  0.62389990  0.86298429  1
  O  O71  1  0.75716710  0.64255718  0.86236065  1
  O  O72  1  0.01550500  0.85161970  0.40837944  1
  O  O73  1  0.51390804  0.84752377  0.40318777  1
  O  O74  1  0.41001504  0.98563994  0.41159157  1
  O  O75  1  0.91454997  0.98488433  0.40895437  1
  O  O76  1  0.08983160  0.20557801  0.41490450  1
  O  O77  1  0.58200440  0.18287304  0.40889313  1
  O  O78  1  0.01044932  0.16840309  0.90643837  1
  O  O79  1  0.51321679  0.20055524  0.91327247  1
  O  O80  1  0.08843411  0.97950380  0.91369362  1
  O  O81  1  0.57732625  0.97231829  0.91183788  1
  O  O82  1  0.41062244  0.84329197  0.91312664  1
  O  O83  1  0.90040411  0.83195343  0.91147254  1
  O  O84  1  0.48599255  0.17404229  0.58543026  1
  O  O85  1  0.98459425  0.17165212  0.58768189  1
  O  O86  1  0.09978919  0.02668889  0.58632600  1
  O  O87  1  0.60255467  0.03070615  0.58663988  1
  O  O88  1  0.41078741  0.79487521  0.58451102  1
  O  O89  1  0.91079830  0.79945956  0.58820400  1
  O  O90  1  0.48245735  0.79281818  0.08969025  1
  O  O91  1  0.98882687  0.81985919  0.08744640  1
  O  O92  1  0.41282878  0.02925897  0.08850137  1
  O  O93  1  0.91040324  0.02052237  0.08903226  1
  O  O94  1  0.10383532  0.17606433  0.08825140  1
  O  O95  1  0.59440832  0.16530573  0.09083955  1
  O  O96  1  0.34705550  0.17523220  0.73900832  1
  O  O97  1  0.84672561  0.16044936  0.73956387  1
  O  O98  1  0.24196534  0.30600086  0.73805222  1
  O  O99  1  0.74171847  0.29835700  0.73970066  1
  O  O100  1  0.41370412  0.51583782  0.73874143  1
  O  O101  1  0.91251575  0.51057739  0.74004081  1
  O  O102  1  0.34843957  0.53242837  0.23997936  1
  O  O103  1  0.84521474  0.53036347  0.24408571  1
  O  O104  1  0.41427651  0.31719416  0.24035259  1
  O  O105  1  0.90527950  0.30528926  0.24158224  1
  O  O106  1  0.24262159  0.18732314  0.24079635  1
  O  O107  1  0.73315295  0.16363924  0.24174131  1
  O  O108  1  0.32237615  0.48965902  0.92975468  1
  O  O109  1  0.81965180  0.50994981  0.92095456  1
  O  O110  1  0.43262328  0.36341119  0.92730601  1
  O  O111  1  0.92373182  0.35117377  0.92326276  1
  O  O112  1  0.24777790  0.14073571  0.92824762  1
  O  O113  1  0.75419665  0.14654048  0.92392759  1
  O  O114  1  0.31713022  0.15033023  0.42835169  1
  O  O115  1  0.82329667  0.14919085  0.42744050  1
  O  O116  1  0.24806765  0.35872211  0.42833887  1
  O  O117  1  0.75337813  0.34962277  0.42758921  1
  O  O118  1  0.42199030  0.48911112  0.42670757  1
  O  O119  1  0.92555458  0.49024432  0.42786385  1
  O  O120  1  0.18505840  0.49737653  0.07932162  1
  O  O121  1  0.67797714  0.51734572  0.07311736  1
  O  O122  1  0.08467210  0.65230238  0.07205453  1
  O  O123  1  0.56442503  0.63472916  0.07838954  1
  O  O124  1  0.25341710  0.87397954  0.07726375  1
  O  O125  1  0.75091378  0.86244115  0.07629609  1
  O  O126  1  0.17991554  0.86312962  0.57774317  1
  O  O127  1  0.68267281  0.86611010  0.57905346  1
  O  O128  1  0.24810316  0.63107948  0.57556199  1
  O  O129  1  0.75006764  0.63461956  0.57800033  1
  O  O130  1  0.06847605  0.49419781  0.57660185  1
  O  O131  1  0.56668980  0.49830835  0.57794048  1
  O  O132  1  0.15692370  0.83469899  0.25496997  1
  O  O133  1  0.65380613  0.84079817  0.25235368  1
  O  O134  1  0.26818877  0.69120268  0.25552140  1
  O  O135  1  0.76798913  0.69983740  0.25362243  1
  O  O136  1  0.08673233  0.47535738  0.25690655  1
  O  O137  1  0.59023233  0.48737391  0.25367661  1
  O  O138  1  0.15178069  0.47590102  0.75198323  1
  O  O139  1  0.66013947  0.48250217  0.76052863  1
  O  O140  1  0.08755047  0.70310491  0.75786485  1
  O  O141  1  0.58646180  0.69098459  0.75519904  1
  O  O142  1  0.26104017  0.83046093  0.75871113  1
  O  O143  1  0.76900099  0.83994017  0.75470188  1
loop_
_geom_bond_atom_site_label_1
_geom_bond_atom_site_label_2
_geom_bond_distance
_geom_bond_site_symmetry_2
Na0 O81 2.264663 1_555
Na0 O82 2.315638 1_555
Na0 O8 2.409321 1_555
Na0 O110 2.410954 1_555
Na0 O108 2.432319 1_555
Na0 O67 2.779316 1_555
Na0 O38 2.801990 1_556
Na0 O53 2.899541 1_555
Na1 O78 2.364282 1_555
Na1 O108 2.370409 1_555
Na1 O80 2.511229 1_545
Na1 O112 2.521761 1_555
Na1 O6 2.559504 1_555
Na1 O70 2.577330 1_555
Na1 O50 2.634826 1_555
Na1 O36 2.815074 1_556
Na2 O77 2.357012 1_555
Na2 O74 2.368409 1_545
Na2 O118 2.381665 1_555
Na2 O114 2.550193 1_555
Na2 O4 2.622460 1_555
Na2 O61 2.690882 1_555
Na2 O46 2.705363 1_555
Na2 O57 2.707301 1_555
Na3 O119 2.323013 1_555
Na3 O75 2.338569 1_545
Na3 O115 2.376515 1_555
Na3 O76 2.392684 1_655
Na3 O5 2.502436 1_555
Na3 O60 2.719735 1_655
Na3 O47 2.776131 1_555
Na3 O56 2.935599 1_655
Na4 O72 2.274881 1_545
Na4 O114 2.308334 1_555
Na4 O76 2.487036 1_555
Na4 O116 2.523156 1_555
Na4 O0 2.535476 1_555
Na4 O62 2.689954 1_545
Na4 O42 2.741729 1_555
Na4 O58 2.761561 1_545
Na5 O73 2.349407 1_545
Na5 O115 2.373039 1_555
Na5 O117 2.408301 1_555
Na5 O77 2.428481 1_555
Na5 O43 2.671371 1_555
Na5 O59 2.688974 1_545
Na5 O63 2.757349 1_545
Na5 O1 2.757663 1_555
Na6 O75 2.297732 1_555
Na6 O72 2.354840 1_655
Na6 O89 2.552894 1_555
Na6 O76 2.565811 1_665
Na6 O86 2.691367 1_665
Na6 O85 2.694444 1_565
Na7 O74 2.363737 1_555
Na7 O73 2.487755 1_555
Na7 O77 2.493942 1_565
Na7 O88 2.542031 1_555
Na7 O84 2.618908 1_565
Na7 O87 2.643265 1_565
Na8 O78 2.431252 1_665
Na8 O83 2.438876 1_555
Na8 O91 2.484431 1_556
Na8 O80 2.489501 1_655
Na8 O93 2.608907 1_566
Na8 O94 2.686249 1_666
Na9 O82 2.291531 1_545
Na9 O81 2.297315 1_545
Na9 O79 2.368798 1_555
Na9 O95 2.680394 1_556
Na9 O92 2.724225 1_556
Na9 O90 2.744004 1_546
Na10 O96 2.416353 1_555
Na10 O98 2.446293 1_555
Na10 O100 2.449801 1_555
Na10 O108 2.757394 1_555
Na10 O110 2.760149 1_555
Na10 O112 2.769551 1_555
Na11 O99 2.454443 1_555
Na11 O101 2.468529 1_555
Na11 O111 2.572205 1_555
Na11 O113 2.583240 1_555
Na11 O97 2.588367 1_555
Na11 O109 2.611836 1_555
Na12 O104 2.472640 1_555
Na12 O106 2.490518 1_555
Na12 O118 2.557799 1_555
Na12 O102 2.580089 1_555
Na12 O114 2.603258 1_555
Na12 O116 2.717776 1_555
Na13 O105 2.454272 1_555
Na13 O103 2.534966 1_555
Na13 O119 2.543509 1_555
Na13 O117 2.569026 1_555
Na13 O115 2.586746 1_555
Na13 O107 2.639052 1_555
Na14 O122 2.355998 1_555
Na14 O120 2.515470 1_555
Na14 O136 2.544900 1_555
Na14 O132 2.547976 1_555
Na14 O124 2.592761 1_555
Na14 O134 2.728973 1_555
Na15 O121 2.412055 1_555
Na15 O137 2.426968 1_555
Na15 O123 2.533251 1_555
Na15 O135 2.553363 1_555
Na15 O125 2.558907 1_555
Na15 O133 2.606407 1_555
Na16 O138 2.414531 1_555
Na16 O142 2.507529 1_555
Na16 O140 2.533144 1_555
Na16 O126 2.554997 1_555
Na16 O128 2.595023 1_555
Na16 O130 2.621310 1_555
Na17 O131 2.433543 1_555
Na17 O127 2.477215 1_555
Na17 O129 2.490434 1_555
Na17 O141 2.534008 1_555
Na17 O139 2.636166 1_555
Na17 O143 2.678233 1_555
Al0 O5 1.838542 1_565
Al0 O75 1.864846 1_555
Al0 O0 1.866016 1_665
Al0 O72 1.902536 1_655
Al0 O3 1.949185 1_555
Al0 O76 2.244189 1_665
Al1 O74 1.808082 1_545
Al1 O4 1.828268 1_555
Al1 O73 1.833242 1_545
Al1 O77 1.849545 1_555
Al1 O2 2.131615 1_545
Al1 O1 2.187352 1_555
Al2 O6 1.789441 1_555
Al2 O9 1.791920 1_445
Al2 O78 1.847863 1_555
Al2 O11 2.032090 1_455
Al2 O80 2.101038 1_545
Al2 O83 2.171762 1_445
Al3 O10 1.821448 1_565
Al3 O8 1.829250 1_555
Al3 O7 1.846191 1_565
Al3 O81 1.960954 1_555
Al3 O82 1.973658 1_555
Al3 O79 2.202771 1_565
Al4 O96 1.768725 1_555
Al4 O100 1.770059 1_555
Al4 O98 1.785648 1_555
Al4 O24 2.071145 1_555
Al4 O28 2.109983 1_555
Al4 O26 2.127961 1_555
Al5 O99 1.773799 1_555
Al5 O101 1.794450 1_555
Al5 O29 1.900784 1_555
Al5 O27 2.053918 1_555
Al5 O97 2.077461 1_555
Al5 O25 2.107114 1_555
Al6 O104 1.785497 1_555
Al6 O106 1.791957 1_555
Al6 O32 1.946964 1_555
Al6 O102 2.001224 1_555
Al6 O34 2.015685 1_555
Al6 O30 2.028728 1_555
Al7 O31 1.767796 1_555
Al7 O35 1.838576 1_555
Al7 O105 1.852056 1_555
Al7 O103 2.043073 1_555
Al7 O33 2.064347 1_555
Al7 O107 2.233820 1_555
Al8 O108 1.803532 1_555
Al8 O36 1.927648 1_556
Al8 O40 1.945363 1_556
Al8 O38 1.953747 1_556
Al8 O112 1.963283 1_555
Al8 O110 2.018820 1_555
Al9 O118 1.796694 1_555
Al9 O114 1.846624 1_555
Al9 O46 1.913060 1_555
Al9 O44 1.933303 1_555
Al9 O116 1.999117 1_555
Al9 O42 2.061376 1_555
Al10 O117 1.783970 1_555
Al10 O119 1.805392 1_555
Al10 O115 1.835520 1_555
Al10 O47 2.032422 1_555
Al10 O43 2.038137 1_555
Al10 O45 2.044027 1_555
Al11 O50 1.781085 1_554
Al11 O48 1.786453 1_554
Al11 O122 1.834801 1_555
Al11 O52 1.962630 1_554
Al11 O120 2.145848 1_555
Al11 O124 2.311394 1_555
Al12 O53 1.774289 1_554
Al12 O121 1.824889 1_555
Al12 O51 1.947004 1_554
Al12 O49 1.964144 1_554
Al12 O125 2.046959 1_555
Al12 O123 2.126810 1_555
Al13 O54 1.736203 1_555
Al13 O58 1.775853 1_555
Al13 O56 1.946096 1_555
Al13 O126 2.058348 1_555
Al13 O128 2.095265 1_555
Al13 O130 2.177426 1_555
Al14 O55 1.759388 1_555
Al14 O57 1.777869 1_555
Al14 O59 1.788255 1_555
Al14 O127 2.219738 1_555
Al14 O129 2.237626 1_555
Al14 O131 2.240091 1_555
O0 Si0 1.598834 1_555
O1 S0 1.461411 1_555
O2 S1 1.465092 1_555
O3 S2 1.467312 1_555
O4 Si2 1.601789 1_555
O5 Si1 1.613970 1_555
O6 Si3 1.599816 1_555
O7 Si4 1.582627 1_555
O8 Si6 1.588654 1_555
O9 Si5 1.607269 1_555
O10 Si7 1.586764 1_555
O11 S3 1.466592 1_555
O12 Si7 1.696533 1_565
O12 Ta1 1.845599 1_565
O13 S3 1.501961 1_565
O13 Ta0 2.061903 1_655
O14 Si3 1.678724 1_555
O14 Ta0 1.838973 1_545
O15 Si4 1.686728 1_555
O15 Ta1 1.863649 1_555
O16 Si5 1.702991 1_455
O16 Ta0 1.826386 1_555
O17 Si6 1.654678 1_555
O17 Ta1 1.872131 1_565
O18 S1 1.503235 1_555
O18 Ta3 2.102524 1_565
O19 S2 1.503555 1_555
O19 Ta2 2.054017 1_665
O20 Si1 1.667724 1_455
O20 Ta2 1.894966 1_555
O21 Si2 1.681091 1_555
O21 Ta3 1.830870 1_555
O22 Si0 1.663044 1_565
O22 Ta2 1.843685 1_565
O23 S0 1.534070 1_565
O23 Ta3 2.003715 1_565
O24 S4 1.464030 1_555
O25 S5 1.466078 1_555
O26 S6 1.452356 1_555
O27 S7 1.477619 1_555
O28 S8 1.466286 1_555
O29 S9 1.477236 1_555
O30 S10 1.466178 1_555
O31 Si8 1.601341 1_555
O32 S11 1.472944 1_555
O33 S12 1.463507 1_555
O34 S13 1.465478 1_555
O35 Si9 1.602291 1_555
O36 S13 1.492013 1_555
O37 Si9 1.634360 1_555
O37 Ta4 1.919607 1_554
O38 S10 1.492314 1_555
O39 Si8 1.649308 1_555
O39 Ta4 1.904147 1_554
O40 S11 1.489891 1_555
O41 S12 1.489291 1_555
O41 Ta4 2.072561 1_554
O42 S6 1.478150 1_555
O43 S7 1.486593 1_555
O44 S8 1.489270 1_555
O45 S9 1.471327 1_555
O46 S4 1.495455 1_555
O47 S5 1.480515 1_555
O48 Si10 1.611800 1_555
O49 S14 1.468182 1_555
O50 Si11 1.615157 1_555
O51 S15 1.474076 1_555
O52 S16 1.466057 1_555
O53 Si12 1.623906 1_555
O54 Si13 1.599339 1_555
O55 Si14 1.606843 1_555
O56 S17 1.482788 1_555
O57 Si15 1.610792 1_555
O58 Si16 1.619326 1_555
O59 Si17 1.618700 1_555
O60 Si16 1.700890 1_555
O60 Ta5 1.875639 1_555
O61 Si17 1.695548 1_555
O61 Ta6 1.879621 1_555
O62 Si13 1.669085 1_555
O62 Ta5 1.944224 1_555
O63 Si14 1.682840 1_555
O63 Ta6 1.929005 1_555
O64 S17 1.482293 1_555
O64 Ta5 2.188418 1_555
O65 Si15 1.677355 1_555
O65 Ta6 1.855945 1_555
O66 Si11 1.635674 1_555
O66 Ta7 1.941128 1_555
O67 S15 1.520209 1_555
O67 Ta8 2.091887 1_555
O68 S16 1.468582 1_555
O68 Ta7 2.238433 1_555
O69 Si12 1.670542 1_555
O69 Ta8 1.885702 1_555
O70 Si10 1.668001 1_555
O70 Ta7 1.943915 1_555
O71 S14 1.483274 1_555
O71 Ta8 2.109842 1_555
O72 Si16 1.608617 1_555
O73 Si17 1.598133 1_555
O74 Si13 1.601791 1_555
O75 Si14 1.616048 1_555
O76 S17 1.482911 1_555
O77 Si15 1.620035 1_555
O78 Si11 1.638836 1_555
O79 S15 1.442816 1_555
O80 S16 1.493557 1_555
O81 Si12 1.601987 1_555
O82 Si10 1.608246 1_555
O83 S14 1.461381 1_555
O84 S4 1.518960 1_555
O84 Ta1 2.136744 1_555
O85 S5 1.529691 1_555
O85 Ta0 2.120821 1_645
O86 S6 1.553729 1_555
O86 Ta0 2.039028 1_545
O87 S7 1.518583 1_555
O87 Ta1 2.176442 1_555
O88 S8 1.513880 1_555
O88 Ta1 2.230769 1_565
O89 S9 1.532396 1_555
O89 Ta0 2.116474 1_655
O90 S10 1.512625 1_555
O90 Ta3 2.140556 1_565
O91 Si8 1.678185 1_555
O91 Ta2 1.943353 1_665
O92 S11 1.537150 1_555
O92 Ta3 2.049723 1_555
O93 S12 1.500267 1_555
O93 Ta2 2.141708 1_655
O94 S13 1.523580 1_555
O94 Ta2 2.072420 1_555
O95 Si9 1.710802 1_555
O95 Ta3 1.863601 1_555
O96 Si7 1.592103 1_555
O97 S3 1.448048 1_555
O98 Si3 1.577284 1_555
O99 Si4 1.604404 1_555
O100 Si6 1.579415 1_555
O101 Si5 1.604896 1_555
O102 S1 1.470627 1_555
O103 S2 1.465155 1_555
O104 Si2 1.600684 1_555
O105 Si1 1.619319 1_555
O106 Si0 1.596013 1_555
O107 S0 1.452410 1_555
O108 Si10 1.696526 1_555
O109 S14 1.501436 1_555
O109 Ta4 2.048149 1_555
O110 S15 1.506895 1_555
O111 Si11 1.628290 1_655
O111 Ta4 1.938338 1_555
O112 S16 1.518465 1_545
O113 Si12 1.626732 1_545
O113 Ta4 1.947262 1_555
O114 Si13 1.654132 1_545
O115 Si14 1.634525 1_545
O116 S17 1.480820 1_555
O117 Si15 1.598980 1_555
O118 Si17 1.616336 1_555
O119 Si16 1.601984 1_655
O120 S13 1.460063 1_555
O121 Si9 1.622544 1_555
O122 Si8 1.619463 1_455
O123 S10 1.472132 1_555
O124 S11 1.445865 1_565
O125 S12 1.474603 1_565
O126 S6 1.483221 1_565
O127 S7 1.484658 1_565
O128 S8 1.496993 1_555
O129 S9 1.469781 1_555
O130 S5 1.488994 1_455
O131 S4 1.475158 1_555
O132 Si0 1.665012 1_565
O132 Ta5 1.888664 1_555
O133 S0 1.496384 1_565
O133 Ta6 2.198631 1_555
O134 S1 1.491341 1_555
O134 Ta5 2.187239 1_555
O135 S2 1.489066 1_555
O135 Ta6 2.195034 1_555
O136 Si1 1.671284 1_455
O136 Ta5 1.947958 1_555
O137 Si2 1.649771 1_555
O137 Ta6 1.983815 1_555
O138 Si3 1.637410 1_555
O138 Ta7 1.905679 1_555
O139 Si4 1.666221 1_555
O139 Ta8 1.920790 1_555
O140 Si5 1.621022 1_455
O140 Ta7 1.973259 1_555
O141 Si6 1.683274 1_555
O141 Ta8 1.862293 1_555
O142 Si7 1.639851 1_565
O142 Ta7 1.937372 1_555
O143 S3 1.509077 1_565
O143 Ta8 2.074947 1_555
