# generated using pymatgen
data_Dy4Mg(CuO4)2
_symmetry_space_group_name_H-M   'P 1'
_cell_length_a   6.10299570
_cell_length_b   6.70987813
_cell_length_c   6.50561474
_cell_angle_alpha   121.77975535
_cell_angle_beta   106.33651472
_cell_angle_gamma   92.15248077
_symmetry_Int_Tables_number   1
_chemical_formula_structural   Dy4Mg(CuO4)2
_chemical_formula_sum   'Dy4 Mg1 Cu2 O8'
_cell_volume   211.61827743
_cell_formula_units_Z   1
loop_
 _symmetry_equiv_pos_site_id
 _symmetry_equiv_pos_as_xyz
  1  'x, y, z'
loop_
 _atom_site_type_symbol
 _atom_site_label
 _atom_site_symmetry_multiplicity
 _atom_site_fract_x
 _atom_site_fract_y
 _atom_site_fract_z
 _atom_site_occupancy
  Dy  Dy0  1  0.98283210  0.22957297  0.48641996  1
  Dy  Dy1  1  0.00072546  0.71876460  0.47843999  1
  Dy  Dy2  1  0.53699811  0.63685089  0.81980172  1
  Dy  Dy3  1  0.41582910  0.33345407  0.12899414  1
  Mg  Mg0  1  0.11609078  0.79174651  0.03414466  1
  Cu  Cu0  1  0.80793800  0.19187156  -0.02221254  1
  Cu  Cu1  1  0.51732763  0.98304056  0.51050414  1
  O  O0  1  0.20370744  0.94444056  0.40800581  1
  O  O1  1  0.23960004  0.48732375  0.90353197  1
  O  O2  1  0.24082502  0.45017726  0.42281383  1
  O  O3  1  0.29580250  0.92767147  0.90484118  1
  O  O4  1  0.83887109  -0.05015935  0.05169735  1
  O  O5  1  0.74432043  0.49185605  0.53103434  1
  O  O6  1  0.72722279  0.49782222  0.06881869  1
  O  O7  1  0.83190951  0.02556687  0.60649776  1
loop_
_geom_bond_atom_site_label_1
_geom_bond_atom_site_label_2
_geom_bond_distance
_geom_bond_site_symmetry_2
Dy0 O7 2.183756 1_555
Dy0 O4 2.276022 1_555
Dy0 O5 2.278684 1_555
Dy0 O1 2.295912 1_655
Dy0 O0 2.300054 1_645
Dy0 O2 2.382869 1_655
Dy1 O7 2.197526 1_465
Dy1 O0 2.224147 1_555
Dy1 O6 2.288213 1_455
Dy1 O2 2.309926 1_555
Dy1 O5 2.356871 1_455
Dy1 O3 2.409854 1_555
Dy2 O4 2.211163 1_566
Dy2 O2 2.302736 1_555
Dy2 O6 2.336150 1_556
Dy2 O5 2.362452 1_555
Dy2 O1 2.364886 1_555
Dy2 O3 2.411956 1_555
Dy3 O2 2.245512 1_555
Dy3 O3 2.267949 1_544
Dy3 O1 2.272699 1_554
Dy3 O6 2.386867 1_555
Dy3 O5 2.439626 1_555
Mg0 O0 1.963076 1_555
Mg0 O3 1.998586 1_554
Mg0 O1 2.027401 1_554
Mg0 O4 2.028954 1_465
Cu0 O4 1.923191 1_555
Cu0 O6 1.940942 1_555
Cu0 O7 2.114963 1_554
Cu1 O0 1.799462 1_555
Cu1 O7 1.803903 1_565
