# generated using pymatgen
data_Na2Y2Nb2Si3(SO8)3
_symmetry_space_group_name_H-M   'P 1'
_cell_length_a   9.11394577
_cell_length_b   9.11897598
_cell_length_c   23.59282929
_cell_angle_alpha   91.67536336
_cell_angle_beta   90.05876591
_cell_angle_gamma   119.82759866
_symmetry_Int_Tables_number   1
_chemical_formula_structural   Na2Y2Nb2Si3(SO8)3
_chemical_formula_sum   'Na6 Y6 Nb6 Si9 S9 O72'
_cell_volume   1700.04075722
_cell_formula_units_Z   3
loop_
 _symmetry_equiv_pos_site_id
 _symmetry_equiv_pos_as_xyz
  1  'x, y, z'
loop_
 _atom_site_type_symbol
 _atom_site_label
 _atom_site_symmetry_multiplicity
 _atom_site_fract_x
 _atom_site_fract_y
 _atom_site_fract_z
 _atom_site_occupancy
  Na  Na0  1  0.97993458  0.97668995  0.49121217  1
  Na  Na1  1  0.01645207  0.99102094  0.00012800  1
  Na  Na2  1  0.64354573  0.31095732  0.82425571  1
  Na  Na3  1  0.66648690  0.30882343  0.32690435  1
  Na  Na4  1  0.30758630  0.65700118  0.17119160  1
  Na  Na5  1  0.35290044  0.66072036  0.65922004  1
  Y  Y0  1  0.99887804  0.00400972  0.35462854  1
  Y  Y1  1  0.00945433  0.00700648  0.85297322  1
  Y  Y2  1  0.65623180  0.33400849  0.68715825  1
  Y  Y3  1  0.68030891  0.33491011  0.18829700  1
  Y  Y4  1  0.32502769  0.67201170  0.02104837  1
  Y  Y5  1  0.34417848  0.67629051  0.51918693  1
  Nb  Nb0  1  0.98867147  0.00989708  0.64597652  1
  Nb  Nb1  1  0.00678137  0.99064163  0.15415267  1
  Nb  Nb2  1  0.66680462  0.33601576  0.98012190  1
  Nb  Nb3  1  0.67653981  0.34928152  0.47386274  1
  Nb  Nb4  1  0.31395799  0.67992378  0.31382484  1
  Nb  Nb5  1  0.34945575  0.68733236  0.80662970  1
  Si  Si0  1  0.29751914  0.00121191  0.25370196  1
  Si  Si1  1  0.01456277  0.30000515  0.25251877  1
  Si  Si2  1  0.28756693  0.29467985  0.75217522  1
  Si  Si3  1  0.71354668  0.00531032  0.75206361  1
  Si  Si4  1  0.67270327  0.62900491  0.58561815  1
  Si  Si5  1  0.95649019  0.63540222  0.08513442  1
  Si  Si6  1  0.33706572  0.96143894  0.91875539  1
  Si  Si7  1  0.62182056  0.96123114  0.41846305  1
  Si  Si8  1  0.03962538  0.66908805  0.41988086  1
  S  S0  1  0.70113783  0.71523489  0.24814072  1
  S  S1  1  0.01257974  0.71417319  0.74892717  1
  S  S2  1  0.95279816  0.32540693  0.58282248  1
  S  S3  1  0.36327498  0.04528310  0.58287100  1
  S  S4  1  0.68172081  0.05062393  0.07973506  1
  S  S5  1  0.37169030  0.32234692  0.08205448  1
  S  S6  1  0.61798349  0.65444741  0.91656437  1
  S  S7  1  0.03085001  0.37779552  0.91740781  1
  S  S8  1  0.34519603  0.38062179  0.41670620  1
  O  O0  1  0.20605162  0.01564755  0.30774624  1
  O  O1  1  0.80067210  0.78868394  0.29956930  1
  O  O2  1  0.98341960  0.18570685  0.30474263  1
  O  O3  1  0.20507216  0.18503693  0.80611793  1
  O  O4  1  0.98778810  0.78500292  0.80188725  1
  O  O5  1  0.80659679  0.00712407  0.80831927  1
  O  O6  1  0.80770237  0.97508605  0.69362871  1
  O  O7  1  0.16289607  0.19178148  0.69416499  1
  O  O8  1  0.03589581  0.81963545  0.69941980  1
  O  O9  1  0.79943959  0.82371873  0.19683150  1
  O  O10  1  0.02631728  0.18625887  0.19299567  1
  O  O11  1  0.16678384  0.96683681  0.19434067  1
  O  O12  1  0.87586434  0.34467721  0.63454012  1
  O  O13  1  0.46492161  0.12135361  0.63483570  1
  O  O14  1  0.66578037  0.52730622  0.63955772  1
  O  O15  1  0.86118673  0.52569395  0.13734005  1
  O  O16  1  0.65009336  0.12160060  0.13126171  1
  O  O17  1  0.47124016  0.34570387  0.13295140  1
  O  O18  1  0.46215296  0.30202557  0.02962925  1
  O  O19  1  0.82904490  0.52235491  0.02678463  1
  O  O20  1  0.69010571  0.15709450  0.02940419  1
  O  O21  1  0.44750160  0.14498295  0.53263281  1
  O  O22  1  0.68992348  0.52147787  0.52748170  1
  O  O23  1  0.84665777  0.29938529  0.53128203  1
  O  O24  1  0.53945791  0.67398579  0.96783744  1
  O  O25  1  0.13182462  0.45466618  0.96923296  1
  O  O26  1  0.32721265  0.85457418  0.97182238  1
  O  O27  1  0.53897839  0.85183928  0.47231797  1
  O  O28  1  0.32692140  0.45659348  0.46963158  1
  O  O29  1  0.14040487  0.67289713  0.47438478  1
  O  O30  1  0.13172185  0.63972641  0.36011706  1
  O  O31  1  0.49430323  0.85433195  0.36051280  1
  O  O32  1  0.36727095  0.48204178  0.36672644  1
  O  O33  1  0.10722000  0.47767483  0.86713718  1
  O  O34  1  0.35833028  0.85718280  0.86036618  1
  O  O35  1  0.51141057  0.63019061  0.86461420  1
  O  O36  1  0.00134699  0.81901204  0.41391549  1
  O  O37  1  0.81348781  0.00652216  0.41262875  1
  O  O38  1  0.20442707  0.20748780  0.41232106  1
  O  O39  1  0.99735091  0.20300449  0.91302869  1
  O  O40  1  0.17917954  0.99224631  0.91594936  1
  O  O41  1  0.79010490  0.79689176  0.91172257  1
  O  O42  1  0.96268966  0.16102804  0.58748496  1
  O  O43  1  0.19403070  0.03666507  0.58920364  1
  O  O44  1  0.85474677  0.82063464  0.59381395  1
  O  O45  1  0.96384775  0.82418352  0.09016528  1
  O  O46  1  0.84289836  0.04846700  0.08247934  1
  O  O47  1  0.20292235  0.16451433  0.08409392  1
  O  O48  1  0.67936024  0.15777030  0.74485530  1
  O  O49  1  0.48021170  0.33950423  0.74633657  1
  O  O50  1  0.87552483  0.53974735  0.74193876  1
  O  O51  1  0.67496050  0.54470212  0.23943176  1
  O  O52  1  0.86351858  0.34056383  0.24462267  1
  O  O53  1  0.47987694  0.15640822  0.24272473  1
  O  O54  1  0.62851606  0.49194624  0.92177346  1
  O  O55  1  0.85708137  0.36567219  0.92521451  1
  O  O56  1  0.51670324  0.15236483  0.92787287  1
  O  O57  1  0.62314047  0.14728349  0.42893760  1
  O  O58  1  0.50716520  0.36788356  0.42186624  1
  O  O59  1  0.84983854  0.48397451  0.42504112  1
  O  O60  1  0.35091106  0.47032902  0.07420246  1
  O  O61  1  0.14487597  0.66316214  0.08027577  1
  O  O62  1  0.53993447  0.87678582  0.07237085  1
  O  O63  1  0.33242361  0.87035505  0.57897169  1
  O  O64  1  0.51539243  0.66134983  0.58251857  1
  O  O65  1  0.12563307  0.46538227  0.57845094  1
  O  O66  1  0.30253899  0.81893672  0.25630075  1
  O  O67  1  0.53853447  0.71329712  0.24842507  1
  O  O68  1  0.19883066  0.48295947  0.25928737  1
  O  O69  1  0.29206268  0.48263426  0.76319913  1
  O  O70  1  0.17624567  0.70523961  0.75479396  1
  O  O71  1  0.52019314  0.82136159  0.75730131  1
loop_
_geom_bond_atom_site_label_1
_geom_bond_atom_site_label_2
_geom_bond_distance
_geom_bond_site_symmetry_2
Na0 O36 2.357490 1_655
Na0 O37 2.499368 1_565
Na0 O44 2.788983 1_555
Na0 O38 2.834288 1_665
Na0 O42 2.837198 1_565
Na0 O43 2.882118 1_665
Na1 O40 2.476848 1_554
Na1 O47 2.539822 1_565
Na1 O45 2.553881 1_455
Na1 O46 2.705978 1_465
Na1 O41 2.807518 1_454
Na1 O39 2.925077 1_464
Na2 O48 2.422583 1_555
Na2 O49 2.463956 1_555
Na2 O56 2.820191 1_555
Na2 O54 2.835404 1_555
Na2 O50 2.907208 1_555
Na2 O55 2.943631 1_555
Na3 O53 2.499762 1_555
Na3 O52 2.569024 1_555
Na3 O57 2.784113 1_555
Na3 O59 2.797310 1_555
Na3 O58 2.851675 1_555
Na3 O51 2.997707 1_555
Na4 O66 2.471645 1_555
Na4 O68 2.540348 1_555
Na4 O67 2.622347 1_555
Na4 O61 2.624216 1_555
Na4 O60 2.955066 1_555
Na5 O64 2.337850 1_555
Na5 O65 2.686552 1_555
Na5 O71 2.719917 1_555
Na5 O63 2.799926 1_555
Na5 O69 2.881438 1_555
Na5 O70 2.906115 1_555
Nb0 O6 1.894432 1_545
Nb0 O44 1.939110 1_545
Nb0 O7 1.957286 1_655
Nb0 O42 2.072419 1_555
Nb0 O43 2.219562 1_655
Nb0 O8 2.378003 1_645
Nb1 O11 1.843017 1_555
Nb1 O10 1.908322 1_565
Nb1 O45 2.002542 1_455
Nb1 O9 2.033206 1_455
Nb1 O47 2.404431 1_565
Nb1 O46 2.489740 1_465
Nb2 O19 1.916659 1_556
Nb2 O56 1.947414 1_555
Nb2 O55 2.077777 1_555
Nb2 O18 2.095180 1_556
Nb2 O20 2.124651 1_556
Nb2 O54 2.155404 1_555
Nb3 O59 1.867243 1_555
Nb3 O57 1.935530 1_555
Nb3 O22 1.942641 1_555
Nb3 O58 2.045818 1_555
Nb3 O23 2.275871 1_555
Nb3 O21 2.457450 1_555
Nb4 O30 1.872762 1_555
Nb4 O66 1.921250 1_555
Nb4 O31 1.933322 1_555
Nb4 O68 1.992457 1_555
Nb4 O32 2.460213 1_555
Nb4 O67 2.465146 1_555
Nb5 O71 1.861337 1_555
Nb5 O69 1.929666 1_555
Nb5 O34 1.942465 1_555
Nb5 O70 2.068453 1_555
Nb5 O35 2.263706 1_555
Nb5 O33 2.556236 1_555
O0 Si0 1.561912 1_555
O0 Y0 2.147483 1_455
O1 S0 1.445522 1_555
O1 Y0 2.263553 1_565
O2 Si1 1.570517 1_655
O2 Y0 2.120437 1_555
O3 Si2 1.585299 1_555
O3 Y1 2.065401 1_555
O4 S1 1.458766 1_655
O4 Y1 2.247041 1_665
O5 Si3 1.569542 1_555
O5 Y1 2.127467 1_655
O6 Si3 1.711286 1_565
O7 Si2 1.704627 1_555
O8 S1 1.482296 1_555
O9 S0 1.561173 1_555
O10 Si1 1.756459 1_555
O11 Si0 1.754630 1_565
O12 S2 1.457090 1_555
O12 Y2 2.318594 1_555
O13 S3 1.466678 1_555
O13 Y2 2.194654 1_555
O14 Si4 1.579390 1_555
O14 Y2 2.083064 1_555
O15 Si5 1.575485 1_555
O15 Y3 2.112577 1_555
O16 S4 1.456068 1_555
O16 Y3 2.232380 1_555
O17 S5 1.449498 1_555
O17 Y3 2.352527 1_555
O18 S5 1.544212 1_555
O19 Si5 1.740568 1_555
O20 S4 1.533726 1_555
O21 S3 1.480302 1_555
O22 Si4 1.715304 1_555
O23 S2 1.490998 1_555
O24 S6 1.457147 1_555
O24 Y4 2.316681 1_556
O25 S7 1.462576 1_555
O25 Y4 2.214810 1_556
O26 Si6 1.584213 1_555
O26 Y4 2.049592 1_556
O27 Si7 1.583158 1_555
O27 Y5 2.053694 1_555
O28 S8 1.459955 1_555
O28 Y5 2.225875 1_555
O29 Si8 1.568954 1_555
O29 Y5 2.122320 1_555
O30 Si8 1.722855 1_555
O31 Si7 1.721047 1_555
O32 S8 1.471530 1_555
O33 S7 1.467955 1_555
O34 Si6 1.716495 1_555
O35 S6 1.504178 1_555
O36 Si8 1.579950 1_555
O36 Y0 2.231279 1_465
O37 Si7 1.589689 1_545
O37 Y0 2.183874 1_555
O38 S8 1.457571 1_555
O38 Y0 2.279092 1_455
O39 S7 1.466513 1_655
O39 Y1 2.294021 1_655
O40 Si6 1.599051 1_555
O40 Y1 2.198310 1_565
O41 S6 1.463952 1_555
O41 Y1 2.437097 1_665
O42 S2 1.552797 1_555
O43 S3 1.512721 1_555
O44 Si4 1.714404 1_555
O45 Si5 1.689769 1_555
O46 S4 1.480221 1_555
O47 S5 1.497212 1_555
O48 Si3 1.582247 1_555
O48 Y2 2.223631 1_555
O49 Si2 1.599559 1_555
O49 Y2 2.146136 1_555
O50 S1 1.457811 1_655
O50 Y2 2.303807 1_555
O51 S0 1.459303 1_555
O51 Y3 2.252920 1_555
O52 Si1 1.605160 1_655
O52 Y3 2.112463 1_555
O53 Si0 1.585769 1_555
O53 Y3 2.191921 1_555
O54 S6 1.540231 1_555
O55 S7 1.543349 1_655
O56 Si6 1.702868 1_545
O57 Si7 1.701430 1_545
O58 S8 1.542223 1_555
O59 Si8 1.721645 1_655
O60 S5 1.469679 1_555
O60 Y4 2.361479 1_555
O61 Si5 1.610849 1_455
O61 Y4 2.129409 1_555
O62 S4 1.469228 1_565
O62 Y4 2.239180 1_555
O63 S3 1.475553 1_565
O63 Y5 2.275006 1_555
O64 Si4 1.603005 1_555
O64 Y5 2.214652 1_555
O65 S2 1.459133 1_455
O65 Y5 2.444054 1_555
O66 Si0 1.688265 1_565
O67 S0 1.473273 1_555
O68 Si1 1.681059 1_555
O69 Si2 1.706167 1_555
O70 S1 1.540101 1_555
O71 Si3 1.733905 1_565
