# generated using pymatgen
data_MgMnV4CoO12
_symmetry_space_group_name_H-M   'P 1'
_cell_length_a   7.03487532
_cell_length_b   6.99078099
_cell_length_c   5.74084967
_cell_angle_alpha   73.17789213
_cell_angle_beta   107.08286862
_cell_angle_gamma   99.74280787
_symmetry_Int_Tables_number   1
_chemical_formula_structural   MgMnV4CoO12
_chemical_formula_sum   'Mg1 Mn1 V4 Co1 O12'
_cell_volume   257.22965267
_cell_formula_units_Z   1
loop_
 _symmetry_equiv_pos_site_id
 _symmetry_equiv_pos_as_xyz
  1  'x, y, z'
loop_
 _atom_site_type_symbol
 _atom_site_label
 _atom_site_symmetry_multiplicity
 _atom_site_fract_x
 _atom_site_fract_y
 _atom_site_fract_z
 _atom_site_occupancy
  Mg  Mg0  1  0.27797700  0.26886300  0.26669500  1
  Mn  Mn0  1  0.91429500  0.91655300  0.24736600  1
  V  V0  1  0.19389600  0.61267600  0.78245800  1
  V  V1  1  0.38845100  0.81067100  0.27580700  1
  V  V2  1  0.61686500  0.19893400  0.71971700  1
  V  V3  1  0.81887300  0.39108600  0.23014300  1
  Co  Co0  1  0.08651300  0.08437000  0.75183000  1
  O  O0  1  0.03423700  0.80063600  0.66728800  1
  O  O1  1  0.08872500  0.36963300  0.80236700  1
  O  O2  1  0.21057400  0.00453100  0.14676700  1
  O  O3  1  0.36398200  0.66445700  0.59768100  1
  O  O4  1  0.36666300  0.10636800  0.67203700  1
  O  O5  1  0.31315100  0.59023700  0.11418900  1
  O  O6  1  0.66463500  0.36492000  0.90961400  1
  O  O7  1  0.62217800  0.90577900  0.25815200  1
  O  O8  1  0.60336900  0.32097100  0.39269400  1
  O  O9  1  0.79788100  0.03226600  0.83346000  1
  O  O10  1  0.91367700  0.62917900  0.23090300  1
  O  O11  1  0.00183700  0.20565000  0.35082900  1
loop_
_geom_bond_atom_site_label_1
_geom_bond_atom_site_label_2
_geom_bond_distance
_geom_bond_site_symmetry_2
Mg0 O11 2.083140 1_555
Mg0 O2 2.088437 1_555
Mg0 O5 2.162371 1_555
Mg0 O8 2.189374 1_555
Mg0 O4 2.225206 1_555
Mg0 O1 2.553414 1_554
Mn0 O10 2.037549 1_555
Mn0 O7 2.062094 1_555
Mn0 O11 2.207987 1_665
Mn0 O9 2.222529 1_564
Mn0 O0 2.255174 1_655
Mn0 O2 2.263580 1_665
Co0 O1 2.093565 1_555
Co0 O2 2.117456 1_556
Co0 O4 2.122420 1_555
Co0 O0 2.123822 1_545
Co0 O11 2.146821 1_555
Co0 O9 2.164508 1_455
O0 V0 1.727891 1_555
O1 V0 1.720201 1_555
O2 V1 1.843788 1_545
O3 V0 1.750665 1_555
O3 V1 1.876967 1_555
O4 V2 1.739464 1_555
O5 V0 1.813342 1_554
O5 V1 1.943885 1_555
O6 V2 1.741504 1_555
O6 V3 1.884518 1_556
O7 V1 1.686643 1_555
O8 V2 1.804741 1_555
O8 V3 1.929869 1_555
O9 V2 1.725927 1_555
O10 V3 1.685829 1_555
O11 V3 1.827068 1_455
