# generated using pymatgen
data_Na3TaInSi2PO12
_symmetry_space_group_name_H-M   'P 1'
_cell_length_a   15.86191136
_cell_length_b   27.35082249
_cell_length_c   9.03260769
_cell_angle_alpha   90.00000000
_cell_angle_beta   125.09287304
_cell_angle_gamma   90.00000000
_symmetry_Int_Tables_number   1
_chemical_formula_structural   Na3TaInSi2PO12
_chemical_formula_sum   'Na36 Ta12 In12 Si24 P12 O144'
_cell_volume   3206.34170611
_cell_formula_units_Z   12
loop_
 _symmetry_equiv_pos_site_id
 _symmetry_equiv_pos_as_xyz
  1  'x, y, z'
loop_
 _atom_site_type_symbol
 _atom_site_label
 _atom_site_symmetry_multiplicity
 _atom_site_fract_x
 _atom_site_fract_y
 _atom_site_fract_z
 _atom_site_occupancy
  Na  Na0  1  0.25369245  0.25501171  0.00793191  1
  Na  Na1  1  0.24670834  0.58744307  0.01784747  1
  Na  Na2  1  0.24876747  0.91883845  0.02022306  1
  Na  Na3  1  0.75369245  0.24498829  0.50793191  1
  Na  Na4  1  0.74876747  0.58116155  0.52022306  1
  Na  Na5  1  0.74670834  0.91255693  0.51784747  1
  Na  Na6  1  0.74670834  0.08744307  0.01784747  1
  Na  Na7  1  0.74876747  0.41883845  0.02022306  1
  Na  Na8  1  0.75369245  0.75501171  0.00793191  1
  Na  Na9  1  0.24876747  0.08116155  0.52022306  1
  Na  Na10  1  0.24670834  0.41255693  0.51784747  1
  Na  Na11  1  0.25369245  0.74498829  0.50793191  1
  Na  Na12  1  0.49453787  0.03342208  0.75472966  1
  Na  Na13  1  0.49664248  0.36773005  0.76092603  1
  Na  Na14  1  0.49536036  0.70037880  0.75431957  1
  Na  Na15  1  0.49536036  0.29962120  0.25431957  1
  Na  Na16  1  0.49664248  0.63226995  0.26092603  1
  Na  Na17  1  0.49453787  0.96657792  0.25472966  1
  Na  Na18  1  0.99536036  0.20037880  0.75431957  1
  Na  Na19  1  0.99453787  0.53342208  0.75472966  1
  Na  Na20  1  0.99664248  0.86773005  0.76092603  1
  Na  Na21  1  0.99664248  0.13226995  0.26092603  1
  Na  Na22  1  0.99453787  0.46657792  0.25472966  1
  Na  Na23  1  0.99536036  0.79962120  0.25431957  1
  Na  Na24  1  0.81866010  0.64420153  0.20485419  1
  Na  Na25  1  0.81855517  0.97781259  0.21083922  1
  Na  Na26  1  0.19376800  0.30678000  0.28743152  1
  Na  Na27  1  0.19376800  0.69322000  0.78743152  1
  Na  Na28  1  0.81855517  0.02218741  0.71083922  1
  Na  Na29  1  0.81866010  0.35579847  0.70485419  1
  Na  Na30  1  0.31866010  0.14420153  0.20485419  1
  Na  Na31  1  0.31855517  0.47781259  0.21083922  1
  Na  Na32  1  0.69376800  0.80678000  0.28743152  1
  Na  Na33  1  0.69376800  0.19322000  0.78743152  1
  Na  Na34  1  0.31855517  0.52218741  0.71083922  1
  Na  Na35  1  0.31866010  0.85579847  0.70485419  1
  Ta  Ta0  1  0.10631058  0.24782585  0.56604261  1
  Ta  Ta1  1  0.10453290  0.58259800  0.56605959  1
  Ta  Ta2  1  0.10601026  0.91689159  0.56573476  1
  Ta  Ta3  1  0.10601026  0.08310841  0.06573476  1
  Ta  Ta4  1  0.10453290  0.41740200  0.06605959  1
  Ta  Ta5  1  0.10631058  0.75217415  0.06604261  1
  Ta  Ta6  1  0.60453290  0.08259800  0.56605959  1
  Ta  Ta7  1  0.60601026  0.41689159  0.56573476  1
  Ta  Ta8  1  0.60631058  0.74782585  0.56604261  1
  Ta  Ta9  1  0.60631058  0.25217415  0.06604261  1
  Ta  Ta10  1  0.60601026  0.58310841  0.06573476  1
  Ta  Ta11  1  0.60453290  0.91740200  0.06605959  1
  In  In0  1  0.90068333  0.25078347  0.94810972  1
  In  In1  1  0.89607343  0.58320253  0.93653339  1
  In  In2  1  0.89579886  0.91468429  0.93933319  1
  In  In3  1  0.89579886  0.08531571  0.43933319  1
  In  In4  1  0.89607343  0.41679747  0.43653339  1
  In  In5  1  0.90068333  0.74921653  0.44810972  1
  In  In6  1  0.39607343  0.08320253  0.93653339  1
  In  In7  1  0.39579886  0.41468429  0.93933319  1
  In  In8  1  0.40068333  0.75078347  0.94810972  1
  In  In9  1  0.40068333  0.24921653  0.44810972  1
  In  In10  1  0.39579886  0.58531571  0.43933319  1
  In  In11  1  0.39607343  0.91679747  0.43653339  1
  Si  Si0  1  0.34840590  0.29685301  0.74816143  1
  Si  Si1  1  0.35127748  0.63044895  0.75775917  1
  Si  Si2  1  0.35043068  0.96385456  0.75344057  1
  Si  Si3  1  0.64666777  0.30128513  0.74190236  1
  Si  Si4  1  0.64623027  0.63271843  0.74012731  1
  Si  Si5  1  0.64672918  0.96680254  0.74181455  1
  Si  Si6  1  0.64672918  0.03319746  0.24181455  1
  Si  Si7  1  0.64623027  0.36728157  0.24012731  1
  Si  Si8  1  0.64666777  0.69871487  0.24190236  1
  Si  Si9  1  0.35043068  0.03614544  0.25344057  1
  Si  Si10  1  0.35127748  0.36955105  0.25775917  1
  Si  Si11  1  0.34840590  0.70314699  0.24816143  1
  Si  Si12  1  0.85127748  0.13044895  0.75775917  1
  Si  Si13  1  0.85043068  0.46385456  0.75344057  1
  Si  Si14  1  0.84840590  0.79685301  0.74816143  1
  Si  Si15  1  0.14623027  0.13271843  0.74012731  1
  Si  Si16  1  0.14672918  0.46680254  0.74181455  1
  Si  Si17  1  0.14666777  0.80128513  0.74190236  1
  Si  Si18  1  0.14666777  0.19871487  0.24190236  1
  Si  Si19  1  0.14672918  0.53319746  0.24181455  1
  Si  Si20  1  0.14623027  0.86728157  0.24012731  1
  Si  Si21  1  0.84840590  0.20314699  0.24816143  1
  Si  Si22  1  0.85043068  0.53614544  0.25344057  1
  Si  Si23  1  0.85127748  0.86955105  0.25775917  1
  P  P0  1  0.00701118  0.31927099  0.75240059  1
  P  P1  1  0.00241359  0.65230960  0.74658504  1
  P  P2  1  0.00422960  0.98648699  0.74588111  1
  P  P3  1  0.00422960  0.01351301  0.24588111  1
  P  P4  1  0.00241359  0.34769040  0.24658504  1
  P  P5  1  0.00701118  0.68072901  0.25240059  1
  P  P6  1  0.50241359  0.15230960  0.74658504  1
  P  P7  1  0.50422960  0.48648699  0.74588111  1
  P  P8  1  0.50701118  0.81927099  0.75240059  1
  P  P9  1  0.50701118  0.18072901  0.25240059  1
  P  P10  1  0.50422960  0.51351301  0.24588111  1
  P  P11  1  0.50241359  0.84769040  0.24658504  1
  O  O0  1  0.14252570  0.19456740  0.74111419  1
  O  O1  1  0.14434407  0.52874629  0.74453066  1
  O  O2  1  0.14459500  0.86209618  0.74201318  1
  O  O3  1  0.84091041  0.18969656  0.75414066  1
  O  O4  1  0.84610310  0.52253325  0.75239163  1
  O  O5  1  0.84232111  0.85614279  0.74960642  1
  O  O6  1  0.84232111  0.14385721  0.24960642  1
  O  O7  1  0.84610310  0.47746675  0.25239163  1
  O  O8  1  0.84091041  0.81030344  0.25414066  1
  O  O9  1  0.14459500  0.13790382  0.24201318  1
  O  O10  1  0.14434407  0.47125371  0.24453066  1
  O  O11  1  0.14252570  0.80543260  0.24111419  1
  O  O12  1  0.64434407  0.02874629  0.74453066  1
  O  O13  1  0.64459500  0.36209618  0.74201318  1
  O  O14  1  0.64252570  0.69456740  0.74111419  1
  O  O15  1  0.34610310  0.02253325  0.75239163  1
  O  O16  1  0.34232111  0.35614279  0.74960642  1
  O  O17  1  0.34091041  0.68969656  0.75414066  1
  O  O18  1  0.34091041  0.31030344  0.25414066  1
  O  O19  1  0.34232111  0.64385721  0.24960642  1
  O  O20  1  0.34610310  0.97746675  0.25239163  1
  O  O21  1  0.64252570  0.30543260  0.24111419  1
  O  O22  1  0.64459500  0.63790382  0.24201318  1
  O  O23  1  0.64434407  0.97125371  0.24453066  1
  O  O24  1  0.43815488  0.17866958  0.56544687  1
  O  O25  1  0.43688926  0.51490326  0.57121188  1
  O  O26  1  0.44143354  0.85044184  0.58687485  1
  O  O27  1  0.56257226  0.18932926  0.90779343  1
  O  O28  1  0.56296022  0.52247918  0.91240128  1
  O  O29  1  0.57008659  0.85266584  0.92752358  1
  O  O30  1  0.57008659  0.14733416  0.42752358  1
  O  O31  1  0.56296022  0.47752082  0.41240128  1
  O  O32  1  0.56257226  0.81067074  0.40779343  1
  O  O33  1  0.44143354  0.14955816  0.08687485  1
  O  O34  1  0.43688926  0.48509674  0.07121188  1
  O  O35  1  0.43815488  0.82133042  0.06544687  1
  O  O36  1  0.93688926  0.01490326  0.57121188  1
  O  O37  1  0.94143354  0.35044184  0.58687485  1
  O  O38  1  0.93815488  0.67866958  0.56544687  1
  O  O39  1  0.06296022  0.02247918  0.91240128  1
  O  O40  1  0.07008659  0.35266584  0.92752358  1
  O  O41  1  0.06257226  0.68932926  0.90779343  1
  O  O42  1  0.06257226  0.31067074  0.40779343  1
  O  O43  1  0.07008659  0.64733416  0.42752358  1
  O  O44  1  0.06296022  0.97752082  0.41240128  1
  O  O45  1  0.93815488  0.32133042  0.06544687  1
  O  O46  1  0.94143354  0.64955816  0.08687485  1
  O  O47  1  0.93688926  0.98509674  0.07121188  1
  O  O48  1  0.24902925  0.27180009  0.73499369  1
  O  O49  1  0.25307725  0.60488157  0.74964792  1
  O  O50  1  0.25283503  0.93677228  0.74294297  1
  O  O51  1  0.74757760  0.28287026  0.75481138  1
  O  O52  1  0.74669426  0.61501336  0.75635233  1
  O  O53  1  0.74985141  0.95281505  0.75579203  1
  O  O54  1  0.74985141  0.04718495  0.25579203  1
  O  O55  1  0.74669426  0.38498664  0.25635233  1
  O  O56  1  0.74757760  0.71712974  0.25481138  1
  O  O57  1  0.25283503  0.06322772  0.24294297  1
  O  O58  1  0.25307725  0.39511843  0.24964792  1
  O  O59  1  0.24902925  0.72819991  0.23499369  1
  O  O60  1  0.75307725  0.10488157  0.74964792  1
  O  O61  1  0.75283503  0.43677228  0.74294297  1
  O  O62  1  0.74902925  0.77180009  0.73499369  1
  O  O63  1  0.24669426  0.11501336  0.75635233  1
  O  O64  1  0.24985141  0.45281505  0.75579203  1
  O  O65  1  0.24757760  0.78287026  0.75481138  1
  O  O66  1  0.24757760  0.21712974  0.25481138  1
  O  O67  1  0.24985141  0.54718495  0.25579203  1
  O  O68  1  0.24669426  0.88498664  0.25635233  1
  O  O69  1  0.74902925  0.22819991  0.23499369  1
  O  O70  1  0.75283503  0.56322772  0.24294297  1
  O  O71  1  0.75307725  0.89511843  0.24964792  1
  O  O72  1  0.33903668  0.28499238  0.56477820  1
  O  O73  1  0.34492169  0.61230493  0.58488472  1
  O  O74  1  0.34895683  0.94443949  0.58711842  1
  O  O75  1  0.63641953  0.28458948  0.91127383  1
  O  O76  1  0.63788991  0.61847276  0.91680109  1
  O  O77  1  0.64149121  0.95115378  0.92063600  1
  O  O78  1  0.64149121  0.04884622  0.42063600  1
  O  O79  1  0.63788991  0.38152724  0.41680109  1
  O  O80  1  0.63641953  0.71541052  0.41127383  1
  O  O81  1  0.34895683  0.05556051  0.08711842  1
  O  O82  1  0.34492169  0.38769507  0.08488472  1
  O  O83  1  0.33903668  0.71500762  0.06477820  1
  O  O84  1  0.84492169  0.11230493  0.58488472  1
  O  O85  1  0.84895683  0.44443949  0.58711842  1
  O  O86  1  0.83903668  0.78499238  0.56477820  1
  O  O87  1  0.13788991  0.11847276  0.91680109  1
  O  O88  1  0.14149121  0.45115378  0.92063600  1
  O  O89  1  0.13641953  0.78458948  0.91127383  1
  O  O90  1  0.13641953  0.21541052  0.41127383  1
  O  O91  1  0.14149121  0.54884622  0.42063600  1
  O  O92  1  0.13788991  0.88152724  0.41680109  1
  O  O93  1  0.83903668  0.21500762  0.06477820  1
  O  O94  1  0.84895683  0.55556051  0.08711842  1
  O  O95  1  0.84492169  0.88769507  0.08488472  1
  O  O96  1  0.45998808  0.27454650  0.92691596  1
  O  O97  1  0.46169889  0.60786144  0.94075112  1
  O  O98  1  0.46202426  0.94001357  0.93922173  1
  O  O99  1  0.54667594  0.28000228  0.55784869  1
  O  O100  1  0.54196333  0.61581946  0.55474635  1
  O  O101  1  0.54459941  0.94863700  0.55758751  1
  O  O102  1  0.54459941  0.05136300  0.05758751  1
  O  O103  1  0.54196333  0.38418054  0.05474635  1
  O  O104  1  0.54667594  0.71999772  0.05784869  1
  O  O105  1  0.46202426  0.05998643  0.43922173  1
  O  O106  1  0.46169889  0.39213856  0.44075112  1
  O  O107  1  0.45998808  0.72545350  0.42691596  1
  O  O108  1  0.96169889  0.10786144  0.94075112  1
  O  O109  1  0.96202426  0.44001357  0.93922173  1
  O  O110  1  0.95998808  0.77454650  0.92691596  1
  O  O111  1  0.04196333  0.11581946  0.55474635  1
  O  O112  1  0.04459941  0.44863700  0.55758751  1
  O  O113  1  0.04667594  0.78000228  0.55784869  1
  O  O114  1  0.04667594  0.21999772  0.05784869  1
  O  O115  1  0.04459941  0.55136300  0.05758751  1
  O  O116  1  0.04196333  0.88418054  0.05474635  1
  O  O117  1  0.95998808  0.22545350  0.42691596  1
  O  O118  1  0.96202426  0.55998643  0.43922173  1
  O  O119  1  0.96169889  0.89213856  0.44075112  1
  O  O120  1  0.08565248  0.28710498  0.74554380  1
  O  O121  1  0.09018863  0.62336181  0.75005574  1
  O  O122  1  0.08674990  0.95545063  0.74567272  1
  O  O123  1  0.93238172  0.28476515  0.76058149  1
  O  O124  1  0.93557497  0.61485933  0.75836671  1
  O  O125  1  0.93232837  0.95195748  0.75863895  1
  O  O126  1  0.93232837  0.04804252  0.25863895  1
  O  O127  1  0.93557497  0.38514067  0.25836671  1
  O  O128  1  0.93238172  0.71523485  0.26058149  1
  O  O129  1  0.08674990  0.04454937  0.24567272  1
  O  O130  1  0.09018863  0.37663819  0.25005574  1
  O  O131  1  0.08565248  0.71289502  0.24554380  1
  O  O132  1  0.59018863  0.12336181  0.75005574  1
  O  O133  1  0.58674990  0.45545063  0.74567272  1
  O  O134  1  0.58565248  0.78710498  0.74554380  1
  O  O135  1  0.43557497  0.11485933  0.75836671  1
  O  O136  1  0.43232837  0.45195748  0.75863895  1
  O  O137  1  0.43238172  0.78476515  0.76058149  1
  O  O138  1  0.43238172  0.21523485  0.26058149  1
  O  O139  1  0.43232837  0.54804252  0.25863895  1
  O  O140  1  0.43557497  0.88514067  0.25836671  1
  O  O141  1  0.58565248  0.21289502  0.24554380  1
  O  O142  1  0.58674990  0.54454937  0.24567272  1
  O  O143  1  0.59018863  0.87663819  0.25005574  1
loop_
_geom_bond_atom_site_label_1
_geom_bond_atom_site_label_2
_geom_bond_distance
_geom_bond_site_symmetry_2
Na0 O18 2.368354 1_555
Na0 O48 2.466690 1_554
Na0 O120 2.495715 1_554
Na0 O66 2.510848 1_555
Na0 O0 2.600849 1_554
Na0 O138 2.643452 1_555
Na1 O19 2.326515 1_555
Na1 O67 2.389771 1_555
Na1 O121 2.464724 1_554
Na1 O49 2.527409 1_554
Na1 O1 2.588336 1_554
Na1 O139 2.682829 1_555
Na2 O68 2.342665 1_555
Na2 O20 2.372766 1_555
Na2 O122 2.535595 1_554
Na2 O2 2.584463 1_554
Na2 O50 2.589091 1_554
Na2 O140 2.632094 1_555
Na3 O3 2.368354 1_555
Na3 O69 2.466690 1_555
Na3 O141 2.495715 1_555
Na3 O51 2.510848 1_555
Na3 O21 2.600849 1_555
Na3 O123 2.643452 1_555
Na4 O52 2.342665 1_555
Na4 O4 2.372766 1_555
Na4 O142 2.535595 1_555
Na4 O22 2.584463 1_555
Na4 O70 2.589091 1_555
Na4 O124 2.632094 1_555
Na5 O5 2.326515 1_555
Na5 O53 2.389771 1_555
Na5 O143 2.464724 1_555
Na5 O71 2.527409 1_555
Na5 O23 2.588336 1_555
Na5 O125 2.682829 1_555
Na6 O6 2.326515 1_555
Na6 O54 2.389771 1_555
Na6 O132 2.464724 1_554
Na6 O60 2.527409 1_554
Na6 O12 2.588336 1_554
Na6 O126 2.682829 1_555
Na7 O55 2.342665 1_555
Na7 O7 2.372766 1_555
Na7 O133 2.535595 1_554
Na7 O13 2.584463 1_554
Na7 O61 2.589091 1_554
Na7 O127 2.632094 1_555
Na8 O8 2.368354 1_555
Na8 O62 2.466690 1_554
Na8 O134 2.495715 1_554
Na8 O56 2.510848 1_555
Na8 O14 2.600849 1_554
Na8 O128 2.643452 1_555
Na9 O63 2.342665 1_555
Na9 O15 2.372766 1_555
Na9 O129 2.535595 1_555
Na9 O9 2.584463 1_555
Na9 O57 2.589091 1_555
Na9 O135 2.632094 1_555
Na10 O16 2.326515 1_555
Na10 O64 2.389771 1_555
Na10 O130 2.464724 1_555
Na10 O58 2.527409 1_555
Na10 O10 2.588336 1_555
Na10 O136 2.682829 1_555
Na11 O17 2.368354 1_555
Na11 O59 2.466690 1_555
Na11 O131 2.495715 1_555
Na11 O65 2.510848 1_555
Na11 O11 2.600849 1_555
Na11 O137 2.643452 1_555
Na12 O15 2.361239 1_555
Na12 O102 2.420153 1_556
Na12 O135 2.423289 1_555
Na12 O12 2.433706 1_555
Na12 O105 2.688053 1_555
Na13 O103 2.359887 1_556
Na13 O16 2.411431 1_555
Na13 O13 2.453857 1_555
Na13 O136 2.514732 1_555
Na13 O106 2.696951 1_555
Na13 O133 2.836290 1_555
Na13 O75 2.910126 1_555
Na14 O14 2.410126 1_555
Na14 O104 2.429248 1_556
Na14 O17 2.466310 1_555
Na14 O137 2.528462 1_555
Na14 O107 2.760975 1_555
Na14 O134 2.795455 1_555
Na14 O76 2.910075 1_555
Na15 O21 2.410126 1_555
Na15 O99 2.429248 1_555
Na15 O18 2.466310 1_555
Na15 O138 2.528462 1_555
Na15 O96 2.760975 1_554
Na15 O141 2.795455 1_555
Na15 O79 2.910075 1_555
Na16 O100 2.359887 1_555
Na16 O19 2.411431 1_555
Na16 O22 2.453857 1_555
Na16 O139 2.514732 1_555
Na16 O97 2.696951 1_554
Na16 O142 2.836290 1_555
Na16 O80 2.910126 1_555
Na17 O20 2.361239 1_555
Na17 O101 2.420153 1_555
Na17 O140 2.423289 1_555
Na17 O23 2.433706 1_555
Na17 O98 2.688053 1_554
Na18 O0 2.410126 1_655
Na18 O114 2.429248 1_656
Na18 O3 2.466310 1_555
Na18 O123 2.528462 1_555
Na18 O117 2.760975 1_555
Na18 O120 2.795455 1_655
Na18 O87 2.910075 1_655
Na19 O4 2.361239 1_555
Na19 O115 2.420153 1_656
Na19 O124 2.423289 1_555
Na19 O1 2.433706 1_655
Na19 O118 2.688053 1_555
Na20 O116 2.359887 1_656
Na20 O5 2.411431 1_555
Na20 O2 2.453857 1_655
Na20 O125 2.514732 1_555
Na20 O119 2.696951 1_555
Na20 O122 2.836290 1_655
Na20 O89 2.910126 1_655
Na21 O111 2.359887 1_655
Na21 O6 2.411431 1_555
Na21 O9 2.453857 1_655
Na21 O126 2.514732 1_555
Na21 O108 2.696951 1_554
Na21 O129 2.836290 1_655
Na21 O90 2.910126 1_655
Na22 O7 2.361239 1_555
Na22 O112 2.420153 1_655
Na22 O127 2.423289 1_555
Na22 O10 2.433706 1_655
Na22 O109 2.688053 1_554
Na23 O11 2.410126 1_655
Na23 O113 2.429248 1_655
Na23 O8 2.466310 1_555
Na23 O128 2.528462 1_555
Na23 O110 2.760975 1_554
Na23 O131 2.795455 1_655
Na23 O92 2.910075 1_655
Na24 O56 2.457336 1_555
Na24 O128 2.497551 1_555
Na24 O70 2.554694 1_555
Na24 O76 2.628412 1_554
Na24 O46 2.708456 1_555
Na24 O94 2.797723 1_555
Na24 O38 2.826943 1_555
Na25 O54 2.336953 1_565
Na25 O126 2.497392 1_565
Na25 O71 2.595328 1_555
Na25 O77 2.612646 1_554
Na25 O47 2.806309 1_555
Na25 O95 2.844563 1_555
Na25 O36 2.850060 1_565
Na26 O72 2.302871 1_555
Na26 O130 2.413762 1_555
Na26 O18 2.520723 1_555
Na26 O66 2.667737 1_555
Na26 O58 2.684836 1_555
Na26 O42 2.850488 1_555
Na26 O40 2.942632 1_554
Na27 O83 2.302871 1_556
Na27 O121 2.413762 1_555
Na27 O17 2.520723 1_555
Na27 O65 2.667737 1_555
Na27 O49 2.684836 1_555
Na27 O41 2.850488 1_555
Na27 O43 2.942632 1_555
Na28 O53 2.336953 1_545
Na28 O125 2.497392 1_545
Na28 O60 2.595328 1_555
Na28 O78 2.612646 1_555
Na28 O36 2.806309 1_555
Na28 O84 2.844563 1_555
Na28 O47 2.850060 1_546
Na29 O51 2.457336 1_555
Na29 O123 2.497551 1_555
Na29 O61 2.554694 1_555
Na29 O79 2.628412 1_555
Na29 O37 2.708456 1_555
Na29 O85 2.797723 1_555
Na29 O45 2.826943 1_556
Na30 O66 2.457336 1_555
Na30 O138 2.497551 1_555
Na30 O57 2.554694 1_555
Na30 O87 2.628412 1_554
Na30 O33 2.708456 1_555
Na30 O81 2.797723 1_555
Na30 O24 2.826943 1_555
Na31 O67 2.336953 1_555
Na31 O139 2.497392 1_555
Na31 O58 2.595328 1_555
Na31 O88 2.612646 1_554
Na31 O34 2.806309 1_555
Na31 O82 2.844563 1_555
Na31 O25 2.850060 1_555
Na32 O86 2.302871 1_555
Na32 O143 2.413762 1_555
Na32 O8 2.520723 1_555
Na32 O56 2.667737 1_555
Na32 O71 2.684836 1_555
Na32 O32 2.850488 1_555
Na32 O29 2.942632 1_554
Na33 O93 2.302871 1_556
Na33 O132 2.413762 1_555
Na33 O3 2.520723 1_555
Na33 O51 2.667737 1_555
Na33 O60 2.684836 1_555
Na33 O27 2.850488 1_555
Na33 O30 2.942632 1_555
Na34 O64 2.336953 1_555
Na34 O136 2.497392 1_555
Na34 O49 2.595328 1_555
Na34 O91 2.612646 1_555
Na34 O25 2.806309 1_555
Na34 O73 2.844563 1_555
Na34 O34 2.850060 1_556
Na35 O65 2.457336 1_555
Na35 O137 2.497551 1_555
Na35 O50 2.554694 1_555
Na35 O92 2.628412 1_555
Na35 O26 2.708456 1_555
Na35 O74 2.797723 1_555
Na35 O35 2.826943 1_556
In0 O93 2.051582 1_556
In0 O114 2.101146 1_656
In0 O45 2.115490 1_556
In0 O51 2.200245 1_555
In0 O3 2.202293 1_555
In0 O123 2.228248 1_555
In1 O94 2.036917 1_556
In1 O46 2.128882 1_556
In1 O115 2.131270 1_656
In1 O52 2.141503 1_555
In1 O4 2.152291 1_555
In1 O124 2.211684 1_555
In2 O95 2.035819 1_556
In2 O116 2.092610 1_656
In2 O5 2.132758 1_555
In2 O47 2.158688 1_556
In2 O53 2.186892 1_555
In2 O125 2.264130 1_555
In3 O84 2.035819 1_555
In3 O111 2.092610 1_655
In3 O6 2.132758 1_555
In3 O36 2.158688 1_555
In3 O54 2.186892 1_555
In3 O126 2.264130 1_555
In4 O85 2.036917 1_555
In4 O37 2.128882 1_555
In4 O112 2.131270 1_655
In4 O55 2.141503 1_555
In4 O7 2.152291 1_555
In4 O127 2.211684 1_555
In5 O86 2.051582 1_555
In5 O113 2.101146 1_655
In5 O38 2.115490 1_555
In5 O56 2.200245 1_555
In5 O8 2.202293 1_555
In5 O128 2.228248 1_555
In6 O81 2.036917 1_556
In6 O33 2.128882 1_556
In6 O102 2.131270 1_556
In6 O63 2.141503 1_555
In6 O15 2.152291 1_555
In6 O135 2.211684 1_555
In7 O82 2.035819 1_556
In7 O103 2.092610 1_556
In7 O16 2.132758 1_555
In7 O34 2.158688 1_556
In7 O64 2.186892 1_555
In7 O136 2.264130 1_555
In8 O83 2.051582 1_556
In8 O104 2.101146 1_556
In8 O35 2.115490 1_556
In8 O65 2.200245 1_555
In8 O17 2.202293 1_555
In8 O137 2.228248 1_555
In9 O72 2.051582 1_555
In9 O99 2.101146 1_555
In9 O24 2.115490 1_555
In9 O66 2.200245 1_555
In9 O18 2.202293 1_555
In9 O138 2.228248 1_555
In10 O73 2.035819 1_555
In10 O100 2.092610 1_555
In10 O19 2.132758 1_555
In10 O25 2.158688 1_555
In10 O67 2.186892 1_555
In10 O139 2.264130 1_555
In11 O74 2.036917 1_555
In11 O26 2.128882 1_555
In11 O101 2.131270 1_555
In11 O68 2.141503 1_555
In11 O20 2.152291 1_555
In11 O140 2.211684 1_555
O0 Si15 1.692842 1_555
O0 Ta0 1.976878 1_555
O1 Si16 1.695127 1_555
O1 Ta1 1.999104 1_555
O2 Si17 1.663569 1_555
O2 Ta2 2.008845 1_555
O3 Si12 1.627223 1_555
O4 Si13 1.606173 1_555
O5 Si14 1.624992 1_555
O6 Si21 1.624992 1_555
O7 Si22 1.606173 1_555
O8 Si23 1.627223 1_555
O9 Si18 1.663569 1_555
O9 Ta3 2.008845 1_555
O10 Si19 1.695127 1_555
O10 Ta4 1.999104 1_555
O11 Si20 1.692842 1_555
O11 Ta5 1.976878 1_555
O12 Si5 1.695127 1_545
O12 Ta6 1.999104 1_555
O13 Si3 1.663569 1_555
O13 Ta7 2.008845 1_555
O14 Si4 1.692842 1_555
O14 Ta8 1.976878 1_555
O15 Si2 1.606173 1_545
O16 Si0 1.624992 1_555
O17 Si1 1.627223 1_555
O18 Si10 1.627223 1_555
O19 Si11 1.624992 1_555
O20 Si9 1.606173 1_565
O21 Si7 1.692842 1_555
O21 Ta9 1.976878 1_555
O22 Si8 1.663569 1_555
O22 Ta10 2.008845 1_555
O23 Si6 1.695127 1_565
O23 Ta11 1.999104 1_555
O24 P6 1.522558 1_555
O25 P7 1.515418 1_555
O26 P8 1.502013 1_555
O27 P6 1.567938 1_555
O27 Ta9 2.082966 1_556
O28 P7 1.577389 1_555
O28 Ta10 2.011693 1_556
O29 P8 1.586729 1_555
O29 Ta11 2.052616 1_556
O30 P9 1.586729 1_555
O30 Ta6 2.052616 1_555
O31 P10 1.577389 1_555
O31 Ta7 2.011693 1_555
O32 P11 1.567938 1_555
O32 Ta8 2.082966 1_555
O33 P9 1.502013 1_555
O34 P10 1.515418 1_555
O35 P11 1.522558 1_555
O36 P2 1.515418 1_645
O37 P0 1.502013 1_655
O38 P1 1.522558 1_655
O39 P2 1.577389 1_545
O39 Ta3 2.011693 1_556
O40 P0 1.586729 1_555
O40 Ta4 2.052616 1_556
O41 P1 1.567938 1_555
O41 Ta5 2.082966 1_556
O42 P4 1.567938 1_555
O42 Ta0 2.082966 1_555
O43 P5 1.586729 1_555
O43 Ta1 2.052616 1_555
O44 P3 1.577389 1_565
O44 Ta2 2.011693 1_555
O45 P4 1.522558 1_655
O46 P5 1.502013 1_655
O47 P3 1.515418 1_665
O48 Si0 1.659166 1_555
O48 Ta0 1.977716 1_555
O49 Si1 1.670152 1_555
O49 Ta1 2.044615 1_555
O50 Si2 1.668938 1_555
O50 Ta2 1.998847 1_555
O51 Si3 1.616994 1_555
O52 Si4 1.589607 1_555
O53 Si5 1.612580 1_555
O54 Si6 1.612580 1_555
O55 Si7 1.589607 1_555
O56 Si8 1.616994 1_555
O57 Si9 1.668938 1_555
O57 Ta3 1.998847 1_555
O58 Si10 1.670152 1_555
O58 Ta4 2.044615 1_555
O59 Si11 1.659166 1_555
O59 Ta5 1.977716 1_555
O60 Si12 1.670152 1_555
O60 Ta6 2.044615 1_555
O61 Si13 1.668938 1_555
O61 Ta7 1.998847 1_555
O62 Si14 1.659166 1_555
O62 Ta8 1.977716 1_555
O63 Si15 1.589607 1_555
O64 Si16 1.612580 1_555
O65 Si17 1.616994 1_555
O66 Si18 1.616994 1_555
O67 Si19 1.612580 1_555
O68 Si20 1.589607 1_555
O69 Si21 1.659166 1_555
O69 Ta9 1.977716 1_555
O70 Si22 1.668938 1_555
O70 Ta10 1.998847 1_555
O71 Si23 1.670152 1_555
O71 Ta11 2.044615 1_555
O72 Si0 1.608736 1_555
O73 Si1 1.585475 1_555
O74 Si2 1.580860 1_555
O75 Si3 1.691561 1_555
O75 Ta9 1.932899 1_556
O76 Si4 1.720092 1_555
O76 Ta10 1.945034 1_556
O77 Si5 1.718530 1_555
O77 Ta11 1.951071 1_556
O78 Si6 1.718530 1_555
O78 Ta6 1.951071 1_555
O79 Si7 1.720092 1_555
O79 Ta7 1.945034 1_555
O80 Si8 1.691561 1_555
O80 Ta8 1.932899 1_555
O81 Si9 1.580860 1_555
O82 Si10 1.585475 1_555
O83 Si11 1.608736 1_555
O84 Si12 1.585475 1_555
O85 Si13 1.580860 1_555
O86 Si14 1.608736 1_555
O87 Si15 1.720092 1_555
O87 Ta3 1.945034 1_556
O88 Si16 1.718530 1_555
O88 Ta4 1.951071 1_556
O89 Si17 1.691561 1_555
O89 Ta5 1.932899 1_556
O90 Si18 1.691561 1_555
O90 Ta0 1.932899 1_555
O91 Si19 1.718530 1_555
O91 Ta1 1.951071 1_555
O92 Si20 1.720092 1_555
O92 Ta2 1.945034 1_555
O93 Si21 1.608736 1_555
O94 Si22 1.580860 1_555
O95 Si23 1.585475 1_555
O96 Si0 1.681058 1_555
O96 Ta9 1.996712 1_556
O97 Si1 1.689000 1_555
O97 Ta10 2.000323 1_556
O98 Si2 1.720187 1_555
O98 Ta11 1.956274 1_556
O99 Si3 1.608253 1_555
O100 Si4 1.602670 1_555
O101 Si5 1.593950 1_555
O102 Si6 1.593950 1_555
O103 Si7 1.602670 1_555
O104 Si8 1.608253 1_555
O105 Si9 1.720187 1_555
O105 Ta6 1.956274 1_555
O106 Si10 1.689000 1_555
O106 Ta7 2.000323 1_555
O107 Si11 1.681058 1_555
O107 Ta8 1.996712 1_555
O108 Si12 1.689000 1_555
O108 Ta3 2.000323 1_656
O109 Si13 1.720187 1_555
O109 Ta4 1.956274 1_656
O110 Si14 1.681058 1_555
O110 Ta5 1.996712 1_656
O111 Si15 1.602670 1_555
O112 Si16 1.593950 1_555
O113 Si17 1.608253 1_555
O114 Si18 1.608253 1_555
O115 Si19 1.593950 1_555
O116 Si20 1.602670 1_555
O117 Si21 1.681058 1_555
O117 Ta0 1.996712 1_655
O118 Si22 1.720187 1_555
O118 Ta1 1.956274 1_655
O119 Si23 1.689000 1_555
O119 Ta2 2.000323 1_655
O120 P0 1.556492 1_555
O120 Ta0 2.121608 1_555
O121 P1 1.586222 1_555
O121 Ta1 2.119373 1_555
O122 P2 1.560998 1_555
O122 Ta2 2.101932 1_555
O123 P0 1.548557 1_655
O124 P1 1.521260 1_655
O125 P2 1.535261 1_655
O126 P3 1.535261 1_655
O127 P4 1.521260 1_655
O128 P5 1.548557 1_655
O129 P3 1.560998 1_555
O129 Ta3 2.101932 1_555
O130 P4 1.586222 1_555
O130 Ta4 2.119373 1_555
O131 P5 1.556492 1_555
O131 Ta5 2.121608 1_555
O132 P6 1.586222 1_555
O132 Ta6 2.119373 1_555
O133 P7 1.560998 1_555
O133 Ta7 2.101932 1_555
O134 P8 1.556492 1_555
O134 Ta8 2.121608 1_555
O135 P6 1.521260 1_555
O136 P7 1.535261 1_555
O137 P8 1.548557 1_555
O138 P9 1.548557 1_555
O139 P10 1.535261 1_555
O140 P11 1.521260 1_555
O141 P9 1.556492 1_555
O141 Ta9 2.121608 1_555
O142 P10 1.560998 1_555
O142 Ta10 2.101932 1_555
O143 P11 1.586222 1_555
O143 Ta11 2.119373 1_555
