# generated using pymatgen
data_Na4ZrAlSi2PO12
_symmetry_space_group_name_H-M   'P 1'
_cell_length_a   9.01893523
_cell_length_b   9.01893493
_cell_length_c   22.13047967
_cell_angle_alpha   89.40028395
_cell_angle_beta   90.59971605
_cell_angle_gamma   119.42212735
_symmetry_Int_Tables_number   1
_chemical_formula_structural   Na4ZrAlSi2PO12
_chemical_formula_sum   'Na24 Zr6 Al6 Si12 P6 O72'
_cell_volume   1567.83242799
_cell_formula_units_Z   6
loop_
 _symmetry_equiv_pos_site_id
 _symmetry_equiv_pos_as_xyz
  1  'x, y, z'
loop_
 _atom_site_type_symbol
 _atom_site_label
 _atom_site_symmetry_multiplicity
 _atom_site_fract_x
 _atom_site_fract_y
 _atom_site_fract_z
 _atom_site_occupancy
  Na  Na0  1  0.63906490  0.00416092  0.24996136  1
  Na  Na1  1  0.36976603  0.36732164  0.24570703  1
  Na  Na2  1  0.99157686  0.62555897  0.24955757  1
  Na  Na3  1  0.63267836  0.63023397  0.74570703  1
  Na  Na4  1  0.99583908  0.36093510  0.74996136  1
  Na  Na5  1  0.37444103  0.00842314  0.74955757  1
  Na  Na6  1  0.30573190  0.33749392  0.58329436  1
  Na  Na7  1  0.03643303  0.70065464  0.57904003  1
  Na  Na8  1  0.65824386  0.95889197  0.58289057  1
  Na  Na9  1  0.29934536  0.96356697  0.07904003  1
  Na  Na10  1  0.66250608  0.69426810  0.08329436  1
  Na  Na11  1  0.04110803  0.34175614  0.08289057  1
  Na  Na12  1  0.97239790  0.67082792  0.91662836  1
  Na  Na13  1  0.70309903  0.03398864  0.91237403  1
  Na  Na14  1  0.32490986  0.29222597  0.91622457  1
  Na  Na15  1  0.96601136  0.29690097  0.41237403  1
  Na  Na16  1  0.32917208  0.02760210  0.41662836  1
  Na  Na17  1  0.70777403  0.67509014  0.41622457  1
  Na  Na18  1  0.99836145  0.99321712  0.49633823  1
  Na  Na19  1  0.00678288  0.00163855  0.99633823  1
  Na  Na20  1  0.66502845  0.32655012  0.82967123  1
  Na  Na21  1  0.67344988  0.33497155  0.32967123  1
  Na  Na22  1  0.33169445  0.65988412  0.16300523  1
  Na  Na23  1  0.34011588  0.66830555  0.66300523  1
  Zr  Zr0  1  0.99816008  0.99984410  0.64866177  1
  Zr  Zr1  1  0.00015590  0.00183992  0.14866177  1
  Zr  Zr2  1  0.66482708  0.33317710  0.98199477  1
  Zr  Zr3  1  0.66682290  0.33517292  0.48199477  1
  Zr  Zr4  1  0.33149308  0.66651110  0.31532877  1
  Zr  Zr5  1  0.33348890  0.66850692  0.81532877  1
  Al  Al0  1  0.98208230  0.98725381  0.35167831  1
  Al  Al1  1  0.01274619  0.01791770  0.85167831  1
  Al  Al2  1  0.64874930  0.32058681  0.68501131  1
  Al  Al3  1  0.67941319  0.35125070  0.18501131  1
  Al  Al4  1  0.31541530  0.65392081  0.01834531  1
  Al  Al5  1  0.34607919  0.68458470  0.51834531  1
  Si  Si0  1  0.70903400  0.70167402  0.25127084  1
  Si  Si1  1  0.99072002  0.28757724  0.25194776  1
  Si  Si2  1  0.29832598  0.29096600  0.75127084  1
  Si  Si3  1  0.71242276  0.00927998  0.75194776  1
  Si  Si4  1  0.37570100  0.03500702  0.58460384  1
  Si  Si5  1  0.65738702  0.62091024  0.58528076  1
  Si  Si6  1  0.96499298  0.62429900  0.08460384  1
  Si  Si7  1  0.37908976  0.34261298  0.08528076  1
  Si  Si8  1  0.04236700  0.36834102  0.91793784  1
  Si  Si9  1  0.32405302  0.95424424  0.91861476  1
  Si  Si10  1  0.63165898  0.95763300  0.41793784  1
  Si  Si11  1  0.04575576  0.67594698  0.41861476  1
  P  P0  1  0.29478694  0.00764753  0.25263401  1
  P  P1  1  0.99235247  0.70521306  0.75263401  1
  P  P2  1  0.96145394  0.34098053  0.58596701  1
  P  P3  1  0.65901947  0.03854606  0.08596701  1
  P  P4  1  0.62811994  0.67431453  0.91930101  1
  P  P5  1  0.32568547  0.37188006  0.41930101  1
  O  O0  1  0.20526262  0.03306295  0.30744777  1
  O  O1  1  0.83314771  0.79498908  0.30916025  1
  O  O2  1  0.96713618  0.16321958  0.30985416  1
  O  O3  1  0.20501092  0.16685229  0.80916025  1
  O  O4  1  0.96693705  0.79473738  0.80744777  1
  O  O5  1  0.83678042  0.03286382  0.80985416  1
  O  O6  1  0.78795177  0.96603143  0.69167877  1
  O  O7  1  0.17830629  0.21129277  0.69118473  1
  O  O8  1  0.02853867  0.81663889  0.69491421  1
  O  O9  1  0.78870723  0.82169371  0.19118473  1
  O  O10  1  0.03396857  0.21204823  0.19167877  1
  O  O11  1  0.18336111  0.97146133  0.19491421  1
  O  O12  1  0.87192962  0.36639595  0.64078077  1
  O  O13  1  0.49981471  0.12832208  0.64249325  1
  O  O14  1  0.63380318  0.49655258  0.64318716  1
  O  O15  1  0.87167792  0.50018529  0.14249325  1
  O  O16  1  0.63360405  0.12807038  0.14078077  1
  O  O17  1  0.50344742  0.36619682  0.14318716  1
  O  O18  1  0.45461877  0.29936443  0.02501177  1
  O  O19  1  0.84497329  0.54462577  0.02451773  1
  O  O20  1  0.69520567  0.14997189  0.02824721  1
  O  O21  1  0.45537423  0.15502671  0.52451773  1
  O  O22  1  0.70063557  0.54538123  0.52501177  1
  O  O23  1  0.85002811  0.30479433  0.52824721  1
  O  O24  1  0.53859562  0.69972995  0.97411477  1
  O  O25  1  0.16648071  0.46165608  0.97582725  1
  O  O26  1  0.30046918  0.82988658  0.97652116  1
  O  O27  1  0.53834392  0.83351929  0.47582725  1
  O  O28  1  0.30027005  0.46140438  0.47411477  1
  O  O29  1  0.17011342  0.69953082  0.47652116  1
  O  O30  1  0.12128477  0.63269843  0.35834577  1
  O  O31  1  0.51163929  0.87795977  0.35785173  1
  O  O32  1  0.36187167  0.48330589  0.36158121  1
  O  O33  1  0.12204023  0.48836071  0.85785173  1
  O  O34  1  0.36730157  0.87871523  0.85834577  1
  O  O35  1  0.51669411  0.63812833  0.86158121  1
  O  O36  1  0.03241153  0.85047100  0.40986206  1
  O  O37  1  0.82100925  0.97588240  0.41092837  1
  O  O38  1  0.16861838  0.19449488  0.41197980  1
  O  O39  1  0.02411760  0.17899075  0.91092837  1
  O  O40  1  0.14952900  0.96758847  0.90986206  1
  O  O41  1  0.80550512  0.83138162  0.91197980  1
  O  O42  1  0.97937659  0.17795371  0.58890152  1
  O  O43  1  0.18484644  0.01573263  0.58805986  1
  O  O44  1  0.82630065  0.81243402  0.58827161  1
  O  O45  1  0.98426737  0.81515356  0.08805986  1
  O  O46  1  0.82204629  0.02062341  0.08890152  1
  O  O47  1  0.18756598  0.17369935  0.08827161  1
  O  O48  1  0.69907853  0.18380400  0.74319506  1
  O  O49  1  0.48767625  0.30921540  0.74426137  1
  O  O50  1  0.83528538  0.52782788  0.74531280  1
  O  O51  1  0.69078460  0.51232375  0.24426137  1
  O  O52  1  0.81619600  0.30092147  0.24319506  1
  O  O53  1  0.47217212  0.16471462  0.24531280  1
  O  O54  1  0.64604359  0.51128671  0.92223452  1
  O  O55  1  0.85151344  0.34906563  0.92139286  1
  O  O56  1  0.49296765  0.14576702  0.92160461  1
  O  O57  1  0.65093437  0.14848656  0.42139286  1
  O  O58  1  0.48871329  0.35395641  0.42223452  1
  O  O59  1  0.85423298  0.50703235  0.42160461  1
  O  O60  1  0.36574453  0.51713800  0.07652906  1
  O  O61  1  0.15434225  0.64254940  0.07759537  1
  O  O62  1  0.50195138  0.86116188  0.07864680  1
  O  O63  1  0.35745060  0.84565775  0.57759537  1
  O  O64  1  0.48286200  0.63425547  0.57652906  1
  O  O65  1  0.13883812  0.49804862  0.57864680  1
  O  O66  1  0.31270959  0.84462071  0.25556852  1
  O  O67  1  0.51817944  0.68239963  0.25472686  1
  O  O68  1  0.15963365  0.47910102  0.25493861  1
  O  O69  1  0.31760037  0.48182056  0.75472686  1
  O  O70  1  0.15537929  0.68729041  0.75556852  1
  O  O71  1  0.52089898  0.84036635  0.75493861  1
loop_
_geom_bond_atom_site_label_1
_geom_bond_atom_site_label_2
_geom_bond_distance
_geom_bond_site_symmetry_2
Na0 O52 2.352399 1_555
Na0 O53 2.551074 1_555
Na0 O67 2.551201 1_545
Na0 O66 2.567525 1_545
Na0 O31 2.651906 1_545
Na0 O16 2.661668 1_555
Na0 O2 2.890853 1_555
Na0 O9 2.912949 1_545
Na1 O53 2.418831 1_555
Na1 O67 2.485125 1_555
Na1 O51 2.524840 1_555
Na1 O68 2.557198 1_555
Na1 O17 2.582829 1_555
Na1 O32 2.794342 1_555
Na1 O10 2.890531 1_555
Na1 O0 2.952654 1_555
Na2 O51 2.385376 1_555
Na2 O68 2.452793 1_655
Na2 O52 2.558943 1_555
Na2 O66 2.585540 1_655
Na2 O15 2.619738 1_555
Na2 O30 2.653139 1_655
Na2 O1 2.888484 1_555
Na2 O11 2.974866 1_655
Na3 O50 2.418831 1_555
Na3 O69 2.485125 1_555
Na3 O49 2.524840 1_555
Na3 O71 2.557198 1_555
Na3 O14 2.582829 1_555
Na3 O35 2.794342 1_555
Na3 O6 2.890531 1_555
Na3 O4 2.952654 1_555
Na4 O48 2.352399 1_555
Na4 O50 2.551074 1_555
Na4 O69 2.551201 1_655
Na4 O70 2.567525 1_655
Na4 O33 2.651906 1_655
Na4 O12 2.661668 1_555
Na4 O5 2.890853 1_555
Na4 O7 2.912949 1_655
Na5 O49 2.385376 1_555
Na5 O71 2.452793 1_545
Na5 O48 2.558943 1_555
Na5 O70 2.585540 1_545
Na5 O13 2.619738 1_555
Na5 O34 2.653139 1_545
Na5 O3 2.888484 1_555
Na5 O8 2.974866 1_545
Na6 O64 2.352404 1_555
Na6 O65 2.551089 1_555
Na6 O43 2.551201 1_555
Na6 O42 2.567525 1_455
Na6 O7 2.651906 1_555
Na6 O28 2.661653 1_555
Na6 O14 2.890853 1_555
Na6 O21 2.912949 1_555
Na7 O65 2.418815 1_555
Na7 O43 2.485125 1_565
Na7 O63 2.524831 1_555
Na7 O44 2.557198 1_455
Na7 O29 2.582803 1_555
Na7 O8 2.794342 1_555
Na7 O22 2.890531 1_455
Na7 O12 2.952654 1_455
Na8 O63 2.385385 1_555
Na8 O44 2.452793 1_555
Na8 O64 2.558935 1_555
Na8 O42 2.585540 1_565
Na8 O27 2.619718 1_555
Na8 O6 2.653139 1_555
Na8 O13 2.888484 1_565
Na8 O23 2.974866 1_565
Na9 O62 2.418815 1_555
Na9 O45 2.485125 1_455
Na9 O61 2.524831 1_555
Na9 O47 2.557198 1_565
Na9 O26 2.582803 1_554
Na9 O11 2.794342 1_555
Na9 O18 2.890531 1_565
Na9 O16 2.952654 1_565
Na10 O60 2.352404 1_555
Na10 O62 2.551089 1_555
Na10 O45 2.551201 1_555
Na10 O46 2.567525 1_565
Na10 O9 2.651906 1_555
Na10 O24 2.661653 1_554
Na10 O17 2.890853 1_555
Na10 O19 2.912949 1_555
Na11 O61 2.385385 1_555
Na11 O47 2.452793 1_555
Na11 O60 2.558935 1_555
Na11 O46 2.585540 1_455
Na11 O25 2.619718 1_554
Na11 O10 2.653139 1_555
Na11 O15 2.888484 1_455
Na11 O20 2.974866 1_455
Na12 O40 2.352399 1_655
Na12 O41 2.551074 1_555
Na12 O55 2.551210 1_555
Na12 O54 2.567516 1_555
Na12 O19 2.651886 1_556
Na12 O4 2.661668 1_555
Na12 O26 2.890853 1_655
Na12 O33 2.912949 1_655
Na13 O41 2.418831 1_545
Na13 O55 2.485115 1_555
Na13 O39 2.524840 1_655
Na13 O56 2.557180 1_555
Na13 O5 2.582829 1_555
Na13 O20 2.794316 1_556
Na13 O34 2.890531 1_545
Na13 O24 2.952654 1_545
Na14 O39 2.385376 1_555
Na14 O56 2.452808 1_555
Na14 O40 2.558943 1_545
Na14 O54 2.585544 1_555
Na14 O3 2.619738 1_555
Na14 O18 2.653125 1_556
Na14 O25 2.888484 1_555
Na14 O35 2.974866 1_555
Na15 O38 2.418831 1_655
Na15 O57 2.485115 1_555
Na15 O37 2.524840 1_545
Na15 O59 2.557180 1_555
Na15 O2 2.582829 1_555
Na15 O23 2.794316 1_555
Na15 O30 2.890531 1_655
Na15 O28 2.952654 1_655
Na16 O36 2.352399 1_545
Na16 O38 2.551074 1_555
Na16 O57 2.551210 1_555
Na16 O58 2.567516 1_555
Na16 O21 2.651886 1_555
Na16 O0 2.661668 1_555
Na16 O29 2.890853 1_545
Na16 O31 2.912949 1_545
Na17 O37 2.385376 1_555
Na17 O59 2.452808 1_555
Na17 O36 2.558943 1_655
Na17 O58 2.585544 1_555
Na17 O1 2.619738 1_555
Na17 O22 2.653125 1_555
Na17 O27 2.888484 1_555
Na17 O32 2.974866 1_555
Na18 O37 2.419266 1_555
Na18 O36 2.422094 1_655
Na18 O38 2.527635 1_665
Na18 O43 2.567467 1_665
Na18 O44 2.591650 1_555
Na18 O42 2.713042 1_565
Na19 O39 2.419266 1_555
Na19 O40 2.422094 1_545
Na19 O41 2.527635 1_445
Na19 O45 2.567467 1_446
Na19 O47 2.591650 1_556
Na19 O46 2.713042 1_456
Na20 O49 2.419266 1_555
Na20 O48 2.422094 1_555
Na20 O50 2.527635 1_555
Na20 O55 2.567467 1_555
Na20 O56 2.591650 1_555
Na20 O54 2.713042 1_555
Na21 O51 2.419266 1_555
Na21 O52 2.422094 1_555
Na21 O53 2.527635 1_555
Na21 O57 2.567467 1_555
Na21 O59 2.591650 1_555
Na21 O58 2.713042 1_555
Na22 O61 2.419266 1_555
Na22 O60 2.422094 1_555
Na22 O62 2.527635 1_555
Na22 O67 2.567467 1_555
Na22 O68 2.591650 1_555
Na22 O66 2.713042 1_555
Na23 O63 2.419266 1_555
Na23 O64 2.422094 1_555
Na23 O65 2.527635 1_555
Na23 O69 2.567467 1_555
Na23 O71 2.591650 1_555
Na23 O70 2.713042 1_555
Al0 O1 1.848187 1_555
Al0 O2 1.889536 1_565
Al0 O37 1.931551 1_555
Al0 O36 1.972452 1_655
Al0 O0 2.096694 1_665
Al0 O38 2.240659 1_665
Al1 O3 1.848187 1_555
Al1 O5 1.889536 1_455
Al1 O39 1.931551 1_555
Al1 O40 1.972452 1_545
Al1 O4 2.096694 1_445
Al1 O41 2.240659 1_445
Al2 O13 1.848187 1_555
Al2 O14 1.889536 1_555
Al2 O49 1.931551 1_555
Al2 O48 1.972452 1_555
Al2 O12 2.096694 1_555
Al2 O50 2.240659 1_555
Al3 O15 1.848187 1_555
Al3 O17 1.889536 1_555
Al3 O51 1.931551 1_555
Al3 O52 1.972452 1_555
Al3 O16 2.096694 1_555
Al3 O53 2.240659 1_555
Al4 O25 1.848187 1_554
Al4 O26 1.889536 1_554
Al4 O61 1.931551 1_555
Al4 O60 1.972452 1_555
Al4 O24 2.096694 1_554
Al4 O62 2.240659 1_555
Al5 O27 1.848187 1_555
Al5 O29 1.889536 1_555
Al5 O63 1.931551 1_555
Al5 O64 1.972452 1_555
Al5 O28 2.096694 1_555
Al5 O65 2.240659 1_555
O0 P0 1.544059 1_555
O1 Si0 1.633875 1_555
O2 Si1 1.639097 1_555
O3 Si2 1.633875 1_555
O4 P1 1.544059 1_555
O5 Si3 1.639097 1_555
O6 Si3 1.638931 1_565
O6 Zr0 2.014256 1_555
O7 Si2 1.637655 1_555
O7 Zr0 2.030653 1_445
O8 P1 1.551681 1_455
O8 Zr0 2.063116 1_455
O9 Si0 1.637655 1_555
O9 Zr1 2.030653 1_665
O10 Si1 1.638931 1_455
O10 Zr1 2.014256 1_555
O11 P0 1.551681 1_565
O11 Zr1 2.063116 1_565
O12 P2 1.544059 1_555
O13 Si4 1.633875 1_555
O14 Si5 1.639097 1_555
O15 Si6 1.633875 1_555
O16 P3 1.544059 1_555
O17 Si7 1.639097 1_555
O18 Si7 1.638931 1_555
O18 Zr2 2.014256 1_554
O19 Si6 1.637655 1_555
O19 Zr2 2.030653 1_554
O20 P3 1.551681 1_555
O20 Zr2 2.063116 1_554
O21 Si4 1.637655 1_555
O21 Zr3 2.030653 1_555
O22 Si5 1.638931 1_555
O22 Zr3 2.014256 1_555
O23 P2 1.551681 1_555
O23 Zr3 2.063116 1_555
O24 P4 1.544059 1_555
O25 Si8 1.633875 1_555
O26 Si9 1.639097 1_555
O27 Si10 1.633875 1_555
O28 P5 1.544059 1_555
O29 Si11 1.639097 1_555
O30 Si11 1.638931 1_555
O30 Zr4 2.014256 1_555
O31 Si10 1.637655 1_555
O31 Zr4 2.030653 1_555
O32 P5 1.551681 1_555
O32 Zr4 2.063116 1_555
O33 Si8 1.637655 1_555
O33 Zr5 2.030653 1_555
O34 Si9 1.638931 1_555
O34 Zr5 2.014256 1_555
O35 P4 1.551681 1_555
O35 Zr5 2.063116 1_555
O36 Si11 1.645841 1_555
O37 Si10 1.642066 1_555
O38 P5 1.538322 1_555
O39 Si8 1.642066 1_555
O40 Si9 1.645841 1_555
O41 P4 1.538322 1_555
O42 P2 1.556759 1_555
O42 Zr0 2.139241 1_545
O43 Si4 1.645435 1_555
O43 Zr0 2.111943 1_445
O44 Si5 1.650399 1_555
O44 Zr0 2.115533 1_555
O45 Si6 1.645435 1_555
O45 Zr1 2.111943 1_665
O46 P3 1.556759 1_555
O46 Zr1 2.139241 1_655
O47 Si7 1.650399 1_555
O47 Zr1 2.115533 1_555
O48 Si3 1.645841 1_555
O49 Si2 1.642066 1_555
O50 P1 1.538322 1_555
O51 Si0 1.642066 1_555
O52 Si1 1.645841 1_555
O53 P0 1.538322 1_555
O54 P4 1.556772 1_555
O54 Zr2 2.139241 1_555
O55 Si8 1.645421 1_655
O55 Zr2 2.111943 1_555
O56 Si9 1.650396 1_545
O56 Zr2 2.115533 1_555
O57 Si10 1.645421 1_545
O57 Zr3 2.111943 1_555
O58 P5 1.556772 1_555
O58 Zr3 2.139241 1_555
O59 Si11 1.650396 1_655
O59 Zr3 2.115533 1_555
O60 Si7 1.645852 1_555
O61 Si6 1.642051 1_455
O62 P3 1.538318 1_565
O63 Si4 1.642051 1_565
O64 Si5 1.645852 1_555
O65 P2 1.538318 1_455
O66 P0 1.556759 1_565
O66 Zr4 2.139241 1_555
O67 Si0 1.645435 1_555
O67 Zr4 2.111943 1_555
O68 Si1 1.650399 1_455
O68 Zr4 2.115533 1_555
O69 Si2 1.645435 1_555
O69 Zr5 2.111943 1_555
O70 P1 1.556759 1_455
O70 Zr5 2.139241 1_555
O71 Si3 1.650399 1_565
O71 Zr5 2.115533 1_555
