# generated using pymatgen
data_Na5ZrSc3Si3(SO8)3
_symmetry_space_group_name_H-M   'P 1'
_cell_length_a   9.10159341
_cell_length_b   9.13083841
_cell_length_c   22.84495155
_cell_angle_alpha   90.21730930
_cell_angle_beta   90.18734713
_cell_angle_gamma   120.12444412
_symmetry_Int_Tables_number   1
_chemical_formula_structural   Na5ZrSc3Si3(SO8)3
_chemical_formula_sum   'Na15 Zr3 Sc9 Si9 S9 O72'
_cell_volume   1642.07165504
_cell_formula_units_Z   3
loop_
 _symmetry_equiv_pos_site_id
 _symmetry_equiv_pos_as_xyz
  1  'x, y, z'
loop_
 _atom_site_type_symbol
 _atom_site_label
 _atom_site_symmetry_multiplicity
 _atom_site_fract_x
 _atom_site_fract_y
 _atom_site_fract_z
 _atom_site_occupancy
  Na  Na0  1  0.64712278  0.00673254  0.25738953  1
  Na  Na1  1  0.00206661  0.62187665  0.24756557  1
  Na  Na2  1  0.63051429  0.63680465  0.74239317  1
  Na  Na3  1  0.37129677  0.01490280  0.75739014  1
  Na  Na4  1  0.66732746  0.95243231  0.58646116  1
  Na  Na5  1  0.97536308  0.68766677  0.92305609  1
  Na  Na6  1  0.68891209  0.01163774  0.91002376  1
  Na  Na7  1  0.96188500  0.30201361  0.40683974  1
  Na  Na8  1  0.70980675  0.68917691  0.42443254  1
  Na  Na9  1  0.00317626  0.96771971  0.50280345  1
  Na  Na10  1  0.01059941  0.98172009  0.99915190  1
  Na  Na11  1  0.64047657  0.31514904  0.83026002  1
  Na  Na12  1  0.66111623  0.31451337  0.33238089  1
  Na  Na13  1  0.30067579  0.62832838  0.15937817  1
  Na  Na14  1  0.32784875  0.62858589  0.66449222  1
  Zr  Zr0  1  0.66264772  0.34417230  0.98150831  1
  Zr  Zr1  1  0.67155515  0.34170968  0.48141689  1
  Zr  Zr2  1  0.34798905  0.66761641  0.81420887  1
  Sc  Sc0  1  0.99507706  0.00159218  0.35287483  1
  Sc  Sc1  1  0.00793183  0.01261791  0.85118274  1
  Sc  Sc2  1  0.99172308  0.99917924  0.65074023  1
  Sc  Sc3  1  0.00309232  0.00463894  0.14515115  1
  Sc  Sc4  1  0.66011084  0.33906880  0.68629629  1
  Sc  Sc5  1  0.68526489  0.34286230  0.18173170  1
  Sc  Sc6  1  0.33402831  0.68062849  0.01851805  1
  Sc  Sc7  1  0.34076233  0.67672154  0.51653924  1
  Sc  Sc8  1  0.32052781  0.66316924  0.31669253  1
  Si  Si0  1  0.00349806  0.29570669  0.25017920  1
  Si  Si1  1  0.28919754  0.29134840  0.74784763  1
  Si  Si2  1  0.70674526  0.00750351  0.75046663  1
  Si  Si3  1  0.66597499  0.63617189  0.58489587  1
  Si  Si4  1  0.97368690  0.63853136  0.08519535  1
  Si  Si5  1  0.63195491  0.67147829  0.91878683  1
  Si  Si6  1  0.33168159  0.96209180  0.91591619  1
  Si  Si7  1  0.62634021  0.96208256  0.41454493  1
  Si  Si8  1  0.04200507  0.67240849  0.41630129  1
  S  S0  1  0.29271806  0.00132463  0.25003074  1
  S  S1  1  0.70574744  0.70502202  0.24957942  1
  S  S2  1  0.99961792  0.70691016  0.75073791  1
  S  S3  1  0.96152056  0.33504923  0.58371008  1
  S  S4  1  0.37197708  0.03961502  0.58377705  1
  S  S5  1  0.66745735  0.03890753  0.08445601  1
  S  S6  1  0.37327380  0.33405383  0.08570086  1
  S  S7  1  0.04080227  0.37516434  0.91901420  1
  S  S8  1  0.33320691  0.37545076  0.41673111  1
  O  O0  1  0.21151961  0.01891484  0.30312359  1
  O  O1  1  0.80866236  0.77970826  0.30423854  1
  O  O2  1  0.97551698  0.18637780  0.31073669  1
  O  O3  1  0.20684706  0.16890705  0.80421381  1
  O  O4  1  0.97286838  0.78159865  0.80456214  1
  O  O5  1  0.81132797  0.02069008  0.80997405  1
  O  O6  1  0.78765851  0.96728282  0.69247336  1
  O  O7  1  0.17981989  0.19505063  0.68987497  1
  O  O8  1  0.02555818  0.81487794  0.69929629  1
  O  O9  1  0.79463588  0.81295642  0.19924998  1
  O  O10  1  0.01233671  0.18640442  0.19555585  1
  O  O11  1  0.18644915  0.97566332  0.19758351  1
  O  O12  1  0.87195211  0.34954514  0.63446418  1
  O  O13  1  0.47427621  0.12006194  0.63729772  1
  O  O14  1  0.65659306  0.52751235  0.64255904  1
  O  O15  1  0.87640361  0.52589151  0.14421492  1
  O  O16  1  0.65041684  0.12389281  0.13768406  1
  O  O17  1  0.47645306  0.34617232  0.13737811  1
  O  O18  1  0.45585344  0.31325230  0.03171631  1
  O  O19  1  0.85135699  0.53382933  0.02775549  1
  O  O20  1  0.68105960  0.14076621  0.03151016  1
  O  O21  1  0.46455506  0.14501768  0.53191197  1
  O  O22  1  0.67567204  0.53321432  0.52567821  1
  O  O23  1  0.85773782  0.31375512  0.52886380  1
  O  O24  1  0.52735679  0.69073730  0.97191649  1
  O  O25  1  0.14258405  0.45603866  0.97171428  1
  O  O26  1  0.29468637  0.83261800  0.96991203  1
  O  O27  1  0.54252042  0.84142987  0.47173540  1
  O  O28  1  0.30856270  0.45296557  0.46939713  1
  O  O29  1  0.15598268  0.68230884  0.47197045  1
  O  O30  1  0.11359615  0.62822068  0.35674456  1
  O  O31  1  0.51927479  0.87173080  0.35481179  1
  O  O32  1  0.36292806  0.48222728  0.36452847  1
  O  O33  1  0.11853043  0.48034723  0.86590735  1
  O  O34  1  0.35932562  0.87492707  0.85600859  1
  O  O35  1  0.52335372  0.64233432  0.85710901  1
  O  O36  1  0.00956495  0.83180856  0.41086782  1
  O  O37  1  0.82086789  0.98934016  0.41084421  1
  O  O38  1  0.18177959  0.20506917  0.40999166  1
  O  O39  1  0.01618855  0.20316724  0.91323086  1
  O  O40  1  0.16522444  0.98261613  0.91072773  1
  O  O41  1  0.82011340  0.84069647  0.91457380  1
  O  O42  1  0.96979226  0.17577765  0.58568784  1
  O  O43  1  0.20234610  0.02046379  0.58540442  1
  O  O44  1  0.83610178  0.82664311  0.58368754  1
  O  O45  1  0.98619997  0.82348172  0.08870134  1
  O  O46  1  0.82351681  0.02657244  0.08743509  1
  O  O47  1  0.20269116  0.18040124  0.08788538  1
  O  O48  1  0.67380083  0.16659210  0.74336940  1
  O  O49  1  0.48692910  0.32633847  0.74438066  1
  O  O50  1  0.84663658  0.53675433  0.74400655  1
  O  O51  1  0.68570448  0.53324977  0.24421737  1
  O  O52  1  0.82547685  0.31044421  0.24600119  1
  O  O53  1  0.46690851  0.15145764  0.24491667  1
  O  O54  1  0.66139204  0.50614333  0.92234585  1
  O  O55  1  0.86842425  0.35726792  0.92336194  1
  O  O56  1  0.51472065  0.14078860  0.92425466  1
  O  O57  1  0.65216613  0.15393952  0.42214739  1
  O  O58  1  0.48736840  0.35777621  0.42208143  1
  O  O59  1  0.84605717  0.50086355  0.42297264  1
  O  O60  1  0.36022682  0.48767727  0.08128217  1
  O  O61  1  0.15661044  0.64854977  0.08085291  1
  O  O62  1  0.51598612  0.86949820  0.08135282  1
  O  O63  1  0.36297012  0.87268663  0.57860689  1
  O  O64  1  0.49709546  0.65876892  0.58125232  1
  O  O65  1  0.13146433  0.48472230  0.57879820  1
  O  O66  1  0.31098127  0.84657756  0.25363560  1
  O  O67  1  0.53755424  0.69372358  0.25407312  1
  O  O68  1  0.16643370  0.49071067  0.25223722  1
  O  O69  1  0.31004619  0.48136949  0.75312046  1
  O  O70  1  0.15288899  0.69012796  0.75559799  1
  O  O71  1  0.51193301  0.83274840  0.75367509  1
loop_
_geom_bond_atom_site_label_1
_geom_bond_atom_site_label_2
_geom_bond_distance
_geom_bond_site_symmetry_2
Na0 O52 2.425444 1_555
Na0 O67 2.511092 1_545
Na0 O31 2.534723 1_545
Na0 O53 2.587139 1_555
Na0 O66 2.648105 1_545
Na0 O2 2.854699 1_555
Na0 O16 2.935003 1_555
Na1 O68 2.341399 1_555
Na1 O52 2.466180 1_455
Na1 O66 2.517719 1_555
Na1 O51 2.571161 1_455
Na1 O15 2.571233 1_455
Na1 O30 2.679194 1_555
Na2 O49 2.455373 1_555
Na2 O71 2.523650 1_555
Na2 O69 2.536533 1_555
Na2 O14 2.545163 1_555
Na2 O50 2.551228 1_555
Na2 O35 2.808365 1_555
Na2 O6 2.855946 1_555
Na3 O48 2.404751 1_555
Na3 O49 2.507354 1_555
Na3 O71 2.559011 1_545
Na3 O34 2.569976 1_545
Na3 O70 2.613179 1_545
Na3 O3 2.733780 1_555
Na3 O13 2.908733 1_555
Na4 O64 2.330422 1_555
Na4 O44 2.335358 1_555
Na4 O42 2.470443 1_565
Na4 O63 2.491418 1_555
Na4 O6 2.629502 1_555
Na4 O27 2.826925 1_555
Na5 O40 2.378238 1_655
Na5 O41 2.443087 1_555
Na5 O54 2.481691 1_555
Na5 O55 2.664852 1_555
Na5 O19 2.723913 1_556
Na5 O26 2.729874 1_655
Na5 O4 2.846167 1_555
Na6 O41 2.396722 1_545
Na6 O56 2.426314 1_555
Na6 O5 2.529424 1_555
Na6 O39 2.589471 1_655
Na6 O55 2.745138 1_555
Na6 O34 2.878359 1_545
Na6 O24 2.909835 1_545
Na6 O20 3.026368 1_556
Na7 O2 2.462924 1_555
Na7 O57 2.465987 1_555
Na7 O37 2.476131 1_545
Na7 O59 2.542169 1_555
Na7 O38 2.563611 1_655
Na7 O30 2.827718 1_655
Na7 O23 2.966132 1_555
Na8 O36 2.382793 1_655
Na8 O37 2.420221 1_555
Na8 O59 2.575973 1_555
Na8 O22 2.657035 1_555
Na8 O58 2.665888 1_555
Na8 O27 2.746386 1_555
Na8 O1 2.884309 1_555
Na9 O44 2.335867 1_455
Na9 O36 2.451120 1_555
Na9 O43 2.484613 1_565
Na9 O37 2.741307 1_455
Na9 O42 2.800452 1_465
Na9 O38 2.890682 1_565
Na10 O45 2.454655 1_456
Na10 O40 2.463412 1_555
Na10 O41 2.472971 1_455
Na10 O47 2.687420 1_566
Na10 O46 2.801932 1_466
Na10 O39 2.805602 1_565
Na11 O49 2.437113 1_555
Na11 O48 2.503737 1_555
Na11 O56 2.582351 1_555
Na11 O54 2.671969 1_555
Na11 O50 2.782306 1_555
Na11 O55 2.853073 1_555
Na12 O52 2.491553 1_555
Na12 O57 2.503145 1_555
Na12 O53 2.578039 1_555
Na12 O59 2.662196 1_555
Na12 O58 2.738273 1_555
Na12 O51 2.771363 1_555
Na13 O61 2.280711 1_555
Na13 O60 2.411173 1_555
Na13 O68 2.463345 1_555
Na13 O62 2.754589 1_555
Na13 O67 2.890006 1_555
Na13 O66 2.897461 1_555
Na14 O64 2.379487 1_555
Na14 O69 2.395154 1_555
Na14 O65 2.520657 1_555
Na14 O71 2.692025 1_555
Na14 O70 2.845061 1_555
Na14 O63 2.870832 1_555
O0 S0 1.471949 1_555
O0 Sc0 2.213782 1_455
O1 S1 1.498790 1_555
O1 Sc0 2.176714 1_565
O2 Si0 1.653140 1_655
O2 Sc0 2.029258 1_555
O3 Si1 1.626634 1_555
O3 Sc1 1.973963 1_555
O4 S2 1.482753 1_555
O4 Sc1 2.234001 1_665
O5 Si2 1.626006 1_555
O5 Sc1 2.053184 1_655
O6 Si2 1.645179 1_565
O6 Sc2 1.978412 1_555
O7 Si1 1.619285 1_555
O7 Sc2 1.957886 1_445
O8 S2 1.478391 1_455
O8 Sc2 2.165480 1_455
O9 S1 1.470420 1_555
O9 Sc3 2.211101 1_665
O10 Si0 1.622187 1_555
O10 Sc3 1.982984 1_555
O11 S0 1.479457 1_565
O11 Sc3 2.173086 1_565
O12 S3 1.462806 1_555
O12 Sc4 2.226982 1_555
O13 S4 1.483464 1_555
O13 Sc4 2.165243 1_555
O14 Si3 1.628675 1_555
O14 Sc4 2.007021 1_555
O15 Si4 1.662512 1_555
O15 Sc5 1.912142 1_555
O16 S5 1.489875 1_555
O16 Sc5 2.111111 1_555
O17 S6 1.474901 1_555
O17 Sc5 2.164457 1_555
O18 S6 1.506496 1_555
O18 Zr0 2.102624 1_554
O19 Si4 1.669737 1_555
O19 Zr0 2.013414 1_554
O20 S5 1.495749 1_555
O20 Zr0 2.260443 1_554
O21 S4 1.497098 1_555
O21 Zr1 2.176995 1_555
O22 Si3 1.672157 1_555
O22 Zr1 2.000498 1_555
O23 S3 1.518560 1_555
O23 Zr1 2.129746 1_555
O24 Si5 1.607607 1_555
O24 Sc6 2.021897 1_556
O25 S7 1.467051 1_555
O25 Sc6 2.183860 1_556
O26 Si6 1.626899 1_555
O26 Sc6 1.948093 1_556
O27 Si7 1.635991 1_555
O27 Sc7 1.983279 1_555
O28 S8 1.467478 1_555
O28 Sc7 2.190922 1_555
O29 Si8 1.611852 1_555
O29 Sc7 1.985701 1_555
O30 Si8 1.644395 1_555
O30 Sc8 1.973947 1_555
O31 Si7 1.633445 1_555
O31 Sc8 2.043628 1_555
O32 S8 1.480587 1_555
O32 Sc8 2.173403 1_555
O33 S7 1.492393 1_555
O33 Zr2 2.264343 1_555
O34 Si6 1.662757 1_555
O34 Zr2 2.072498 1_555
O35 Si5 1.660487 1_555
O35 Zr2 1.980567 1_555
O36 Si8 1.628931 1_555
O36 Sc0 2.096560 1_465
O37 Si7 1.662117 1_555
O37 Sc0 2.029084 1_565
O38 S8 1.479220 1_555
O38 Sc0 2.200029 1_455
O39 S7 1.476187 1_555
O39 Sc1 2.211659 1_555
O40 Si6 1.621251 1_555
O40 Sc1 2.087757 1_565
O41 Si5 1.635730 1_555
O41 Sc1 2.196247 1_665
O42 S3 1.494330 1_555
O42 Sc2 2.277681 1_545
O43 S4 1.464601 1_555
O43 Sc2 2.363782 1_445
O44 Si3 1.649431 1_555
O44 Sc2 2.135943 1_555
O45 Si4 1.636194 1_555
O45 Sc3 2.037165 1_665
O46 S5 1.481496 1_555
O46 Sc3 2.183212 1_655
O47 S6 1.481872 1_555
O47 Sc3 2.166181 1_555
O48 Si2 1.632466 1_555
O48 Sc4 2.099323 1_555
O49 Si1 1.664678 1_555
O49 Sc4 2.022303 1_555
O50 S2 1.483779 1_555
O50 Sc4 2.183996 1_555
O51 S1 1.489780 1_555
O51 Sc5 2.243636 1_555
O52 Si0 1.694242 1_655
O52 Sc5 2.059637 1_555
O53 S0 1.492411 1_555
O53 Sc5 2.374700 1_555
O54 Si5 1.662591 1_555
O54 Zr0 2.011497 1_555
O55 S7 1.497286 1_655
O55 Zr0 2.253715 1_555
O56 Si6 1.655614 1_545
O56 Zr0 2.105354 1_555
O57 Si7 1.654803 1_545
O57 Zr1 2.116866 1_555
O58 S8 1.495338 1_555
O58 Zr1 2.214213 1_555
O59 Si8 1.690245 1_655
O59 Zr1 2.031954 1_555
O60 S6 1.469721 1_555
O60 Sc6 2.378094 1_555
O61 Si4 1.624304 1_455
O61 Sc6 2.065103 1_555
O62 S5 1.468457 1_565
O62 Sc6 2.208207 1_555
O63 S4 1.488958 1_565
O63 Sc7 2.206564 1_555
O64 Si3 1.652187 1_555
O64 Sc7 2.111689 1_555
O65 S3 1.467395 1_455
O65 Sc7 2.325868 1_555
O66 S0 1.505804 1_565
O66 Sc8 2.247387 1_555
O67 S1 1.485664 1_555
O67 Sc8 2.344010 1_555
O68 Si0 1.649319 1_555
O68 Sc8 2.089725 1_555
O69 Si1 1.651882 1_555
O69 Zr2 2.085238 1_555
O70 S2 1.481739 1_455
O70 Zr2 2.311097 1_555
O71 Si2 1.690333 1_565
O71 Zr2 2.045322 1_555
