# generated using pymatgen
data_Na4MgGa(PO4)3
_symmetry_space_group_name_H-M   'P 1'
_cell_length_a   8.88155600
_cell_length_b   8.88155571
_cell_length_c   21.91865742
_cell_angle_alpha   90.00000000
_cell_angle_beta   90.00000000
_cell_angle_gamma   120.00000107
_symmetry_Int_Tables_number   1
_chemical_formula_structural   Na4MgGa(PO4)3
_chemical_formula_sum   'Na24 Mg6 Ga6 P18 O72'
_cell_volume   1497.34776531
_cell_formula_units_Z   6
loop_
 _symmetry_equiv_pos_site_id
 _symmetry_equiv_pos_as_xyz
  1  'x, y, z'
loop_
 _atom_site_type_symbol
 _atom_site_label
 _atom_site_symmetry_multiplicity
 _atom_site_fract_x
 _atom_site_fract_y
 _atom_site_fract_z
 _atom_site_occupancy
  Na  Na0  1  0.63536281  0.00296188  0.24952945  1
  Na  Na1  1  0.36759906  0.36463719  0.24952945  1
  Na  Na2  1  0.99703812  0.63240094  0.24952945  1
  Na  Na3  1  0.63536281  0.63240094  0.74952945  1
  Na  Na4  1  0.99703812  0.36463719  0.74952945  1
  Na  Na5  1  0.36759906  0.00296188  0.74952945  1
  Na  Na6  1  0.30202981  0.33629488  0.58286245  1
  Na  Na7  1  0.03426606  0.69797019  0.58286245  1
  Na  Na8  1  0.66370512  0.96573394  0.58286245  1
  Na  Na9  1  0.30202981  0.96573394  0.08286245  1
  Na  Na10  1  0.66370512  0.69797019  0.08286245  1
  Na  Na11  1  0.03426606  0.33629488  0.08286245  1
  Na  Na12  1  0.96869581  0.66962888  0.91619645  1
  Na  Na13  1  0.70093206  0.03130419  0.91619645  1
  Na  Na14  1  0.33037112  0.29906794  0.91619645  1
  Na  Na15  1  0.96869581  0.29906794  0.41619645  1
  Na  Na16  1  0.33037112  0.03130419  0.41619645  1
  Na  Na17  1  0.70093206  0.66962888  0.41619645  1
  Na  Na18  1  -0.00000000  0.00000000  0.49902280  1
  Na  Na19  1  -0.00000000  0.00000000  0.99902280  1
  Na  Na20  1  0.66666700  0.33333300  0.83235580  1
  Na  Na21  1  0.66666700  0.33333300  0.33235580  1
  Na  Na22  1  0.33333300  0.66666700  0.16568980  1
  Na  Na23  1  0.33333300  0.66666700  0.66568980  1
  Mg  Mg0  1  -0.00000000  0.00000000  0.35054948  1
  Mg  Mg1  1  -0.00000000  0.00000000  0.85054948  1
  Mg  Mg2  1  0.66666700  0.33333300  0.68388248  1
  Mg  Mg3  1  0.66666700  0.33333300  0.18388248  1
  Mg  Mg4  1  0.33333300  0.66666700  0.01721648  1
  Mg  Mg5  1  0.33333300  0.66666700  0.51721648  1
  Ga  Ga0  1  -0.00000000  0.00000000  0.65183498  1
  Ga  Ga1  1  -0.00000000  0.00000000  0.15183498  1
  Ga  Ga2  1  0.66666700  0.33333300  0.98516798  1
  Ga  Ga3  1  0.66666700  0.33333300  0.48516798  1
  Ga  Ga4  1  0.33333300  0.66666700  0.31850198  1
  Ga  Ga5  1  0.33333300  0.66666700  0.81850198  1
  P  P0  1  0.29211504  0.99850795  0.25081994  1
  P  P1  1  0.70639291  0.70788496  0.25081994  1
  P  P2  1  0.00149205  0.29360709  0.25081994  1
  P  P3  1  0.29211504  0.29360709  0.75081994  1
  P  P4  1  0.00149205  0.70788496  0.75081994  1
  P  P5  1  0.70639291  0.99850795  0.75081994  1
  P  P6  1  0.95878204  0.33184095  0.58415294  1
  P  P7  1  0.37305991  0.04121796  0.58415294  1
  P  P8  1  0.66815905  0.62694009  0.58415294  1
  P  P9  1  0.95878204  0.62694009  0.08415294  1
  P  P10  1  0.66815905  0.04121796  0.08415294  1
  P  P11  1  0.37305991  0.33184095  0.08415294  1
  P  P12  1  0.62544804  0.66517495  0.91748694  1
  P  P13  1  0.03972591  0.37455196  0.91748694  1
  P  P14  1  0.33482505  0.96027409  0.91748694  1
  P  P15  1  0.62544804  0.96027409  0.41748694  1
  P  P16  1  0.33482505  0.37455196  0.41748694  1
  P  P17  1  0.03972591  0.66517495  0.41748694  1
  O  O0  1  0.21114397  0.03169168  0.30683038  1
  O  O1  1  0.82054771  0.78885603  0.30683038  1
  O  O2  1  0.96830832  0.17945229  0.30683038  1
  O  O3  1  0.21114397  0.17945229  0.80683038  1
  O  O4  1  0.96830832  0.78885603  0.80683038  1
  O  O5  1  0.82054771  0.03169168  0.80683038  1
  O  O6  1  0.78619265  0.96115494  0.69271785  1
  O  O7  1  0.17496230  0.21380735  0.69271785  1
  O  O8  1  0.03884506  0.82503770  0.69271785  1
  O  O9  1  0.78619265  0.82503770  0.19271785  1
  O  O10  1  0.03884506  0.21380735  0.19271785  1
  O  O11  1  0.17496230  0.96115494  0.19271785  1
  O  O12  1  0.87781097  0.36502468  0.64016338  1
  O  O13  1  0.48721471  0.12218903  0.64016338  1
  O  O14  1  0.63497532  0.51278529  0.64016338  1
  O  O15  1  0.87781097  0.51278529  0.14016338  1
  O  O16  1  0.63497532  0.12218903  0.14016338  1
  O  O17  1  0.48721471  0.36502468  0.14016338  1
  O  O18  1  0.45285965  0.29448794  0.02605085  1
  O  O19  1  0.84162930  0.54714035  0.02605085  1
  O  O20  1  0.70551206  0.15837070  0.02605085  1
  O  O21  1  0.45285965  0.15837070  0.52605085  1
  O  O22  1  0.70551206  0.54714035  0.52605085  1
  O  O23  1  0.84162930  0.29448794  0.52605085  1
  O  O24  1  0.54447697  0.69835868  0.97349738  1
  O  O25  1  0.15388071  0.45552303  0.97349738  1
  O  O26  1  0.30164132  0.84611929  0.97349738  1
  O  O27  1  0.54447697  0.84611929  0.47349738  1
  O  O28  1  0.30164132  0.45552303  0.47349738  1
  O  O29  1  0.15388071  0.69835868  0.47349738  1
  O  O30  1  0.11952565  0.62782194  0.35938485  1
  O  O31  1  0.50829530  0.88047435  0.35938485  1
  O  O32  1  0.37217806  0.49170470  0.35938485  1
  O  O33  1  0.11952565  0.49170470  0.85938485  1
  O  O34  1  0.37217806  0.88047435  0.85938485  1
  O  O35  1  0.50829530  0.62782194  0.85938485  1
  O  O36  1  0.01883328  0.82692555  0.41059636  1
  O  O37  1  0.80809227  0.98116672  0.41059636  1
  O  O38  1  0.17307445  0.19190773  0.41059636  1
  O  O39  1  0.01883328  0.19190773  0.91059636  1
  O  O40  1  0.17307445  0.98116672  0.91059636  1
  O  O41  1  0.80809227  0.82692555  0.91059636  1
  O  O42  1  0.97526589  0.16377714  0.58903693  1
  O  O43  1  0.18851125  0.02473411  0.58903693  1
  O  O44  1  0.83622286  0.81148875  0.58903693  1
  O  O45  1  0.97526589  0.81148875  0.08903693  1
  O  O46  1  0.83622286  0.02473411  0.08903693  1
  O  O47  1  0.18851125  0.16377714  0.08903693  1
  O  O48  1  0.68550028  0.16025855  0.74392936  1
  O  O49  1  0.47475927  0.31449972  0.74392936  1
  O  O50  1  0.83974145  0.52524073  0.74392936  1
  O  O51  1  0.68550028  0.52524073  0.24392936  1
  O  O52  1  0.83974145  0.31449972  0.24392936  1
  O  O53  1  0.47475927  0.16025855  0.24392936  1
  O  O54  1  0.64193289  0.49711014  0.92236993  1
  O  O55  1  0.85517825  0.35806711  0.92236993  1
  O  O56  1  0.50288986  0.14482175  0.92236993  1
  O  O57  1  0.64193289  0.14482175  0.42236993  1
  O  O58  1  0.50288986  0.35806711  0.42236993  1
  O  O59  1  0.85517825  0.49711014  0.42236993  1
  O  O60  1  0.35216628  0.49359255  0.07726336  1
  O  O61  1  0.14142527  0.64783372  0.07726336  1
  O  O62  1  0.50640745  0.85857473  0.07726336  1
  O  O63  1  0.35216628  0.85857473  0.57726336  1
  O  O64  1  0.50640745  0.64783372  0.57726336  1
  O  O65  1  0.14142527  0.49359255  0.57726336  1
  O  O66  1  0.30859889  0.83044414  0.25570393  1
  O  O67  1  0.52184425  0.69140111  0.25570393  1
  O  O68  1  0.16955586  0.47815575  0.25570393  1
  O  O69  1  0.30859889  0.47815575  0.75570393  1
  O  O70  1  0.16955586  0.69140111  0.75570393  1
  O  O71  1  0.52184425  0.83044414  0.75570393  1
loop_
_geom_bond_atom_site_label_1
_geom_bond_atom_site_label_2
_geom_bond_distance
_geom_bond_site_symmetry_2
Na0 O67 2.429407 1_545
Na0 O52 2.437915 1_555
Na0 O53 2.448301 1_555
Na0 O66 2.518303 1_545
Na0 O16 2.621323 1_555
Na0 O31 2.650903 1_545
Na0 O9 2.821208 1_545
Na0 O2 2.853693 1_555
Na1 O68 2.429416 1_555
Na1 O53 2.437922 1_555
Na1 O51 2.448309 1_555
Na1 O67 2.518303 1_555
Na1 O17 2.621327 1_555
Na1 O32 2.650905 1_555
Na1 O10 2.821208 1_555
Na1 O0 2.853693 1_555
Na2 O66 2.429409 1_655
Na2 O51 2.437913 1_555
Na2 O52 2.448309 1_555
Na2 O68 2.518296 1_655
Na2 O15 2.621325 1_555
Na2 O30 2.650902 1_655
Na2 O11 2.821208 1_655
Na2 O1 2.853693 1_555
Na3 O71 2.429416 1_555
Na3 O50 2.437922 1_555
Na3 O49 2.448309 1_555
Na3 O69 2.518304 1_555
Na3 O14 2.621327 1_555
Na3 O35 2.650905 1_555
Na3 O6 2.821208 1_555
Na3 O4 2.853693 1_555
Na4 O69 2.429407 1_655
Na4 O48 2.437915 1_555
Na4 O50 2.448301 1_555
Na4 O70 2.518303 1_655
Na4 O12 2.621324 1_555
Na4 O33 2.650903 1_655
Na4 O7 2.821208 1_655
Na4 O5 2.853693 1_555
Na5 O70 2.429409 1_545
Na5 O49 2.437913 1_555
Na5 O48 2.448309 1_555
Na5 O71 2.518296 1_545
Na5 O13 2.621325 1_555
Na5 O34 2.650902 1_545
Na5 O8 2.821208 1_545
Na5 O3 2.853693 1_555
Na6 O43 2.429407 1_555
Na6 O64 2.437919 1_555
Na6 O65 2.448315 1_555
Na6 O42 2.518303 1_455
Na6 O28 2.621309 1_555
Na6 O7 2.650903 1_555
Na6 O21 2.821208 1_555
Na6 O14 2.853693 1_555
Na7 O44 2.429416 1_455
Na7 O65 2.437905 1_555
Na7 O63 2.448300 1_555
Na7 O43 2.518303 1_565
Na7 O29 2.621302 1_555
Na7 O8 2.650905 1_555
Na7 O22 2.821208 1_455
Na7 O12 2.853693 1_455
Na8 O42 2.429409 1_565
Na8 O63 2.437922 1_555
Na8 O64 2.448300 1_555
Na8 O44 2.518296 1_555
Na8 O27 2.621305 1_555
Na8 O6 2.650902 1_555
Na8 O23 2.821208 1_565
Na8 O13 2.853693 1_565
Na9 O47 2.429416 1_565
Na9 O62 2.437905 1_555
Na9 O61 2.448300 1_555
Na9 O45 2.518304 1_455
Na9 O26 2.621302 1_554
Na9 O11 2.650905 1_555
Na9 O18 2.821208 1_565
Na9 O16 2.853693 1_565
Na10 O45 2.429407 1_555
Na10 O60 2.437919 1_555
Na10 O62 2.448315 1_555
Na10 O46 2.518303 1_565
Na10 O24 2.621309 1_554
Na10 O9 2.650903 1_555
Na10 O19 2.821208 1_555
Na10 O17 2.853693 1_555
Na11 O46 2.429409 1_455
Na11 O61 2.437922 1_555
Na11 O60 2.448300 1_555
Na11 O47 2.518296 1_555
Na11 O25 2.621305 1_554
Na11 O10 2.650902 1_555
Na11 O20 2.821208 1_455
Na11 O15 2.853693 1_455
Na12 O55 2.429416 1_555
Na12 O40 2.437915 1_655
Na12 O41 2.448301 1_555
Na12 O54 2.518295 1_555
Na12 O4 2.621323 1_555
Na12 O19 2.650883 1_556
Na12 O33 2.821208 1_655
Na12 O26 2.853693 1_655
Na13 O56 2.429399 1_555
Na13 O41 2.437922 1_545
Na13 O39 2.448309 1_655
Na13 O55 2.518294 1_555
Na13 O5 2.621327 1_555
Na13 O20 2.650880 1_556
Na13 O34 2.821208 1_545
Na13 O24 2.853693 1_545
Na14 O54 2.429413 1_555
Na14 O39 2.437913 1_555
Na14 O40 2.448309 1_545
Na14 O56 2.518310 1_555
Na14 O3 2.621325 1_555
Na14 O18 2.650887 1_556
Na14 O35 2.821208 1_555
Na14 O25 2.853693 1_555
Na15 O59 2.429399 1_555
Na15 O38 2.437922 1_655
Na15 O37 2.448309 1_545
Na15 O57 2.518294 1_555
Na15 O2 2.621327 1_555
Na15 O23 2.650880 1_555
Na15 O30 2.821208 1_655
Na15 O28 2.853693 1_655
Na16 O57 2.429416 1_555
Na16 O36 2.437915 1_545
Na16 O38 2.448301 1_555
Na16 O58 2.518295 1_555
Na16 O0 2.621324 1_555
Na16 O21 2.650883 1_555
Na16 O31 2.821208 1_545
Na16 O29 2.853693 1_545
Na17 O58 2.429413 1_555
Na17 O37 2.437913 1_555
Na17 O36 2.448309 1_655
Na17 O59 2.518310 1_555
Na17 O1 2.621325 1_555
Na17 O22 2.650887 1_555
Na17 O32 2.821208 1_555
Na17 O27 2.853693 1_555
Na18 O44 2.525140 1_445
Na18 O42 2.525140 1_455
Na18 O43 2.525140 1_555
Na18 O38 2.530725 1_555
Na18 O36 2.530725 1_545
Na18 O37 2.530725 1_445
Na19 O45 2.525140 1_446
Na19 O47 2.525140 1_556
Na19 O46 2.525140 1_456
Na19 O39 2.530725 1_555
Na19 O41 2.530725 1_445
Na19 O40 2.530725 1_545
Na20 O56 2.525140 1_555
Na20 O54 2.525140 1_555
Na20 O55 2.525140 1_555
Na20 O50 2.530725 1_555
Na20 O48 2.530725 1_555
Na20 O49 2.530725 1_555
Na21 O57 2.525140 1_555
Na21 O59 2.525140 1_555
Na21 O58 2.525140 1_555
Na21 O51 2.530725 1_555
Na21 O53 2.530725 1_555
Na21 O52 2.530725 1_555
Na22 O68 2.525140 1_555
Na22 O66 2.525140 1_555
Na22 O67 2.525140 1_555
Na22 O62 2.530725 1_555
Na22 O60 2.530725 1_555
Na22 O61 2.530725 1_555
Na23 O69 2.525140 1_555
Na23 O71 2.525140 1_555
Na23 O70 2.525140 1_555
Na23 O63 2.530725 1_555
Na23 O65 2.530725 1_555
Na23 O64 2.530725 1_555
Mg0 O1 1.996586 1_445
Mg0 O2 1.996586 1_455
Mg0 O0 1.996586 1_555
Mg0 O38 2.092901 1_555
Mg0 O36 2.092901 1_545
Mg0 O37 2.092901 1_445
Mg1 O4 1.996586 1_445
Mg1 O3 1.996586 1_555
Mg1 O5 1.996586 1_455
Mg1 O39 2.092901 1_555
Mg1 O41 2.092901 1_445
Mg1 O40 2.092901 1_545
Mg2 O13 1.996586 1_555
Mg2 O14 1.996586 1_555
Mg2 O12 1.996586 1_555
Mg2 O50 2.092901 1_555
Mg2 O48 2.092901 1_555
Mg2 O49 2.092901 1_555
Mg3 O16 1.996586 1_555
Mg3 O15 1.996586 1_555
Mg3 O17 1.996586 1_555
Mg3 O51 2.092901 1_555
Mg3 O53 2.092901 1_555
Mg3 O52 2.092901 1_555
Mg4 O25 1.996586 1_554
Mg4 O26 1.996586 1_554
Mg4 O24 1.996586 1_554
Mg4 O62 2.092901 1_555
Mg4 O60 2.092901 1_555
Mg4 O61 2.092901 1_555
Mg5 O28 1.996586 1_555
Mg5 O27 1.996586 1_555
Mg5 O29 1.996586 1_555
Mg5 O63 2.092901 1_555
Mg5 O65 2.092901 1_555
Mg5 O64 2.092901 1_555
Ga0 O7 1.967957 1_555
Ga0 O6 1.967957 1_445
Ga0 O8 1.967957 1_545
Ga0 O44 2.092429 1_445
Ga0 O42 2.092429 1_455
Ga0 O43 2.092429 1_555
Ga1 O10 1.967957 1_555
Ga1 O9 1.967957 1_445
Ga1 O11 1.967957 1_545
Ga1 O45 2.092429 1_445
Ga1 O47 2.092429 1_555
Ga1 O46 2.092429 1_455
Ga2 O19 1.967957 1_556
Ga2 O18 1.967957 1_556
Ga2 O20 1.967957 1_556
Ga2 O56 2.092429 1_555
Ga2 O54 2.092429 1_555
Ga2 O55 2.092429 1_555
Ga3 O22 1.967957 1_555
Ga3 O21 1.967957 1_555
Ga3 O23 1.967957 1_555
Ga3 O57 2.092429 1_555
Ga3 O59 2.092429 1_555
Ga3 O58 2.092429 1_555
Ga4 O31 1.967957 1_555
Ga4 O30 1.967957 1_555
Ga4 O32 1.967957 1_555
Ga4 O68 2.092429 1_555
Ga4 O66 2.092429 1_555
Ga4 O67 2.092429 1_555
Ga5 O34 1.967957 1_555
Ga5 O33 1.967957 1_555
Ga5 O35 1.967957 1_555
Ga5 O69 2.092429 1_555
Ga5 O71 2.092429 1_555
Ga5 O70 2.092429 1_555
O0 P0 1.524195 1_545
O1 P1 1.524195 1_555
O2 P2 1.524195 1_655
O3 P3 1.524195 1_555
O4 P4 1.524195 1_655
O5 P5 1.524195 1_545
O6 P5 1.571420 1_555
O7 P3 1.571420 1_555
O8 P4 1.571420 1_555
O9 P1 1.571420 1_555
O10 P2 1.571420 1_555
O11 P0 1.571420 1_555
O12 P6 1.524195 1_555
O13 P7 1.524195 1_555
O14 P8 1.524195 1_555
O15 P9 1.524195 1_555
O16 P10 1.524195 1_555
O17 P11 1.524195 1_555
O18 P11 1.571420 1_555
O19 P9 1.571420 1_555
O20 P10 1.571420 1_555
O21 P7 1.571420 1_555
O22 P8 1.571420 1_555
O23 P6 1.571420 1_555
O24 P12 1.524195 1_555
O25 P13 1.524195 1_555
O26 P14 1.524195 1_555
O27 P15 1.524195 1_555
O28 P16 1.524195 1_555
O29 P17 1.524195 1_555
O30 P17 1.571420 1_555
O31 P15 1.571420 1_555
O32 P16 1.571420 1_555
O33 P13 1.571420 1_555
O34 P14 1.571420 1_555
O35 P12 1.571420 1_555
O36 P17 1.545195 1_555
O37 P15 1.545204 1_555
O38 P16 1.545200 1_555
O39 P13 1.545204 1_555
O40 P14 1.545195 1_555
O41 P12 1.545200 1_555
O42 P6 1.574637 1_555
O43 P7 1.574646 1_555
O44 P8 1.574642 1_555
O45 P9 1.574646 1_555
O46 P10 1.574637 1_555
O47 P11 1.574642 1_555
O48 P5 1.545195 1_545
O49 P3 1.545204 1_555
O50 P4 1.545200 1_655
O51 P1 1.545204 1_555
O52 P2 1.545195 1_655
O53 P0 1.545200 1_545
O54 P12 1.574649 1_555
O55 P13 1.574632 1_655
O56 P14 1.574639 1_545
O57 P15 1.574632 1_545
O58 P16 1.574649 1_555
O59 P17 1.574639 1_655
O60 P11 1.545207 1_555
O61 P9 1.545189 1_455
O62 P10 1.545196 1_565
O63 P7 1.545189 1_565
O64 P8 1.545207 1_555
O65 P6 1.545196 1_455
O66 P0 1.574637 1_555
O67 P1 1.574646 1_555
O68 P2 1.574642 1_555
O69 P3 1.574646 1_555
O70 P4 1.574637 1_555
O71 P5 1.574642 1_555
