# generated using pymatgen
data_Ba2Tb2MgCo4O11
_symmetry_space_group_name_H-M   'P 1'
_cell_length_a   3.81722400
_cell_length_b   7.73553900
_cell_length_c   8.81852100
_cell_angle_alpha   90.00000000
_cell_angle_beta   90.00000000
_cell_angle_gamma   90.00000000
_symmetry_Int_Tables_number   1
_chemical_formula_structural   Ba2Tb2MgCo4O11
_chemical_formula_sum   'Ba2 Tb2 Mg1 Co4 O11'
_cell_volume   260.39580246
_cell_formula_units_Z   1
loop_
 _symmetry_equiv_pos_site_id
 _symmetry_equiv_pos_as_xyz
  1  'x, y, z'
loop_
 _atom_site_type_symbol
 _atom_site_label
 _atom_site_symmetry_multiplicity
 _atom_site_fract_x
 _atom_site_fract_y
 _atom_site_fract_z
 _atom_site_occupancy
  Ba  Ba0  1  0.50000100  0.00000000  0.80997200  1
  Ba  Ba1  1  0.50000100  0.00000000  0.19002800  1
  Tb  Tb0  1  0.50000100  0.50000000  0.25611800  1
  Tb  Tb1  1  0.50000100  0.50000000  0.74388300  1
  Mg  Mg0  1  0.50000000  0.00000000  0.50000000  1
  Co  Co0  1  0.00000000  0.28692300  0.00000000  1
  Co  Co1  1  0.00000000  0.71307700  0.00000000  1
  Co  Co2  1  0.00000000  0.73655200  0.49999900  1
  Co  Co3  1  0.00000000  0.26344800  0.49999900  1
  O  O0  1  0.00000000  0.30725400  0.77637600  1
  O  O1  1  0.00000000  0.69274600  0.22362400  1
  O  O2  1  0.00000000  0.30725400  0.22362400  1
  O  O3  1  0.00000000  0.69274600  0.77637600  1
  O  O4  1  0.50000100  0.25081000  0.49999900  1
  O  O5  1  0.50000100  0.74919100  0.49999900  1
  O  O6  1  0.50000100  0.32051100  0.00000000  1
  O  O7  1  0.50000100  0.67948900  0.00000000  1
  O  O8  1  0.00000000  0.00000000  0.00000000  1
  O  O9  1  0.00000000  0.50000000  0.49999900  1
  O  O10  1  0.00000000  0.00000000  0.49999900  1
loop_
_geom_bond_atom_site_label_1
_geom_bond_atom_site_label_2
_geom_bond_distance
_geom_bond_site_symmetry_2
Ba0 O8 2.539877 1_656
Ba0 O8 2.539883 1_556
Ba0 O0 3.062617 1_655
Ba0 O3 3.062617 1_645
Ba0 O0 3.062621 1_555
Ba0 O3 3.062621 1_545
Ba1 O8 2.539877 1_655
Ba1 O8 2.539883 1_555
Ba1 O2 3.062617 1_655
Ba1 O1 3.062617 1_645
Ba1 O2 3.062621 1_555
Ba1 O1 3.062621 1_545
Mg0 O10 1.908612 1_655
Mg0 O10 1.908612 1_555
Mg0 O5 1.940143 1_545
Mg0 O4 1.940151 1_555
Co0 O6 1.926212 1_455
Co0 O6 1.926219 1_555
Co0 O2 1.978294 1_555
Co0 O0 1.978294 1_554
Co0 O8 2.219504 1_555
Co1 O7 1.926212 1_455
Co1 O7 1.926219 1_555
Co1 O1 1.978294 1_555
Co1 O3 1.978294 1_554
Co1 O8 2.219504 1_565
Co2 O9 1.829857 1_555
Co2 O5 1.911111 1_455
Co2 O5 1.911118 1_555
Co2 O10 2.037912 1_565
Co2 O1 2.460663 1_555
Co2 O3 2.460681 1_555
Co3 O9 1.829857 1_555
Co3 O4 1.911110 1_455
Co3 O4 1.911118 1_555
Co3 O10 2.037912 1_555
Co3 O2 2.460663 1_555
Co3 O0 2.460681 1_555
O0 Tb1 2.438843 1_455
O0 Tb1 2.438849 1_555
O1 Tb0 2.438844 1_455
O1 Tb0 2.438850 1_555
O2 Tb0 2.438844 1_455
O2 Tb0 2.438850 1_555
O3 Tb1 2.438843 1_455
O3 Tb1 2.438849 1_555
O4 Tb0 2.888095 1_555
O4 Tb1 2.888115 1_555
O5 Tb0 2.888101 1_555
O5 Tb1 2.888120 1_555
O6 Tb1 2.651213 1_554
O6 Tb0 2.651220 1_555
O7 Tb1 2.651213 1_554
O7 Tb0 2.651220 1_555
O9 Tb0 2.875442 1_455
O9 Tb0 2.875447 1_555
O9 Tb1 2.875462 1_455
O9 Tb1 2.875467 1_555
