# generated using pymatgen
data_NaLaSiGe(SO6)2
_symmetry_space_group_name_H-M   'P 1'
_cell_length_a   9.33764692
_cell_length_b   9.18618196
_cell_length_c   23.60744618
_cell_angle_alpha   95.59483196
_cell_angle_beta   90.00000000
_cell_angle_gamma   120.54694565
_symmetry_Int_Tables_number   1
_chemical_formula_structural   NaLaSiGe(SO6)2
_chemical_formula_sum   'Na6 La6 Si6 Ge6 S12 O72'
_cell_volume   1732.73163977
_cell_formula_units_Z   6
loop_
 _symmetry_equiv_pos_site_id
 _symmetry_equiv_pos_as_xyz
  1  'x, y, z'
loop_
 _atom_site_type_symbol
 _atom_site_label
 _atom_site_symmetry_multiplicity
 _atom_site_fract_x
 _atom_site_fract_y
 _atom_site_fract_z
 _atom_site_occupancy
  Na  Na0  1  0.03001702  0.03332443  0.49996688  1
  Na  Na1  1  0.00330741  0.03332443  -0.00003312  1
  Na  Na2  1  0.74236192  0.38499220  0.83002052  1
  Na  Na3  1  0.64263128  0.38499220  0.33002052  1
  Na  Na4  1  0.34674734  0.71283073  0.15694531  1
  Na  Na5  1  0.36608239  0.71283073  0.65694531  1
  La  La0  1  0.00412614  0.99628185  0.64085416  1
  La  La1  1  0.99215571  0.99628185  0.14085416  1
  La  La2  1  0.66447199  0.32247053  0.97508093  1
  La  La3  1  0.65799955  0.32247053  0.47508093  1
  La  La4  1  0.33510302  0.65576684  0.30276285  1
  La  La5  1  0.32066283  0.65576684  0.80276285  1
  Si  Si0  1  0.29529810  0.00709845  0.24814035  1
  Si  Si1  1  0.71180035  0.00709845  0.74814035  1
  Si  Si2  1  0.38775150  0.02666983  0.57839423  1
  Si  Si3  1  0.63891933  0.02666983  0.07839423  1
  Si  Si4  1  0.06969273  0.38366962  0.91399687  1
  Si  Si5  1  0.31397588  0.38366962  0.41399687  1
  Ge  Ge0  1  0.08015304  0.01061717  0.36158965  1
  Ge  Ge1  1  0.93046413  0.01061717  0.86158965  1
  Ge  Ge2  1  0.65704721  0.27240220  0.69343865  1
  Ge  Ge3  1  0.61535599  0.27240220  0.19343865  1
  Ge  Ge4  1  0.30100350  0.68408596  0.01780443  1
  Ge  Ge5  1  0.38308146  0.68408596  0.51780443  1
  S  S0  1  0.72967443  0.68148088  0.24736991  1
  S  S1  1  0.94216223  0.27978387  0.25051538  1
  S  S2  1  0.33762164  0.27978387  0.75051538  1
  S  S3  1  0.95180645  0.68148088  0.74736991  1
  S  S4  1  0.96961271  0.35872833  0.59024527  1
  S  S5  1  0.63278704  0.62843913  0.58047310  1
  S  S6  1  0.99565309  0.62843913  0.08047310  1
  S  S7  1  0.38911662  0.35872833  0.09024527  1
  S  S8  1  0.64175050  0.69489395  0.91377455  1
  S  S9  1  0.26932001  0.92155814  0.92579456  1
  S  S10  1  0.65223713  0.92155814  0.42579456  1
  S  S11  1  0.05314245  0.69489395  0.41377455  1
  O  O0  1  0.22497060  0.03716474  0.31299580  1
  O  O1  1  0.82521539  0.76454410  0.30338763  1
  O  O2  1  0.94531535  0.19999826  0.30030252  1
  O  O3  1  0.25468291  0.19999826  0.80030252  1
  O  O4  1  0.93932870  0.76454410  0.80338763  1
  O  O5  1  0.81219414  0.03716474  0.81299580  1
  O  O6  1  0.81883538  -0.00553234  0.69836468  1
  O  O7  1  0.24132065  0.19332827  0.69635091  1
  O  O8  1  -0.02689766  0.77908302  0.69971442  1
  O  O9  1  0.80598068  0.77908302  0.19971442  1
  O  O10  1  0.95200762  0.19332827  0.19635091  1
  O  O11  1  0.17563228  -0.00553234  0.19836468  1
  O  O12  1  0.87324150  0.35461172  0.64349000  1
  O  O13  1  0.50467958  0.11285784  0.64205613  1
  O  O14  1  0.63454750  0.55426897  0.63121984  1
  O  O15  1  0.91972246  0.55426897  0.13121984  1
  O  O16  1  0.60817926  0.11285784  0.14205613  1
  O  O17  1  0.48137121  0.35461172  0.14349000  1
  O  O18  1  0.47319871  0.35003306  0.03817650  1
  O  O19  1  0.89701964  0.54135535  0.02693942  1
  O  O20  1  0.65676720  0.14127290  0.02910298  1
  O  O21  1  0.48450670  0.14127290  0.52910298  1
  O  O22  1  0.64433671  0.54135535  0.52693942  1
  O  O23  1  0.87683535  0.35003306  0.53817650  1
  O  O24  1  0.57377178  0.71994737  0.96672597  1
  O  O25  1  0.20278806  0.49154155  0.97243893  1
  O  O26  1  0.28826072  0.83926412  0.97737097  1
  O  O27  1  0.55100240  0.83926412  0.47737097  1
  O  O28  1  0.28875250  0.49154155  0.47243893  1
  O  O29  1  0.14617459  0.71994737  0.46672597  1
  O  O30  1  0.13032441  0.68175983  0.36138341  1
  O  O31  1  0.54995346  0.83594355  0.37312761  1
  O  O32  1  0.31373809  0.46518340  0.35763867  1
  O  O33  1  0.15144430  0.46518340  0.85763867  1
  O  O34  1  0.28598909  0.83594355  0.87312761  1
  O  O35  1  0.55143442  0.68175983  0.86138341  1
  O  O36  1  0.06137392  0.87466604  0.41492767  1
  O  O37  1  0.80179699  0.90977428  0.42929360  1
  O  O38  1  0.13019784  0.18698494  0.41103829  1
  O  O39  1  0.05678710  0.18698494  0.91103829  1
  O  O40  1  0.10797729  0.90977428  0.92929360  1
  O  O41  1  0.81329213  0.87466604  0.91492767  1
  O  O42  1  -0.00462364  0.20916160  0.58438525  1
  O  O43  1  0.19993408  0.98860916  0.58230553  1
  O  O44  1  0.75586916  0.81085688  0.57960815  1
  O  O45  1  0.05498771  0.81085688  0.07960815  1
  O  O46  1  0.78867508  0.98860916  0.08230553  1
  O  O47  1  0.21378524  0.20916160  0.08438525  1
  O  O48  1  0.72147669  0.19456632  0.74820788  1
  O  O49  1  0.49829851  0.27066339  0.74826185  1
  O  O50  1  0.78492178  0.51017421  0.73877088  1
  O  O51  1  0.72525343  0.51017421  0.23877088  1
  O  O52  1  0.77236588  0.27066339  0.24826185  1
  O  O53  1  0.47309063  0.19456632  0.24820788  1
  O  O54  1  0.68778263  0.56409897  0.91244654  1
  O  O55  1  0.88194602  0.34781680  0.91892248  1
  O  O56  1  0.40705548  0.09879046  0.93149666  1
  O  O57  1  0.69173598  0.09879046  0.43149666  1
  O  O58  1  0.46587178  0.34781680  0.41892248  1
  O  O59  1  0.87631734  0.56409897  0.41244654  1
  O  O60  1  0.38569469  0.51710011  0.09722026  1
  O  O61  1  0.15471788  0.61235165  0.07656592  1
  O  O62  1  0.45978318  0.83300653  0.06798514  1
  O  O63  1  0.37322236  0.83300653  0.56798514  1
  O  O64  1  0.45763277  0.61235165  0.57656592  1
  O  O65  1  0.13140443  0.51710011  0.59722026  1
  O  O66  1  0.33271635  0.85411817  0.24747887  1
  O  O67  1  0.55621066  0.64449864  0.25064338  1
  O  O68  1  0.07410480  0.46104201  0.25248767  1
  O  O69  1  0.38693621  0.46104201  0.75248767  1
  O  O70  1  0.08828698  0.64449864  0.75064338  1
  O  O71  1  0.52140082  0.85411817  0.74747887  1
loop_
_geom_bond_atom_site_label_1
_geom_bond_atom_site_label_2
_geom_bond_distance
_geom_bond_site_symmetry_2
Na0 O37 2.405270 1_445
Na0 O36 2.470524 1_545
Na0 O38 2.551577 1_555
Na0 O42 2.566868 1_555
Na0 O43 2.698637 1_545
Na1 O40 2.405270 1_544
Na1 O41 2.470524 1_444
Na1 O39 2.551577 1_554
Na1 O47 2.566868 1_555
Na1 O46 2.698637 1_445
Na2 O48 2.413038 1_555
Na2 O50 2.477749 1_555
Na2 O55 2.610054 1_555
Na2 O54 2.642207 1_555
Na2 O49 2.682142 1_555
Na3 O53 2.413038 1_555
Na3 O51 2.477749 1_555
Na3 O58 2.610054 1_555
Na3 O59 2.642207 1_555
Na3 O52 2.682142 1_555
Na4 O60 2.350205 1_555
Na4 O61 2.375714 1_555
Na4 O66 2.429314 1_555
Na4 O62 2.451720 1_555
Na5 O65 2.350205 1_555
Na5 O64 2.375714 1_555
Na5 O71 2.429314 1_555
Na5 O63 2.451720 1_555
La0 O6 2.193670 1_465
La0 O7 2.315350 1_565
La0 O43 2.317411 1_555
La0 O44 2.423170 1_455
La0 O8 2.439004 1_555
La0 O42 2.505734 1_565
La1 O11 2.193670 1_665
La1 O10 2.315350 1_565
La1 O46 2.317411 1_555
La1 O45 2.423170 1_655
La1 O9 2.439004 1_555
La1 O47 2.505734 1_665
La2 O20 2.166661 1_556
La2 O19 2.310586 1_556
La2 O55 2.348435 1_555
La2 O56 2.371854 1_555
La2 O18 2.420511 1_556
La2 O54 2.703592 1_555
La3 O21 2.166661 1_555
La3 O22 2.310586 1_555
La3 O58 2.348435 1_555
La3 O57 2.371854 1_555
La3 O23 2.420511 1_555
La3 O59 2.703592 1_555
La4 O32 2.206885 1_555
La4 O66 2.351339 1_555
La4 O31 2.369027 1_555
La4 O68 2.388010 1_555
La4 O67 2.445342 1_555
La4 O30 2.455226 1_555
La5 O33 2.206885 1_555
La5 O71 2.351339 1_555
La5 O34 2.369027 1_555
La5 O69 2.388010 1_555
La5 O70 2.445342 1_555
La5 O35 2.455226 1_555
Ge0 O0 1.709801 1_555
Ge0 O38 1.751460 1_555
Ge0 O36 1.805539 1_545
Ge1 O5 1.709801 1_555
Ge1 O39 1.751460 1_655
Ge1 O41 1.805539 1_545
Ge2 O48 1.778332 1_555
Ge2 O13 1.782526 1_555
Ge2 O49 1.962803 1_555
Ge2 O50 2.057910 1_555
Ge2 O12 2.158709 1_555
Ge3 O53 1.778332 1_555
Ge3 O16 1.782526 1_555
Ge3 O52 1.962803 1_555
Ge3 O51 2.057910 1_555
Ge3 O17 2.158709 1_555
Ge4 O62 1.759352 1_555
Ge4 O25 1.760194 1_554
Ge4 O26 1.842566 1_554
Ge4 O61 1.867543 1_555
Ge5 O63 1.759352 1_555
Ge5 O28 1.760194 1_555
Ge5 O27 1.842566 1_555
Ge5 O64 1.867543 1_555
O0 Si0 1.718610 1_555
O1 S0 1.496077 1_555
O2 S1 1.452374 1_555
O3 S2 1.452374 1_555
O4 S3 1.496077 1_555
O5 Si1 1.718610 1_555
O6 Si1 1.576220 1_555
O7 S2 1.466437 1_555
O8 S3 1.457583 1_455
O9 S0 1.457583 1_555
O10 S1 1.466437 1_555
O11 Si0 1.576220 1_555
O12 S4 1.538139 1_555
O13 Si2 1.722478 1_555
O14 S5 1.438834 1_555
O15 S6 1.438834 1_555
O16 Si3 1.722478 1_555
O17 S7 1.538139 1_555
O18 S7 1.475930 1_555
O19 S6 1.462641 1_555
O20 Si3 1.597082 1_555
O21 Si2 1.597082 1_555
O22 S5 1.462641 1_555
O23 S4 1.475930 1_555
O24 S8 1.452896 1_555
O25 Si4 1.706330 1_555
O26 S9 1.549409 1_555
O27 S10 1.549409 1_555
O28 Si5 1.706330 1_555
O29 S11 1.452896 1_555
O30 S11 1.457045 1_555
O31 S10 1.456848 1_555
O32 Si5 1.589595 1_555
O33 Si4 1.589595 1_555
O34 S9 1.456848 1_555
O35 S8 1.457045 1_555
O36 S11 1.611224 1_555
O37 S10 1.457486 1_555
O38 Si5 1.742962 1_555
O39 Si4 1.742966 1_555
O40 S9 1.457477 1_555
O41 S8 1.611229 1_555
O42 S4 1.504548 1_455
O43 Si2 1.609191 1_565
O44 S5 1.475927 1_555
O45 S6 1.475929 1_455
O46 Si3 1.609182 1_565
O47 S7 1.504554 1_555
O48 Si1 1.677838 1_555
O49 S2 1.545247 1_555
O50 S3 1.546274 1_555
O51 S0 1.546279 1_555
O52 S1 1.545237 1_555
O53 Si0 1.677843 1_555
O54 S8 1.465255 1_555
O55 Si4 1.617391 1_655
O56 S9 1.466876 1_545
O57 S10 1.466870 1_545
O58 Si5 1.617410 1_555
O59 S11 1.465242 1_655
O60 S7 1.464655 1_555
O61 S6 1.567449 1_455
O62 Si3 1.706803 1_565
O63 Si2 1.706794 1_565
O64 S5 1.567468 1_555
O65 S4 1.464645 1_455
O66 Si0 1.609979 1_565
O67 S0 1.480112 1_555
O68 S1 1.480598 1_455
O69 S2 1.480600 1_555
O70 S3 1.480103 1_455
O71 Si1 1.609985 1_565
