# generated using pymatgen
data_UH12(ClO2)3
_symmetry_space_group_name_H-M   'P 1'
_cell_length_a   6.68909500
_cell_length_b   8.04609800
_cell_length_c   12.33176146
_cell_angle_alpha   52.44155207
_cell_angle_beta   90.00000000
_cell_angle_gamma   90.00000000
_symmetry_Int_Tables_number   1
_chemical_formula_structural   UH12(ClO2)3
_chemical_formula_sum   'U2 H24 Cl6 O12'
_cell_volume   526.14342268
_cell_formula_units_Z   2
loop_
 _symmetry_equiv_pos_site_id
 _symmetry_equiv_pos_as_xyz
  1  'x, y, z'
loop_
 _atom_site_type_symbol
 _atom_site_label
 _atom_site_symmetry_multiplicity
 _atom_site_fract_x
 _atom_site_fract_y
 _atom_site_fract_z
 _atom_site_occupancy
  U  U0  1  0.15046800  0.00000000  0.25000000  1
  U  U1  1  0.84953200  0.00000000  0.75000000  1
  H  H0  1  0.25538300  0.47756100  0.03250900  1
  H  H1  1  0.25538300  0.52243900  0.46749100  1
  H  H2  1  0.74461700  0.52243900  0.96749100  1
  H  H3  1  0.74461700  0.47756100  0.53250900  1
  H  H4  1  0.33271200  0.37781000  0.96373300  1
  H  H5  1  0.33271200  0.62219000  0.53626700  1
  H  H6  1  0.66728800  0.62219000  0.03626700  1
  H  H7  1  0.66728800  0.37781000  0.46373300  1
  H  H8  1  0.55506100  0.97373000  0.38622400  1
  H  H9  1  0.55506100  0.02627000  0.11377600  1
  H  H10  1  0.44493900  0.02627000  0.61377600  1
  H  H11  1  0.44493900  0.97373000  0.88622400  1
  H  H12  1  0.47916200  0.20356400  0.31803800  1
  H  H13  1  0.47916200  0.79643600  0.18196200  1
  H  H14  1  0.52083800  0.79643600  0.68196200  1
  H  H15  1  0.52083800  0.20356400  0.81803800  1
  H  H16  1  0.09027300  0.75062600  0.13174800  1
  H  H17  1  0.09027300  0.24937400  0.36825200  1
  H  H18  1  0.90972700  0.24937400  0.86825200  1
  H  H19  1  0.90972700  0.75062600  0.63174800  1
  H  H20  1  0.08726800  0.66769700  0.73666100  1
  H  H21  1  0.08726800  0.33230300  0.76333900  1
  H  H22  1  0.91273200  0.33230300  0.26333900  1
  H  H23  1  0.91273200  0.66769700  0.23666100  1
  Cl  Cl0  1  0.82360000  0.79505000  0.44675300  1
  Cl  Cl1  1  0.82360000  0.20495000  0.05324700  1
  Cl  Cl2  1  0.17640000  0.20495000  0.55324700  1
  Cl  Cl3  1  0.17640000  0.79505000  0.94675300  1
  Cl  Cl4  1  0.36762000  0.50000000  0.75000000  1
  Cl  Cl5  1  0.63238000  0.50000000  0.25000000  1
  O  O0  1  0.29473900  0.34205900  0.05319500  1
  O  O1  1  0.29473900  0.65794100  0.44680500  1
  O  O2  1  0.70526100  0.65794100  0.94680500  1
  O  O3  1  0.70526100  0.34205900  0.55319500  1
  O  O4  1  0.43260500  0.06193600  0.35377800  1
  O  O5  1  0.43260500  0.93806400  0.14622200  1
  O  O6  1  0.56739500  0.93806400  0.64622200  1
  O  O7  1  0.56739500  0.06193600  0.85377800  1
  O  O8  1  0.04461500  0.73635700  0.21374100  1
  O  O9  1  0.04461500  0.26364300  0.28625900  1
  O  O10  1  0.95538500  0.26364300  0.78625900  1
  O  O11  1  0.95538500  0.73635700  0.71374100  1
loop_
_geom_bond_atom_site_label_1
_geom_bond_atom_site_label_2
_geom_bond_distance
_geom_bond_site_symmetry_2
H0 O0 0.991958 1_555
H1 O1 0.991958 1_555
H2 O2 0.991958 1_555
H3 O3 0.991958 1_555
H4 O0 0.988673 1_556
H5 O1 0.988673 1_555
H6 O2 0.988673 1_554
H7 O3 0.988673 1_555
H8 O4 0.994257 1_565
H9 O5 0.994257 1_545
H10 O6 0.994257 1_545
H11 O7 0.994257 1_565
H12 O4 0.988691 1_555
H13 O5 0.988691 1_555
H14 O6 0.988691 1_555
H15 O7 0.988691 1_555
H16 O8 0.993625 1_555
H17 O9 0.993625 1_555
H18 O10 0.993625 1_555
H19 O11 0.993625 1_555
H20 O11 0.986386 1_455
H21 O10 0.986386 1_455
H22 O9 0.986386 1_655
H23 O8 0.986386 1_655
Cl0 U0 2.917020 1_665
Cl1 U0 2.917020 1_655
Cl2 U1 2.917020 1_455
Cl3 U1 2.917020 1_465
O0 U0 2.500582 1_555
O1 U0 2.500582 1_565
O2 U1 2.500582 1_565
O3 U1 2.500582 1_555
O4 U0 2.495065 1_555
O5 U0 2.495065 1_565
O6 U1 2.495065 1_565
O7 U1 2.495065 1_555
O8 U0 2.521419 1_565
O9 U0 2.521419 1_555
O10 U1 2.521419 1_555
O11 U1 2.521419 1_565
