# generated using pymatgen
data_Na6Ca4Nb2P6(SO12)3
_symmetry_space_group_name_H-M   'P 1'
_cell_length_a   9.19474442
_cell_length_b   9.21394850
_cell_length_c   23.15223168
_cell_angle_alpha   90.39527152
_cell_angle_beta   90.00000000
_cell_angle_gamma   119.93107782
_symmetry_Int_Tables_number   1
_chemical_formula_structural   Na6Ca4Nb2P6(SO12)3
_chemical_formula_sum   'Na12 Ca8 Nb4 P12 S6 O72'
_cell_volume   1699.79432183
_cell_formula_units_Z   2
loop_
 _symmetry_equiv_pos_site_id
 _symmetry_equiv_pos_as_xyz
  1  'x, y, z'
loop_
 _atom_site_type_symbol
 _atom_site_label
 _atom_site_symmetry_multiplicity
 _atom_site_fract_x
 _atom_site_fract_y
 _atom_site_fract_z
 _atom_site_occupancy
  Na  Na0  1  0.99907290  0.65069762  0.24705541  1
  Na  Na1  1  0.65162472  0.65069762  0.74705541  1
  Na  Na2  1  0.30530914  0.34285001  0.58520187  1
  Na  Na3  1  0.66474098  0.95137076  0.58108375  1
  Na  Na4  1  0.28663077  0.95137076  0.08108375  1
  Na  Na5  1  0.03754187  0.34285001  0.08520187  1
  Na  Na6  1  0.99156245  0.97763172  0.49010339  1
  Na  Na7  1  0.98606927  0.97763172  0.99010339  1
  Na  Na8  1  0.65086691  0.30290942  0.82584919  1
  Na  Na9  1  0.65204351  0.30290942  0.32584919  1
  Na  Na10  1  0.34927527  0.66444865  0.16920652  1
  Na  Na11  1  0.31517238  0.66444865  0.66920652  1
  Ca  Ca0  1  0.00226696  0.01066978  0.35123330  1
  Ca  Ca1  1  0.00840282  0.01066978  0.85123330  1
  Ca  Ca2  1  0.99924376  0.99758691  0.65480333  1
  Ca  Ca3  1  0.99834316  0.99758691  0.15480333  1
  Ca  Ca4  1  0.66576632  0.32942931  0.68750213  1
  Ca  Ca5  1  0.66366398  0.32942931  0.18750213  1
  Ca  Ca6  1  0.33659191  0.66723979  0.01408833  1
  Ca  Ca7  1  0.33064687  0.66723979  0.51408833  1
  Nb  Nb0  1  0.67697175  0.34624166  0.97303771  1
  Nb  Nb1  1  0.66927092  0.34624166  0.47303771  1
  Nb  Nb2  1  0.32975107  0.66660138  0.32123650  1
  Nb  Nb3  1  0.33684931  0.66660138  0.82123650  1
  P  P0  1  0.30218850  0.98862230  0.25175105  1
  P  P1  1  0.00933328  0.31408353  0.25038084  1
  P  P2  1  0.30475025  0.31408353  0.75038084  1
  P  P3  1  0.68643379  0.98862230  0.75175105  1
  P  P4  1  0.67082849  0.62766498  0.58207438  1
  P  P5  1  0.95683750  0.62766498  0.08207438  1
  P  P6  1  0.63106345  0.66424582  0.91779080  1
  P  P7  1  0.03592179  0.37443769  0.92053917  1
  P  P8  1  0.34232658  0.96870078  0.92178759  1
  P  P9  1  0.62637320  0.96870078  0.42178759  1
  P  P10  1  0.33851490  0.37443769  0.42053917  1
  P  P11  1  0.03318137  0.66424582  0.41779080  1
  S  S0  1  0.68847003  0.70000254  0.25366996  1
  S  S1  1  0.01153251  0.70000254  0.75366996  1
  S  S2  1  0.95396887  0.32991043  0.57979685  1
  S  S3  1  0.37913905  0.04921264  0.57903869  1
  S  S4  1  0.67007459  0.04921264  0.07903869  1
  S  S5  1  0.37594256  0.32991043  0.07979685  1
  O  O0  1  0.20053762  0.00015548  0.30068933  1
  O  O1  1  0.79713510  0.78301240  0.30293687  1
  O  O2  1  0.98059463  0.19512432  0.29881060  1
  O  O3  1  0.21452969  0.19512432  0.79881060  1
  O  O4  1  0.98587730  0.78301240  0.80293687  1
  O  O5  1  0.79961785  0.00015548  0.80068933  1
  O  O6  1  0.73827602  0.94084839  0.69368778  1
  O  O7  1  0.21678603  0.25718919  0.69099124  1
  O  O8  1  0.04267418  0.79592347  0.69951467  1
  O  O9  1  0.75324928  0.79592347  0.19951467  1
  O  O10  1  0.04040316  0.25718919  0.19099124  1
  O  O11  1  0.20257237  0.94084839  0.19368778  1
  O  O12  1  0.87460118  0.34233815  0.63273410  1
  O  O13  1  0.47489335  0.12750491  0.63155882  1
  O  O14  1  0.65877158  0.53186773  0.63673310  1
  O  O15  1  0.87309715  0.53186773  0.13673310  1
  O  O16  1  0.65261256  0.12750491  0.13155882  1
  O  O17  1  0.46773797  0.34233815  0.13273410  1
  O  O18  1  0.47217530  0.32170005  0.02774293  1
  O  O19  1  0.83818853  0.51325518  0.02778309  1
  O  O20  1  0.67915360  0.15466982  0.02725044  1
  O  O21  1  0.47551722  0.15466982  0.52725044  1
  O  O22  1  0.67506765  0.51325518  0.52778309  1
  O  O23  1  0.84952576  0.32170005  0.52774293  1
  O  O24  1  0.55232970  0.68238973  0.97197122  1
  O  O25  1  0.11875930  0.44360108  0.97803372  1
  O  O26  1  0.32473365  0.88267884  0.97893457  1
  O  O27  1  0.55794420  0.88267884  0.47893457  1
  O  O28  1  0.32484079  0.44360108  0.47803372  1
  O  O29  1  0.13005903  0.68238973  0.47197122  1
  O  O30  1  0.12609546  0.63631680  0.36376364  1
  O  O31  1  0.49746002  0.86215248  0.37066403  1
  O  O32  1  0.36046724  0.49958395  0.36995965  1
  O  O33  1  0.13911571  0.49958395  0.86995965  1
  O  O34  1  0.36469146  0.86215248  0.87066403  1
  O  O35  1  0.51022034  0.63631680  0.86376364  1
  O  O36  1  0.99355760  0.80106401  0.40835145  1
  O  O37  1  0.80046143  0.99935668  0.41054521  1
  O  O38  1  0.19962153  0.19783985  0.41079490  1
  O  O39  1  -0.00178168  0.19783985  0.91079490  1
  O  O40  1  0.19889524  0.99935668  0.91054521  1
  O  O41  1  0.80750641  0.80106401  0.90835145  1
  O  O42  1  0.96093517  0.17059176  0.57883121  1
  O  O43  1  0.21502188  0.04498084  0.57923598  1
  O  O44  1  0.82642778  0.80239539  0.57738759  1
  O  O45  1  0.97596762  0.80239539  0.07738759  1
  O  O46  1  0.82995895  0.04498084  0.07923598  1
  O  O47  1  0.20965658  0.17059176  0.07883121  1
  O  O48  1  0.65652625  0.13625239  0.74902900  1
  O  O49  1  0.49207313  0.36389751  0.74960025  1
  O  O50  1  0.86284939  0.53085476  0.74807019  1
  O  O51  1  0.66800637  0.53085476  0.24807019  1
  O  O52  1  0.87182538  0.36389751  0.24960025  1
  O  O53  1  0.47972714  0.13625239  0.24902900  1
  O  O54  1  0.63301427  0.48876790  0.92291257  1
  O  O55  1  0.85584610  0.36971728  0.92183758  1
  O  O56  1  0.51483792  0.14659455  0.92426851  1
  O  O57  1  0.63175763  0.14659455  0.42426851  1
  O  O58  1  0.51387218  0.36971728  0.42183758  1
  O  O59  1  0.85575464  0.48876790  0.42291257  1
  O  O60  1  0.34668462  0.47343647  0.07726669  1
  O  O61  1  0.13068526  0.63921742  0.07842489  1
  O  O62  1  0.52158064  0.88036025  0.07557784  1
  O  O63  1  0.35877861  0.88036025  0.57557784  1
  O  O64  1  0.50853117  0.63921742  0.57842489  1
  O  O65  1  0.12675085  0.47343647  0.57726669  1
  O  O66  1  0.31735976  0.82211350  0.26565766  1
  O  O67  1  0.51595782  0.68135420  0.26273270  1
  O  O68  1  0.17934316  0.49240152  0.26515118  1
  O  O69  1  0.31305736  0.49240152  0.76515118  1
  O  O70  1  0.16539538  0.68135420  0.76273270  1
  O  O71  1  0.50475274  0.82211350  0.76565766  1
loop_
_geom_bond_atom_site_label_1
_geom_bond_atom_site_label_2
_geom_bond_distance
_geom_bond_site_symmetry_2
Na0 O52 2.296148 1_555
Na0 O66 2.573483 1_655
Na0 O51 2.670630 1_555
Na0 O11 2.688622 1_655
Na1 O49 2.296147 1_555
Na1 O71 2.573491 1_555
Na1 O50 2.670638 1_555
Na1 O6 2.688622 1_555
Na2 O64 2.426312 1_555
Na2 O43 2.441700 1_555
Na2 O65 2.480192 1_555
Na2 O7 2.582619 1_555
Na2 O28 2.629771 1_555
Na2 O42 2.747495 1_455
Na3 O42 2.451864 1_565
Na3 O44 2.477193 1_555
Na3 O64 2.492830 1_555
Na3 O27 2.513389 1_555
Na3 O63 2.553568 1_555
Na3 O6 2.707784 1_555
Na4 O47 2.451870 1_565
Na4 O45 2.477200 1_455
Na4 O61 2.492830 1_555
Na4 O26 2.513384 1_554
Na4 O62 2.553550 1_555
Na4 O11 2.707786 1_555
Na5 O61 2.426316 1_555
Na5 O46 2.441702 1_455
Na5 O60 2.480176 1_555
Na5 O10 2.582618 1_555
Na5 O25 2.629769 1_554
Na5 O47 2.747487 1_555
Na6 O36 2.493362 1_555
Na6 O44 2.568017 1_555
Na6 O37 2.622292 1_555
Na6 O38 2.706659 1_665
Na6 O43 2.752303 1_665
Na6 O42 2.812382 1_565
Na7 O41 2.493362 1_555
Na7 O45 2.568017 1_556
Na7 O40 2.622292 1_655
Na7 O39 2.706659 1_665
Na7 O46 2.752303 1_566
Na7 O47 2.812382 1_666
Na8 O48 2.359239 1_555
Na8 O49 2.529116 1_555
Na8 O56 2.660550 1_555
Na8 O50 2.723966 1_555
Na8 O55 2.773684 1_555
Na8 O54 2.870026 1_555
Na9 O53 2.359239 1_555
Na9 O52 2.529116 1_555
Na9 O57 2.660550 1_555
Na9 O51 2.723966 1_555
Na9 O58 2.773684 1_555
Na9 O59 2.870026 1_555
Na10 O67 2.611312 1_555
Na10 O68 2.732304 1_555
Na10 O60 2.745095 1_555
Na10 O66 2.750220 1_555
Na10 O61 2.835170 1_555
Na10 O62 2.842703 1_555
Na11 O70 2.611312 1_555
Na11 O69 2.732304 1_555
Na11 O65 2.745095 1_555
Na11 O71 2.750220 1_555
Na11 O64 2.835170 1_555
Na11 O63 2.842703 1_555
Ca0 O2 2.183506 1_455
Ca0 O0 2.208382 1_555
Ca0 O38 2.238945 1_555
Ca0 O37 2.269048 1_445
Ca0 O1 2.286333 1_445
Ca0 O36 2.316462 1_445
Ca1 O3 2.183506 1_555
Ca1 O5 2.208382 1_455
Ca1 O39 2.238945 1_555
Ca1 O40 2.269048 1_545
Ca1 O4 2.286333 1_445
Ca1 O41 2.316462 1_445
Ca2 O8 2.334659 1_655
Ca2 O6 2.365628 1_555
Ca2 O7 2.371125 1_665
Ca2 O44 2.464886 1_555
Ca2 O43 2.516731 1_665
Ca2 O42 2.521489 1_565
Ca3 O9 2.334659 1_555
Ca3 O11 2.365628 1_655
Ca3 O10 2.371125 1_665
Ca3 O45 2.464886 1_555
Ca3 O46 2.516731 1_565
Ca3 O47 2.521489 1_665
Ca4 O13 2.219804 1_555
Ca4 O14 2.239395 1_555
Ca4 O12 2.254606 1_555
Ca4 O48 2.255787 1_555
Ca4 O49 2.284368 1_555
Ca4 O50 2.302737 1_555
Ca5 O16 2.219804 1_555
Ca5 O15 2.239395 1_555
Ca5 O17 2.254606 1_555
Ca5 O53 2.255786 1_555
Ca5 O52 2.284369 1_555
Ca5 O51 2.302737 1_555
Ca6 O24 2.151919 1_554
Ca6 O25 2.193671 1_554
Ca6 O26 2.202948 1_554
Ca6 O61 2.321056 1_555
Ca6 O62 2.324693 1_555
Ca6 O60 2.353353 1_555
Ca7 O29 2.151918 1_555
Ca7 O28 2.193671 1_555
Ca7 O27 2.202948 1_555
Ca7 O64 2.321056 1_555
Ca7 O63 2.324693 1_555
Ca7 O65 2.353353 1_555
Nb0 O54 1.945613 1_555
Nb0 O55 1.950777 1_555
Nb0 O19 1.966889 1_556
Nb0 O56 2.028778 1_555
Nb0 O20 2.181145 1_556
Nb0 O18 2.186365 1_556
Nb1 O59 1.945613 1_555
Nb1 O58 1.950777 1_555
Nb1 O22 1.966889 1_555
Nb1 O57 2.028777 1_555
Nb1 O21 2.181145 1_555
Nb1 O23 2.186365 1_555
Nb2 O66 1.977440 1_555
Nb2 O68 1.982688 1_555
Nb2 O30 2.009015 1_555
Nb2 O31 2.032933 1_555
Nb2 O32 2.044044 1_555
Nb2 O67 2.134196 1_555
Nb3 O71 1.977440 1_555
Nb3 O69 1.982688 1_555
Nb3 O35 2.009015 1_555
Nb3 O34 2.032933 1_555
Nb3 O33 2.044044 1_555
Nb3 O70 2.134196 1_555
O0 P0 1.505351 1_545
O1 S0 1.452482 1_555
O2 P1 1.502122 1_655
O3 P2 1.502122 1_555
O4 S1 1.452482 1_655
O5 P3 1.505351 1_545
O6 P3 1.558633 1_555
O7 P2 1.544847 1_555
O8 S1 1.482536 1_555
O9 S0 1.482536 1_555
O10 P1 1.544847 1_555
O11 P0 1.558633 1_555
O12 S2 1.459197 1_555
O13 S3 1.458837 1_555
O14 P4 1.520059 1_555
O15 P5 1.520059 1_555
O16 S4 1.458837 1_555
O17 S5 1.459197 1_555
O18 S5 1.518756 1_555
O19 P5 1.647867 1_555
O20 S4 1.524430 1_555
O21 S3 1.524430 1_555
O22 P4 1.647867 1_555
O23 S2 1.518755 1_555
O24 P6 1.497807 1_555
O25 P7 1.504018 1_555
O26 P8 1.513753 1_555
O27 P9 1.513753 1_555
O28 P10 1.504018 1_555
O29 P11 1.497807 1_555
O30 P11 1.604886 1_555
O31 P9 1.610118 1_555
O32 P10 1.589981 1_555
O33 P7 1.589981 1_555
O34 P8 1.610118 1_555
O35 P6 1.604886 1_555
O36 P11 1.493932 1_655
O37 P9 1.503192 1_555
O38 P10 1.500249 1_555
O39 P7 1.500252 1_555
O40 P8 1.503183 1_555
O41 P6 1.493938 1_555
O42 S2 1.500956 1_555
O43 S3 1.489951 1_555
O44 P4 1.534431 1_555
O45 P5 1.534435 1_555
O46 S4 1.489942 1_555
O47 S5 1.500961 1_555
O48 P3 1.518009 1_545
O49 P2 1.545581 1_555
O50 S1 1.478431 1_655
O51 S0 1.478434 1_555
O52 P1 1.545572 1_655
O53 P0 1.518015 1_545
O54 P6 1.630998 1_555
O55 P7 1.634765 1_655
O56 P8 1.615599 1_545
O57 P9 1.615591 1_545
O58 P10 1.634783 1_555
O59 P11 1.630989 1_655
O60 S5 1.476734 1_555
O61 P5 1.550470 1_455
O62 S4 1.472964 1_565
O63 S3 1.472956 1_565
O64 P4 1.550488 1_555
O65 S2 1.476723 1_455
O66 P0 1.642342 1_555
O67 S0 1.522535 1_555
O68 P1 1.639898 1_555
O69 P2 1.639902 1_555
O70 S1 1.522526 1_555
O71 P3 1.642347 1_555
