# generated using pymatgen
data_Na2CoGeO4
_symmetry_space_group_name_H-M   'P 1'
_cell_length_a   6.25639500
_cell_length_b   8.47180649
_cell_length_c   8.47170594
_cell_angle_alpha   80.30135640
_cell_angle_beta   89.99988176
_cell_angle_gamma   89.99933316
_symmetry_Int_Tables_number   1
_chemical_formula_structural   Na2CoGeO4
_chemical_formula_sum   'Na8 Co4 Ge4 O16'
_cell_volume   442.60784024
_cell_formula_units_Z   4
loop_
 _symmetry_equiv_pos_site_id
 _symmetry_equiv_pos_as_xyz
  1  'x, y, z'
loop_
 _atom_site_type_symbol
 _atom_site_label
 _atom_site_symmetry_multiplicity
 _atom_site_fract_x
 _atom_site_fract_y
 _atom_site_fract_z
 _atom_site_occupancy
  Na  Na0  1  0.33448500  0.86999800  0.37909500  1
  Na  Na1  1  0.33448500  0.36999700  0.87909600  1
  Na  Na2  1  0.33449200  0.12090300  0.62999600  1
  Na  Na3  1  0.33449200  0.62090200  0.12999600  1
  Na  Na4  1  0.66551100  0.37000800  0.37909300  1
  Na  Na5  1  0.66551100  0.87000800  0.87909400  1
  Na  Na6  1  0.66550600  0.12090300  0.13000100  1
  Na  Na7  1  0.66550700  0.62090400  0.63000100  1
  Co  Co0  1  0.14822500  0.99840700  0.00158200  1
  Co  Co1  1  0.85177200  0.49841700  0.00157400  1
  Co  Co2  1  0.14822800  0.49841100  0.50158000  1
  Co  Co3  1  0.85177200  0.99841800  0.50157500  1
  Ge  Ge0  1  0.84801000  0.75017400  0.24983100  1
  Ge  Ge1  1  0.84801400  0.25017500  0.74982900  1
  Ge  Ge2  1  0.15198800  0.75017600  0.74982500  1
  Ge  Ge3  1  0.15199100  0.25017600  0.24982600  1
  O  O0  1  0.12697800  0.91243700  0.58755500  1
  O  O1  1  0.12698100  0.41243900  0.08755500  1
  O  O2  1  0.87302700  0.91243700  0.08755700  1
  O  O3  1  0.87302300  0.41243700  0.58755700  1
  O  O4  1  0.10386400  0.17958100  0.82043100  1
  O  O5  1  0.10387000  0.67957700  0.32043300  1
  O  O6  1  0.89613200  0.17958400  0.32042900  1
  O  O7  1  0.89613200  0.67958600  0.82042900  1
  O  O8  1  0.69925800  0.09495400  0.67648600  1
  O  O9  1  0.69925600  0.59495600  0.17648600  1
  O  O10  1  0.30074500  0.09495300  0.17648800  1
  O  O11  1  0.30074300  0.59495100  0.67648800  1
  O  O12  1  0.30075900  0.32353200  0.40502600  1
  O  O13  1  0.30075900  0.82353300  0.90502800  1
  O  O14  1  0.69924200  0.82353400  0.40502700  1
  O  O15  1  0.69924200  0.32353300  0.90503000  1
loop_
_geom_bond_atom_site_label_1
_geom_bond_atom_site_label_2
_geom_bond_distance
_geom_bond_site_symmetry_2
Na0 O0 2.268792 1_555
Na0 O5 2.280642 1_555
Na0 O14 2.319886 1_555
Na0 O10 2.349576 1_565
Na1 O1 2.268782 1_556
Na1 O4 2.280643 1_555
Na1 O15 2.319887 1_555
Na1 O11 2.349576 1_555
Na2 O0 2.268895 1_545
Na2 O4 2.280797 1_555
Na2 O8 2.319986 1_555
Na2 O12 2.349767 1_555
Na3 O1 2.268864 1_555
Na3 O5 2.280777 1_555
Na3 O9 2.319972 1_555
Na3 O13 2.349765 1_554
Na4 O3 2.268822 1_555
Na4 O6 2.280665 1_555
Na4 O12 2.319879 1_555
Na4 O9 2.349541 1_555
Na5 O2 2.268829 1_556
Na5 O7 2.280655 1_555
Na5 O13 2.319879 1_555
Na5 O8 2.349535 1_565
Na6 O2 2.268903 1_545
Na6 O6 2.280765 1_555
Na6 O10 2.319956 1_555
Na6 O15 2.349782 1_554
Na7 O3 2.268892 1_555
Na7 O7 2.280764 1_555
Na7 O11 2.319976 1_555
Na7 O14 2.349799 1_555
Co0 O2 1.961289 1_455
Co0 O4 1.998595 1_564
Co0 O13 2.045216 1_554
Co0 O10 2.045360 1_565
Co1 O1 1.961374 1_655
Co1 O7 1.998538 1_554
Co1 O15 2.045244 1_554
Co1 O9 2.045346 1_555
Co2 O3 1.961344 1_455
Co2 O5 1.998527 1_555
Co2 O12 2.045240 1_555
Co2 O11 2.045332 1_555
Co3 O0 1.961363 1_655
Co3 O6 1.998527 1_565
Co3 O14 2.045262 1_555
Co3 O8 2.045320 1_565
Ge0 O5 1.776891 1_655
Ge0 O2 1.779709 1_555
Ge0 O14 1.804572 1_555
Ge0 O9 1.804636 1_555
Ge1 O4 1.776827 1_655
Ge1 O3 1.779688 1_555
Ge1 O15 1.804610 1_555
Ge1 O8 1.804655 1_555
Ge2 O7 1.776867 1_455
Ge2 O0 1.779670 1_555
Ge2 O13 1.804626 1_555
Ge2 O11 1.804637 1_555
Ge3 O6 1.776886 1_455
Ge3 O1 1.779686 1_555
Ge3 O12 1.804593 1_555
Ge3 O10 1.804625 1_555
