# generated using pymatgen
data_Sr2MgCuWO6
_symmetry_space_group_name_H-M   'P 1'
_cell_length_a   5.86215186
_cell_length_b   6.15117754
_cell_length_c   6.26231797
_cell_angle_alpha   122.14383418
_cell_angle_beta   109.80886088
_cell_angle_gamma   100.21104750
_symmetry_Int_Tables_number   1
_chemical_formula_structural   Sr2MgCuWO6
_chemical_formula_sum   'Sr2 Mg1 Cu1 W1 O6'
_cell_volume   160.74586526
_cell_formula_units_Z   1
loop_
 _symmetry_equiv_pos_site_id
 _symmetry_equiv_pos_as_xyz
  1  'x, y, z'
loop_
 _atom_site_type_symbol
 _atom_site_label
 _atom_site_symmetry_multiplicity
 _atom_site_fract_x
 _atom_site_fract_y
 _atom_site_fract_z
 _atom_site_occupancy
  Sr  Sr0  1  0.80897528  0.30974411  0.57904275  1
  Sr  Sr1  1  0.17235069  0.75602514  0.36641235  1
  Mg  Mg0  1  0.44885214  0.72079308  0.86141608  1
  Cu  Cu0  1  0.48777831  0.29417104  0.99135577  1
  W  W0  1  0.02235933  0.03949255  0.01112178  1
  O  O0  1  0.18448123  0.34754142  0.97836705  1
  O  O1  1  0.80970601  0.74012278  0.01768507  1
  O  O2  1  0.65335344  0.05852320  0.86502304  1
  O  O3  1  0.34909440  0.95397740  0.15103562  1
  O  O4  1  0.17069914  0.36647035  0.43772391  1
  O  O5  1  0.91616002  0.74647193  0.61581658  1
loop_
_geom_bond_atom_site_label_1
_geom_bond_atom_site_label_2
_geom_bond_distance
_geom_bond_site_symmetry_2
Mg0 O1 1.957189 1_556
Mg0 O3 1.984158 1_556
Mg0 O4 2.025630 1_555
Mg0 O2 2.191379 1_565
Cu0 O0 1.847410 1_555
Cu0 O2 1.862289 1_555
O0 W0 2.107851 1_556
O0 Sr1 2.430415 1_556
O0 Sr0 2.573344 1_455
O1 W0 2.061096 1_665
O1 Sr1 2.418773 1_655
O1 Sr0 2.608422 1_554
O2 W0 2.095814 1_656
O2 Sr1 2.674478 1_545
O2 Sr0 3.159100 1_555
O3 W0 2.103151 1_565
O3 Sr0 2.451591 1_565
O3 Sr1 2.573460 1_555
O4 W0 2.006556 1_555
O4 Sr0 2.596062 1_455
O4 Sr1 2.659846 1_555
O5 W0 1.890562 1_666
O5 Sr0 2.511911 1_555
O5 Sr1 2.520808 1_655
