# generated using pymatgen
data_NiP2
_symmetry_space_group_name_H-M   'P 1'
_cell_length_a   5.43807493
_cell_length_b   5.43807493
_cell_length_c   5.43807493
_cell_angle_alpha   90.00000000
_cell_angle_beta   90.00000000
_cell_angle_gamma   90.00000000
_symmetry_Int_Tables_number   1
_chemical_formula_structural   NiP2
_chemical_formula_sum   'Ni4 P8'
_cell_volume   160.81833522
_cell_formula_units_Z   4
loop_
 _symmetry_equiv_pos_site_id
 _symmetry_equiv_pos_as_xyz
  1  'x, y, z'
loop_
 _atom_site_type_symbol
 _atom_site_label
 _atom_site_symmetry_multiplicity
 _atom_site_fract_x
 _atom_site_fract_y
 _atom_site_fract_z
 _atom_site_occupancy
  Ni  Ni0  1  -0.00000000  0.50000000  0.50000000  1
  Ni  Ni1  1  0.50000000  0.50000000  -0.00000000  1
  Ni  Ni2  1  0.50000000  0.00000000  0.50000000  1
  Ni  Ni3  1  -0.00000000  0.00000000  -0.00000000  1
  P  P0  1  0.38472370  0.11527630  0.88472470  1
  P  P1  1  0.11527630  0.88472470  0.38472370  1
  P  P2  1  0.88472470  0.38472370  0.11527630  1
  P  P3  1  0.61527530  0.61527530  0.61527530  1
  P  P4  1  0.38472370  0.38472370  0.38472370  1
  P  P5  1  0.11527630  0.61527530  0.88472470  1
  P  P6  1  0.88472470  0.11527630  0.61527530  1
  P  P7  1  0.61527530  0.88472470  0.11527630  1
loop_
_geom_bond_atom_site_label_1
_geom_bond_atom_site_label_2
_geom_bond_distance
_geom_bond_site_symmetry_2
Ni0 P6 2.272238 1_455
Ni0 P2 2.272239 1_455
Ni0 P4 2.272241 1_555
Ni0 P3 2.272243 1_455
Ni0 P5 2.272244 1_555
Ni0 P1 2.272246 1_555
Ni1 P5 2.272238 1_554
Ni1 P0 2.272239 1_554
Ni1 P4 2.272241 1_555
Ni1 P3 2.272243 1_554
Ni1 P7 2.272244 1_555
Ni1 P2 2.272246 1_555
Ni2 P7 2.272238 1_545
Ni2 P1 2.272239 1_545
Ni2 P4 2.272241 1_555
Ni2 P3 2.272243 1_545
Ni2 P6 2.272244 1_555
Ni2 P0 2.272246 1_555
Ni3 P2 2.272239 1_455
Ni3 P0 2.272239 1_554
Ni3 P1 2.272239 1_545
Ni3 P5 2.272244 1_544
Ni3 P6 2.272244 1_454
Ni3 P7 2.272244 1_445
P0 P7 2.171571 1_546
P1 P6 2.171571 1_465
P2 P5 2.171571 1_654
P3 P4 2.171571 1_555
