# generated using pymatgen
data_Cs4Cu(SbCl6)2
_symmetry_space_group_name_H-M   'P 1'
_cell_length_a   13.57881535
_cell_length_b   7.42429600
_cell_length_c   13.55906369
_cell_angle_alpha   90.00000000
_cell_angle_beta   113.74683352
_cell_angle_gamma   90.00000000
_symmetry_Int_Tables_number   1
_chemical_formula_structural   Cs4Cu(SbCl6)2
_chemical_formula_sum   'Cs8 Cu2 Sb4 Cl24'
_cell_volume   1251.19883390
_cell_formula_units_Z   2
loop_
 _symmetry_equiv_pos_site_id
 _symmetry_equiv_pos_as_xyz
  1  'x, y, z'
loop_
 _atom_site_type_symbol
 _atom_site_label
 _atom_site_symmetry_multiplicity
 _atom_site_fract_x
 _atom_site_fract_y
 _atom_site_fract_z
 _atom_site_occupancy
  Cs  Cs0  1  0.62402200  0.00000000  0.87262500  1
  Cs  Cs1  1  0.37597800  0.00000000  0.12737500  1
  Cs  Cs2  1  0.12402200  0.50000000  0.87262500  1
  Cs  Cs3  1  0.87597800  0.50000000  0.12737500  1
  Cs  Cs4  1  0.37404600  0.50000000  0.62261800  1
  Cs  Cs5  1  0.62595400  0.50000000  0.37738200  1
  Cs  Cs6  1  0.87404600  0.00000000  0.62261800  1
  Cs  Cs7  1  0.12595400  0.00000000  0.37738200  1
  Cu  Cu0  1  0.50000000  0.00000000  0.50000000  1
  Cu  Cu1  1  0.00000000  0.50000000  0.50000000  1
  Sb  Sb0  1  0.24589400  0.00000000  0.74912000  1
  Sb  Sb1  1  0.75410600  0.00000000  0.25088000  1
  Sb  Sb2  1  0.74589400  0.50000000  0.74912000  1
  Sb  Sb3  1  0.25410600  0.50000000  0.25088000  1
  Cl  Cl0  1  0.61080600  0.22307100  0.61104400  1
  Cl  Cl1  1  0.38919400  0.22307100  0.38895600  1
  Cl  Cl2  1  0.11080600  0.72307100  0.61104400  1
  Cl  Cl3  1  0.88919400  0.72307100  0.38895600  1
  Cl  Cl4  1  0.38919400  0.77692900  0.38895600  1
  Cl  Cl5  1  0.61080600  0.77692900  0.61104400  1
  Cl  Cl6  1  0.88919400  0.27692900  0.38895600  1
  Cl  Cl7  1  0.11080600  0.27692900  0.61104400  1
  Cl  Cl8  1  0.36623000  0.00000000  0.63573200  1
  Cl  Cl9  1  0.63377000  0.00000000  0.36426800  1
  Cl  Cl10  1  0.86623000  0.50000000  0.63573200  1
  Cl  Cl11  1  0.13377000  0.50000000  0.36426800  1
  Cl  Cl12  1  0.36414000  0.23721000  0.86680000  1
  Cl  Cl13  1  0.63586000  0.23721000  0.13320000  1
  Cl  Cl14  1  0.86414000  0.73721000  0.86680000  1
  Cl  Cl15  1  0.13586000  0.73721000  0.13320000  1
  Cl  Cl16  1  0.63586000  0.76279000  0.13320000  1
  Cl  Cl17  1  0.36414000  0.76279000  0.86680000  1
  Cl  Cl18  1  0.13586000  0.26279000  0.13320000  1
  Cl  Cl19  1  0.86414000  0.26279000  0.86680000  1
  Cl  Cl20  1  0.13359800  0.00000000  0.86613100  1
  Cl  Cl21  1  0.86640200  0.00000000  0.13386900  1
  Cl  Cl22  1  0.63359800  0.50000000  0.86613100  1
  Cl  Cl23  1  0.36640200  0.50000000  0.13386900  1
loop_
_geom_bond_atom_site_label_1
_geom_bond_atom_site_label_2
_geom_bond_distance
_geom_bond_site_symmetry_2
Cl0 Cu0 2.334334 1_555
Cl0 Sb2 2.886366 1_555
Cl0 Cs5 3.851240 1_555
Cl0 Cs0 3.852549 1_555
Cl0 Cs4 3.872187 1_555
Cl0 Cs6 3.884922 1_555
Cl1 Cu0 2.334334 1_555
Cl1 Sb3 2.886366 1_555
Cl1 Cs4 3.851240 1_555
Cl1 Cs1 3.852549 1_555
Cl1 Cs5 3.872187 1_555
Cl1 Cs7 3.884922 1_555
Cl2 Cu1 2.334334 1_555
Cl2 Sb0 2.886366 1_565
Cl2 Cs7 3.851240 1_565
Cl2 Cs2 3.852549 1_555
Cl2 Cs6 3.872187 1_465
Cl2 Cs4 3.884922 1_555
Cl3 Cu1 2.334334 1_655
Cl3 Sb1 2.886366 1_565
Cl3 Cs6 3.851240 1_565
Cl3 Cs3 3.852549 1_555
Cl3 Cs7 3.872187 1_665
Cl3 Cs5 3.884922 1_555
Cl4 Cu0 2.334334 1_565
Cl4 Sb3 2.886366 1_555
Cl4 Cs4 3.851240 1_555
Cl4 Cs1 3.852549 1_565
Cl4 Cs5 3.872187 1_555
Cl4 Cs7 3.884922 1_565
Cl5 Cu0 2.334334 1_565
Cl5 Sb2 2.886366 1_555
Cl5 Cs5 3.851240 1_555
Cl5 Cs0 3.852549 1_565
Cl5 Cs4 3.872187 1_555
Cl5 Cs6 3.884922 1_565
Cl6 Cu1 2.334334 1_655
Cl6 Sb1 2.886366 1_555
Cl6 Cs6 3.851240 1_555
Cl6 Cs3 3.852549 1_555
Cl6 Cs7 3.872187 1_655
Cl6 Cs5 3.884922 1_555
Cl7 Cu1 2.334334 1_555
Cl7 Sb0 2.886366 1_555
Cl7 Cs7 3.851240 1_555
Cl7 Cs2 3.852549 1_555
Cl7 Cs6 3.872187 1_455
Cl7 Cs4 3.884922 1_555
Cl8 Sb0 2.656508 1_555
Cl8 Cu0 3.062502 1_555
Cl8 Cs0 3.676295 1_555
Cl8 Cs7 3.702836 1_555
Cl8 Cs4 3.719963 1_555
Cl8 Cs4 3.719963 1_545
Cl9 Sb1 2.656508 1_555
Cl9 Cu0 3.062502 1_555
Cl9 Cs1 3.676295 1_555
Cl9 Cs6 3.702836 1_555
Cl9 Cs5 3.719963 1_555
Cl9 Cs5 3.719963 1_545
Cl10 Sb2 2.656508 1_555
Cl10 Cu1 3.062502 1_655
Cl10 Cs2 3.676295 1_655
Cl10 Cs5 3.702836 1_555
Cl10 Cs6 3.719963 1_555
Cl10 Cs6 3.719963 1_565
Cl11 Sb3 2.656508 1_555
Cl11 Cu1 3.062502 1_555
Cl11 Cs3 3.676295 1_455
Cl11 Cs4 3.702836 1_555
Cl11 Cs7 3.719963 1_555
Cl11 Cs7 3.719963 1_565
Cl12 Sb0 2.482384 1_555
Cl12 Cs2 3.827681 1_555
Cl12 Cs4 3.891686 1_555
Cl12 Cs1 3.892702 1_556
Cl12 Cs0 3.916166 1_555
Cl13 Sb1 2.482384 1_555
Cl13 Cs3 3.827681 1_555
Cl13 Cs5 3.891686 1_555
Cl13 Cs0 3.892702 1_554
Cl13 Cs1 3.916166 1_555
Cl14 Sb2 2.482384 1_555
Cl14 Cs0 3.827681 1_565
Cl14 Cs6 3.891686 1_565
Cl14 Cs3 3.892702 1_556
Cl14 Cs2 3.916166 1_655
Cl15 Sb3 2.482384 1_555
Cl15 Cs1 3.827681 1_565
Cl15 Cs7 3.891686 1_565
Cl15 Cs2 3.892702 1_554
Cl15 Cs3 3.916166 1_455
Cl16 Sb1 2.482384 1_565
Cl16 Cs3 3.827681 1_555
Cl16 Cs5 3.891686 1_555
Cl16 Cs0 3.892702 1_564
Cl16 Cs1 3.916166 1_565
Cl17 Sb0 2.482384 1_565
Cl17 Cs2 3.827681 1_555
Cl17 Cs4 3.891686 1_555
Cl17 Cs1 3.892702 1_566
Cl17 Cs0 3.916166 1_565
Cl18 Sb3 2.482384 1_555
Cl18 Cs1 3.827681 1_555
Cl18 Cs7 3.891686 1_555
Cl18 Cs2 3.892702 1_554
Cl18 Cs3 3.916166 1_455
Cl19 Sb2 2.482384 1_555
Cl19 Cs0 3.827681 1_555
Cl19 Cs6 3.891686 1_555
Cl19 Cs3 3.892702 1_556
Cl19 Cs2 3.916166 1_655
Cl20 Sb0 2.605913 1_555
Cl20 Cs2 3.716709 1_545
Cl20 Cs2 3.716709 1_555
Cl20 Cs6 3.735118 1_455
Cl20 Cs1 3.740331 1_556
Cl21 Sb1 2.605913 1_555
Cl21 Cs3 3.716709 1_545
Cl21 Cs3 3.716709 1_555
Cl21 Cs7 3.735118 1_655
Cl21 Cs0 3.740331 1_554
Cl22 Sb2 2.605913 1_555
Cl22 Cs0 3.716709 1_565
Cl22 Cs0 3.716709 1_555
Cl22 Cs4 3.735118 1_555
Cl22 Cs3 3.740331 1_556
Cl23 Sb3 2.605913 1_555
Cl23 Cs1 3.716709 1_565
Cl23 Cs1 3.716709 1_555
Cl23 Cs5 3.735118 1_555
Cl23 Cs2 3.740331 1_554
