# generated using pymatgen
data_LiVP2O7
_symmetry_space_group_name_H-M   'P 1'
_cell_length_a   5.06472200
_cell_length_b   8.46256800
_cell_length_c   13.49257732
_cell_angle_alpha   63.56613342
_cell_angle_beta   90.00000000
_cell_angle_gamma   90.00000000
_symmetry_Int_Tables_number   1
_chemical_formula_structural   LiVP2O7
_chemical_formula_sum   'Li4 V4 P8 O28'
_cell_volume   517.83744564
_cell_formula_units_Z   4
loop_
 _symmetry_equiv_pos_site_id
 _symmetry_equiv_pos_as_xyz
  1  'x, y, z'
loop_
 _atom_site_type_symbol
 _atom_site_label
 _atom_site_symmetry_multiplicity
 _atom_site_fract_x
 _atom_site_fract_y
 _atom_site_fract_z
 _atom_site_occupancy
  Li  Li0  1  0.23140700  0.59088600  0.79744000  1
  Li  Li1  1  0.73140700  0.40911400  0.70256000  1
  Li  Li2  1  0.26859300  0.59088600  0.29744000  1
  Li  Li3  1  0.76859300  0.40911400  0.20256000  1
  V  V0  1  0.26369100  0.73218600  0.53082600  1
  V  V1  1  0.76369100  0.26781400  0.96917400  1
  V  V2  1  0.23630900  0.73218600  0.03082600  1
  V  V3  1  0.73630900  0.26781400  0.46917400  1
  P  P0  1  0.74455600  0.82739800  0.64577600  1
  P  P1  1  0.26789000  0.30383100  0.11641400  1
  P  P2  1  0.24455600  0.17260200  0.85422400  1
  P  P3  1  0.23211000  0.30383100  0.61641400  1
  P  P4  1  0.76789000  0.69616900  0.38358600  1
  P  P5  1  0.75544400  0.82739800  0.14577600  1
  P  P6  1  0.73211000  0.69616900  0.88358600  1
  P  P7  1  0.25544400  0.17260200  0.35422400  1
  O  O0  1  0.46370000  0.75096100  0.65885100  1
  O  O1  1  0.94940200  0.69420600  0.64168100  1
  O  O2  1  0.84460900  0.52715700  0.88200900  1
  O  O3  1  0.56666300  0.31628700  0.09425600  1
  O  O4  1  0.20711900  0.15444100  0.24079700  1
  O  O5  1  0.11419600  0.24487200  0.04298100  1
  O  O6  1  0.21702800  0.98791700  0.44417000  1
  O  O7  1  0.34460900  0.47284300  0.61799100  1
  O  O8  1  0.44940200  0.30579400  0.85831900  1
  O  O9  1  0.96370000  0.24903900  0.84114900  1
  O  O10  1  0.71702800  0.01208300  0.05583000  1
  O  O11  1  0.93333700  0.31628700  0.59425600  1
  O  O12  1  0.61419600  0.75512800  0.45701900  1
  O  O13  1  0.70711900  0.84555900  0.25920300  1
  O  O14  1  0.29288100  0.15444100  0.74079700  1
  O  O15  1  0.38580400  0.24487200  0.54298100  1
  O  O16  1  0.06666300  0.68371300  0.40574400  1
  O  O17  1  0.28297200  0.98791700  0.94417000  1
  O  O18  1  0.03630000  0.75096100  0.15885100  1
  O  O19  1  0.55059800  0.69420600  0.14168100  1
  O  O20  1  0.65539100  0.52715700  0.38200900  1
  O  O21  1  0.78297200  0.01208300  0.55583000  1
  O  O22  1  0.88580400  0.75512800  0.95701900  1
  O  O23  1  0.79288100  0.84555900  0.75920300  1
  O  O24  1  0.43333700  0.68371300  0.90574400  1
  O  O25  1  0.15539100  0.47284300  0.11799100  1
  O  O26  1  0.05059800  0.30579400  0.35831900  1
  O  O27  1  0.53630000  0.24903900  0.34114900  1
loop_
_geom_bond_atom_site_label_1
_geom_bond_atom_site_label_2
_geom_bond_distance
_geom_bond_site_symmetry_2
Li0 O0 2.112001 1_555
Li0 O24 2.195560 1_555
Li0 O2 2.209693 1_455
Li0 O1 2.363291 1_455
Li0 O8 2.439262 1_555
Li1 O9 2.112001 1_555
Li1 O11 2.195560 1_555
Li1 O7 2.209693 1_555
Li1 O8 2.363291 1_555
Li1 O1 2.439262 1_555
Li2 O18 2.112001 1_555
Li2 O16 2.195560 1_555
Li2 O20 2.209693 1_555
Li2 O19 2.363291 1_555
Li2 O26 2.439262 1_555
Li3 O27 2.112001 1_555
Li3 O3 2.195560 1_555
Li3 O25 2.209693 1_655
Li3 O26 2.363291 1_655
Li3 O19 2.439262 1_555
O0 P0 1.539911 1_555
O0 V0 2.068723 1_555
O1 P0 1.550916 1_555
O1 V0 2.108613 1_655
O2 P6 1.548509 1_555
O2 V1 2.017372 1_555
O3 P1 1.536950 1_555
O3 V1 2.151439 1_554
O4 P1 1.618800 1_555
O4 P7 1.623308 1_555
O5 P1 1.508875 1_555
O5 V1 2.002158 1_454
O6 P7 1.504873 1_565
O6 V0 1.963054 1_555
O7 P3 1.548509 1_555
O7 V0 2.017372 1_555
O8 P2 1.550916 1_555
O8 V1 2.108613 1_555
O9 P2 1.539911 1_655
O9 V1 2.068723 1_555
O10 P5 1.504873 1_545
O10 V1 1.963054 1_554
O11 P3 1.536950 1_655
O11 V3 2.151439 1_555
O12 P4 1.508875 1_555
O12 V0 2.002158 1_555
O13 P4 1.618800 1_555
O13 P5 1.623308 1_555
O14 P3 1.618800 1_555
O14 P2 1.623308 1_555
O15 P3 1.508875 1_555
O15 V3 2.002158 1_555
O16 P4 1.536950 1_455
O16 V0 2.151439 1_555
O17 P2 1.504873 1_565
O17 V2 1.963054 1_556
O18 P5 1.539911 1_455
O18 V2 2.068723 1_555
O19 P5 1.550916 1_555
O19 V2 2.108613 1_555
O20 P4 1.548509 1_555
O20 V3 2.017372 1_555
O21 P0 1.504873 1_545
O21 V3 1.963054 1_555
O22 P6 1.508875 1_555
O22 V2 2.002158 1_656
O23 P6 1.618800 1_555
O23 P0 1.623308 1_555
O24 P6 1.536950 1_555
O24 V2 2.151439 1_556
O25 P1 1.548509 1_555
O25 V2 2.017372 1_555
O26 P7 1.550916 1_555
O26 V3 2.108613 1_455
O27 P7 1.539911 1_555
O27 V3 2.068723 1_555
