# generated using pymatgen
data_Sr2MgMnSbO6
_symmetry_space_group_name_H-M   'P 1'
_cell_length_a   6.18752845
_cell_length_b   5.99426369
_cell_length_c   5.73269217
_cell_angle_alpha   60.16820273
_cell_angle_beta   73.19273755
_cell_angle_gamma   98.51869467
_symmetry_Int_Tables_number   1
_chemical_formula_structural   Sr2MgMnSbO6
_chemical_formula_sum   'Sr2 Mg1 Mn1 Sb1 O6'
_cell_volume   165.29636748
_cell_formula_units_Z   1
loop_
 _symmetry_equiv_pos_site_id
 _symmetry_equiv_pos_as_xyz
  1  'x, y, z'
loop_
 _atom_site_type_symbol
 _atom_site_label
 _atom_site_symmetry_multiplicity
 _atom_site_fract_x
 _atom_site_fract_y
 _atom_site_fract_z
 _atom_site_occupancy
  Sr  Sr0  1  0.45135980  0.79846135  0.39628638  1
  Sr  Sr1  1  0.72283266  0.23611626  0.58395023  1
  Mg  Mg0  1  0.88827438  0.61850409  0.82799849  1
  Mn  Mn0  1  0.32365917  0.47621532  0.11381262  1
  Sb  Sb0  1  0.04436983  0.02352271  0.00253634  1
  O  O0  1  0.85857954  0.70966322  0.45713559  1
  O  O1  1  0.15565144  0.34454072  0.54404126  1
  O  O2  1  0.65127024  0.74461318  0.99584883  1
  O  O3  1  0.35007660  0.19120115  0.00683995  1
  O  O4  1  0.19719943  0.76584029  0.85036936  1
  O  O5  1  0.82101290  0.22227372  0.11701394  1
loop_
_geom_bond_atom_site_label_1
_geom_bond_atom_site_label_2
_geom_bond_distance
_geom_bond_site_symmetry_2
Mg0 O2 1.970768 1_555
Mg0 O0 1.988022 1_555
Mg0 O5 1.988139 1_556
Mg0 O4 2.050491 1_655
Mn0 O1 2.030770 1_555
Mn0 O2 2.076882 1_554
Mn0 O4 2.093891 1_554
Mn0 O3 2.094925 1_555
O0 Sb0 2.097945 1_665
O0 Sr1 2.485733 1_555
O0 Sr0 2.733993 1_555
O1 Sb0 2.148085 1_556
O1 Sr1 2.574669 1_455
O1 Sr0 2.608542 1_555
O2 Sr0 2.473321 1_556
O2 Sr1 2.557199 1_565
O3 Sb0 2.019227 1_555
O3 Sr0 2.633706 1_545
O3 Sr1 2.683732 1_554
O4 Sb0 2.310252 1_566
O4 Sr0 2.514489 1_555
O5 Sb0 2.121603 1_655
O5 Sr0 2.522463 1_545
O5 Sr1 2.614710 1_555
