# generated using pymatgen
data_MgV2H2O5
_symmetry_space_group_name_H-M   'P 1'
_cell_length_a   3.23590182
_cell_length_b   5.14000241
_cell_length_c   6.44155668
_cell_angle_alpha   92.04004759
_cell_angle_beta   103.97960295
_cell_angle_gamma   89.28064922
_symmetry_Int_Tables_number   1
_chemical_formula_structural   MgV2H2O5
_chemical_formula_sum   'Mg1 V2 H2 O5'
_cell_volume   103.89943113
_cell_formula_units_Z   1
loop_
 _symmetry_equiv_pos_site_id
 _symmetry_equiv_pos_as_xyz
  1  'x, y, z'
loop_
 _atom_site_type_symbol
 _atom_site_label
 _atom_site_symmetry_multiplicity
 _atom_site_fract_x
 _atom_site_fract_y
 _atom_site_fract_z
 _atom_site_occupancy
  Mg  Mg0  1  0.52530200  0.78182900  0.06062500  1
  V  V0  1  0.84985200  0.58114200  0.68278600  1
  V  V1  1  0.14259400  0.39230100  0.29724100  1
  H  H0  1  0.68058600  0.00907300  0.36146900  1
  H  H1  1  0.34997100  0.03304000  0.69131800  1
  O  O0  1  0.00523700  0.56289700  0.00922900  1
  O  O1  1  0.66930200  0.63414000  0.36729700  1
  O  O2  1  0.29774200  0.34399500  0.61119400  1
  O  O3  1  0.38089600  0.84984400  0.74411600  1
  O  O4  1  0.61935100  0.12424000  0.23722500  1
loop_
_geom_bond_atom_site_label_1
_geom_bond_atom_site_label_2
_geom_bond_distance
_geom_bond_site_symmetry_2
Mg0 O0 1.989938 1_555
Mg0 O0 1.991437 1_655
Mg0 O3 2.020808 1_554
Mg0 O4 2.046440 1_565
Mg0 O1 2.085406 1_555
H0 O4 0.992150 1_555
H1 O3 1.008135 1_545
H1 O2 1.690959 1_555
O0 V1 2.028794 1_555
O0 V0 2.045825 1_454
O1 V0 2.001826 1_555
O1 V1 2.072528 1_555
O1 V1 2.083406 1_655
O2 V1 1.986367 1_555
O2 V0 2.009372 1_455
O2 V0 2.122949 1_555
O3 V0 2.136484 1_555
O3 V0 2.170082 1_455
O4 V1 2.149205 1_655
O4 V1 2.150533 1_555
