# generated using pymatgen
data_MgBi(WO4)2
_symmetry_space_group_name_H-M   'P 1'
_cell_length_a   5.41422382
_cell_length_b   6.08361339
_cell_length_c   7.45436768
_cell_angle_alpha   125.70398137
_cell_angle_beta   113.45508694
_cell_angle_gamma   88.05490124
_symmetry_Int_Tables_number   1
_chemical_formula_structural   MgBi(WO4)2
_chemical_formula_sum   'Mg1 Bi1 W2 O8'
_cell_volume   176.30560385
_cell_formula_units_Z   1
loop_
 _symmetry_equiv_pos_site_id
 _symmetry_equiv_pos_as_xyz
  1  'x, y, z'
loop_
 _atom_site_type_symbol
 _atom_site_label
 _atom_site_symmetry_multiplicity
 _atom_site_fract_x
 _atom_site_fract_y
 _atom_site_fract_z
 _atom_site_occupancy
  Mg  Mg0  1  0.39660000  0.65110000  0.67731700  1
  Bi  Bi0  1  0.10803900  0.18671400  0.04617500  1
  W  W0  1  0.85715900  0.36667800  0.59651600  1
  W  W1  1  0.37885500  0.06585300  0.58395600  1
  O  O0  1  0.12822000  0.74535100  0.81739800  1
  O  O1  1  0.58838800  0.39909500  0.37263900  1
  O  O2  1  0.14952400  0.24340200  0.78137800  1
  O  O3  1  0.58422000  0.98091400  0.41183800  1
  O  O4  1  0.61975500  0.03766200  0.83725200  1
  O  O5  1  0.17169700  0.70650500  0.39716000  1
  O  O6  1  0.12861300  0.22760900  0.42982200  1
  O  O7  1  0.66059100  0.46974900  0.80257100  1
loop_
_geom_bond_atom_site_label_1
_geom_bond_atom_site_label_2
_geom_bond_distance
_geom_bond_site_symmetry_2
Mg0 O0 1.995756 1_555
Mg0 O7 2.040790 1_555
Mg0 O4 2.045805 1_565
Mg0 O6 2.172901 1_555
Mg0 O5 2.174192 1_555
Mg0 O1 2.508409 1_555
Bi0 O0 2.216678 1_544
Bi0 O2 2.284378 1_554
Bi0 O4 2.339570 1_454
Bi0 O1 2.423885 1_555
Bi0 O5 2.581294 1_555
Bi0 O6 2.677844 1_555
O0 W0 2.012582 1_455
O1 W0 1.836570 1_555
O2 W0 2.087172 1_455
O2 W1 2.093414 1_555
O3 W1 1.863411 1_565
O3 W0 2.105131 1_565
O4 W1 1.923032 1_555
O5 W1 1.829272 1_565
O6 W1 2.028333 1_555
O6 W0 2.135940 1_455
O7 W0 2.004250 1_555
O7 W1 2.149861 1_555
