# generated using pymatgen
data_Be2Nb
_symmetry_space_group_name_H-M   'P 1'
_cell_length_a   4.63071268
_cell_length_b   4.63071191
_cell_length_c   4.63071222
_cell_angle_alpha   60.00000507
_cell_angle_beta   60.00001060
_cell_angle_gamma   60.00000154
_symmetry_Int_Tables_number   1
_chemical_formula_structural   Be2Nb
_chemical_formula_sum   'Be4 Nb2'
_cell_volume   70.21476549
_cell_formula_units_Z   2
loop_
 _symmetry_equiv_pos_site_id
 _symmetry_equiv_pos_as_xyz
  1  'x, y, z'
loop_
 _atom_site_type_symbol
 _atom_site_label
 _atom_site_symmetry_multiplicity
 _atom_site_fract_x
 _atom_site_fract_y
 _atom_site_fract_z
 _atom_site_occupancy
  Be  Be0  1  0.50000000  0.50000000  0.50000000  1
  Be  Be1  1  0.50000000  0.50000000  -0.00000000  1
  Be  Be2  1  0.00000000  0.50000000  0.50000000  1
  Be  Be3  1  0.50000000  0.00000000  0.50000000  1
  Nb  Nb0  1  0.87500000  0.87500000  0.87500000  1
  Nb  Nb1  1  0.12500000  0.12500000  0.12500000  1
loop_
_geom_bond_atom_site_label_1
_geom_bond_atom_site_label_2
_geom_bond_distance
_geom_bond_site_symmetry_2
Be0 Be3 2.315356 1_565
Be0 Be3 2.315356 1_555
Be0 Be1 2.315356 1_555
Be0 Be1 2.315356 1_556
Be0 Be2 2.315356 1_555
Be0 Be2 2.315356 1_655
Be0 Nb1 2.714996 1_565
Be0 Nb0 2.714996 1_545
Be0 Nb1 2.714996 1_655
Be0 Nb0 2.714996 1_455
Be0 Nb0 2.714996 1_554
Be0 Nb1 2.714996 1_556
Be1 Be3 2.315356 1_555
Be1 Be3 2.315356 1_564
Be1 Be2 2.315357 1_555
Be1 Be2 2.315357 1_654
Be1 Nb0 2.714996 1_544
Be1 Nb1 2.714996 1_565
Be1 Nb0 2.714996 1_554
Be1 Nb1 2.714996 1_555
Be1 Nb1 2.714996 1_655
Be1 Nb0 2.714996 1_454
Be2 Be3 2.315356 1_555
Be2 Be3 2.315356 1_465
Be2 Nb1 2.714996 1_555
Be2 Nb0 2.714996 1_455
Be2 Nb0 2.714996 1_445
Be2 Nb1 2.714996 1_565
Be2 Nb1 2.714996 1_556
Be2 Nb0 2.714996 1_454
Be3 Nb0 2.714996 1_545
Be3 Nb1 2.714996 1_555
Be3 Nb1 2.714996 1_556
Be3 Nb0 2.714996 1_544
Be3 Nb1 2.714996 1_655
Be3 Nb0 2.714996 1_445
Nb0 Nb1 2.835720 1_656
Nb0 Nb1 2.835720 1_666
Nb0 Nb1 2.835721 1_665
Nb0 Nb1 2.835721 1_566
