# generated using pymatgen
data_LiP5
_symmetry_space_group_name_H-M   'P 1'
_cell_length_a   6.57382759
_cell_length_b   6.66867239
_cell_length_c   10.49347051
_cell_angle_alpha   90.00000000
_cell_angle_beta   90.00000000
_cell_angle_gamma   90.00000000
_symmetry_Int_Tables_number   1
_chemical_formula_structural   LiP5
_chemical_formula_sum   'Li4 P20'
_cell_volume   460.02013236
_cell_formula_units_Z   4
loop_
 _symmetry_equiv_pos_site_id
 _symmetry_equiv_pos_as_xyz
  1  'x, y, z'
loop_
 _atom_site_type_symbol
 _atom_site_label
 _atom_site_symmetry_multiplicity
 _atom_site_fract_x
 _atom_site_fract_y
 _atom_site_fract_z
 _atom_site_occupancy
  Li  Li0  1  0.05593617  0.45555443  0.07784698  1
  Li  Li1  1  0.55593617  0.54444557  0.92215302  1
  Li  Li2  1  0.05593617  0.04444557  0.57784698  1
  Li  Li3  1  0.55593617  0.95555443  0.42215302  1
  P  P0  1  0.42585107  0.91666407  0.08490768  1
  P  P1  1  0.92585107  0.08333593  0.91509232  1
  P  P2  1  0.42585107  0.58333593  0.58490768  1
  P  P3  1  0.92585107  0.41666407  0.41509232  1
  P  P4  1  0.90939854  0.90371111  0.09271368  1
  P  P5  1  0.40939854  0.09628889  0.90728632  1
  P  P6  1  0.90939854  0.59628889  0.59271368  1
  P  P7  1  0.40939854  0.40371111  0.40728632  1
  P  P8  1  0.16720346  0.92207457  0.80824528  1
  P  P9  1  0.66720346  0.07792543  0.19175472  1
  P  P10  1  0.16720346  0.57792543  0.30824528  1
  P  P11  1  0.66720346  0.42207457  0.69175472  1
  P  P12  1  0.16722104  0.44748534  0.69107643  1
  P  P13  1  0.66722104  0.55251466  0.30892257  1
  P  P14  1  0.16722104  0.05251466  0.19107643  1
  P  P15  1  0.66722104  0.94748534  0.80892357  1
  P  P16  1  0.18338871  0.61097969  0.86930057  1
  P  P17  1  0.68338871  0.38902031  0.13069943  1
  P  P18  1  0.18338871  0.88902031  0.36930057  1
  P  P19  1  0.68338871  0.11097969  0.63069943  1
loop_
_geom_bond_atom_site_label_1
_geom_bond_atom_site_label_2
_geom_bond_distance
_geom_bond_site_symmetry_2
Li0 P17 2.549973 1_455
Li0 P16 2.562279 1_554
Li0 P10 2.654455 1_555
Li0 P14 3.028347 1_555
Li0 P1 3.131999 1_454
Li1 P16 2.549973 1_555
Li1 P17 2.562279 1_556
Li1 P11 2.654455 1_555
Li1 P15 3.028347 1_555
Li1 P0 3.131999 1_556
Li2 P19 2.549973 1_455
Li2 P18 2.562279 1_545
Li2 P8 2.654455 1_545
Li2 P12 3.028347 1_555
Li2 P3 3.131999 1_455
Li3 P18 2.549973 1_555
Li3 P19 2.562279 1_565
Li3 P9 2.654455 1_565
Li3 P13 3.028351 1_555
Li3 P2 3.131999 1_555
P0 P5 2.218232 1_564
P0 P9 2.220561 1_565
P0 P14 2.225432 1_565
P1 P4 2.218232 1_546
P1 P8 2.220561 1_645
P1 P15 2.225432 1_545
P2 P7 2.218232 1_555
P3 P6 2.218232 1_555
P4 P9 2.228178 1_565
P5 P8 2.228178 1_545
P10 P18 2.173871 1_555
P10 P3 2.220561 1_455
P10 P7 2.228178 1_555
P11 P19 2.173871 1_555
P11 P2 2.220561 1_555
P11 P6 2.228178 1_555
P12 P16 2.167404 1_555
P12 P6 2.218714 1_455
P12 P2 2.225432 1_555
P13 P17 2.167395 1_555
P13 P7 2.218719 1_555
P13 P3 2.225437 1_555
P14 P18 2.167404 1_545
P14 P4 2.218714 1_445
P15 P19 2.167404 1_565
P15 P5 2.218714 1_565
P16 P8 2.173871 1_555
P17 P9 2.173871 1_555
