# generated using pymatgen
data_Na3ScTiSi(PO6)2
_symmetry_space_group_name_H-M   'P 1'
_cell_length_a   15.52764471
_cell_length_b   9.00890761
_cell_length_c   8.95469027
_cell_angle_alpha   90.00000000
_cell_angle_beta   125.21914648
_cell_angle_gamma   90.00000000
_symmetry_Int_Tables_number   1
_chemical_formula_structural   Na3ScTiSi(PO6)2
_chemical_formula_sum   'Na12 Sc4 Ti4 Si4 P8 O48'
_cell_volume   1023.35177747
_cell_formula_units_Z   4
loop_
 _symmetry_equiv_pos_site_id
 _symmetry_equiv_pos_as_xyz
  1  'x, y, z'
loop_
 _atom_site_type_symbol
 _atom_site_label
 _atom_site_symmetry_multiplicity
 _atom_site_fract_x
 _atom_site_fract_y
 _atom_site_fract_z
 _atom_site_occupancy
  Na  Na0  1  0.25341911  0.72759127  -0.00005618  1
  Na  Na1  1  0.75341911  0.77240873  0.49994382  1
  Na  Na2  1  0.75341911  0.22759127  -0.00005618  1
  Na  Na3  1  0.25341911  0.27240873  0.49994382  1
  Na  Na4  1  0.50271543  0.10301664  0.75253213  1
  Na  Na5  1  0.50271543  0.89698336  0.25253213  1
  Na  Na6  1  0.00271543  0.60301664  0.75253213  1
  Na  Na7  1  0.00271543  0.39698336  0.25253213  1
  Na  Na8  1  0.18990114  0.93350036  0.29478586  1
  Na  Na9  1  0.18990114  0.06649964  0.79478586  1
  Na  Na10  1  0.68990114  0.43350036  0.29478586  1
  Na  Na11  1  0.68990114  0.56649964  0.79478586  1
  Sc  Sc0  1  0.10571205  0.74389408  0.56459305  1
  Sc  Sc1  1  0.10571205  0.25610592  0.06459305  1
  Sc  Sc2  1  0.60571205  0.24389408  0.56459305  1
  Sc  Sc3  1  0.60571205  0.75610592  0.06459305  1
  Ti  Ti0  1  0.89729532  0.75880145  0.93942923  1
  Ti  Ti1  1  0.89729532  0.24119855  0.43942923  1
  Ti  Ti2  1  0.39729532  0.25880145  0.93942923  1
  Ti  Ti3  1  0.39729532  0.74119855  0.43942923  1
  Si  Si0  1  0.64810957  0.89110430  0.74558687  1
  Si  Si1  1  0.64810957  0.10889570  0.24558687  1
  Si  Si2  1  0.14810957  0.39110430  0.74558687  1
  Si  Si3  1  0.14810957  0.60889570  0.24558687  1
  P  P0  1  0.99581608  0.95896518  0.75447700  1
  P  P1  1  0.99581608  0.04103482  0.25447700  1
  P  P2  1  0.49581608  0.45896518  0.75447700  1
  P  P3  1  0.49581608  0.54103482  0.25447700  1
  P  P4  1  0.35357469  0.90244388  0.75376478  1
  P  P5  1  0.35357469  0.09755612  0.25376478  1
  P  P6  1  0.85357469  0.40244388  0.75376478  1
  P  P7  1  0.85357469  0.59755612  0.25376478  1
  O  O0  1  0.15305990  0.57067177  0.74619862  1
  O  O1  1  0.85012219  0.57670440  0.75224695  1
  O  O2  1  0.85012219  0.42329560  0.25224695  1
  O  O3  1  0.15305990  0.42932823  0.24619862  1
  O  O4  1  0.65305990  0.07067177  0.74619862  1
  O  O5  1  0.35012219  0.07670440  0.75224695  1
  O  O6  1  0.35012219  0.92329560  0.25224695  1
  O  O7  1  0.65305990  0.92932823  0.24619862  1
  O  O8  1  0.43278180  0.56728035  0.58510789  1
  O  O9  1  0.56230326  0.54801637  0.92969614  1
  O  O10  1  0.56230326  0.45198363  0.42969614  1
  O  O11  1  0.43278180  0.43271965  0.08510789  1
  O  O12  1  0.93278180  0.06728035  0.58510789  1
  O  O13  1  0.06230326  0.04801637  0.92969614  1
  O  O14  1  0.06230326  0.95198363  0.42969614  1
  O  O15  1  0.93278180  0.93271965  0.08510789  1
  O  O16  1  0.25676848  0.84828435  0.74518446  1
  O  O17  1  0.74671469  0.80637512  0.75944737  1
  O  O18  1  0.74671469  0.19362488  0.25944737  1
  O  O19  1  0.25676848  0.15171565  0.24518446  1
  O  O20  1  0.75676848  0.34828435  0.74518446  1
  O  O21  1  0.24671469  0.30637512  0.75944737  1
  O  O22  1  0.24671469  0.69362488  0.25944737  1
  O  O23  1  0.75676848  0.65171565  0.24518446  1
  O  O24  1  0.35318022  0.85939617  0.58257501  1
  O  O25  1  0.64467472  0.84114959  0.91447789  1
  O  O26  1  0.64467472  0.15885041  0.41447789  1
  O  O27  1  0.35318022  0.14060383  0.08257501  1
  O  O28  1  0.85318022  0.35939617  0.58257501  1
  O  O29  1  0.14467472  0.34114959  0.91447789  1
  O  O30  1  0.14467472  0.65885041  0.41447789  1
  O  O31  1  0.85318022  0.64060383  0.08257501  1
  O  O32  1  0.45328817  0.84555454  0.93005155  1
  O  O33  1  0.53546757  0.82292958  0.55882990  1
  O  O34  1  0.53546757  0.17707042  0.05882990  1
  O  O35  1  0.45328817  0.15444546  0.43005155  1
  O  O36  1  0.95328817  0.34555454  0.93005155  1
  O  O37  1  0.03546757  0.32292958  0.55882990  1
  O  O38  1  0.03546757  0.67707042  0.05882990  1
  O  O39  1  0.95328817  0.65444546  0.43005155  1
  O  O40  1  0.07082850  0.85937748  0.73843223  1
  O  O41  1  0.91426712  0.85740652  0.75263924  1
  O  O42  1  0.91426712  0.14259348  0.25263924  1
  O  O43  1  0.07082850  0.14062252  0.23843223  1
  O  O44  1  0.57082850  0.35937748  0.73843223  1
  O  O45  1  0.41426712  0.35740652  0.75263924  1
  O  O46  1  0.41426712  0.64259348  0.25263924  1
  O  O47  1  0.57082850  0.64062252  0.23843223  1
loop_
_geom_bond_atom_site_label_1
_geom_bond_atom_site_label_2
_geom_bond_distance
_geom_bond_site_symmetry_2
Na0 O46 2.329385 1_555
Na0 O0 2.346434 1_554
Na0 O22 2.404875 1_555
Na0 O16 2.554621 1_554
Na0 O6 2.560206 1_555
Na0 O40 2.697008 1_554
Na1 O41 2.329385 1_555
Na1 O7 2.346434 1_555
Na1 O17 2.404875 1_555
Na1 O23 2.554621 1_555
Na1 O1 2.560206 1_555
Na1 O47 2.697008 1_555
Na2 O42 2.329385 1_555
Na2 O4 2.346434 1_554
Na2 O18 2.404875 1_555
Na2 O20 2.554621 1_554
Na2 O2 2.560206 1_555
Na2 O44 2.697008 1_554
Na3 O45 2.329385 1_555
Na3 O3 2.346434 1_555
Na3 O21 2.404875 1_555
Na3 O19 2.554621 1_555
Na3 O5 2.560206 1_555
Na3 O43 2.697008 1_555
Na4 O5 2.379777 1_555
Na4 O4 2.385520 1_555
Na4 O35 2.566379 1_555
Na4 O34 2.572508 1_556
Na4 O44 2.573420 1_555
Na4 O45 2.672071 1_555
Na4 O24 2.906653 1_545
Na4 O25 2.973287 1_545
Na5 O6 2.379777 1_555
Na5 O7 2.385520 1_555
Na5 O32 2.566379 1_554
Na5 O33 2.572508 1_555
Na5 O47 2.573420 1_555
Na5 O46 2.672071 1_555
Na5 O27 2.906653 1_565
Na5 O26 2.973287 1_565
Na6 O1 2.379777 1_455
Na6 O0 2.385520 1_555
Na6 O39 2.566379 1_455
Na6 O38 2.572508 1_556
Na6 O40 2.573420 1_555
Na6 O41 2.672071 1_455
Na6 O28 2.906653 1_455
Na6 O29 2.973287 1_555
Na7 O2 2.379777 1_455
Na7 O3 2.385520 1_555
Na7 O36 2.566379 1_454
Na7 O37 2.572508 1_555
Na7 O43 2.573420 1_555
Na7 O42 2.672071 1_455
Na7 O31 2.906653 1_455
Na7 O30 2.973287 1_555
Na8 O19 2.381585 1_565
Na8 O22 2.422882 1_555
Na8 O24 2.445161 1_555
Na8 O43 2.465511 1_565
Na8 O6 2.726911 1_555
Na9 O16 2.381585 1_545
Na9 O21 2.422882 1_555
Na9 O27 2.445161 1_556
Na9 O40 2.465511 1_545
Na9 O5 2.726911 1_555
Na10 O23 2.381585 1_555
Na10 O18 2.422882 1_555
Na10 O28 2.445161 1_555
Na10 O47 2.465511 1_555
Na10 O2 2.726911 1_555
Na11 O20 2.381585 1_555
Na11 O17 2.422882 1_555
Na11 O31 2.445161 1_556
Na11 O44 2.465511 1_555
Na11 O1 2.726911 1_555
O0 Si2 1.619391 1_555
O0 Sc0 2.059465 1_555
O1 P6 1.570603 1_555
O1 Ti0 2.149687 1_555
O2 P7 1.570603 1_555
O2 Ti1 2.149687 1_555
O3 Si3 1.619391 1_555
O3 Sc1 2.059465 1_555
O4 Si0 1.619391 1_545
O4 Sc2 2.059465 1_555
O5 P4 1.570603 1_545
O5 Ti2 2.149687 1_555
O6 P5 1.570603 1_565
O6 Ti3 2.149687 1_555
O7 Si1 1.619391 1_565
O7 Sc3 2.059465 1_555
O8 P2 1.580576 1_555
O8 Ti3 1.905566 1_555
O9 P2 1.517547 1_555
O9 Sc3 2.118661 1_556
O10 P3 1.517547 1_555
O10 Sc2 2.118661 1_555
O11 P3 1.580576 1_555
O11 Ti2 1.905566 1_554
O12 P0 1.580576 1_545
O12 Ti1 1.905566 1_555
O13 P0 1.517547 1_445
O13 Sc1 2.118661 1_556
O14 P1 1.517547 1_465
O14 Sc0 2.118661 1_555
O15 P1 1.580576 1_565
O15 Ti0 1.905566 1_554
O16 P4 1.539572 1_555
O16 Sc0 2.150860 1_555
O17 Si0 1.650198 1_555
O17 Ti0 1.975279 1_555
O18 Si1 1.650198 1_555
O18 Ti1 1.975279 1_555
O19 P5 1.539572 1_555
O19 Sc1 2.150860 1_555
O20 P6 1.539572 1_555
O20 Sc2 2.150860 1_555
O21 Si2 1.650198 1_555
O21 Ti2 1.975279 1_555
O22 Si3 1.650198 1_555
O22 Ti3 1.975279 1_555
O23 P7 1.539572 1_555
O23 Sc3 2.150860 1_555
O24 P4 1.577830 1_555
O24 Ti3 2.063718 1_555
O25 Si0 1.608001 1_555
O25 Sc3 1.923018 1_556
O26 Si1 1.608001 1_555
O26 Sc2 1.923018 1_555
O27 P5 1.577830 1_555
O27 Ti2 2.063718 1_554
O28 P6 1.577830 1_555
O28 Ti1 2.063718 1_555
O29 Si2 1.608001 1_555
O29 Sc1 1.923018 1_556
O30 Si3 1.608001 1_555
O30 Sc0 1.923018 1_555
O31 P7 1.577830 1_555
O31 Ti0 2.063718 1_554
O32 P4 1.527346 1_555
O32 Sc3 2.100865 1_556
O33 Si0 1.690981 1_555
O33 Ti3 1.908557 1_555
O34 Si1 1.690981 1_555
O34 Ti2 1.908557 1_554
O35 P5 1.527346 1_555
O35 Sc2 2.100865 1_555
O36 P6 1.527346 1_555
O36 Sc1 2.100865 1_656
O37 Si2 1.690981 1_555
O37 Ti1 1.908557 1_455
O38 Si3 1.690981 1_555
O38 Ti0 1.908557 1_454
O39 P7 1.527346 1_555
O39 Sc0 2.100865 1_655
O40 P0 1.541191 1_455
O40 Sc0 2.184392 1_555
O41 P0 1.554593 1_555
O41 Ti0 2.040768 1_555
O42 P1 1.554593 1_555
O42 Ti1 2.040768 1_555
O43 P1 1.541191 1_455
O43 Sc1 2.184392 1_555
O44 P2 1.541191 1_555
O44 Sc2 2.184392 1_555
O45 P2 1.554593 1_555
O45 Ti2 2.040768 1_555
O46 P3 1.554593 1_555
O46 Ti3 2.040768 1_555
O47 P3 1.541191 1_555
O47 Sc3 2.184392 1_555
