# generated using pymatgen
data_Pr4RuI5
_symmetry_space_group_name_H-M   'P 1'
_cell_length_a   4.30386010
_cell_length_b   9.36166258
_cell_length_c   10.06524187
_cell_angle_alpha   103.95623770
_cell_angle_beta   102.34503386
_cell_angle_gamma   89.99999913
_symmetry_Int_Tables_number   1
_chemical_formula_structural   Pr4RuI5
_chemical_formula_sum   'Pr4 Ru1 I5'
_cell_volume   383.90074481
_cell_formula_units_Z   1
loop_
 _symmetry_equiv_pos_site_id
 _symmetry_equiv_pos_as_xyz
  1  'x, y, z'
loop_
 _atom_site_type_symbol
 _atom_site_label
 _atom_site_symmetry_multiplicity
 _atom_site_fract_x
 _atom_site_fract_y
 _atom_site_fract_z
 _atom_site_occupancy
  Pr  Pr0  1  0.36025395  0.92693849  0.72050790  1
  Pr  Pr1  1  0.63974605  0.07306151  0.27949210  1
  Pr  Pr2  1  0.00008362  0.21368172  0.00016624  1
  Pr  Pr3  1  0.99991638  0.78631828  0.99983376  1
  Ru  Ru0  1  0.50000000  -0.00000000  0.00000000  1
  I  I0  1  0.50000000  0.50000000  0.00000000  1
  I  I1  1  0.17268515  0.83145011  0.34537029  1
  I  I2  1  0.82731485  0.16854989  0.65462971  1
  I  I3  1  0.83080112  0.65674165  0.66160323  1
  I  I4  1  0.16919888  0.34325835  0.33839677  1
loop_
_geom_bond_atom_site_label_1
_geom_bond_atom_site_label_2
_geom_bond_distance
_geom_bond_site_symmetry_2
Pr0 Ru0 2.663044 1_566
Pr1 Ru0 2.663044 1_555
Pr2 Ru0 2.937830 1_555
Pr2 Ru0 2.937833 1_455
Pr3 Ru0 2.937830 1_566
Pr3 Ru0 2.937833 1_666
I0 Pr3 3.437671 1_554
I0 Pr2 3.437671 1_555
I0 Pr3 3.437674 1_454
I0 Pr2 3.437674 1_655
I1 Pr1 3.299993 1_465
I1 Pr1 3.299993 1_565
I1 Pr3 3.318533 1_454
I1 Pr0 3.574400 1_555
I2 Pr0 3.299993 1_645
I2 Pr0 3.299993 1_545
I2 Pr2 3.318533 1_656
I2 Pr1 3.574400 1_555
I3 Pr3 3.246457 1_555
I3 Pr0 3.262081 1_555
I3 Pr0 3.262083 1_655
I4 Pr2 3.246457 1_555
I4 Pr1 3.262081 1_555
I4 Pr1 3.262083 1_455
