# generated using pymatgen
data_Mg(WO3)4
_symmetry_space_group_name_H-M   'P 1'
_cell_length_a   6.66324100
_cell_length_b   6.66324324
_cell_length_c   6.66324132
_cell_angle_alpha   109.47122719
_cell_angle_beta   109.47122573
_cell_angle_gamma   109.47121991
_symmetry_Int_Tables_number   1
_chemical_formula_structural   Mg(WO3)4
_chemical_formula_sum   'Mg1 W4 O12'
_cell_volume   227.73762213
_cell_formula_units_Z   1
loop_
 _symmetry_equiv_pos_site_id
 _symmetry_equiv_pos_as_xyz
  1  'x, y, z'
loop_
 _atom_site_type_symbol
 _atom_site_label
 _atom_site_symmetry_multiplicity
 _atom_site_fract_x
 _atom_site_fract_y
 _atom_site_fract_z
 _atom_site_occupancy
  Mg  Mg0  1  0.00000000  0.00000000  0.00000000  1
  W  W0  1  0.00000000  0.50000000  0.00000000  1
  W  W1  1  0.00000000  0.00000000  0.50000000  1
  W  W2  1  0.50000000  0.50000000  0.50000000  1
  W  W3  1  0.50000000  0.00000000  0.00000000  1
  O  O0  1  0.21261800  0.94215100  0.72953100  1
  O  O1  1  0.05784900  0.27046900  0.78738200  1
  O  O2  1  0.21261800  0.48308600  0.27046900  1
  O  O3  1  0.27046900  0.78738200  0.05784900  1
  O  O4  1  0.51691400  0.72953100  0.78738200  1
  O  O5  1  0.27046900  0.21261800  0.48308600  1
  O  O6  1  0.72953100  0.78738200  0.51691400  1
  O  O7  1  0.48308600  0.27046900  0.21261800  1
  O  O8  1  0.72953100  0.21261800  0.94215100  1
  O  O9  1  0.78738200  0.51691400  0.72953100  1
  O  O10  1  0.94215100  0.72953100  0.21261800  1
  O  O11  1  0.78738200  0.05784900  0.27046900  1
loop_
_geom_bond_atom_site_label_1
_geom_bond_atom_site_label_2
_geom_bond_distance
_geom_bond_site_symmetry_2
Mg0 O5 2.647014 1_555
Mg0 O6 2.647014 1_444
Mg0 O7 2.647014 1_555
Mg0 O4 2.647014 1_444
Mg0 O2 2.647015 1_555
Mg0 O9 2.647015 1_444
Mg0 O0 2.647019 1_544
Mg0 O11 2.647019 1_455
Mg0 O8 2.647019 1_454
Mg0 O3 2.647019 1_545
Mg0 O1 2.647019 1_554
Mg0 O10 2.647019 1_445
O0 W1 1.951253 1_565
O0 W3 1.951268 1_566
O1 W0 1.951254 1_556
O1 W1 1.951269 1_555
O2 W2 1.951259 1_555
O2 W0 1.951267 1_555
O3 W3 1.951254 1_565
O3 W0 1.951269 1_555
O4 W2 1.951259 1_555
O4 W3 1.951267 1_566
O5 W2 1.951260 1_555
O5 W1 1.951267 1_555
O6 W2 1.951260 1_555
O6 W1 1.951267 1_665
O7 W2 1.951259 1_555
O7 W3 1.951267 1_555
O8 W3 1.951254 1_556
O8 W0 1.951269 1_656
O9 W2 1.951259 1_555
O9 W0 1.951267 1_656
O10 W0 1.951254 1_655
O10 W1 1.951269 1_665
O11 W1 1.951253 1_655
O11 W3 1.951268 1_555
