# generated using pymatgen
data_MgZn2(NiO2)4
_symmetry_space_group_name_H-M   'P 1'
_cell_length_a   6.24489025
_cell_length_b   5.84510016
_cell_length_c   5.84647772
_cell_angle_alpha   59.85993067
_cell_angle_beta   61.95517133
_cell_angle_gamma   62.06762313
_symmetry_Int_Tables_number   1
_chemical_formula_structural   MgZn2(NiO2)4
_chemical_formula_sum   'Mg1 Zn2 Ni4 O8'
_cell_volume   155.15392264
_cell_formula_units_Z   1
loop_
 _symmetry_equiv_pos_site_id
 _symmetry_equiv_pos_as_xyz
  1  'x, y, z'
loop_
 _atom_site_type_symbol
 _atom_site_label
 _atom_site_symmetry_multiplicity
 _atom_site_fract_x
 _atom_site_fract_y
 _atom_site_fract_z
 _atom_site_occupancy
  Mg  Mg0  1  0.62566800  0.12400000  0.12313800  1
  Zn  Zn0  1  0.08787000  0.97140400  0.97241700  1
  Zn  Zn1  1  0.12376400  0.62562400  0.62637000  1
  Ni  Ni0  1  0.16716900  0.27839900  0.28168400  1
  Ni  Ni1  1  0.62370000  0.12501800  0.62468600  1
  Ni  Ni2  1  0.62371900  0.62519100  0.12434200  1
  Ni  Ni3  1  0.62332400  0.62489000  0.62462400  1
  O  O0  1  0.38997600  0.36947000  0.36963100  1
  O  O1  1  0.38596200  0.37085300  0.87304000  1
  O  O2  1  0.38671400  0.87256200  0.37097800  1
  O  O3  1  0.80318200  0.39866900  0.39600300  1
  O  O4  1  0.44464500  0.85115700  0.85188100  1
  O  O5  1  0.86009400  0.38039400  0.87711800  1
  O  O6  1  0.85982800  0.87778400  0.38050900  1
  O  O7  1  0.85897000  0.87958500  0.87857900  1
loop_
_geom_bond_atom_site_label_1
_geom_bond_atom_site_label_2
_geom_bond_distance
_geom_bond_site_symmetry_2
Mg0 O7 2.085782 1_544
Mg0 O5 2.090141 1_554
Mg0 O2 2.090259 1_545
Mg0 O1 2.092058 1_554
Mg0 O6 2.096765 1_545
Mg0 O0 2.098874 1_555
Ni0 O3 1.911526 1_455
Ni0 O0 2.031074 1_555
Ni0 O2 2.040064 1_545
Ni0 O1 2.047557 1_554
Ni1 O4 1.929270 1_545
Ni1 O3 1.930074 1_555
Ni1 O0 2.085347 1_555
Ni1 O7 2.087508 1_545
Ni1 O6 2.096806 1_545
Ni1 O1 2.108742 1_555
Ni2 O3 1.924436 1_555
Ni2 O4 1.926392 1_554
Ni2 O0 2.084355 1_555
Ni2 O7 2.085656 1_554
Ni2 O5 2.099369 1_554
Ni2 O2 2.107720 1_555
Ni3 O4 1.935859 1_555
Ni3 O3 1.941223 1_555
Ni3 O6 2.085174 1_555
Ni3 O5 2.088542 1_555
Ni3 O2 2.092531 1_555
Ni3 O1 2.093657 1_555
O0 Zn1 2.199333 1_555
O1 Zn1 2.181252 1_555
O2 Zn1 2.181729 1_555
O4 Zn0 1.873124 1_555
O5 Zn0 2.066535 1_645
O5 Zn1 2.178559 1_655
O6 Zn0 2.060093 1_654
O6 Zn1 2.186229 1_655
O7 Zn0 2.093853 1_655
O7 Zn1 2.172057 1_655
