# generated using pymatgen
data_Na2Ta4Al4Si5S7O48
_symmetry_space_group_name_H-M   'P 1'
_cell_length_a   17.30007698
_cell_length_b   8.63925978
_cell_length_c   22.39953975
_cell_angle_alpha   90.19636492
_cell_angle_beta   89.74551327
_cell_angle_gamma   119.98093766
_symmetry_Int_Tables_number   1
_chemical_formula_structural   Na2Ta4Al4Si5S7O48
_chemical_formula_sum   'Na6 Ta12 Al12 Si15 S21 O144'
_cell_volume   2899.83294002
_cell_formula_units_Z   3
loop_
 _symmetry_equiv_pos_site_id
 _symmetry_equiv_pos_as_xyz
  1  'x, y, z'
loop_
 _atom_site_type_symbol
 _atom_site_label
 _atom_site_symmetry_multiplicity
 _atom_site_fract_x
 _atom_site_fract_y
 _atom_site_fract_z
 _atom_site_occupancy
  Na  Na0  1  0.00049055  0.99200410  0.49659327  1
  Na  Na1  1  0.49706202  0.00491129  0.99503039  1
  Na  Na2  1  0.33198468  0.32585257  0.84086717  1
  Na  Na3  1  0.83348518  0.33992066  0.83713876  1
  Na  Na4  1  0.33069436  0.32419465  0.33466119  1
  Na  Na5  1  0.83750890  0.33838806  0.33764842  1
  Ta  Ta0  1  0.50248278  0.01160577  0.35307300  1
  Ta  Ta1  1  0.00714293  0.99297283  0.85658525  1
  Ta  Ta2  1  0.50536651  0.01227912  0.63922557  1
  Ta  Ta3  1  0.00743150  0.00222259  0.13801231  1
  Ta  Ta4  1  0.33451302  0.34638538  0.69065637  1
  Ta  Ta5  1  0.82861559  0.32926482  0.69372605  1
  Ta  Ta6  1  0.32967816  0.32639246  0.19099702  1
  Ta  Ta7  1  0.83368579  0.32348972  0.18877058  1
  Ta  Ta8  1  0.16462841  0.66935241  0.02411819  1
  Ta  Ta9  1  0.66211396  0.65875329  0.02217651  1
  Ta  Ta10  1  0.16268422  0.66672781  0.52237820  1
  Ta  Ta11  1  0.66647852  0.66810292  0.52538507  1
  Al  Al0  1  0.00499360  0.98822516  0.35440885  1
  Al  Al1  1  0.50225142  0.01857100  0.85530766  1
  Al  Al2  1  0.00653151  0.01079996  0.65724923  1
  Al  Al3  1  0.50675891  0.00737577  0.15200922  1
  Al  Al4  1  0.32760989  0.32331860  0.97014170  1
  Al  Al5  1  0.83845646  0.33136364  0.98240768  1
  Al  Al6  1  0.33558008  0.33974158  0.48386671  1
  Al  Al7  1  0.83820601  0.33634861  0.47891222  1
  Al  Al8  1  0.15208378  0.66515459  0.31187841  1
  Al  Al9  1  0.66615774  0.66933641  0.30400230  1
  Al  Al10  1  0.16565334  0.67709487  0.80562241  1
  Al  Al11  1  0.65425030  0.64104615  0.81275997  1
  Si  Si0  1  0.13827797  0.98683445  0.25472888  1
  Si  Si1  1  0.64320279  0.99253427  0.24757965  1
  Si  Si2  1  0.50711403  0.29653572  0.24688315  1
  Si  Si3  1  0.14242962  0.30161318  0.74998718  1
  Si  Si4  1  0.63662173  0.28884135  0.75574653  1
  Si  Si5  1  0.00702863  0.72110782  0.74689807  1
  Si  Si6  1  0.46919538  0.32855160  0.57903439  1
  Si  Si7  1  0.69882112  0.06690717  0.57743532  1
  Si  Si8  1  0.33235727  0.61481527  0.58008334  1
  Si  Si9  1  0.97047467  0.61025000  0.07896151  1
  Si  Si10  1  0.83259998  0.04811691  0.07948533  1
  Si  Si11  1  0.20069944  0.33868895  0.07694552  1
  Si  Si12  1  0.51596842  0.37042003  0.91449522  1
  Si  Si13  1  0.17472462  0.95320729  0.91227669  1
  Si  Si14  1  0.01459560  0.66096549  0.41470208  1
  S  S0  1  0.35280328  0.71609343  0.25034967  1
  S  S1  1  0.85683918  0.71956067  0.25370298  1
  S  S2  1  0.00358294  0.28555964  0.25511667  1
  S  S3  1  0.50469328  0.72322998  0.75485595  1
  S  S4  1  0.35739713  0.99517848  0.75213790  1
  S  S5  1  0.85303682  0.98806539  0.75103956  1
  S  S6  1  0.97380527  0.31986568  0.58253458  1
  S  S7  1  0.18698994  0.05244934  0.58198718  1
  S  S8  1  0.84049093  0.62805736  0.58188634  1
  S  S9  1  0.47396510  0.62991464  0.08267362  1
  S  S10  1  0.34151050  0.04977923  0.08221093  1
  S  S11  1  0.68684374  0.32239407  0.08172099  1
  S  S12  1  0.31398699  0.67060971  0.91348440  1
  S  S13  1  0.80654537  0.65754227  0.91529645  1
  S  S14  1  0.01833905  0.38028191  0.91527159  1
  S  S15  1  0.66805880  0.95733564  0.91391853  1
  S  S16  1  0.30711737  0.95705748  0.41569562  1
  S  S17  1  0.81187029  0.95484428  0.41303289  1
  S  S18  1  0.16776720  0.37767104  0.41388265  1
  S  S19  1  0.67119208  0.38670576  0.41459121  1
  S  S20  1  0.52075026  0.65739337  0.41483606  1
  O  O0  1  0.09907618  0.04052830  0.31082086  1
  O  O1  1  0.59473747  0.02879440  0.30763697  1
  O  O2  1  0.41158089  0.79508900  0.30512585  1
  O  O3  1  0.91428551  0.80068926  0.30639651  1
  O  O4  1  0.47968534  0.16115028  0.30754137  1
  O  O5  1  0.98278157  0.17009023  0.30750889  1
  O  O6  1  0.09462703  0.16318572  0.80757244  1
  O  O7  1  0.59630739  0.15431379  0.81057436  1
  O  O8  1  0.48335023  0.79686971  0.80709970  1
  O  O9  1  0.97796016  0.79736994  0.80642832  1
  O  O10  1  0.41428575  0.03044294  0.80489814  1
  O  O11  1  0.90987338  0.02933705  0.80427589  1
  O  O12  1  0.39836051  0.97152496  0.69710844  1
  O  O13  1  0.89476719  0.96680969  0.69602266  1
  O  O14  1  0.08343209  0.21138460  0.69110097  1
  O  O15  1  0.58124183  0.19422346  0.69428591  1
  O  O16  1  0.01209666  0.83365428  0.68883578  1
  O  O17  1  0.51320174  0.81895181  0.69876443  1
  O  O18  1  0.39458544  0.82335208  0.19703367  1
  O  O19  1  0.89405705  0.82416783  0.19875524  1
  O  O20  1  0.01262611  0.20633212  0.19925927  1
  O  O21  1  0.51307106  0.19179289  0.19013680  1
  O  O22  1  0.08006261  0.96698017  0.19483385  1
  O  O23  1  0.58231360  0.96359857  0.19077459  1
  O  O24  1  0.42907425  0.36298057  0.64010688  1
  O  O25  1  0.93891966  0.36113933  0.63639378  1
  O  O26  1  0.24205588  0.12657689  0.63602954  1
  O  O27  1  0.75780211  0.14539161  0.63756068  1
  O  O28  1  0.31256499  0.49169440  0.64074195  1
  O  O29  1  0.82209479  0.51623016  0.63592911  1
  O  O30  1  0.43951814  0.51957469  0.13763065  1
  O  O31  1  0.92732820  0.49696285  0.14089956  1
  O  O32  1  0.32506103  0.13092910  0.13743153  1
  O  O33  1  0.81215565  0.13146142  0.14114549  1
  O  O34  1  0.25671061  0.36986784  0.13956829  1
  O  O35  1  0.74161519  0.35610576  0.13660325  1
  O  O36  1  0.24812630  0.30353053  0.02305011  1
  O  O37  1  0.72846709  0.29887562  0.02770913  1
  O  O38  1  0.42193467  0.54778880  0.02968401  1
  O  O39  1  0.91031403  0.52595492  0.02187488  1
  O  O40  1  0.35718208  0.15960097  0.02988373  1
  O  O41  1  0.84582298  0.16664091  0.02251865  1
  O  O42  1  0.22863384  0.15710087  0.52726906  1
  O  O43  1  0.74433942  0.18806624  0.52067331  1
  O  O44  1  0.34587908  0.52495719  0.52193612  1
  O  O45  1  0.85502812  0.54657516  0.52850300  1
  O  O46  1  0.41115743  0.29516439  0.52087460  1
  O  O47  1  0.92106080  0.29880441  0.52843315  1
  O  O48  1  0.27409770  0.70223984  0.96894356  1
  O  O49  1  0.76667652  0.68539409  0.97142626  1
  O  O50  1  0.07333798  0.45552525  0.97095410  1
  O  O51  1  0.58224647  0.46757073  0.97450312  1
  O  O52  1  0.15764200  0.83478080  0.97361142  1
  O  O53  1  0.65720137  0.84515114  0.96903970  1
  O  O54  1  0.26762729  0.84917662  0.47138707  1
  O  O55  1  0.77122446  0.84172195  0.46835017  1
  O  O56  1  0.15688616  0.46868692  0.46891033  1
  O  O57  1  0.65622395  0.46481987  0.46997235  1
  O  O58  1  0.07970092  0.69222142  0.47464323  1
  O  O59  1  0.57649415  0.68880271  0.47007244  1
  O  O60  1  0.06312899  0.62240178  0.36001711  1
  O  O61  1  0.56577298  0.63494892  0.36324292  1
  O  O62  1  0.25366030  0.86705475  0.36311067  1
  O  O63  1  0.75411167  0.86447180  0.36193978  1
  O  O64  1  0.18516546  0.49231834  0.36149207  1
  O  O65  1  0.68220086  0.49622503  0.36277730  1
  O  O66  1  0.06097413  0.48874632  0.86326345  1
  O  O67  1  0.56521893  0.50479274  0.85977816  1
  O  O68  1  0.18432905  0.84976068  0.85703353  1
  O  O69  1  0.68560355  0.87732640  0.86131776  1
  O  O70  1  0.25804963  0.63960183  0.86153016  1
  O  O71  1  0.75218533  0.63733785  0.86289978  1
  O  O72  1  0.00657437  0.84060164  0.41034978  1
  O  O73  1  0.51051198  0.81860514  0.40979862  1
  O  O74  1  0.39712509  0.97302833  0.41132424  1
  O  O75  1  0.90244614  0.97858567  0.40743240  1
  O  O76  1  0.08362509  0.20438751  0.41108391  1
  O  O77  1  0.58658242  0.20544986  0.41036492  1
  O  O78  1  0.00453574  0.19605670  0.90971069  1
  O  O79  1  0.50807969  0.17471804  0.91028809  1
  O  O80  1  0.08116748  0.96472074  0.90871835  1
  O  O81  1  0.58436046  0.96277441  0.91106315  1
  O  O82  1  0.40510835  0.83172109  0.90717599  1
  O  O83  1  0.89497480  0.82144691  0.91103628  1
  O  O84  1  0.48411731  0.16083361  0.58992328  1
  O  O85  1  0.98332344  0.15998720  0.58954198  1
  O  O86  1  0.09679740  0.02823190  0.58839223  1
  O  O87  1  0.59889464  0.02857954  0.59050285  1
  O  O88  1  0.41696539  0.80397755  0.59730748  1
  O  O89  1  0.91524357  0.81052356  0.58975958  1
  O  O90  1  0.48493404  0.81048513  0.09202748  1
  O  O91  1  0.98368760  0.80706299  0.09052507  1
  O  O92  1  0.41793691  0.02096040  0.09246373  1
  O  O93  1  0.91763539  0.03097428  0.09806431  1
  O  O94  1  0.10058056  0.17134288  0.09119979  1
  O  O95  1  0.59677191  0.16572779  0.08874732  1
  O  O96  1  0.34826724  0.15958780  0.74427068  1
  O  O97  1  0.84771579  0.15943276  0.74396562  1
  O  O98  1  0.23907475  0.30135233  0.74363318  1
  O  O99  1  0.73741537  0.30590014  0.74318006  1
  O  O100  1  0.42289016  0.53358982  0.74771632  1
  O  O101  1  0.91637984  0.51957795  0.73942716  1
  O  O102  1  0.34948914  0.53829201  0.24541458  1
  O  O103  1  0.84756750  0.53718572  0.24645712  1
  O  O104  1  0.41853531  0.32042948  0.24143849  1
  O  O105  1  0.92234572  0.31239672  0.24810700  1
  O  O106  1  0.23912475  0.16965015  0.24249000  1
  O  O107  1  0.73948380  0.18395980  0.24546362  1
  O  O108  1  0.32413815  0.51203330  0.92283921  1
  O  O109  1  0.81573586  0.49628852  0.92240056  1
  O  O110  1  0.42394553  0.36501138  0.92949012  1
  O  O111  1  0.92771754  0.36238572  0.92255287  1
  O  O112  1  0.25570169  0.15165810  0.91972606  1
  O  O113  1  0.74653496  0.14052875  0.92306421  1
  O  O114  1  0.31654409  0.13671780  0.42262766  1
  O  O115  1  0.81807240  0.13122558  0.42187119  1
  O  O116  1  0.24607759  0.35109631  0.42289270  1
  O  O117  1  0.74775454  0.35958458  0.42156215  1
  O  O118  1  0.43074247  0.49699145  0.42153138  1
  O  O119  1  0.91838924  0.48267738  0.42748415  1
  O  O120  1  0.18847903  0.51117294  0.06901430  1
  O  O121  1  0.67943637  0.48781175  0.07607019  1
  O  O122  1  0.06990686  0.63249788  0.07405826  1
  O  O123  1  0.56676984  0.65247582  0.07533938  1
  O  O124  1  0.25828403  0.87162192  0.07724445  1
  O  O125  1  0.74638727  0.84947966  0.07131655  1
  O  O126  1  0.17949818  0.87127250  0.57483116  1
  O  O127  1  0.68682672  0.86568056  0.56873983  1
  O  O128  1  0.24593601  0.64176542  0.57037543  1
  O  O129  1  0.75614065  0.63788379  0.57315200  1
  O  O130  1  0.06568640  0.48131310  0.57397397  1
  O  O131  1  0.57108776  0.50267677  0.57000587  1
  O  O132  1  0.15664710  0.82454388  0.26196048  1
  O  O133  1  0.66015446  0.83517501  0.26408365  1
  O  O134  1  0.26450689  0.68850981  0.26230072  1
  O  O135  1  0.76796876  0.69462497  0.26378307  1
  O  O136  1  0.08406334  0.46139417  0.26188730  1
  O  O137  1  0.59219572  0.47734489  0.26474500  1
  O  O138  1  0.16121375  0.49317583  0.76731216  1
  O  O139  1  0.65645812  0.48887133  0.76151318  1
  O  O140  1  0.08923845  0.69703330  0.75901627  1
  O  O141  1  0.58445652  0.70651022  0.76137446  1
  O  O142  1  0.26968666  0.83896887  0.75820769  1
  O  O143  1  0.76343004  0.83933001  0.76008285  1
loop_
_geom_bond_atom_site_label_1
_geom_bond_atom_site_label_2
_geom_bond_distance
_geom_bond_site_symmetry_2
Na0 O72 2.360577 1_555
Na0 O76 2.542833 1_565
Na0 O86 2.570397 1_565
Na0 O89 2.583100 1_455
Na0 O75 2.590579 1_455
Na0 O85 2.633182 1_465
Na1 O79 2.351163 1_555
Na1 O82 2.504153 1_545
Na1 O81 2.543715 1_545
Na1 O92 2.610986 1_556
Na1 O95 2.632398 1_556
Na1 O90 2.693461 1_546
Na2 O112 2.266974 1_555
Na2 O110 2.464087 1_555
Na2 O108 2.484499 1_555
Na2 O98 2.657058 1_555
Na2 O96 2.683644 1_555
Na2 O100 2.687664 1_555
Na3 O109 2.440971 1_555
Na3 O111 2.462667 1_555
Na3 O113 2.518298 1_555
Na3 O99 2.610897 1_555
Na3 O101 2.650821 1_555
Na3 O97 2.684115 1_555
Na4 O114 2.487381 1_555
Na4 O116 2.532600 1_555
Na4 O118 2.537389 1_555
Na4 O106 2.539886 1_555
Na4 O104 2.586795 1_555
Na4 O102 2.634718 1_555
Na5 O119 2.413633 1_555
Na5 O117 2.496696 1_555
Na5 O115 2.508252 1_555
Na5 O105 2.554884 1_555
Na5 O107 2.582761 1_555
Na5 O103 2.621937 1_555
Al0 O0 1.749430 1_565
Al0 O72 1.800983 1_555
Al0 O3 1.925142 1_455
Al0 O5 2.082836 1_465
Al0 O75 2.097435 1_455
Al0 O76 2.099945 1_565
Al1 O7 1.764493 1_555
Al1 O79 1.788969 1_555
Al1 O10 1.942541 1_555
Al1 O82 2.015983 1_545
Al1 O8 2.074729 1_545
Al1 O81 2.124649 1_545
Al2 O16 1.734155 1_545
Al2 O14 1.744619 1_555
Al2 O13 1.972365 1_445
Al2 O86 2.141341 1_555
Al2 O85 2.158352 1_455
Al2 O89 2.246227 1_445
Al3 O21 1.759916 1_555
Al3 O23 1.764070 1_545
Al3 O95 2.041828 1_555
Al3 O90 2.046473 1_545
Al3 O18 2.054457 1_545
Al3 O92 2.086507 1_555
Al4 O36 1.754007 1_556
Al4 O110 1.767852 1_555
Al4 O112 1.783081 1_555
Al4 O108 1.973472 1_555
Al4 O40 2.189811 1_556
Al4 O38 2.245280 1_556
Al5 O41 1.743469 1_556
Al5 O39 1.750435 1_556
Al5 O111 1.955615 1_555
Al5 O37 2.044563 1_556
Al5 O113 2.097005 1_555
Al5 O109 2.137495 1_555
Al6 O44 1.739647 1_555
Al6 O46 1.749311 1_555
Al6 O42 1.983654 1_555
Al6 O118 2.064669 1_555
Al6 O116 2.108093 1_555
Al6 O114 2.115832 1_555
Al7 O43 1.751796 1_555
Al7 O119 1.758573 1_555
Al7 O47 1.967613 1_555
Al7 O45 2.019399 1_555
Al7 O115 2.065366 1_555
Al7 O117 2.114889 1_555
Al8 O132 1.747494 1_555
Al8 O60 1.757077 1_555
Al8 O136 1.914511 1_555
Al8 O62 2.094812 1_555
Al8 O134 2.155656 1_555
Al8 O64 2.159459 1_555
Al9 O133 1.738195 1_555
Al9 O137 1.743714 1_555
Al9 O135 1.887940 1_555
Al9 O63 2.068906 1_555
Al9 O61 2.081270 1_555
Al9 O65 2.116262 1_555
Al10 O140 1.763018 1_555
Al10 O138 1.770944 1_555
Al10 O68 1.779205 1_555
Al10 O142 1.949523 1_555
Al10 O66 2.154739 1_555
Al10 O70 2.183187 1_555
Al11 O67 1.746213 1_555
Al11 O139 1.756979 1_555
Al11 O141 1.949843 1_555
Al11 O71 2.050462 1_555
Al11 O69 2.127800 1_555
Al11 O143 2.157472 1_555
O0 Si0 1.598939 1_545
O1 Si1 1.691285 1_545
O1 Ta0 1.831627 1_555
O2 S0 1.522158 1_555
O2 Ta0 2.046166 1_565
O3 S1 1.476706 1_555
O4 Si2 1.699937 1_555
O4 Ta0 1.840304 1_555
O5 S2 1.465396 1_655
O6 Si3 1.670501 1_555
O6 Ta1 1.852117 1_545
O7 Si4 1.592957 1_555
O8 S3 1.461628 1_555
O9 Si5 1.668599 1_655
O9 Ta1 1.874067 1_655
O10 S4 1.471830 1_545
O11 S5 1.474130 1_545
O11 Ta1 2.202658 1_645
O12 S4 1.482769 1_555
O12 Ta2 2.135975 1_565
O13 S5 1.482111 1_555
O14 Si3 1.612130 1_555
O15 Si4 1.643980 1_555
O15 Ta2 1.911511 1_555
O16 Si5 1.602193 1_555
O17 S3 1.472401 1_555
O17 Ta2 2.197658 1_565
O18 S0 1.462150 1_555
O19 S1 1.471465 1_555
O19 Ta3 2.244952 1_665
O20 S2 1.468957 1_555
O20 Ta3 2.196760 1_555
O21 Si2 1.590376 1_555
O22 Si0 1.637515 1_555
O22 Ta3 1.921126 1_565
O23 Si1 1.593012 1_555
O24 Si6 1.623812 1_555
O24 Ta4 1.931088 1_555
O25 S6 1.467139 1_555
O25 Ta5 2.195906 1_555
O26 S7 1.475881 1_555
O26 Ta4 2.151181 1_555
O27 Si7 1.621486 1_555
O27 Ta5 1.913647 1_555
O28 Si8 1.654252 1_555
O28 Ta4 1.860094 1_555
O29 S8 1.482342 1_555
O29 Ta5 2.120266 1_555
O30 S9 1.487616 1_555
O30 Ta6 2.156192 1_555
O31 Si9 1.646168 1_555
O31 Ta7 1.894572 1_555
O32 S10 1.514191 1_555
O32 Ta6 2.037088 1_555
O33 Si10 1.671679 1_555
O33 Ta7 1.844670 1_555
O34 Si11 1.651594 1_555
O34 Ta6 1.884511 1_555
O35 S11 1.491988 1_555
O35 Ta7 2.109338 1_555
O36 Si11 1.568640 1_555
O37 S11 1.469804 1_555
O38 S9 1.444959 1_555
O39 Si9 1.580067 1_555
O40 S10 1.447492 1_555
O41 Si10 1.581559 1_555
O42 S7 1.479008 1_555
O43 Si7 1.583903 1_555
O44 Si8 1.589234 1_555
O45 S8 1.468718 1_555
O46 Si6 1.583698 1_555
O47 S6 1.475359 1_555
O48 S12 1.507523 1_555
O48 Ta8 2.153733 1_556
O49 S13 1.506811 1_555
O49 Ta9 2.045712 1_556
O50 S14 1.506778 1_555
O50 Ta8 2.100181 1_556
O51 Si12 1.694123 1_555
O51 Ta9 1.870210 1_556
O52 Si13 1.650898 1_555
O52 Ta8 1.876699 1_556
O53 S15 1.524227 1_555
O53 Ta9 2.041545 1_556
O54 S16 1.501858 1_555
O54 Ta10 2.054038 1_555
O55 S17 1.516123 1_555
O55 Ta11 2.107557 1_555
O56 S18 1.520604 1_555
O56 Ta10 2.046268 1_555
O57 S19 1.492449 1_555
O57 Ta11 2.081351 1_555
O58 Si14 1.688559 1_555
O58 Ta10 1.893156 1_555
O59 S20 1.510380 1_555
O59 Ta11 2.070594 1_555
O60 Si14 1.607495 1_555
O61 S20 1.456450 1_555
O62 S16 1.460133 1_555
O63 S17 1.463611 1_555
O64 S18 1.468217 1_555
O65 S19 1.450510 1_555
O66 S14 1.445103 1_555
O67 Si12 1.608642 1_555
O68 Si13 1.580040 1_555
O69 S15 1.469377 1_555
O70 S12 1.453045 1_555
O71 S13 1.461747 1_555
O72 Si14 1.628993 1_555
O73 S20 1.493874 1_555
O73 Ta0 2.159055 1_565
O74 S16 1.495769 1_555
O74 Ta0 2.123803 1_565
O75 S17 1.480006 1_555
O76 S18 1.478599 1_555
O77 S19 1.520872 1_555
O77 Ta0 2.033461 1_555
O78 S14 1.491541 1_555
O78 Ta1 2.135568 1_545
O79 Si12 1.629250 1_555
O80 Si13 1.672734 1_555
O80 Ta1 1.841433 1_555
O81 S15 1.473705 1_555
O82 S12 1.499608 1_555
O83 S13 1.479598 1_555
O83 Ta1 2.136954 1_655
O84 Si6 1.613205 1_555
O84 Ta2 1.867267 1_555
O85 S6 1.479384 1_555
O86 S7 1.473418 1_555
O87 Si7 1.614906 1_555
O87 Ta2 1.893837 1_555
O88 Si8 1.603761 1_555
O88 Ta2 1.926024 1_565
O89 S8 1.466689 1_555
O90 S9 1.488539 1_555
O91 Si9 1.618484 1_555
O91 Ta3 1.855344 1_665
O92 S10 1.481548 1_555
O93 Si10 1.607147 1_555
O93 Ta3 1.917086 1_655
O94 Si11 1.639434 1_555
O94 Ta3 1.863730 1_555
O95 S11 1.475215 1_555
O96 S4 1.516458 1_545
O96 Ta4 2.121979 1_555
O97 S5 1.537325 1_545
O97 Ta5 2.006861 1_555
O98 Si3 1.678508 1_555
O98 Ta4 1.905093 1_555
O99 Si4 1.697251 1_555
O99 Ta5 1.850654 1_555
O100 S3 1.547746 1_555
O100 Ta4 2.029473 1_555
O101 Si5 1.670384 1_655
O101 Ta5 1.887817 1_555
O102 S0 1.511919 1_555
O102 Ta6 2.077475 1_555
O103 S1 1.510112 1_555
O103 Ta7 2.163097 1_555
O104 Si2 1.650385 1_555
O104 Ta6 1.933214 1_555
O105 S2 1.543197 1_655
O105 Ta7 2.072250 1_555
O106 Si0 1.690643 1_545
O106 Ta6 1.868890 1_555
O107 Si1 1.660859 1_545
O107 Ta7 1.936591 1_555
O108 S12 1.481333 1_555
O109 S13 1.488114 1_555
O110 Si12 1.603273 1_555
O111 S14 1.504667 1_655
O112 Si13 1.590433 1_545
O113 S15 1.497585 1_545
O114 S16 1.485063 1_545
O115 S17 1.485732 1_545
O116 S18 1.497486 1_555
O117 S19 1.464901 1_555
O118 S20 1.486699 1_555
O119 Si14 1.631332 1_655
O120 Si11 1.616712 1_555
O120 Ta8 1.904128 1_555
O121 S11 1.503045 1_555
O121 Ta9 2.045931 1_555
O122 Si9 1.635869 1_455
O122 Ta8 1.871558 1_555
O123 S9 1.525721 1_555
O123 Ta9 2.008809 1_555
O124 S10 1.496619 1_565
O124 Ta8 2.065942 1_555
O125 Si10 1.626400 1_565
O125 Ta9 1.911307 1_555
O126 S7 1.512668 1_565
O126 Ta10 2.015646 1_555
O127 Si7 1.655509 1_565
O127 Ta11 1.836230 1_555
O128 Si8 1.639494 1_555
O128 Ta10 1.898027 1_555
O129 S8 1.517037 1_555
O129 Ta11 2.010089 1_555
O130 S6 1.513998 1_455
O130 Ta10 2.006620 1_555
O131 Si6 1.661281 1_555
O131 Ta11 1.844682 1_555
O132 Si0 1.593846 1_555
O133 Si1 1.572795 1_555
O134 S0 1.447346 1_555
O135 S1 1.458567 1_555
O136 S2 1.468205 1_555
O137 Si2 1.571527 1_555
O138 Si3 1.566625 1_555
O139 Si4 1.589650 1_555
O140 Si5 1.561777 1_555
O141 S3 1.465428 1_555
O142 S4 1.447429 1_555
O143 S5 1.450339 1_555
