# generated using pymatgen
data_Na2YTaSi(PO6)2
_symmetry_space_group_name_H-M   'P 1'
_cell_length_a   9.11123776
_cell_length_b   9.11123744
_cell_length_c   23.06313479
_cell_angle_alpha   90.17067840
_cell_angle_beta   89.82932161
_cell_angle_gamma   119.54110132
_symmetry_Int_Tables_number   1
_chemical_formula_structural   Na2YTaSi(PO6)2
_chemical_formula_sum   'Na12 Y6 Ta6 Si6 P12 O72'
_cell_volume   1665.67729637
_cell_formula_units_Z   6
loop_
 _symmetry_equiv_pos_site_id
 _symmetry_equiv_pos_as_xyz
  1  'x, y, z'
loop_
 _atom_site_type_symbol
 _atom_site_label
 _atom_site_symmetry_multiplicity
 _atom_site_fract_x
 _atom_site_fract_y
 _atom_site_fract_z
 _atom_site_occupancy
  Na  Na0  1  0.98979077  0.63482354  0.24596413  1
  Na  Na1  1  0.36517646  0.01020923  0.74596413  1
  Na  Na2  1  0.65239564  0.96682563  0.58392826  1
  Na  Na3  1  0.03317437  0.34760436  0.08392826  1
  Na  Na4  1  0.98683281  0.68227573  0.91712960  1
  Na  Na5  1  0.31772427  0.01316719  0.41712960  1
  Na  Na6  1  0.99779062  0.99047525  0.49727997  1
  Na  Na7  1  0.00952475  0.00220938  0.99727997  1
  Na  Na8  1  0.67161493  0.32467221  0.83094455  1
  Na  Na9  1  0.67532779  0.32838507  0.33094455  1
  Na  Na10  1  0.34928882  0.68033676  0.16366397  1
  Na  Na11  1  0.31966324  0.65071118  0.66366397  1
  Y  Y0  1  0.99002404  0.00342473  0.35290787  1
  Y  Y1  1  0.99657527  0.00997596  0.85290787  1
  Y  Y2  1  0.67190806  0.33838810  0.68627110  1
  Y  Y3  1  0.66161190  0.32809194  0.18627110  1
  Y  Y4  1  0.33921227  0.67552119  0.01969757  1
  Y  Y5  1  0.32447881  0.66078773  0.51969757  1
  Ta  Ta0  1  0.00245068  0.99941122  0.64763114  1
  Ta  Ta1  1  0.00058878  0.99754932  0.14763114  1
  Ta  Ta2  1  0.66126547  0.33059684  0.98104998  1
  Ta  Ta3  1  0.66940316  0.33873453  0.48104998  1
  Ta  Ta4  1  0.32797370  0.65720776  0.31420980  1
  Ta  Ta5  1  0.34279224  0.67202630  0.81420980  1
  Si  Si0  1  0.00782445  0.30016260  0.24912673  1
  Si  Si1  1  0.69983740  0.99217555  0.74912673  1
  Si  Si2  1  0.36969303  0.04478852  0.58465985  1
  Si  Si3  1  0.95521148  0.63030697  0.08465985  1
  Si  Si4  1  0.34161725  0.96770552  0.91678482  1
  Si  Si5  1  0.03229448  0.65838275  0.41678482  1
  P  P0  1  0.28726487  0.98992992  0.25242894  1
  P  P1  1  0.70288856  0.71595199  0.24938431  1
  P  P2  1  0.28404801  0.29711144  0.74938431  1
  P  P3  1  0.01007008  0.71273513  0.75242894  1
  P  P4  1  0.95472002  0.32134061  0.58316040  1
  P  P5  1  0.68044226  0.63364741  0.58350610  1
  P  P6  1  0.67865939  0.04527998  0.08316040  1
  P  P7  1  0.36635259  0.31955774  0.08350610  1
  P  P8  1  0.62140156  0.65356096  0.91637726  1
  P  P9  1  0.03750066  0.38166081  0.91879093  1
  P  P10  1  0.61833919  0.96249934  0.41879093  1
  P  P11  1  0.34643904  0.37859844  0.41637726  1
  O  O0  1  0.20916347  0.00730102  0.30799240  1
  O  O1  1  0.81530694  0.78772384  0.30185482  1
  O  O2  1  0.98433180  0.19322517  0.30531602  1
  O  O3  1  0.21227616  0.18469306  0.80185482  1
  O  O4  1  0.99269898  0.79083653  0.80799240  1
  O  O5  1  0.80677483  0.01566820  0.80531602  1
  O  O6  1  0.80130430  0.97190654  0.69013148  1
  O  O7  1  0.16508182  0.19776541  0.69510275  1
  O  O8  1  0.03406670  0.83660856  0.69882199  1
  O  O9  1  0.80223459  0.83491818  0.19510275  1
  O  O10  1  0.02809346  0.19869570  0.19013148  1
  O  O11  1  0.16339144  0.96593330  0.19882199  1
  O  O12  1  0.87804993  0.34712558  0.63741369  1
  O  O13  1  0.47808471  0.12589307  0.64183878  1
  O  O14  1  0.65367635  0.53180274  0.63728421  1
  O  O15  1  0.87410693  0.52191529  0.14183878  1
  O  O16  1  0.65287442  0.12195007  0.13741369  1
  O  O17  1  0.46819726  0.34632365  0.13728421  1
  O  O18  1  0.46527853  0.30068169  0.02890623  1
  O  O19  1  0.82929335  0.52597054  0.02638088  1
  O  O20  1  0.69939282  0.16559955  0.02951654  1
  O  O21  1  0.47402946  0.17070665  0.52638088  1
  O  O22  1  0.69931831  0.53472147  0.52890623  1
  O  O23  1  0.83440045  0.30060718  0.52951654  1
  O  O24  1  0.54538577  0.68024845  0.97023522  1
  O  O25  1  0.13201876  0.45499648  0.97488422  1
  O  O26  1  0.30438806  0.84558741  0.97027616  1
  O  O27  1  0.54500352  0.86798124  0.47488422  1
  O  O28  1  0.31975155  0.45461423  0.47023522  1
  O  O29  1  0.15441259  0.69561194  0.47027616  1
  O  O30  1  0.13794597  0.63542216  0.35762794  1
  O  O31  1  0.49848536  0.86439624  0.36572447  1
  O  O32  1  0.36548241  0.49561626  0.36192834  1
  O  O33  1  0.13560376  0.50151464  0.86572447  1
  O  O34  1  0.36457784  0.86205403  0.85762794  1
  O  O35  1  0.50438374  0.63451759  0.86192834  1
  O  O36  1  0.01391595  0.82384156  0.41051888  1
  O  O37  1  0.79749565  0.99506449  0.41282422  1
  O  O38  1  0.20417452  0.19710807  0.40880221  1
  O  O39  1  0.00493551  0.20250435  0.91282422  1
  O  O40  1  0.17615844  0.98608405  0.91051888  1
  O  O41  1  0.80289193  0.79582548  0.90880221  1
  O  O42  1  0.95357958  0.14686932  0.58752624  1
  O  O43  1  0.17994443  0.03008402  0.59236349  1
  O  O44  1  0.84802279  0.81046155  0.58912519  1
  O  O45  1  0.96991598  0.82005557  0.09236349  1
  O  O46  1  0.85313068  0.04642042  0.08752624  1
  O  O47  1  0.18953845  0.15197721  0.08912519  1
  O  O48  1  0.65138735  0.14006455  0.74616316  1
  O  O49  1  0.46100542  0.32307804  0.74075712  1
  O  O50  1  0.86168697  0.53757321  0.74457081  1
  O  O51  1  0.67692196  0.53899458  0.24075712  1
  O  O52  1  0.85993545  0.34861265  0.24616316  1
  O  O53  1  0.46242679  0.13831303  0.24457081  1
  O  O54  1  0.63111877  0.48501659  0.92192584  1
  O  O55  1  0.86102738  0.37882264  0.92272871  1
  O  O56  1  0.51785067  0.15117937  0.92573070  1
  O  O57  1  0.62117736  0.13897262  0.42272871  1
  O  O58  1  0.51498341  0.36888123  0.42192584  1
  O  O59  1  0.84882063  0.48214933  0.42573070  1
  O  O60  1  0.32863786  0.46350506  0.07542999  1
  O  O61  1  0.13865772  0.64482158  0.07943229  1
  O  O62  1  0.53609860  0.86602471  0.07682367  1
  O  O63  1  0.35517842  0.86134228  0.57943229  1
  O  O64  1  0.53649494  0.67136214  0.57542999  1
  O  O65  1  0.13397529  0.46390140  0.57682367  1
  O  O66  1  0.29344988  0.81917485  0.25506181  1
  O  O67  1  0.53004642  0.71100262  0.25691040  1
  O  O68  1  0.19044099  0.48960826  0.25717187  1
  O  O69  1  0.28899738  0.46995358  0.75691040  1
  O  O70  1  0.18082515  0.70655012  0.75506181  1
  O  O71  1  0.51039174  0.80955901  0.75717187  1
loop_
_geom_bond_atom_site_label_1
_geom_bond_atom_site_label_2
_geom_bond_distance
_geom_bond_site_symmetry_2
Na0 O52 2.271067 1_555
Na0 O66 2.436969 1_655
Na0 O51 2.539664 1_555
Na0 O15 2.620569 1_555
Na0 O68 2.747663 1_655
Na0 O11 2.844121 1_655
Na0 O1 2.879354 1_555
Na0 O30 2.909953 1_655
Na1 O48 2.271067 1_555
Na1 O70 2.436969 1_545
Na1 O49 2.539664 1_555
Na1 O13 2.620569 1_555
Na1 O71 2.747663 1_545
Na1 O8 2.844121 1_545
Na1 O3 2.879354 1_555
Na1 O34 2.909953 1_545
Na2 O64 2.365469 1_555
Na2 O63 2.387975 1_555
Na2 O42 2.406208 1_565
Na2 O27 2.688011 1_555
Na2 O44 2.779810 1_555
Na2 O6 2.792766 1_555
Na2 O23 2.934402 1_565
Na2 O13 2.941467 1_565
Na3 O60 2.365469 1_555
Na3 O61 2.387975 1_555
Na3 O46 2.406207 1_455
Na3 O25 2.688011 1_554
Na3 O47 2.779810 1_555
Na3 O10 2.792765 1_555
Na3 O20 2.934402 1_455
Na3 O15 2.941467 1_455
Na4 O41 2.372520 1_555
Na4 O55 2.418882 1_555
Na4 O40 2.439978 1_655
Na4 O4 2.697896 1_555
Na4 O26 2.802270 1_655
Na4 O54 2.828704 1_555
Na4 O33 2.852290 1_655
Na4 O19 2.901952 1_556
Na5 O38 2.372520 1_555
Na5 O57 2.418882 1_555
Na5 O36 2.439978 1_545
Na5 O0 2.697896 1_555
Na5 O29 2.802270 1_545
Na5 O58 2.828704 1_555
Na5 O31 2.852290 1_545
Na5 O21 2.901952 1_555
Na6 O36 2.555519 1_655
Na6 O44 2.614493 1_555
Na6 O42 2.658597 1_565
Na6 O43 2.668321 1_665
Na6 O37 2.687569 1_555
Na6 O38 2.784496 1_665
Na7 O40 2.555519 1_545
Na7 O47 2.614493 1_556
Na7 O46 2.658597 1_456
Na7 O45 2.668321 1_446
Na7 O39 2.687569 1_555
Na7 O41 2.784496 1_445
Na8 O48 2.522552 1_555
Na8 O55 2.622715 1_555
Na8 O56 2.656861 1_555
Na8 O54 2.679937 1_555
Na8 O50 2.723971 1_555
Na8 O49 2.829306 1_555
Na9 O52 2.522552 1_555
Na9 O57 2.622715 1_555
Na9 O59 2.656861 1_555
Na9 O58 2.679937 1_555
Na9 O53 2.723971 1_555
Na9 O51 2.829306 1_555
Na10 O66 2.629584 1_555
Na10 O62 2.632662 1_555
Na10 O61 2.639634 1_555
Na10 O67 2.641795 1_555
Na10 O68 2.699818 1_555
Na10 O60 2.773306 1_555
Na11 O70 2.629584 1_555
Na11 O65 2.632662 1_555
Na11 O63 2.639634 1_555
Na11 O69 2.641795 1_555
Na11 O71 2.699818 1_555
Na11 O64 2.773306 1_555
O0 P0 1.509306 1_545
O0 Y0 2.231416 1_455
O1 P1 1.511080 1_555
O1 Y0 2.166849 1_565
O2 Si0 1.573123 1_655
O2 Y0 2.073181 1_555
O3 P2 1.511080 1_555
O3 Y1 2.166849 1_455
O4 P3 1.509306 1_655
O4 Y1 2.231415 1_565
O5 Si1 1.573123 1_545
O5 Y1 2.073181 1_555
O6 Si1 1.702770 1_555
O6 Ta0 1.979952 1_655
O7 P2 1.611002 1_555
O7 Ta0 2.004412 1_545
O8 P3 1.616647 1_555
O8 Ta0 2.027544 1_555
O9 P1 1.611002 1_555
O9 Ta1 2.004412 1_655
O10 Si0 1.702770 1_555
O10 Ta1 1.979952 1_545
O11 P0 1.616647 1_555
O11 Ta1 2.027544 1_555
O12 P4 1.504554 1_555
O12 Y2 2.155034 1_555
O13 Si2 1.594596 1_555
O13 Y2 2.131815 1_555
O14 P5 1.496916 1_555
O14 Y2 2.170525 1_555
O15 Si3 1.594596 1_555
O15 Y3 2.131815 1_555
O16 P6 1.504554 1_555
O16 Y3 2.155034 1_555
O17 P7 1.496916 1_555
O17 Y3 2.170525 1_555
O18 P7 1.603899 1_555
O18 Ta2 1.997811 1_554
O19 Si3 1.718323 1_555
O19 Ta2 1.979054 1_554
O20 P6 1.603309 1_555
O20 Ta2 2.038979 1_554
O21 Si2 1.718322 1_555
O21 Ta3 1.979054 1_555
O22 P5 1.603899 1_555
O22 Ta3 1.997811 1_555
O23 P4 1.603310 1_555
O23 Ta3 2.038979 1_555
O24 P8 1.496949 1_555
O24 Y4 2.177078 1_556
O25 P9 1.515184 1_555
O25 Y4 2.219908 1_556
O26 Si4 1.583832 1_555
O26 Y4 2.073241 1_556
O27 P10 1.515184 1_555
O27 Y5 2.219908 1_555
O28 P11 1.496949 1_555
O28 Y5 2.177078 1_555
O29 Si5 1.583832 1_555
O29 Y5 2.073241 1_555
O30 Si5 1.738068 1_555
O30 Ta4 1.921402 1_555
O31 P10 1.590050 1_555
O31 Ta4 2.119997 1_555
O32 P11 1.602510 1_555
O32 Ta4 2.000925 1_555
O33 P9 1.590050 1_555
O33 Ta5 2.119997 1_555
O34 Si4 1.738068 1_555
O34 Ta5 1.921402 1_555
O35 P8 1.602510 1_555
O35 Ta5 2.000925 1_555
O36 Si5 1.603731 1_555
O36 Y0 2.203620 1_465
O37 P10 1.514202 1_555
O37 Y0 2.201563 1_565
O38 P11 1.526792 1_555
O38 Y0 2.277957 1_455
O39 P9 1.514202 1_555
O39 Y1 2.201563 1_455
O40 Si4 1.603731 1_555
O40 Y1 2.203620 1_465
O41 P8 1.526792 1_555
O41 Y1 2.277957 1_565
O42 P4 1.588046 1_555
O42 Ta0 2.128285 1_645
O43 Si2 1.675807 1_555
O43 Ta0 1.965272 1_545
O44 P5 1.586753 1_555
O44 Ta0 2.091189 1_655
O45 Si3 1.675807 1_555
O45 Ta1 1.965272 1_655
O46 P6 1.588046 1_555
O46 Ta1 2.128285 1_645
O47 P7 1.586753 1_555
O47 Ta1 2.091189 1_545
O48 Si1 1.613209 1_545
O48 Y2 2.210945 1_555
O49 P2 1.522268 1_555
O49 Y2 2.239056 1_555
O50 P3 1.509885 1_655
O50 Y2 2.235222 1_555
O51 P1 1.522268 1_555
O51 Y3 2.239056 1_555
O52 Si0 1.613209 1_655
O52 Y3 2.210945 1_555
O53 P0 1.509885 1_545
O53 Y3 2.235222 1_555
O54 P8 1.586738 1_555
O54 Ta2 2.075833 1_555
O55 P9 1.597614 1_655
O55 Ta2 2.124921 1_555
O56 Si4 1.663844 1_545
O56 Ta2 1.974494 1_555
O57 P10 1.597614 1_545
O57 Ta3 2.124921 1_555
O58 P11 1.586738 1_555
O58 Ta3 2.075833 1_555
O59 Si5 1.663844 1_655
O59 Ta3 1.974494 1_555
O60 P7 1.522878 1_555
O60 Y4 2.285509 1_555
O61 Si3 1.614499 1_455
O61 Y4 2.190554 1_555
O62 P6 1.511212 1_565
O62 Y4 2.212834 1_555
O63 Si2 1.614499 1_565
O63 Y5 2.190554 1_555
O64 P5 1.522878 1_555
O64 Y5 2.285509 1_555
O65 P4 1.511212 1_455
O65 Y5 2.212834 1_555
O66 P0 1.585681 1_555
O66 Ta4 2.147058 1_555
O67 P1 1.562231 1_555
O67 Ta4 2.115627 1_555
O68 Si0 1.717594 1_555
O68 Ta4 1.934812 1_555
O69 P2 1.562231 1_555
O69 Ta5 2.115627 1_555
O70 P3 1.585681 1_555
O70 Ta5 2.147058 1_555
O71 Si1 1.717594 1_555
O71 Ta5 1.934812 1_555
