# generated using pymatgen
data_Rb2Sn3O7
_symmetry_space_group_name_H-M   'P 1'
_cell_length_a   17.32891200
_cell_length_b   3.21786900
_cell_length_c   13.32804400
_cell_angle_alpha   90.00000000
_cell_angle_beta   90.00000000
_cell_angle_gamma   90.00000000
_symmetry_Int_Tables_number   1
_chemical_formula_structural   Rb2Sn3O7
_chemical_formula_sum   'Rb8 Sn12 O28'
_cell_volume   743.20063835
_cell_formula_units_Z   4
loop_
 _symmetry_equiv_pos_site_id
 _symmetry_equiv_pos_as_xyz
  1  'x, y, z'
loop_
 _atom_site_type_symbol
 _atom_site_label
 _atom_site_symmetry_multiplicity
 _atom_site_fract_x
 _atom_site_fract_y
 _atom_site_fract_z
 _atom_site_occupancy
  Rb  Rb0  1  0.30338900  0.25000000  0.44068700  1
  Rb  Rb1  1  0.69661100  0.75000000  0.55931300  1
  Rb  Rb2  1  0.19661100  0.75000000  0.94068700  1
  Rb  Rb3  1  0.80338900  0.25000000  0.05931300  1
  Rb  Rb4  1  0.43422400  0.25000000  0.89405600  1
  Rb  Rb5  1  0.56577600  0.75000000  0.10594400  1
  Rb  Rb6  1  0.06577600  0.75000000  0.39405600  1
  Rb  Rb7  1  0.93422400  0.25000000  0.60594400  1
  Sn  Sn0  1  0.01767200  0.25000000  0.10982500  1
  Sn  Sn1  1  0.98232800  0.75000000  0.89017500  1
  Sn  Sn2  1  0.48232800  0.75000000  0.60982500  1
  Sn  Sn3  1  0.51767200  0.25000000  0.39017500  1
  Sn  Sn4  1  0.29340800  0.25000000  0.70587900  1
  Sn  Sn5  1  0.70659200  0.75000000  0.29412100  1
  Sn  Sn6  1  0.20659200  0.75000000  0.20587900  1
  Sn  Sn7  1  0.79340800  0.25000000  0.79412100  1
  Sn  Sn8  1  0.37363700  0.25000000  0.17209500  1
  Sn  Sn9  1  0.62636300  0.75000000  0.82790500  1
  Sn  Sn10  1  0.12636300  0.75000000  0.67209500  1
  Sn  Sn11  1  0.87363700  0.25000000  0.32790500  1
  O  O0  1  0.09726100  0.25000000  0.57978700  1
  O  O1  1  0.90273900  0.75000000  0.42021300  1
  O  O2  1  0.40273900  0.75000000  0.07978700  1
  O  O3  1  0.59726100  0.25000000  0.92021300  1
  O  O4  1  0.17733400  0.25000000  0.75938000  1
  O  O5  1  0.82266600  0.75000000  0.24062000  1
  O  O6  1  0.32266600  0.75000000  0.25938000  1
  O  O7  1  0.67733400  0.25000000  0.74062000  1
  O  O8  1  0.17662400  0.25000000  0.29644700  1
  O  O9  1  0.82337600  0.75000000  0.70355300  1
  O  O10  1  0.32337600  0.75000000  0.79644700  1
  O  O11  1  0.67662400  0.25000000  0.20355300  1
  O  O12  1  0.25066400  0.25000000  0.11408400  1
  O  O13  1  0.74933600  0.75000000  0.88591600  1
  O  O14  1  0.24933600  0.75000000  0.61408400  1
  O  O15  1  0.75066400  0.25000000  0.38591600  1
  O  O16  1  0.40249600  0.25000000  0.63082800  1
  O  O17  1  0.59750400  0.75000000  0.36917200  1
  O  O18  1  0.09750400  0.75000000  0.13082800  1
  O  O19  1  0.90249600  0.25000000  0.86917200  1
  O  O20  1  0.47621000  0.25000000  0.24936600  1
  O  O21  1  0.52379000  0.75000000  0.75063400  1
  O  O22  1  0.02379000  0.75000000  0.74936600  1
  O  O23  1  0.97621000  0.25000000  0.25063400  1
  O  O24  1  0.55025200  0.25000000  0.55115200  1
  O  O25  1  0.44974800  0.75000000  0.44884800  1
  O  O26  1  0.94974800  0.75000000  0.05115200  1
  O  O27  1  0.05025200  0.25000000  0.94884800  1
loop_
_geom_bond_atom_site_label_1
_geom_bond_atom_site_label_2
_geom_bond_distance
_geom_bond_site_symmetry_2
O0 Sn10 2.087246 1_545
O0 Sn10 2.087246 1_555
O0 Rb7 2.846682 1_455
O0 Rb6 3.002351 1_545
O0 Rb6 3.002351 1_555
O1 Sn11 2.087246 1_555
O1 Sn11 2.087246 1_565
O1 Rb6 2.846682 1_655
O1 Rb7 3.002351 1_565
O1 Rb7 3.002351 1_555
O2 Sn8 2.087246 1_555
O2 Sn8 2.087246 1_565
O2 Rb5 2.846682 1_555
O2 Rb4 3.002351 1_564
O2 Rb4 3.002351 1_554
O3 Sn9 2.087246 1_555
O3 Sn9 2.087246 1_545
O3 Rb4 2.846682 1_555
O3 Rb5 3.002351 1_556
O3 Rb5 3.002351 1_546
O4 Sn4 2.134089 1_555
O4 Sn10 2.173061 1_545
O4 Sn10 2.173061 1_555
O4 Rb2 2.922255 1_545
O4 Rb2 2.922255 1_555
O5 Sn5 2.134089 1_555
O5 Sn11 2.173061 1_555
O5 Sn11 2.173061 1_565
O5 Rb3 2.922255 1_565
O5 Rb3 2.922255 1_555
O6 Sn6 2.134089 1_555
O6 Sn8 2.173061 1_565
O6 Sn8 2.173061 1_555
O6 Rb0 2.922255 1_565
O6 Rb0 2.922255 1_555
O7 Sn7 2.134089 1_555
O7 Sn9 2.173061 1_545
O7 Sn9 2.173061 1_555
O7 Rb1 2.922255 1_555
O7 Rb1 2.922255 1_545
O8 Sn6 2.077362 1_545
O8 Sn6 2.077362 1_555
O8 Rb6 2.823273 1_545
O8 Rb6 2.823273 1_555
O8 Rb0 2.919119 1_555
O9 Sn7 2.077362 1_555
O9 Sn7 2.077362 1_565
O9 Rb7 2.823273 1_555
O9 Rb7 2.823273 1_565
O9 Rb1 2.919119 1_555
O10 Sn4 2.077362 1_565
O10 Sn4 2.077362 1_555
O10 Rb4 2.823273 1_565
O10 Rb4 2.823273 1_555
O10 Rb2 2.919119 1_555
O11 Sn5 2.077362 1_545
O11 Sn5 2.077362 1_555
O11 Rb5 2.823273 1_555
O11 Rb5 2.823273 1_545
O11 Rb3 2.919119 1_555
O12 Sn6 2.160732 1_555
O12 Sn6 2.160732 1_545
O12 Sn8 2.266916 1_555
O12 Rb2 2.967652 1_544
O12 Rb2 2.967652 1_554
O13 Sn7 2.160732 1_555
O13 Sn7 2.160732 1_565
O13 Sn9 2.266916 1_555
O13 Rb3 2.967652 1_556
O13 Rb3 2.967652 1_566
O14 Sn4 2.160732 1_555
O14 Sn4 2.160732 1_565
O14 Sn10 2.266916 1_555
O14 Rb0 2.967652 1_565
O14 Rb0 2.967652 1_555
O15 Sn5 2.160732 1_545
O15 Sn5 2.160732 1_555
O15 Sn11 2.266916 1_555
O15 Rb1 2.967652 1_545
O15 Rb1 2.967652 1_555
O16 Sn4 2.138712 1_555
O16 Sn2 2.140288 1_545
O16 Sn2 2.140288 1_555
O16 Rb0 3.061328 1_555
O17 Sn5 2.138712 1_555
O17 Sn3 2.140288 1_565
O17 Sn3 2.140288 1_555
O17 Rb1 3.061328 1_555
O18 Sn6 2.138712 1_555
O18 Sn0 2.140288 1_565
O18 Sn0 2.140288 1_555
O18 Rb2 3.061328 1_554
O19 Sn7 2.138712 1_555
O19 Sn1 2.140288 1_545
O19 Sn1 2.140288 1_555
O19 Rb3 3.061328 1_556
O20 Sn3 2.009543 1_555
O20 Sn8 2.054280 1_555
O20 Rb5 2.941359 1_545
O20 Rb5 2.941359 1_555
O21 Sn2 2.009543 1_555
O21 Sn9 2.054280 1_555
O21 Rb4 2.941359 1_555
O21 Rb4 2.941359 1_565
O22 Sn1 2.009543 1_455
O22 Sn10 2.054280 1_555
O22 Rb7 2.941359 1_465
O22 Rb7 2.941359 1_455
O23 Sn0 2.009543 1_655
O23 Sn11 2.054280 1_555
O23 Rb6 2.941359 1_645
O23 Rb6 2.941359 1_655
O24 Sn2 2.141409 1_555
O24 Sn2 2.141409 1_545
O24 Sn3 2.218547 1_555
O24 Rb1 3.005499 1_555
O24 Rb1 3.005499 1_545
O25 Sn3 2.141409 1_565
O25 Sn3 2.141409 1_555
O25 Sn2 2.218547 1_555
O25 Rb0 3.005499 1_555
O25 Rb0 3.005499 1_565
O26 Sn0 2.141409 1_655
O26 Sn0 2.141409 1_665
O26 Sn1 2.218547 1_554
O26 Rb3 3.005499 1_555
O26 Rb3 3.005499 1_565
O27 Sn1 2.141409 1_455
O27 Sn1 2.141409 1_445
O27 Sn0 2.218547 1_556
O27 Rb2 3.005499 1_545
O27 Rb2 3.005499 1_555
