# generated using pymatgen
data_KMnP
_symmetry_space_group_name_H-M   'P 1'
_cell_length_a   3.79137495
_cell_length_b   3.79137495
_cell_length_c   10.64490723
_cell_angle_alpha   90.00000000
_cell_angle_beta   90.00000000
_cell_angle_gamma   90.00000000
_symmetry_Int_Tables_number   1
_chemical_formula_structural   KMnP
_chemical_formula_sum   'K2 Mn2 P2'
_cell_volume   153.01547458
_cell_formula_units_Z   2
loop_
 _symmetry_equiv_pos_site_id
 _symmetry_equiv_pos_as_xyz
  1  'x, y, z'
loop_
 _atom_site_type_symbol
 _atom_site_label
 _atom_site_symmetry_multiplicity
 _atom_site_fract_x
 _atom_site_fract_y
 _atom_site_fract_z
 _atom_site_occupancy
  K  K0  1  0.75000000  0.75000000  0.29779398  1
  K  K1  1  0.25000000  0.25000000  0.70220602  1
  Mn  Mn0  1  0.25000000  0.75000000  -0.00000000  1
  Mn  Mn1  1  0.75000000  0.25000000  -0.00000000  1
  P  P0  1  0.75000000  0.75000000  0.87610727  1
  P  P1  1  0.25000000  0.25000000  0.12389273  1
loop_
_geom_bond_atom_site_label_1
_geom_bond_atom_site_label_2
_geom_bond_distance
_geom_bond_site_symmetry_2
K0 P1 3.257923 1_565
K0 P1 3.257923 1_555
K0 P1 3.257923 1_665
K0 P1 3.257923 1_655
K1 P0 3.257923 1_455
K1 P0 3.257923 1_545
K1 P0 3.257923 1_445
K1 P0 3.257923 1_555
Mn0 P0 2.309315 1_454
Mn0 P1 2.309315 1_555
Mn0 P1 2.309315 1_565
Mn0 P0 2.309315 1_554
Mn1 P1 2.309315 1_555
Mn1 P1 2.309315 1_655
Mn1 P0 2.309315 1_544
Mn1 P0 2.309315 1_554
