# generated using pymatgen
data_S7(N3O4)2
_symmetry_space_group_name_H-M   'P 1'
_cell_length_a   12.14905300
_cell_length_b   12.14905300
_cell_length_c   5.17107800
_cell_angle_alpha   90.00000000
_cell_angle_beta   90.00000000
_cell_angle_gamma   90.00000000
_symmetry_Int_Tables_number   1
_chemical_formula_structural   S7(N3O4)2
_chemical_formula_sum   'S14 N12 O16'
_cell_volume   763.24846933
_cell_formula_units_Z   2
loop_
 _symmetry_equiv_pos_site_id
 _symmetry_equiv_pos_as_xyz
  1  'x, y, z'
loop_
 _atom_site_type_symbol
 _atom_site_label
 _atom_site_symmetry_multiplicity
 _atom_site_fract_x
 _atom_site_fract_y
 _atom_site_fract_z
 _atom_site_occupancy
  S  S0  1  0.50000000  0.00000000  0.40354900  1
  S  S1  1  0.53802400  0.21141200  0.11569400  1
  S  S2  1  0.46197600  0.78858800  0.11569400  1
  S  S3  1  0.21141200  0.46197600  0.88430600  1
  S  S4  1  0.78858800  0.53802400  0.88430600  1
  S  S5  1  0.71141200  0.03802400  0.11569400  1
  S  S6  1  0.96197600  0.71141200  0.88430600  1
  S  S7  1  0.03802400  0.28858800  0.88430600  1
  S  S8  1  0.28858800  0.96197600  0.11569400  1
  S  S9  1  0.00000000  0.50000000  0.59645100  1
  S  S10  1  0.24455000  0.74455000  0.29723000  1
  S  S11  1  0.25545000  0.24455000  0.70277000  1
  S  S12  1  0.74455000  0.75545000  0.70277000  1
  S  S13  1  0.75545000  0.25545000  0.29723000  1
  N  N0  1  0.63490100  0.29034300  0.24288900  1
  N  N1  1  0.20965700  0.86509900  0.24288900  1
  N  N2  1  0.42131000  0.92131000  0.20789100  1
  N  N3  1  0.07869000  0.42131000  0.79210900  1
  N  N4  1  0.92131000  0.57869000  0.79210900  1
  N  N5  1  0.57869000  0.07869000  0.20789100  1
  N  N6  1  0.36509900  0.70965700  0.24288900  1
  N  N7  1  0.29034300  0.36509900  0.75711100  1
  N  N8  1  0.70965700  0.63490100  0.75711100  1
  N  N9  1  0.79034300  0.13490100  0.24288900  1
  N  N10  1  0.86509900  0.79034300  0.75711100  1
  N  N11  1  0.13490100  0.20965700  0.75711100  1
  O  O0  1  0.54540700  0.21936400  0.83952900  1
  O  O1  1  0.26623800  0.06271900  0.24738000  1
  O  O2  1  0.43728100  0.23376200  0.24738000  1
  O  O3  1  0.93728100  0.26623800  0.75262000  1
  O  O4  1  0.06271900  0.73376200  0.75262000  1
  O  O5  1  0.73376200  0.93728100  0.24738000  1
  O  O6  1  0.76623800  0.43728100  0.75262000  1
  O  O7  1  0.23376200  0.56271900  0.75262000  1
  O  O8  1  0.56271900  0.76623800  0.24738000  1
  O  O9  1  0.21936400  0.45459300  0.16047100  1
  O  O10  1  0.28063600  0.95459300  0.83952900  1
  O  O11  1  0.04540700  0.28063600  0.16047100  1
  O  O12  1  0.95459300  0.71936400  0.16047100  1
  O  O13  1  0.71936400  0.04540700  0.83952900  1
  O  O14  1  0.78063600  0.54540700  0.16047100  1
  O  O15  1  0.45459300  0.78063600  0.83952900  1
loop_
_geom_bond_atom_site_label_1
_geom_bond_atom_site_label_2
_geom_bond_distance
_geom_bond_site_symmetry_2
N0 S13 1.550352 1_555
N0 S1 1.654515 1_555
N1 S10 1.550352 1_555
N1 S8 1.654515 1_555
N2 S0 1.688659 1_565
N2 S8 1.752533 1_555
N2 S2 1.752533 1_555
N3 S9 1.688659 1_555
N3 S3 1.752533 1_555
N3 S7 1.752533 1_555
N4 S9 1.688659 1_655
N4 S6 1.752533 1_555
N4 S4 1.752533 1_555
N5 S0 1.688659 1_555
N5 S5 1.752533 1_555
N5 S1 1.752533 1_555
N6 S10 1.550352 1_555
N6 S2 1.654515 1_555
N7 S11 1.550352 1_555
N7 S3 1.654515 1_555
N8 S12 1.550352 1_555
N8 S4 1.654515 1_555
N9 S13 1.550352 1_555
N9 S5 1.654515 1_555
N10 S12 1.550352 1_555
N10 S6 1.654515 1_555
N11 S11 1.550352 1_555
N11 S7 1.654515 1_555
O0 S1 1.434143 1_556
O1 S8 1.426690 1_545
O2 S1 1.426690 1_555
O3 S7 1.426690 1_655
O4 S6 1.426690 1_455
O5 S5 1.426690 1_565
O6 S4 1.426690 1_555
O7 S3 1.426690 1_555
O8 S2 1.426690 1_555
O9 S3 1.434143 1_554
O10 S8 1.434143 1_556
O11 S7 1.434143 1_554
O12 S6 1.434143 1_554
O13 S5 1.434143 1_556
O14 S4 1.434143 1_554
O15 S2 1.434143 1_556
