# generated using pymatgen
data_Na9Ca2Nb4Si6(PO12)3
_symmetry_space_group_name_H-M   'P 1'
_cell_length_a   9.19925663
_cell_length_b   27.54998605
_cell_length_c   22.52027462
_cell_angle_alpha   89.90396474
_cell_angle_beta   90.02784411
_cell_angle_gamma   119.96364472
_symmetry_Int_Tables_number   1
_chemical_formula_structural   Na9Ca2Nb4Si6(PO12)3
_chemical_formula_sum   'Na54 Ca12 Nb24 Si36 P18 O216'
_cell_volume   4944.66380450
_cell_formula_units_Z   6
loop_
 _symmetry_equiv_pos_site_id
 _symmetry_equiv_pos_as_xyz
  1  'x, y, z'
loop_
 _atom_site_type_symbol
 _atom_site_label
 _atom_site_symmetry_multiplicity
 _atom_site_fract_x
 _atom_site_fract_y
 _atom_site_fract_z
 _atom_site_occupancy
  Na  Na0  1  0.02018137  0.99910632  0.49590984  1
  Na  Na1  1  0.00888181  0.32990943  0.50148151  1
  Na  Na2  1  0.99706522  0.66649887  0.49914573  1
  Na  Na3  1  0.98491016  0.00592723  0.00209691  1
  Na  Na4  1  0.01865805  0.34049532  0.00056363  1
  Na  Na5  1  0.00101301  0.66739350  0.00527755  1
  Na  Na6  1  0.68895500  0.11096980  0.83388736  1
  Na  Na7  1  0.64524220  0.44445928  0.84235646  1
  Na  Na8  1  0.68065389  0.77636405  0.82826390  1
  Na  Na9  1  0.66382529  0.10724874  0.32676277  1
  Na  Na10  1  0.67023119  0.44158930  0.33593569  1
  Na  Na11  1  0.66773698  0.77990815  0.33357770  1
  Na  Na12  1  0.32447357  0.21970887  0.16395529  1
  Na  Na13  1  0.31374035  0.55655951  0.16953842  1
  Na  Na14  1  0.33675290  0.89344389  0.16448703  1
  Na  Na15  1  0.32194258  0.21764552  0.66576760  1
  Na  Na16  1  0.34239238  0.55597408  0.66957894  1
  Na  Na17  1  0.28670597  0.88362043  0.66208549  1
  Na  Na18  1  0.63445429  0.66259957  0.25676831  1
  Na  Na19  1  0.37967883  0.12065478  0.24427813  1
  Na  Na20  1  0.35679461  0.45719505  0.25642299  1
  Na  Na21  1  0.34697159  0.78662345  0.23901504  1
  Na  Na22  1  0.99638386  0.21199412  0.24304264  1
  Na  Na23  1  0.02552269  0.54987325  0.24913316  1
  Na  Na24  1  0.60923173  0.20658298  0.74782441  1
  Na  Na25  1  0.61657204  0.54020153  0.75848305  1
  Na  Na26  1  0.62147540  0.86968687  0.74530655  1
  Na  Na27  1  0.99008188  0.12592454  0.74960004  1
  Na  Na28  1  0.01829824  0.46218014  0.75512897  1
  Na  Na29  1  0.38969651  0.00444943  0.74379695  1
  Na  Na30  1  0.37590606  0.32867929  0.75679906  1
  Na  Na31  1  0.38071280  0.66773250  0.74968832  1
  Na  Na32  1  0.31671918  0.78134321  0.57454487  1
  Na  Na33  1  0.01520050  0.56398139  0.57403752  1
  Na  Na34  1  0.67284267  0.32613924  0.57470743  1
  Na  Na35  1  0.65532233  0.98852856  0.57606134  1
  Na  Na36  1  0.30960615  0.32809866  0.07249145  1
  Na  Na37  1  0.30779189  0.98628763  0.07478361  1
  Na  Na38  1  0.65943197  0.22638350  0.08915355  1
  Na  Na39  1  0.68254332  0.57132369  0.08719719  1
  Na  Na40  1  0.66132238  0.90062385  0.07207207  1
  Na  Na41  1  0.05531081  0.77962852  0.08353015  1
  Na  Na42  1  0.96517903  0.55023570  0.92607454  1
  Na  Na43  1  0.99084875  0.89302855  0.91978027  1
  Na  Na44  1  0.69138724  0.34404390  0.92487674  1
  Na  Na45  1  0.34604845  0.10545907  0.91100889  1
  Na  Na46  1  0.32788277  0.77092294  0.92450377  1
  Na  Na47  1  0.97783153  0.09829500  0.41024801  1
  Na  Na48  1  0.95169035  0.43453244  0.42324624  1
  Na  Na49  1  0.99347208  0.77247319  0.42849894  1
  Na  Na50  1  0.30730157  0.00651385  0.41708603  1
  Na  Na51  1  0.34373074  0.34526581  0.42703101  1
  Na  Na52  1  0.69654987  0.55206995  0.42662602  1
  Na  Na53  1  0.69848474  0.89334362  0.40831829  1
  Ca  Ca0  1  0.98847581  0.99638022  0.34470064  1
  Ca  Ca1  1  0.00857234  0.67063550  0.14566369  1
  Ca  Ca2  1  0.67827721  0.11643378  0.68221592  1
  Ca  Ca3  1  0.66701827  0.77428282  0.68856333  1
  Ca  Ca4  1  0.67894820  0.11637281  0.18066647  1
  Ca  Ca5  1  0.64968240  0.43958684  0.98609261  1
  Ca  Ca6  1  0.66045292  0.44253114  0.48845024  1
  Ca  Ca7  1  0.33160398  0.88795851  0.01473638  1
  Ca  Ca8  1  0.32729007  0.88692423  0.51689100  1
  Ca  Ca9  1  0.34206127  0.55941413  0.32020887  1
  Ca  Ca10  1  0.32303904  0.21667270  0.81745923  1
  Ca  Ca11  1  0.34049864  0.56027956  0.81505699  1
  Nb  Nb0  1  0.99139322  0.33329978  0.35406806  1
  Nb  Nb1  1  0.01050898  0.66678769  0.34979624  1
  Nb  Nb2  1  0.00001136  0.00164630  0.85503024  1
  Nb  Nb3  1  0.00853526  0.33584059  0.85513907  1
  Nb  Nb4  1  0.99028187  0.66317217  0.85550178  1
  Nb  Nb5  1  0.00168601  0.99811313  0.64343562  1
  Nb  Nb6  1  0.00116983  0.33194391  0.64501276  1
  Nb  Nb7  1  0.00065376  0.67091941  0.64523207  1
  Nb  Nb8  1  0.99538021  0.99958504  0.15135394  1
  Nb  Nb9  1  0.99059620  0.33047843  0.14822719  1
  Nb  Nb10  1  0.66807272  0.44443930  0.68318048  1
  Nb  Nb11  1  0.66599839  0.44103986  0.18333142  1
  Nb  Nb12  1  0.66100947  0.77458056  0.18763192  1
  Nb  Nb13  1  0.67085042  0.11041621  0.98464993  1
  Nb  Nb14  1  0.67125874  0.78067990  0.97755166  1
  Nb  Nb15  1  0.66939479  0.11526892  0.48495261  1
  Nb  Nb16  1  0.67218951  0.77794913  0.48261766  1
  Nb  Nb17  1  0.33008511  0.22120623  0.01301900  1
  Nb  Nb18  1  0.33001339  0.55529519  0.01838327  1
  Nb  Nb19  1  0.33628232  0.22349608  0.52063208  1
  Nb  Nb20  1  0.33746141  0.55626772  0.51898153  1
  Nb  Nb21  1  0.34138359  0.22167799  0.31327596  1
  Nb  Nb22  1  0.32607389  0.89003190  0.31574645  1
  Nb  Nb23  1  0.33102765  0.88888448  0.81476028  1
  Si  Si0  1  0.28841584  0.33309164  0.25078799  1
  Si  Si1  1  0.30104946  0.66504972  0.24597110  1
  Si  Si2  1  0.70250952  0.23458201  0.25141227  1
  Si  Si3  1  0.68576300  0.89901301  0.25056943  1
  Si  Si4  1  0.98947440  0.42837914  0.25087602  1
  Si  Si5  1  0.99658488  0.76609072  0.24899213  1
  Si  Si6  1  0.29585978  0.42830627  0.74892244  1
  Si  Si7  1  0.28241641  0.76284981  0.75221423  1
  Si  Si8  1  0.99686362  0.57052975  0.74784701  1
  Si  Si9  1  0.00809816  0.90509314  0.75179346  1
  Si  Si10  1  0.70905807  0.99790399  0.74963408  1
  Si  Si11  1  0.71541030  0.33507033  0.74826077  1
  Si  Si12  1  0.96722200  0.11035980  0.58521397  1
  Si  Si13  1  0.96968839  0.44401938  0.58055709  1
  Si  Si14  1  0.36447223  0.34181094  0.58271599  1
  Si  Si15  1  0.36818274  0.67907991  0.58615936  1
  Si  Si16  1  0.66748462  0.21283973  0.58831993  1
  Si  Si17  1  0.66305077  0.54480037  0.58332278  1
  Si  Si18  1  0.97251925  0.21245580  0.08504397  1
  Si  Si19  1  0.95591906  0.87488775  0.08503222  1
  Si  Si20  1  0.66212688  0.34147621  0.07940533  1
  Si  Si21  1  0.65960047  0.68094264  0.08115709  1
  Si  Si22  1  0.36398074  0.11056178  0.08477860  1
  Si  Si23  1  0.36546862  0.44448238  0.08701126  1
  Si  Si24  1  0.63831629  0.22286599  0.91550082  1
  Si  Si25  1  0.63439736  0.89006135  0.91684778  1
  Si  Si26  1  0.02749804  0.12201216  0.91131911  1
  Si  Si27  1  0.03331857  0.78846215  0.91857734  1
  Si  Si28  1  0.33082046  0.65544784  0.91402423  1
  Si  Si29  1  0.34019407  0.99042608  0.91781295  1
  Si  Si30  1  0.62828781  0.32018412  0.41679480  1
  Si  Si31  1  0.64014903  0.65516596  0.41595649  1
  Si  Si32  1  0.34466038  0.12715132  0.41708126  1
  Si  Si33  1  0.34099189  0.78984761  0.41700778  1
  Si  Si34  1  0.04690443  0.22220787  0.41565541  1
  Si  Si35  1  0.03097396  0.89038200  0.42017909  1
  P  P0  1  0.29610504  0.99820908  0.25227683  1
  P  P1  1  0.71190885  0.56580265  0.24785893  1
  P  P2  1  0.01180972  0.10217411  0.25271760  1
  P  P3  1  0.28042087  0.09617664  0.74815578  1
  P  P4  1  0.99112453  0.23729252  0.75231348  1
  P  P5  1  0.71542474  0.66656012  0.75018620  1
  P  P6  1  0.96532623  0.77739084  0.58612783  1
  P  P7  1  0.36996742  0.01386751  0.58634638  1
  P  P8  1  0.67791754  0.87707441  0.58571428  1
  P  P9  1  0.96571174  0.54062983  0.07999737  1
  P  P10  1  0.67001322  0.01299182  0.08732550  1
  P  P11  1  0.38054412  0.77781080  0.08243504  1
  P  P12  1  0.63129311  0.55635223  0.91580281  1
  P  P13  1  0.04124662  0.45624504  0.91329619  1
  P  P14  1  0.33030544  0.32176189  0.91105343  1
  P  P15  1  0.62229823  0.99073787  0.41867000  1
  P  P16  1  0.32144914  0.45466471  0.41575364  1
  P  P17  1  0.03171192  0.55575404  0.41263335  1
  O  O0  1  0.22710561  0.00487853  0.31123724  1
  O  O1  1  0.19932368  0.34663412  0.30774037  1
  O  O2  1  0.18352994  0.66692092  0.30490715  1
  O  O3  1  0.83180337  0.27726193  0.30428667  1
  O  O4  1  0.82639493  0.59895697  0.30321618  1
  O  O5  1  0.77645036  0.91512470  0.31299536  1
  O  O6  1  0.01105746  0.07618852  0.31194541  1
  O  O7  1  0.98288706  0.39630541  0.31483160  1
  O  O8  1  0.96645849  0.71853967  0.30212148  1
  O  O9  1  0.18074413  0.06743264  0.80595976  1
  O  O10  1  0.19752623  0.39255515  0.81027282  1
  O  O11  1  0.16577284  0.71827541  0.80571881  1
  O  O12  1  0.99845827  0.27524193  0.80667963  1
  O  O13  1  0.97727343  0.59812851  0.81104934  1
  O  O14  1  0.02032367  0.94674754  0.80711433  1
  O  O15  1  0.82856953  0.00144673  0.80635263  1
  O  O16  1  0.83801593  0.34262149  0.80729233  1
  O  O17  1  0.80838407  0.65861686  0.80459010  1
  O  O18  1  0.81235126  0.32996908  0.68971234  1
  O  O19  1  0.83411541  0.67505848  0.69627582  1
  O  O20  1  0.80741714  0.99135910  0.68987422  1
  O  O21  1  0.17015517  0.05833766  0.69475345  1
  O  O22  1  0.17231150  0.38719135  0.69663281  1
  O  O23  1  0.18334152  0.73467089  0.68853952  1
  O  O24  1  0.97683756  0.26826013  0.69704654  1
  O  O25  1  0.01147847  0.61436314  0.69416147  1
  O  O26  1  0.02105840  0.94260523  0.69123531  1
  O  O27  1  0.80025367  0.26495382  0.18964636  1
  O  O28  1  0.77901501  0.59942430  0.19092049  1
  O  O29  1  0.80578118  0.94519064  0.19745274  1
  O  O30  1  0.02003692  0.06349277  0.20089797  1
  O  O31  1  0.98658233  0.38383670  0.20142978  1
  O  O32  1  0.05097578  0.75149089  0.18737975  1
  O  O33  1  0.16291785  0.31992792  0.19349300  1
  O  O34  1  0.18382250  0.65661375  0.19145969  1
  O  O35  1  0.16877858  0.99197109  0.19916234  1
  O  O36  1  0.91492248  0.12289195  0.64821015  1
  O  O37  1  0.86354734  0.45477235  0.63566817  1
  O  O38  1  0.87784958  0.77900822  0.64128373  1
  O  O39  1  0.46201896  0.04116752  0.64363424  1
  O  O40  1  0.50486437  0.38140464  0.63626593  1
  O  O41  1  0.44867700  0.69337630  0.65037567  1
  O  O42  1  0.63581568  0.18445946  0.65166668  1
  O  O43  1  0.63616482  0.50078937  0.63909205  1
  O  O44  1  0.65215217  0.84391613  0.64232879  1
  O  O45  1  0.93116800  0.18663468  0.14986479  1
  O  O46  1  0.86696129  0.50137929  0.13576582  1
  O  O47  1  0.83309484  0.82901840  0.13624527  1
  O  O48  1  0.64822312  0.03959768  0.14213193  1
  O  O49  1  0.63901228  0.38186264  0.13216749  1
  O  O50  1  0.64310958  0.70777795  0.14507212  1
  O  O51  1  0.47464480  0.13416481  0.14400317  1
  O  O52  1  0.50127353  0.45751368  0.14371917  1
  O  O53  1  0.46957775  0.76855909  0.13704442  1
  O  O54  1  0.46303538  0.09651192  0.03190268  1
  O  O55  1  0.41758380  0.41924995  0.03304584  1
  O  O56  1  0.49653049  0.78708609  0.02727182  1
  O  O57  1  0.82159082  0.16954689  0.03908688  1
  O  O58  1  0.87402029  0.51422042  0.02272783  1
  O  O59  1  0.85272907  0.84818723  0.02178316  1
  O  O60  1  0.68250709  0.04845257  0.03090003  1
  O  O61  1  0.69629234  0.37190407  0.01728219  1
  O  O62  1  0.67593793  0.72673469  0.02977555  1
  O  O63  1  0.46869199  0.05233678  0.53046652  1
  O  O64  1  0.41976145  0.37344356  0.52082513  1
  O  O65  1  0.48797774  0.72782466  0.53563685  1
  O  O66  1  0.68711082  0.17273399  0.53515317  1
  O  O67  1  0.72359229  0.52774835  0.52440362  1
  O  O68  1  0.69162930  0.84463794  0.52969910  1
  O  O69  1  0.82646307  0.09992783  0.53101855  1
  O  O70  1  0.85830162  0.42487227  0.52154120  1
  O  O71  1  0.86540295  0.77841048  0.52885244  1
  O  O72  1  0.53729296  0.23609858  0.96955620  1
  O  O73  1  0.52316693  0.55860710  0.96968220  1
  O  O74  1  0.57109019  0.89969567  0.97871170  1
  O  O75  1  0.17859635  0.16541837  0.95841011  1
  O  O76  1  0.15637969  0.49058792  0.96769095  1
  O  O77  1  0.13875525  0.80383092  0.97895508  1
  O  O78  1  0.32704304  0.28662142  0.96684253  1
  O  O79  1  0.30429859  0.60691475  0.96533153  1
  O  O80  1  0.27605654  0.95203452  0.97631370  1
  O  O81  1  0.53499900  0.28946765  0.47821995  1
  O  O82  1  0.51908642  0.60637268  0.46595370  1
  O  O83  1  0.55949662  0.95914612  0.47686693  1
  O  O84  1  0.34039760  0.17019592  0.46651769  1
  O  O85  1  0.30573835  0.49027235  0.46797228  1
  O  O86  1  0.28313856  0.80390798  0.47818395  1
  O  O87  1  0.17998291  0.23738365  0.47031039  1
  O  O88  1  0.14329817  0.55820201  0.46673369  1
  O  O89  1  0.14524608  0.90017866  0.47613693  1
  O  O90  1  0.13116516  0.20871676  0.35691678  1
  O  O91  1  0.10359561  0.55051512  0.35373824  1
  O  O92  1  0.14467165  0.88578366  0.36219196  1
  O  O93  1  0.50081452  0.27863180  0.36255959  1
  O  O94  1  0.55703756  0.64026355  0.35222640  1
  O  O95  1  0.49980966  0.95511934  0.36594586  1
  O  O96  1  0.35284387  0.16023514  0.35303422  1
  O  O97  1  0.33108059  0.48238115  0.35654909  1
  O  O98  1  0.37121426  0.83665890  0.36416167  1
  O  O99  1  0.06834471  0.14755126  0.84628959  1
  O  O100  1  0.11827141  0.48703046  0.85537467  1
  O  O101  1  0.14361678  0.83618590  0.86602534  1
  O  O102  1  0.33556150  0.29345922  0.85379069  1
  O  O103  1  0.36603396  0.63952808  0.85016683  1
  O  O104  1  0.36081485  0.95486628  0.86112164  1
  O  O105  1  0.52797986  0.20310599  0.85596185  1
  O  O106  1  0.54508353  0.55182228  0.85698984  1
  O  O107  1  0.50312177  0.88168275  0.86165210  1
  O  O108  1  0.03076686  0.27876416  0.40549586  1
  O  O109  1  0.01710879  0.61078395  0.41430486  1
  O  O110  1  0.99095280  0.94049485  0.41512691  1
  O  O111  1  0.81627195  0.32526055  0.41226844  1
  O  O112  1  0.82798488  0.66017273  0.41651956  1
  O  O113  1  0.80014542  0.00203926  0.40728310  1
  O  O114  1  0.18063493  0.06629115  0.42149881  1
  O  O115  1  0.15626349  0.39561304  0.41998690  1
  O  O116  1  0.17697235  0.72886989  0.39694602  1
  O  O117  1  0.02697119  0.06183881  0.91648563  1
  O  O118  1  0.02907733  0.39696941  0.91531828  1
  O  O119  1  0.00174930  0.72618263  0.90021439  1
  O  O120  1  0.16494349  0.32564250  0.91427615  1
  O  O121  1  0.15135738  0.65770802  0.91615570  1
  O  O122  1  0.18705059  0.00426867  0.90373884  1
  O  O123  1  0.81983678  0.28226322  0.91051147  1
  O  O124  1  0.80674254  0.61265181  0.91898282  1
  O  O125  1  0.83116062  0.94129914  0.90675323  1
  O  O126  1  0.97185953  0.05032076  0.58627154  1
  O  O127  1  0.00422437  0.39249620  0.59631583  1
  O  O128  1  0.96950454  0.72020878  0.58141412  1
  O  O129  1  0.19212428  0.00932224  0.58531137  1
  O  O130  1  0.17559056  0.32976383  0.59821049  1
  O  O131  1  0.17770072  0.67371596  0.58343038  1
  O  O132  1  0.83513354  0.27613403  0.58310318  1
  O  O133  1  0.82092088  0.60753249  0.59996558  1
  O  O134  1  0.84496022  0.93564695  0.58549027  1
  O  O135  1  0.98732714  0.27538579  0.08130259  1
  O  O136  1  0.97720987  0.59751632  0.08652258  1
  O  O137  1  0.96273274  0.93621737  0.09477738  1
  O  O138  1  0.83754035  0.00911916  0.08996749  1
  O  O139  1  0.81649145  0.33015218  0.09572744  1
  O  O140  1  0.82129888  0.67348218  0.07665582  1
  O  O141  1  0.18152369  0.05164585  0.09351088  1
  O  O142  1  0.17573556  0.39371774  0.10502561  1
  O  O143  1  0.20655146  0.72794301  0.07111109  1
  O  O144  1  0.68750688  0.05215432  0.75099576  1
  O  O145  1  0.71003073  0.39476089  0.74263806  1
  O  O146  1  0.69106058  0.71628805  0.75995761  1
  O  O147  1  0.44985416  0.09866810  0.75243733  1
  O  O148  1  0.47955950  0.43042711  0.74497979  1
  O  O149  1  0.46498059  0.76917741  0.75642001  1
  O  O150  1  0.83302683  0.18013722  0.76099818  1
  O  O151  1  0.81983555  0.50961349  0.74102896  1
  O  O152  1  0.83676555  0.84723966  0.75656220  1
  O  O153  1  0.68298426  0.17398879  0.26074027  1
  O  O154  1  0.71759566  0.50926867  0.24635595  1
  O  O155  1  0.65473906  0.83629029  0.23093850  1
  O  O156  1  0.86453223  0.11203204  0.24724532  1
  O  O157  1  0.81830279  0.43349890  0.24189529  1
  O  O158  1  0.82028578  0.76863548  0.24744110  1
  O  O159  1  0.46496981  0.05046572  0.24082656  1
  O  O160  1  0.47294492  0.39017721  0.23947538  1
  O  O161  1  0.47772282  0.72670549  0.24920546  1
  O  O162  1  0.65909733  0.16913697  0.93677192  1
  O  O163  1  0.66834431  0.50824330  0.92217284  1
  O  O164  1  0.64560293  0.83151965  0.91644043  1
  O  O165  1  0.84859951  0.11438648  0.93475216  1
  O  O166  1  0.86387795  0.44782657  0.91814525  1
  O  O167  1  0.85241846  0.78775247  0.92150989  1
  O  O168  1  0.50831330  0.05302126  0.92307426  1
  O  O169  1  0.48763088  0.37980620  0.91293269  1
  O  O170  1  0.48067901  0.71896552  0.93324171  1
  O  O171  1  0.61998264  0.04759236  0.41933552  1
  O  O172  1  0.64794726  0.38112329  0.40818584  1
  O  O173  1  0.66425539  0.71618741  0.43807054  1
  O  O174  1  0.51550248  0.12208972  0.42607311  1
  O  O175  1  0.47785709  0.44909380  0.42261755  1
  O  O176  1  0.51565711  0.78637307  0.42234933  1
  O  O177  1  0.86506014  0.16506012  0.42922178  1
  O  O178  1  0.85312401  0.50487839  0.41835251  1
  O  O179  1  0.85231251  0.82808623  0.42155493  1
  O  O180  1  0.33564748  0.16297893  0.06195158  1
  O  O181  1  0.36727587  0.50424638  0.07558858  1
  O  O182  1  0.37513241  0.83218284  0.09378357  1
  O  O183  1  0.15686624  0.22264011  0.06312270  1
  O  O184  1  0.14460298  0.54522436  0.07875218  1
  O  O185  1  0.13913397  0.88194928  0.08873267  1
  O  O186  1  0.48616543  0.28008937  0.08115769  1
  O  O187  1  0.49009107  0.61824180  0.06937954  1
  O  O188  1  0.51995740  0.95320270  0.08124087  1
  O  O189  1  0.36402642  0.28211234  0.58466001  1
  O  O190  1  0.33655411  0.61692021  0.56338899  1
  O  O191  1  0.35756751  0.95659943  0.58201428  1
  O  O192  1  0.50819720  0.22133432  0.57140109  1
  O  O193  1  0.48977624  0.54894997  0.57551441  1
  O  O194  1  0.53028556  0.88765150  0.57854376  1
  O  O195  1  0.15108240  0.16312589  0.56535684  1
  O  O196  1  0.14579672  0.50438643  0.57447955  1
  O  O197  1  0.14924761  0.82408879  0.58535622  1
  O  O198  1  0.30235077  0.27644903  0.26051608  1
  O  O199  1  0.33871851  0.61422507  0.24910749  1
  O  O200  1  0.30623463  0.94305380  0.25188732  1
  O  O201  1  0.51823676  0.23138135  0.25397560  1
  O  O202  1  0.53217021  0.55316083  0.25777924  1
  O  O203  1  0.49646904  0.89231806  0.25176170  1
  O  O204  1  0.18351787  0.15959855  0.24573323  1
  O  O205  1  0.15353204  0.48899593  0.24468668  1
  O  O206  1  0.15865409  0.82594442  0.27034294  1
  O  O207  1  0.29486295  0.15372922  0.73965517  1
  O  O208  1  0.31722418  0.48954788  0.74590145  1
  O  O209  1  0.29842733  0.82504363  0.76081011  1
  O  O210  1  0.15253696  0.23455018  0.74731932  1
  O  O211  1  0.15728674  0.56235159  0.74366489  1
  O  O212  1  0.18570072  0.90310698  0.75483819  1
  O  O213  1  0.53019790  0.28151013  0.75132459  1
  O  O214  1  0.54934202  0.61177888  0.74002672  1
  O  O215  1  0.52525737  0.93934480  0.75579710  1
loop_
_geom_bond_atom_site_label_1
_geom_bond_atom_site_label_2
_geom_bond_distance
_geom_bond_site_symmetry_2
Na0 O110 2.359038 1_455
Na0 O114 2.382394 1_565
Na0 O129 2.487733 1_565
Na0 O134 2.626965 1_455
Na0 O126 2.639418 1_465
Na0 O113 2.871638 1_465
Na1 O132 2.399319 1_455
Na1 O115 2.454147 1_555
Na1 O111 2.638774 1_455
Na1 O108 2.644348 1_555
Na1 O130 2.664596 1_555
Na1 O127 2.760860 1_555
Na2 O112 2.374788 1_555
Na2 O128 2.463886 1_555
Na2 O131 2.464106 1_655
Na2 O109 2.516641 1_655
Na2 O133 2.789556 1_555
Na2 O116 2.852827 1_655
Na3 O117 2.373813 1_654
Na3 O138 2.425662 1_555
Na3 O141 2.612546 1_655
Na3 O125 2.697278 1_544
Na3 O137 2.771627 1_545
Na3 O122 2.907860 1_654
Na4 O118 2.440599 1_554
Na4 O135 2.465744 1_455
Na4 O120 2.511922 1_554
Na4 O123 2.666096 1_454
Na4 O139 2.757787 1_455
Na4 O142 2.768415 1_555
Na5 O143 2.326113 1_555
Na5 O140 2.371867 1_455
Na5 O121 2.526940 1_554
Na5 O124 2.561101 1_454
Na5 O136 2.582475 1_455
Na5 O119 2.863160 1_554
Na6 O150 2.356069 1_555
Na6 O144 2.469623 1_555
Na6 O168 2.585882 1_555
Na6 O165 2.680446 1_555
Na6 O147 2.751542 1_555
Na6 O162 2.909405 1_555
Na7 O169 2.283436 1_555
Na7 O163 2.449739 1_555
Na7 O148 2.586997 1_555
Na7 O166 2.603422 1_555
Na7 O145 2.846009 1_555
Na7 O151 2.849358 1_555
Na8 O146 2.298205 1_555
Na8 O152 2.381832 1_555
Na8 O149 2.489759 1_555
Na8 O167 2.551202 1_555
Na8 O164 2.618466 1_555
Na8 O170 2.925706 1_555
Na9 O153 2.299983 1_555
Na9 O156 2.528354 1_555
Na9 O171 2.556814 1_555
Na9 O159 2.585963 1_555
Na9 O174 2.755747 1_555
Na9 O177 2.889772 1_555
Na10 O172 2.261547 1_555
Na10 O178 2.528495 1_555
Na10 O157 2.588037 1_555
Na10 O154 2.629242 1_555
Na10 O175 2.712095 1_555
Na10 O160 2.730870 1_555
Na11 O176 2.497688 1_555
Na11 O161 2.502200 1_555
Na11 O158 2.503739 1_555
Na11 O179 2.514866 1_555
Na11 O155 2.818370 1_555
Na11 O173 2.924119 1_555
Na12 O204 2.379637 1_555
Na12 O186 2.444825 1_555
Na12 O201 2.610864 1_555
Na12 O198 2.746519 1_555
Na12 O183 2.767788 1_555
Na12 O180 2.811209 1_555
Na13 O199 2.330704 1_555
Na13 O205 2.398430 1_555
Na13 O184 2.492441 1_555
Na13 O181 2.741610 1_555
Na13 O187 2.800763 1_555
Na13 O202 2.859869 1_555
Na14 O185 2.395707 1_555
Na14 O203 2.462766 1_555
Na14 O182 2.472488 1_555
Na14 O200 2.492748 1_555
Na14 O188 2.507303 1_555
Na15 O207 2.341793 1_555
Na15 O189 2.437948 1_555
Na15 O210 2.597911 1_555
Na15 O213 2.668170 1_555
Na15 O192 2.700234 1_555
Na15 O195 2.736717 1_555
Na16 O214 2.363597 1_555
Na16 O208 2.433833 1_555
Na16 O211 2.452916 1_555
Na16 O193 2.574761 1_555
Na16 O196 2.704875 1_555
Na16 O190 2.935568 1_555
Na17 O197 2.282653 1_555
Na17 O212 2.453295 1_555
Na17 O191 2.529575 1_555
Na17 O209 2.778595 1_555
Na17 O215 2.875337 1_555
Na17 O194 2.885779 1_555
Na18 O94 2.250899 1_555
Na18 O199 2.363444 1_555
Na18 O158 2.551525 1_555
Na18 O202 2.672503 1_555
Na18 O161 2.787359 1_555
Na18 O50 2.788120 1_555
Na18 O8 2.836701 1_555
Na19 O51 2.382350 1_555
Na19 O159 2.424251 1_555
Na19 O153 2.446861 1_555
Na19 O204 2.518466 1_555
Na19 O201 2.663828 1_555
Na19 O96 2.743555 1_555
Na20 O202 2.309380 1_555
Na20 O97 2.406567 1_555
Na20 O205 2.443150 1_555
Na20 O160 2.582581 1_555
Na20 O52 2.863597 1_555
Na20 O1 2.879961 1_555
Na20 O154 2.892955 1_555
Na21 O155 2.459908 1_555
Na21 O161 2.491220 1_555
Na21 O203 2.540677 1_555
Na21 O206 2.559448 1_555
Na21 O32 2.659228 1_555
Na21 O53 2.712994 1_555
Na22 O45 2.199156 1_555
Na22 O156 2.393110 1_555
Na22 O198 2.497817 1_655
Na22 O153 2.559580 1_555
Na22 O204 2.744584 1_655
Na22 O33 2.806130 1_655
Na22 O90 2.868794 1_655
Na23 O91 2.459967 1_555
Na23 O154 2.472695 1_455
Na23 O205 2.486598 1_555
Na23 O199 2.518311 1_555
Na23 O157 2.799293 1_455
Na23 O34 2.857738 1_555
Na23 O46 2.914086 1_455
Na24 O42 2.296631 1_555
Na24 O213 2.509119 1_555
Na24 O207 2.512276 1_555
Na24 O150 2.520771 1_555
Na24 O105 2.535339 1_555
Na24 O147 2.577673 1_555
Na25 O214 2.378889 1_555
Na25 O106 2.381260 1_555
Na25 O208 2.402684 1_555
Na25 O151 2.436577 1_555
Na25 O148 2.649993 1_555
Na25 O43 2.940478 1_555
Na26 O152 2.364644 1_555
Na26 O149 2.412208 1_555
Na26 O44 2.483582 1_555
Na26 O215 2.494117 1_555
Na26 O209 2.610502 1_555
Na26 O107 2.919732 1_555
Na27 O99 2.277953 1_655
Na27 O36 2.374872 1_555
Na27 O144 2.495646 1_555
Na27 O207 2.520451 1_655
Na27 O150 2.557572 1_555
Na27 O210 2.593070 1_655
Na28 O100 2.405270 1_555
Na28 O211 2.406402 1_555
Na28 O208 2.470332 1_555
Na28 O145 2.512070 1_455
Na28 O151 2.742805 1_455
Na29 O147 2.376674 1_555
Na29 O144 2.379665 1_555
Na29 O39 2.423967 1_555
Na29 O212 2.478525 1_545
Na29 O215 2.660387 1_545
Na29 O104 2.922973 1_545
Na30 O102 2.341854 1_555
Na30 O213 2.358326 1_555
Na30 O210 2.381484 1_555
Na30 O148 2.483045 1_555
Na30 O145 2.696862 1_555
Na31 O41 2.333883 1_555
Na31 O103 2.373159 1_555
Na31 O146 2.485815 1_555
Na31 O149 2.504398 1_555
Na31 O211 2.590775 1_555
Na31 O214 2.687039 1_555
Na32 O86 2.319002 1_555
Na32 O197 2.373442 1_555
Na32 O131 2.584174 1_555
Na32 O194 2.588198 1_555
Na32 O128 2.772876 1_455
Na32 O65 2.783844 1_555
Na32 O23 2.857505 1_555
Na33 O196 2.471705 1_555
Na33 O190 2.572266 1_555
Na33 O67 2.601547 1_455
Na33 O131 2.628035 1_555
Na33 O133 2.668353 1_455
Na33 O88 2.728552 1_555
Na34 O81 2.464803 1_555
Na34 O189 2.479866 1_555
Na34 O132 2.493174 1_555
Na34 O192 2.503735 1_555
Na34 O70 2.664332 1_555
Na34 O127 2.703088 1_655
Na34 O18 2.868520 1_555
Na34 O40 2.997880 1_555
Na35 O83 2.390387 1_555
Na35 O194 2.419972 1_555
Na35 O191 2.426457 1_555
Na35 O126 2.545409 1_565
Na35 O134 2.783591 1_555
Na35 O69 2.844515 1_565
Na35 O20 2.901963 1_555
Na36 O55 2.362985 1_555
Na36 O183 2.526651 1_555
Na36 O186 2.563263 1_555
Na36 O135 2.576204 1_455
Na36 O78 2.680459 1_554
Na36 O142 2.747870 1_555
Na36 O49 2.949902 1_555
Na36 O33 2.999211 1_555
Na37 O80 2.371614 1_554
Na37 O185 2.512218 1_555
Na37 O188 2.537259 1_555
Na37 O141 2.619469 1_565
Na37 O137 2.794115 1_455
Na37 O54 2.802326 1_565
Na38 O139 2.481445 1_555
Na38 O51 2.558844 1_555
Na38 O27 2.561102 1_555
Na38 O135 2.623822 1_555
Na38 O180 2.665156 1_555
Na38 O186 2.667737 1_555
Na38 O57 2.879112 1_555
Na38 O72 2.980494 1_554
Na39 O136 2.432077 1_555
Na39 O140 2.452830 1_555
Na39 O28 2.482139 1_555
Na39 O181 2.557714 1_555
Na39 O187 2.692521 1_555
Na39 O73 2.960130 1_554
Na39 O52 2.999666 1_555
Na40 O74 2.255540 1_554
Na40 O188 2.390619 1_555
Na40 O182 2.401068 1_555
Na40 O137 2.489079 1_555
Na40 O138 2.624491 1_565
Na41 O143 2.454015 1_555
Na41 O32 2.456677 1_555
Na41 O77 2.462796 1_554
Na41 O185 2.526744 1_555
Na41 O182 2.559503 1_555
Na41 O140 2.631112 1_455
Na42 O58 2.364099 1_556
Na42 O163 2.376367 1_555
Na42 O166 2.497127 1_555
Na42 O121 2.585072 1_655
Na42 O124 2.758453 1_555
Na42 O79 2.843950 1_655
Na42 O13 2.881955 1_555
Na43 O125 2.441777 1_555
Na43 O167 2.519031 1_555
Na43 O59 2.615871 1_556
Na43 O80 2.624992 1_655
Na43 O122 2.692941 1_665
Na43 O164 2.754701 1_555
Na43 O101 2.845927 1_655
Na43 O14 2.879020 1_655
Na44 O61 2.211872 1_556
Na44 O166 2.486518 1_555
Na44 O169 2.529788 1_555
Na44 O123 2.531631 1_555
Na44 O118 2.701428 1_655
Na44 O72 2.765186 1_555
Na44 O16 2.981560 1_555
Na45 O122 2.422016 1_555
Na45 O168 2.557628 1_555
Na45 O117 2.559594 1_555
Na45 O162 2.581246 1_555
Na45 O105 2.658625 1_555
Na45 O9 2.723994 1_555
Na45 O75 2.964877 1_555
Na45 O54 2.981808 1_556
Na46 O170 2.464154 1_555
Na46 O164 2.547183 1_555
Na46 O77 2.633268 1_555
Na46 O119 2.669519 1_555
Na46 O56 2.696553 1_556
Na46 O121 2.709828 1_555
Na47 O113 2.319308 1_555
Na47 O6 2.357199 1_655
Na47 O114 2.442160 1_655
Na47 O177 2.559547 1_555
Na48 O70 2.341054 1_555
Na48 O172 2.445718 1_555
Na48 O178 2.518892 1_555
Na48 O115 2.590891 1_655
Na48 O111 2.632835 1_555
Na48 O7 2.731988 1_555
Na49 O179 2.458569 1_555
Na49 O71 2.592035 1_555
Na49 O86 2.607272 1_655
Na49 O116 2.612884 1_655
Na49 O173 2.632783 1_555
Na49 O112 2.694441 1_555
Na50 O114 2.448951 1_555
Na50 O0 2.488771 1_555
Na50 O171 2.511084 1_555
Na50 O110 2.547949 1_445
Na50 O174 2.785295 1_555
Na50 O89 2.863468 1_545
Na50 O63 2.907319 1_555
Na51 O64 2.239467 1_555
Na51 O175 2.487601 1_555
Na51 O172 2.495223 1_555
Na51 O108 2.571651 1_555
Na51 O115 2.704009 1_555
Na51 O87 2.751778 1_555
Na52 O67 2.349597 1_555
Na52 O178 2.381464 1_555
Na52 O175 2.530517 1_555
Na52 O109 2.573720 1_655
Na52 O112 2.604717 1_555
Na52 O82 2.851877 1_555
Na53 O5 2.247237 1_555
Na53 O110 2.336408 1_555
Na53 O176 2.580673 1_555
Na53 O113 2.654223 1_565
Na53 O98 2.792400 1_555
Na53 O179 2.804055 1_555
Ca0 O110 2.216595 1_555
Ca0 O0 2.220210 1_665
Ca0 O6 2.227131 1_665
Ca0 O5 2.228887 1_555
Ca0 O113 2.298938 1_565
Ca0 O114 2.536324 1_665
Ca1 O34 2.105024 1_555
Ca1 O32 2.266158 1_555
Ca1 O28 2.281262 1_455
Ca1 O136 2.311523 1_455
Ca1 O140 2.349726 1_455
Ca1 O143 2.397984 1_555
Ca2 O42 2.205637 1_555
Ca2 O39 2.212721 1_555
Ca2 O36 2.229698 1_555
Ca2 O144 2.383984 1_555
Ca2 O150 2.401415 1_555
Ca2 O147 2.475730 1_555
Ca3 O38 2.159073 1_555
Ca3 O44 2.244617 1_555
Ca3 O41 2.296716 1_555
Ca3 O146 2.351776 1_555
Ca3 O149 2.355911 1_555
Ca3 O152 2.386673 1_555
Ca4 O48 2.171540 1_555
Ca4 O45 2.263257 1_555
Ca4 O51 2.317682 1_555
Ca4 O156 2.319036 1_555
Ca4 O159 2.330518 1_555
Ca4 O153 2.392374 1_555
Ca5 O55 2.189990 1_556
Ca5 O58 2.220993 1_556
Ca5 O61 2.224439 1_556
Ca5 O169 2.281126 1_555
Ca5 O163 2.312156 1_555
Ca5 O166 2.414667 1_555
Ca6 O64 2.200937 1_555
Ca6 O70 2.233072 1_555
Ca6 O67 2.269046 1_555
Ca6 O175 2.313503 1_555
Ca6 O178 2.352969 1_555
Ca6 O172 2.440971 1_555
Ca7 O74 2.214864 1_554
Ca7 O80 2.240896 1_554
Ca7 O77 2.250787 1_554
Ca7 O188 2.317700 1_555
Ca7 O185 2.376646 1_555
Ca7 O182 2.509043 1_555
Ca8 O89 2.094859 1_555
Ca8 O83 2.254925 1_555
Ca8 O197 2.284286 1_555
Ca8 O86 2.287806 1_555
Ca8 O194 2.318527 1_555
Ca8 O191 2.321234 1_555
Ca9 O199 2.209822 1_555
Ca9 O91 2.215033 1_555
Ca9 O97 2.228017 1_555
Ca9 O94 2.235193 1_555
Ca9 O202 2.317111 1_555
Ca9 O205 2.512268 1_555
Ca10 O102 2.218152 1_555
Ca10 O99 2.253443 1_555
Ca10 O105 2.268726 1_555
Ca10 O213 2.373643 1_555
Ca10 O207 2.388539 1_555
Ca10 O210 2.442221 1_555
Ca11 O106 2.218932 1_555
Ca11 O103 2.222710 1_555
Ca11 O100 2.225031 1_555
Ca11 O211 2.349886 1_555
Ca11 O214 2.414835 1_555
Ca11 O208 2.421093 1_555
Nb0 O3 1.880372 1_555
Nb0 O7 1.982520 1_555
Nb0 O111 2.001725 1_555
Nb0 O1 2.044754 1_655
Nb0 O108 2.065740 1_655
Nb0 O115 2.203802 1_655
Nb1 O2 1.884429 1_555
Nb1 O116 1.945780 1_555
Nb1 O8 1.980232 1_455
Nb1 O4 2.074717 1_455
Nb1 O109 2.140255 1_555
Nb1 O112 2.192328 1_455
Nb2 O15 1.918019 1_455
Nb2 O14 1.942894 1_545
Nb2 O125 1.987285 1_445
Nb2 O122 2.010790 1_555
Nb2 O9 2.062852 1_555
Nb2 O117 2.079290 1_555
Nb3 O10 1.941087 1_555
Nb3 O12 1.959131 1_455
Nb3 O16 1.986712 1_455
Nb3 O123 2.045370 1_455
Nb3 O120 2.079311 1_555
Nb3 O118 2.097167 1_555
Nb4 O11 1.927624 1_655
Nb4 O119 1.965036 1_655
Nb4 O17 1.979692 1_555
Nb4 O13 2.004812 1_555
Nb4 O121 2.074676 1_655
Nb4 O124 2.116606 1_555
Nb5 O26 1.948239 1_555
Nb5 O21 1.981538 1_565
Nb5 O20 1.997790 1_455
Nb5 O126 2.046701 1_465
Nb5 O134 2.066504 1_455
Nb5 O129 2.082874 1_565
Nb6 O22 1.938357 1_555
Nb6 O130 1.946072 1_555
Nb6 O127 1.983301 1_555
Nb6 O18 1.985082 1_455
Nb6 O24 2.025476 1_455
Nb6 O132 2.073678 1_455
Nb7 O25 1.949611 1_555
Nb7 O19 1.964222 1_455
Nb7 O23 1.978900 1_555
Nb7 O133 1.985623 1_455
Nb7 O128 2.091253 1_455
Nb7 O131 2.114753 1_555
Nb8 O29 1.936818 1_555
Nb8 O30 2.000917 1_665
Nb8 O35 2.019768 1_655
Nb8 O141 2.056416 1_665
Nb8 O137 2.060260 1_555
Nb8 O138 2.113355 1_565
Nb9 O31 1.912595 1_555
Nb9 O142 1.978526 1_655
Nb9 O139 1.986701 1_555
Nb9 O27 2.008318 1_555
Nb9 O33 2.023443 1_655
Nb9 O135 2.130302 1_555
Nb10 O40 1.945862 1_555
Nb10 O43 1.982875 1_555
Nb10 O37 1.987214 1_555
Nb10 O145 2.082336 1_555
Nb10 O151 2.091017 1_555
Nb10 O148 2.103608 1_555
Nb11 O49 1.910226 1_555
Nb11 O52 1.995590 1_555
Nb11 O157 2.008403 1_555
Nb11 O160 2.055868 1_555
Nb11 O46 2.062696 1_555
Nb11 O154 2.211365 1_555
Nb12 O47 1.928452 1_555
Nb12 O155 1.987061 1_555
Nb12 O50 2.008958 1_555
Nb12 O53 2.033098 1_555
Nb12 O158 2.055471 1_555
Nb12 O161 2.068836 1_555
Nb13 O165 1.941946 1_555
Nb13 O57 1.956573 1_556
Nb13 O162 1.990014 1_555
Nb13 O60 2.046295 1_556
Nb13 O54 2.050123 1_556
Nb13 O168 2.074261 1_555
Nb14 O62 1.910971 1_556
Nb14 O170 1.996659 1_555
Nb14 O167 2.021137 1_555
Nb14 O59 2.035013 1_556
Nb14 O56 2.038217 1_556
Nb14 O164 2.057899 1_555
Nb15 O66 1.886571 1_555
Nb15 O69 1.987391 1_555
Nb15 O174 2.015145 1_555
Nb15 O177 2.055928 1_555
Nb15 O63 2.064889 1_555
Nb15 O171 2.242450 1_555
Nb16 O173 1.946428 1_555
Nb16 O65 1.965502 1_555
Nb16 O68 2.051808 1_555
Nb16 O71 2.054070 1_555
Nb16 O179 2.062570 1_555
Nb16 O176 2.073747 1_555
Nb17 O75 1.918823 1_554
Nb17 O180 1.966295 1_555
Nb17 O183 1.969442 1_555
Nb17 O72 1.994761 1_554
Nb17 O78 2.091444 1_554
Nb17 O186 2.174268 1_555
Nb18 O79 1.958534 1_554
Nb18 O187 1.987196 1_555
Nb18 O76 2.047753 1_554
Nb18 O73 2.051362 1_554
Nb18 O181 2.056738 1_555
Nb18 O184 2.088723 1_555
Nb19 O84 1.924687 1_555
Nb19 O195 1.961856 1_555
Nb19 O192 1.975845 1_555
Nb19 O87 2.011098 1_555
Nb19 O81 2.057771 1_555
Nb19 O189 2.085153 1_555
Nb20 O190 1.952410 1_555
Nb20 O82 1.953405 1_555
Nb20 O193 1.975959 1_555
Nb20 O85 2.046261 1_555
Nb20 O196 2.047585 1_555
Nb20 O88 2.161133 1_555
Nb21 O93 1.884249 1_555
Nb21 O96 1.962470 1_555
Nb21 O201 2.016991 1_555
Nb21 O90 2.035702 1_555
Nb21 O198 2.086235 1_555
Nb21 O204 2.207563 1_555
Nb22 O92 1.923203 1_555
Nb22 O206 1.955284 1_555
Nb22 O98 2.031629 1_555
Nb22 O95 2.046978 1_555
Nb22 O203 2.107290 1_555
Nb22 O200 2.119980 1_555
Nb23 O101 1.977138 1_555
Nb23 O107 1.993062 1_555
Nb23 O104 1.994512 1_555
Nb23 O209 2.034564 1_555
Nb23 O212 2.069206 1_555
Nb23 O215 2.098403 1_555
O0 P0 1.522453 1_545
O1 Si0 1.662530 1_555
O2 Si1 1.729255 1_555
O3 Si2 1.679719 1_555
O4 P1 1.593513 1_555
O5 Si3 1.581289 1_555
O6 P2 1.511131 1_555
O7 Si4 1.673697 1_555
O8 Si5 1.690259 1_555
O9 P3 1.560402 1_555
O10 Si6 1.674502 1_555
O11 Si7 1.670734 1_555
O12 P4 1.590722 1_555
O13 Si8 1.666504 1_555
O14 Si9 1.660554 1_555
O15 Si10 1.655792 1_545
O16 Si11 1.687544 1_555
O17 P5 1.570125 1_555
O18 Si11 1.637224 1_555
O19 P5 1.570334 1_555
O20 Si10 1.681487 1_555
O21 P3 1.583899 1_555
O22 Si6 1.636667 1_555
O23 Si7 1.668928 1_555
O24 P4 1.550011 1_555
O25 Si8 1.664690 1_455
O26 Si9 1.677652 1_555
O27 Si2 1.639895 1_555
O28 P1 1.519505 1_555
O29 Si3 1.691594 1_555
O30 P2 1.608749 1_555
O31 Si4 1.648790 1_555
O32 Si5 1.594037 1_455
O33 Si0 1.646551 1_555
O34 Si1 1.572675 1_555
O35 P0 1.621892 1_555
O36 Si12 1.591099 1_555
O37 Si13 1.694956 1_555
O38 P6 1.493122 1_555
O39 P7 1.520924 1_555
O40 Si14 1.705239 1_555
O41 Si15 1.582527 1_555
O42 Si16 1.581291 1_555
O43 Si17 1.674621 1_555
O44 P8 1.515370 1_555
O45 Si18 1.583815 1_555
O46 P9 1.608480 1_555
O47 Si19 1.665495 1_555
O48 P10 1.500295 1_555
O49 Si20 1.713495 1_555
O50 Si21 1.660493 1_555
O51 Si22 1.605755 1_555
O52 Si23 1.694858 1_555
O53 P11 1.566765 1_555
O54 Si22 1.659231 1_555
O55 Si23 1.589459 1_555
O56 P11 1.573188 1_555
O57 Si18 1.661185 1_555
O58 P9 1.514364 1_555
O59 Si19 1.666067 1_555
O60 P10 1.570404 1_555
O61 Si20 1.578641 1_555
O62 Si21 1.661014 1_555
O63 P7 1.602144 1_555
O64 Si14 1.585780 1_555
O65 Si15 1.682328 1_555
O66 Si16 1.700277 1_555
O67 Si17 1.598635 1_555
O68 P8 1.588184 1_555
O69 Si12 1.696118 1_555
O70 Si13 1.598657 1_555
O71 P6 1.591856 1_555
O72 Si24 1.679139 1_555
O73 P12 1.590184 1_555
O74 Si25 1.583363 1_555
O75 Si26 1.682027 1_555
O76 P13 1.587193 1_555
O77 Si27 1.599788 1_555
O78 P14 1.575943 1_555
O79 Si28 1.688677 1_555
O80 Si29 1.604750 1_555
O81 Si30 1.624177 1_555
O82 Si31 1.678033 1_555
O83 P15 1.517769 1_555
O84 Si32 1.642635 1_555
O85 P16 1.584869 1_555
O86 Si33 1.593674 1_555
O87 Si34 1.636303 1_555
O88 P17 1.572440 1_555
O89 Si35 1.575569 1_555
O90 Si34 1.667105 1_555
O91 P17 1.521221 1_555
O92 Si35 1.717442 1_555
O93 Si30 1.685161 1_555
O94 Si31 1.581242 1_555
O95 P15 1.593909 1_555
O96 Si32 1.686409 1_555
O97 P16 1.515828 1_555
O98 Si33 1.671488 1_555
O99 Si26 1.585543 1_555
O100 P13 1.523081 1_555
O101 Si27 1.679940 1_555
O102 P14 1.521321 1_555
O103 Si28 1.584258 1_555
O104 Si29 1.678028 1_555
O105 Si24 1.604249 1_555
O106 P12 1.516394 1_555
O107 Si25 1.666681 1_555
O108 Si34 1.652866 1_555
O109 P17 1.587948 1_555
O110 Si35 1.600542 1_655
O111 Si30 1.667037 1_555
O112 Si31 1.663400 1_555
O113 P15 1.526665 1_545
O114 Si32 1.603248 1_555
O115 P16 1.579591 1_555
O116 Si33 1.665184 1_555
O117 Si26 1.659249 1_555
O118 P13 1.580688 1_555
O119 Si27 1.644336 1_555
O120 P14 1.579036 1_555
O121 Si28 1.683602 1_555
O122 Si29 1.663271 1_545
O123 Si24 1.657966 1_555
O124 P12 1.586036 1_555
O125 Si25 1.663640 1_555
O126 Si12 1.675919 1_555
O127 Si13 1.640255 1_455
O128 P6 1.598616 1_555
O129 P7 1.577381 1_555
O130 Si14 1.635606 1_555
O131 Si15 1.684461 1_555
O132 Si16 1.657153 1_555
O133 Si17 1.652570 1_555
O134 P8 1.577448 1_555
O135 Si18 1.671841 1_555
O136 P9 1.524511 1_555
O137 Si19 1.674032 1_555
O138 P10 1.598163 1_555
O139 Si20 1.640304 1_555
O140 Si21 1.603374 1_555
O141 Si22 1.663839 1_555
O142 Si23 1.651487 1_555
O143 P11 1.522709 1_555
O144 Si10 1.603186 1_545
O145 Si11 1.674326 1_555
O146 P5 1.511077 1_555
O147 P3 1.528541 1_555
O148 Si6 1.663899 1_555
O149 Si7 1.602304 1_555
O150 P4 1.531203 1_555
O151 Si8 1.662148 1_555
O152 Si9 1.589446 1_655
O153 Si2 1.600763 1_555
O154 P1 1.584705 1_555
O155 Si3 1.665151 1_555
O156 P2 1.513877 1_655
O157 Si4 1.661861 1_555
O158 Si5 1.658298 1_555
O159 P0 1.522322 1_545
O160 Si0 1.658980 1_555
O161 Si1 1.665749 1_555
O162 Si24 1.654481 1_555
O163 P12 1.531017 1_555
O164 Si25 1.666743 1_555
O165 Si26 1.638953 1_655
O166 P13 1.533005 1_655
O167 Si27 1.655817 1_655
O168 Si29 1.648087 1_545
O169 P14 1.530336 1_555
O170 Si28 1.655958 1_555
O171 P15 1.577184 1_545
O172 Si30 1.607657 1_555
O173 Si31 1.659436 1_555
O174 Si32 1.657997 1_555
O175 P16 1.529050 1_555
O176 Si33 1.660970 1_555
O177 Si34 1.654855 1_655
O178 P17 1.542601 1_655
O179 Si35 1.682248 1_655
O180 Si22 1.670619 1_555
O181 Si23 1.657904 1_555
O182 P11 1.545132 1_555
O183 Si18 1.650277 1_455
O184 P9 1.586500 1_455
O185 Si19 1.599340 1_455
O186 Si20 1.657480 1_555
O187 Si21 1.672224 1_555
O188 P10 1.538443 1_565
O189 Si14 1.643161 1_555
O190 Si15 1.668936 1_555
O191 P7 1.527255 1_565
O192 Si16 1.639764 1_555
O193 Si17 1.663281 1_555
O194 P8 1.533095 1_555
O195 Si12 1.648178 1_455
O196 Si13 1.648439 1_455
O197 P6 1.530926 1_455
O198 Si0 1.642634 1_555
O199 Si1 1.603124 1_555
O200 P0 1.568187 1_555
O201 Si2 1.653929 1_555
O202 P1 1.526436 1_555
O203 Si3 1.657191 1_555
O204 P2 1.589300 1_555
O205 Si4 1.602448 1_455
O206 Si5 1.649034 1_455
O207 P3 1.535228 1_555
O208 Si6 1.599473 1_555
O209 Si7 1.656512 1_555
O210 P4 1.528222 1_455
O211 Si8 1.603086 1_455
O212 Si9 1.663195 1_555
O213 Si11 1.604216 1_555
O214 P5 1.536845 1_555
O215 Si10 1.659992 1_555
