# generated using pymatgen
data_K2CaNi(NO2)6
_symmetry_space_group_name_H-M   'P 1'
_cell_length_a   7.40337123
_cell_length_b   7.40337123
_cell_length_c   7.40337123
_cell_angle_alpha   60.00000000
_cell_angle_beta   60.00000000
_cell_angle_gamma   60.00000000
_symmetry_Int_Tables_number   1
_chemical_formula_structural   K2CaNi(NO2)6
_chemical_formula_sum   'K2 Ca1 Ni1 N6 O12'
_cell_volume   286.92843056
_cell_formula_units_Z   1
loop_
 _symmetry_equiv_pos_site_id
 _symmetry_equiv_pos_as_xyz
  1  'x, y, z'
loop_
 _atom_site_type_symbol
 _atom_site_label
 _atom_site_symmetry_multiplicity
 _atom_site_fract_x
 _atom_site_fract_y
 _atom_site_fract_z
 _atom_site_occupancy
  K  K0  1  0.75000000  0.75000000  0.75000000  1
  K  K1  1  0.25000000  0.25000000  0.25000000  1
  Ca  Ca0  1  0.50000000  0.50000000  0.50000000  1
  Ni  Ni0  1  0.00000000  0.00000000  0.00000000  1
  N  N0  1  0.79962800  0.20037200  0.20037200  1
  N  N1  1  0.20037200  0.79962800  0.20037200  1
  N  N2  1  0.20037200  0.20037200  0.79962800  1
  N  N3  1  0.79962800  0.79962800  0.20037200  1
  N  N4  1  0.79962800  0.20037200  0.79962800  1
  N  N5  1  0.20037200  0.79962800  0.79962800  1
  O  O0  1  0.36628800  0.63371200  0.16135500  1
  O  O1  1  0.36628800  0.83864500  0.63371200  1
  O  O2  1  0.63371200  0.16135500  0.36628800  1
  O  O3  1  0.83864500  0.36628800  0.16135500  1
  O  O4  1  0.16135500  0.63371200  0.83864500  1
  O  O5  1  0.63371200  0.83864500  0.16135500  1
  O  O6  1  0.83864500  0.16135500  0.63371200  1
  O  O7  1  0.63371200  0.36628800  0.83864500  1
  O  O8  1  0.36628800  0.16135500  0.83864500  1
  O  O9  1  0.16135500  0.36628800  0.63371200  1
  O  O10  1  0.16135500  0.83864500  0.36628800  1
  O  O11  1  0.83864500  0.63371200  0.36628800  1
loop_
_geom_bond_atom_site_label_1
_geom_bond_atom_site_label_2
_geom_bond_distance
_geom_bond_site_symmetry_2
K0 O4 3.042726 1_655
K0 O6 3.042726 1_565
K0 O5 3.042726 1_556
K0 O10 3.042726 1_655
K0 O8 3.042726 1_565
K0 O3 3.042726 1_556
K0 O2 3.042726 1_565
K0 O0 3.042726 1_556
K0 O9 3.042726 1_655
K0 O1 3.042726 1_555
K0 O7 3.042726 1_555
K0 O11 3.042726 1_555
K1 O0 3.042726 1_555
K1 O9 3.042726 1_555
K1 O2 3.042726 1_555
K1 O7 3.042726 1_554
K1 O11 3.042726 1_455
K1 O1 3.042726 1_545
K1 O4 3.042726 1_554
K1 O6 3.042726 1_455
K1 O5 3.042726 1_545
K1 O8 3.042726 1_554
K1 O10 3.042726 1_545
K1 O3 3.042726 1_455
Ca0 O11 2.695471 1_555
Ca0 O1 2.695471 1_555
Ca0 O7 2.695471 1_555
Ca0 O5 2.695471 1_555
Ca0 O6 2.695471 1_555
Ca0 O4 2.695471 1_555
Ca0 O3 2.695471 1_555
Ca0 O8 2.695471 1_555
Ca0 O10 2.695471 1_555
Ca0 O2 2.695471 1_555
Ca0 O9 2.695471 1_555
Ca0 O0 2.695471 1_555
N0 O3 1.261845 1_555
N0 O2 1.261845 1_555
N0 Ni0 2.097884 1_655
N1 O10 1.261845 1_555
N1 O0 1.261845 1_555
N1 Ni0 2.097884 1_565
N2 O8 1.261845 1_555
N2 O9 1.261845 1_555
N2 Ni0 2.097884 1_556
N3 O11 1.261845 1_555
N3 O5 1.261845 1_555
N3 Ni0 2.097884 1_665
N4 O7 1.261845 1_555
N4 O6 1.261845 1_555
N4 Ni0 2.097884 1_656
N5 O1 1.261845 1_555
N5 O4 1.261845 1_555
N5 Ni0 2.097884 1_566
