# generated using pymatgen
data_UTlF5
_symmetry_space_group_name_H-M   'P 1'
_cell_length_a   13.72783670
_cell_length_b   8.20459056
_cell_length_c   8.26072430
_cell_angle_alpha   78.05179443
_cell_angle_beta   90.00000000
_cell_angle_gamma   90.00000000
_symmetry_Int_Tables_number   1
_chemical_formula_structural   UTlF5
_chemical_formula_sum   'U8 Tl8 F40'
_cell_volume   910.25862437
_cell_formula_units_Z   8
loop_
 _symmetry_equiv_pos_site_id
 _symmetry_equiv_pos_as_xyz
  1  'x, y, z'
loop_
 _atom_site_type_symbol
 _atom_site_label
 _atom_site_symmetry_multiplicity
 _atom_site_fract_x
 _atom_site_fract_y
 _atom_site_fract_z
 _atom_site_occupancy
  U  U0  1  0.25408859  0.01287742  0.90732626  1
  U  U1  1  0.75408859  0.98712258  0.59267374  1
  U  U2  1  0.74591141  0.98712258  0.09267374  1
  U  U3  1  0.24591141  0.01287742  0.40732626  1
  U  U4  1  0.24714931  0.44324625  0.53876159  1
  U  U5  1  0.74714931  0.55675375  0.96123841  1
  U  U6  1  0.75285069  0.55675375  0.46123841  1
  U  U7  1  0.25285069  0.44324625  0.03876159  1
  Tl  Tl0  1  0.51907431  0.23198725  0.78112050  1
  Tl  Tl1  1  0.01907431  0.76801275  0.71887950  1
  Tl  Tl2  1  0.48092569  0.76801275  0.21887950  1
  Tl  Tl3  1  0.98092569  0.23198725  0.28112050  1
  Tl  Tl4  1  0.98483714  0.27839260  0.80814896  1
  Tl  Tl5  1  0.48483714  0.72160740  0.69185104  1
  Tl  Tl6  1  0.01516286  0.72160740  0.19185104  1
  Tl  Tl7  1  0.51516286  0.27839260  0.30814896  1
  F  F0  1  0.90266264  0.01698268  0.06544461  1
  F  F1  1  0.40266264  0.98301732  0.43455539  1
  F  F2  1  0.09733736  0.98301732  0.93455539  1
  F  F3  1  0.59733736  0.01698268  0.56544461  1
  F  F4  1  0.89750242  0.47253459  0.41717873  1
  F  F5  1  0.39750242  0.52746541  0.08282127  1
  F  F6  1  0.10249758  0.52746541  0.58282127  1
  F  F7  1  0.60249758  0.47253459  0.91717873  1
  F  F8  1  0.59646144  0.06956114  0.11329600  1
  F  F9  1  0.09646144  0.93043886  0.38670400  1
  F  F10  1  0.40353856  0.93043886  0.88670400  1
  F  F11  1  0.90353856  0.06956114  0.61329600  1
  F  F12  1  0.30955250  0.28762144  0.31229505  1
  F  F13  1  0.80955250  0.71237856  0.18770495  1
  F  F14  1  0.69044750  0.71237856  0.68770495  1
  F  F15  1  0.19044750  0.28762144  0.81229505  1
  F  F16  1  0.80556385  0.46920684  0.73140755  1
  F  F17  1  0.30556385  0.53079316  0.76859245  1
  F  F18  1  0.19443615  0.53079316  0.26859245  1
  F  F19  1  0.69443615  0.46920684  0.23140755  1
  F  F20  1  0.70507090  0.08469252  0.82063668  1
  F  F21  1  0.20507090  0.91530748  0.67936332  1
  F  F22  1  0.29492910  0.91530748  0.17936332  1
  F  F23  1  0.79492910  0.08469252  0.32063668  1
  F  F24  1  0.73642484  0.27212855  0.52772009  1
  F  F25  1  0.23642484  0.72787145  0.97227991  1
  F  F26  1  0.26357516  0.72787145  0.47227991  1
  F  F27  1  0.76357516  0.27212855  0.02772009  1
  F  F28  1  0.35212763  0.22453603  0.98181900  1
  F  F29  1  0.85212763  0.77546397  0.51818100  1
  F  F30  1  0.64787237  0.77546397  0.01818100  1
  F  F31  1  0.14787237  0.22453603  0.48181900  1
  F  F32  1  0.40131259  0.47863376  0.49144787  1
  F  F33  1  0.90131259  0.52136624  0.00855213  1
  F  F34  1  0.59868741  0.52136624  0.50855213  1
  F  F35  1  0.09868741  0.47863376  0.99144787  1
  F  F36  1  0.31515585  0.16706257  0.63939419  1
  F  F37  1  0.81515585  0.83293743  0.86060581  1
  F  F38  1  0.68484415  0.83293743  0.36060581  1
  F  F39  1  0.18484415  0.16706257  0.13939419  1
loop_
_geom_bond_atom_site_label_1
_geom_bond_atom_site_label_2
_geom_bond_distance
_geom_bond_site_symmetry_2
F0 U2 2.172160 1_545
F1 U3 2.172160 1_565
F2 U0 2.172160 1_565
F3 U1 2.172160 1_545
F4 U6 2.158074 1_555
F4 Tl3 2.718142 1_555
F5 U7 2.158074 1_555
F5 Tl2 2.718142 1_555
F6 U4 2.158074 1_555
F6 Tl1 2.718142 1_555
F7 U5 2.158074 1_555
F7 Tl0 2.718142 1_555
F8 U2 2.177929 1_545
F9 U3 2.177929 1_565
F10 U0 2.177929 1_565
F11 U1 2.177929 1_545
F12 U3 2.393342 1_555
F12 U7 2.479382 1_555
F12 U4 2.617830 1_555
F13 U2 2.393342 1_555
F13 U6 2.479382 1_555
F13 U5 2.617830 1_554
F14 U1 2.393342 1_555
F14 U5 2.479382 1_555
F14 U6 2.617830 1_555
F15 U0 2.393342 1_555
F15 U4 2.479382 1_555
F15 U7 2.617830 1_556
F16 U5 2.308291 1_555
F16 U6 2.314461 1_555
F17 U4 2.308291 1_555
F17 U7 2.314461 1_556
F18 U7 2.308291 1_555
F18 U4 2.314461 1_555
F19 U6 2.308291 1_555
F19 U5 2.314461 1_554
F20 U2 2.293537 1_546
F20 U1 2.294349 1_545
F21 U3 2.293537 1_565
F21 U0 2.294349 1_565
F22 U0 2.293537 1_564
F22 U3 2.294349 1_565
F23 U1 2.293537 1_545
F23 U2 2.294349 1_545
F24 U6 2.296682 1_555
F24 U1 2.301110 1_545
F25 U7 2.296682 1_556
F25 U0 2.301110 1_565
F26 U4 2.296682 1_555
F26 U3 2.301110 1_565
F27 U5 2.296682 1_554
F27 U2 2.301110 1_545
F28 U7 2.376575 1_556
F28 U0 2.376589 1_555
F29 U6 2.376575 1_555
F29 U1 2.376589 1_555
F30 U5 2.376575 1_554
F30 U2 2.376589 1_555
F31 U4 2.376575 1_555
F31 U3 2.376589 1_555
F32 U4 2.160768 1_555
F33 U5 2.160768 1_554
F34 U6 2.160768 1_555
F35 U7 2.160768 1_556
F36 U4 2.432553 1_555
F36 U0 2.458153 1_555
F36 U3 2.680130 1_555
F37 U5 2.432553 1_555
F37 U1 2.458153 1_555
F37 U2 2.680130 1_556
F38 U6 2.432553 1_555
F38 U2 2.458153 1_555
F38 U1 2.680130 1_555
F39 U7 2.432553 1_555
F39 U3 2.458153 1_555
F39 U0 2.680130 1_554
