# generated using pymatgen
data_CaTeO3
_symmetry_space_group_name_H-M   'P 1'
_cell_length_a   10.59815800
_cell_length_b   11.37964547
_cell_length_c   13.93153641
_cell_angle_alpha   103.34600353
_cell_angle_beta   85.72763984
_cell_angle_gamma   108.87402399
_symmetry_Int_Tables_number   1
_chemical_formula_structural   CaTeO3
_chemical_formula_sum   'Ca18 Te18 O54'
_cell_volume   1546.91306391
_cell_formula_units_Z   18
loop_
 _symmetry_equiv_pos_site_id
 _symmetry_equiv_pos_as_xyz
  1  'x, y, z'
loop_
 _atom_site_type_symbol
 _atom_site_label
 _atom_site_symmetry_multiplicity
 _atom_site_fract_x
 _atom_site_fract_y
 _atom_site_fract_z
 _atom_site_occupancy
  Ca  Ca0  1  0.90349700  0.05131400  0.32582500  1
  Ca  Ca1  1  0.09650300  0.94868600  0.67417500  1
  Ca  Ca2  1  0.52423700  0.03089000  0.63265500  1
  Ca  Ca3  1  0.47576300  0.96911000  0.36734500  1
  Ca  Ca4  1  0.18635500  0.03386100  0.97141900  1
  Ca  Ca5  1  0.81364500  0.96613900  0.02858100  1
  Ca  Ca6  1  0.08844700  0.38451600  0.43538500  1
  Ca  Ca7  1  0.91155300  0.61548400  0.56461500  1
  Ca  Ca8  1  0.74491400  0.41562800  0.73687100  1
  Ca  Ca9  1  0.25508600  0.58437200  0.26312900  1
  Ca  Ca10  1  0.40248200  0.37120400  0.07666000  1
  Ca  Ca11  1  0.59751800  0.62879600  0.92334000  1
  Ca  Ca12  1  0.06509200  0.86132200  0.40845100  1
  Ca  Ca13  1  0.93490800  0.13867800  0.59154900  1
  Ca  Ca14  1  0.69886300  0.86027900  0.75670400  1
  Ca  Ca15  1  0.30113700  0.13972100  0.24329600  1
  Ca  Ca16  1  0.43443000  0.88203700  0.08309000  1
  Ca  Ca17  1  0.56557000  0.11796300  0.91691000  1
  Te  Te0  1  0.06434700  0.82041500  0.13504200  1
  Te  Te1  1  0.93565300  0.17958500  0.86495800  1
  Te  Te2  1  0.75044600  0.83469900  0.51909700  1
  Te  Te3  1  0.24955400  0.16530100  0.48090300  1
  Te  Te4  1  0.37746100  0.81098200  0.83516400  1
  Te  Te5  1  0.62253900  0.18901800  0.16483600  1
  Te  Te6  1  0.90444100  0.55524700  0.31069100  1
  Te  Te7  1  0.09555900  0.44475300  0.68930900  1
  Te  Te8  1  0.48516800  0.52243500  0.64883300  1
  Te  Te9  1  0.51483200  0.47756500  0.35116700  1
  Te  Te10  1  0.22584500  0.51620500  0.96999200  1
  Te  Te11  1  0.77415500  0.48379500  0.03000800  1
  Te  Te12  1  0.04671200  0.26598800  0.14178100  1
  Te  Te13  1  0.95328800  0.73401200  0.85821900  1
  Te  Te14  1  0.71738200  0.27620600  0.45448100  1
  Te  Te15  1  0.28261800  0.72379400  0.54551900  1
  Te  Te16  1  0.39171900  0.23808600  0.78723800  1
  Te  Te17  1  0.60828100  0.76191400  0.21276200  1
  O  O0  1  0.99905800  0.89035900  0.04506800  1
  O  O1  1  0.00094200  0.10964100  0.95493200  1
  O  O2  1  0.86851000  0.81808900  0.60930800  1
  O  O3  1  0.13149000  0.18191100  0.39069200  1
  O  O4  1  0.52578900  0.78445000  0.88409900  1
  O  O5  1  0.47421100  0.21555000  0.11590100  1
  O  O6  1  0.23873400  0.93587400  0.14069300  1
  O  O7  1  0.76126600  0.06412600  0.85930700  1
  O  O8  1  0.88129500  0.95008600  0.45566300  1
  O  O9  1  0.11870500  0.04991400  0.54433700  1
  O  O10  1  0.49460200  0.92593000  0.76261800  1
  O  O11  1  0.50539800  0.07407000  0.23738200  1
  O  O12  1  0.99800000  0.89364900  0.25471100  1
  O  O13  1  0.00200000  0.10635100  0.74528900  1
  O  O14  1  0.71703600  0.97229700  0.61688800  1
  O  O15  1  0.28296400  0.02770300  0.38311200  1
  O  O16  1  0.36801400  0.94562100  0.94445900  1
  O  O17  1  0.63198600  0.05437900  0.05554100  1
  O  O18  1  0.92277300  0.47173000  0.40938900  1
  O  O19  1  0.07722700  0.52827000  0.59061100  1
  O  O20  1  0.33729200  0.56351000  0.71422500  1
  O  O21  1  0.66270800  0.43649000  0.28577500  1
  O  O22  1  0.21980200  0.47989300  0.09659700  1
  O  O23  1  0.78019800  0.52010700  0.90340300  1
  O  O24  1  0.08292200  0.67080100  0.29924600  1
  O  O25  1  0.91707800  0.32919900  0.70075400  1
  O  O26  1  0.57250800  0.50814200  0.75762900  1
  O  O27  1  0.42749200  0.49185800  0.24237100  1
  O  O28  1  0.38854700  0.48337200  0.94046400  1
  O  O29  1  0.61145300  0.51662800  0.05953600  1
  O  O30  1  0.85793700  0.68229400  0.40791800  1
  O  O31  1  0.14206300  0.31770600  0.59208200  1
  O  O32  1  0.58970100  0.68589500  0.63438500  1
  O  O33  1  0.41029900  0.31410500  0.36561500  1
  O  O34  1  0.27288900  0.69402700  0.99863800  1
  O  O35  1  0.72711100  0.30597300  0.00136200  1
  O  O36  1  0.43022600  0.77049700  0.22971000  1
  O  O37  1  0.56977400  0.22950300  0.77029000  1
  O  O38  1  0.12921600  0.77722300  0.54058400  1
  O  O39  1  0.87078400  0.22277700  0.45941600  1
  O  O40  1  0.80180800  0.79530200  0.88016200  1
  O  O41  1  0.19819200  0.20469800  0.11983800  1
  O  O42  1  0.63337800  0.80143000  0.08553800  1
  O  O43  1  0.36662200  0.19857000  0.91446200  1
  O  O44  1  0.26755500  0.59178800  0.43156700  1
  O  O45  1  0.73244500  0.40821200  0.56843300  1
  O  O46  1  0.08394100  0.87722900  0.82084000  1
  O  O47  1  0.91605900  0.12277100  0.17916000  1
  O  O48  1  0.68057700  0.92482600  0.29527300  1
  O  O49  1  0.31942300  0.07517400  0.70472700  1
  O  O50  1  0.41038600  0.86261100  0.50014600  1
  O  O51  1  0.58961400  0.13738900  0.49985400  1
  O  O52  1  0.90041300  0.62488000  0.73342000  1
  O  O53  1  0.09958700  0.37512000  0.26658000  1
loop_
_geom_bond_atom_site_label_1
_geom_bond_atom_site_label_2
_geom_bond_distance
_geom_bond_site_symmetry_2
Ca0 O8 2.318926 1_545
Ca0 O12 2.323326 1_545
Ca0 O48 2.345522 1_545
Ca0 O47 2.347418 1_555
Ca0 O39 2.460929 1_555
Ca0 O3 2.499175 1_655
Ca1 O9 2.318926 1_565
Ca1 O13 2.323326 1_565
Ca1 O49 2.345522 1_565
Ca1 O46 2.347418 1_555
Ca1 O38 2.460929 1_555
Ca1 O2 2.499175 1_455
Ca2 O14 2.326999 1_545
Ca2 O10 2.339747 1_545
Ca2 O51 2.381732 1_555
Ca2 O50 2.394958 1_545
Ca2 O49 2.474514 1_555
Ca2 O37 2.539547 1_555
Ca3 O15 2.326999 1_565
Ca3 O11 2.339747 1_565
Ca3 O50 2.381732 1_555
Ca3 O51 2.394958 1_565
Ca3 O48 2.474514 1_555
Ca3 O36 2.539547 1_555
Ca4 O16 2.413473 1_545
Ca4 O1 2.431624 1_555
Ca4 O43 2.436543 1_555
Ca4 O0 2.456132 1_446
Ca4 O41 2.468931 1_556
Ca4 O46 2.473302 1_545
Ca5 O17 2.413473 1_565
Ca5 O0 2.431624 1_555
Ca5 O42 2.436543 1_555
Ca5 O1 2.456132 1_664
Ca5 O40 2.468931 1_554
Ca5 O47 2.473302 1_565
Ca6 O53 2.325218 1_555
Ca6 O18 2.363732 1_455
Ca6 O19 2.412700 1_555
Ca6 O3 2.426283 1_555
Ca6 O39 2.498713 1_455
Ca6 O44 2.513087 1_555
Ca6 O31 2.626227 1_555
Ca7 O52 2.325218 1_555
Ca7 O19 2.363732 1_655
Ca7 O18 2.412700 1_555
Ca7 O2 2.426283 1_555
Ca7 O38 2.498713 1_655
Ca7 O45 2.513087 1_555
Ca7 O30 2.626227 1_555
Ca8 O25 2.312043 1_555
Ca8 O45 2.340658 1_555
Ca8 O23 2.346102 1_555
Ca8 O26 2.357081 1_555
Ca8 O52 2.427046 1_555
Ca8 O37 2.435391 1_555
Ca9 O24 2.312043 1_555
Ca9 O44 2.340658 1_555
Ca9 O22 2.346102 1_555
Ca9 O27 2.357081 1_555
Ca9 O53 2.427046 1_555
Ca9 O36 2.435391 1_555
Ca10 O5 2.322576 1_555
Ca10 O29 2.330832 1_555
Ca10 O27 2.382738 1_555
Ca10 O41 2.513499 1_555
Ca10 O28 2.555996 1_554
Ca10 O22 2.581829 1_555
Ca10 O43 2.589474 1_554
Ca11 O4 2.322576 1_555
Ca11 O28 2.330832 1_555
Ca11 O26 2.382738 1_555
Ca11 O40 2.513499 1_555
Ca11 O29 2.555996 1_556
Ca11 O23 2.581829 1_555
Ca11 O42 2.589474 1_556
Ca12 O24 2.397974 1_555
Ca12 O12 2.447095 1_455
Ca12 O9 2.451155 1_565
Ca12 O8 2.454108 1_455
Ca12 O30 2.464197 1_455
Ca12 O38 2.487332 1_555
Ca12 O15 2.529768 1_565
Ca13 O25 2.397974 1_555
Ca13 O13 2.447095 1_655
Ca13 O8 2.451155 1_545
Ca13 O9 2.454108 1_655
Ca13 O31 2.464197 1_655
Ca13 O39 2.487332 1_555
Ca13 O14 2.529768 1_545
Ca14 O32 2.329713 1_555
Ca14 O7 2.340762 1_565
Ca14 O40 2.466574 1_555
Ca14 O10 2.498519 1_555
Ca14 O14 2.527391 1_555
Ca14 O4 2.541069 1_555
Ca14 O2 2.689428 1_555
Ca15 O33 2.329713 1_555
Ca15 O6 2.340762 1_545
Ca15 O41 2.466574 1_555
Ca15 O11 2.498519 1_555
Ca15 O15 2.527391 1_555
Ca15 O5 2.541069 1_555
Ca15 O3 2.689428 1_555
Ca16 O34 2.379277 1_554
Ca16 O6 2.380756 1_555
Ca16 O16 2.434399 1_554
Ca16 O17 2.438939 1_565
Ca16 O42 2.562170 1_555
Ca16 O36 2.632918 1_555
Ca16 O11 2.640170 1_565
Ca16 O4 2.954746 1_554
Ca17 O35 2.379277 1_556
Ca17 O7 2.380756 1_555
Ca17 O17 2.434399 1_556
Ca17 O16 2.438939 1_545
Ca17 O43 2.562170 1_555
Ca17 O37 2.632918 1_555
Ca17 O10 2.640170 1_545
Ca17 O5 2.954746 1_556
O0 Te0 1.905163 1_655
O1 Te1 1.905163 1_455
O2 Te2 1.917774 1_555
O3 Te3 1.917774 1_555
O4 Te4 1.894439 1_555
O5 Te5 1.894439 1_555
O6 Te0 1.884445 1_555
O7 Te1 1.884445 1_555
O8 Te2 1.898223 1_555
O9 Te3 1.898223 1_555
O10 Te4 1.909584 1_555
O11 Te5 1.909584 1_555
O12 Te0 1.879214 1_655
O13 Te1 1.879214 1_455
O14 Te2 1.932674 1_555
O15 Te3 1.932674 1_555
O16 Te4 1.917148 1_555
O17 Te5 1.917148 1_555
O18 Te6 1.895845 1_555
O19 Te7 1.895845 1_555
O20 Te8 1.889234 1_555
O20 Te7 2.487212 1_555
O21 Te9 1.889234 1_555
O21 Te6 2.487212 1_555
O22 Te10 1.894300 1_554
O22 Te12 2.707939 1_555
O23 Te11 1.894300 1_556
O23 Te13 2.707939 1_555
O24 Te6 1.942985 1_455
O25 Te7 1.942985 1_655
O26 Te8 1.897593 1_555
O27 Te9 1.897593 1_555
O28 Te10 1.876793 1_555
O29 Te11 1.876793 1_555
O30 Te6 1.904020 1_555
O30 Te2 2.545569 1_555
O31 Te7 1.904020 1_555
O31 Te3 2.545569 1_555
O32 Te8 1.879965 1_555
O33 Te9 1.879965 1_555
O34 Te10 1.872618 1_555
O35 Te11 1.872618 1_555
O36 Te17 1.915327 1_555
O37 Te16 1.915327 1_555
O38 Te15 1.921725 1_555
O39 Te14 1.921725 1_555
O40 Te13 1.926164 1_555
O41 Te12 1.926164 1_555
O42 Te17 1.906510 1_555
O43 Te16 1.906510 1_555
O44 Te15 1.893128 1_555
O45 Te14 1.893128 1_555
O46 Te13 1.915457 1_455
O47 Te12 1.915457 1_655
O48 Te17 1.890426 1_555
O49 Te16 1.890426 1_555
O50 Te15 1.917842 1_555
O51 Te14 1.917842 1_555
O52 Te13 1.891369 1_555
O53 Te12 1.891369 1_555
