# generated using pymatgen
data_YAgPb
_symmetry_space_group_name_H-M   'P 1'
_cell_length_a   7.52200757
_cell_length_b   7.52200757
_cell_length_c   4.52338629
_cell_angle_alpha   90.00000000
_cell_angle_beta   90.00000000
_cell_angle_gamma   120.00000762
_symmetry_Int_Tables_number   1
_chemical_formula_structural   YAgPb
_chemical_formula_sum   'Y3 Ag3 Pb3'
_cell_volume   221.64697455
_cell_formula_units_Z   3
loop_
 _symmetry_equiv_pos_site_id
 _symmetry_equiv_pos_as_xyz
  1  'x, y, z'
loop_
 _atom_site_type_symbol
 _atom_site_label
 _atom_site_symmetry_multiplicity
 _atom_site_fract_x
 _atom_site_fract_y
 _atom_site_fract_z
 _atom_site_occupancy
  Y  Y0  1  0.57469587  0.00000000  0.50000000  1
  Y  Y1  1  0.42530413  0.42530413  0.50000000  1
  Y  Y2  1  0.00000000  0.57469587  0.50000000  1
  Ag  Ag0  1  0.24621856  0.00000000  -0.00000000  1
  Ag  Ag1  1  0.75378144  0.75378144  0.00000000  1
  Ag  Ag2  1  0.00000000  0.24621856  -0.00000000  1
  Pb  Pb0  1  -0.00000000  -0.00000000  0.50000000  1
  Pb  Pb1  1  0.33333300  0.66666700  0.00000000  1
  Pb  Pb2  1  0.66666700  0.33333300  0.00000000  1
loop_
_geom_bond_atom_site_label_1
_geom_bond_atom_site_label_2
_geom_bond_distance
_geom_bond_site_symmetry_2
Ag0 Pb1 2.891211 1_545
Ag0 Pb2 2.891216 1_555
Ag0 Pb0 2.923247 1_555
Ag0 Pb0 2.923247 1_554
Ag0 Ag1 3.207858 1_445
Ag0 Ag2 3.207858 1_555
Ag0 Y0 3.349650 1_555
Ag0 Y0 3.349650 1_554
Ag0 Y2 3.585370 1_544
Ag0 Y2 3.585370 1_545
Ag0 Y1 3.585370 1_555
Ag0 Y1 3.585370 1_554
Ag1 Pb2 2.891218 1_555
Ag1 Pb1 2.891218 1_555
Ag1 Pb0 2.923247 1_665
Ag1 Pb0 2.923247 1_664
Ag1 Ag2 3.207858 1_665
Ag1 Y1 3.349649 1_555
Ag1 Y1 3.349649 1_554
Ag1 Y2 3.585371 1_655
Ag1 Y0 3.585371 1_565
Ag1 Y2 3.585371 1_654
Ag1 Y0 3.585371 1_564
Ag2 Pb2 2.891211 1_455
Ag2 Pb1 2.891216 1_555
Ag2 Pb0 2.923247 1_555
Ag2 Pb0 2.923247 1_554
Ag2 Y2 3.349650 1_554
Ag2 Y2 3.349650 1_555
Ag2 Y0 3.585370 1_455
Ag2 Y0 3.585370 1_454
Ag2 Y1 3.585370 1_555
Ag2 Y1 3.585370 1_554
Pb0 Y1 3.199141 1_555
Pb0 Y2 3.199141 1_545
Pb0 Y0 3.199141 1_455
Pb1 Y2 3.185276 1_555
Pb1 Y2 3.185276 1_554
Pb1 Y0 3.185277 1_564
Pb1 Y0 3.185277 1_565
Pb1 Y1 3.185281 1_555
Pb1 Y1 3.185281 1_554
Pb2 Y0 3.185276 1_554
Pb2 Y0 3.185276 1_555
Pb2 Y2 3.185277 1_655
Pb2 Y2 3.185277 1_654
Pb2 Y1 3.185281 1_555
Pb2 Y1 3.185281 1_554
