# generated using pymatgen
data_Na6Mg4Nb2Si3(SO6)6
_symmetry_space_group_name_H-M   'P 1'
_cell_length_a   8.88829465
_cell_length_b   8.88829435
_cell_length_c   22.62384714
_cell_angle_alpha   90.00000000
_cell_angle_beta   90.00000000
_cell_angle_gamma   120.00000108
_symmetry_Int_Tables_number   1
_chemical_formula_structural   Na6Mg4Nb2Si3(SO6)6
_chemical_formula_sum   'Na12 Mg8 Nb4 Si6 S12 O72'
_cell_volume   1547.86812320
_cell_formula_units_Z   2
loop_
 _symmetry_equiv_pos_site_id
 _symmetry_equiv_pos_as_xyz
  1  'x, y, z'
loop_
 _atom_site_type_symbol
 _atom_site_label
 _atom_site_symmetry_multiplicity
 _atom_site_fract_x
 _atom_site_fract_y
 _atom_site_fract_z
 _atom_site_occupancy
  Na  Na0  1  0.98288669  0.68968908  0.91689088  1
  Na  Na1  1  0.70680139  0.01711331  0.91689088  1
  Na  Na2  1  0.31031092  0.29319861  0.91689088  1
  Na  Na3  1  0.98288669  0.29319861  0.41689088  1
  Na  Na4  1  0.31031092  0.01711331  0.41689088  1
  Na  Na5  1  0.70680139  0.68968908  0.41689088  1
  Na  Na6  1  0.00000000  0.00000000  0.49752599  1
  Na  Na7  1  0.00000000  0.00000000  0.99752599  1
  Na  Na8  1  0.66666700  0.33333300  0.82431965  1
  Na  Na9  1  0.66666700  0.33333300  0.32431965  1
  Na  Na10  1  0.33333300  0.66666700  0.16180345  1
  Na  Na11  1  0.33333300  0.66666700  0.66180345  1
  Mg  Mg0  1  0.00000000  0.00000000  0.34981127  1
  Mg  Mg1  1  0.00000000  0.00000000  0.84981127  1
  Mg  Mg2  1  0.00000000  0.00000000  0.64935256  1
  Mg  Mg3  1  0.00000000  0.00000000  0.14935256  1
  Mg  Mg4  1  0.66666700  0.33333300  0.68415268  1
  Mg  Mg5  1  0.66666700  0.33333300  0.18415268  1
  Mg  Mg6  1  0.33333300  0.66666700  0.01676385  1
  Mg  Mg7  1  0.33333300  0.66666700  0.51676385  1
  Nb  Nb0  1  0.66666700  0.33333300  0.97919439  1
  Nb  Nb1  1  0.66666700  0.33333300  0.47919439  1
  Nb  Nb2  1  0.33333300  0.66666700  0.31728590  1
  Nb  Nb3  1  0.33333300  0.66666700  0.81728590  1
  Si  Si0  1  0.62625828  0.67201065  0.92017468  1
  Si  Si1  1  0.04575136  0.37374172  0.92017468  1
  Si  Si2  1  0.32798935  0.95424864  0.92017468  1
  Si  Si3  1  0.62625828  0.95424864  0.42017468  1
  Si  Si4  1  0.32798935  0.37374172  0.42017468  1
  Si  Si5  1  0.04575136  0.67201065  0.42017468  1
  S  S0  1  0.29491662  0.00156768  0.24918206  1
  S  S1  1  0.70665106  0.70508338  0.24918206  1
  S  S2  1  0.99843232  0.29334894  0.24918206  1
  S  S3  1  0.29491662  0.29334894  0.74918206  1
  S  S4  1  0.99843232  0.70508338  0.74918206  1
  S  S5  1  0.70665106  0.00156768  0.74918206  1
  S  S6  1  0.95932159  0.33303396  0.58581244  1
  S  S7  1  0.37371337  0.04067841  0.58581244  1
  S  S8  1  0.66696604  0.62628663  0.58581244  1
  S  S9  1  0.95932159  0.62628663  0.08581244  1
  S  S10  1  0.66696604  0.04067841  0.08581244  1
  S  S11  1  0.37371337  0.33303396  0.08581244  1
  O  O0  1  0.21789101  0.01950265  0.30456858  1
  O  O1  1  0.80161164  0.78210899  0.30456858  1
  O  O2  1  0.98049735  0.19838836  0.30456858  1
  O  O3  1  0.21789101  0.19838836  0.80456858  1
  O  O4  1  0.98049735  0.78210899  0.80456858  1
  O  O5  1  0.80161164  0.01950265  0.80456858  1
  O  O6  1  0.79111676  0.97695314  0.69715942  1
  O  O7  1  0.18583638  0.20888324  0.69715942  1
  O  O8  1  0.02304686  0.81416362  0.69715942  1
  O  O9  1  0.79111676  0.81416362  0.19715942  1
  O  O10  1  0.02304686  0.20888324  0.19715942  1
  O  O11  1  0.18583638  0.97695314  0.19715942  1
  O  O12  1  0.86640207  0.35017077  0.63641823  1
  O  O13  1  0.48376970  0.13359793  0.63641823  1
  O  O14  1  0.64982923  0.51623030  0.63641823  1
  O  O15  1  0.86640207  0.51623030  0.13641823  1
  O  O16  1  0.64982923  0.13359793  0.13641823  1
  O  O17  1  0.48376970  0.35017077  0.13641823  1
  O  O18  1  0.46568361  0.31588596  0.02970679  1
  O  O19  1  0.85020335  0.53431639  0.02970679  1
  O  O20  1  0.68411404  0.14979665  0.02970679  1
  O  O21  1  0.46568361  0.14979665  0.52970679  1
  O  O22  1  0.68411404  0.53431639  0.52970679  1
  O  O23  1  0.85020335  0.31588596  0.52970679  1
  O  O24  1  0.54522819  0.71181329  0.97558172  1
  O  O25  1  0.16658410  0.45477181  0.97558172  1
  O  O26  1  0.28818671  0.83341590  0.97558172  1
  O  O27  1  0.54522819  0.83341590  0.47558172  1
  O  O28  1  0.28818671  0.45477181  0.47558172  1
  O  O29  1  0.16658410  0.71181329  0.47558172  1
  O  O30  1  0.13160200  0.62235799  0.36071443  1
  O  O31  1  0.49075499  0.86839800  0.36071443  1
  O  O32  1  0.37764201  0.50924501  0.36071443  1
  O  O33  1  0.13160200  0.50924501  0.86071443  1
  O  O34  1  0.37764201  0.86839800  0.86071443  1
  O  O35  1  0.49075499  0.62235799  0.86071443  1
  O  O36  1  0.00603251  0.82493351  0.40627388  1
  O  O37  1  0.81890100  0.99396749  0.40627388  1
  O  O38  1  0.17506649  0.18109900  0.40627388  1
  O  O39  1  0.00603251  0.18109900  0.90627388  1
  O  O40  1  0.17506649  0.99396749  0.90627388  1
  O  O41  1  0.81890100  0.82493351  0.90627388  1
  O  O42  1  0.96860729  0.17207312  0.58772563  1
  O  O43  1  0.20346583  0.03139271  0.58772563  1
  O  O44  1  0.82792688  0.79653417  0.58772563  1
  O  O45  1  0.96860729  0.79653417  0.08772563  1
  O  O46  1  0.82792688  0.03139271  0.08772563  1
  O  O47  1  0.20346583  0.17207312  0.08772563  1
  O  O48  1  0.68228097  0.15417614  0.74313641  1
  O  O49  1  0.47189616  0.31771903  0.74313641  1
  O  O50  1  0.84582386  0.52810384  0.74313641  1
  O  O51  1  0.68228097  0.52810384  0.24313641  1
  O  O52  1  0.84582386  0.31771903  0.24313641  1
  O  O53  1  0.47189616  0.15417614  0.24313641  1
  O  O54  1  0.63481089  0.48850037  0.92637027  1
  O  O55  1  0.85369048  0.36518911  0.92637027  1
  O  O56  1  0.51149963  0.14630952  0.92637027  1
  O  O57  1  0.63481089  0.14630952  0.42637027  1
  O  O58  1  0.51149963  0.36518911  0.42637027  1
  O  O59  1  0.85369048  0.48850037  0.42637027  1
  O  O60  1  0.35974281  0.48996602  0.07997560  1
  O  O61  1  0.13022221  0.64025719  0.07997560  1
  O  O62  1  0.51003398  0.86977779  0.07997560  1
  O  O63  1  0.35974281  0.86977779  0.57997560  1
  O  O64  1  0.51003398  0.64025719  0.57997560  1
  O  O65  1  0.13022221  0.48996602  0.57997560  1
  O  O66  1  0.31034639  0.83755476  0.25357272  1
  O  O67  1  0.52720736  0.68965361  0.25357272  1
  O  O68  1  0.16244524  0.47279264  0.25357272  1
  O  O69  1  0.31034639  0.47279264  0.75357272  1
  O  O70  1  0.16244524  0.68965361  0.75357272  1
  O  O71  1  0.52720736  0.83755476  0.75357272  1
loop_
_geom_bond_atom_site_label_1
_geom_bond_atom_site_label_2
_geom_bond_distance
_geom_bond_site_symmetry_2
Na0 O41 2.319331 1_555
Na0 O40 2.381210 1_655
Na0 O55 2.524180 1_555
Na0 O4 2.673984 1_555
Na0 O54 2.698691 1_555
Na0 O26 2.700385 1_655
Na0 O33 2.838094 1_655
Na0 O19 2.860718 1_556
Na1 O39 2.319338 1_655
Na1 O41 2.381217 1_545
Na1 O56 2.524164 1_555
Na1 O5 2.673987 1_555
Na1 O55 2.698689 1_555
Na1 O24 2.700385 1_545
Na1 O34 2.838094 1_545
Na1 O20 2.860713 1_556
Na2 O40 2.319339 1_545
Na2 O39 2.381208 1_555
Na2 O54 2.524178 1_555
Na2 O3 2.673986 1_555
Na2 O56 2.698705 1_555
Na2 O25 2.700385 1_555
Na2 O35 2.838094 1_555
Na2 O18 2.860721 1_556
Na3 O37 2.319338 1_545
Na3 O38 2.381217 1_655
Na3 O59 2.524164 1_555
Na3 O2 2.673987 1_555
Na3 O57 2.698689 1_555
Na3 O28 2.700385 1_655
Na3 O30 2.838094 1_655
Na3 O23 2.860713 1_555
Na4 O38 2.319331 1_555
Na4 O36 2.381210 1_545
Na4 O57 2.524180 1_555
Na4 O0 2.673984 1_555
Na4 O58 2.698690 1_555
Na4 O29 2.700385 1_545
Na4 O31 2.838094 1_545
Na4 O21 2.860718 1_555
Na5 O36 2.319339 1_655
Na5 O37 2.381208 1_555
Na5 O58 2.524178 1_555
Na5 O1 2.673986 1_555
Na5 O59 2.698705 1_555
Na5 O27 2.700385 1_555
Na5 O32 2.838094 1_555
Na5 O22 2.860721 1_555
Na6 O38 2.601851 1_555
Na6 O36 2.601851 1_545
Na6 O37 2.601851 1_445
Na6 O44 2.647280 1_445
Na6 O42 2.647280 1_455
Na6 O43 2.647280 1_555
Na7 O39 2.601851 1_555
Na7 O41 2.601851 1_445
Na7 O40 2.601851 1_545
Na7 O45 2.647280 1_446
Na7 O47 2.647280 1_556
Na7 O46 2.647280 1_456
Na8 O48 2.479793 1_555
Na8 O50 2.479793 1_555
Na8 O49 2.479793 1_555
Na8 O56 2.775473 1_555
Na8 O54 2.775473 1_555
Na8 O55 2.775474 1_555
Na9 O53 2.479793 1_555
Na9 O52 2.479793 1_555
Na9 O51 2.479793 1_555
Na9 O57 2.775473 1_555
Na9 O59 2.775473 1_555
Na9 O58 2.775474 1_555
Na10 O62 2.513490 1_555
Na10 O60 2.513490 1_555
Na10 O61 2.513490 1_555
Na10 O68 2.640006 1_555
Na10 O67 2.640006 1_555
Na10 O66 2.640006 1_555
Na11 O63 2.513490 1_555
Na11 O65 2.513490 1_555
Na11 O64 2.513490 1_555
Na11 O69 2.640006 1_555
Na11 O71 2.640006 1_555
Na11 O70 2.640006 1_555
Mg0 O38 2.034535 1_555
Mg0 O36 2.034535 1_545
Mg0 O37 2.034535 1_445
Mg0 O1 2.119609 1_445
Mg0 O2 2.119609 1_455
Mg0 O0 2.119610 1_555
Mg1 O39 2.034535 1_555
Mg1 O41 2.034535 1_445
Mg1 O40 2.034535 1_545
Mg1 O4 2.119609 1_445
Mg1 O3 2.119609 1_555
Mg1 O5 2.119610 1_455
Mg2 O7 2.068445 1_555
Mg2 O8 2.068445 1_545
Mg2 O6 2.068445 1_445
Mg2 O44 2.188079 1_445
Mg2 O42 2.188079 1_455
Mg2 O43 2.188079 1_555
Mg3 O10 2.068445 1_555
Mg3 O9 2.068445 1_445
Mg3 O11 2.068445 1_545
Mg3 O45 2.188079 1_445
Mg3 O47 2.188079 1_555
Mg3 O46 2.188079 1_455
Mg4 O13 2.018583 1_555
Mg4 O14 2.018583 1_555
Mg4 O12 2.018583 1_555
Mg4 O48 2.134647 1_555
Mg4 O50 2.134647 1_555
Mg4 O49 2.134647 1_555
Mg5 O16 2.018583 1_555
Mg5 O15 2.018583 1_555
Mg5 O17 2.018583 1_555
Mg5 O53 2.134647 1_555
Mg5 O52 2.134647 1_555
Mg5 O51 2.134647 1_555
Mg6 O25 1.954603 1_554
Mg6 O26 1.954603 1_554
Mg6 O24 1.954604 1_554
Mg6 O62 2.221628 1_555
Mg6 O60 2.221628 1_555
Mg6 O61 2.221628 1_555
Mg7 O28 1.954603 1_555
Mg7 O27 1.954603 1_555
Mg7 O29 1.954604 1_555
Mg7 O63 2.221628 1_555
Mg7 O65 2.221628 1_555
Mg7 O64 2.221628 1_555
Nb0 O56 1.949622 1_555
Nb0 O54 1.949622 1_555
Nb0 O55 1.949622 1_555
Nb0 O19 2.060146 1_556
Nb0 O20 2.060147 1_556
Nb0 O18 2.060147 1_556
Nb1 O57 1.949622 1_555
Nb1 O59 1.949622 1_555
Nb1 O58 1.949622 1_555
Nb1 O22 2.060146 1_555
Nb1 O21 2.060147 1_555
Nb1 O23 2.060147 1_555
Nb2 O31 1.905072 1_555
Nb2 O32 1.905072 1_555
Nb2 O30 1.905072 1_555
Nb2 O68 2.176436 1_555
Nb2 O67 2.176436 1_555
Nb2 O66 2.176436 1_555
Nb3 O34 1.905072 1_555
Nb3 O33 1.905072 1_555
Nb3 O35 1.905072 1_555
Nb3 O69 2.176436 1_555
Nb3 O71 2.176436 1_555
Nb3 O70 2.176436 1_555
O0 S0 1.474250 1_555
O1 S1 1.474250 1_555
O2 S2 1.474250 1_555
O3 S3 1.474250 1_555
O4 S4 1.474250 1_555
O5 S5 1.474250 1_555
O6 S5 1.470023 1_565
O7 S3 1.470023 1_555
O8 S4 1.470023 1_455
O9 S1 1.470023 1_555
O10 S2 1.470023 1_455
O11 S0 1.470023 1_565
O12 S6 1.463521 1_555
O13 S7 1.463521 1_555
O14 S8 1.463521 1_555
O15 S9 1.463521 1_555
O16 S10 1.463521 1_555
O17 S11 1.463521 1_555
O18 S11 1.557964 1_555
O19 S9 1.557964 1_555
O20 S10 1.557964 1_555
O21 S7 1.557964 1_555
O22 S8 1.557964 1_555
O23 S6 1.557964 1_555
O24 Si0 1.571619 1_555
O25 Si1 1.571619 1_555
O26 Si2 1.571619 1_555
O27 Si3 1.571619 1_555
O28 Si4 1.571619 1_555
O29 Si5 1.571619 1_555
O30 Si5 1.709800 1_555
O31 Si3 1.709800 1_555
O32 Si4 1.709800 1_555
O33 Si1 1.709800 1_555
O34 Si2 1.709800 1_555
O35 Si0 1.709800 1_555
O36 Si5 1.597146 1_555
O37 Si3 1.597154 1_555
O38 Si4 1.597152 1_555
O39 Si1 1.597154 1_555
O40 Si2 1.597146 1_555
O41 Si0 1.597152 1_555
O42 S6 1.474304 1_555
O43 S7 1.474313 1_555
O44 S8 1.474309 1_555
O45 S9 1.474313 1_555
O46 S10 1.474304 1_555
O47 S11 1.474309 1_555
O48 S5 1.483017 1_555
O49 S3 1.483026 1_555
O50 S4 1.483023 1_555
O51 S1 1.483026 1_555
O52 S2 1.483017 1_555
O53 S0 1.483023 1_555
O54 Si0 1.676271 1_555
O55 Si1 1.676253 1_655
O56 Si2 1.676261 1_545
O57 Si3 1.676253 1_545
O58 Si4 1.676271 1_555
O59 Si5 1.676261 1_655
O60 S11 1.466865 1_555
O61 S9 1.466847 1_455
O62 S10 1.466855 1_565
O63 S7 1.466847 1_565
O64 S8 1.466865 1_555
O65 S6 1.466855 1_455
O66 S0 1.534200 1_565
O67 S1 1.534209 1_555
O68 S2 1.534205 1_455
O69 S3 1.534209 1_555
O70 S4 1.534200 1_455
O71 S5 1.534205 1_565
