# generated using pymatgen
data_MgFe3Co5O16
_symmetry_space_group_name_H-M   'P 1'
_cell_length_a   5.90833185
_cell_length_b   5.69767959
_cell_length_c   8.89130450
_cell_angle_alpha   89.75272953
_cell_angle_beta   93.52320307
_cell_angle_gamma   118.84868692
_symmetry_Int_Tables_number   1
_chemical_formula_structural   MgFe3Co5O16
_chemical_formula_sum   'Mg1 Fe3 Co5 O16'
_cell_volume   261.56364875
_cell_formula_units_Z   1
loop_
 _symmetry_equiv_pos_site_id
 _symmetry_equiv_pos_as_xyz
  1  'x, y, z'
loop_
 _atom_site_type_symbol
 _atom_site_label
 _atom_site_symmetry_multiplicity
 _atom_site_fract_x
 _atom_site_fract_y
 _atom_site_fract_z
 _atom_site_occupancy
  Mg  Mg0  1  0.34151900  0.68369800  0.89237100  1
  Fe  Fe0  1  0.66198200  0.83896800  0.23235000  1
  Fe  Fe1  1  0.84984600  0.68403500  0.70138100  1
  Fe  Fe2  1  0.85203500  0.18778400  0.70078900  1
  Co  Co0  1  0.15903800  0.83973700  0.22017200  1
  Co  Co1  1  0.34136500  0.67619300  0.48727400  1
  Co  Co2  1  0.15818000  0.33626700  0.21990700  1
  Co  Co3  1  0.35330500  0.18571500  0.70544000  1
  Co  Co4  1  0.68641600  0.35343300  0.99806000  1
  O  O0  1  0.20144700  0.85151400  0.60645800  1
  O  O1  1  0.04946700  0.53291900  0.34409800  1
  O  O2  1  0.31733900  0.66820600  0.11227800  1
  O  O3  1  0.01117400  0.01346500  0.32714400  1
  O  O4  1  0.03902700  0.01974500  0.80796600  1
  O  O5  1  0.19817500  0.36640400  0.60847900  1
  O  O6  1  0.45607500  0.95990100  0.35494600  1
  O  O7  1  0.45246400  0.50973100  0.35468200  1
  O  O8  1  0.29952800  0.15925900  0.12045400  1
  O  O9  1  0.66415900  0.83790500  0.59820700  1
  O  O10  1  0.52975900  0.48708100  0.84901800  1
  O  O11  1  0.53850600  0.06593600  0.84647200  1
  O  O12  1  0.65756600  0.34942300  0.59776500  1
  O  O13  1  0.82802400  0.66450500  0.11050100  1
  O  O14  1  0.97275500  0.50344100  0.84152700  1
  O  O15  1  0.82876700  0.18326700  0.10923100  1
loop_
_geom_bond_atom_site_label_1
_geom_bond_atom_site_label_2
_geom_bond_distance
_geom_bond_site_symmetry_2
Mg0 O14 1.931280 1_455
Mg0 O11 1.966960 1_565
Mg0 O2 1.967719 1_556
Mg0 O10 1.974655 1_555
Fe0 O3 1.941522 1_665
Fe0 O2 2.015618 1_555
Fe0 O6 2.030118 1_555
Fe0 O7 2.035048 1_555
Fe0 O13 2.050669 1_555
Fe0 O15 2.065500 1_565
Fe1 O12 1.889604 1_555
Fe1 O9 1.900341 1_555
Fe1 O4 1.904846 1_665
Fe1 O14 1.933293 1_555
Fe1 O0 2.057666 1_655
Fe1 O10 2.191675 1_555
Fe2 O9 1.947814 1_545
Fe2 O12 1.972801 1_555
Fe2 O4 1.982137 1_655
Fe2 O14 1.995264 1_555
Fe2 O5 2.020512 1_655
Fe2 O11 2.153471 1_555
Co0 O8 1.845998 1_565
Co0 O6 1.890454 1_555
Co0 O3 1.895362 1_565
Co0 O13 1.913722 1_455
Co0 O1 1.915249 1_555
Co0 O2 1.936673 1_555
Co1 O7 1.850894 1_555
Co1 O6 1.865752 1_555
Co1 O9 1.881500 1_555
Co1 O1 1.908369 1_555
Co1 O5 1.909775 1_555
Co1 O0 1.928188 1_555
Co2 O8 1.846010 1_555
Co2 O7 1.879312 1_555
Co2 O3 1.895084 1_555
Co2 O15 1.910772 1_455
Co2 O1 1.918239 1_555
Co2 O2 1.937976 1_555
Co3 O5 1.857148 1_555
Co3 O0 1.863911 1_545
Co3 O12 1.898407 1_555
Co3 O4 1.918150 1_555
Co3 O11 1.944250 1_555
Co3 O10 1.947524 1_555
Co4 O15 1.816839 1_556
Co4 O13 1.822735 1_556
Co4 O10 1.927002 1_555
Co4 O11 1.938159 1_555
Co4 O14 2.100829 1_555
Co4 O8 2.342723 1_556
