# generated using pymatgen
data_SiP
_symmetry_space_group_name_H-M   'P 1'
_cell_length_a   3.52225672
_cell_length_b   10.41056083
_cell_length_c   14.41213395
_cell_angle_alpha   90.00457331
_cell_angle_beta   89.99952304
_cell_angle_gamma   99.74140773
_symmetry_Int_Tables_number   1
_chemical_formula_structural   SiP
_chemical_formula_sum   'Si12 P12'
_cell_volume   520.85392293
_cell_formula_units_Z   12
loop_
 _symmetry_equiv_pos_site_id
 _symmetry_equiv_pos_as_xyz
  1  'x, y, z'
loop_
 _atom_site_type_symbol
 _atom_site_label
 _atom_site_symmetry_multiplicity
 _atom_site_fract_x
 _atom_site_fract_y
 _atom_site_fract_z
 _atom_site_occupancy
  Si  Si0  1  0.16987701  0.34009465  0.73866032  1
  Si  Si1  1  0.83012548  0.65988954  0.23856895  1
  Si  Si2  1  0.05893626  0.11829190  0.77879982  1
  Si  Si3  1  0.94105863  0.88170734  0.27868124  1
  Si  Si4  1  0.43462489  0.86991016  0.68465431  1
  Si  Si5  1  0.56534289  0.13007524  0.18454320  1
  Si  Si6  1  0.43154738  0.86388498  0.84699323  1
  Si  Si7  1  0.56842666  0.13611961  0.34688447  1
  Si  Si8  1  0.79410843  0.58848554  0.83244130  1
  Si  Si9  1  0.20592074  0.41154810  0.33232910  1
  Si  Si10  1  0.79718534  0.59434461  0.67017927  1
  Si  Si11  1  0.20282949  0.40562984  0.17007179  1
  P  P0  1  0.99830599  0.99732175  0.64479078  1
  P  P1  1  0.00164463  0.00266790  0.14466185  1
  P  P2  1  0.23053515  0.46133520  0.87244875  1
  P  P3  1  0.76950404  0.53869699  0.37235842  1
  P  P4  1  0.34366842  0.68733415  0.59715836  1
  P  P5  1  0.65634452  0.31262714  0.09704723  1
  P  P6  1  0.53994475  0.08044318  0.87505294  1
  P  P7  1  0.46005154  0.91957177  0.37494872  1
  P  P8  1  0.68869051  0.37763406  0.64241798  1
  P  P9  1  0.31133105  0.62233879  0.14232792  1
  P  P10  1  0.88503070  0.77092142  0.92001168  1
  P  P11  1  0.11496550  0.22912713  0.41988937  1
loop_
_geom_bond_atom_site_label_1
_geom_bond_atom_site_label_2
_geom_bond_distance
_geom_bond_site_symmetry_2
Si0 Si2 2.348216 1_555
Si1 Si3 2.348180 1_555
Si4 Si6 2.340472 1_555
Si5 Si7 2.340501 1_555
Si10 Si8 2.339320 1_555
Si11 Si9 2.339258 1_555
P0 Si4 2.267227 1_555
P0 Si4 2.267440 1_655
P0 Si2 2.295725 1_665
P1 Si5 2.267274 1_555
P1 Si5 2.267367 1_455
P1 Si3 2.295964 1_445
P2 Si8 2.266271 1_555
P2 Si8 2.266360 1_455
P2 Si0 2.294554 1_555
P3 Si9 2.266327 1_555
P3 Si9 2.266342 1_655
P3 Si1 2.294466 1_555
P4 Si4 2.258109 1_555
P4 Si10 2.262586 1_455
P4 Si10 2.262715 1_555
P5 Si5 2.258070 1_555
P5 Si11 2.262597 1_655
P5 Si11 2.262725 1_555
P6 Si6 2.258455 1_545
P6 Si2 2.275101 1_555
P6 Si2 2.275429 1_655
P7 Si7 2.258425 1_565
P7 Si3 2.275217 1_555
P7 Si3 2.275545 1_455
P8 Si10 2.259227 1_555
P8 Si0 2.274530 1_655
P8 Si0 2.274731 1_555
P9 Si11 2.259229 1_555
P9 Si1 2.274551 1_455
P9 Si1 2.274652 1_555
P10 Si8 2.257516 1_555
P10 Si6 2.262458 1_555
P10 Si6 2.262585 1_655
P11 Si9 2.257474 1_555
P11 Si7 2.262473 1_555
P11 Si7 2.262628 1_455
