# generated using pymatgen
data_MgTe2Mo2W2(Se2S)2
_symmetry_space_group_name_H-M   'P 1'
_cell_length_a   6.66857800
_cell_length_b   6.66826231
_cell_length_c   76.28258400
_cell_angle_alpha   90.00080720
_cell_angle_beta   90.00006441
_cell_angle_gamma   120.00155617
_symmetry_Int_Tables_number   1
_chemical_formula_structural   MgTe2Mo2W2(Se2S)2
_chemical_formula_sum   'Mg8 Te16 Mo16 W16 Se32 S16'
_cell_volume   2937.61669569
_cell_formula_units_Z   8
loop_
 _symmetry_equiv_pos_site_id
 _symmetry_equiv_pos_as_xyz
  1  'x, y, z'
loop_
 _atom_site_type_symbol
 _atom_site_label
 _atom_site_symmetry_multiplicity
 _atom_site_fract_x
 _atom_site_fract_y
 _atom_site_fract_z
 _atom_site_occupancy
  Mg  Mg0_0  1  0.31569850  0.16843550  0.43321550  1
  Mg  Mg0_1  1  0.31569850  0.16843550  0.93321550  1
  Mg  Mg0_2  1  0.31569850  0.66843550  0.43321550  1
  Mg  Mg0_3  1  0.31569850  0.66843550  0.93321550  1
  Mg  Mg0_4  1  0.81569850  0.16843550  0.43321550  1
  Mg  Mg0_5  1  0.81569850  0.16843550  0.93321550  1
  Mg  Mg0_6  1  0.81569850  0.66843550  0.43321550  1
  Mg  Mg0_7  1  0.81569850  0.66843550  0.93321550  1
  Te  Te0_0  1  0.33332250  0.16664400  0.02203550  1
  Te  Te0_1  1  0.33332250  0.16664400  0.52203550  1
  Te  Te0_2  1  0.33332250  0.66664400  0.02203550  1
  Te  Te0_3  1  0.33332250  0.66664400  0.52203550  1
  Te  Te0_4  1  0.83332250  0.16664400  0.02203550  1
  Te  Te0_5  1  0.83332250  0.16664400  0.52203550  1
  Te  Te0_6  1  0.83332250  0.66664400  0.02203550  1
  Te  Te0_7  1  0.83332250  0.66664400  0.52203550  1
  Te  Te1_0  1  0.33332400  0.16664750  0.07184000  1
  Te  Te1_1  1  0.33332400  0.16664750  0.57184000  1
  Te  Te1_2  1  0.33332400  0.66664750  0.07184000  1
  Te  Te1_3  1  0.33332400  0.66664750  0.57184000  1
  Te  Te1_4  1  0.83332400  0.16664750  0.07184000  1
  Te  Te1_5  1  0.83332400  0.16664750  0.57184000  1
  Te  Te1_6  1  0.83332400  0.66664750  0.07184000  1
  Te  Te1_7  1  0.83332400  0.66664750  0.57184000  1
  Mo  Mo0_0  1  0.16665550  0.33331000  0.04691600  1
  Mo  Mo0_1  1  0.16665550  0.33331000  0.54691600  1
  Mo  Mo0_2  1  0.16665550  0.83331000  0.04691600  1
  Mo  Mo0_3  1  0.16665550  0.83331000  0.54691600  1
  Mo  Mo0_4  1  0.66665550  0.33331000  0.04691600  1
  Mo  Mo0_5  1  0.66665550  0.33331000  0.54691600  1
  Mo  Mo0_6  1  0.66665550  0.83331000  0.04691600  1
  Mo  Mo0_7  1  0.66665550  0.83331000  0.54691600  1
  Mo  Mo1_0  1  0.33334400  0.16668700  0.14093950  1
  Mo  Mo1_1  1  0.33334400  0.16668700  0.64093950  1
  Mo  Mo1_2  1  0.33334400  0.66668700  0.14093950  1
  Mo  Mo1_3  1  0.33334400  0.66668700  0.64093950  1
  Mo  Mo1_4  1  0.83334400  0.16668700  0.14093950  1
  Mo  Mo1_5  1  0.83334400  0.16668700  0.64093950  1
  Mo  Mo1_6  1  0.83334400  0.66668700  0.14093950  1
  Mo  Mo1_7  1  0.83334400  0.66668700  0.64093950  1
  W  W0_0  1  0.16664750  0.33329400  0.23483750  1
  W  W0_1  1  0.16664750  0.33329400  0.73483750  1
  W  W0_2  1  0.16664750  0.83329400  0.23483750  1
  W  W0_3  1  0.16664750  0.83329400  0.73483750  1
  W  W0_4  1  0.66664750  0.33329400  0.23483750  1
  W  W0_5  1  0.66664750  0.33329400  0.73483750  1
  W  W0_6  1  0.66664750  0.83329400  0.23483750  1
  W  W0_7  1  0.66664750  0.83329400  0.73483750  1
  W  W1_0  1  0.33334700  0.16669300  0.32878300  1
  W  W1_1  1  0.33334700  0.16669300  0.82878300  1
  W  W1_2  1  0.33334700  0.66669300  0.32878300  1
  W  W1_3  1  0.33334700  0.66669300  0.82878300  1
  W  W1_4  1  0.83334700  0.16669300  0.32878300  1
  W  W1_5  1  0.83334700  0.16669300  0.82878300  1
  W  W1_6  1  0.83334700  0.66669300  0.32878300  1
  W  W1_7  1  0.83334700  0.66669300  0.82878300  1
  Se  Se0_0  1  0.16667800  0.33335500  0.16281450  1
  Se  Se0_1  1  0.16667800  0.33335500  0.66281450  1
  Se  Se0_2  1  0.16667800  0.83335500  0.16281450  1
  Se  Se0_3  1  0.16667800  0.83335500  0.66281450  1
  Se  Se0_4  1  0.66667800  0.33335500  0.16281450  1
  Se  Se0_5  1  0.66667800  0.33335500  0.66281450  1
  Se  Se0_6  1  0.66667800  0.83335500  0.16281450  1
  Se  Se0_7  1  0.66667800  0.83335500  0.66281450  1
  Se  Se1_0  1  0.16668600  0.33337150  0.35077100  1
  Se  Se1_1  1  0.16668600  0.33337150  0.85077100  1
  Se  Se1_2  1  0.16668600  0.83337150  0.35077100  1
  Se  Se1_3  1  0.16668600  0.83337150  0.85077100  1
  Se  Se1_4  1  0.66668600  0.33337150  0.35077100  1
  Se  Se1_5  1  0.66668600  0.33337150  0.85077100  1
  Se  Se1_6  1  0.66668600  0.83337150  0.35077100  1
  Se  Se1_7  1  0.66668600  0.83337150  0.85077100  1
  Se  Se2_0  1  0.16667650  0.33335200  0.11902050  1
  Se  Se2_1  1  0.16667650  0.33335200  0.61902050  1
  Se  Se2_2  1  0.16667650  0.83335200  0.11902050  1
  Se  Se2_3  1  0.16667650  0.83335200  0.61902050  1
  Se  Se2_4  1  0.66667650  0.33335200  0.11902050  1
  Se  Se2_5  1  0.66667650  0.33335200  0.61902050  1
  Se  Se2_6  1  0.66667650  0.83335200  0.11902050  1
  Se  Se2_7  1  0.66667650  0.83335200  0.61902050  1
  Se  Se3_0  1  0.16667700  0.33335350  0.30675900  1
  Se  Se3_1  1  0.16667700  0.33335350  0.80675900  1
  Se  Se3_2  1  0.16667700  0.83335350  0.30675900  1
  Se  Se3_3  1  0.16667700  0.83335350  0.80675900  1
  Se  Se3_4  1  0.66667700  0.33335350  0.30675900  1
  Se  Se3_5  1  0.66667700  0.33335350  0.80675900  1
  Se  Se3_6  1  0.66667700  0.83335350  0.30675900  1
  Se  Se3_7  1  0.66667700  0.83335350  0.80675900  1
  S  S0_0  1  0.33332200  0.16664300  0.21486450  1
  S  S0_1  1  0.33332200  0.16664300  0.71486450  1
  S  S0_2  1  0.33332200  0.66664300  0.21486450  1
  S  S0_3  1  0.33332200  0.66664300  0.71486450  1
  S  S0_4  1  0.83332200  0.16664300  0.21486450  1
  S  S0_5  1  0.83332200  0.16664300  0.71486450  1
  S  S0_6  1  0.83332200  0.66664300  0.21486450  1
  S  S0_7  1  0.83332200  0.66664300  0.71486450  1
  S  S1_0  1  0.33332500  0.16664850  0.25479000  1
  S  S1_1  1  0.33332500  0.16664850  0.75479000  1
  S  S1_2  1  0.33332500  0.66664850  0.25479000  1
  S  S1_3  1  0.33332500  0.66664850  0.75479000  1
  S  S1_4  1  0.83332500  0.16664850  0.25479000  1
  S  S1_5  1  0.83332500  0.16664850  0.75479000  1
  S  S1_6  1  0.83332500  0.66664850  0.25479000  1
  S  S1_7  1  0.83332500  0.66664850  0.75479000  1
loop_
_geom_bond_atom_site_label_1
_geom_bond_atom_site_label_2
_geom_bond_distance
_geom_bond_site_symmetry_2
Mg0_0 Mg0_2 3.334131 1_545
Mg0_0 Mg0_2 3.334131 1_555
Mg0_0 Mg0_6 3.334132 1_445
Mg0_0 Mg0_6 3.334132 1_555
Mg0_0 Mg0_4 3.334289 1_555
Mg0_0 Mg0_4 3.334289 1_455
Mg0_1 Mg0_3 3.334131 1_545
Mg0_1 Mg0_3 3.334131 1_555
Mg0_1 Mg0_7 3.334132 1_555
Mg0_1 Mg0_7 3.334132 1_445
Mg0_1 Mg0_5 3.334289 1_555
Mg0_1 Mg0_5 3.334289 1_455
Mg0_2 Mg0_4 3.334132 1_565
Mg0_2 Mg0_4 3.334132 1_455
Mg0_2 Mg0_6 3.334289 1_455
Mg0_2 Mg0_6 3.334289 1_555
Mg0_3 Mg0_5 3.334132 1_565
Mg0_3 Mg0_5 3.334132 1_455
Mg0_3 Mg0_7 3.334289 1_555
Mg0_3 Mg0_7 3.334289 1_455
Mg0_4 Mg0_6 3.334131 1_545
Mg0_4 Mg0_6 3.334131 1_555
Mg0_5 Mg0_7 3.334131 1_555
Mg0_5 Mg0_7 3.334131 1_545
Mo0_0 Te0_2 2.703277 1_555
Mo0_0 Te0_4 2.703303 1_455
Mo0_0 Te0_0 2.703305 1_555
Mo0_0 Te1_2 2.705577 1_555
Mo0_0 Te1_0 2.705648 1_555
Mo0_0 Te1_4 2.705653 1_455
Mo0_1 Te0_3 2.703277 1_555
Mo0_1 Te0_5 2.703303 1_455
Mo0_1 Te0_1 2.703305 1_555
Mo0_1 Te1_3 2.705577 1_555
Mo0_1 Te1_1 2.705648 1_555
Mo0_1 Te1_5 2.705653 1_455
Mo0_2 Te0_0 2.703277 1_565
Mo0_2 Te0_6 2.703303 1_455
Mo0_2 Te0_2 2.703305 1_555
Mo0_2 Te1_0 2.705577 1_565
Mo0_2 Te1_2 2.705648 1_555
Mo0_2 Te1_6 2.705653 1_455
Mo0_3 Te0_1 2.703277 1_565
Mo0_3 Te0_7 2.703303 1_455
Mo0_3 Te0_3 2.703305 1_555
Mo0_3 Te1_1 2.705577 1_565
Mo0_3 Te1_3 2.705648 1_555
Mo0_3 Te1_7 2.705653 1_455
Mo0_4 Te0_6 2.703277 1_555
Mo0_4 Te0_0 2.703303 1_555
Mo0_4 Te0_4 2.703305 1_555
Mo0_4 Te1_6 2.705577 1_555
Mo0_4 Te1_4 2.705648 1_555
Mo0_4 Te1_0 2.705653 1_555
Mo0_5 Te0_7 2.703277 1_555
Mo0_5 Te0_1 2.703303 1_555
Mo0_5 Te0_5 2.703305 1_555
Mo0_5 Te1_7 2.705577 1_555
Mo0_5 Te1_5 2.705648 1_555
Mo0_5 Te1_1 2.705653 1_555
Mo0_6 Te0_4 2.703277 1_565
Mo0_6 Te0_2 2.703303 1_555
Mo0_6 Te0_6 2.703305 1_555
Mo0_6 Te1_4 2.705577 1_565
Mo0_6 Te1_6 2.705648 1_555
Mo0_6 Te1_2 2.705653 1_555
Mo0_7 Te0_5 2.703277 1_565
Mo0_7 Te0_3 2.703303 1_555
Mo0_7 Te0_7 2.703305 1_555
Mo0_7 Te1_5 2.705577 1_565
Mo0_7 Te1_7 2.705648 1_555
Mo0_7 Te1_3 2.705653 1_555
Mo1_0 Se0_2 2.547536 1_545
Mo1_0 Se0_4 2.547580 1_555
Mo1_0 Se0_0 2.547582 1_555
Mo1_0 Se2_2 2.549706 1_545
Mo1_0 Se2_0 2.549794 1_555
Mo1_0 Se2_4 2.549797 1_555
Mo1_1 Se0_3 2.547536 1_545
Mo1_1 Se0_5 2.547580 1_555
Mo1_1 Se0_1 2.547582 1_555
Mo1_1 Se2_3 2.549706 1_545
Mo1_1 Se2_1 2.549794 1_555
Mo1_1 Se2_5 2.549797 1_555
Mo1_2 Se0_0 2.547536 1_555
Mo1_2 Se0_6 2.547580 1_555
Mo1_2 Se0_2 2.547582 1_555
Mo1_2 Se2_0 2.549706 1_555
Mo1_2 Se2_2 2.549794 1_555
Mo1_2 Se2_6 2.549797 1_555
Mo1_3 Se0_1 2.547536 1_555
Mo1_3 Se0_7 2.547580 1_555
Mo1_3 Se0_3 2.547582 1_555
Mo1_3 Se2_1 2.549706 1_555
Mo1_3 Se2_3 2.549794 1_555
Mo1_3 Se2_7 2.549797 1_555
Mo1_4 Se0_6 2.547536 1_545
Mo1_4 Se0_0 2.547580 1_655
Mo1_4 Se0_4 2.547582 1_555
Mo1_4 Se2_6 2.549706 1_545
Mo1_4 Se2_4 2.549794 1_555
Mo1_4 Se2_0 2.549797 1_655
Mo1_5 Se0_7 2.547536 1_545
Mo1_5 Se0_1 2.547580 1_655
Mo1_5 Se0_5 2.547582 1_555
Mo1_5 Se2_7 2.549706 1_545
Mo1_5 Se2_5 2.549794 1_555
Mo1_5 Se2_1 2.549797 1_655
Mo1_6 Se0_4 2.547536 1_555
Mo1_6 Se0_2 2.547580 1_655
Mo1_6 Se0_6 2.547582 1_555
Mo1_6 Se2_4 2.549706 1_555
Mo1_6 Se2_6 2.549794 1_555
Mo1_6 Se2_2 2.549797 1_655
Mo1_7 Se0_5 2.547536 1_555
Mo1_7 Se0_3 2.547580 1_655
Mo1_7 Se0_7 2.547582 1_555
Mo1_7 Se2_5 2.549706 1_555
Mo1_7 Se2_7 2.549794 1_555
Mo1_7 Se2_3 2.549797 1_655
Se1_0 W1_2 2.553145 1_555
Se1_0 W1_4 2.553256 1_455
Se1_0 W1_0 2.553261 1_555
Se1_1 W1_3 2.553145 1_555
Se1_1 W1_5 2.553256 1_455
Se1_1 W1_1 2.553261 1_555
Se1_2 W1_0 2.553145 1_565
Se1_2 W1_6 2.553256 1_455
Se1_2 W1_2 2.553261 1_555
Se1_3 W1_1 2.553145 1_565
Se1_3 W1_7 2.553256 1_455
Se1_3 W1_3 2.553261 1_555
Se1_4 W1_6 2.553145 1_555
Se1_4 W1_0 2.553256 1_555
Se1_4 W1_4 2.553261 1_555
Se1_5 W1_7 2.553145 1_555
Se1_5 W1_1 2.553256 1_555
Se1_5 W1_5 2.553261 1_555
Se1_6 W1_4 2.553145 1_565
Se1_6 W1_2 2.553256 1_555
Se1_6 W1_6 2.553261 1_555
Se1_7 W1_5 2.553145 1_565
Se1_7 W1_3 2.553256 1_555
Se1_7 W1_7 2.553261 1_555
Se3_0 W1_2 2.554985 1_555
Se3_0 W1_0 2.555045 1_555
Se3_0 W1_4 2.555046 1_455
Se3_1 W1_3 2.554985 1_555
Se3_1 W1_1 2.555045 1_555
Se3_1 W1_5 2.555046 1_455
Se3_2 W1_0 2.554985 1_565
Se3_2 W1_2 2.555045 1_555
Se3_2 W1_6 2.555046 1_455
Se3_3 W1_1 2.554985 1_565
Se3_3 W1_3 2.555045 1_555
Se3_3 W1_7 2.555046 1_455
Se3_4 W1_6 2.554985 1_555
Se3_4 W1_4 2.555045 1_555
Se3_4 W1_0 2.555046 1_555
Se3_5 W1_7 2.554985 1_555
Se3_5 W1_5 2.555045 1_555
Se3_5 W1_1 2.555046 1_555
Se3_6 W1_4 2.554985 1_565
Se3_6 W1_6 2.555045 1_555
Se3_6 W1_2 2.555046 1_555
Se3_7 W1_5 2.554985 1_565
Se3_7 W1_7 2.555045 1_555
Se3_7 W1_3 2.555046 1_555
S0_0 W0_4 2.454957 1_555
S0_0 W0_0 2.454959 1_555
S0_0 W0_2 2.455024 1_545
S0_1 W0_5 2.454957 1_555
S0_1 W0_1 2.454959 1_555
S0_1 W0_3 2.455024 1_545
S0_2 W0_6 2.454957 1_555
S0_2 W0_2 2.454959 1_555
S0_2 W0_0 2.455024 1_555
S0_3 W0_7 2.454957 1_555
S0_3 W0_3 2.454959 1_555
S0_3 W0_1 2.455024 1_555
S0_4 W0_0 2.454957 1_655
S0_4 W0_4 2.454959 1_555
S0_4 W0_6 2.455024 1_545
S0_5 W0_1 2.454957 1_655
S0_5 W0_5 2.454959 1_555
S0_5 W0_7 2.455024 1_545
S0_6 W0_2 2.454957 1_655
S0_6 W0_6 2.454959 1_555
S0_6 W0_4 2.455024 1_555
S0_7 W0_3 2.454957 1_655
S0_7 W0_7 2.454959 1_555
S0_7 W0_5 2.455024 1_555
S1_0 W0_0 2.453996 1_555
S1_0 W0_4 2.453996 1_555
S1_0 W0_2 2.454038 1_545
S1_1 W0_1 2.453996 1_555
S1_1 W0_5 2.453996 1_555
S1_1 W0_3 2.454038 1_545
S1_2 W0_2 2.453996 1_555
S1_2 W0_6 2.453996 1_555
S1_2 W0_0 2.454038 1_555
S1_3 W0_3 2.453996 1_555
S1_3 W0_7 2.453996 1_555
S1_3 W0_1 2.454038 1_555
S1_4 W0_4 2.453996 1_555
S1_4 W0_0 2.453996 1_655
S1_4 W0_6 2.454038 1_545
S1_5 W0_5 2.453996 1_555
S1_5 W0_1 2.453996 1_655
S1_5 W0_7 2.454038 1_545
S1_6 W0_6 2.453996 1_555
S1_6 W0_2 2.453996 1_655
S1_6 W0_4 2.454038 1_555
S1_7 W0_7 2.453996 1_555
S1_7 W0_3 2.453996 1_655
S1_7 W0_5 2.454038 1_555
