# generated using pymatgen
data_NaTaSi3Sn3(SO8)3
_symmetry_space_group_name_H-M   'P 1'
_cell_length_a   8.83428715
_cell_length_b   8.82667781
_cell_length_c   23.01194629
_cell_angle_alpha   89.31705217
_cell_angle_beta   91.02083123
_cell_angle_gamma   119.78167491
_symmetry_Int_Tables_number   1
_chemical_formula_structural   NaTaSi3Sn3(SO8)3
_chemical_formula_sum   'Na3 Ta3 Si9 Sn9 S9 O72'
_cell_volume   1557.15685067
_cell_formula_units_Z   3
loop_
 _symmetry_equiv_pos_site_id
 _symmetry_equiv_pos_as_xyz
  1  'x, y, z'
loop_
 _atom_site_type_symbol
 _atom_site_label
 _atom_site_symmetry_multiplicity
 _atom_site_fract_x
 _atom_site_fract_y
 _atom_site_fract_z
 _atom_site_occupancy
  Na  Na0  1  0.01413164  0.99426899  0.99469736  1
  Na  Na1  1  0.64953707  0.31229003  0.82918425  1
  Na  Na2  1  0.68488519  0.34008667  0.33485689  1
  Ta  Ta0  1  0.00088134  0.00316531  0.64631719  1
  Ta  Ta1  1  0.01230438  0.01158672  0.14290233  1
  Ta  Ta2  1  0.32938416  0.67645340  0.52653611  1
  Si  Si0  1  0.99384414  0.28480388  0.25097182  1
  Si  Si1  1  0.29046464  0.29670763  0.75172909  1
  Si  Si2  1  0.71953467  0.00911572  0.75028126  1
  Si  Si3  1  0.37821135  0.05543803  0.58199836  1
  Si  Si4  1  0.67115669  0.62466533  0.58434252  1
  Si  Si5  1  0.95398836  0.62135527  0.08211715  1
  Si  Si6  1  0.38657094  0.34381059  0.08323681  1
  Si  Si7  1  0.33285986  0.95626637  0.91548152  1
  Si  Si8  1  0.03586552  0.66133738  0.41618338  1
  Sn  Sn0  1  0.99537679  0.99854553  0.35618064  1
  Sn  Sn1  1  0.01350054  0.00850977  0.84969656  1
  Sn  Sn2  1  0.64165400  0.31916665  0.68851977  1
  Sn  Sn3  1  0.67905931  0.34451919  0.18370485  1
  Sn  Sn4  1  0.65355276  0.33120915  0.98045132  1
  Sn  Sn5  1  0.66991991  0.34824485  0.48483892  1
  Sn  Sn6  1  0.31814672  0.66399245  0.02133944  1
  Sn  Sn7  1  0.31278079  0.65235779  0.31194261  1
  Sn  Sn8  1  0.34945927  0.68436575  0.80630784  1
  S  S0  1  0.29281145  0.00323568  0.25018755  1
  S  S1  1  0.70650674  0.71099437  0.25120198  1
  S  S2  1  0.99598920  0.70784179  0.74942883  1
  S  S3  1  0.95783261  0.33321854  0.58357483  1
  S  S4  1  0.66674217  0.04017412  0.08405842  1
  S  S5  1  0.62586003  0.67018095  0.91723052  1
  S  S6  1  0.03862438  0.37395242  0.91650614  1
  S  S7  1  0.61683798  0.95252694  0.41601320  1
  S  S8  1  0.33476405  0.37761958  0.41619469  1
  O  O0  1  0.21484252  0.03107160  0.30239150  1
  O  O1  1  0.81746148  0.78362780  0.30442470  1
  O  O2  1  0.96201456  0.16604730  0.30962886  1
  O  O3  1  0.22190359  0.17418839  0.80955335  1
  O  O4  1  0.96233348  0.77848750  0.80308801  1
  O  O5  1  0.82710776  0.03127023  0.81128121  1
  O  O6  1  0.81748197  0.98319546  0.69441872  1
  O  O7  1  0.17111576  0.19311952  0.69446465  1
  O  O8  1  0.02222308  0.82044242  0.69784969  1
  O  O9  1  0.79079547  0.81525745  0.19916475  1
  O  O10  1  0.01321785  0.17852972  0.19557171  1
  O  O11  1  0.17943108  0.97402358  0.19772745  1
  O  O12  1  0.88761897  0.37349665  0.63399358  1
  O  O13  1  0.50689296  0.11875141  0.63729839  1
  O  O14  1  0.63298277  0.50148046  0.64019947  1
  O  O15  1  0.88244638  0.50889466  0.14139403  1
  O  O16  1  0.63632978  0.11516916  0.13656340  1
  O  O17  1  0.48858122  0.36030641  0.14431253  1
  O  O18  1  0.44829169  0.28034873  0.02741719  1
  O  O19  1  0.83142989  0.54038183  0.02430251  1
  O  O20  1  0.70956021  0.15276254  0.03197576  1
  O  O21  1  0.45835371  0.16050740  0.52120886  1
  O  O22  1  0.71776262  0.55951184  0.52500116  1
  O  O23  1  0.85164557  0.29725271  0.52946180  1
  O  O24  1  0.54712810  0.69157999  0.97037006  1
  O  O25  1  0.14674597  0.44698479  0.97017124  1
  O  O26  1  0.30804325  0.84623933  0.97529417  1
  O  O27  1  0.53185767  0.84195729  0.46767432  1
  O  O28  1  0.31428641  0.46381359  0.46720350  1
  O  O29  1  0.16345722  0.68340965  0.47169654  1
  O  O30  1  0.11885871  0.63016633  0.35758811  1
  O  O31  1  0.51240104  0.87429882  0.36138030  1
  O  O32  1  0.37120454  0.48661152  0.36211869  1
  O  O33  1  0.11818364  0.47937728  0.86451730  1
  O  O34  1  0.35845492  0.86441743  0.85883058  1
  O  O35  1  0.51633799  0.63822258  0.86472302  1
  O  O36  1  0.02446971  0.84010640  0.40834495  1
  O  O37  1  0.78959601  0.96509782  0.41205550  1
  O  O38  1  0.17484285  0.20693090  0.40989175  1
  O  O39  1  0.01615498  0.19532971  0.91368321  1
  O  O40  1  0.15301442  0.97139703  0.91251028  1
  O  O41  1  0.80086215  0.82751739  0.91228188  1
  O  O42  1  0.98051738  0.18036960  0.59112803  1
  O  O43  1  0.18608795  0.02446411  0.59473667  1
  O  O44  1  0.83285035  0.81895770  0.59690407  1
  O  O45  1  0.96805010  0.81460025  0.09588787  1
  O  O46  1  0.82643887  0.02186526  0.09343707  1
  O  O47  1  0.18611009  0.16807511  0.09449180  1
  O  O48  1  0.71506642  0.19165245  0.74438189  1
  O  O49  1  0.48620939  0.32271679  0.74850676  1
  O  O50  1  0.84318459  0.53405291  0.74169586  1
  O  O51  1  0.68184299  0.53141600  0.24723421  1
  O  O52  1  0.81562555  0.30035683  0.24559014  1
  O  O53  1  0.46568557  0.15928142  0.24308954  1
  O  O54  1  0.64728583  0.51205538  0.92052345  1
  O  O55  1  0.86408888  0.36019084  0.92301901  1
  O  O56  1  0.51227629  0.15118805  0.92032643  1
  O  O57  1  0.63619582  0.12782599  0.42134196  1
  O  O58  1  0.48861728  0.35249965  0.42012133  1
  O  O59  1  0.84372966  0.48371712  0.42199431  1
  O  O60  1  0.36412025  0.51060902  0.07257990  1
  O  O61  1  0.14827278  0.65443916  0.07684885  1
  O  O62  1  0.51937088  0.86603200  0.07626262  1
  O  O63  1  0.35380877  0.85697370  0.57041925  1
  O  O64  1  0.49590297  0.64064933  0.56724879  1
  O  O65  1  0.13635017  0.48727296  0.57290581  1
  O  O66  1  0.31144781  0.84603205  0.25537668  1
  O  O67  1  0.53623723  0.70336903  0.25855886  1
  O  O68  1  0.17381133  0.47159626  0.25436634  1
  O  O69  1  0.28886997  0.47791363  0.75942960  1
  O  O70  1  0.15496116  0.69617890  0.75480725  1
  O  O71  1  0.52955504  0.83672504  0.75220888  1
loop_
_geom_bond_atom_site_label_1
_geom_bond_atom_site_label_2
_geom_bond_distance
_geom_bond_site_symmetry_2
Na0 O40 2.336861 1_555
Na0 O41 2.549010 1_455
Na0 O39 2.552698 1_565
Na0 O45 2.721668 1_456
Na0 O47 2.753153 1_566
Na0 O46 2.918948 1_466
Na1 O49 2.359987 1_555
Na1 O48 2.445275 1_555
Na1 O56 2.489576 1_555
Na1 O50 2.741112 1_555
Na1 O55 2.741141 1_555
Na1 O54 2.766248 1_555
Na2 O59 2.406311 1_555
Na2 O52 2.486125 1_555
Na2 O57 2.607133 1_555
Na2 O51 2.623070 1_555
Na2 O58 2.680163 1_555
Na2 O53 2.760604 1_555
O0 S0 1.477366 1_555
O0 Sn0 2.213070 1_445
O1 S1 1.491152 1_555
O1 Sn0 2.124330 1_555
O2 Si0 1.639155 1_555
O2 Sn0 1.950442 1_545
O3 Si1 1.628103 1_555
O3 Sn1 1.932707 1_555
O4 S2 1.489157 1_555
O4 Sn1 2.144735 1_665
O5 Si2 1.638970 1_555
O5 Sn1 1.950848 1_655
O6 Si2 1.642228 1_565
O6 Ta0 1.912309 1_665
O7 Si1 1.644915 1_555
O7 Ta0 1.944363 1_555
O8 S2 1.484320 1_455
O8 Ta0 2.071611 1_565
O9 S1 1.469735 1_555
O9 Ta1 2.275247 1_665
O10 Si0 1.652355 1_455
O10 Ta1 1.915944 1_555
O11 S0 1.494953 1_565
O11 Ta1 2.071590 1_565
O12 S3 1.453217 1_555
O12 Sn2 2.360856 1_555
O13 Si3 1.599488 1_555
O13 Sn2 1.960518 1_555
O14 Si4 1.601887 1_555
O14 Sn2 1.977033 1_555
O15 Si5 1.618865 1_555
O15 Sn3 1.928848 1_555
O16 S4 1.475645 1_555
O16 Sn3 2.167058 1_555
O17 Si6 1.624219 1_555
O17 Sn3 1.961716 1_555
O18 Si6 1.614494 1_555
O18 Sn4 1.976710 1_554
O19 Si5 1.629649 1_555
O19 Sn4 2.000559 1_554
O20 S4 1.476982 1_555
O20 Sn4 2.200072 1_554
O21 Si3 1.634115 1_555
O21 Sn5 1.971220 1_555
O22 Si4 1.624492 1_555
O22 Sn5 1.937638 1_555
O23 S3 1.484382 1_555
O23 Sn5 2.117176 1_555
O24 S5 1.476862 1_555
O24 Sn6 2.261742 1_556
O25 S6 1.489384 1_555
O25 Sn6 2.111221 1_556
O26 Si7 1.628837 1_555
O26 Sn6 1.953723 1_556
O27 S7 1.485161 1_555
O27 Ta2 2.147484 1_555
O28 S8 1.467981 1_555
O28 Ta2 2.282691 1_555
O29 Si8 1.636120 1_555
O29 Ta2 1.940794 1_555
O30 Si8 1.635813 1_555
O30 Sn7 1.949995 1_555
O31 S7 1.501700 1_555
O31 Sn7 2.188986 1_555
O32 S8 1.501914 1_555
O32 Sn7 2.104411 1_555
O33 S6 1.464553 1_555
O33 Sn8 2.368530 1_555
O34 Si7 1.620401 1_555
O34 Sn8 1.977321 1_555
O35 S5 1.473449 1_555
O35 Sn8 2.158502 1_555
O36 Si8 1.637965 1_555
O36 Sn0 1.941352 1_455
O37 S7 1.478635 1_555
O37 Sn0 2.141576 1_555
O38 S8 1.473208 1_555
O38 Sn0 2.124146 1_445
O39 S6 1.490140 1_555
O39 Sn1 2.214976 1_555
O40 Si7 1.659372 1_555
O40 Sn1 2.010488 1_565
O41 S5 1.483723 1_555
O41 Sn1 2.283758 1_665
O42 S3 1.467082 1_555
O42 Ta0 2.077453 1_655
O43 Si3 1.611293 1_555
O43 Ta0 1.969670 1_555
O44 Si4 1.621315 1_555
O44 Ta0 1.930410 1_665
O45 Si5 1.681158 1_555
O45 Ta1 1.923809 1_665
O46 S4 1.509264 1_555
O46 Ta1 2.019652 1_655
O47 Si6 1.699203 1_555
O47 Ta1 1.850396 1_555
O48 Si2 1.635147 1_555
O48 Sn2 2.000215 1_555
O49 Si1 1.630446 1_555
O49 Sn2 1.975766 1_555
O50 S2 1.465579 1_555
O50 Sn2 2.210850 1_555
O51 S1 1.492631 1_555
O51 Sn3 2.207987 1_555
O52 Si0 1.649359 1_555
O52 Sn3 2.007062 1_555
O53 S0 1.473126 1_555
O53 Sn3 2.251865 1_555
O54 S5 1.499674 1_555
O54 Sn4 2.117909 1_555
O55 S6 1.495462 1_655
O55 Sn4 2.208707 1_555
O56 Si7 1.665569 1_545
O56 Sn4 2.004422 1_555
O57 S7 1.476266 1_545
O57 Sn5 2.342117 1_555
O58 S8 1.482979 1_555
O58 Sn5 2.181321 1_555
O59 Si8 1.648180 1_655
O59 Sn5 2.023104 1_555
O60 Si6 1.595873 1_555
O60 Sn6 1.969618 1_555
O61 Si5 1.598295 1_455
O61 Sn6 1.957290 1_555
O62 S4 1.449186 1_565
O62 Sn6 2.182260 1_555
O63 Si3 1.679327 1_565
O63 Ta2 1.815017 1_555
O64 Si4 1.663027 1_555
O64 Ta2 1.883440 1_555
O65 S3 1.507311 1_455
O65 Ta2 2.007149 1_555
O66 S0 1.479544 1_565
O66 Sn7 2.140873 1_555
O67 S1 1.484610 1_555
O67 Sn7 2.190683 1_555
O68 Si0 1.626917 1_455
O68 Sn7 1.963406 1_555
O69 Si1 1.618351 1_555
O69 Sn8 1.956601 1_555
O70 S2 1.461297 1_455
O70 Sn8 2.114301 1_555
O71 Si2 1.611910 1_565
O71 Sn8 1.948047 1_555
