# generated using pymatgen
data_MgNb2(BO4)2
_symmetry_space_group_name_H-M   'P 1'
_cell_length_a   5.81826571
_cell_length_b   5.65301491
_cell_length_c   5.81826598
_cell_angle_alpha   95.80978095
_cell_angle_beta   111.88093817
_cell_angle_gamma   122.98591480
_symmetry_Int_Tables_number   1
_chemical_formula_structural   MgNb2(BO4)2
_chemical_formula_sum   'Mg1 Nb2 B2 O8'
_cell_volume   137.11544074
_cell_formula_units_Z   1
loop_
 _symmetry_equiv_pos_site_id
 _symmetry_equiv_pos_as_xyz
  1  'x, y, z'
loop_
 _atom_site_type_symbol
 _atom_site_label
 _atom_site_symmetry_multiplicity
 _atom_site_fract_x
 _atom_site_fract_y
 _atom_site_fract_z
 _atom_site_occupancy
  Mg  Mg0  1  0.50000000  0.00000000  0.00000000  1
  Nb  Nb0  1  0.11486400  0.90375100  0.28888700  1
  Nb  Nb1  1  0.88513600  0.09624900  0.71111300  1
  B  B0  1  0.63209800  0.41170300  0.27960400  1
  B  B1  1  0.36790200  0.58829700  0.72039600  1
  O  O0  1  0.80807200  0.44291900  0.13484800  1
  O  O1  1  0.72456600  0.81776200  0.93129100  1
  O  O2  1  0.27543400  0.18223800  0.06870900  1
  O  O3  1  0.19192800  0.55708100  0.86515200  1
  O  O4  1  0.21783000  0.28117200  0.56334200  1
  O  O5  1  0.61353000  0.18223800  0.40680300  1
  O  O6  1  0.78217000  0.71882800  0.43665800  1
  O  O7  1  0.38647000  0.81776200  0.59319700  1
loop_
_geom_bond_atom_site_label_1
_geom_bond_atom_site_label_2
_geom_bond_distance
_geom_bond_site_symmetry_2
Mg0 O3 1.940325 1_544
Mg0 O0 1.940325 1_555
Mg0 O5 2.167912 1_555
Mg0 O7 2.167912 1_544
Mg0 O2 2.167919 1_555
Mg0 O1 2.167919 1_544
Nb0 O0 2.011852 1_455
Nb0 O4 2.160179 1_565
Nb0 O2 2.165913 1_565
Nb0 O5 2.165919 1_565
Nb0 O1 2.189433 1_454
Nb0 O7 2.189433 1_555
Nb0 O6 2.190441 1_455
Nb1 O3 2.011852 1_655
Nb1 O6 2.160179 1_545
Nb1 O1 2.165913 1_545
Nb1 O7 2.165919 1_545
Nb1 O2 2.189433 1_656
Nb1 O5 2.189433 1_555
Nb1 O4 2.190441 1_655
B0 O6 1.430091 1_555
B0 O0 1.504954 1_555
B0 O2 1.530812 1_555
B0 O5 1.530814 1_555
B1 O4 1.430091 1_555
B1 O3 1.504954 1_555
B1 O1 1.530812 1_555
B1 O7 1.530814 1_555
