# generated using pymatgen
data_Lu(NbCl3)6
_symmetry_space_group_name_H-M   'P 1'
_cell_length_a   10.04614671
_cell_length_b   10.04618162
_cell_length_c   10.04649455
_cell_angle_alpha   55.91905099
_cell_angle_beta   55.92014884
_cell_angle_gamma   55.91915706
_symmetry_Int_Tables_number   1
_chemical_formula_structural   Lu(NbCl3)6
_chemical_formula_sum   'Lu1 Nb6 Cl18'
_cell_volume   649.16583993
_cell_formula_units_Z   1
loop_
 _symmetry_equiv_pos_site_id
 _symmetry_equiv_pos_as_xyz
  1  'x, y, z'
loop_
 _atom_site_type_symbol
 _atom_site_label
 _atom_site_symmetry_multiplicity
 _atom_site_fract_x
 _atom_site_fract_y
 _atom_site_fract_z
 _atom_site_occupancy
  Lu  Lu0  1  -0.00000987  0.00001996  0.00002710  1
  Nb  Nb0  1  0.40639476  0.29787721  0.65228734  1
  Nb  Nb1  1  0.34765834  0.59362271  0.70213215  1
  Nb  Nb2  1  0.70209615  0.34768702  0.59357472  1
  Nb  Nb3  1  0.29791085  0.65228616  0.40635868  1
  Nb  Nb4  1  0.65230598  0.40637225  0.29787935  1
  Nb  Nb5  1  0.59362011  0.70207120  0.34767483  1
  Cl  Cl0  1  0.56894642  0.15741402  0.44189487  1
  Cl  Cl1  1  0.21924350  0.37046514  0.91303755  1
  Cl  Cl2  1  0.91304583  0.21922698  0.37048624  1
  Cl  Cl3  1  0.37048835  0.91303645  0.21924037  1
  Cl  Cl4  1  0.78077694  0.62948099  0.08697897  1
  Cl  Cl5  1  0.08697226  0.78076405  0.62949156  1
  Cl  Cl6  1  0.70682549  0.96214922  0.15568329  1
  Cl  Cl7  1  0.96215108  0.15567895  0.70682567  1
  Cl  Cl8  1  0.15564488  0.70692837  0.96211900  1
  Cl  Cl9  1  0.29311041  0.03787976  0.84435822  1
  Cl  Cl10  1  0.03786464  0.84436504  0.29310763  1
  Cl  Cl11  1  0.84429406  0.29321401  0.03789729  1
  Cl  Cl12  1  0.55814661  0.43104791  0.84258457  1
  Cl  Cl13  1  0.15740452  0.44188291  0.56895385  1
  Cl  Cl14  1  0.44190814  0.56891473  0.15742688  1
  Cl  Cl15  1  0.43109392  0.84257455  0.55809576  1
  Cl  Cl16  1  0.84259877  0.55810604  0.43108152  1
  Cl  Cl17  1  0.62950788  0.08693438  0.78080262  1
loop_
_geom_bond_atom_site_label_1
_geom_bond_atom_site_label_2
_geom_bond_distance
_geom_bond_site_symmetry_2
Cl0 Nb4 2.446221 1_555
Cl0 Nb0 2.453087 1_555
Cl1 Nb0 2.452302 1_555
Cl1 Nb1 2.456445 1_555
Cl2 Nb4 2.452203 1_555
Cl2 Nb2 2.456285 1_555
Cl3 Nb3 2.452162 1_555
Cl3 Nb5 2.456384 1_555
Cl4 Nb5 2.451873 1_555
Cl4 Nb4 2.456399 1_555
Cl5 Nb1 2.451926 1_555
Cl5 Nb3 2.456700 1_555
Cl6 Lu0 2.586837 1_665
Cl6 Nb5 2.657862 1_555
Cl7 Lu0 2.587078 1_656
Cl7 Nb2 2.657917 1_555
Cl8 Lu0 2.586358 1_566
Cl8 Nb1 2.657770 1_555
Cl9 Lu0 2.586380 1_556
Cl9 Nb0 2.657604 1_555
Cl10 Lu0 2.586171 1_565
Cl10 Nb3 2.657800 1_555
Cl11 Lu0 2.587048 1_655
Cl11 Nb4 2.656900 1_555
Cl12 Nb2 2.446898 1_555
Cl12 Nb1 2.453691 1_555
Cl13 Nb0 2.446368 1_555
Cl13 Nb3 2.453336 1_555
Cl14 Nb3 2.446184 1_555
Cl14 Nb4 2.452999 1_555
Cl15 Nb1 2.446574 1_555
Cl15 Nb5 2.453632 1_555
Cl16 Nb5 2.446765 1_555
Cl16 Nb2 2.453582 1_555
Cl17 Nb2 2.452233 1_555
Cl17 Nb0 2.456685 1_555
