# generated using pymatgen
data_Na10Mg4Zr4Si5S7O48
_symmetry_space_group_name_H-M   'P 1'
_cell_length_a   18.10829181
_cell_length_b   9.06343920
_cell_length_c   22.88858607
_cell_angle_alpha   89.86397445
_cell_angle_beta   89.54773677
_cell_angle_gamma   119.98853845
_symmetry_Int_Tables_number   1
_chemical_formula_structural   Na10Mg4Zr4Si5S7O48
_chemical_formula_sum   'Na30 Mg12 Zr12 Si15 S21 O144'
_cell_volume   3253.45769138
_cell_formula_units_Z   3
loop_
 _symmetry_equiv_pos_site_id
 _symmetry_equiv_pos_as_xyz
  1  'x, y, z'
loop_
 _atom_site_type_symbol
 _atom_site_label
 _atom_site_symmetry_multiplicity
 _atom_site_fract_x
 _atom_site_fract_y
 _atom_site_fract_z
 _atom_site_occupancy
  Na  Na0  1  0.32552593  0.02926669  0.25097835  1
  Na  Na1  1  0.67369801  0.34400274  0.25266529  1
  Na  Na2  1  0.99797100  0.63502702  0.24076584  1
  Na  Na3  1  0.49866414  0.62435210  0.23944612  1
  Na  Na4  1  0.32255865  0.61851733  0.75374699  1
  Na  Na5  1  0.82255278  0.61828215  0.75256217  1
  Na  Na6  1  0.99689481  0.37093085  0.73871782  1
  Na  Na7  1  0.49738652  0.37108926  0.73944435  1
  Na  Na8  1  0.17427683  0.00653352  0.75132302  1
  Na  Na9  1  0.67534233  0.00729895  0.75054552  1
  Na  Na10  1  0.33447138  0.97132640  0.57416976  1
  Na  Na11  1  0.83427306  0.97149423  0.57228515  1
  Na  Na12  1  0.33508118  0.69817085  0.07386312  1
  Na  Na13  1  0.83211162  0.69644934  0.07304185  1
  Na  Na14  1  0.48174311  0.68290127  0.91089330  1
  Na  Na15  1  0.98203185  0.68317477  0.90985647  1
  Na  Na16  1  0.48472025  0.28419031  0.40865458  1
  Na  Na17  1  0.16510266  0.02848338  0.40798126  1
  Na  Na18  1  0.98738836  0.00562042  0.49356723  1
  Na  Na19  1  0.49964892  0.99919162  0.49353521  1
  Na  Na20  1  0.99637637  -0.00010339  0.99181249  1
  Na  Na21  1  0.49551576  0.99529401  0.99463772  1
  Na  Na22  1  0.32650543  0.34308168  0.82827945  1
  Na  Na23  1  0.82673763  0.34303145  0.82726292  1
  Na  Na24  1  0.32861321  0.32522313  0.32242568  1
  Na  Na25  1  0.82106192  0.29125185  0.33109164  1
  Na  Na26  1  0.15454049  0.66299866  0.15666360  1
  Na  Na27  1  0.65145027  0.67023931  0.16036462  1
  Na  Na28  1  0.14764741  0.63464815  0.65842771  1
  Na  Na29  1  0.65001899  0.63771912  0.65725518  1
  Mg  Mg0  1  0.99641785  0.00655457  0.35125864  1
  Mg  Mg1  1  0.50212320  0.01041085  0.34940428  1
  Mg  Mg2  1  0.99966698  0.99103804  0.84989330  1
  Mg  Mg3  1  0.49953708  0.99102381  0.85033899  1
  Mg  Mg4  1  0.34108205  0.35286022  0.68421102  1
  Mg  Mg5  1  0.84124251  0.35412982  0.68336617  1
  Mg  Mg6  1  0.33859232  0.33040680  0.18508493  1
  Mg  Mg7  1  0.83490215  0.32023838  0.18260049  1
  Mg  Mg8  1  0.16617936  0.67284503  0.01733815  1
  Mg  Mg9  1  0.66467780  0.67080042  0.01746467  1
  Mg  Mg10  1  0.16304072  0.65271597  0.51738808  1
  Mg  Mg11  1  0.66729524  0.65969920  0.51687777  1
  Zr  Zr0  1  0.00846123  0.01317488  0.64798595  1
  Zr  Zr1  1  0.50964358  0.01495392  0.64829556  1
  Zr  Zr2  1  0.00619706  0.99340938  0.14672186  1
  Zr  Zr3  1  0.50859452  0.00314450  0.14893572  1
  Zr  Zr4  1  0.33484820  0.34770374  0.98162753  1
  Zr  Zr5  1  0.83505338  0.34720902  0.98092920  1
  Zr  Zr6  1  0.33895516  0.33183247  0.48195335  1
  Zr  Zr7  1  0.83783255  0.32034201  0.47967810  1
  Zr  Zr8  1  0.16993580  0.67758383  0.31650769  1
  Zr  Zr9  1  0.67149423  0.68745806  0.31376870  1
  Zr  Zr10  1  0.16759588  0.65501425  0.81585402  1
  Zr  Zr11  1  0.66768116  0.65541988  0.81597149  1
  Si  Si0  1  0.14813094  0.00776536  0.25595952  1
  Si  Si1  1  0.65167750  0.01267374  0.25281492  1
  Si  Si2  1  0.49969374  0.29570578  0.25334741  1
  Si  Si3  1  0.14826897  0.28897938  0.75297064  1
  Si  Si4  1  0.64852217  0.28947076  0.75334131  1
  Si  Si5  1  0.99920590  0.70415417  0.75333039  1
  Si  Si6  1  0.49927246  0.70445309  0.75340311  1
  Si  Si7  1  0.48593441  0.33961272  0.58638817  1
  Si  Si8  1  0.98479447  0.33923194  0.58726441  1
  Si  Si9  1  0.48497142  0.63074499  0.08635567  1
  Si  Si10  1  0.98391234  0.62164238  0.08723376  1
  Si  Si11  1  0.31754675  0.68000888  0.92143384  1
  Si  Si12  1  0.81739886  0.68074919  0.92168464  1
  Si  Si13  1  0.31680039  0.95538494  0.42276275  1
  Si  Si14  1  0.81812819  0.95491480  0.42171056  1
  S  S0  1  0.35351579  0.70661019  0.25091927  1
  S  S1  1  0.85569015  0.70870689  0.25047442  1
  S  S2  1  0.99888628  0.29022799  0.25097684  1
  S  S3  1  0.35427603  0.00085062  0.75068504  1
  S  S4  1  0.85421004  0.00088489  0.75105679  1
  S  S5  1  0.18830889  0.03978993  0.58396406  1
  S  S6  1  0.68874917  0.04025318  0.58476220  1
  S  S7  1  0.33136096  0.62694712  0.58489526  1
  S  S8  1  0.83166696  0.62581699  0.58434909  1
  S  S9  1  0.33141700  0.03733765  0.08467794  1
  S  S10  1  0.83239159  0.03924491  0.08433548  1
  S  S11  1  0.18838490  0.33651558  0.08550711  1
  S  S12  1  0.68798927  0.33676932  0.08472900  1
  S  S13  1  0.02021443  0.36855419  0.91885751  1
  S  S14  1  0.51997960  0.36803576  0.91861810  1
  S  S15  1  0.16739298  0.95985453  0.91750540  1
  S  S16  1  0.66761597  0.96014704  0.91746053  1
  S  S17  1  0.16535822  0.37236230  0.41826969  1
  S  S18  1  0.66780058  0.37554344  0.41724359  1
  S  S19  1  0.02050253  0.66880690  0.41770352  1
  S  S20  1  0.52169773  0.67345104  0.41783761  1
  O  O0  1  0.10056135  0.01599114  0.31413833  1
  O  O1  1  0.60254092  0.03376835  0.30751331  1
  O  O2  1  0.40609615  0.78841004  0.30168291  1
  O  O3  1  0.90953917  0.79524949  0.30014032  1
  O  O4  1  0.48012453  0.17891423  0.31106095  1
  O  O5  1  0.98879998  0.18825838  0.30275878  1
  O  O6  1  0.10038330  0.17065836  0.80793419  1
  O  O7  1  0.59993051  0.17018451  0.80790332  1
  O  O8  1  0.48116215  0.78234932  0.81118291  1
  O  O9  1  0.98146672  0.78234304  0.81124254  1
  O  O10  1  0.40770763  0.02741685  0.80102046  1
  O  O11  1  0.90764761  0.02712175  0.80147089  1
  O  O12  1  0.39056068  0.96744472  0.69633540  1
  O  O13  1  0.89050602  0.96735254  0.69679587  1
  O  O14  1  0.08574895  0.21239749  0.69443887  1
  O  O15  1  0.58598627  0.21403333  0.69455712  1
  O  O16  1  0.01549098  0.83179371  0.69619509  1
  O  O17  1  0.51486097  0.83159820  0.69612896  1
  O  O18  1  0.38934829  0.81379316  0.19655143  1
  O  O19  1  0.89219502  0.81260966  0.19532722  1
  O  O20  1  0.00988336  0.20970839  0.19722145  1
  O  O21  1  0.51416680  0.19692168  0.19654371  1
  O  O22  1  0.08304550  0.96596376  0.19863889  1
  O  O23  1  0.58880180  0.96618773  0.19379976  1
  O  O24  1  0.43555935  0.34554042  0.64394921  1
  O  O25  1  0.93765869  0.34670783  0.64636714  1
  O  O26  1  0.23857025  0.12484769  0.63615889  1
  O  O27  1  0.73699674  0.12139050  0.63807598  1
  O  O28  1  0.32110276  0.52676268  0.63837040  1
  O  O29  1  0.82167656  0.52747898  0.63847554  1
  O  O30  1  0.43502289  0.52489692  0.14412946  1
  O  O31  1  0.93541556  0.51939575  0.14598586  1
  O  O32  1  0.32131141  0.11631636  0.13815413  1
  O  O33  1  0.82166075  0.12098828  0.13626442  1
  O  O34  1  0.23991192  0.35309518  0.13639631  1
  O  O35  1  0.73793105  0.35462207  0.13730589  1
  O  O36  1  0.22549244  0.30447508  0.03134423  1
  O  O37  1  0.72993590  0.31018628  0.03213176  1
  O  O38  1  0.42103286  0.53438676  0.02767573  1
  O  O39  1  0.92033812  0.53356909  0.02895392  1
  O  O40  1  0.34035842  0.14253608  0.03216541  1
  O  O41  1  0.84330665  0.14274647  0.03095544  1
  O  O42  1  0.22924971  0.14761243  0.53008396  1
  O  O43  1  0.73012546  0.14977846  0.53228897  1
  O  O44  1  0.34102309  0.53892943  0.53252330  1
  O  O45  1  0.84158769  0.54007453  0.53241390  1
  O  O46  1  0.42231353  0.30859587  0.52749452  1
  O  O47  1  0.91910091  0.30641244  0.53069114  1
  O  O48  1  0.26753436  0.68343693  0.97913511  1
  O  O49  1  0.76756841  0.68422724  0.97948189  1
  O  O50  1  0.07221398  0.45744363  0.96897284  1
  O  O51  1  0.57230785  0.45713187  0.96859643  1
  O  O52  1  0.15420641  0.84641004  0.96734631  1
  O  O53  1  0.65485501  0.84696452  0.96722688  1
  O  O54  1  0.26438639  0.84873094  0.47914891  1
  O  O55  1  0.77176006  0.85506633  0.48128619  1
  O  O56  1  0.15535081  0.45575672  0.46937147  1
  O  O57  1  0.65411712  0.46179971  0.46698877  1
  O  O58  1  0.07466486  0.68762013  0.46719487  1
  O  O59  1  0.57253165  0.68755626  0.46872106  1
  O  O60  1  0.05793220  0.63763362  0.36236938  1
  O  O61  1  0.55730164  0.63565679  0.36336042  1
  O  O62  1  0.25500724  0.86856238  0.36276966  1
  O  O63  1  0.75567620  0.86214376  0.36418788  1
  O  O64  1  0.17621411  0.47598882  0.36411402  1
  O  O65  1  0.67813018  0.47341150  0.36169232  1
  O  O66  1  0.05663422  0.47781503  0.86375477  1
  O  O67  1  0.55667590  0.47791358  0.86354825  1
  O  O68  1  0.17810128  0.88226369  0.86199831  1
  O  O69  1  0.67890454  0.88362909  0.86191751  1
  O  O70  1  0.25989636  0.65113184  0.86102286  1
  O  O71  1  0.75983141  0.65102785  0.86134229  1
  O  O72  1  0.01498795  0.82451983  0.41072110  1
  O  O73  1  0.50951366  0.81943643  0.41013533  1
  O  O74  1  0.41316685  0.99203595  0.41578347  1
  O  O75  1  0.91241724  0.98288304  0.41167473  1
  O  O76  1  0.09221561  0.19805705  0.41262498  1
  O  O77  1  0.59127309  0.20350819  0.41323243  1
  O  O78  1  0.00973727  0.19980123  0.91073401  1
  O  O79  1  0.50988648  0.19969850  0.91038587  1
  O  O80  1  0.09115389  0.97875161  0.91312017  1
  O  O81  1  0.59152845  0.97910768  0.91300662  1
  O  O82  1  0.41447287  0.83807423  0.91578180  1
  O  O83  1  0.91454458  0.83827659  0.91601536  1
  O  O84  1  0.48232443  0.14946603  0.58642869  1
  O  O85  1  0.98283880  0.15036026  0.58681673  1
  O  O86  1  0.10174138  0.02179328  0.58585176  1
  O  O87  1  0.60135691  0.02114572  0.58643157  1
  O  O88  1  0.40997469  0.79976901  0.58778284  1
  O  O89  1  0.90989679  0.80085762  0.58820119  1
  O  O90  1  0.48258366  0.81535026  0.08645608  1
  O  O91  1  0.98306403  0.81043251  0.08874484  1
  O  O92  1  0.40965058  0.01971142  0.08764258  1
  O  O93  1  0.91167307  0.02342160  0.08946117  1
  O  O94  1  0.09998318  0.18356479  0.08991918  1
  O  O95  1  0.60150236  0.18198934  0.08654932  1
  O  O96  1  0.34035507  0.14751688  0.74316369  1
  O  O97  1  0.84014133  0.14722961  0.74376825  1
  O  O98  1  0.24185286  0.30876840  0.74207335  1
  O  O99  1  0.74194652  0.30918632  0.74235017  1
  O  O100  1  0.41838857  0.51186808  0.74654077  1
  O  O101  1  0.91819346  0.51206049  0.74660926  1
  O  O102  1  0.34193532  0.53519898  0.24341184  1
  O  O103  1  0.84697318  0.53776480  0.24420973  1
  O  O104  1  0.41917086  0.32767739  0.24624270  1
  O  O105  1  0.92505452  0.31837026  0.24573582  1
  O  O106  1  0.24380642  0.16077299  0.24400952  1
  O  O107  1  0.74298130  0.18498829  0.24244641  1
  O  O108  1  0.32614698  0.49929783  0.92150155  1
  O  O109  1  0.82660395  0.50052879  0.92187993  1
  O  O110  1  0.43339619  0.35546195  0.92342140  1
  O  O111  1  0.93368628  0.35621024  0.92365026  1
  O  O112  1  0.24573834  0.12915984  0.92337859  1
  O  O113  1  0.74603225  0.13003375  0.92361432  1
  O  O114  1  0.31953215  0.14828556  0.42260896  1
  O  O115  1  0.82264220  0.14777589  0.42137003  1
  O  O116  1  0.24452075  0.35639910  0.42241680  1
  O  O117  1  0.74595729  0.36197696  0.42377052  1
  O  O118  1  0.43409928  0.51178585  0.42311675  1
  O  O119  1  0.93339795  0.51708294  0.42256016  1
  O  O120  1  0.18156526  0.49121012  0.07845705  1
  O  O121  1  0.68165651  0.49183100  0.07758422  1
  O  O122  1  0.07787620  0.65073844  0.07673637  1
  O  O123  1  0.57803026  0.65323484  0.07618781  1
  O  O124  1  0.25703154  0.86236131  0.07958388  1
  O  O125  1  0.75905909  0.86414444  0.07952323  1
  O  O126  1  0.18216524  0.87254578  0.57771361  1
  O  O127  1  0.68163488  0.87167123  0.57841000  1
  O  O128  1  0.25742530  0.65248740  0.57912406  1
  O  O129  1  0.75721834  0.65184885  0.57976461  1
  O  O130  1  0.07759600  0.50287927  0.57696702  1
  O  O131  1  0.57827841  0.50331673  0.57584754  1
  O  O132  1  0.15237493  0.82224225  0.25679927  1
  O  O133  1  0.65536677  0.83206684  0.25488720  1
  O  O134  1  0.26658785  0.69238881  0.25720661  1
  O  O135  1  0.76747516  0.68258278  0.25566664  1
  O  O136  1  0.07749174  0.46616430  0.25560149  1
  O  O137  1  0.58974051  0.48261822  0.25721127  1
  O  O138  1  0.15950540  0.48456839  0.75574541  1
  O  O139  1  0.65946789  0.48472150  0.75601001  1
  O  O140  1  0.08925305  0.69527209  0.75730754  1
  O  O141  1  0.58927929  0.69570104  0.75726624  1
  O  O142  1  0.26714252  0.84393800  0.75682836  1
  O  O143  1  0.76711902  0.84375644  0.75718174  1
loop_
_geom_bond_atom_site_label_1
_geom_bond_atom_site_label_2
_geom_bond_distance
_geom_bond_site_symmetry_2
Na0 O106 2.324191 1_555
Na0 O104 2.369230 1_555
Na0 O134 2.686979 1_545
Na0 O32 2.711208 1_555
Na0 O132 2.735073 1_545
Na0 O4 2.800357 1_555
Na0 O62 2.893223 1_545
Na0 O18 2.991085 1_545
Na1 O107 2.347411 1_555
Na1 O137 2.409998 1_555
Na1 O135 2.664373 1_555
Na1 O103 2.728955 1_555
Na1 O1 2.734661 1_555
Na1 O65 2.744533 1_555
Na1 O21 2.826577 1_555
Na1 O35 2.858735 1_555
Na2 O103 2.417953 1_555
Na2 O31 2.439376 1_555
Na2 O132 2.471425 1_655
Na2 O105 2.490209 1_555
Na2 O136 2.596069 1_655
Na2 O22 2.764640 1_655
Na2 O3 2.969784 1_555
Na2 O60 2.991460 1_655
Na3 O104 2.334880 1_555
Na3 O30 2.431228 1_555
Na3 O133 2.529805 1_555
Na3 O102 2.533580 1_555
Na3 O137 2.580986 1_555
Na3 O23 2.873517 1_555
Na4 O100 2.376108 1_555
Na4 O98 2.448868 1_555
Na4 O138 2.570638 1_555
Na4 O142 2.689842 1_555
Na4 O28 2.766902 1_555
Na4 O70 2.774646 1_555
Na4 O8 2.826205 1_555
Na5 O101 2.368233 1_555
Na5 O99 2.440122 1_555
Na5 O139 2.571988 1_555
Na5 O143 2.691655 1_555
Na5 O29 2.737546 1_555
Na5 O71 2.805909 1_555
Na5 O9 2.844106 1_555
Na6 O25 2.338684 1_555
Na6 O101 2.349288 1_555
Na6 O97 2.534164 1_555
Na6 O140 2.592705 1_655
Na6 O138 2.621383 1_655
Na6 O14 2.823623 1_655
Na7 O100 2.350048 1_555
Na7 O24 2.422078 1_555
Na7 O96 2.536633 1_555
Na7 O141 2.591082 1_555
Na7 O139 2.610839 1_555
Na7 O15 2.814216 1_555
Na8 O98 2.384998 1_555
Na8 O140 2.449636 1_545
Na8 O96 2.619266 1_555
Na8 O142 2.737754 1_545
Na8 O6 2.766540 1_555
Na8 O68 2.785261 1_545
Na8 O16 2.807580 1_545
Na8 O26 2.853712 1_555
Na9 O99 2.381469 1_555
Na9 O141 2.454105 1_545
Na9 O97 2.597395 1_555
Na9 O143 2.729027 1_545
Na9 O27 2.780382 1_555
Na9 O7 2.786402 1_555
Na9 O69 2.796423 1_545
Na9 O17 2.823603 1_545
Na10 O84 2.355114 1_565
Na10 O126 2.437719 1_555
Na10 O54 2.494157 1_555
Na10 O128 2.505152 1_555
Na10 O88 2.552202 1_555
Na10 O46 2.848276 1_565
Na10 O12 2.988589 1_555
Na11 O55 2.363622 1_555
Na11 O85 2.373431 1_565
Na11 O127 2.443650 1_555
Na11 O129 2.514408 1_555
Na11 O89 2.553857 1_555
Na11 O47 2.789668 1_565
Na12 O90 2.350150 1_555
Na12 O120 2.457491 1_555
Na12 O48 2.468796 1_554
Na12 O124 2.515897 1_555
Na12 O92 2.548142 1_565
Na12 O38 2.834573 1_555
Na13 O121 2.411773 1_555
Na13 O91 2.421310 1_555
Na13 O49 2.423908 1_554
Na13 O125 2.467775 1_555
Na13 O93 2.597105 1_565
Na13 O39 2.844183 1_555
Na14 O82 2.277186 1_555
Na14 O81 2.414282 1_555
Na14 O8 2.453811 1_555
Na14 O108 2.463149 1_555
Na14 O110 2.655335 1_555
Na14 O38 2.936416 1_556
Na14 O67 2.995620 1_555
Na14 O53 3.018870 1_555
Na15 O83 2.281462 1_555
Na15 O80 2.407993 1_655
Na15 O9 2.429513 1_555
Na15 O109 2.462870 1_555
Na15 O111 2.654379 1_555
Na16 O74 2.298227 1_545
Na16 O77 2.383682 1_555
Na16 O4 2.416775 1_555
Na16 O114 2.620450 1_555
Na16 O118 2.663392 1_555
Na17 O72 2.404984 1_545
Na17 O0 2.429171 1_555
Na17 O114 2.468273 1_555
Na17 O76 2.478272 1_555
Na17 O116 2.598056 1_555
Na17 O62 2.856850 1_545
Na17 O58 2.991759 1_545
Na17 O42 3.022844 1_555
Na18 O75 2.271841 1_545
Na18 O85 2.530161 1_555
Na18 O76 2.587886 1_655
Na18 O72 2.712843 1_645
Na18 O89 2.726650 1_545
Na18 O86 2.922018 1_655
Na19 O74 2.359403 1_555
Na19 O77 2.534685 1_565
Na19 O73 2.574963 1_555
Na19 O84 2.627652 1_565
Na19 O88 2.747624 1_555
Na19 O87 2.765892 1_565
Na20 O83 2.287831 1_545
Na20 O78 2.514731 1_655
Na20 O80 2.551093 1_645
Na20 O91 2.736588 1_546
Na20 O93 2.769219 1_556
Na20 O94 2.880206 1_656
Na21 O82 2.324956 1_555
Na21 O79 2.590715 1_565
Na21 O90 2.593369 1_556
Na21 O81 2.596214 1_555
Na21 O92 2.700397 1_566
Na21 O95 2.794023 1_566
Na22 O98 2.431852 1_555
Na22 O100 2.449827 1_555
Na22 O108 2.565302 1_555
Na22 O96 2.730032 1_555
Na22 O112 2.780506 1_555
Na22 O110 2.889980 1_555
Na23 O99 2.409989 1_555
Na23 O101 2.428913 1_555
Na23 O109 2.597260 1_555
Na23 O97 2.701819 1_555
Na23 O113 2.799061 1_555
Na23 O111 2.910250 1_555
Na24 O106 2.359964 1_555
Na24 O104 2.376627 1_555
Na24 O102 2.543334 1_555
Na24 O114 2.751334 1_555
Na24 O116 2.831041 1_555
Na24 O118 2.945954 1_555
Na25 O107 2.395141 1_555
Na25 O115 2.446830 1_555
Na25 O105 2.626857 1_555
Na25 O117 2.755504 1_555
Na25 O103 2.843027 1_555
Na25 O119 2.938694 1_555
Na26 O122 2.274477 1_555
Na26 O124 2.530379 1_555
Na26 O120 2.574693 1_555
Na26 O132 2.721875 1_555
Na26 O136 2.774923 1_555
Na26 O134 3.003332 1_555
Na27 O123 2.310951 1_555
Na27 O133 2.598166 1_555
Na27 O125 2.610312 1_555
Na27 O137 2.664113 1_555
Na27 O121 2.717755 1_555
Na28 O130 2.246183 1_555
Na28 O128 2.625444 1_555
Na28 O126 2.658639 1_555
Na28 O140 2.662921 1_555
Na28 O138 2.672658 1_555
Na29 O131 2.260641 1_555
Na29 O129 2.574206 1_555
Na29 O127 2.613938 1_555
Na29 O141 2.696245 1_555
Na29 O139 2.699963 1_555
Mg0 O75 1.977673 1_545
Mg0 O0 2.024545 1_655
Mg0 O5 2.045563 1_555
Mg0 O3 2.130629 1_545
Mg0 O76 2.243854 1_655
Mg0 O72 2.288809 1_645
Mg1 O1 1.964029 1_555
Mg1 O4 1.966886 1_555
Mg1 O74 2.150093 1_545
Mg1 O2 2.192746 1_545
Mg1 O77 2.242418 1_555
Mg1 O73 2.273583 1_545
Mg2 O9 1.964274 1_555
Mg2 O6 1.973764 1_665
Mg2 O83 2.098390 1_555
Mg2 O11 2.164286 1_565
Mg2 O80 2.252282 1_655
Mg2 O78 2.285643 1_665
Mg3 O8 1.968413 1_555
Mg3 O7 1.974531 1_565
Mg3 O82 2.087397 1_555
Mg3 O10 2.173564 1_565
Mg3 O81 2.249630 1_555
Mg3 O79 2.272268 1_565
Mg4 O24 1.967080 1_555
Mg4 O100 2.023970 1_555
Mg4 O28 2.069834 1_555
Mg4 O98 2.093929 1_555
Mg4 O26 2.265930 1_555
Mg4 O96 2.290843 1_555
Mg5 O25 1.965783 1_555
Mg5 O101 2.033169 1_555
Mg5 O29 2.050436 1_555
Mg5 O99 2.109163 1_555
Mg5 O27 2.269005 1_555
Mg5 O97 2.319075 1_555
Mg6 O30 1.981034 1_555
Mg6 O104 2.038957 1_555
Mg6 O32 2.103600 1_555
Mg6 O106 2.108189 1_555
Mg6 O34 2.207943 1_555
Mg6 O102 2.265359 1_555
Mg7 O31 1.989438 1_555
Mg7 O33 2.005937 1_555
Mg7 O107 2.016420 1_555
Mg7 O105 2.195079 1_555
Mg7 O35 2.197643 1_555
Mg7 O103 2.347451 1_555
Mg8 O48 1.985073 1_554
Mg8 O122 2.022245 1_555
Mg8 O52 2.041382 1_554
Mg8 O50 2.156709 1_554
Mg8 O124 2.215975 1_555
Mg8 O120 2.280007 1_555
Mg9 O49 1.997323 1_554
Mg9 O123 2.002445 1_555
Mg9 O53 2.044886 1_554
Mg9 O51 2.144976 1_554
Mg9 O125 2.250692 1_555
Mg9 O121 2.261373 1_555
Mg10 O130 1.988788 1_555
Mg10 O54 1.999557 1_555
Mg10 O56 2.043816 1_555
Mg10 O58 2.124713 1_555
Mg10 O128 2.227002 1_555
Mg10 O126 2.308033 1_555
Mg11 O55 1.999463 1_555
Mg11 O131 2.025269 1_555
Mg11 O57 2.040634 1_555
Mg11 O59 2.164487 1_555
Mg11 O129 2.209249 1_555
Mg11 O127 2.293882 1_555
O0 Si0 1.602304 1_555
O1 Si1 1.596651 1_555
O2 S0 1.456761 1_555
O3 S1 1.454478 1_555
O4 Si2 1.613088 1_555
O5 S2 1.454260 1_555
O6 Si3 1.591035 1_555
O7 Si4 1.589967 1_555
O8 Si6 1.607494 1_555
O9 Si5 1.608635 1_555
O10 S3 1.451728 1_555
O11 S4 1.453728 1_555
O12 S3 1.502879 1_565
O12 Zr1 2.253125 1_565
O13 S4 1.501798 1_565
O13 Zr0 2.248622 1_665
O14 Si3 1.673659 1_555
O14 Zr0 1.963660 1_555
O15 Si4 1.677681 1_555
O15 Zr1 1.956177 1_555
O16 Si5 1.667684 1_455
O16 Zr0 2.034481 1_565
O17 Si6 1.669722 1_555
O17 Zr1 2.029590 1_565
O18 S0 1.504881 1_555
O18 Zr3 2.246164 1_565
O19 S1 1.508623 1_555
O19 Zr2 2.181285 1_655
O20 S2 1.493908 1_455
O20 Zr2 2.250524 1_545
O21 Si2 1.671949 1_555
O21 Zr3 2.028743 1_555
O22 Si0 1.683543 1_565
O22 Zr2 1.944538 1_555
O23 Si1 1.686976 1_565
O23 Zr3 1.945358 1_565
O24 Si7 1.612806 1_555
O25 Si8 1.613433 1_555
O26 S5 1.473106 1_555
O27 S6 1.473773 1_555
O28 S7 1.476354 1_555
O29 S8 1.480527 1_555
O30 Si9 1.610824 1_555
O31 Si10 1.612533 1_555
O32 S9 1.474997 1_555
O33 S10 1.464182 1_555
O34 S11 1.458676 1_555
O35 S12 1.471078 1_555
O36 S11 1.502119 1_555
O36 Zr4 2.134600 1_554
O37 S12 1.501406 1_555
O37 Zr5 2.105656 1_554
O38 Si9 1.710697 1_555
O38 Zr4 1.950406 1_554
O39 Si10 1.688955 1_555
O39 Zr5 1.968314 1_554
O40 S9 1.488999 1_555
O40 Zr4 2.232247 1_554
O41 S10 1.489039 1_555
O41 Zr5 2.244331 1_554
O42 S5 1.510334 1_555
O42 Zr6 2.142157 1_555
O43 S6 1.491946 1_555
O43 Zr7 2.141007 1_555
O44 S7 1.498230 1_555
O44 Zr6 2.192044 1_555
O45 S8 1.479807 1_555
O45 Zr7 2.303285 1_555
O46 Si7 1.710534 1_555
O46 Zr6 1.936752 1_555
O47 Si8 1.689011 1_555
O47 Zr7 1.938329 1_555
O48 Si11 1.604630 1_555
O49 Si12 1.604701 1_555
O50 S13 1.454157 1_555
O51 S14 1.454354 1_555
O52 S15 1.469796 1_555
O53 S16 1.468519 1_555
O54 Si13 1.599527 1_555
O55 Si14 1.612409 1_555
O56 S17 1.452579 1_555
O57 S18 1.470508 1_555
O58 S19 1.457910 1_555
O59 S20 1.456054 1_555
O60 S19 1.524099 1_555
O60 Zr8 2.139398 1_555
O61 S20 1.515880 1_555
O61 Zr9 2.185105 1_555
O62 Si13 1.704712 1_555
O62 Zr8 1.964518 1_555
O63 Si14 1.672600 1_555
O63 Zr9 1.945769 1_555
O64 S17 1.504426 1_555
O64 Zr8 2.176892 1_555
O65 S18 1.504497 1_555
O65 Zr9 2.281720 1_555
O66 S13 1.527859 1_555
O66 Zr10 2.133007 1_555
O67 S14 1.530163 1_555
O67 Zr11 2.130502 1_555
O68 S15 1.510938 1_555
O68 Zr10 2.239581 1_555
O69 S16 1.510218 1_555
O69 Zr11 2.240278 1_555
O70 Si11 1.679769 1_555
O70 Zr10 1.987354 1_555
O71 Si12 1.676491 1_555
O71 Zr11 1.989492 1_555
O72 S19 1.472185 1_555
O73 S20 1.456627 1_555
O74 Si13 1.611483 1_555
O75 Si14 1.610328 1_555
O76 S17 1.476045 1_555
O77 S18 1.484151 1_555
O78 S13 1.456610 1_555
O79 S14 1.455976 1_555
O80 S15 1.477779 1_555
O81 S16 1.475509 1_555
O82 Si11 1.622239 1_555
O83 Si12 1.623161 1_555
O84 Si7 1.691655 1_555
O84 Zr1 2.083744 1_555
O85 Si8 1.694461 1_555
O85 Zr0 2.073681 1_655
O86 S5 1.493018 1_555
O86 Zr0 2.170602 1_555
O87 S6 1.503623 1_555
O87 Zr1 2.153053 1_555
O88 S7 1.502438 1_555
O88 Zr1 2.347985 1_565
O89 S8 1.512431 1_555
O89 Zr0 2.319223 1_665
O90 Si9 1.695190 1_555
O90 Zr3 2.093978 1_565
O91 Si10 1.719245 1_555
O91 Zr2 2.002870 1_655
O92 S9 1.504927 1_555
O92 Zr3 2.347028 1_555
O93 S10 1.517837 1_555
O93 Zr2 2.284879 1_645
O94 S11 1.507617 1_555
O94 Zr2 2.138566 1_545
O95 S12 1.491604 1_555
O95 Zr3 2.172993 1_555
O96 S3 1.481487 1_555
O97 S4 1.479678 1_555
O98 Si3 1.629563 1_555
O99 Si4 1.627306 1_555
O100 Si6 1.632759 1_555
O101 Si5 1.630510 1_555
O102 S0 1.470802 1_555
O103 S1 1.484189 1_555
O104 Si2 1.631705 1_555
O105 S2 1.486678 1_555
O106 Si0 1.608887 1_555
O107 Si1 1.624746 1_555
O108 Si11 1.720997 1_555
O108 Zr4 2.004341 1_555
O109 Si12 1.722791 1_555
O109 Zr5 1.996998 1_555
O110 S14 1.517207 1_555
O110 Zr4 2.191119 1_555
O111 S13 1.517117 1_655
O111 Zr5 2.175405 1_555
O112 S15 1.487683 1_545
O112 Zr4 2.270709 1_555
O113 S16 1.491832 1_545
O113 Zr5 2.251159 1_555
O114 Si13 1.724145 1_545
O114 Zr6 2.041943 1_555
O115 Si14 1.708592 1_545
O115 Zr7 1.971967 1_555
O116 S17 1.514685 1_555
O116 Zr6 2.290584 1_555
O117 S18 1.489188 1_555
O117 Zr7 2.281821 1_555
O118 S20 1.533114 1_555
O118 Zr6 2.141487 1_555
O119 S19 1.489805 1_655
O119 Zr7 2.179909 1_555
O120 S11 1.476279 1_555
O121 S12 1.474901 1_555
O122 Si10 1.602233 1_455
O123 Si9 1.607983 1_555
O124 S9 1.486924 1_565
O125 S10 1.480055 1_565
O126 S5 1.470789 1_565
O127 S6 1.475429 1_565
O128 S7 1.475130 1_555
O129 S8 1.484666 1_555
O130 Si8 1.606211 1_455
O131 Si7 1.602369 1_555
O132 Si0 1.721247 1_565
O132 Zr8 2.025576 1_555
O133 Si1 1.671891 1_565
O133 Zr9 1.999973 1_555
O134 S0 1.519433 1_555
O134 Zr8 2.156477 1_555
O135 S1 1.496902 1_555
O135 Zr9 2.198158 1_555
O136 S2 1.521258 1_455
O136 Zr8 2.293554 1_555
O137 Si2 1.666774 1_555
O137 Zr9 2.146708 1_555
O138 Si3 1.681695 1_555
O138 Zr10 2.021832 1_555
O139 Si4 1.680691 1_555
O139 Zr11 2.020530 1_555
O140 Si5 1.675456 1_455
O140 Zr10 2.118155 1_555
O141 Si6 1.673939 1_555
O141 Zr11 2.121393 1_555
O142 S3 1.511384 1_565
O142 Zr10 2.207183 1_555
O143 S4 1.511730 1_565
O143 Zr11 2.201142 1_555
