# generated using pymatgen
data_NaTa3GaSiP5O24
_symmetry_space_group_name_H-M   'P 1'
_cell_length_a   8.71519199
_cell_length_b   8.71856413
_cell_length_c   22.60040897
_cell_angle_alpha   89.77134250
_cell_angle_beta   90.08383101
_cell_angle_gamma   120.03068261
_symmetry_Int_Tables_number   1
_chemical_formula_structural   NaTa3GaSiP5O24
_chemical_formula_sum   'Na3 Ta9 Ga3 Si3 P15 O72'
_cell_volume   1486.72606706
_cell_formula_units_Z   3
loop_
 _symmetry_equiv_pos_site_id
 _symmetry_equiv_pos_as_xyz
  1  'x, y, z'
loop_
 _atom_site_type_symbol
 _atom_site_label
 _atom_site_symmetry_multiplicity
 _atom_site_fract_x
 _atom_site_fract_y
 _atom_site_fract_z
 _atom_site_occupancy
  Na  Na0  1  0.00093873  0.00021301  0.99263830  1
  Na  Na1  1  0.66410069  0.33226329  0.83927370  1
  Na  Na2  1  0.66792633  0.33430459  0.33838760  1
  Ta  Ta0  1  0.99448084  0.99794087  0.35953044  1
  Ta  Ta1  1  0.00303554  0.00446762  0.64395737  1
  Ta  Ta2  1  0.99753959  0.00170174  0.14410693  1
  Ta  Ta3  1  0.66481051  0.33356647  0.68943771  1
  Ta  Ta4  1  0.66832149  0.33528408  0.18810316  1
  Ta  Ta5  1  0.33378346  0.66661938  0.02057982  1
  Ta  Ta6  1  0.33309518  0.66600457  0.52431034  1
  Ta  Ta7  1  0.33295282  0.66506826  0.30988082  1
  Ta  Ta8  1  0.33321546  0.66513264  0.81071834  1
  Ga  Ga0  1  0.00438130  0.00185572  0.85456177  1
  Ga  Ga1  1  0.66613051  0.33332303  0.97775380  1
  Ga  Ga2  1  0.66709178  0.33434713  0.48040921  1
  Si  Si0  1  0.71605373  0.71458013  0.25098102  1
  Si  Si1  1  0.99833446  0.28349354  0.25056334  1
  Si  Si2  1  0.28046254  0.28009152  0.75344136  1
  P  P0  1  0.28303774  0.00109306  0.25090282  1
  P  P1  1  0.99892458  0.71843280  0.75227010  1
  P  P2  1  0.71952459  0.00081865  0.75208989  1
  P  P3  1  0.94596904  0.33068703  0.58098201  1
  P  P4  1  0.38409402  0.05237489  0.58101551  1
  P  P5  1  0.67008737  0.61689967  0.58088812  1
  P  P6  1  0.95019485  0.61754455  0.07981834  1
  P  P7  1  0.66644941  0.05075122  0.08008688  1
  P  P8  1  0.38353757  0.33199833  0.07982533  1
  P  P9  1  0.62865001  0.66784075  0.91630241  1
  P  P10  1  0.03824778  0.37270182  0.91677615  1
  P  P11  1  0.33344713  0.96100187  0.91643147  1
  P  P12  1  0.61666236  0.96001672  0.41801204  1
  P  P13  1  0.34161912  0.38147137  0.41801040  1
  P  P14  1  0.04100561  0.65911368  0.41793609  1
  O  O0  1  0.20207947  0.03495529  0.30594292  1
  O  O1  1  0.84021940  0.80204475  0.30876904  1
  O  O2  1  0.96756374  0.16117712  0.30848683  1
  O  O3  1  0.20325371  0.15909968  0.81044028  1
  O  O4  1  0.95495982  0.78815110  0.80684702  1
  O  O5  1  0.83134225  0.03807901  0.80695548  1
  O  O6  1  0.79979722  0.97001156  0.69518571  1
  O  O7  1  0.16547734  0.19348619  0.69264641  1
  O  O8  1  0.02563470  0.82856283  0.69525903  1
  O  O9  1  0.80654262  0.83313112  0.19193785  1
  O  O10  1  0.03264206  0.19742586  0.19173727  1
  O  O11  1  0.17154417  0.97047570  0.19448857  1
  O  O12  1  0.86674774  0.36421412  0.63712328  1
  O  O13  1  0.49925978  0.13440720  0.63708114  1
  O  O14  1  0.63586245  0.50025049  0.63698719  1
  O  O15  1  0.86541321  0.50458210  0.13728998  1
  O  O16  1  0.63890623  0.13277271  0.13733645  1
  O  O17  1  0.49387416  0.35980149  0.13726539  1
  O  O18  1  0.46346517  0.29751543  0.02624925  1
  O  O19  1  0.83424697  0.53839116  0.02644895  1
  O  O20  1  0.70386902  0.16624259  0.02631153  1
  O  O21  1  0.46112610  0.16473149  0.52625397  1
  O  O22  1  0.70271594  0.53841540  0.52627104  1
  O  O23  1  0.83523390  0.29782494  0.52606490  1
  O  O24  1  0.53203323  0.69132650  0.97176148  1
  O  O25  1  0.16002641  0.47000434  0.97194124  1
  O  O26  1  0.31162716  0.84016916  0.97205329  1
  O  O27  1  0.52965385  0.83915749  0.47268076  1
  O  O28  1  0.30879326  0.46935131  0.47238308  1
  O  O29  1  0.16101651  0.68980676  0.47265545  1
  O  O30  1  0.13311463  0.63679380  0.36270212  1
  O  O31  1  0.50318741  0.86895844  0.36263763  1
  O  O32  1  0.36447638  0.49855775  0.36269235  1
  O  O33  1  0.13465212  0.49435821  0.86211292  1
  O  O34  1  0.35887572  0.86702243  0.86195022  1
  O  O35  1  0.50703106  0.64288653  0.86181621  1
  O  O36  1  0.03235669  0.83126458  0.40944200  1
  O  O37  1  0.79956939  0.97010095  0.41010928  1
  O  O38  1  0.17269812  0.19901262  0.40856883  1
  O  O39  1  0.02689959  0.19291995  0.91268777  1
  O  O40  1  0.16145629  0.96699994  0.91351882  1
  O  O41  1  0.80790588  0.83745116  0.91089310  1
  O  O42  1  0.97105841  0.16902457  0.59213462  1
  O  O43  1  0.19615282  0.02264461  0.59290241  1
  O  O44  1  0.82777304  0.80249969  0.59349666  1
  O  O45  1  0.97823201  0.80661106  0.09026961  1
  O  O46  1  0.83117060  0.02529100  0.08946178  1
  O  O47  1  0.19531110  0.16767559  0.08958148  1
  O  O48  1  0.69576185  0.16515801  0.74022883  1
  O  O49  1  0.48098302  0.30981124  0.74064640  1
  O  O50  1  0.83903698  0.52746351  0.74023812  1
  O  O51  1  0.68798268  0.51673841  0.24180649  1
  O  O52  1  0.82276099  0.30188054  0.24169342  1
  O  O53  1  0.46940799  0.16433951  0.24143634  1
  O  O54  1  0.63756231  0.49775284  0.92247718  1
  O  O55  1  0.85939995  0.36456358  0.92264002  1
  O  O56  1  0.50292071  0.14086529  0.92284576  1
  O  O57  1  0.63981314  0.14365815  0.42365732  1
  O  O58  1  0.50504737  0.36263101  0.42340949  1
  O  O59  1  0.85768029  0.49720109  0.42361056  1
  O  O60  1  0.36068486  0.49653968  0.07308447  1
  O  O61  1  0.13643217  0.63755671  0.07335079  1
  O  O62  1  0.50317509  0.86278683  0.07335056  1
  O  O63  1  0.36207232  0.86448976  0.57315679  1
  O  O64  1  0.50291380  0.63723612  0.57296866  1
  O  O65  1  0.13539094  0.49497795  0.57294038  1
  O  O66  1  0.30446381  0.83847279  0.26067576  1
  O  O67  1  0.52480135  0.69784034  0.26117078  1
  O  O68  1  0.16697930  0.47883777  0.26100964  1
  O  O69  1  0.30836675  0.47932287  0.76055282  1
  O  O70  1  0.16428511  0.69787702  0.76001858  1
  O  O71  1  0.53045621  0.84002320  0.75988168  1
loop_
_geom_bond_atom_site_label_1
_geom_bond_atom_site_label_2
_geom_bond_distance
_geom_bond_site_symmetry_2
Na0 O40 2.378072 1_545
Na0 O39 2.394878 1_555
Na0 O41 2.424744 1_445
Na0 O47 2.709370 1_556
Na0 O46 2.713381 1_456
Na0 O45 2.719220 1_446
Na1 O56 2.441644 1_555
Na1 O54 2.455245 1_555
Na1 O55 2.457908 1_555
Na1 O49 2.689635 1_555
Na1 O50 2.759168 1_555
Na1 O48 2.763992 1_555
Na2 O57 2.470797 1_555
Na2 O59 2.474532 1_555
Na2 O58 2.476081 1_555
Na2 O51 2.649539 1_555
Na2 O52 2.659299 1_555
Na2 O53 2.727446 1_555
Ga0 O3 1.869130 1_555
Ga0 O5 2.000217 1_455
Ga0 O4 2.007818 1_445
Ga0 O41 2.035327 1_445
Ga0 O40 2.037057 1_545
Ga0 O39 2.056368 1_555
Ga1 O18 1.967086 1_556
Ga1 O20 1.974900 1_556
Ga1 O19 1.985813 1_556
Ga1 O56 2.000305 1_555
Ga1 O55 2.001763 1_555
Ga1 O54 2.004974 1_555
Ga2 O23 1.942536 1_555
Ga2 O22 1.948611 1_555
Ga2 O21 1.954168 1_555
Ga2 O59 2.013424 1_555
Ga2 O58 2.013821 1_555
Ga2 O57 2.021424 1_555
O0 P0 1.531777 1_555
O0 Ta0 2.064755 1_445
O1 Si0 1.623602 1_555
O1 Ta0 1.937382 1_555
O2 Si1 1.620660 1_555
O2 Ta0 1.931728 1_545
O3 Si2 1.583103 1_555
O4 P1 1.509370 1_555
O5 P2 1.508502 1_555
O6 P2 1.552091 1_565
O6 Ta1 2.009652 1_665
O7 Si2 1.645936 1_555
O7 Ta1 1.898844 1_555
O8 P1 1.550346 1_455
O8 Ta1 2.005645 1_565
O9 Si0 1.626981 1_555
O9 Ta2 1.908735 1_565
O10 Si1 1.629027 1_455
O10 Ta2 1.911925 1_455
O11 P0 1.542884 1_565
O11 Ta2 2.018927 1_465
O12 P3 1.542582 1_555
O12 Ta3 2.024721 1_555
O13 P4 1.552248 1_555
O13 Ta3 2.000171 1_555
O14 P5 1.554973 1_555
O14 Ta3 1.983205 1_555
O15 P6 1.570744 1_555
O15 Ta4 1.975471 1_555
O16 P7 1.556662 1_555
O16 Ta4 2.015381 1_555
O17 P8 1.560202 1_555
O17 Ta4 1.998860 1_555
O18 P8 1.502246 1_555
O19 P6 1.502428 1_555
O20 P7 1.503335 1_555
O21 P4 1.508820 1_555
O22 P5 1.508405 1_555
O23 P3 1.508803 1_555
O24 P9 1.581034 1_555
O24 Ta5 1.969796 1_556
O25 P10 1.582357 1_555
O25 Ta5 1.962632 1_556
O26 P11 1.586142 1_555
O26 Ta5 1.951448 1_556
O27 P12 1.550633 1_555
O27 Ta6 1.994591 1_555
O28 P13 1.551414 1_555
O28 Ta6 2.003405 1_555
O29 P14 1.553590 1_555
O29 Ta6 1.989845 1_555
O30 P14 1.549768 1_555
O30 Ta7 2.023156 1_555
O31 P12 1.546923 1_555
O31 Ta7 2.038311 1_555
O32 P13 1.559421 1_555
O32 Ta7 1.998003 1_555
O33 P10 1.567725 1_555
O33 Ta8 1.993444 1_555
O34 P11 1.557939 1_555
O34 Ta8 2.027419 1_555
O35 P9 1.566737 1_555
O35 Ta8 1.988256 1_555
O36 P14 1.551179 1_555
O36 Ta0 1.989744 1_455
O37 P12 1.562407 1_555
O37 Ta0 1.960082 1_555
O38 P13 1.549557 1_555
O38 Ta0 1.999759 1_445
O39 P10 1.523532 1_555
O40 P11 1.527092 1_555
O41 P9 1.526132 1_555
O42 P3 1.550295 1_555
O42 Ta1 1.973224 1_655
O43 P4 1.548546 1_555
O43 Ta1 1.981524 1_555
O44 P5 1.537838 1_555
O44 Ta1 2.013242 1_665
O45 P6 1.559636 1_555
O45 Ta2 2.032566 1_565
O46 P7 1.572495 1_555
O46 Ta2 1.990241 1_555
O47 P8 1.561512 1_555
O47 Ta2 2.019624 1_455
O48 P2 1.568901 1_555
O48 Ta3 1.982008 1_555
O49 Si2 1.659041 1_555
O49 Ta3 1.902739 1_555
O50 P1 1.571016 1_555
O50 Ta3 1.980573 1_555
O51 Si0 1.630472 1_555
O51 Ta4 1.936142 1_555
O52 Si1 1.628384 1_555
O52 Ta4 1.936009 1_555
O53 P0 1.547374 1_555
O53 Ta4 2.021159 1_555
O54 P9 1.529108 1_555
O55 P10 1.530344 1_655
O56 P11 1.531181 1_545
O57 P12 1.516143 1_545
O58 P13 1.517904 1_555
O59 P14 1.517742 1_655
O60 P8 1.550806 1_555
O60 Ta5 1.998754 1_555
O61 P6 1.550251 1_455
O61 Ta5 2.003054 1_555
O62 P7 1.549476 1_565
O62 Ta5 2.002704 1_555
O63 P4 1.561812 1_565
O63 Ta6 1.963195 1_555
O64 P5 1.563241 1_555
O64 Ta6 1.956335 1_555
O65 P3 1.562693 1_455
O65 Ta6 1.954743 1_555
O66 P0 1.535002 1_565
O66 Ta7 1.986318 1_555
O67 Si0 1.615527 1_555
O67 Ta7 1.901005 1_555
O68 Si1 1.616559 1_455
O68 Ta7 1.899316 1_555
O69 Si2 1.637522 1_555
O69 Ta8 1.902494 1_555
O70 P1 1.548297 1_455
O70 Ta8 1.993775 1_555
O71 P2 1.548615 1_565
O71 Ta8 1.992040 1_555
