# generated using pymatgen
data_LiMnPO4
_symmetry_space_group_name_H-M   'P 1'
_cell_length_a   4.62858500
_cell_length_b   5.30893057
_cell_length_c   7.61077078
_cell_angle_alpha   90.20554615
_cell_angle_beta   104.19551713
_cell_angle_gamma   104.40424146
_symmetry_Int_Tables_number   1
_chemical_formula_structural   LiMnPO4
_chemical_formula_sum   'Li2 Mn2 P2 O8'
_cell_volume   175.19212095
_cell_formula_units_Z   2
loop_
 _symmetry_equiv_pos_site_id
 _symmetry_equiv_pos_as_xyz
  1  'x, y, z'
loop_
 _atom_site_type_symbol
 _atom_site_label
 _atom_site_symmetry_multiplicity
 _atom_site_fract_x
 _atom_site_fract_y
 _atom_site_fract_z
 _atom_site_occupancy
  Li  Li0  1  0.72596100  0.71746300  0.98674900  1
  Li  Li1  1  0.27403900  0.28253700  0.01325100  1
  Mn  Mn0  1  0.05439300  0.23816800  0.39434400  1
  Mn  Mn1  1  0.94560700  0.76183200  0.60565600  1
  P  P0  1  0.64701400  0.19381000  0.74320100  1
  P  P1  1  0.35298600  0.80619000  0.25679900  1
  O  O0  1  0.84047000  0.37711000  0.62945500  1
  O  O1  1  0.68682000  0.91437500  0.38114000  1
  O  O2  1  0.15953000  0.62289000  0.37054500  1
  O  O3  1  0.31318000  0.08562500  0.61886000  1
  O  O4  1  0.20498200  0.03802400  0.20250300  1
  O  O5  1  0.63776100  0.34309100  0.91364200  1
  O  O6  1  0.36223900  0.65690900  0.08635800  1
  O  O7  1  0.79501800  0.96197600  0.79749700  1
loop_
_geom_bond_atom_site_label_1
_geom_bond_atom_site_label_2
_geom_bond_distance
_geom_bond_site_symmetry_2
Li0 O6 1.967422 1_556
Li0 O7 1.973485 1_555
Li0 O5 1.975711 1_555
Li1 O5 1.967422 1_554
Li1 O4 1.973485 1_555
Li1 O6 1.975711 1_555
Mn0 O2 1.998163 1_555
Mn0 O1 2.078331 1_445
Mn0 O3 2.121105 1_555
Mn0 O4 2.145481 1_555
Mn0 O0 2.439115 1_455
Mn1 O0 1.998163 1_555
Mn1 O3 2.078331 1_665
Mn1 O1 2.121105 1_555
Mn1 O7 2.145481 1_555
Mn1 O2 2.439115 1_655
O0 P0 1.565537 1_555
O1 P1 1.565369 1_555
O2 P1 1.565537 1_555
O3 P0 1.565369 1_555
O4 P1 1.561792 1_545
O5 P0 1.532769 1_555
O6 P1 1.532769 1_555
O7 P0 1.561792 1_565
