# generated using pymatgen
data_TlTe
_symmetry_space_group_name_H-M   'P 1'
_cell_length_a   18.60348300
_cell_length_b   18.60348300
_cell_length_c   6.29021100
_cell_angle_alpha   90.00000000
_cell_angle_beta   90.00000000
_cell_angle_gamma   90.00000000
_symmetry_Int_Tables_number   1
_chemical_formula_structural   TlTe
_chemical_formula_sum   'Tl32 Te32'
_cell_volume   2176.97648141
_cell_formula_units_Z   32
loop_
 _symmetry_equiv_pos_site_id
 _symmetry_equiv_pos_as_xyz
  1  'x, y, z'
loop_
 _atom_site_type_symbol
 _atom_site_label
 _atom_site_symmetry_multiplicity
 _atom_site_fract_x
 _atom_site_fract_y
 _atom_site_fract_z
 _atom_site_occupancy
  Tl  Tl0  1  0.82415700  0.09649100  0.75279300  1
  Tl  Tl1  1  0.09615200  0.67552500  0.75378100  1
  Tl  Tl2  1  0.17552500  0.40384800  0.25378100  1
  Tl  Tl3  1  0.82447500  0.59615200  0.25378100  1
  Tl  Tl4  1  0.32447500  0.90384800  0.24621900  1
  Tl  Tl5  1  0.40384800  0.17552500  0.74621900  1
  Tl  Tl6  1  0.59615200  0.82447500  0.74621900  1
  Tl  Tl7  1  0.67552500  0.09615200  0.24621900  1
  Tl  Tl8  1  0.59615200  0.17552500  0.74621900  1
  Tl  Tl9  1  0.40384800  0.82447500  0.74621900  1
  Tl  Tl10  1  0.32447500  0.09615200  0.24621900  1
  Tl  Tl11  1  0.67552500  0.90384800  0.24621900  1
  Tl  Tl12  1  0.17552500  0.59615200  0.25378100  1
  Tl  Tl13  1  0.09615200  0.32447500  0.75378100  1
  Tl  Tl14  1  0.90384800  0.67552500  0.75378100  1
  Tl  Tl15  1  0.82447500  0.40384800  0.25378100  1
  Tl  Tl16  1  0.90384800  0.32447500  0.75378100  1
  Tl  Tl17  1  0.17584300  0.90350900  0.75279300  1
  Tl  Tl18  1  0.40350900  0.32415700  0.25279300  1
  Tl  Tl19  1  0.59649100  0.67584300  0.25279300  1
  Tl  Tl20  1  0.09649100  0.82415700  0.24720700  1
  Tl  Tl21  1  0.32415700  0.40350900  0.74720700  1
  Tl  Tl22  1  0.67584300  0.59649100  0.74720700  1
  Tl  Tl23  1  0.90350900  0.17584300  0.24720700  1
  Tl  Tl24  1  0.67584300  0.40350900  0.74720700  1
  Tl  Tl25  1  0.32415700  0.59649100  0.74720700  1
  Tl  Tl26  1  0.09649100  0.17584300  0.24720700  1
  Tl  Tl27  1  0.90350900  0.82415700  0.24720700  1
  Tl  Tl28  1  0.40350900  0.67584300  0.25279300  1
  Tl  Tl29  1  0.17584300  0.09649100  0.75279300  1
  Tl  Tl30  1  0.82415700  0.90350900  0.75279300  1
  Tl  Tl31  1  0.59649100  0.32415700  0.25279300  1
  Te  Te0  1  0.75125700  0.24874300  0.50000000  1
  Te  Te1  1  0.74874300  0.74874300  0.00000000  1
  Te  Te2  1  0.25125700  0.25125700  0.00000000  1
  Te  Te3  1  0.24874300  0.75125700  0.50000000  1
  Te  Te4  1  0.74874300  0.25125700  0.00000000  1
  Te  Te5  1  0.75125700  0.75125700  0.50000000  1
  Te  Te6  1  0.24874300  0.24874300  0.50000000  1
  Te  Te7  1  0.25125700  0.74874300  0.00000000  1
  Te  Te8  1  0.00000000  0.00000000  0.23901300  1
  Te  Te9  1  0.50000000  0.50000000  0.73901300  1
  Te  Te10  1  0.50000000  0.50000000  0.26098700  1
  Te  Te11  1  0.00000000  0.00000000  0.76098700  1
  Te  Te12  1  0.50000000  0.00000000  0.24839100  1
  Te  Te13  1  0.50000000  0.00000000  0.74839100  1
  Te  Te14  1  0.00000000  0.50000000  0.25160900  1
  Te  Te15  1  0.16337300  0.50000000  0.75234600  1
  Te  Te16  1  0.50000000  0.33680300  0.76504900  1
  Te  Te17  1  0.50000000  0.66319700  0.76504900  1
  Te  Te18  1  0.16319700  0.00000000  0.26504900  1
  Te  Te19  1  0.83680300  0.00000000  0.26504900  1
  Te  Te20  1  0.33680300  0.50000000  0.23495100  1
  Te  Te21  1  0.00000000  0.16319700  0.73495100  1
  Te  Te22  1  0.00000000  0.83680300  0.73495100  1
  Te  Te23  1  0.66319700  0.50000000  0.23495100  1
  Te  Te24  1  0.50000000  0.83662700  0.24765400  1
  Te  Te25  1  0.50000000  0.16337300  0.24765400  1
  Te  Te26  1  0.66337300  0.00000000  0.74765400  1
  Te  Te27  1  0.33662700  0.00000000  0.74765400  1
  Te  Te28  1  0.83662700  0.50000000  0.75234600  1
  Te  Te29  1  0.00000000  0.66337300  0.25234600  1
  Te  Te30  1  0.00000000  0.33662700  0.25234600  1
  Te  Te31  1  0.00000000  0.50000000  0.75160900  1
loop_
_geom_bond_atom_site_label_1
_geom_bond_atom_site_label_2
_geom_bond_distance
_geom_bond_site_symmetry_2
Tl1 Tl14 3.577524 1_455
Tl5 Tl8 3.577524 1_555
Tl6 Tl9 3.577524 1_555
Tl10 Tl4 3.577524 1_545
Tl11 Tl7 3.577524 1_565
Tl12 Tl2 3.577524 1_555
Tl13 Tl16 3.577524 1_455
Tl15 Tl3 3.577524 1_555
Te0 Te4 3.145801 1_556
Te0 Te4 3.145801 1_555
Te0 Tl0 3.519991 1_555
Te0 Tl23 3.519991 1_555
Te0 Tl8 3.546844 1_555
Te0 Tl15 3.546844 1_555
Te0 Tl16 3.548462 1_555
Te0 Tl7 3.548462 1_555
Te0 Tl31 3.560337 1_555
Te0 Tl24 3.560337 1_555
Te1 Te5 3.145801 1_554
Te1 Te5 3.145801 1_555
Te1 Tl19 3.519991 1_555
Te1 Tl22 3.519991 1_554
Te1 Tl11 3.546844 1_555
Te1 Tl14 3.546844 1_554
Te1 Tl3 3.548462 1_555
Te1 Tl6 3.548462 1_554
Te1 Tl27 3.560337 1_555
Te1 Tl30 3.560337 1_554
Te2 Te6 3.145801 1_554
Te2 Te6 3.145801 1_555
Te2 Tl18 3.519991 1_555
Te2 Tl21 3.519991 1_554
Te2 Tl10 3.546844 1_555
Te2 Tl13 3.546844 1_554
Te2 Tl2 3.548462 1_555
Te2 Tl5 3.548462 1_554
Te2 Tl26 3.560337 1_555
Te2 Tl29 3.560337 1_554
Te3 Te7 3.145801 1_555
Te3 Te7 3.145801 1_556
Te3 Tl20 3.519991 1_555
Te3 Tl17 3.519991 1_555
Te3 Tl12 3.546844 1_555
Te3 Tl9 3.546844 1_555
Te3 Tl4 3.548462 1_555
Te3 Tl1 3.548462 1_555
Te3 Tl25 3.560337 1_555
Te3 Tl28 3.560337 1_555
Te4 Tl31 3.519991 1_555
Te4 Tl24 3.519991 1_554
Te4 Tl7 3.546844 1_555
Te4 Tl16 3.546844 1_554
Te4 Tl8 3.548462 1_554
Te4 Tl15 3.548462 1_555
Te4 Tl0 3.560337 1_554
Te4 Tl23 3.560337 1_555
Te5 Tl30 3.519991 1_555
Te5 Tl27 3.519991 1_555
Te5 Tl3 3.546844 1_555
Te5 Tl6 3.546844 1_555
Te5 Tl14 3.548462 1_555
Te5 Tl11 3.548462 1_555
Te5 Tl19 3.560337 1_555
Te5 Tl22 3.560337 1_555
Te6 Tl29 3.519991 1_555
Te6 Tl26 3.519991 1_555
Te6 Tl5 3.546844 1_555
Te6 Tl2 3.546844 1_555
Te6 Tl13 3.548462 1_555
Te6 Tl10 3.548462 1_555
Te6 Tl21 3.560337 1_555
Te6 Tl18 3.560337 1_555
Te7 Tl25 3.519991 1_554
Te7 Tl28 3.519991 1_555
Te7 Tl1 3.546844 1_554
Te7 Tl4 3.546844 1_555
Te7 Tl12 3.548462 1_555
Te7 Tl9 3.548462 1_554
Te7 Tl20 3.560337 1_555
Te7 Tl17 3.560337 1_554
Te10 Te9 3.006884 1_555
Te10 Te23 3.040447 1_555
Te10 Te20 3.040447 1_555
Te10 Te9 3.283327 1_554
Te11 Te8 3.006884 1_556
Te11 Te21 3.040447 1_555
Te11 Te22 3.040447 1_545
Te11 Te8 3.283327 1_555
Te12 Te24 3.039310 1_545
Te12 Te25 3.039310 1_555
Te12 Te13 3.145105 1_555
Te12 Te13 3.145106 1_554
Te13 Te27 3.039310 1_555
Te13 Te26 3.039310 1_555
Te14 Te30 3.039310 1_555
Te14 Te29 3.039310 1_555
Te14 Te31 3.145105 1_554
Te14 Te31 3.145106 1_555
Te15 Te31 3.039310 1_555
Te15 Tl21 3.488588 1_555
Te15 Tl25 3.488588 1_555
Te15 Tl1 3.496659 1_555
Te15 Tl13 3.496659 1_555
Te15 Tl2 3.617426 1_555
Te15 Tl12 3.617426 1_555
Te15 Tl2 3.633088 1_556
Te15 Tl12 3.633088 1_556
Te16 Te9 3.040447 1_555
Te16 Tl8 3.495096 1_555
Te16 Tl5 3.495096 1_555
Te16 Tl24 3.500563 1_555
Te16 Tl21 3.500563 1_555
Te16 Tl18 3.562348 1_556
Te16 Tl31 3.562348 1_556
Te17 Te9 3.040447 1_555
Te17 Tl6 3.495096 1_555
Te17 Tl9 3.495096 1_555
Te17 Tl22 3.500563 1_555
Te17 Tl25 3.500563 1_555
Te17 Tl28 3.562348 1_556
Te17 Tl19 3.562348 1_556
Te18 Te8 3.040447 1_555
Te18 Tl10 3.495096 1_555
Te18 Tl4 3.495096 1_545
Te18 Tl26 3.500563 1_555
Te18 Tl20 3.500563 1_545
Te18 Tl29 3.562348 1_555
Te18 Tl17 3.562348 1_545
Te19 Te8 3.040447 1_655
Te19 Tl7 3.495096 1_555
Te19 Tl11 3.495096 1_545
Te19 Tl23 3.500563 1_555
Te19 Tl27 3.500563 1_545
Te19 Tl0 3.562348 1_555
Te19 Tl30 3.562348 1_545
Te20 Tl2 3.495096 1_555
Te20 Tl12 3.495096 1_555
Te20 Tl28 3.500563 1_555
Te20 Tl18 3.500563 1_555
Te20 Tl21 3.562348 1_554
Te20 Tl25 3.562348 1_554
Te21 Tl13 3.495096 1_555
Te21 Tl16 3.495096 1_455
Te21 Tl29 3.500563 1_555
Te21 Tl0 3.500563 1_455
Te21 Tl23 3.562348 1_455
Te21 Tl26 3.562348 1_555
Te22 Tl1 3.495096 1_555
Te22 Tl14 3.495096 1_455
Te22 Tl17 3.500563 1_555
Te22 Tl30 3.500563 1_455
Te22 Tl20 3.562348 1_555
Te22 Tl27 3.562348 1_455
Te23 Tl15 3.495096 1_555
Te23 Tl3 3.495096 1_555
Te23 Tl19 3.500563 1_555
Te23 Tl31 3.500563 1_555
Te23 Tl22 3.562348 1_554
Te23 Tl24 3.562348 1_554
Te24 Tl19 3.488588 1_555
Te24 Tl28 3.488588 1_555
Te24 Tl11 3.496659 1_555
Te24 Tl4 3.496659 1_555
Te24 Tl6 3.617426 1_555
Te24 Tl9 3.617426 1_555
Te24 Tl9 3.633088 1_554
Te24 Tl6 3.633088 1_554
Te25 Tl31 3.488588 1_555
Te25 Tl18 3.488588 1_555
Te25 Tl7 3.496659 1_555
Te25 Tl10 3.496659 1_555
Te25 Tl8 3.617426 1_555
Te25 Tl5 3.617426 1_555
Te25 Tl8 3.633088 1_554
Te25 Tl5 3.633088 1_554
Te26 Tl0 3.488588 1_555
Te26 Tl30 3.488588 1_545
Te26 Tl8 3.496659 1_555
Te26 Tl6 3.496659 1_545
Te26 Tl7 3.617426 1_556
Te26 Tl11 3.617426 1_546
Te26 Tl7 3.633088 1_555
Te26 Tl11 3.633088 1_545
Te27 Tl29 3.488588 1_555
Te27 Tl17 3.488588 1_545
Te27 Tl5 3.496659 1_555
Te27 Tl9 3.496659 1_545
Te27 Tl10 3.617426 1_556
Te27 Tl4 3.617426 1_546
Te27 Tl10 3.633088 1_555
Te27 Tl4 3.633088 1_545
Te28 Te31 3.039310 1_655
Te28 Tl24 3.488588 1_555
Te28 Tl22 3.488588 1_555
Te28 Tl14 3.496659 1_555
Te28 Tl16 3.496659 1_555
Te28 Tl15 3.617426 1_555
Te28 Tl3 3.617426 1_555
Te28 Tl15 3.633088 1_556
Te28 Tl3 3.633088 1_556
Te29 Tl20 3.488588 1_555
Te29 Tl27 3.488588 1_455
Te29 Tl12 3.496659 1_555
Te29 Tl3 3.496659 1_455
Te29 Tl1 3.617426 1_554
Te29 Tl14 3.617426 1_454
Te29 Tl1 3.633088 1_555
Te29 Tl14 3.633088 1_455
Te30 Tl23 3.488588 1_455
Te30 Tl26 3.488588 1_555
Te30 Tl2 3.496659 1_555
Te30 Tl15 3.496659 1_455
Te30 Tl13 3.617426 1_554
Te30 Tl16 3.617426 1_454
Te30 Tl13 3.633088 1_555
Te30 Tl16 3.633088 1_455
