# generated using pymatgen
data_Cs4Na2MgV2O8
_symmetry_space_group_name_H-M   'P 1'
_cell_length_a   6.34447875
_cell_length_b   6.78249974
_cell_length_c   8.26413902
_cell_angle_alpha   86.68567175
_cell_angle_beta   90.82992976
_cell_angle_gamma   92.55673710
_symmetry_Int_Tables_number   1
_chemical_formula_structural   Cs4Na2MgV2O8
_chemical_formula_sum   'Cs4 Na2 Mg1 V2 O8'
_cell_volume   354.64418977
_cell_formula_units_Z   1
loop_
 _symmetry_equiv_pos_site_id
 _symmetry_equiv_pos_as_xyz
  1  'x, y, z'
loop_
 _atom_site_type_symbol
 _atom_site_label
 _atom_site_symmetry_multiplicity
 _atom_site_fract_x
 _atom_site_fract_y
 _atom_site_fract_z
 _atom_site_occupancy
  Cs  Cs0  1  0.77427838  0.29684765  0.51482345  1
  Cs  Cs1  1  0.22572162  0.70315235  0.48517655  1
  Cs  Cs2  1  0.69625286  0.86611767  0.20565757  1
  Cs  Cs3  1  0.30374714  0.13388233  0.79434243  1
  Na  Na0  1  0.09927902  0.73215492  0.98353515  1
  Na  Na1  1  0.90072098  0.26784508  0.01646485  1
  Mg  Mg0  1  0.50000000  0.50000000  0.00000000  1
  V  V0  1  0.29749076  0.23050068  0.23897131  1
  V  V1  1  0.70250924  0.76949932  0.76102869  1
  O  O0  1  0.15533357  0.01851828  0.16738717  1
  O  O1  1  0.78262312  0.54732405  0.89137860  1
  O  O2  1  0.84466643  0.98148172  0.83261283  1
  O  O3  1  0.21737688  0.45267595  0.10862140  1
  O  O4  1  0.42389309  0.72995843  0.84539940  1
  O  O5  1  0.70392578  0.73521261  0.55016483  1
  O  O6  1  0.57610691  0.27004157  0.15460060  1
  O  O7  1  0.29607422  0.26478739  0.44983517  1
loop_
_geom_bond_atom_site_label_1
_geom_bond_atom_site_label_2
_geom_bond_distance
_geom_bond_site_symmetry_2
Cs0 O5 3.057302 1_555
Cs0 O7 3.073770 1_555
Cs0 O6 3.226411 1_555
Cs0 O2 3.327694 1_545
Cs0 O7 3.380019 1_655
Cs0 O1 3.629235 1_555
Cs1 O7 3.057302 1_555
Cs1 O5 3.073770 1_555
Cs1 O4 3.226411 1_555
Cs1 O0 3.327694 1_565
Cs1 O5 3.380019 1_455
Cs1 O3 3.629235 1_555
Cs2 O6 2.882343 1_565
Cs2 O5 2.933250 1_555
Cs2 O0 3.061398 1_665
Cs3 O4 2.882343 1_545
Cs3 O7 2.933250 1_555
Cs3 O2 3.061398 1_445
Na0 O3 2.258512 1_556
Na0 O4 2.370188 1_555
Na0 O1 2.455422 1_455
Na0 O0 2.543875 1_566
Na0 O2 2.639363 1_455
Na1 O1 2.258512 1_554
Na1 O6 2.370188 1_555
Na1 O3 2.455422 1_655
Na1 O2 2.543875 1_544
Na1 O0 2.639363 1_655
Mg0 O1 2.021381 1_554
Mg0 O3 2.021381 1_555
Mg0 O6 2.029055 1_555
Mg0 O4 2.029055 1_554
O0 V0 1.788239 1_555
O1 V1 1.885288 1_555
O2 V1 1.788239 1_555
O3 V0 1.885288 1_555
O4 V1 1.911686 1_555
O5 V1 1.771536 1_555
O6 V0 1.911686 1_555
O7 V0 1.771536 1_555
