# generated using pymatgen
data_YSi3Ni5
_symmetry_space_group_name_H-M   'P 1'
_cell_length_a   3.76309568
_cell_length_b   6.58164313
_cell_length_c   18.57970767
_cell_angle_alpha   90.00000000
_cell_angle_beta   90.00000000
_cell_angle_gamma   90.00000000
_symmetry_Int_Tables_number   1
_chemical_formula_structural   YSi3Ni5
_chemical_formula_sum   'Y4 Si12 Ni20'
_cell_volume   460.17017534
_cell_formula_units_Z   4
loop_
 _symmetry_equiv_pos_site_id
 _symmetry_equiv_pos_as_xyz
  1  'x, y, z'
loop_
 _atom_site_type_symbol
 _atom_site_label
 _atom_site_symmetry_multiplicity
 _atom_site_fract_x
 _atom_site_fract_y
 _atom_site_fract_z
 _atom_site_occupancy
  Y  Y0  1  0.25000000  0.62283596  0.64387455  1
  Y  Y1  1  0.75000000  0.37716404  0.35612545  1
  Y  Y2  1  0.75000000  0.12283596  0.85612545  1
  Y  Y3  1  0.25000000  0.87716404  0.14387455  1
  Si  Si0  1  0.25000000  0.84321202  0.92610817  1
  Si  Si1  1  0.75000000  0.15678798  0.07389183  1
  Si  Si2  1  0.75000000  0.34321202  0.57389183  1
  Si  Si3  1  0.25000000  0.65678798  0.42610817  1
  Si  Si4  1  0.75000000  0.62191953  0.76304706  1
  Si  Si5  1  0.25000000  0.37808047  0.23695294  1
  Si  Si6  1  0.25000000  0.42052590  0.91419554  1
  Si  Si7  1  0.75000000  0.57947410  0.08580446  1
  Si  Si8  1  0.75000000  0.92052590  0.58580446  1
  Si  Si9  1  0.25000000  0.07947410  0.41419554  1
  Si  Si10  1  0.25000000  0.12191953  0.73695294  1
  Si  Si11  1  0.75000000  0.87808047  0.26304706  1
  Ni  Ni0  1  0.25000000  0.13394828  0.99450812  1
  Ni  Ni1  1  0.75000000  0.38484309  0.98476269  1
  Ni  Ni2  1  0.75000000  0.11515691  0.48476269  1
  Ni  Ni3  1  0.25000000  0.61515691  0.01523731  1
  Ni  Ni4  1  0.25000000  0.35642802  0.11494236  1
  Ni  Ni5  1  0.75000000  0.64357198  0.88505764  1
  Ni  Ni6  1  0.75000000  0.85642802  0.38505764  1
  Ni  Ni7  1  0.25000000  0.14357198  0.61494236  1
  Ni  Ni8  1  0.25000000  0.06917808  0.29357252  1
  Ni  Ni9  1  0.75000000  0.93082192  0.70642748  1
  Ni  Ni10  1  0.75000000  0.56917808  0.20642748  1
  Ni  Ni11  1  0.25000000  0.43082192  0.79357252  1
  Ni  Ni12  1  0.75000000  0.63394828  0.50549188  1
  Ni  Ni13  1  0.25000000  0.36605172  0.49450812  1
  Ni  Ni14  1  0.25000000  0.81455338  0.80057686  1
  Ni  Ni15  1  0.75000000  0.18544662  0.19942314  1
  Ni  Ni16  1  0.75000000  0.31455338  0.69942314  1
  Ni  Ni17  1  0.25000000  0.68544662  0.30057686  1
  Ni  Ni18  1  0.25000000  0.88484309  0.51523731  1
  Ni  Ni19  1  0.75000000  0.86605172  0.00549188  1
loop_
_geom_bond_atom_site_label_1
_geom_bond_atom_site_label_2
_geom_bond_distance
_geom_bond_site_symmetry_2
Si0 Y2 2.935628 1_465
Si0 Y2 2.935628 1_565
Si1 Y3 2.935628 1_645
Si1 Y3 2.935628 1_545
Si2 Y0 2.935628 1_655
Si2 Y0 2.935628 1_555
Si3 Y1 2.935628 1_455
Si3 Y1 2.935628 1_555
Si4 Y0 2.905666 1_655
Si4 Y0 2.905666 1_555
Si5 Y1 2.905666 1_455
Si5 Y1 2.905666 1_555
Si6 Y2 2.922861 1_555
Si6 Y2 2.922861 1_455
Si7 Y3 2.922861 1_655
Si7 Y3 2.922861 1_555
Si8 Y0 2.922861 1_655
Si8 Y0 2.922861 1_555
Si9 Y1 2.922861 1_455
Si9 Y1 2.922861 1_555
Si10 Y2 2.905666 1_455
Si10 Y2 2.905666 1_555
Si11 Y3 2.905666 1_555
Si11 Y3 2.905666 1_655
Ni0 Si0 2.297092 1_545
Ni0 Si1 2.395460 1_456
Ni0 Si1 2.395460 1_556
Ni0 Si6 2.405033 1_555
Ni0 Ni1 2.509940 1_455
Ni0 Ni1 2.509940 1_555
Ni0 Ni19 2.586647 1_446
Ni0 Ni19 2.586647 1_546
Ni0 Ni4 2.674159 1_556
Ni0 Y2 3.186876 1_455
Ni0 Y2 3.186876 1_555
Ni0 Y3 3.249301 1_546
Ni1 Si1 2.235005 1_556
Ni1 Si7 2.272729 1_556
Ni1 Si6 2.305299 1_655
Ni1 Si6 2.305299 1_555
Ni1 Ni3 2.481652 1_656
Ni1 Ni3 2.481652 1_556
Ni1 Ni5 2.516239 1_555
Ni1 Y2 2.947200 1_555
Ni2 Si2 2.235005 1_555
Ni2 Si8 2.272729 1_545
Ni2 Si9 2.305299 1_655
Ni2 Si9 2.305299 1_555
Ni2 Ni6 2.516239 1_545
Ni2 Y1 2.947200 1_555
Ni3 Si0 2.235005 1_554
Ni3 Si6 2.272729 1_554
Ni3 Si7 2.305299 1_455
Ni3 Si7 2.305299 1_555
Ni3 Ni4 2.516239 1_555
Ni3 Y3 2.947200 1_555
Ni4 Si5 2.271396 1_555
Ni4 Si1 2.418353 1_455
Ni4 Si1 2.418353 1_555
Ni4 Si7 2.447113 1_455
Ni4 Si7 2.447113 1_555
Ni4 Y3 3.199820 1_545
Ni5 Si4 2.271396 1_555
Ni5 Si0 2.418353 1_555
Ni5 Si0 2.418353 1_655
Ni5 Si6 2.447113 1_555
Ni5 Si6 2.447113 1_655
Ni5 Y2 3.199820 1_565
Ni6 Si11 2.271396 1_555
Ni6 Si3 2.418353 1_555
Ni6 Si3 2.418353 1_655
Ni6 Si9 2.447113 1_565
Ni6 Si9 2.447113 1_665
Ni6 Ni8 2.896570 1_565
Ni6 Ni8 2.896570 1_665
Ni6 Y1 3.199820 1_555
Ni7 Si10 2.271396 1_555
Ni7 Si2 2.418353 1_455
Ni7 Si2 2.418353 1_555
Ni7 Si8 2.447113 1_445
Ni7 Si8 2.447113 1_545
Ni7 Ni9 2.896570 1_545
Ni7 Ni9 2.896570 1_445
Ni7 Y0 3.199820 1_555
Ni8 Si9 2.242165 1_555
Ni8 Si5 2.289124 1_555
Ni8 Si11 2.333192 1_545
Ni8 Si11 2.333192 1_445
Ni8 Y1 2.999985 1_555
Ni8 Y1 2.999985 1_455
Ni8 Y3 3.054994 1_545
Ni9 Si8 2.242165 1_555
Ni9 Si4 2.289124 1_555
Ni9 Si10 2.333192 1_665
Ni9 Si10 2.333192 1_565
Ni9 Y0 2.999985 1_555
Ni9 Y0 2.999985 1_655
Ni9 Y2 3.054994 1_565
Ni10 Si7 2.242165 1_555
Ni10 Si11 2.289124 1_555
Ni10 Si5 2.333192 1_555
Ni10 Si5 2.333192 1_655
Ni10 Ni15 2.528934 1_555
Ni10 Ni17 2.680625 1_555
Ni10 Ni17 2.680625 1_655
Ni10 Ni4 2.896570 1_555
Ni10 Ni4 2.896570 1_655
Ni10 Y3 2.999985 1_555
Ni10 Y3 2.999985 1_655
Ni10 Y1 3.054994 1_555
Ni11 Si6 2.242165 1_555
Ni11 Si10 2.289124 1_555
Ni11 Si4 2.333192 1_555
Ni11 Si4 2.333192 1_455
Ni11 Ni14 2.528934 1_555
Ni11 Ni16 2.680625 1_455
Ni11 Ni16 2.680625 1_555
Ni11 Ni5 2.896570 1_455
Ni11 Ni5 2.896570 1_555
Ni11 Y2 2.999985 1_455
Ni11 Y2 2.999985 1_555
Ni11 Y0 3.054994 1_555
Ni12 Si2 2.297092 1_555
Ni12 Si3 2.395460 1_555
Ni12 Si3 2.395460 1_655
Ni12 Si8 2.405033 1_555
Ni12 Ni18 2.509940 1_555
Ni12 Ni18 2.509940 1_655
Ni12 Ni13 2.586647 1_655
Ni12 Ni13 2.586647 1_555
Ni12 Ni6 2.674159 1_555
Ni12 Y0 3.186876 1_655
Ni12 Y0 3.186876 1_555
Ni12 Y1 3.249301 1_555
Ni13 Si3 2.297092 1_555
Ni13 Si2 2.395460 1_555
Ni13 Si2 2.395460 1_455
Ni13 Si9 2.405033 1_555
Ni13 Ni2 2.509940 1_555
Ni13 Ni2 2.509940 1_455
Ni13 Ni7 2.674159 1_555
Ni13 Y1 3.186876 1_455
Ni13 Y1 3.186876 1_555
Ni13 Y0 3.249301 1_555
Ni14 Si0 2.339950 1_555
Ni14 Si10 2.343036 1_565
Ni14 Si4 2.373579 1_455
Ni14 Si4 2.373579 1_555
Ni14 Ni9 2.680625 1_455
Ni14 Ni9 2.680625 1_555
Ni14 Ni5 2.696357 1_455
Ni14 Ni5 2.696357 1_555
Ni14 Y2 2.953349 1_465
Ni14 Y2 2.953349 1_565
Ni14 Y0 3.173155 1_555
Ni15 Si1 2.339950 1_555
Ni15 Si11 2.343036 1_545
Ni15 Si5 2.373579 1_555
Ni15 Si5 2.373579 1_655
Ni15 Ni8 2.680625 1_555
Ni15 Ni8 2.680625 1_655
Ni15 Ni4 2.696357 1_655
Ni15 Ni4 2.696357 1_555
Ni15 Y3 2.953349 1_545
Ni15 Y3 2.953349 1_645
Ni15 Y1 3.173155 1_555
Ni16 Si2 2.339950 1_555
Ni16 Si4 2.343036 1_555
Ni16 Si10 2.373579 1_555
Ni16 Si10 2.373579 1_655
Ni16 Ni9 2.528934 1_545
Ni16 Ni7 2.696357 1_555
Ni16 Ni7 2.696357 1_655
Ni16 Y0 2.953349 1_555
Ni16 Y0 2.953349 1_655
Ni16 Y2 3.173155 1_555
Ni17 Si3 2.339950 1_555
Ni17 Si5 2.343036 1_555
Ni17 Si11 2.373579 1_455
Ni17 Si11 2.373579 1_555
Ni17 Ni8 2.528934 1_565
Ni17 Ni6 2.696357 1_455
Ni17 Ni6 2.696357 1_555
Ni17 Y1 2.953349 1_455
Ni17 Y1 2.953349 1_555
Ni17 Y3 3.173155 1_555
Ni18 Si3 2.235005 1_555
Ni18 Si9 2.272729 1_565
Ni18 Si8 2.305299 1_555
Ni18 Si8 2.305299 1_455
Ni18 Ni2 2.481652 1_465
Ni18 Ni2 2.481652 1_565
Ni18 Ni7 2.516239 1_565
Ni18 Y0 2.947200 1_555
Ni19 Si1 2.297092 1_565
Ni19 Si0 2.395460 1_654
Ni19 Si0 2.395460 1_554
Ni19 Si7 2.405033 1_555
Ni19 Ni3 2.509940 1_655
Ni19 Ni3 2.509940 1_555
Ni19 Ni5 2.674159 1_554
Ni19 Y3 3.186876 1_555
Ni19 Y3 3.186876 1_655
Ni19 Y2 3.249301 1_564
