# generated using pymatgen
data_La2MgCuO4
_symmetry_space_group_name_H-M   'P 1'
_cell_length_a   4.10371374
_cell_length_b   4.10371374
_cell_length_c   8.03255144
_cell_angle_alpha   104.79981023
_cell_angle_beta   104.79981023
_cell_angle_gamma   90.00000000
_symmetry_Int_Tables_number   1
_chemical_formula_structural   La2MgCuO4
_chemical_formula_sum   'La2 Mg1 Cu1 O4'
_cell_volume   126.13684856
_cell_formula_units_Z   1
loop_
 _symmetry_equiv_pos_site_id
 _symmetry_equiv_pos_as_xyz
  1  'x, y, z'
loop_
 _atom_site_type_symbol
 _atom_site_label
 _atom_site_symmetry_multiplicity
 _atom_site_fract_x
 _atom_site_fract_y
 _atom_site_fract_z
 _atom_site_occupancy
  La  La0  1  0.63383323  0.63383323  0.26766646  1
  La  La1  1  0.40356233  0.40356233  0.80712467  1
  Mg  Mg0  1  0.20352186  0.20352186  0.40704273  1
  Cu  Cu0  1  0.02384052  0.02384052  0.04768104  1
  O  O0  1  0.47808829  0.97808829  0.95617657  1
  O  O1  1  0.97808829  0.47808829  0.95617657  1
  O  O2  1  0.22286624  0.72286624  0.44573248  1
  O  O3  1  0.72286624  0.22286624  0.44573248  1
loop_
_geom_bond_atom_site_label_1
_geom_bond_atom_site_label_2
_geom_bond_distance
_geom_bond_site_symmetry_2
La0 O2 2.447235 1_555
La0 O3 2.447235 1_555
La0 O2 2.447235 1_655
La0 O3 2.447235 1_565
La1 O0 2.335914 1_545
La1 O1 2.335914 1_455
La1 O0 2.335915 1_555
La1 O1 2.335915 1_555
Mg0 O3 2.072218 1_555
Mg0 O2 2.072218 1_555
Mg0 O3 2.072222 1_455
Mg0 O2 2.072222 1_545
Cu0 O0 2.163298 1_544
Cu0 O1 2.163298 1_454
Cu0 O1 2.163298 1_444
Cu0 O0 2.163298 1_444
Cu0 Mg0 2.691657 1_555
