# generated using pymatgen
data_MgFe2(BO3)2
_symmetry_space_group_name_H-M   'P 1'
_cell_length_a   5.44117627
_cell_length_b   9.27808950
_cell_length_c   5.53254651
_cell_angle_alpha   84.00547314
_cell_angle_beta   90.06256807
_cell_angle_gamma   28.34136533
_symmetry_Int_Tables_number   1
_chemical_formula_structural   MgFe2(BO3)2
_chemical_formula_sum   'Mg1 Fe2 B2 O6'
_cell_volume   129.28295134
_cell_formula_units_Z   1
loop_
 _symmetry_equiv_pos_site_id
 _symmetry_equiv_pos_as_xyz
  1  'x, y, z'
loop_
 _atom_site_type_symbol
 _atom_site_label
 _atom_site_symmetry_multiplicity
 _atom_site_fract_x
 _atom_site_fract_y
 _atom_site_fract_z
 _atom_site_occupancy
  Mg  Mg0  1  0.50000000  0.00000000  0.50000000  1
  Fe  Fe0  1  -0.00000000  0.00000000  0.50000000  1
  Fe  Fe1  1  -0.00000000  0.00000000  0.00000000  1
  B  B0  1  0.96780154  0.35472473  0.75865724  1
  B  B1  1  0.03219846  0.64527527  0.24134276  1
  O  O0  1  0.98789659  0.19714661  0.71607700  1
  O  O1  1  0.01210341  0.80285339  0.28392300  1
  O  O2  1  0.41892532  0.19843565  0.71519812  1
  O  O3  1  0.53168604  0.64502586  0.80535562  1
  O  O4  1  0.46831396  0.35497414  0.19464438  1
  O  O5  1  0.58107468  0.80156435  0.28480188  1
loop_
_geom_bond_atom_site_label_1
_geom_bond_atom_site_label_2
_geom_bond_distance
_geom_bond_site_symmetry_2
Mg0 O5 2.007759 1_545
Mg0 O2 2.007759 1_555
Mg0 O0 2.007834 1_455
Mg0 O1 2.007834 1_645
Fe0 O4 2.031204 1_455
Fe0 O3 2.031204 1_545
Fe0 O2 2.241230 1_455
Fe0 O5 2.241230 1_545
Fe0 O1 2.241443 1_545
Fe0 O0 2.241443 1_455
Fe1 O3 2.086098 1_544
Fe1 O4 2.086098 1_455
Fe1 O0 2.237224 1_454
Fe1 O1 2.237224 1_545
Fe1 O2 2.237299 1_454
Fe1 O5 2.237299 1_545
B0 O3 1.359545 1_555
B0 O2 1.412231 1_655
B0 O0 1.412645 1_555
B1 O4 1.359545 1_555
B1 O5 1.412231 1_455
B1 O1 1.412645 1_555
