# generated using pymatgen
data_MgMn5O7F
_symmetry_space_group_name_H-M   'P 1'
_cell_length_a   6.03778551
_cell_length_b   6.29035279
_cell_length_c   6.04309471
_cell_angle_alpha   61.69071439
_cell_angle_beta   116.83680673
_cell_angle_gamma   118.24956219
_symmetry_Int_Tables_number   1
_chemical_formula_structural   MgMn5O7F
_chemical_formula_sum   'Mg1 Mn5 O7 F1'
_cell_volume   170.20353055
_cell_formula_units_Z   1
loop_
 _symmetry_equiv_pos_site_id
 _symmetry_equiv_pos_as_xyz
  1  'x, y, z'
loop_
 _atom_site_type_symbol
 _atom_site_label
 _atom_site_symmetry_multiplicity
 _atom_site_fract_x
 _atom_site_fract_y
 _atom_site_fract_z
 _atom_site_occupancy
  Mg  Mg0  1  0.85415200  0.50240700  0.14563400  1
  Mn  Mn0  1  0.87720800  0.63958100  0.62298000  1
  Mn  Mn1  1  0.38187400  0.63392600  0.61808700  1
  Mn  Mn2  1  0.99858100  0.05544200  0.00145700  1
  Mn  Mn3  1  0.37703300  0.63953500  0.12294000  1
  Mn  Mn4  1  0.35582200  0.11515000  0.64419100  1
  O  O0  1  0.60682700  0.80559600  0.39309500  1
  O  O1  1  0.59647000  0.84635300  0.88778300  1
  O  O2  1  0.63012100  0.40147000  0.82884000  1
  O  O3  1  0.11286100  0.84611400  0.40383600  1
  O  O4  1  0.09675900  0.84048500  0.90308300  1
  O  O5  1  0.14975700  0.44806600  0.85030800  1
  O  O6  1  0.17083500  0.40102900  0.36933100  1
  F  F0  1  0.63356000  0.36840100  0.36657400  1
loop_
_geom_bond_atom_site_label_1
_geom_bond_atom_site_label_2
_geom_bond_distance
_geom_bond_site_symmetry_2
Mg0 O6 1.973043 1_655
Mg0 O2 1.974732 1_554
Mg0 O4 2.202257 1_654
Mn0 O3 1.945687 1_655
Mn0 O2 1.951885 1_555
Mn0 O0 1.968675 1_555
Mn0 O5 2.076608 1_655
Mn0 O4 2.153280 1_655
Mn1 O0 1.935438 1_555
Mn1 O5 1.992218 1_555
Mn1 O2 2.142791 1_555
Mn1 O3 2.147188 1_555
Mn1 O6 2.149846 1_555
Mn1 O1 2.154192 1_555
Mn2 O5 2.060647 1_654
Mn2 O4 2.091041 1_644
Mn2 O1 2.103459 1_544
Mn2 O3 2.105000 1_645
Mn3 O1 1.944786 1_554
Mn3 O6 1.950566 1_555
Mn3 O0 1.970229 1_555
Mn3 O5 2.079484 1_554
Mn3 O4 2.151438 1_554
Mn4 O6 2.152554 1_555
Mn4 O2 2.155389 1_555
Mn4 O4 2.228664 1_545
Mn4 O1 2.273920 1_545
Mn4 O3 2.276655 1_545
F0 Mg0 1.934555 1_555
F0 Mn3 2.352759 1_555
F0 Mn0 2.355455 1_555
F0 Mn4 2.375055 1_555
