# generated using pymatgen
data_MgMoW2(Se2S)2
_symmetry_space_group_name_H-M   'P 1'
_cell_length_a   3.27938687
_cell_length_b   3.27939025
_cell_length_c   37.17536841
_cell_angle_alpha   88.26038508
_cell_angle_beta   91.73308824
_cell_angle_gamma   120.01771991
_symmetry_Int_Tables_number   1
_chemical_formula_structural   MgMoW2(Se2S)2
_chemical_formula_sum   'Mg1 Mo1 W2 Se4 S2'
_cell_volume   345.96180531
_cell_formula_units_Z   1
loop_
 _symmetry_equiv_pos_site_id
 _symmetry_equiv_pos_as_xyz
  1  'x, y, z'
loop_
 _atom_site_type_symbol
 _atom_site_label
 _atom_site_symmetry_multiplicity
 _atom_site_fract_x
 _atom_site_fract_y
 _atom_site_fract_z
 _atom_site_occupancy
  Mg  Mg0  1  0.66915600  0.33092500  0.23252500  1
  Mo  Mo0  1  0.33339600  0.66642200  0.10971100  1
  W  W0  1  0.33425700  0.66559000  0.57819600  1
  W  W1  1  0.65550600  0.34474200  0.35771600  1
  Se  Se0  1  0.65638500  0.34353700  0.06425400  1
  Se  Se1  1  0.65738100  0.34259800  0.53242400  1
  Se  Se2  1  0.67720800  0.32247900  0.15531800  1
  Se  Se3  1  0.67794300  0.32179800  0.62395200  1
  S  S0  1  0.33180800  0.66834900  0.39904500  1
  S  S1  1  0.31244800  0.68787300  0.31622700  1
loop_
_geom_bond_atom_site_label_1
_geom_bond_atom_site_label_2
_geom_bond_distance
_geom_bond_site_symmetry_2
Mg0 Se2 2.872220 1_555
Mo0 Se0 2.536835 1_565
Mo0 Se0 2.536862 1_455
Mo0 Se0 2.537297 1_555
Mo0 Se2 2.540355 1_565
Mo0 Se2 2.540382 1_455
Mo0 Se2 2.541396 1_555
Se1 W0 2.544231 1_655
Se1 W0 2.544262 1_545
Se1 W0 2.545918 1_555
Se3 W0 2.544361 1_555
Se3 W0 2.544415 1_655
Se3 W0 2.544442 1_545
S0 W1 2.436891 1_555
S0 W1 2.437927 1_565
S0 W1 2.437960 1_455
S1 W1 2.440594 1_455
S1 W1 2.440671 1_565
S1 W1 2.442759 1_555
