# generated using pymatgen
data_Ba2YbMgBiO6
_symmetry_space_group_name_H-M   'P 1'
_cell_length_a   10.03163867
_cell_length_b   7.40323060
_cell_length_c   5.78886169
_cell_angle_alpha   130.00389365
_cell_angle_beta   141.74335004
_cell_angle_gamma   46.82847904
_symmetry_Int_Tables_number   1
_chemical_formula_structural   Ba2YbMgBiO6
_chemical_formula_sum   'Ba2 Yb1 Mg1 Bi1 O6'
_cell_volume   188.75990939
_cell_formula_units_Z   1
loop_
 _symmetry_equiv_pos_site_id
 _symmetry_equiv_pos_as_xyz
  1  'x, y, z'
loop_
 _atom_site_type_symbol
 _atom_site_label
 _atom_site_symmetry_multiplicity
 _atom_site_fract_x
 _atom_site_fract_y
 _atom_site_fract_z
 _atom_site_occupancy
  Ba  Ba0  1  0.39258068  0.80372050  0.89727591  1
  Ba  Ba1  1  0.60741932  0.19627950  0.10272409  1
  Yb  Yb0  1  0.00000000  0.50000000  -0.00000000  1
  Mg  Mg0  1  0.00000000  0.50000000  0.50000000  1
  Bi  Bi0  1  0.00000000  -0.00000000  -0.00000000  1
  O  O0  1  0.76317957  0.79231260  0.64359252  1
  O  O1  1  0.24839836  0.60501554  0.12644008  1
  O  O2  1  0.97110679  0.79559413  0.46729457  1
  O  O3  1  0.23682043  0.20768740  0.35640748  1
  O  O4  1  0.75160164  0.39498446  0.87355992  1
  O  O5  1  0.02889321  0.20440587  0.53270543  1
loop_
_geom_bond_atom_site_label_1
_geom_bond_atom_site_label_2
_geom_bond_distance
_geom_bond_site_symmetry_2
Ba0 O0 2.703407 1_556
Ba0 O4 2.734272 1_555
Ba0 O2 2.775498 1_455
Ba0 O5 2.776941 1_565
Ba0 O3 2.891023 1_566
Ba0 O1 2.916099 1_555
Ba1 O3 2.703407 1_554
Ba1 O1 2.734272 1_555
Ba1 O5 2.775498 1_655
Ba1 O2 2.776941 1_545
Ba1 O0 2.891023 1_544
Ba1 O4 2.916099 1_555
Mg0 O2 2.118324 1_455
Mg0 O5 2.118324 1_555
Mg0 O0 2.184414 1_455
Mg0 O3 2.184414 1_555
Mg0 O4 2.190655 1_454
Mg0 O1 2.190655 1_556
Bi0 O5 2.253958 1_555
Bi0 O2 2.253958 1_444
Bi0 O4 2.283072 1_454
Bi0 O1 2.283072 1_545
Bi0 O0 2.342392 1_444
Bi0 O3 2.342392 1_555
O0 Yb0 2.364627 1_656
O1 Yb0 2.530686 1_555
O2 Yb0 2.223297 1_655
O3 Yb0 2.364627 1_555
O4 Yb0 2.530686 1_656
O5 Yb0 2.223297 1_556
