# generated using pymatgen
data_Na4Zr2In2Si3(SO8)3
_symmetry_space_group_name_H-M   'P 1'
_cell_length_a   9.10321310
_cell_length_b   9.09991049
_cell_length_c   23.22803791
_cell_angle_alpha   90.17194270
_cell_angle_beta   89.15221774
_cell_angle_gamma   119.83954965
_symmetry_Int_Tables_number   1
_chemical_formula_structural   Na4Zr2In2Si3(SO8)3
_chemical_formula_sum   'Na12 Zr6 In6 Si9 S9 O72'
_cell_volume   1668.86748992
_cell_formula_units_Z   3
loop_
 _symmetry_equiv_pos_site_id
 _symmetry_equiv_pos_as_xyz
  1  'x, y, z'
loop_
 _atom_site_type_symbol
 _atom_site_label
 _atom_site_symmetry_multiplicity
 _atom_site_fract_x
 _atom_site_fract_y
 _atom_site_fract_z
 _atom_site_occupancy
  Na  Na0  1  0.99164466  0.64458383  0.25436334  1
  Na  Na1  1  0.99341252  0.35274297  0.73835918  1
  Na  Na2  1  0.66071911  0.97868466  0.59210146  1
  Na  Na3  1  0.66895941  0.69765800  0.08023370  1
  Na  Na4  1  0.33741208  0.30916277  0.90068876  1
  Na  Na5  1  0.31799442  0.01920038  0.42242288  1
  Na  Na6  1  0.01304696  0.99420107  0.50338089  1
  Na  Na7  1  0.98294889  0.97446513  0.99330875  1
  Na  Na8  1  0.65203854  0.32190772  0.81763397  1
  Na  Na9  1  0.65977344  0.34865709  0.33095566  1
  Na  Na10  1  0.33095898  0.67873412  0.16984106  1
  Na  Na11  1  0.32434998  0.66846711  0.65721792  1
  Zr  Zr0  1  0.01417158  0.01665584  0.64689143  1
  Zr  Zr1  1  0.00023938  0.98306695  0.15108577  1
  Zr  Zr2  1  0.67866309  0.35033419  0.97994940  1
  Zr  Zr3  1  0.67972866  0.33785509  0.48495988  1
  Zr  Zr4  1  0.33323723  0.67177867  0.31285938  1
  Zr  Zr5  1  0.35538195  0.67273303  0.80937811  1
  In  In0  1  0.00163087  0.98628348  0.34855151  1
  In  In1  1  0.98588906  0.99044961  0.84565599  1
  In  In2  1  0.64876489  0.31631956  0.68289265  1
  In  In3  1  0.66894917  0.33661975  0.18669077  1
  In  In4  1  0.33294009  0.67577854  0.01605695  1
  In  In5  1  0.30236622  0.65426687  0.51944348  1
  Si  Si0  1  0.30415945  0.00591732  0.25260983  1
  Si  Si1  1  0.69836237  0.70089949  0.24916436  1
  Si  Si2  1  0.29671092  0.28965078  0.75522530  1
  Si  Si3  1  0.71100810  0.00720540  0.74820349  1
  Si  Si4  1  0.96330888  0.33501062  0.58876513  1
  Si  Si5  1  0.36983042  0.03390951  0.57865497  1
  Si  Si6  1  0.96950436  0.62777415  0.08547167  1
  Si  Si7  1  0.63226838  0.67646797  0.92052235  1
  Si  Si8  1  0.03037161  0.66615219  0.41431733  1
  S  S0  1  0.00372047  0.29026834  0.25085908  1
  S  S1  1  0.00154164  0.70295492  0.75133048  1
  S  S2  1  0.66734042  0.62897201  0.58361212  1
  S  S3  1  0.66996308  0.04253171  0.08302417  1
  S  S4  1  0.36958720  0.33129989  0.08191695  1
  S  S5  1  0.04064539  0.37315190  0.91764329  1
  S  S6  1  0.33227445  0.96556907  0.91768408  1
  S  S7  1  0.62873063  0.96006058  0.41661579  1
  S  S8  1  0.33257788  0.37351638  0.41628727  1
  O  O0  1  0.23373461  0.04104358  0.31232141  1
  O  O1  1  0.82251997  0.79338644  0.30195173  1
  O  O2  1  0.98438444  0.19392600  0.30354798  1
  O  O3  1  0.22028003  0.18661457  0.81609580  1
  O  O4  1  0.97964826  0.77447414  0.80625005  1
  O  O5  1  0.81995482  0.03717734  0.80585239  1
  O  O6  1  0.79534341  0.97249626  0.69069137  1
  O  O7  1  0.16777512  0.19090760  0.70189031  1
  O  O8  1  0.02604532  0.81158981  0.70112214  1
  O  O9  1  0.78526191  0.81448032  0.18857918  1
  O  O10  1  0.01974944  0.20505172  0.19824507  1
  O  O11  1  0.16925048  0.97319099  0.19894574  1
  O  O12  1  0.88330184  0.36503700  0.64706056  1
  O  O13  1  0.48949797  0.11979825  0.63329634  1
  O  O14  1  0.64267651  0.53152956  0.63615359  1
  O  O15  1  0.88428424  0.52039891  0.14369226  1
  O  O16  1  0.64786164  0.11913857  0.13529116  1
  O  O17  1  0.47589556  0.35369940  0.13198782  1
  O  O18  1  0.44955380  0.30672467  0.02823239  1
  O  O19  1  0.83748446  0.52701229  0.03087598  1
  O  O20  1  0.67596454  0.13990304  0.03054326  1
  O  O21  1  0.45497902  0.14856214  0.51880138  1
  O  O22  1  0.68709433  0.54113224  0.53153738  1
  O  O23  1  0.84005609  0.31459209  0.53328414  1
  O  O24  1  0.55155784  0.69425062  0.98210121  1
  O  O25  1  0.14246254  0.45802855  0.96892467  1
  O  O26  1  0.30643273  0.86741327  0.97131997  1
  O  O27  1  0.55783307  0.86079510  0.47001441  1
  O  O28  1  0.32466450  0.45790532  0.46943804  1
  O  O29  1  0.16343849  0.70888255  0.46588764  1
  O  O30  1  0.12209306  0.64449888  0.35458821  1
  O  O31  1  0.51613811  0.86602198  0.36653699  1
  O  O32  1  0.35006662  0.47886626  0.36452781  1
  O  O33  1  0.11315123  0.47492029  0.86499729  1
  O  O34  1  0.34873555  0.87744740  0.86679526  1
  O  O35  1  0.49798933  0.64025857  0.86812639  1
  O  O36  1  0.01897546  0.84169689  0.41475198  1
  O  O37  1  0.80263708  0.99561019  0.40760577  1
  O  O38  1  0.17646339  0.20443571  0.41326605  1
  O  O39  1  0.02969946  0.20520212  0.91526761  1
  O  O40  1  0.18776746  0.99707721  0.91433282  1
  O  O41  1  0.82407146  0.83303188  0.91351291  1
  O  O42  1  0.95941625  0.15047229  0.58860892  1
  O  O43  1  0.17826487  0.00624873  0.58714603  1
  O  O44  1  0.82477814  0.79848133  0.58613418  1
  O  O45  1  0.97138429  0.81284825  0.08630191  1
  O  O46  1  0.82892878  0.03164813  0.08390299  1
  O  O47  1  0.19732393  0.18207793  0.08722291  1
  O  O48  1  0.69635742  0.17751922  0.74649337  1
  O  O49  1  0.49007541  0.33480867  0.74653718  1
  O  O50  1  0.85372894  0.53157297  0.74603144  1
  O  O51  1  0.69657064  0.52096919  0.24569412  1
  O  O52  1  0.85682086  0.31805423  0.24703364  1
  O  O53  1  0.49375618  0.15682565  0.24083105  1
  O  O54  1  0.63240850  0.49080056  0.92501233  1
  O  O55  1  0.86476850  0.34683516  0.92502537  1
  O  O56  1  0.49085656  0.13594718  0.92222764  1
  O  O57  1  0.62612697  0.12445879  0.41888160  1
  O  O58  1  0.48330739  0.34887492  0.41701265  1
  O  O59  1  0.84261933  0.49431592  0.42107901  1
  O  O60  1  0.36114609  0.48995732  0.07760764  1
  O  O61  1  0.15845625  0.65395232  0.07716188  1
  O  O62  1  0.52380190  0.86447461  0.08060510  1
  O  O63  1  0.37378490  0.85555668  0.57539756  1
  O  O64  1  0.52210596  0.65683658  0.57554650  1
  O  O65  1  0.15700334  0.48548769  0.58246080  1
  O  O66  1  0.29770861  0.81962678  0.25454571  1
  O  O67  1  0.50908475  0.67756019  0.25500637  1
  O  O68  1  0.16066699  0.46225261  0.25295186  1
  O  O69  1  0.28920772  0.46968782  0.76036570  1
  O  O70  1  0.15589159  0.68387839  0.75640470  1
  O  O71  1  0.51974692  0.83784149  0.75569483  1
loop_
_geom_bond_atom_site_label_1
_geom_bond_atom_site_label_2
_geom_bond_distance
_geom_bond_site_symmetry_2
Na0 O51 2.351362 1_555
Na0 O66 2.425660 1_655
Na0 O52 2.595854 1_555
Na0 O30 2.629182 1_655
Na0 O1 2.727820 1_555
Na0 O68 2.767698 1_655
Na0 O15 2.792563 1_555
Na0 O11 2.891915 1_655
Na1 O48 2.363565 1_555
Na1 O12 2.385473 1_555
Na1 O69 2.414581 1_655
Na1 O50 2.519455 1_555
Na1 O70 2.649312 1_655
Na1 O7 2.772128 1_655
Na1 O5 2.939171 1_555
Na2 O63 2.311615 1_555
Na2 O42 2.368140 1_565
Na2 O64 2.578332 1_555
Na2 O6 2.627144 1_555
Na2 O13 2.633305 1_565
Na2 O44 2.714472 1_555
Na2 O23 2.977979 1_565
Na2 O27 3.021677 1_555
Na3 O45 2.415919 1_555
Na3 O62 2.458922 1_555
Na3 O60 2.482279 1_555
Na3 O24 2.525394 1_554
Na3 O46 2.638713 1_565
Na3 O9 2.743596 1_555
Na3 O19 2.896083 1_555
Na3 O17 2.969279 1_555
Na4 O3 2.259877 1_555
Na4 O54 2.425872 1_555
Na4 O40 2.482775 1_545
Na4 O39 2.488562 1_555
Na4 O56 2.627261 1_555
Na4 O35 2.717496 1_555
Na5 O36 2.384839 1_545
Na5 O57 2.472281 1_555
Na5 O21 2.560945 1_555
Na5 O38 2.591904 1_555
Na5 O58 2.604695 1_555
Na5 O29 2.644682 1_545
Na5 O0 2.716833 1_555
Na6 O43 2.445619 1_565
Na6 O36 2.494208 1_555
Na6 O44 2.586437 1_455
Na6 O42 2.612492 1_465
Na6 O38 2.711860 1_565
Na6 O37 2.961216 1_455
Na7 O41 2.322994 1_555
Na7 O40 2.530457 1_655
Na7 O45 2.588071 1_556
Na7 O39 2.643218 1_665
Na7 O46 2.701287 1_566
Na7 O47 2.927215 1_666
Na8 O48 2.261533 1_555
Na8 O49 2.271631 1_555
Na8 O50 2.494007 1_555
Na8 O56 2.892628 1_555
Na8 O54 2.975250 1_555
Na9 O51 2.443243 1_555
Na9 O58 2.546451 1_555
Na9 O59 2.607798 1_555
Na9 O53 2.675818 1_555
Na9 O52 2.735957 1_555
Na9 O57 2.794994 1_555
Na10 O66 2.441311 1_555
Na10 O67 2.579745 1_555
Na10 O61 2.625997 1_555
Na10 O68 2.627920 1_555
Na10 O62 2.682458 1_555
Na10 O60 2.836666 1_555
Na11 O65 2.375966 1_555
Na11 O63 2.438174 1_555
Na11 O64 2.634042 1_555
Na11 O70 2.790498 1_555
Na11 O71 2.853560 1_555
Na11 O69 2.922716 1_555
In0 O1 2.025835 1_455
In0 O0 2.079174 1_565
In0 O36 2.084866 1_555
In0 O2 2.235986 1_465
In0 O37 2.291079 1_455
In0 O38 2.375335 1_565
In1 O5 2.000053 1_565
In1 O3 2.093881 1_665
In1 O41 2.133360 1_555
In1 O4 2.140865 1_555
In1 O39 2.411864 1_665
In1 O40 2.429313 1_655
In2 O13 2.020933 1_555
In2 O12 2.110777 1_555
In2 O49 2.116080 1_555
In2 O48 2.130780 1_555
In2 O14 2.267063 1_555
In2 O50 2.428120 1_555
In3 O53 2.039156 1_555
In3 O15 2.080065 1_555
In3 O51 2.081450 1_555
In3 O16 2.234611 1_555
In3 O17 2.250834 1_555
In3 O52 2.297380 1_555
In4 O61 2.048885 1_555
In4 O24 2.057274 1_554
In4 O26 2.148525 1_554
In4 O25 2.180717 1_554
In4 O62 2.303894 1_555
In4 O60 2.329539 1_555
In5 O29 2.017359 1_555
In5 O65 2.046030 1_555
In5 O63 2.071890 1_555
In5 O28 2.219185 1_555
In5 O64 2.393854 1_555
In5 O27 2.417252 1_555
O0 Si0 1.616121 1_555
O1 Si1 1.605427 1_555
O2 S0 1.464215 1_655
O3 Si2 1.640729 1_555
O4 S1 1.485665 1_655
O5 Si3 1.618339 1_555
O6 Si3 1.637741 1_565
O6 Zr0 2.076210 1_665
O7 Si2 1.645187 1_555
O7 Zr0 1.983899 1_555
O8 S1 1.472047 1_555
O8 Zr0 2.302083 1_565
O9 Si1 1.684225 1_555
O9 Zr1 1.977800 1_655
O10 S0 1.489245 1_555
O10 Zr1 2.224298 1_545
O11 Si0 1.682211 1_565
O11 Zr1 1.949325 1_555
O12 Si4 1.614094 1_555
O13 Si5 1.611255 1_555
O14 S2 1.458220 1_555
O15 Si6 1.614919 1_555
O16 S3 1.458649 1_555
O17 S4 1.471851 1_555
O18 S4 1.506111 1_555
O18 Zr2 2.207928 1_554
O19 Si6 1.683686 1_555
O19 Zr2 1.949485 1_554
O20 S3 1.493477 1_555
O20 Zr2 2.239283 1_554
O21 Si5 1.671606 1_555
O21 Zr3 2.055328 1_555
O22 S2 1.505055 1_555
O22 Zr3 2.112698 1_555
O23 Si4 1.669753 1_555
O23 Zr3 1.947373 1_555
O24 Si7 1.642484 1_555
O25 S5 1.479611 1_555
O26 S6 1.481292 1_555
O27 S7 1.474392 1_555
O28 S8 1.471681 1_555
O29 Si8 1.620140 1_555
O30 Si8 1.669922 1_555
O30 Zr4 2.041333 1_555
O31 S7 1.514068 1_555
O31 Zr4 2.137900 1_555
O32 S8 1.496405 1_555
O32 Zr4 2.198022 1_555
O33 S5 1.470817 1_555
O33 Zr5 2.398193 1_555
O34 S6 1.473561 1_555
O34 Zr5 2.312483 1_555
O35 Si7 1.650692 1_555
O35 Zr5 2.017766 1_555
O36 Si8 1.651506 1_555
O37 S7 1.461382 1_555
O38 S8 1.489376 1_555
O39 S5 1.482184 1_555
O40 S6 1.482316 1_555
O41 Si7 1.619381 1_555
O42 Si4 1.661929 1_555
O42 Zr0 2.048882 1_655
O43 Si5 1.642137 1_555
O43 Zr0 2.060311 1_555
O44 S2 1.496256 1_555
O44 Zr0 2.356843 1_665
O45 Si6 1.675764 1_555
O45 Zr1 2.079797 1_655
O46 S3 1.499277 1_555
O46 Zr1 2.413477 1_645
O47 S4 1.481355 1_555
O47 Zr1 2.324439 1_545
O48 Si3 1.620985 1_555
O49 Si2 1.605674 1_555
O50 S1 1.474237 1_655
O51 Si1 1.631057 1_555
O52 S0 1.483315 1_655
O53 Si0 1.602867 1_555
O54 Si7 1.693720 1_555
O54 Zr2 2.000212 1_555
O55 S5 1.503550 1_655
O55 Zr2 2.118553 1_555
O56 S6 1.508358 1_545
O56 Zr2 2.293365 1_555
O57 S7 1.508692 1_545
O57 Zr3 2.329415 1_555
O58 S8 1.496722 1_555
O58 Zr3 2.441536 1_555
O59 Si8 1.650732 1_655
O59 Zr3 2.067431 1_555
O60 S4 1.487242 1_555
O61 Si6 1.623370 1_455
O62 S3 1.501708 1_565
O63 Si5 1.642698 1_565
O64 S2 1.479382 1_555
O65 Si4 1.611320 1_455
O66 Si0 1.667507 1_565
O66 Zr4 2.050938 1_555
O67 Si1 1.631396 1_555
O67 Zr4 2.055248 1_555
O68 S0 1.506454 1_555
O68 Zr4 2.260011 1_555
O69 Si2 1.677189 1_555
O69 Zr5 1.993232 1_555
O70 S1 1.505335 1_555
O70 Zr5 2.252192 1_555
O71 Si3 1.661105 1_565
O71 Zr5 1.941638 1_555
