# generated using pymatgen
data_InCuTe2
_symmetry_space_group_name_H-M   'P 1'
_cell_length_a   6.23263619
_cell_length_b   6.23263478
_cell_length_c   7.64406600
_cell_angle_alpha   114.05905048
_cell_angle_beta   114.05905053
_cell_angle_gamma   90.00000475
_symmetry_Int_Tables_number   1
_chemical_formula_structural   InCuTe2
_chemical_formula_sum   'In2 Cu2 Te4'
_cell_volume   242.61921102
_cell_formula_units_Z   2
loop_
 _symmetry_equiv_pos_site_id
 _symmetry_equiv_pos_as_xyz
  1  'x, y, z'
loop_
 _atom_site_type_symbol
 _atom_site_label
 _atom_site_symmetry_multiplicity
 _atom_site_fract_x
 _atom_site_fract_y
 _atom_site_fract_z
 _atom_site_occupancy
  In  In0  1  0.50000000  0.50000000  0.00000000  1
  In  In1  1  0.75000000  0.25000000  0.50000000  1
  Cu  Cu0  1  0.00000000  0.00000000  0.00000000  1
  Cu  Cu1  1  0.25000000  0.75000000  0.50000000  1
  Te  Te0  1  0.34096096  0.37500000  0.25000000  1
  Te  Te1  1  0.12500000  0.65903904  0.75000000  1
  Te  Te2  1  0.62500000  0.09096096  0.75000000  1
  Te  Te3  1  0.90903904  0.87500000  0.25000000  1
loop_
_geom_bond_atom_site_label_1
_geom_bond_atom_site_label_2
_geom_bond_distance
_geom_bond_site_symmetry_2
In0 Te0 2.828412 1_555
In0 Te2 2.828413 1_554
In0 Te3 2.828413 1_555
In0 Te1 2.828413 1_554
In1 Te2 2.828412 1_555
In1 Te1 2.828413 1_655
In1 Te3 2.828413 1_545
In1 Te0 2.828413 1_555
Cu0 Te3 2.584114 1_445
Cu0 Te1 2.584114 1_544
Cu0 Te0 2.584114 1_555
Cu0 Te2 2.584114 1_454
Cu1 Te1 2.584114 1_555
Cu1 Te0 2.584114 1_555
Cu1 Te2 2.584114 1_565
Cu1 Te3 2.584114 1_455
