# generated using pymatgen
data_MgTi8(NiO3)8
_symmetry_space_group_name_H-M   'P 1'
_cell_length_a   5.54433895
_cell_length_b   11.27595712
_cell_length_c   11.30603108
_cell_angle_alpha   54.24384608
_cell_angle_beta   53.99228933
_cell_angle_gamma   54.96570420
_symmetry_Int_Tables_number   1
_chemical_formula_structural   MgTi8(NiO3)8
_chemical_formula_sum   'Mg1 Ti8 Ni8 O24'
_cell_volume   434.45143533
_cell_formula_units_Z   1
loop_
 _symmetry_equiv_pos_site_id
 _symmetry_equiv_pos_as_xyz
  1  'x, y, z'
loop_
 _atom_site_type_symbol
 _atom_site_label
 _atom_site_symmetry_multiplicity
 _atom_site_fract_x
 _atom_site_fract_y
 _atom_site_fract_z
 _atom_site_occupancy
  Mg  Mg0  1  0.32003700  0.84987300  0.52321200  1
  Ti  Ti0  1  0.34513300  0.18383300  0.17438200  1
  Ti  Ti1  1  0.15137000  0.08908500  0.58922900  1
  Ti  Ti2  1  0.13949000  0.58944500  0.07136600  1
  Ti  Ti3  1  0.11966200  0.57572100  0.57276600  1
  Ti  Ti4  1  0.83766900  0.42185100  0.43619800  1
  Ti  Ti5  1  0.84941400  0.43323900  0.93510900  1
  Ti  Ti6  1  0.86480500  0.93289100  0.39076100  1
  Ti  Ti7  1  0.81421300  0.93369700  0.92937300  1
  Ni  Ni0  1  0.14049500  0.08122000  0.06660100  1
  Ni  Ni1  1  0.34900400  0.67454800  0.17925400  1
  Ni  Ni2  1  0.36657900  0.18020600  0.67851400  1
  Ni  Ni3  1  0.64839800  0.32568700  0.32883300  1
  Ni  Ni4  1  0.38254900  0.59650400  0.72551900  1
  Ni  Ni5  1  0.66432400  0.31381300  0.82958000  1
  Ni  Ni6  1  0.69996300  0.81216700  0.25354800  1
  Ni  Ni7  1  0.64399500  0.83175500  0.81560500  1
  O  O0  1  0.07293700  0.37163300  0.21482300  1
  O  O1  1  0.41264000  0.04635500  0.37798900  1
  O  O2  1  0.72048600  0.22433100  0.03987700  1
  O  O3  1  0.22812100  0.28605500  0.47797400  1
  O  O4  1  0.57890700  0.47542100  0.11808700  1
  O  O5  1  0.04447400  0.38327000  0.72650200  1
  O  O6  1  0.03320900  0.87871500  0.22116000  1
  O  O7  1  0.95083400  0.11647800  0.28300000  1
  O  O8  1  0.45660800  0.02409900  0.87413300  1
  O  O9  1  0.43386300  0.52402600  0.38779200  1
  O  O10  1  0.77899100  0.22188300  0.52539600  1
  O  O11  1  0.76200200  0.72365700  0.02728000  1
  O  O12  1  0.22607600  0.28883800  0.97781900  1
  O  O13  1  0.21921600  0.77960600  0.44675500  1
  O  O14  1  0.55917600  0.46246800  0.61469100  1
  O  O15  1  0.55198700  0.00444900  0.09588400  1
  O  O16  1  0.03922700  0.90528900  0.70901700  1
  O  O17  1  0.95605400  0.11516500  0.78451100  1
  O  O18  1  0.97600500  0.59328100  0.28192000  1
  O  O19  1  0.44368100  0.51982300  0.91022000  1
  O  O20  1  0.74347800  0.70860500  0.54194100  1
  O  O21  1  0.22547300  0.78055000  0.97056900  1
  O  O22  1  0.57007800  0.97220300  0.60123500  1
  O  O23  1  0.94130900  0.61648300  0.77968400  1
loop_
_geom_bond_atom_site_label_1
_geom_bond_atom_site_label_2
_geom_bond_distance
_geom_bond_site_symmetry_2
Mg0 O13 1.888005 1_555
Mg0 O16 1.949098 1_555
Mg0 O1 1.982816 1_565
Mg0 O20 1.997644 1_555
Ni0 O2 2.015210 1_455
Ni0 O8 2.019762 1_554
Ni0 O6 2.072574 1_545
Ni0 O15 2.085579 1_555
Ni0 O12 2.163906 1_554
Ni0 O7 2.209416 1_455
Ni1 O11 2.054255 1_555
Ni1 O6 2.064340 1_555
Ni1 O9 2.090875 1_555
Ni1 O18 2.138713 1_455
Ni1 O4 2.153326 1_555
Ni1 O21 2.264690 1_554
Ni2 O8 1.994646 1_555
Ni2 O10 2.018618 1_555
Ni2 O5 2.084293 1_555
Ni2 O17 2.199287 1_455
Ni2 O3 2.233042 1_555
Ni2 O22 2.394781 1_545
Ni3 O3 2.041505 1_555
Ni3 O4 2.075427 1_555
Ni3 O7 2.123817 1_555
Ni3 O0 2.126622 1_655
Ni3 O9 2.148648 1_555
Ni3 O10 2.170725 1_555
Ni4 O19 1.899684 1_555
Ni4 O14 1.970913 1_555
Ni4 O23 2.043902 1_455
Ni4 O20 2.205611 1_555
Ni5 O17 2.024424 1_555
Ni5 O12 2.058644 1_555
Ni5 O5 2.086707 1_655
Ni5 O2 2.115239 1_556
Ni5 O14 2.199154 1_555
Ni5 O19 2.371696 1_555
Ni6 O15 1.926650 1_565
Ni6 O18 1.962646 1_555
Ni6 O6 2.141521 1_655
Ni6 O13 2.313297 1_555
Ni7 O21 2.088844 1_555
Ni7 O22 2.118290 1_555
Ni7 O8 2.122038 1_565
Ni7 O23 2.131980 1_555
Ni7 O16 2.180591 1_655
Ni7 O11 2.271018 1_556
O0 Ti0 1.903138 1_555
O0 Ti2 2.116677 1_555
O0 Ti4 2.292619 1_455
O1 Ti0 2.004690 1_555
O1 Ti6 2.114178 1_545
O1 Ti1 2.123710 1_555
O2 Ti0 1.846753 1_555
O2 Ti5 2.267130 1_554
O3 Ti4 1.950709 1_455
O3 Ti1 1.971560 1_555
O4 Ti5 1.854228 1_554
O4 Ti2 2.233962 1_555
O5 Ti3 1.919037 1_555
O5 Ti5 2.214506 1_455
O6 Ti6 1.879049 1_455
O7 Ti6 1.870858 1_545
O7 Ti0 2.126917 1_655
O8 Ti7 1.936918 1_545
O9 Ti3 1.929591 1_555
O9 Ti4 2.093216 1_555
O10 Ti1 1.991258 1_655
O10 Ti4 2.001524 1_555
O11 Ti2 1.904602 1_655
O11 Ti7 2.065175 1_554
O12 Ti5 1.899557 1_455
O12 Ti0 2.128097 1_556
O13 Ti6 1.879842 1_455
O13 Ti3 2.079494 1_555
O14 Ti4 1.808558 1_555
O14 Ti3 2.207120 1_555
O15 Ti7 1.870747 1_544
O15 Ti0 2.105265 1_555
O16 Ti1 1.930044 1_565
O16 Ti7 2.164534 1_455
O17 Ti1 1.927641 1_655
O17 Ti7 1.975966 1_545
O18 Ti4 1.885773 1_555
O18 Ti2 2.007149 1_655
O19 Ti2 1.821712 1_556
O19 Ti5 1.998587 1_555
O20 Ti3 1.836571 1_655
O20 Ti6 2.306409 1_555
O21 Ti2 1.959656 1_556
O21 Ti7 2.045988 1_455
O22 Ti1 1.947622 1_565
O22 Ti6 2.087676 1_555
O23 Ti5 1.878707 1_555
O23 Ti3 2.162589 1_655
