# generated using pymatgen
data_MgMn4ZnO8
_symmetry_space_group_name_H-M   'P 1'
_cell_length_a   6.03020106
_cell_length_b   6.07852343
_cell_length_c   6.07484489
_cell_angle_alpha   60.01746107
_cell_angle_beta   60.99908498
_cell_angle_gamma   60.07954599
_symmetry_Int_Tables_number   1
_chemical_formula_structural   MgMn4ZnO8
_chemical_formula_sum   'Mg1 Mn4 Zn1 O8'
_cell_volume   158.72485621
_cell_formula_units_Z   1
loop_
 _symmetry_equiv_pos_site_id
 _symmetry_equiv_pos_as_xyz
  1  'x, y, z'
loop_
 _atom_site_type_symbol
 _atom_site_label
 _atom_site_symmetry_multiplicity
 _atom_site_fract_x
 _atom_site_fract_y
 _atom_site_fract_z
 _atom_site_occupancy
  Mg  Mg0  1  0.14051908  0.13514995  0.11366407  1
  Mn  Mn0  1  0.50770381  0.01198863  0.51091434  1
  Mn  Mn1  1  0.01114878  0.51129677  0.51051356  1
  Mn  Mn2  1  0.50915413  0.50911235  0.01201071  1
  Mn  Mn3  1  0.87995709  0.88635711  0.90523980  1
  Zn  Zn0  1  0.51067708  0.50912907  0.50732292  1
  O  O0  1  0.76016020  0.30303225  0.76371204  1
  O  O1  1  0.26765672  0.26064574  0.71307615  1
  O  O2  1  0.25774909  0.72421014  0.25509310  1
  O  O3  1  0.73885154  0.29389164  0.24268318  1
  O  O4  1  0.30464317  0.25534922  0.24270370  1
  O  O5  1  0.71019572  0.76435284  0.77835968  1
  O  O6  1  0.28784893  0.72199767  0.77572112  1
  O  O7  1  0.74914965  0.75932361  0.31481764  1
loop_
_geom_bond_atom_site_label_1
_geom_bond_atom_site_label_2
_geom_bond_distance
_geom_bond_site_symmetry_2
Mg0 O3 1.998915 1_455
Mg0 O1 2.002661 1_554
Mg0 O2 2.039562 1_545
Mg0 O4 2.043015 1_555
Mn0 O7 1.952892 1_545
Mn0 O1 1.958822 1_555
Mn0 O5 2.010516 1_545
Mn0 O4 2.015186 1_555
Mn0 O6 2.209494 1_545
Mn0 O3 2.219006 1_555
Mn1 O7 1.958579 1_455
Mn1 O1 1.961856 1_555
Mn1 O0 1.991760 1_455
Mn1 O2 1.992325 1_555
Mn1 O5 2.271684 1_455
Mn1 O4 2.278278 1_555
Mn2 O6 1.947841 1_554
Mn2 O3 1.958513 1_555
Mn2 O5 1.974423 1_554
Mn2 O0 1.979543 1_554
Mn2 O4 1.981289 1_555
Mn2 O2 1.992487 1_555
Mn3 O6 2.030966 1_655
Mn3 O7 2.047810 1_556
Mn3 O0 2.067973 1_565
Mn3 O5 2.070213 1_555
O0 Zn0 2.168027 1_555
O1 Zn0 2.129868 1_555
O2 Zn0 2.158234 1_555
O3 Zn0 2.085889 1_555
O6 Zn0 2.094755 1_555
O7 Zn0 2.126482 1_555
