# generated using pymatgen
data_Na6Y4Si5Ge4S7O48
_symmetry_space_group_name_H-M   'P 1'
_cell_length_a   17.84219374
_cell_length_b   8.91912831
_cell_length_c   22.92044457
_cell_angle_alpha   90.05337487
_cell_angle_beta   89.77282160
_cell_angle_gamma   120.02389106
_symmetry_Int_Tables_number   1
_chemical_formula_structural   Na6Y4Si5Ge4S7O48
_chemical_formula_sum   'Na18 Y12 Si15 Ge12 S21 O144'
_cell_volume   3158.02812222
_cell_formula_units_Z   3
loop_
 _symmetry_equiv_pos_site_id
 _symmetry_equiv_pos_as_xyz
  1  'x, y, z'
loop_
 _atom_site_type_symbol
 _atom_site_label
 _atom_site_symmetry_multiplicity
 _atom_site_fract_x
 _atom_site_fract_y
 _atom_site_fract_z
 _atom_site_occupancy
  Na  Na0  1  0.99648859  0.62580303  0.25527885  1
  Na  Na1  1  0.50235676  0.62678970  0.25118642  1
  Na  Na2  1  0.00276150  0.38335909  0.74993993  1
  Na  Na3  1  0.49574468  0.35802325  0.75285732  1
  Na  Na4  1  0.66377107  0.31151792  0.92105456  1
  Na  Na5  1  0.16598338  0.01096876  0.43212872  1
  Na  Na6  1  0.99830402  0.99724631  0.51034389  1
  Na  Na7  1  0.49992533  0.98530656  0.50041682  1
  Na  Na8  1  0.99871714  0.01028825  0.99464011  1
  Na  Na9  1  0.50022037  0.00397738  0.00666671  1
  Na  Na10  1  0.32828450  0.31811138  0.84238159  1
  Na  Na11  1  0.83028186  0.33065777  0.82172218  1
  Na  Na12  1  0.34562969  0.35143273  0.32987265  1
  Na  Na13  1  0.82233039  0.33006440  0.34607016  1
  Na  Na14  1  0.19079220  0.66317102  0.15969036  1
  Na  Na15  1  0.66860751  0.64883525  0.16074622  1
  Na  Na16  1  0.17190499  0.69324450  0.66310628  1
  Na  Na17  1  0.68595817  0.69585776  0.66637213  1
  Y  Y0  1  0.99246259  0.98217706  0.36212795  1
  Y  Y1  1  0.49634042  0.00797019  0.85863525  1
  Y  Y2  1  0.32366947  0.33967248  0.67639577  1
  Y  Y3  1  0.82629148  0.30730758  0.68558172  1
  Y  Y4  1  0.33174208  0.35150096  0.18311225  1
  Y  Y5  1  0.82016318  0.30584527  0.17550735  1
  Y  Y6  1  0.83005797  0.32029721  0.99048763  1
  Y  Y7  1  0.33240911  0.35014897  0.49406710  1
  Y  Y8  1  0.17089871  0.66667949  0.31360263  1
  Y  Y9  1  0.67119099  0.65322668  0.31421836  1
  Y  Y10  1  0.17306309  0.69062719  0.81405894  1
  Y  Y11  1  0.66763725  0.65660132  0.80889414  1
  Si  Si0  1  0.36925875  0.74521025  0.25054620  1
  Si  Si1  1  0.49824997  0.29134655  0.25003280  1
  Si  Si2  1  0.63868769  0.27757610  0.74573585  1
  Si  Si3  1  0.00093129  0.70565793  0.74987536  1
  Si  Si4  1  0.87042044  0.99448858  0.75083005  1
  Si  Si5  1  0.16861099  0.02270590  0.58261660  1
  Si  Si6  1  0.68860283  0.02272955  0.57706747  1
  Si  Si7  1  0.33428330  0.66457920  0.58363781  1
  Si  Si8  1  0.82903828  0.00612096  0.08176319  1
  Si  Si9  1  0.18833010  0.35338363  0.07830368  1
  Si  Si10  1  0.66843336  0.31923545  0.08208650  1
  Si  Si11  1  0.51389015  0.38473405  0.92362813  1
  Si  Si12  1  0.16173665  0.96138922  0.92039966  1
  Si  Si13  1  0.66267033  0.36251442  0.42001223  1
  Si  Si14  1  0.01542258  0.64065520  0.42309634  1
  Ge  Ge0  1  0.50144154  0.03033730  0.35088109  1
  Ge  Ge1  1  0.00211724  0.97163583  0.84975648  1
  Ge  Ge2  1  0.00496159  0.97877293  0.65551774  1
  Ge  Ge3  1  0.51616302  0.99739969  0.63835741  1
  Ge  Ge4  1  0.00689912  0.02594502  0.13404573  1
  Ge  Ge5  1  0.50194364  0.02834130  0.15297797  1
  Ge  Ge6  1  0.32233332  0.30875397  0.98211173  1
  Ge  Ge7  1  0.82315343  0.33975893  0.48350961  1
  Ge  Ge8  1  0.16205987  0.66342543  0.01231911  1
  Ge  Ge9  1  0.66058646  0.64772496  0.02502832  1
  Ge  Ge10  1  0.15895556  0.67434554  0.52866862  1
  Ge  Ge11  1  0.66050051  0.65288652  0.51571746  1
  S  S0  1  0.13878209  0.00011601  0.24627706  1
  S  S1  1  0.64167555  0.00909081  0.25360322  1
  S  S2  1  0.85911343  0.71381019  0.24233219  1
  S  S3  1  -0.00005131  0.28484228  0.24420381  1
  S  S4  1  0.14214700  0.27463658  0.75376681  1
  S  S5  1  0.49847422  0.71158773  0.74558731  1
  S  S6  1  0.35567191  0.00292608  0.74325420  1
  S  S7  1  0.49330854  0.33796377  0.58412296  1
  S  S8  1  0.98161276  0.33161715  0.57890232  1
  S  S9  1  0.82956970  0.62971574  0.57830305  1
  S  S10  1  0.48284908  0.63571183  0.07930973  1
  S  S11  1  0.99350203  0.65040359  0.08730909  1
  S  S12  1  0.32908082  0.02846085  0.07914668  1
  S  S13  1  0.30904554  0.65172411  0.92356376  1
  S  S14  1  0.81891105  0.67694070  0.92000357  1
  S  S15  1  0.02112272  0.36856628  0.91698205  1
  S  S16  1  0.66683107  0.95434249  0.92029709  1
  S  S17  1  0.32030563  0.96623867  0.41920659  1
  S  S18  1  0.80814322  0.96528807  0.42292616  1
  S  S19  1  0.16920243  0.37368128  0.42037166  1
  S  S20  1  0.51967394  0.67383196  0.41644615  1
  O  O0  1  0.10019308  0.01196538  0.30233613  1
  O  O1  1  0.60206178  0.02874464  0.30821007  1
  O  O2  1  0.43016703  0.83559329  0.31025214  1
  O  O3  1  0.90535611  0.79328765  0.29800631  1
  O  O4  1  0.49329525  0.18815161  0.31051660  1
  O  O5  1  0.99449195  0.18890268  0.29743124  1
  O  O6  1  0.10291324  0.17512396  0.80827808  1
  O  O7  1  0.59866501  0.19236285  0.80958175  1
  O  O8  1  0.48795018  0.79023672  0.79889224  1
  O  O9  1  0.99485613  0.79801071  0.81052493  1
  O  O10  1  0.39934292  0.01193085  0.79959419  1
  O  O11  1  0.93205042  0.02617854  0.81084533  1
  O  O12  1  0.40214672  0.99564974  0.69235438  1
  O  O13  1  0.91860394  0.98833194  0.68745762  1
  O  O14  1  0.09192318  0.19337795  0.69947337  1
  O  O15  1  0.57473577  0.16000011  0.68984439  1
  O  O16  1  0.01776422  0.82321962  0.69116527  1
  O  O17  1  0.50011373  0.80367472  0.69106594  1
  O  O18  1  0.41762225  0.84510126  0.18764747  1
  O  O19  1  0.90796251  0.81697374  0.19142167  1
  O  O20  1  0.00588286  0.19648745  0.18988061  1
  O  O21  1  0.51405958  0.20696210  0.19114834  1
  O  O22  1  0.08398607  0.98548296  0.19491428  1
  O  O23  1  0.59171420  0.99024576  0.19953343  1
  O  O24  1  0.45411282  0.36275940  0.63770279  1
  O  O25  1  0.95315858  0.37156578  0.63429720  1
  O  O26  1  0.23295548  0.11066429  0.63641421  1
  O  O27  1  0.74101465  0.07709620  0.63651227  1
  O  O28  1  0.30818467  0.53860908  0.63968717  1
  O  O29  1  0.81562485  0.52573349  0.63057084  1
  O  O30  1  0.45352489  0.53790170  0.13552320  1
  O  O31  1  0.95393097  0.54861393  0.14118224  1
  O  O32  1  0.31439258  0.10274705  0.13235048  1
  O  O33  1  0.80817967  0.07748075  0.14075868  1
  O  O34  1  0.23787526  0.39781087  0.13940302  1
  O  O35  1  0.73114712  0.35972260  0.13749880  1
  O  O36  1  0.24032555  0.31157446  0.02748137  1
  O  O37  1  0.70681078  0.28567190  0.02220600  1
  O  O38  1  0.42393630  0.53802229  0.03123988  1
  O  O39  1  0.93773368  0.57022854  0.03638342  1
  O  O40  1  0.34439454  0.14256474  0.02714275  1
  O  O41  1  0.85730478  0.13942209  0.02801336  1
  O  O42  1  0.20615054  0.12960844  0.52185835  1
  O  O43  1  0.73988663  0.16860003  0.52527332  1
  O  O44  1  0.36137961  0.59038831  0.52779908  1
  O  O45  1  0.84566497  0.54820471  0.52510691  1
  O  O46  1  0.43863648  0.31583787  0.53289869  1
  O  O47  1  0.92482906  0.31525105  0.52948064  1
  O  O48  1  0.26264583  0.68080014  0.97328863  1
  O  O49  1  0.77862132  0.69826616  0.97341123  1
  O  O50  1  0.07673994  0.46116230  0.97008074  1
  O  O51  1  0.59269098  0.50163067  0.97136188  1
  O  O52  1  0.14583598  0.82448918  0.97617034  1
  O  O53  1  0.66662863  0.86111672  0.97321895  1
  O  O54  1  0.27924709  0.86276659  0.47155560  1
  O  O55  1  0.76215815  0.84392928  0.47144883  1
  O  O56  1  0.16509785  0.46414916  0.47177109  1
  O  O57  1  0.64609787  0.46709645  0.47502188  1
  O  O58  1  0.09550251  0.68292892  0.46988849  1
  O  O59  1  0.57436513  0.68889207  0.46833409  1
  O  O60  1  0.04641446  0.61675732  0.35784666  1
  O  O61  1  0.56040002  0.65929426  0.36149757  1
  O  O62  1  0.26540841  0.88704321  0.36648003  1
  O  O63  1  0.76505852  0.89656041  0.36644385  1
  O  O64  1  0.17522288  0.46392419  0.36480819  1
  O  O65  1  0.68682122  0.47388942  0.36101439  1
  O  O66  1  0.06317300  0.46523626  0.86304665  1
  O  O67  1  0.54412118  0.47306514  0.85952528  1
  O  O68  1  0.18594115  0.89737526  0.86210589  1
  O  O69  1  0.67229291  0.87363169  0.86595948  1
  O  O70  1  0.26363632  0.63083210  0.86816884  1
  O  O71  1  0.76445649  0.64613961  0.86803968  1
  O  O72  1  0.01324476  0.82442813  0.42392001  1
  O  O73  1  0.51184830  0.83076177  0.41564169  1
  O  O74  1  0.40646745  0.97709258  0.41216769  1
  O  O75  1  0.89653357  0.98559917  0.42238962  1
  O  O76  1  0.08996817  0.19660409  0.41872113  1
  O  O77  1  0.57415408  0.16649610  0.41053613  1
  O  O78  1  0.01323070  0.19670282  0.91680609  1
  O  O79  1  0.50919639  0.19575296  0.92660708  1
  O  O80  1  0.07352193  0.98131594  0.91086281  1
  O  O81  1  0.58710653  0.97049247  0.92147298  1
  O  O82  1  0.39606567  0.80573805  0.92355772  1
  O  O83  1  0.90561833  0.83740703  0.91356743  1
  O  O84  1  0.50555982  0.18693509  0.58686268  1
  O  O85  1  0.99004158  0.17711094  0.58217571  1
  O  O86  1  0.07341777  0.01440583  0.59419694  1
  O  O87  1  0.59121866  0.00696663  0.58300472  1
  O  O88  1  0.42108728  0.85886717  0.59641689  1
  O  O89  1  0.90606155  0.80448966  0.58275811  1
  O  O90  1  0.49058323  0.80684870  0.08418234  1
  O  O91  1  0.00719195  0.83075837  0.09261593  1
  O  O92  1  0.40650559  0.00838916  0.08440240  1
  O  O93  1  0.91645347  0.98270598  0.09127378  1
  O  O94  1  0.09040909  0.17078542  0.08524978  1
  O  O95  1  0.57364732  0.13514717  0.09381419  1
  O  O96  1  0.34844713  0.16339197  0.74338086  1
  O  O97  1  0.86619709  0.17148846  0.74901113  1
  O  O98  1  0.22994593  0.29729775  0.75090065  1
  O  O99  1  0.73344596  0.30131495  0.74385904  1
  O  O100  1  0.42417090  0.52985069  0.74341800  1
  O  O101  1  0.91627674  0.51843772  0.74719009  1
  O  O102  1  0.36183869  0.55514260  0.24902210  1
  O  O103  1  0.85175728  0.53971373  0.24194539  1
  O  O104  1  0.41159938  0.30597051  0.24791634  1
  O  O105  1  0.92350804  0.30893891  0.24198430  1
  O  O106  1  0.22602835  0.15001247  0.24300365  1
  O  O107  1  0.72980464  0.16319184  0.25135108  1
  O  O108  1  0.31568614  0.49402316  0.93091435  1
  O  O109  1  0.82939341  0.52157143  0.92449066  1
  O  O110  1  0.41653962  0.36256310  0.93757561  1
  O  O111  1  0.93679478  0.36002281  0.92260301  1
  O  O112  1  0.24647921  0.15363220  0.93192560  1
  O  O113  1  0.74250082  0.13688980  0.91985622  1
  O  O114  1  0.33026160  0.14193503  0.42346537  1
  O  O115  1  0.81778811  0.13841905  0.42955379  1
  O  O116  1  0.24502920  0.34529135  0.41975366  1
  O  O117  1  0.74845469  0.34249458  0.43103319  1
  O  O118  1  0.43374538  0.51414008  0.42072586  1
  O  O119  1  0.91769080  0.47364271  0.43634718  1
  O  O120  1  0.16887205  0.51430593  0.06338682  1
  O  O121  1  0.65454328  0.48742779  0.07609794  1
  O  O122  1  0.07997310  0.66478118  0.07969011  1
  O  O123  1  0.57257320  0.66173373  0.07113466  1
  O  O124  1  0.25100935  0.85238694  0.07019739  1
  O  O125  1  0.74101552  0.81794353  0.06932049  1
  O  O126  1  0.15293388  0.82460312  0.57710001  1
  O  O127  1  0.66994123  0.82363900  0.56146523  1
  O  O128  1  0.24388251  0.67187515  0.56906071  1
  O  O129  1  0.75056642  0.64651733  0.56905888  1
  O  O130  1  0.07341999  0.48506658  0.57084449  1
  O  O131  1  0.58037625  0.50062957  0.57749373  1
  O  O132  1  0.14197996  0.83576123  0.24675776  1
  O  O133  1  0.64816785  0.84987929  0.25634040  1
  O  O134  1  0.27406348  0.72677081  0.25146103  1
  O  O135  1  0.77307113  0.69914610  0.24341594  1
  O  O136  1  0.07843577  0.46152455  0.24402299  1
  O  O137  1  0.58165258  0.48821908  0.24960487  1
  O  O138  1  0.14745971  0.44543978  0.75652657  1
  O  O139  1  0.63702128  0.45944687  0.74103393  1
  O  O140  1  0.08563044  0.68055212  0.74932731  1
  O  O141  1  0.57909478  0.70221090  0.74626625  1
  O  O142  1  0.26852302  0.84583482  0.74382963  1
  O  O143  1  0.77637771  0.82354807  0.75221462  1
loop_
_geom_bond_atom_site_label_1
_geom_bond_atom_site_label_2
_geom_bond_distance
_geom_bond_site_symmetry_2
Na0 O103 2.317962 1_555
Na0 O132 2.327132 1_655
Na0 O105 2.468683 1_555
Na0 O60 2.532908 1_655
Na0 O136 2.547822 1_655
Na0 O31 2.716391 1_555
Na0 O3 2.872250 1_555
Na1 O102 2.257045 1_555
Na1 O137 2.297804 1_555
Na1 O133 2.358622 1_555
Na1 O104 2.485806 1_555
Na1 O61 2.695961 1_555
Na1 O30 2.781885 1_555
Na2 O97 2.213828 1_455
Na2 O140 2.300090 1_555
Na2 O138 2.359473 1_555
Na2 O101 2.387026 1_455
Na2 O66 2.765296 1_555
Na2 O25 2.782956 1_455
Na3 O139 2.226829 1_555
Na3 O96 2.325064 1_555
Na3 O100 2.446973 1_555
Na3 O67 2.626983 1_555
Na3 O141 2.662497 1_555
Na3 O24 2.750835 1_555
Na3 O10 2.883207 1_555
Na4 O79 2.415855 1_555
Na4 O37 2.492039 1_556
Na4 O113 2.566894 1_555
Na4 O109 2.590342 1_555
Na4 O81 2.638022 1_545
Na4 O7 2.791050 1_555
Na4 O51 2.819560 1_555
Na4 O71 2.869706 1_555
Na5 O42 2.260937 1_555
Na5 O72 2.386697 1_545
Na5 O114 2.562163 1_555
Na5 O116 2.598260 1_555
Na5 O76 2.631874 1_555
Na5 O58 2.684215 1_545
Na5 O62 2.927572 1_545
Na6 O86 2.308257 1_665
Na6 O85 2.352832 1_565
Na6 O89 2.360367 1_555
Na6 O72 2.602329 1_655
Na6 O75 2.685494 1_555
Na6 O76 2.704841 1_665
Na7 O87 2.445951 1_565
Na7 O73 2.450715 1_555
Na7 O77 2.540162 1_565
Na7 O88 2.546496 1_555
Na7 O74 2.604126 1_555
Na7 O84 2.642735 1_565
Na8 O78 2.363282 1_655
Na8 O80 2.420591 1_645
Na8 O83 2.458818 1_545
Na8 O94 2.591639 1_656
Na8 O93 2.595085 1_546
Na8 O91 2.807401 1_646
Na9 O95 2.357434 1_555
Na9 O90 2.445073 1_545
Na9 O92 2.452359 1_555
Na9 O79 2.459264 1_554
Na9 O81 2.596848 1_544
Na9 O82 2.634763 1_544
Na10 O112 2.516722 1_555
Na10 O110 2.607350 1_555
Na10 O108 2.640701 1_555
Na10 O98 2.685516 1_555
Na10 O96 2.768971 1_555
Na10 O100 2.895260 1_555
Na11 O101 2.343183 1_555
Na11 O99 2.410341 1_555
Na11 O97 2.470020 1_555
Na11 O113 2.787406 1_555
Na11 O109 2.909870 1_555
Na11 O111 2.926132 1_555
Na12 O104 2.353122 1_555
Na12 O102 2.509003 1_555
Na12 O118 2.579001 1_555
Na12 O116 2.709492 1_555
Na12 O114 2.767403 1_555
Na12 O106 2.817117 1_555
Na13 O117 2.380652 1_555
Na13 O115 2.540857 1_555
Na13 O119 2.580487 1_555
Na13 O107 2.686515 1_555
Na13 O103 2.912705 1_555
Na13 O105 3.048163 1_555
Na14 O134 2.476441 1_555
Na14 O120 2.503969 1_555
Na14 O124 2.526743 1_555
Na14 O122 2.707250 1_555
Na14 O136 2.712446 1_555
Na14 O132 2.903917 1_555
Na14 O34 2.916868 1_555
Na15 O121 2.353059 1_555
Na15 O137 2.522606 1_555
Na15 O125 2.523812 1_555
Na15 O135 2.540699 1_555
Na15 O123 2.719092 1_555
Na15 O133 2.964767 1_555
Na16 O126 2.404104 1_555
Na16 O142 2.433116 1_555
Na16 O140 2.467735 1_555
Na16 O128 2.560134 1_555
Na16 O130 2.786445 1_555
Na16 O138 2.949039 1_555
Na17 O143 2.439941 1_555
Na17 O139 2.507872 1_555
Na17 O129 2.642520 1_555
Na17 O141 2.659359 1_555
Na17 O131 2.733478 1_555
Na17 O127 2.738385 1_555
Ge0 O4 1.751153 1_555
Ge0 O2 1.815848 1_545
Ge0 O77 1.860592 1_555
Ge0 O1 2.047287 1_555
Ge0 O74 2.060896 1_545
Ge0 O73 2.396696 1_545
Ge1 O9 1.738110 1_455
Ge1 O11 1.792537 1_465
Ge1 O80 1.869775 1_555
Ge1 O6 2.038487 1_565
Ge1 O83 2.111249 1_455
Ge1 O78 2.455421 1_565
Ge2 O16 1.722028 1_555
Ge2 O13 1.743473 1_455
Ge2 O86 1.779616 1_565
Ge2 O14 2.030508 1_565
Ge2 O89 2.363225 1_455
Ge3 O15 1.754404 1_565
Ge3 O88 1.800446 1_555
Ge3 O87 1.811801 1_565
Ge3 O17 2.008236 1_555
Ge3 O84 2.147591 1_565
Ge3 O12 2.370371 1_555
Ge4 O93 1.761547 1_445
Ge4 O94 1.789716 1_555
Ge4 O91 1.984552 1_545
Ge4 O20 1.993896 1_555
Ge4 O22 2.116894 1_545
Ge4 O19 2.238992 1_445
Ge5 O21 1.733352 1_555
Ge5 O18 1.760203 1_545
Ge5 O95 1.775431 1_555
Ge5 O23 2.092461 1_545
Ge5 O92 2.262573 1_555
Ge5 O90 2.454825 1_545
Ge6 O112 1.790141 1_555
Ge6 O36 1.802132 1_556
Ge6 O110 1.810420 1_555
Ge6 O40 2.001819 1_556
Ge6 O108 2.079059 1_555
Ge6 O38 2.244554 1_556
Ge7 O43 1.782075 1_555
Ge7 O117 1.808015 1_555
Ge7 O119 1.847132 1_555
Ge7 O45 1.944033 1_555
Ge7 O115 2.141997 1_555
Ge7 O47 2.204870 1_555
Ge8 O52 1.803943 1_554
Ge8 O120 1.821970 1_555
Ge8 O48 1.937623 1_554
Ge8 O50 1.941471 1_554
Ge8 O124 2.110663 1_555
Ge8 O122 2.128250 1_555
Ge9 O51 1.762847 1_554
Ge9 O125 1.795359 1_555
Ge9 O121 1.809339 1_555
Ge9 O123 1.944565 1_555
Ge9 O53 2.200468 1_554
Ge9 O49 2.251519 1_554
Ge10 O126 1.783316 1_555
Ge10 O128 1.788367 1_555
Ge10 O58 1.789345 1_555
Ge10 O130 1.877944 1_555
Ge10 O56 2.329680 1_555
Ge10 O54 2.348753 1_555
Ge11 O127 1.785770 1_555
Ge11 O57 1.804133 1_555
Ge11 O131 1.984320 1_555
Ge11 O55 2.029429 1_555
Ge11 O59 2.037720 1_555
Ge11 O129 2.046320 1_555
O0 S0 1.483824 1_555
O0 Y0 2.261000 1_445
O1 S1 1.487746 1_555
O2 Si0 1.684238 1_555
O3 S2 1.494316 1_555
O3 Y0 2.192491 1_555
O4 Si1 1.642199 1_555
O5 S3 1.465510 1_655
O5 Y0 2.353240 1_545
O6 S4 1.487355 1_555
O7 Si2 1.636980 1_555
O7 Y1 2.069898 1_555
O8 S5 1.465762 1_555
O8 Y1 2.318312 1_565
O9 Si3 1.645808 1_655
O10 S6 1.492078 1_555
O10 Y1 2.215290 1_555
O11 Si4 1.697497 1_545
O12 S6 1.448762 1_565
O13 Si4 1.699740 1_555
O14 S4 1.494696 1_555
O15 Si2 1.689511 1_555
O16 Si3 1.638517 1_555
O17 S5 1.488174 1_555
O18 Si0 1.685219 1_555
O19 S2 1.469460 1_555
O20 S3 1.504380 1_555
O21 Si1 1.635588 1_555
O22 S0 1.496656 1_565
O23 S1 1.489022 1_565
O24 S7 1.481082 1_555
O24 Y2 2.397931 1_555
O25 S8 1.473717 1_555
O25 Y3 2.348598 1_555
O26 Si5 1.600636 1_555
O26 Y2 2.081203 1_555
O27 Si6 1.587805 1_555
O27 Y3 2.163063 1_555
O28 Si7 1.613679 1_555
O28 Y2 2.104218 1_555
O29 S9 1.458091 1_555
O29 Y3 2.408090 1_555
O30 S10 1.494941 1_555
O30 Y4 2.246031 1_555
O31 S11 1.483633 1_555
O31 Y5 2.412563 1_555
O32 S12 1.471215 1_555
O32 Y4 2.383853 1_555
O33 Si8 1.613535 1_555
O33 Y5 2.095514 1_555
O34 Si9 1.599342 1_555
O34 Y4 2.164610 1_555
O35 Si10 1.612948 1_555
O35 Y5 2.070721 1_555
O36 Si9 1.641172 1_555
O37 Si10 1.624535 1_555
O37 Y6 2.183493 1_554
O38 S10 1.472703 1_555
O39 S11 1.469521 1_555
O39 Y6 2.343640 1_554
O40 S12 1.500848 1_555
O41 Si8 1.607298 1_555
O41 Y6 2.090317 1_554
O42 Si5 1.628826 1_555
O42 Y7 2.215021 1_555
O43 Si6 1.655959 1_555
O44 Si7 1.619652 1_555
O44 Y7 2.085170 1_555
O45 S9 1.517284 1_555
O46 S7 1.478163 1_555
O46 Y7 2.252202 1_555
O47 S8 1.480449 1_555
O48 S13 1.502796 1_555
O49 S14 1.476766 1_555
O50 S15 1.528255 1_555
O51 Si11 1.674501 1_555
O52 Si12 1.690797 1_555
O53 S16 1.470232 1_555
O54 S17 1.465118 1_555
O55 S18 1.479180 1_555
O56 S19 1.449495 1_555
O57 Si13 1.678722 1_555
O58 Si14 1.675164 1_555
O59 S20 1.504130 1_555
O60 Si14 1.642763 1_555
O60 Y8 2.270046 1_555
O61 S20 1.489212 1_555
O61 Y9 2.274811 1_555
O62 S17 1.494749 1_555
O62 Y8 2.206914 1_555
O63 S18 1.475648 1_555
O63 Y9 2.306886 1_555
O64 S19 1.481752 1_555
O64 Y8 2.190440 1_555
O65 Si13 1.603304 1_555
O65 Y9 2.058805 1_555
O66 S15 1.477103 1_555
O66 Y10 2.277855 1_555
O67 Si11 1.625110 1_555
O67 Y11 2.292650 1_555
O68 Si12 1.593252 1_555
O68 Y10 2.059165 1_555
O69 S16 1.465062 1_555
O69 Y11 2.302155 1_555
O70 S13 1.469646 1_555
O70 Y10 2.305152 1_555
O71 S14 1.476307 1_555
O71 Y11 2.238466 1_555
O72 Si14 1.658966 1_555
O72 Y0 2.157073 1_455
O73 S20 1.474643 1_555
O74 S17 1.499290 1_555
O75 S18 1.494687 1_555
O75 Y0 2.207190 1_555
O76 S19 1.503448 1_555
O76 Y0 2.247333 1_445
O77 Si13 1.684311 1_555
O78 S15 1.467492 1_555
O79 Si11 1.646709 1_555
O79 Y1 2.213250 1_555
O80 Si12 1.685054 1_555
O81 S16 1.499868 1_555
O81 Y1 2.317305 1_565
O82 S13 1.470812 1_555
O82 Y1 2.328770 1_565
O83 S14 1.498776 1_555
O84 S7 1.470096 1_555
O85 S8 1.461155 1_555
O86 Si5 1.682652 1_555
O87 Si6 1.676620 1_555
O88 Si7 1.674586 1_555
O89 S9 1.474727 1_555
O90 S10 1.466426 1_555
O91 S11 1.506236 1_455
O92 S12 1.484502 1_555
O93 Si8 1.688926 1_565
O94 Si9 1.697354 1_555
O95 Si10 1.687209 1_555
O96 S6 1.499873 1_555
O96 Y2 2.393776 1_555
O97 Si4 1.618288 1_545
O97 Y3 2.227702 1_555
O98 S4 1.476999 1_555
O98 Y2 2.280676 1_555
O99 Si2 1.595726 1_555
O99 Y3 2.103630 1_555
O100 S5 1.495783 1_555
O100 Y2 2.329302 1_555
O101 Si3 1.596901 1_655
O101 Y3 2.259482 1_555
O102 Si0 1.633374 1_555
O102 Y4 2.212412 1_555
O103 S2 1.491473 1_555
O103 Y5 2.410777 1_555
O104 Si1 1.616169 1_555
O104 Y4 2.235669 1_555
O105 S3 1.484191 1_655
O105 Y5 2.386130 1_555
O106 S0 1.460424 1_555
O106 Y4 2.294251 1_555
O107 S1 1.483572 1_555
O107 Y5 2.273569 1_555
O108 S13 1.479254 1_555
O109 S14 1.491866 1_555
O109 Y6 2.353201 1_555
O110 Si11 1.676388 1_555
O111 S15 1.473078 1_655
O111 Y6 2.339998 1_555
O112 Si12 1.644333 1_545
O113 S16 1.507964 1_545
O113 Y6 2.279268 1_555
O114 S17 1.489309 1_545
O114 Y7 2.447973 1_555
O115 S18 1.473438 1_545
O116 S19 1.495782 1_555
O116 Y7 2.299360 1_555
O117 Si13 1.647731 1_555
O118 S20 1.484133 1_555
O118 Y7 2.359715 1_555
O119 Si14 1.658041 1_655
O120 Si9 1.672718 1_555
O121 Si10 1.644185 1_555
O122 S11 1.492378 1_455
O123 S10 1.509192 1_555
O124 S12 1.503730 1_565
O125 Si8 1.652165 1_565
O126 Si5 1.649684 1_565
O127 Si6 1.673319 1_565
O128 Si7 1.681315 1_555
O129 S9 1.506026 1_555
O130 S8 1.531348 1_455
O131 S7 1.511416 1_555
O132 S0 1.495319 1_565
O132 Y8 2.382669 1_555
O133 S1 1.482790 1_565
O133 Y9 2.394717 1_555
O134 Si0 1.622512 1_555
O134 Y8 2.167355 1_555
O135 S2 1.474206 1_555
O135 Y9 2.310495 1_555
O136 S3 1.495317 1_555
O136 Y8 2.368068 1_555
O137 Si1 1.637939 1_555
O137 Y9 2.138523 1_555
O138 S4 1.479574 1_555
O138 Y10 2.393658 1_555
O139 Si2 1.640858 1_555
O139 Y11 2.202303 1_555
O140 Si3 1.634798 1_555
O140 Y10 2.126209 1_555
O141 S5 1.482207 1_555
O141 Y11 2.320336 1_555
O142 S6 1.483498 1_565
O142 Y10 2.243052 1_555
O143 Si4 1.606413 1_555
O143 Y11 2.182138 1_555
