# generated using pymatgen
data_NdZnSn
_symmetry_space_group_name_H-M   'P 1'
_cell_length_a   4.52389367
_cell_length_b   4.52389409
_cell_length_c   16.79666398
_cell_angle_alpha   90.00000000
_cell_angle_beta   90.00000000
_cell_angle_gamma   119.99999686
_symmetry_Int_Tables_number   1
_chemical_formula_structural   NdZnSn
_chemical_formula_sum   'Nd4 Zn4 Sn4'
_cell_volume   297.69976875
_cell_formula_units_Z   4
loop_
 _symmetry_equiv_pos_site_id
 _symmetry_equiv_pos_as_xyz
  1  'x, y, z'
loop_
 _atom_site_type_symbol
 _atom_site_label
 _atom_site_symmetry_multiplicity
 _atom_site_fract_x
 _atom_site_fract_y
 _atom_site_fract_z
 _atom_site_occupancy
  Nd  Nd0  1  0.00000000  0.00000000  0.75000000  1
  Nd  Nd1  1  0.00000000  -0.00000000  0.25000000  1
  Nd  Nd2  1  0.00000000  -0.00000000  0.50000000  1
  Nd  Nd3  1  0.00000000  -0.00000000  0.00000000  1
  Zn  Zn0  1  0.66666700  0.33333300  0.84259360  1
  Zn  Zn1  1  0.66666700  0.33333300  0.65740640  1
  Zn  Zn2  1  0.33333300  0.66666700  0.15740640  1
  Zn  Zn3  1  0.33333300  0.66666700  0.34259360  1
  Sn  Sn0  1  0.66666700  0.33333300  0.11642625  1
  Sn  Sn1  1  0.66666700  0.33333300  0.38357375  1
  Sn  Sn2  1  0.33333300  0.66666700  0.88357375  1
  Sn  Sn3  1  0.33333300  0.66666700  0.61642625  1
loop_
_geom_bond_atom_site_label_1
_geom_bond_atom_site_label_2
_geom_bond_distance
_geom_bond_site_symmetry_2
Nd0 Zn0 3.039852 1_455
Nd0 Zn1 3.039852 1_455
Nd0 Zn0 3.039856 1_555
Nd0 Zn1 3.039856 1_555
Nd0 Zn0 3.039856 1_445
Nd0 Zn1 3.039856 1_445
Nd0 Sn3 3.443192 1_545
Nd0 Sn2 3.443192 1_545
Nd0 Sn3 3.443195 1_445
Nd0 Sn2 3.443195 1_445
Nd0 Sn3 3.443195 1_555
Nd0 Sn2 3.443195 1_555
Nd1 Zn3 3.039852 1_545
Nd1 Zn2 3.039852 1_545
Nd1 Zn2 3.039856 1_445
Nd1 Zn3 3.039856 1_445
Nd1 Zn2 3.039856 1_555
Nd1 Zn3 3.039856 1_555
Nd1 Sn0 3.443192 1_455
Nd1 Sn1 3.443192 1_455
Nd1 Sn1 3.443195 1_555
Nd1 Sn0 3.443195 1_555
Nd1 Sn1 3.443195 1_445
Nd1 Sn0 3.443195 1_445
Nd2 Sn1 3.262840 1_455
Nd2 Sn3 3.262840 1_545
Nd2 Sn1 3.262843 1_555
Nd2 Sn3 3.262843 1_445
Nd2 Sn1 3.262843 1_445
Nd2 Sn3 3.262843 1_555
Nd2 Zn1 3.716460 1_455
Nd2 Zn3 3.716460 1_545
Nd2 Zn1 3.716463 1_555
Nd2 Zn3 3.716463 1_445
Nd2 Zn1 3.716463 1_445
Nd2 Zn3 3.716463 1_555
Nd3 Sn2 3.262840 1_544
Nd3 Sn0 3.262840 1_455
Nd3 Sn2 3.262843 1_444
Nd3 Sn0 3.262843 1_555
Nd3 Sn2 3.262843 1_554
Nd3 Sn0 3.262843 1_445
Nd3 Zn2 3.716460 1_545
Nd3 Zn0 3.716460 1_454
Nd3 Zn2 3.716463 1_445
Nd3 Zn0 3.716463 1_554
Nd3 Zn2 3.716463 1_555
Nd3 Zn0 3.716463 1_444
Zn0 Zn1 3.110527 1_555
Zn2 Zn3 3.110527 1_555
Sn0 Zn2 2.701047 1_655
Sn0 Zn2 2.701047 1_545
Sn0 Zn2 2.701055 1_555
Sn1 Zn3 2.701047 1_655
Sn1 Zn3 2.701047 1_545
Sn1 Zn3 2.701055 1_555
Sn2 Zn0 2.701047 1_455
Sn2 Zn0 2.701047 1_565
Sn2 Zn0 2.701055 1_555
Sn3 Zn1 2.701047 1_455
Sn3 Zn1 2.701047 1_565
Sn3 Zn1 2.701055 1_555
