# generated using pymatgen
data_MgBi4(WO6)2
_symmetry_space_group_name_H-M   'P 1'
_cell_length_a   3.90967610
_cell_length_b   8.04014222
_cell_length_c   8.93120618
_cell_angle_alpha   102.10639619
_cell_angle_beta   102.41632430
_cell_angle_gamma   90.02251234
_symmetry_Int_Tables_number   1
_chemical_formula_structural   MgBi4(WO6)2
_chemical_formula_sum   'Mg1 Bi4 W2 O12'
_cell_volume   267.77815539
_cell_formula_units_Z   1
loop_
 _symmetry_equiv_pos_site_id
 _symmetry_equiv_pos_as_xyz
  1  'x, y, z'
loop_
 _atom_site_type_symbol
 _atom_site_label
 _atom_site_symmetry_multiplicity
 _atom_site_fract_x
 _atom_site_fract_y
 _atom_site_fract_z
 _atom_site_occupancy
  Mg  Mg0  1  0.50000000  0.00000000  0.00000000  1
  Bi  Bi0  1  0.68065700  0.59840100  0.35564100  1
  Bi  Bi1  1  0.31934300  0.40159900  0.64435900  1
  Bi  Bi2  1  0.32032200  0.92663500  0.64764500  1
  Bi  Bi3  1  0.67967800  0.07336500  0.35235500  1
  W  W0  1  0.01576200  0.71097900  0.03078500  1
  W  W1  1  0.98423800  0.28902100  0.96921500  1
  O  O0  1  0.75218000  0.87612200  0.50474200  1
  O  O1  1  0.74137400  0.36896000  0.48019800  1
  O  O2  1  0.92733300  0.50352400  0.85266200  1
  O  O3  1  0.25862600  0.63104000  0.51980200  1
  O  O4  1  0.05621000  0.13504900  0.11648400  1
  O  O5  1  0.87924200  0.16468000  0.75470500  1
  O  O6  1  0.07266700  0.49647600  0.14733800  1
  O  O7  1  0.12075800  0.83532000  0.24529500  1
  O  O8  1  0.24782000  0.12387800  0.49525800  1
  O  O9  1  0.94379000  0.86495100  0.88351600  1
  O  O10  1  0.51785300  0.75180600  0.03511000  1
  O  O11  1  0.48214700  0.24819400  0.96489000  1
loop_
_geom_bond_atom_site_label_1
_geom_bond_atom_site_label_2
_geom_bond_distance
_geom_bond_site_symmetry_2
Mg0 O11 2.082895 1_554
Mg0 O10 2.082895 1_545
Mg0 O4 2.354071 1_655
Mg0 O9 2.354071 1_444
Mg0 O4 2.361287 1_555
Mg0 O9 2.361287 1_544
Bi0 O0 2.330139 1_555
Bi0 O1 2.333350 1_555
Bi0 O3 2.395422 1_655
Bi0 O3 2.412520 1_555
Bi0 O6 2.658804 1_655
Bi0 O6 2.690775 1_555
Bi1 O8 2.330139 1_555
Bi1 O3 2.333350 1_555
Bi1 O1 2.395422 1_455
Bi1 O1 2.412520 1_555
Bi1 O2 2.658804 1_455
Bi1 O2 2.690775 1_555
Bi2 O8 2.277590 1_565
Bi2 O0 2.300127 1_455
Bi2 O0 2.313968 1_555
Bi2 O3 2.398562 1_555
Bi3 O0 2.277590 1_545
Bi3 O8 2.300127 1_655
Bi3 O8 2.313968 1_555
Bi3 O1 2.398562 1_555
O2 W0 2.020512 1_656
O2 W1 2.182019 1_555
O4 W1 1.966166 1_454
O5 W1 1.922620 1_555
O6 W1 2.020512 1_454
O6 W0 2.182019 1_555
O7 W0 1.922620 1_555
O9 W0 1.966166 1_656
O10 W0 1.980967 1_555
O10 W0 1.981479 1_655
O11 W1 1.980967 1_555
O11 W1 1.981479 1_455
