# generated using pymatgen
data_MgMn3CrO8
_symmetry_space_group_name_H-M   'P 1'
_cell_length_a   5.95238339
_cell_length_b   5.92305971
_cell_length_c   5.86314329
_cell_angle_alpha   60.03293369
_cell_angle_beta   61.87199112
_cell_angle_gamma   59.64090548
_symmetry_Int_Tables_number   1
_chemical_formula_structural   MgMn3CrO8
_chemical_formula_sum   'Mg1 Mn3 Cr1 O8'
_cell_volume   147.74264053
_cell_formula_units_Z   1
loop_
 _symmetry_equiv_pos_site_id
 _symmetry_equiv_pos_as_xyz
  1  'x, y, z'
loop_
 _atom_site_type_symbol
 _atom_site_label
 _atom_site_symmetry_multiplicity
 _atom_site_fract_x
 _atom_site_fract_y
 _atom_site_fract_z
 _atom_site_occupancy
  Mg  Mg0  1  0.00000000  0.00000000  0.00000000  1
  Mn  Mn0  1  0.00000000  0.50000000  0.50000000  1
  Mn  Mn1  1  0.50000000  0.00000000  0.50000000  1
  Mn  Mn2  1  0.50000000  0.50000000  0.00000000  1
  Cr  Cr0  1  0.50000000  0.50000000  0.50000000  1
  O  O0  1  0.27367200  0.27019600  0.25538000  1
  O  O1  1  0.71057000  0.24702300  0.26388800  1
  O  O2  1  0.27637200  0.72474800  0.22977700  1
  O  O3  1  0.26225900  0.25163800  0.70935500  1
  O  O4  1  0.73774100  0.74836200  0.29064500  1
  O  O5  1  0.72362800  0.27525200  0.77022300  1
  O  O6  1  0.72632800  0.72980400  0.74462000  1
  O  O7  1  0.28943000  0.75297700  0.73611200  1
loop_
_geom_bond_atom_site_label_1
_geom_bond_atom_site_label_2
_geom_bond_distance
_geom_bond_site_symmetry_2
Mg0 O2 2.088929 1_545
Mg0 O5 2.088929 1_454
Mg0 O7 2.168615 1_544
Mg0 O1 2.168615 1_455
Mg0 O3 2.206501 1_554
Mg0 O4 2.206501 1_445
Mn0 O3 1.946582 1_555
Mn0 O4 1.946582 1_455
Mn0 O0 2.017275 1_555
Mn0 O6 2.017275 1_455
Mn0 O2 2.153524 1_555
Mn0 O5 2.153524 1_455
Mn1 O6 1.944893 1_545
Mn1 O0 1.944893 1_555
Mn1 O3 1.946430 1_555
Mn1 O4 1.946430 1_545
Mn1 O7 1.955102 1_545
Mn1 O1 1.955102 1_555
Mn2 O2 1.915335 1_555
Mn2 O5 1.915335 1_554
Mn2 O7 1.955531 1_554
Mn2 O1 1.955531 1_555
Mn2 O6 1.955809 1_554
Mn2 O0 1.955809 1_555
Cr0 O5 2.035803 1_555
Cr0 O2 2.035803 1_555
Cr0 O1 2.066499 1_555
Cr0 O7 2.066499 1_555
Cr0 O4 2.082277 1_555
Cr0 O3 2.082277 1_555
