# generated using pymatgen
data_Na3LaGa(PO4)3
_symmetry_space_group_name_H-M   'P 1'
_cell_length_a   16.02878149
_cell_length_b   9.16395439
_cell_length_c   9.20403780
_cell_angle_alpha   90.38991409
_cell_angle_beta   124.98781175
_cell_angle_gamma   89.61847061
_symmetry_Int_Tables_number   1
_chemical_formula_structural   Na3LaGa(PO4)3
_chemical_formula_sum   'Na12 La4 Ga4 P12 O48'
_cell_volume   1107.58865714
_cell_formula_units_Z   4
loop_
 _symmetry_equiv_pos_site_id
 _symmetry_equiv_pos_as_xyz
  1  'x, y, z'
loop_
 _atom_site_type_symbol
 _atom_site_label
 _atom_site_symmetry_multiplicity
 _atom_site_fract_x
 _atom_site_fract_y
 _atom_site_fract_z
 _atom_site_occupancy
  Na  Na0  1  0.23831000  0.76941869  0.99006618  1
  Na  Na1  1  0.75520885  0.72653834  0.51722912  1
  Na  Na2  1  0.75516183  0.26528319  0.02008539  1
  Na  Na3  1  0.23938158  0.22770623  0.49459049  1
  Na  Na4  1  0.50465067  0.08837774  0.77047276  1
  Na  Na5  1  0.50066519  0.92789189  0.23080704  1
  Na  Na6  1  0.00694789  0.59480497  0.75248323  1
  Na  Na7  1  0.99802112  0.39017161  0.23598104  1
  Na  Na8  1  0.82097897  0.92932566  0.20885148  1
  Na  Na9  1  0.81717415  0.08342027  0.70713993  1
  Na  Na10  1  0.29827255  0.42458616  0.17640291  1
  Na  Na11  1  0.31197761  0.56327210  0.71858312  1
  La  La0  1  0.10405138  0.76756467  0.54870428  1
  La  La1  1  0.60109036  0.26420075  0.55681266  1
  La  La2  1  0.39658479  0.74849883  0.44076272  1
  La  La3  1  0.60838529  0.73636899  0.05602380  1
  Ga  Ga0  1  0.90329587  0.75381025  0.94666074  1
  Ga  Ga1  1  0.90193975  0.25067482  0.45065365  1
  Ga  Ga2  1  0.09756783  0.24628666  0.04265231  1
  Ga  Ga3  1  0.38913401  0.25533525  0.93847161  1
  P  P0  1  0.99643446  0.96482089  0.75740183  1
  P  P1  1  0.99497520  0.06005483  0.23081482  1
  P  P2  1  0.48582395  0.42249316  0.75365650  1
  P  P3  1  0.48261510  0.55127009  0.22232404  1
  P  P4  1  0.35626883  0.91813067  0.78019774  1
  P  P5  1  0.67255772  0.89316025  0.75911421  1
  P  P6  1  0.66208388  0.11478862  0.25181472  1
  P  P7  1  0.34205076  0.10781004  0.23309274  1
  P  P8  1  0.86757313  0.40618276  0.75814232  1
  P  P9  1  0.14543184  0.38080198  0.74863458  1
  P  P10  1  0.14214672  0.59086522  0.22557905  1
  P  P11  1  0.86288641  0.58673168  0.26238874  1
  O  O0  1  0.15482011  0.55072058  0.74933510  1
  O  O1  1  0.86157358  0.57638747  0.76103825  1
  O  O2  1  0.85720087  0.41669044  0.26154642  1
  O  O3  1  0.14632755  0.42038644  0.21546617  1
  O  O4  1  0.68651861  0.06105264  0.76043488  1
  O  O5  1  0.34608577  0.08696944  0.77397399  1
  O  O6  1  0.33606941  0.93926726  0.21528432  1
  O  O7  1  0.67297198  0.94501503  0.25099533  1
  O  O8  1  0.42562281  0.51275310  0.57920503  1
  O  O9  1  0.54121691  0.52613798  0.91127075  1
  O  O10  1  0.52893556  0.46595968  0.39524608  1
  O  O11  1  0.43383609  0.44575781  0.05992118  1
  O  O12  1  0.92988510  0.05518780  0.58074298  1
  O  O13  1  0.05386643  0.06717652  0.91842178  1
  O  O14  1  0.06962212  0.97893486  0.40416473  1
  O  O15  1  0.92781158  0.94789041  0.07729246  1
  O  O16  1  0.27134086  0.83815583  0.77831354  1
  O  O17  1  0.76031512  0.81214895  0.76509682  1
  O  O18  1  0.75507132  0.18253586  0.26250165  1
  O  O19  1  0.24727348  0.17823300  0.21225541  1
  O  O20  1  0.77884621  0.33511754  0.75447651  1
  O  O21  1  0.23940092  0.31817574  0.75993531  1
  O  O22  1  0.22698823  0.65414285  0.21188783  1
  O  O23  1  0.77477877  0.65962920  0.26080529  1
  O  O24  1  0.35596321  0.87301342  0.61673677  1
  O  O25  1  0.67632046  0.86009349  0.92689544  1
  O  O26  1  0.66831375  0.14852572  0.42307584  1
  O  O27  1  0.36043993  0.16832067  0.09460002  1
  O  O28  1  0.86610644  0.36303458  0.59221061  1
  O  O29  1  0.14639773  0.34660684  0.91527408  1
  O  O30  1  0.16468190  0.62183682  0.41077448  1
  O  O31  1  0.86491426  0.63544789  0.10218117  1
  O  O32  1  0.45912258  0.87426489  0.94981365  1
  O  O33  1  0.56866623  0.84626594  0.58952194  1
  O  O34  1  0.55822441  0.16643044  0.08563180  1
  O  O35  1  0.43689521  0.14741993  0.42074016  1
  O  O36  1  0.96812235  0.35254175  0.92821118  1
  O  O37  1  0.04581215  0.32361087  0.57646531  1
  O  O38  1  0.03815687  0.65828162  0.07527971  1
  O  O39  1  0.96032784  0.63507826  0.43917559  1
  O  O40  1  0.07096313  0.85804809  0.75659109  1
  O  O41  1  0.91934557  0.86833923  0.76890744  1
  O  O42  1  0.91828038  0.15031712  0.25062644  1
  O  O43  1  0.06014502  0.16765360  0.20495028  1
  O  O44  1  0.56509034  0.31397046  0.76940113  1
  O  O45  1  0.40222908  0.33616289  0.75402122  1
  O  O46  1  0.39363426  0.64535583  0.19538872  1
  O  O47  1  0.56581986  0.65430598  0.24731838  1
loop_
_geom_bond_atom_site_label_1
_geom_bond_atom_site_label_2
_geom_bond_distance
_geom_bond_site_symmetry_2
Na0 O6 2.332067 1_556
Na0 O46 2.378693 1_556
Na0 O16 2.383301 1_555
Na0 O22 2.402923 1_556
Na0 O40 2.420112 1_555
Na0 O0 2.700302 1_555
Na1 O1 2.336438 1_555
Na1 O17 2.364161 1_555
Na1 O23 2.621325 1_555
Na1 O41 2.644190 1_555
Na1 O47 2.679720 1_555
Na1 O7 2.842176 1_555
Na2 O2 2.314964 1_555
Na2 O18 2.362214 1_555
Na2 O42 2.465745 1_555
Na2 O44 2.595971 1_554
Na2 O4 2.715825 1_554
Na2 O20 2.760245 1_554
Na3 O5 2.484559 1_555
Na3 O45 2.521374 1_555
Na3 O21 2.573610 1_555
Na3 O43 2.623230 1_555
Na3 O19 2.708240 1_555
Na3 O3 2.752238 1_555
Na4 O44 2.291363 1_555
Na4 O5 2.560335 1_555
Na4 O45 2.746649 1_555
Na4 O24 2.781099 1_545
Na4 O35 2.800114 1_555
Na5 O32 2.320736 1_554
Na5 O6 2.560472 1_555
Na5 O7 2.665315 1_555
Na5 O47 2.681000 1_555
Na5 O27 2.866738 1_565
Na5 O33 2.923024 1_555
Na6 O1 2.383322 1_455
Na6 O0 2.418222 1_555
Na6 O39 2.559277 1_455
Na6 O40 2.619339 1_555
Na6 O38 2.773368 1_556
Na6 O28 2.825898 1_455
Na6 O41 2.910194 1_455
Na6 O29 2.924438 1_555
Na7 O43 2.349984 1_655
Na7 O2 2.410453 1_555
Na7 O3 2.507487 1_655
Na7 O42 2.592708 1_555
Na7 O36 2.608634 1_554
Na7 O37 2.836636 1_655
Na7 O31 2.842776 1_555
Na8 O25 2.368560 1_554
Na8 O42 2.454644 1_565
Na8 O15 2.609989 1_555
Na8 O7 2.617117 1_555
Na8 O18 2.700767 1_565
Na8 O23 2.707739 1_555
Na9 O26 2.394374 1_555
Na9 O41 2.407190 1_545
Na9 O4 2.419442 1_555
Na9 O20 2.482297 1_555
Na9 O12 2.661616 1_555
Na9 O17 2.810821 1_545
Na10 O29 2.345917 1_554
Na10 O46 2.487977 1_555
Na10 O19 2.493553 1_555
Na10 O22 2.494822 1_555
Na10 O3 2.658575 1_555
Na10 O27 2.807135 1_555
Na10 O11 2.930640 1_555
Na11 O45 2.441024 1_555
Na11 O30 2.494317 1_555
Na11 O21 2.664041 1_555
Na11 O0 2.694604 1_555
Na11 O16 2.727991 1_555
Na11 O11 2.797456 1_556
Na11 O8 2.799780 1_555
La0 O14 2.237227 1_555
La0 O39 2.270391 1_455
La0 O16 2.362329 1_555
La0 O30 2.390406 1_555
La0 O40 2.401302 1_555
La0 O0 2.515165 1_555
La1 O10 2.236970 1_555
La1 O26 2.299552 1_555
La1 O44 2.376705 1_555
La1 O35 2.424799 1_555
La1 O20 2.431917 1_555
La1 O4 2.433854 1_555
La2 O24 2.350241 1_555
La2 O46 2.417685 1_555
La2 O8 2.418965 1_555
La2 O33 2.443476 1_555
La2 O22 2.452431 1_555
La2 O6 2.454022 1_555
La3 O9 2.234609 1_554
La3 O23 2.321322 1_555
La3 O25 2.324382 1_554
La3 O47 2.352340 1_555
La3 O32 2.360282 1_554
La3 O7 2.407705 1_555
Ga0 O38 1.973517 1_656
Ga0 O17 1.983570 1_555
Ga0 O15 2.049786 1_556
Ga0 O41 2.086625 1_555
Ga0 O31 2.154961 1_556
Ga0 O1 2.162417 1_555
Ga1 O28 1.979821 1_555
Ga1 O37 2.013280 1_655
Ga1 O12 2.060816 1_555
Ga1 O18 2.064069 1_555
Ga1 O2 2.109124 1_555
Ga1 O42 2.197873 1_555
Ga2 O13 1.887692 1_554
Ga2 O36 1.960447 1_454
Ga2 O29 1.977080 1_554
Ga2 O43 2.039235 1_555
Ga2 O3 2.059773 1_555
Ga2 O19 2.069151 1_555
Ga3 O27 1.921150 1_556
Ga3 O11 1.969675 1_556
Ga3 O45 1.975520 1_555
Ga3 O5 1.983250 1_555
Ga3 O21 2.064877 1_555
Ga3 O34 2.370613 1_556
O0 P9 1.564992 1_555
O1 P8 1.563058 1_555
O2 P11 1.561226 1_555
O3 P10 1.567670 1_555
O4 P5 1.555184 1_545
O5 P4 1.552729 1_545
O6 P7 1.549871 1_565
O7 P6 1.564850 1_565
O8 P2 1.556931 1_555
O9 P2 1.519964 1_555
O10 P3 1.532841 1_555
O11 P3 1.559059 1_555
O12 P0 1.576368 1_545
O13 P0 1.533512 1_445
O14 P1 1.531310 1_465
O15 P1 1.569260 1_565
O16 P4 1.541615 1_555
O17 P5 1.559050 1_555
O18 P6 1.568435 1_555
O19 P7 1.554227 1_555
O20 P8 1.550763 1_555
O21 P9 1.555149 1_555
O22 P10 1.552256 1_555
O23 P11 1.550778 1_555
O24 P4 1.554863 1_555
O25 P5 1.542572 1_555
O26 P6 1.550330 1_555
O27 P7 1.569041 1_555
O28 P8 1.562081 1_555
O29 P9 1.558874 1_555
O30 P10 1.550870 1_555
O31 P11 1.561664 1_555
O32 P4 1.537812 1_555
O33 P5 1.553613 1_555
O34 P6 1.553736 1_555
O35 P7 1.553559 1_555
O36 P8 1.547949 1_555
O37 P9 1.559983 1_555
O38 P10 1.557971 1_555
O39 P11 1.538917 1_555
O40 P0 1.542426 1_455
O41 P0 1.576590 1_555
O42 P1 1.571674 1_555
O43 P1 1.556340 1_455
O44 P2 1.548641 1_555
O45 P2 1.562242 1_555
O46 P3 1.555662 1_555
O47 P3 1.544380 1_555
