# generated using pymatgen
data_LiVPO5
_symmetry_space_group_name_H-M   'P 1'
_cell_length_a   6.83193100
_cell_length_b   7.15137194
_cell_length_c   8.04065937
_cell_angle_alpha   89.63987397
_cell_angle_beta   91.49512485
_cell_angle_gamma   116.07462400
_symmetry_Int_Tables_number   1
_chemical_formula_structural   LiVPO5
_chemical_formula_sum   'Li4 V4 P4 O20'
_cell_volume   352.73880126
_cell_formula_units_Z   4
loop_
 _symmetry_equiv_pos_site_id
 _symmetry_equiv_pos_as_xyz
  1  'x, y, z'
loop_
 _atom_site_type_symbol
 _atom_site_label
 _atom_site_symmetry_multiplicity
 _atom_site_fract_x
 _atom_site_fract_y
 _atom_site_fract_z
 _atom_site_occupancy
  Li  Li0  1  0.78545400  0.69904600  0.92083000  1
  Li  Li1  1  0.21454600  0.30095400  0.07917000  1
  Li  Li2  1  0.70812800  0.18662800  0.57264900  1
  Li  Li3  1  0.29187200  0.81337200  0.42735100  1
  V  V0  1  0.75245700  0.97741200  0.23509500  1
  V  V1  1  0.24754300  0.02258800  0.76490500  1
  V  V2  1  0.75610700  0.48105800  0.26254000  1
  V  V3  1  0.24389300  0.51894200  0.73746000  1
  P  P0  1  0.76322200  0.25058300  0.91237800  1
  P  P1  1  0.23677800  0.74941700  0.08762200  1
  P  P2  1  0.74024400  0.75599900  0.58597800  1
  P  P3  1  0.25975600  0.24400100  0.41402200  1
  O  O0  1  0.44298000  0.91217700  0.17872100  1
  O  O1  1  0.55702000  0.08782300  0.82127900  1
  O  O2  1  0.86789900  0.14284000  0.02897000  1
  O  O3  1  0.13210100  0.85716000  0.97103000  1
  O  O4  1  0.06507000  0.09313100  0.30615900  1
  O  O5  1  0.93493000  0.90686900  0.69384100  1
  O  O6  1  0.64862500  0.88086600  0.47270500  1
  O  O7  1  0.35137500  0.11913400  0.52729500  1
  O  O8  1  0.75765200  0.25142400  0.32555700  1
  O  O9  1  0.24234800  0.74857600  0.67444300  1
  O  O10  1  0.73532500  0.74343800  0.16752600  1
  O  O11  1  0.26467500  0.25656200  0.83247400  1
  O  O12  1  0.91835100  0.36045000  0.76774300  1
  O  O13  1  0.08164900  0.63955000  0.23225700  1
  O  O14  1  0.71698000  0.40963000  0.01391800  1
  O  O15  1  0.28302000  0.59037000  0.98608200  1
  O  O16  1  0.56965900  0.62422900  0.71476100  1
  O  O17  1  0.43034100  0.37577100  0.28523900  1
  O  O18  1  0.81131800  0.61975400  0.47944000  1
  O  O19  1  0.18868200  0.38024600  0.52056000  1
loop_
_geom_bond_atom_site_label_1
_geom_bond_atom_site_label_2
_geom_bond_distance
_geom_bond_site_symmetry_2
Li0 O14 2.051942 1_556
Li0 O10 2.071637 1_556
Li0 O16 2.096540 1_555
Li0 O3 2.156839 1_655
Li0 O5 2.304735 1_555
Li1 O15 2.051942 1_554
Li1 O11 2.071637 1_554
Li1 O17 2.096540 1_555
Li1 O2 2.156839 1_455
Li1 O4 2.304735 1_555
Li2 O8 2.040143 1_555
Li2 O12 2.099102 1_555
Li2 O6 2.194533 1_545
Li2 O1 2.238375 1_555
Li2 O7 2.286505 1_555
Li3 O9 2.040143 1_555
Li3 O13 2.099102 1_555
Li3 O7 2.194533 1_565
Li3 O0 2.238375 1_555
Li3 O6 2.286505 1_555
O0 P1 1.546400 1_555
O0 V0 1.994748 1_555
O1 P0 1.546400 1_555
O1 V1 1.994748 1_555
O2 P0 1.557021 1_554
O2 V0 1.997964 1_545
O3 P1 1.557021 1_556
O3 V1 1.997964 1_565
O4 P3 1.541240 1_555
O4 V0 1.990302 1_445
O5 P2 1.541240 1_555
O5 V1 1.990302 1_665
O6 P2 1.571658 1_555
O6 V0 2.062442 1_555
O7 P3 1.571658 1_555
O7 V1 2.062442 1_555
O8 V2 1.719933 1_555
O8 V0 2.079819 1_545
O9 V3 1.719933 1_555
O9 V1 2.079819 1_565
O10 V0 1.715965 1_555
O10 V2 2.082096 1_555
O11 V1 1.715965 1_555
O11 V3 2.082096 1_555
O12 P0 1.553659 1_555
O12 V3 2.024661 1_655
O13 P1 1.553659 1_555
O13 V2 2.024661 1_455
O14 P0 1.549548 1_554
O14 V2 2.047837 1_555
O15 P1 1.549548 1_556
O15 V3 2.047837 1_555
O16 P2 1.550405 1_555
O16 V3 2.024825 1_555
O17 P3 1.550405 1_555
O17 V2 2.024825 1_555
O18 P2 1.538520 1_555
O18 V2 1.956069 1_555
O19 P3 1.538520 1_555
O19 V3 1.956069 1_555
