# generated using pymatgen
data_Al8Mo3
_symmetry_space_group_name_H-M   'P 1'
_cell_length_a   3.63041885
_cell_length_b   4.93141852
_cell_length_c   10.02545382
_cell_angle_alpha   100.11412257
_cell_angle_beta   90.00000000
_cell_angle_gamma   111.59790921
_symmetry_Int_Tables_number   1
_chemical_formula_structural   Al8Mo3
_chemical_formula_sum   'Al8 Mo3'
_cell_volume   163.88148426
_cell_formula_units_Z   1
loop_
 _symmetry_equiv_pos_site_id
 _symmetry_equiv_pos_as_xyz
  1  'x, y, z'
loop_
 _atom_site_type_symbol
 _atom_site_label
 _atom_site_symmetry_multiplicity
 _atom_site_fract_x
 _atom_site_fract_y
 _atom_site_fract_z
 _atom_site_occupancy
  Al  Al0  1  0.27223477  0.54446755  0.90973670  1
  Al  Al1  1  0.72776523  0.45553245  0.09026330  1
  Al  Al2  1  0.46053609  0.92107419  0.17941434  1
  Al  Al3  1  0.53946391  0.07892581  0.82058566  1
  Al  Al4  1  0.18654960  0.37309820  0.27791493  1
  Al  Al5  1  0.81345040  0.62690180  0.72208507  1
  Al  Al6  1  0.36803765  0.73607530  0.54175201  1
  Al  Al7  1  0.63196235  0.26392470  0.45824799  1
  Mo  Mo0  1  -0.00000000  -0.00000000  0.00000000  1
  Mo  Mo1  1  0.09456727  0.18913455  0.65946402  1
  Mo  Mo2  1  0.90543273  0.81086545  0.34053598  1
loop_
_geom_bond_atom_site_label_1
_geom_bond_atom_site_label_2
_geom_bond_distance
_geom_bond_site_symmetry_2
Al0 Al1 2.648703 1_556
Al0 Al1 2.648713 1_456
Al0 Al5 2.691784 1_555
Al0 Al5 2.691791 1_455
Al0 Mo1 2.721375 1_555
Al0 Al3 2.762533 1_565
Al0 Mo0 2.786137 1_666
Al0 Mo0 2.786142 1_566
Al0 Mo0 2.811529 1_556
Al0 Al3 2.815963 1_555
Al0 Al3 2.815963 1_455
Al0 Al2 2.920274 1_556
Al1 Al4 2.691784 1_555
Al1 Al4 2.691791 1_655
Al1 Mo2 2.721375 1_555
Al1 Al2 2.762533 1_545
Al1 Mo0 2.786137 1_555
Al1 Mo0 2.786142 1_655
Al1 Mo0 2.811529 1_665
Al1 Al2 2.815963 1_555
Al1 Al2 2.815963 1_655
Al1 Al3 2.920274 1_554
Al2 Mo2 2.543209 1_455
Al2 Mo2 2.543215 1_555
Al2 Mo0 2.628151 1_565
Al2 Mo0 2.628156 1_665
Al2 Al4 2.791548 1_565
Al2 Al4 2.791555 1_665
Al2 Al4 2.868003 1_555
Al2 Al7 2.936963 1_565
Al3 Mo1 2.543209 1_655
Al3 Mo1 2.543215 1_555
Al3 Mo0 2.628151 1_656
Al3 Mo0 2.628156 1_556
Al3 Al5 2.791548 1_545
Al3 Al5 2.791555 1_445
Al3 Al5 2.868003 1_555
Al3 Al6 2.936963 1_545
Al4 Al7 2.675069 1_555
Al4 Al7 2.675072 1_455
Al4 Mo2 2.691121 1_555
Al4 Mo2 2.691123 1_455
Al4 Mo2 2.766092 1_445
Al4 Al6 2.846669 1_555
Al4 Mo0 2.981465 1_555
Al5 Al6 2.675069 1_555
Al5 Al6 2.675072 1_655
Al5 Mo1 2.691121 1_555
Al5 Mo1 2.691123 1_655
Al5 Mo1 2.766092 1_665
Al5 Al7 2.846669 1_555
Al5 Mo0 2.981465 1_666
Al6 Al7 2.706289 1_565
Al6 Mo2 2.782683 1_455
Al6 Mo2 2.782683 1_555
Al6 Al7 2.828074 1_555
Al6 Al7 2.828074 1_455
Al6 Mo1 2.842014 1_565
Al6 Mo1 2.842014 1_665
Al6 Mo1 2.966443 1_555
Al7 Mo1 2.782683 1_655
Al7 Mo1 2.782683 1_555
Al7 Mo2 2.842014 1_545
Al7 Mo2 2.842014 1_445
Al7 Mo2 2.966443 1_555
