# generated using pymatgen
data_MgTi2(SiO4)2
_symmetry_space_group_name_H-M   'P 1'
_cell_length_a   5.05339448
_cell_length_b   5.05339448
_cell_length_c   6.16740400
_cell_angle_alpha   90.00000000
_cell_angle_beta   90.00000000
_cell_angle_gamma   111.47336879
_symmetry_Int_Tables_number   1
_chemical_formula_structural   MgTi2(SiO4)2
_chemical_formula_sum   'Mg1 Ti2 Si2 O8'
_cell_volume   146.56361395
_cell_formula_units_Z   1
loop_
 _symmetry_equiv_pos_site_id
 _symmetry_equiv_pos_as_xyz
  1  'x, y, z'
loop_
 _atom_site_type_symbol
 _atom_site_label
 _atom_site_symmetry_multiplicity
 _atom_site_fract_x
 _atom_site_fract_y
 _atom_site_fract_z
 _atom_site_occupancy
  Mg  Mg0  1  0.66517300  0.33482700  0.25000000  1
  Ti  Ti0  1  0.00911000  0.99089000  0.53606400  1
  Ti  Ti1  1  0.00911000  0.99089000  0.96393600  1
  Si  Si0  1  0.65189200  0.34810800  0.75000000  1
  Si  Si1  1  0.34468400  0.65531600  0.25000000  1
  O  O0  1  0.76573900  0.23426100  0.53407800  1
  O  O1  1  0.22817400  0.77182600  0.46074700  1
  O  O2  1  0.76573900  0.23426100  0.96592200  1
  O  O3  1  0.22817400  0.77182600  0.03925300  1
  O  O4  1  0.77003000  0.69873700  0.75000000  1
  O  O5  1  0.70083600  0.75936800  0.25000000  1
  O  O6  1  0.24063200  0.29916400  0.25000000  1
  O  O7  1  0.30126300  0.22997000  0.75000000  1
loop_
_geom_bond_atom_site_label_1
_geom_bond_atom_site_label_2
_geom_bond_distance
_geom_bond_site_symmetry_2
Mg0 O0 1.942989 1_555
Mg0 O2 1.942989 1_554
Mg0 O6 2.086153 1_555
Mg0 O5 2.086153 1_555
O0 Si0 1.636358 1_555
O0 Ti0 2.032877 1_645
O1 Si1 1.623724 1_555
O1 Ti0 1.887847 1_555
O2 Si0 1.636358 1_555
O2 Ti1 2.032877 1_645
O3 Si1 1.623724 1_555
O3 Ti1 1.887847 1_554
O4 Si0 1.649686 1_555
O4 Ti1 2.018490 1_655
O4 Ti0 2.018490 1_655
O5 Si1 1.680125 1_555
O5 Ti1 2.360915 1_654
O5 Ti0 2.360915 1_655
O6 Si1 1.680125 1_555
O6 Ti0 2.360915 1_545
O6 Ti1 2.360915 1_544
O7 Si0 1.649686 1_555
O7 Ti0 2.018490 1_545
O7 Ti1 2.018490 1_545
