# generated using pymatgen
data_BiP4HO12
_symmetry_space_group_name_H-M   'P 1'
_cell_length_a   7.24806700
_cell_length_b   8.77658446
_cell_length_c   8.99476783
_cell_angle_alpha   99.55189832
_cell_angle_beta   112.10680026
_cell_angle_gamma   106.48934027
_symmetry_Int_Tables_number   1
_chemical_formula_structural   BiP4HO12
_chemical_formula_sum   'Bi2 P8 H2 O24'
_cell_volume   483.76743530
_cell_formula_units_Z   2
loop_
 _symmetry_equiv_pos_site_id
 _symmetry_equiv_pos_as_xyz
  1  'x, y, z'
loop_
 _atom_site_type_symbol
 _atom_site_label
 _atom_site_symmetry_multiplicity
 _atom_site_fract_x
 _atom_site_fract_y
 _atom_site_fract_z
 _atom_site_occupancy
  Bi  Bi0  1  0.90405700  0.73256600  0.73982300  1
  Bi  Bi1  1  0.09594300  0.26743400  0.26017700  1
  P  P0  1  0.61247200  0.29181400  0.58108500  1
  P  P1  1  0.38752800  0.70818600  0.41891500  1
  P  P2  1  0.57422000  0.13331900  0.84466400  1
  P  P3  1  0.42578000  0.86668100  0.15533600  1
  P  P4  1  0.79449100  0.81351400  0.10738400  1
  P  P5  1  0.20550900  0.18648600  0.89261600  1
  P  P6  1  0.92813800  0.62003200  0.34109800  1
  P  P7  1  0.07186200  0.37996800  0.65890200  1
  H  H0  1  0.50480100  0.13335100  0.25759800  1
  H  H1  1  0.49519900  0.86664900  0.74240200  1
  O  O0  1  0.81764500  0.26233000  0.57380400  1
  O  O1  1  0.18235500  0.73767000  0.42619600  1
  O  O2  1  0.67271200  0.46250200  0.69404900  1
  O  O3  1  0.32728800  0.53749800  0.30595100  1
  O  O4  1  0.55686800  0.76491500  0.60013900  1
  O  O5  1  0.44313200  0.23508500  0.39986100  1
  O  O6  1  0.53160000  0.15158400  0.66199100  1
  O  O7  1  0.46840000  0.84841600  0.33800900  1
  O  O8  1  0.10440600  0.56103900  0.70048500  1
  O  O9  1  0.89559400  0.43896100  0.29951500  1
  O  O10  1  0.16291100  0.31188600  0.55049000  1
  O  O11  1  0.83708900  0.68811400  0.44951000  1
  O  O12  1  0.16197500  0.34224800  0.83697400  1
  O  O13  1  0.83802500  0.65775200  0.16302600  1
  O  O14  1  0.23704400  0.21380900  0.07054400  1
  O  O15  1  0.76295600  0.78619100  0.92945600  1
  O  O16  1  0.04881700  0.02337000  0.76030500  1
  O  O17  1  0.95118300  0.97663000  0.23969500  1
  O  O18  1  0.44543300  0.22477500  0.90482200  1
  O  O19  1  0.55456700  0.77522500  0.09517800  1
  O  O20  1  0.44957200  0.94342900  0.80540600  1
  O  O21  1  0.55042800  0.05657100  0.19459400  1
  O  O22  1  0.19373800  0.79426900  0.03395200  1
  O  O23  1  0.80626200  0.20573100  0.96604800  1
loop_
_geom_bond_atom_site_label_1
_geom_bond_atom_site_label_2
_geom_bond_distance
_geom_bond_site_symmetry_2
Bi0 O15 2.344497 1_555
Bi0 O2 2.345109 1_555
Bi0 O11 2.409787 1_555
Bi0 O16 2.413951 1_665
Bi0 O8 2.439498 1_655
Bi0 O4 2.477087 1_555
Bi0 O22 2.529649 1_656
Bi1 O14 2.344497 1_555
Bi1 O3 2.345109 1_555
Bi1 O10 2.409787 1_555
Bi1 O17 2.413951 1_445
Bi1 O9 2.439498 1_455
Bi1 O5 2.477087 1_555
Bi1 O23 2.529649 1_454
H0 O21 1.012644 1_555
H0 O5 1.706554 1_555
H1 O20 1.012644 1_555
H1 O4 1.706554 1_555
O0 P0 1.602769 1_555
O0 P7 1.625794 1_655
O1 P1 1.602769 1_555
O1 P6 1.625794 1_455
O2 P0 1.502279 1_555
O3 P1 1.502279 1_555
O4 P1 1.513061 1_555
O5 P0 1.513061 1_555
O6 P2 1.598249 1_555
O6 P0 1.611425 1_555
O7 P3 1.598249 1_555
O7 P1 1.611425 1_555
O8 P7 1.498190 1_555
O9 P6 1.498190 1_555
O10 P7 1.502756 1_555
O11 P6 1.502756 1_555
O12 P5 1.603739 1_555
O12 P7 1.616481 1_555
O13 P4 1.603739 1_555
O13 P6 1.616481 1_555
O14 P5 1.495754 1_554
O15 P4 1.495754 1_556
O16 P5 1.499980 1_555
O17 P4 1.499980 1_555
O18 P2 1.571554 1_555
O18 P5 1.631370 1_555
O19 P3 1.571554 1_555
O19 P4 1.631370 1_555
O20 P2 1.558288 1_565
O21 P3 1.558288 1_545
O22 P3 1.485072 1_555
O23 P2 1.485072 1_555
