# generated using pymatgen
data_NdNiO3
_symmetry_space_group_name_H-M   'P 1'
_cell_length_a   5.38376377
_cell_length_b   5.38857796
_cell_length_c   7.60451100
_cell_angle_alpha   90.00000000
_cell_angle_beta   90.00000000
_cell_angle_gamma   90.00000000
_symmetry_Int_Tables_number   1
_chemical_formula_structural   NdNiO3
_chemical_formula_sum   'Nd4 Ni4 O12'
_cell_volume   220.61318188
_cell_formula_units_Z   4
loop_
 _symmetry_equiv_pos_site_id
 _symmetry_equiv_pos_as_xyz
  1  'x, y, z'
loop_
 _atom_site_type_symbol
 _atom_site_label
 _atom_site_symmetry_multiplicity
 _atom_site_fract_x
 _atom_site_fract_y
 _atom_site_fract_z
 _atom_site_occupancy
  Nd  Nd0  1  0.00816993  0.95967358  0.75000000  1
  Nd  Nd1  1  0.49183007  0.45967358  0.75000000  1
  Nd  Nd2  1  0.50816993  0.54032642  0.25000000  1
  Nd  Nd3  1  0.99183007  0.04032642  0.25000000  1
  Ni  Ni0  1  0.50000000  -0.00000000  0.50000000  1
  Ni  Ni1  1  0.00000000  0.50000000  -0.00000000  1
  Ni  Ni2  1  0.00000000  0.50000000  0.50000000  1
  Ni  Ni3  1  0.50000000  -0.00000000  -0.00000000  1
  O  O0  1  0.71661312  0.28448914  0.46120757  1
  O  O1  1  0.78338688  0.78448914  0.03879243  1
  O  O2  1  0.21661312  0.21551086  0.53879243  1
  O  O3  1  0.28338688  0.71551086  0.96120757  1
  O  O4  1  0.28338688  0.71551086  0.53879243  1
  O  O5  1  0.21661312  0.21551086  0.96120757  1
  O  O6  1  0.78338688  0.78448914  0.46120757  1
  O  O7  1  0.71661312  0.28448914  0.03879243  1
  O  O8  1  0.07185465  0.49157846  0.25000000  1
  O  O9  1  0.42814535  0.99157846  0.25000000  1
  O  O10  1  0.57185465  0.00842154  0.75000000  1
  O  O11  1  0.92814535  0.50842154  0.75000000  1
loop_
_geom_bond_atom_site_label_1
_geom_bond_atom_site_label_2
_geom_bond_distance
_geom_bond_site_symmetry_2
Nd0 O10 2.363660 1_465
Nd0 O2 2.395734 1_565
Nd0 O5 2.395734 1_565
Nd0 O11 2.469480 1_455
Nd0 O4 2.550713 1_555
Nd0 O3 2.550713 1_555
Nd0 O1 2.679296 1_456
Nd0 O6 2.679296 1_455
Nd1 O11 2.363660 1_555
Nd1 O4 2.395734 1_555
Nd1 O3 2.395734 1_555
Nd1 O10 2.469480 1_555
Nd1 O5 2.550713 1_555
Nd1 O2 2.550713 1_555
Nd1 O0 2.679296 1_555
Nd1 O7 2.679296 1_556
Nd2 O8 2.363660 1_555
Nd2 O0 2.395734 1_555
Nd2 O7 2.395734 1_555
Nd2 O9 2.469480 1_555
Nd2 O6 2.550713 1_555
Nd2 O1 2.550713 1_555
Nd2 O3 2.679296 1_554
Nd2 O4 2.679296 1_555
Nd3 O9 2.363660 1_645
Nd3 O1 2.395734 1_545
Nd3 O6 2.395734 1_545
Nd3 O8 2.469480 1_655
Nd3 O0 2.550713 1_555
Nd3 O7 2.550713 1_555
Nd3 O5 2.679296 1_654
Nd3 O2 2.679296 1_655
Ni0 O6 1.939938 1_545
Ni0 O2 1.939938 1_555
Ni0 O9 1.940618 1_545
Ni0 O10 1.940618 1_555
Ni0 O4 1.948614 1_545
Ni0 O0 1.948614 1_555
Ni1 O7 1.939938 1_455
Ni1 O3 1.939938 1_554
Ni1 O8 1.940618 1_555
Ni1 O11 1.940618 1_454
Ni1 O5 1.948614 1_554
Ni1 O1 1.948614 1_455
Ni2 O4 1.939938 1_555
Ni2 O0 1.939938 1_455
Ni2 O8 1.940618 1_555
Ni2 O11 1.940618 1_455
Ni2 O2 1.948614 1_555
Ni2 O6 1.948614 1_455
Ni3 O5 1.939938 1_554
Ni3 O1 1.939938 1_545
Ni3 O9 1.940618 1_545
Ni3 O10 1.940618 1_554
Ni3 O3 1.948614 1_544
Ni3 O7 1.948614 1_555
