# generated using pymatgen
data_Na6La3NbSi2(PO6)4
_symmetry_space_group_name_H-M   'P 1'
_cell_length_a   9.54399991
_cell_length_b   9.57627399
_cell_length_c   23.18275494
_cell_angle_alpha   90.52726094
_cell_angle_beta   89.85944362
_cell_angle_gamma   120.49413908
_symmetry_Int_Tables_number   1
_chemical_formula_structural   Na6La3NbSi2(PO6)4
_chemical_formula_sum   'Na18 La9 Nb3 Si6 P12 O72'
_cell_volume   1825.65521362
_cell_formula_units_Z   3
loop_
 _symmetry_equiv_pos_site_id
 _symmetry_equiv_pos_as_xyz
  1  'x, y, z'
loop_
 _atom_site_type_symbol
 _atom_site_label
 _atom_site_symmetry_multiplicity
 _atom_site_fract_x
 _atom_site_fract_y
 _atom_site_fract_z
 _atom_site_occupancy
  Na  Na0  1  0.99006241  0.98622425  0.50693847  1
  Na  Na1  1  0.96339001  0.98215540  0.99639546  1
  Na  Na2  1  0.66047085  0.33630421  0.83017690  1
  Na  Na3  1  0.65618514  0.32961240  0.32825531  1
  Na  Na4  1  0.32507512  0.63968797  0.17016881  1
  Na  Na5  1  0.33658292  0.66517110  0.67173369  1
  Na  Na6  1  0.65917691  0.00908614  0.24564129  1
  Na  Na7  1  0.01538780  0.34831600  0.74778145  1
  Na  Na8  1  0.35293578  0.00176904  0.75586924  1
  Na  Na9  1  0.30451112  0.33214568  0.59215732  1
  Na  Na10  1  0.66437167  0.96836197  0.58565487  1
  Na  Na11  1  0.29468646  0.95527232  0.07437679  1
  Na  Na12  1  0.03831797  0.34437528  0.07355336  1
  Na  Na13  1  0.99823741  0.68216531  0.91669407  1
  Na  Na14  1  0.31232549  0.28915973  0.91289461  1
  Na  Na15  1  0.96255397  0.28521443  0.40816710  1
  Na  Na16  1  0.33788709  0.03679811  0.40462015  1
  Na  Na17  1  0.69830903  0.68269274  0.41483809  1
  La  La0  1  0.00460825  0.99928522  0.33869573  1
  La  La1  1  0.98666422  0.99340745  0.84878071  1
  La  La2  1  0.99386632  0.98884286  0.65919972  1
  La  La3  1  0.00176021  0.99159848  0.14971577  1
  La  La4  1  0.67513347  0.35441334  0.68364830  1
  La  La5  1  0.66230736  0.34668892  0.18572512  1
  La  La6  1  0.67249730  0.33838334  0.48263565  1
  La  La7  1  0.35189581  0.67293200  0.01384866  1
  La  La8  1  0.32179820  0.66793876  0.51651794  1
  Nb  Nb0  1  0.66586514  0.33186783  0.97436158  1
  Nb  Nb1  1  0.33115292  0.67360957  0.31467316  1
  Nb  Nb2  1  0.34394868  0.66507202  0.82535171  1
  Si  Si0  1  0.31563219  0.99226908  0.25388388  1
  Si  Si1  1  0.30986125  0.32065018  0.75477201  1
  Si  Si2  1  0.63582033  0.64912983  0.91986431  1
  Si  Si3  1  0.02826310  0.37322887  0.92119894  1
  Si  Si4  1  0.34248256  0.96819547  0.92054255  1
  Si  Si5  1  0.63138228  0.96753470  0.41633831  1
  P  P0  1  0.67243004  0.69364511  0.26002865  1
  P  P1  1  0.01133077  0.32073451  0.25247982  1
  P  P2  1  0.02519554  0.68764479  0.76098609  1
  P  P3  1  0.67063774  0.98859444  0.74769783  1
  P  P4  1  0.97542194  0.31919248  0.58444113  1
  P  P5  1  0.35640503  0.03352302  0.58402666  1
  P  P6  1  0.66866011  0.65081658  0.57625865  1
  P  P7  1  0.95459228  0.63056334  0.07530159  1
  P  P8  1  0.68173042  0.06372430  0.08091116  1
  P  P9  1  0.36304189  0.31424569  0.07470829  1
  P  P10  1  0.33764970  0.37836408  0.41319056  1
  P  P11  1  0.03041194  0.65911737  0.40980144  1
  O  O0  1  0.24066141  0.01141627  0.31437239  1
  O  O1  1  0.74961089  0.76184728  0.31911680  1
  O  O2  1  0.98192502  0.21915058  0.30780714  1
  O  O3  1  0.21898431  0.20233181  0.80871403  1
  O  O4  1  0.00048268  0.75507217  0.81722168  1
  O  O5  1  0.80529131  0.03019848  0.79249607  1
  O  O6  1  0.72725926  0.96073688  0.68817373  1
  O  O7  1  0.19477580  0.24551778  0.69602345  1
  O  O8  1  0.04049112  0.79895473  0.70977167  1
  O  O9  1  0.77334275  0.81860430  0.21221022  1
  O  O10  1  0.02984261  0.23124739  0.19912588  1
  O  O11  1  0.19858315  0.97114298  0.19862600  1
  O  O12  1  0.87944068  0.31719095  0.63886240  1
  O  O13  1  0.45428485  0.13540088  0.63731753  1
  O  O14  1  0.67154410  0.54196376  0.62464376  1
  O  O15  1  0.86118142  0.54119219  0.12929012  1
  O  O16  1  0.69075827  0.14271227  0.13956777  1
  O  O17  1  0.45227804  0.31499018  0.12949449  1
  O  O18  1  0.47275406  0.32400777  0.02097233  1
  O  O19  1  0.84864194  0.52995733  0.02056237  1
  O  O20  1  0.67970887  0.17987255  0.03131972  1
  O  O21  1  0.44434627  0.12585164  0.52769602  1
  O  O22  1  0.67323625  0.57684157  0.51674221  1
  O  O23  1  0.88674514  0.32554478  0.52864390  1
  O  O24  1  0.56859048  0.67772180  0.97904532  1
  O  O25  1  0.11996182  0.44480055  0.98150342  1
  O  O26  1  0.29888793  0.86719938  0.97946185  1
  O  O27  1  0.55362136  0.87463967  0.47662673  1
  O  O28  1  0.32429677  0.44492525  0.47255964  1
  O  O29  1  0.11547280  0.67282412  0.46701190  1
  O  O30  1  0.14885993  0.66595748  0.36054221  1
  O  O31  1  0.50146172  0.84030366  0.36306754  1
  O  O32  1  0.32696635  0.49045152  0.36571692  1
  O  O33  1  0.14877087  0.51195867  0.87018357  1
  O  O34  1  0.36560430  0.85727211  0.86840636  1
  O  O35  1  0.50409996  0.64204896  0.86814291  1
  O  O36  1  0.00029493  0.80279696  0.40629136  1
  O  O37  1  0.81476280  0.99571114  0.41038464  1
  O  O38  1  0.19311547  0.20136858  0.40822778  1
  O  O39  1  0.00555591  0.19686522  0.91012918  1
  O  O40  1  0.20113749  0.00888039  0.90727902  1
  O  O41  1  0.82356779  0.78392551  0.91178547  1
  O  O42  1  0.97888881  0.15835435  0.58165542  1
  O  O43  1  0.18716088  0.02046145  0.58442369  1
  O  O44  1  0.81663546  0.82457680  0.58093938  1
  O  O45  1  0.98070737  0.80406554  0.07313482  1
  O  O46  1  0.83909391  0.05604365  0.07209232  1
  O  O47  1  0.19979134  0.14873225  0.06999235  1
  O  O48  1  0.63592042  0.13080140  0.74777629  1
  O  O49  1  0.49191901  0.34603692  0.75102156  1
  O  O50  1  0.88889075  0.50784826  0.75282172  1
  O  O51  1  0.64789277  0.52437227  0.25251829  1
  O  O52  1  0.86549969  0.34568447  0.24709323  1
  O  O53  1  0.50677580  0.13134162  0.25050323  1
  O  O54  1  0.61826827  0.46526013  0.91802794  1
  O  O55  1  0.85065136  0.37159993  0.92161014  1
  O  O56  1  0.51831682  0.14664322  0.92621836  1
  O  O57  1  0.63105574  0.13859868  0.40990303  1
  O  O58  1  0.50110404  0.38086990  0.40703905  1
  O  O59  1  0.86949708  0.49482698  0.40413913  1
  O  O60  1  0.32634039  0.45335806  0.07781268  1
  O  O61  1  0.12284347  0.64195055  0.07769849  1
  O  O62  1  0.52318762  0.89907422  0.07881958  1
  O  O63  1  0.34771587  0.86819781  0.58745640  1
  O  O64  1  0.51060106  0.65795334  0.58505355  1
  O  O65  1  0.15173725  0.46432243  0.58858674  1
  O  O66  1  0.32307898  0.81830091  0.25903674  1
  O  O67  1  0.50062021  0.68041963  0.25772295  1
  O  O68  1  0.17185871  0.48843614  0.25958639  1
  O  O69  1  0.31383324  0.49638803  0.76717573  1
  O  O70  1  0.19077609  0.68916004  0.76214676  1
  O  O71  1  0.50795754  0.83126483  0.76402057  1
loop_
_geom_bond_atom_site_label_1
_geom_bond_atom_site_label_2
_geom_bond_distance
_geom_bond_site_symmetry_2
Na0 O44 2.348095 1_555
Na0 O42 2.419453 1_565
Na0 O43 2.500526 1_665
Na0 O37 2.827388 1_555
Na0 O36 2.938833 1_655
Na0 O38 3.041364 1_665
Na1 O46 2.409624 1_566
Na1 O45 2.538529 1_556
Na1 O41 2.570049 1_555
Na1 O47 2.619590 1_666
Na1 O39 2.760633 1_665
Na1 O40 2.979885 1_665
Na2 O49 2.476618 1_555
Na2 O54 2.507910 1_555
Na2 O48 2.653659 1_555
Na2 O50 2.658489 1_555
Na2 O55 2.699044 1_555
Na2 O56 2.766860 1_555
Na3 O53 2.467642 1_555
Na3 O59 2.537710 1_555
Na3 O58 2.544606 1_555
Na3 O57 2.569535 1_555
Na3 O51 2.603522 1_555
Na3 O52 2.688791 1_555
Na4 O67 2.533350 1_555
Na4 O68 2.534592 1_555
Na4 O66 2.671788 1_555
Na4 O60 2.778425 1_555
Na4 O61 2.895664 1_555
Na5 O70 2.585316 1_555
Na5 O64 2.626544 1_555
Na5 O65 2.651783 1_555
Na5 O71 2.663950 1_555
Na5 O69 2.694911 1_555
Na5 O63 2.732736 1_555
Na6 O53 2.285607 1_555
Na6 O9 2.665004 1_545
Na6 O16 2.727310 1_555
Na6 O67 2.730362 1_545
Na6 O66 2.789544 1_545
Na6 O52 2.797355 1_555
Na7 O50 2.381816 1_455
Na7 O69 2.494281 1_555
Na7 O7 2.649293 1_555
Na7 O12 2.785295 1_455
Na7 O70 2.829193 1_555
Na7 O5 2.867766 1_455
Na8 O48 2.339056 1_555
Na8 O70 2.585151 1_545
Na8 O71 2.711004 1_545
Na8 O8 2.811744 1_545
Na8 O49 2.865116 1_555
Na8 O13 2.986992 1_555
Na8 O34 2.995599 1_545
Na8 O3 3.043865 1_555
Na9 O65 2.368665 1_555
Na9 O7 2.593391 1_555
Na9 O43 2.606492 1_555
Na9 O42 2.689644 1_455
Na9 O64 2.722138 1_555
Na9 O28 2.955498 1_555
Na10 O44 2.459046 1_555
Na10 O6 2.463494 1_555
Na10 O64 2.561631 1_555
Na10 O42 2.605439 1_565
Na10 O63 2.667085 1_555
Na10 O27 2.705541 1_555
Na11 O26 2.356777 1_554
Na11 O47 2.443278 1_565
Na11 O62 2.499889 1_555
Na11 O45 2.583243 1_455
Na11 O61 2.589950 1_555
Na12 O25 2.314076 1_554
Na12 O60 2.396486 1_555
Na12 O46 2.431194 1_455
Na12 O61 2.538272 1_555
Na13 O41 2.322348 1_555
Na13 O4 2.412458 1_655
Na13 O55 2.568258 1_555
Na13 O40 2.729096 1_665
Na13 O19 2.810143 1_556
Na13 O33 2.867069 1_655
Na13 O26 2.881585 1_655
Na14 O40 2.334662 1_555
Na14 O54 2.526759 1_555
Na14 O3 2.557336 1_555
Na14 O39 2.594409 1_555
Na14 O18 2.866760 1_556
Na15 O37 2.389923 1_545
Na15 O2 2.436614 1_555
Na15 O59 2.576813 1_555
Na15 O38 2.698148 1_655
Na15 O57 2.734008 1_555
Na15 O23 2.954189 1_555
Na16 O0 2.251365 1_555
Na16 O57 2.454656 1_555
Na16 O38 2.570360 1_555
Na16 O58 2.841504 1_555
Na16 O36 2.842095 1_545
Na16 O21 2.998438 1_555
Na17 O1 2.321119 1_555
Na17 O36 2.511175 1_655
Na17 O58 2.529853 1_555
Na17 O22 2.541832 1_555
Na17 O37 2.618236 1_555
La0 O0 2.266348 1_565
La0 O2 2.341762 1_465
La0 O1 2.381015 1_455
La0 O37 2.443256 1_455
La0 O36 2.444013 1_555
La0 O38 2.450200 1_565
La1 O3 2.302994 1_665
La1 O39 2.333474 1_665
La1 O41 2.335443 1_555
La1 O5 2.337021 1_565
La1 O40 2.398570 1_665
La1 O4 2.456855 1_655
La2 O7 2.373445 1_665
La2 O8 2.396291 1_655
La2 O44 2.426803 1_555
La2 O43 2.434566 1_665
La2 O42 2.485489 1_565
La2 O6 2.509576 1_555
La3 O11 2.289260 1_555
La3 O9 2.441166 1_455
La3 O10 2.445313 1_565
La3 O45 2.448317 1_455
La3 O47 2.529816 1_565
La3 O46 2.652529 1_465
La4 O14 2.281648 1_555
La4 O49 2.313030 1_555
La4 O13 2.340559 1_555
La4 O12 2.386597 1_555
La4 O50 2.413092 1_555
La4 O48 2.485600 1_555
La5 O17 2.279815 1_555
La5 O15 2.286545 1_555
La5 O51 2.345189 1_555
La5 O16 2.352165 1_555
La5 O53 2.377120 1_555
La5 O52 2.411969 1_555
La6 O21 2.346300 1_555
La6 O23 2.366883 1_555
La6 O22 2.406293 1_555
La6 O57 2.415728 1_555
La6 O59 2.503132 1_555
La6 O58 2.572029 1_555
La7 O24 2.196927 1_554
La7 O25 2.303246 1_554
La7 O26 2.310159 1_554
La7 O62 2.447454 1_555
La7 O60 2.492957 1_555
La7 O61 2.528230 1_555
La8 O27 2.290738 1_555
La8 O29 2.302732 1_555
La8 O28 2.368870 1_555
La8 O63 2.430216 1_555
La8 O64 2.443820 1_555
La8 O65 2.462217 1_555
Nb0 O56 1.952221 1_555
Nb0 O55 2.016818 1_555
Nb0 O20 2.027576 1_556
Nb0 O54 2.041128 1_555
Nb0 O19 2.098095 1_556
Nb0 O18 2.102632 1_556
Nb1 O66 1.931625 1_555
Nb1 O31 1.947190 1_555
Nb1 O30 2.006493 1_555
Nb1 O67 2.060916 1_555
Nb1 O68 2.078093 1_555
Nb1 O32 2.108349 1_555
Nb2 O35 1.929365 1_555
Nb2 O33 1.986601 1_555
Nb2 O69 2.000386 1_555
Nb2 O34 2.001939 1_555
Nb2 O71 2.122986 1_555
Nb2 O70 2.167089 1_555
O0 Si0 1.623424 1_545
O1 P0 1.531604 1_555
O2 P1 1.553826 1_655
O3 Si1 1.619648 1_555
O4 P2 1.519786 1_555
O5 P3 1.538886 1_545
O6 P3 1.550253 1_555
O7 Si1 1.663211 1_555
O8 P2 1.559392 1_555
O9 P0 1.561395 1_555
O10 P1 1.558385 1_555
O11 Si0 1.644018 1_555
O12 P4 1.551832 1_555
O13 P5 1.552187 1_555
O14 P6 1.548020 1_555
O15 P7 1.527628 1_555
O16 P8 1.531077 1_555
O17 P9 1.528892 1_555
O18 P9 1.597945 1_555
O19 P7 1.598795 1_555
O20 P8 1.613898 1_555
O21 P5 1.566617 1_555
O22 P6 1.555823 1_555
O23 P4 1.565975 1_555
O24 Si2 1.592504 1_555
O25 Si3 1.603045 1_555
O26 Si4 1.608527 1_555
O27 Si5 1.625833 1_555
O28 P10 1.543462 1_555
O29 P11 1.526196 1_555
O30 P11 1.583105 1_555
O31 Si5 1.730224 1_555
O32 P10 1.583402 1_555
O33 Si3 1.719879 1_555
O34 Si4 1.688448 1_555
O35 Si2 1.715252 1_555
O36 P11 1.544649 1_555
O37 Si5 1.635610 1_555
O38 P10 1.553456 1_555
O39 Si3 1.608122 1_555
O40 Si4 1.613627 1_545
O41 Si2 1.602325 1_555
O42 P4 1.558029 1_555
O43 P5 1.555543 1_555
O44 P6 1.545165 1_555
O45 P7 1.551267 1_555
O46 P8 1.553439 1_555
O47 P9 1.563029 1_555
O48 P3 1.556350 1_545
O49 Si1 1.629941 1_555
O50 P2 1.553917 1_655
O51 P0 1.523990 1_555
O52 P1 1.532553 1_655
O53 Si0 1.625810 1_545
O54 Si2 1.682124 1_555
O55 Si3 1.687268 1_655
O56 Si4 1.685296 1_545
O57 Si5 1.647878 1_545
O58 P10 1.554194 1_555
O59 P11 1.547914 1_655
O60 P9 1.540867 1_555
O61 P7 1.554397 1_455
O62 P8 1.534799 1_565
O63 P5 1.545560 1_565
O64 P6 1.557154 1_555
O65 P4 1.548303 1_455
O66 Si0 1.708403 1_555
O67 P0 1.580260 1_555
O68 P1 1.566129 1_555
O69 Si1 1.686037 1_555
O70 P2 1.573281 1_555
O71 P3 1.567573 1_555
