# generated using pymatgen
data_Na7La3Zn(PO4)6
_symmetry_space_group_name_H-M   'P 1'
_cell_length_a   9.57667854
_cell_length_b   9.57905818
_cell_length_c   23.45623767
_cell_angle_alpha   89.28904609
_cell_angle_beta   90.09595913
_cell_angle_gamma   120.06304753
_symmetry_Int_Tables_number   1
_chemical_formula_structural   Na7La3Zn(PO4)6
_chemical_formula_sum   'Na21 La9 Zn3 P18 O72'
_cell_volume   1862.13443010
_cell_formula_units_Z   3
loop_
 _symmetry_equiv_pos_site_id
 _symmetry_equiv_pos_as_xyz
  1  'x, y, z'
loop_
 _atom_site_type_symbol
 _atom_site_label
 _atom_site_symmetry_multiplicity
 _atom_site_fract_x
 _atom_site_fract_y
 _atom_site_fract_z
 _atom_site_occupancy
  Na  Na0  1  0.63252439  0.02186176  0.24333839  1
  Na  Na1  1  0.39196612  0.36609298  0.24588943  1
  Na  Na2  1  0.97461863  0.61342175  0.24193357  1
  Na  Na3  1  0.64283458  0.61543215  0.73765066  1
  Na  Na4  1  0.96866816  0.35533647  0.74185690  1
  Na  Na5  1  0.39390477  0.03221528  0.73840359  1
  Na  Na6  1  0.02531092  0.69746671  0.58988703  1
  Na  Na7  1  0.66733638  0.96848429  0.58899570  1
  Na  Na8  1  0.30433991  0.97255451  0.09067988  1
  Na  Na9  1  0.66963159  0.69692138  0.09099687  1
  Na  Na10  1  0.69342018  0.02573057  0.91956414  1
  Na  Na11  1  0.33861037  0.30264085  0.91734724  1
  Na  Na12  1  0.96896626  0.27832572  0.40471657  1
  Na  Na13  1  0.30667161  0.02567222  0.40579213  1
  Na  Na14  1  0.72763645  0.69882857  0.40423227  1
  Na  Na15  1  0.01053601  0.00847705  0.48719090  1
  Na  Na16  1  0.99977178  0.99785886  0.99835176  1
  Na  Na17  1  0.67826117  0.34326572  0.82632986  1
  Na  Na18  1  0.66558249  0.33250993  0.31885369  1
  Na  Na19  1  0.31680006  0.65134876  0.16393013  1
  Na  Na20  1  0.33495744  0.65226696  0.66306969  1
  La  La0  1  0.00203438  0.98843065  0.84611809  1
  La  La1  1  0.01366901  0.01325023  0.65013984  1
  La  La2  1  0.00004106  0.01605956  0.15342649  1
  La  La3  1  0.68935154  0.34711930  0.98568681  1
  La  La4  1  0.65830589  0.33448163  0.48567778  1
  La  La5  1  0.31298054  0.65397848  0.01860476  1
  La  La6  1  0.33267619  0.65479218  0.51669699  1
  La  La7  1  0.33493776  0.66879086  0.32050924  1
  La  La8  1  0.32488283  0.66816710  0.81909305  1
  Zn  Zn0  1  0.00143171  0.00038827  0.34101058  1
  Zn  Zn1  1  0.65810316  0.33180169  0.67563387  1
  Zn  Zn2  1  0.67522668  0.32848757  0.17325611  1
  P  P0  1  0.30594542  0.01024580  0.25155204  1
  P  P1  1  0.70307249  0.69536011  0.25334848  1
  P  P2  1  0.98999808  0.30114374  0.25648073  1
  P  P3  1  0.32331962  0.31301414  0.75239117  1
  P  P4  1  0.98812448  0.67710459  0.74328869  1
  P  P5  1  0.69190507  0.00896156  0.74779935  1
  P  P6  1  0.95870379  0.33978977  0.58731134  1
  P  P7  1  0.36945933  0.02265191  0.58713333  1
  P  P8  1  0.66651796  0.63654106  0.58806924  1
  P  P9  1  0.96903936  0.63820359  0.09371403  1
  P  P10  1  0.65450484  0.02465481  0.08710304  1
  P  P11  1  0.38310391  0.33843631  0.08721410  1
  P  P12  1  0.63453008  0.66954774  0.91791303  1
  P  P13  1  0.02295857  0.34538500  0.91147177  1
  P  P14  1  0.33712458  0.98180548  0.91823979  1
  P  P15  1  0.65247051  0.97489019  0.41636824  1
  P  P16  1  0.31920388  0.34453432  0.41099366  1
  P  P17  1  0.02716887  0.67865796  0.41635729  1
  O  O0  1  0.21483385  0.02250391  0.30454518  1
  O  O1  1  0.80663107  0.78857372  0.30593460  1
  O  O2  1  0.97824322  0.20180550  0.31092376  1
  O  O3  1  0.24810389  0.21862487  0.80911876  1
  O  O4  1  0.97146386  0.76942441  0.79457884  1
  O  O5  1  0.79422248  0.02444005  0.80181165  1
  O  O6  1  0.77422234  0.98230588  0.69520829  1
  O  O7  1  0.20190566  0.22292211  0.70402179  1
  O  O8  1  0.01575827  0.78047471  0.68881381  1
  O  O9  1  0.77976527  0.79432741  0.19786274  1
  O  O10  1  0.02066695  0.22310191  0.20452347  1
  O  O11  1  0.20634157  0.98726711  0.19670627  1
  O  O12  1  0.86412792  0.34802526  0.63947531  1
  O  O13  1  0.46717491  0.11861179  0.63984210  1
  O  O14  1  0.65701671  0.53558003  0.64141820  1
  O  O15  1  0.88082770  0.54037515  0.14803714  1
  O  O16  1  0.65462823  0.12146757  0.14003579  1
  O  O17  1  0.48745658  0.34794505  0.13957677  1
  O  O18  1  0.46377430  0.33216192  0.03071771  1
  O  O19  1  0.87635079  0.55048335  0.03975985  1
  O  O20  1  0.66632426  0.11503833  0.03062314  1
  O  O21  1  0.44766787  0.11170372  0.53061465  1
  O  O22  1  0.67225704  0.55471953  0.53232899  1
  O  O23  1  0.87152491  0.33293997  0.53097459  1
  O  O24  1  0.54094761  0.67823229  0.97068356  1
  O  O25  1  0.13042499  0.44803476  0.96121601  1
  O  O26  1  0.32641398  0.87955150  0.97150832  1
  O  O27  1  0.56305535  0.86937403  0.46982553  1
  O  O28  1  0.30143246  0.43826518  0.46150701  1
  O  O29  1  0.12948829  0.69390789  0.47017644  1
  O  O30  1  0.10803213  0.65077146  0.36390221  1
  O  O31  1  0.54577885  0.89578395  0.36319948  1
  O  O32  1  0.34893410  0.44543075  0.35566834  1
  O  O33  1  0.09709515  0.42934464  0.85392532  1
  O  O34  1  0.34072311  0.89524220  0.86320692  1
  O  O35  1  0.53946623  0.66197696  0.86331567  1
  O  O36  1  0.02024783  0.83740725  0.41085490  1
  O  O37  1  0.81836741  0.98258518  0.41237363  1
  O  O38  1  0.16272246  0.17691557  0.40942966  1
  O  O39  1  0.01368905  0.17791111  0.91727829  1
  O  O40  1  0.19083733  0.01048246  0.91967030  1
  O  O41  1  0.80236367  0.82635460  0.91824475  1
  O  O42  1  0.97299833  0.18489213  0.58830796  1
  O  O43  1  0.19179489  0.98690841  0.58703354  1
  O  O44  1  0.82328615  0.80702572  0.58738640  1
  O  O45  1  0.98193983  0.80784575  0.09039349  1
  O  O46  1  0.79506736  0.98665609  0.08695477  1
  O  O47  1  0.21416492  0.18259160  0.08812026  1
  O  O48  1  0.68119273  0.16539209  0.74342964  1
  O  O49  1  0.48789471  0.31988228  0.74408256  1
  O  O50  1  0.83254538  0.50936631  0.74257529  1
  O  O51  1  0.68968430  0.52693500  0.25237453  1
  O  O52  1  0.83034556  0.30647316  0.25049310  1
  O  O53  1  0.47542064  0.16600902  0.24842281  1
  O  O54  1  0.64697568  0.51443840  0.91837747  1
  O  O55  1  0.84852748  0.31544857  0.91417760  1
  O  O56  1  0.49559230  0.14903432  0.91770441  1
  O  O57  1  0.67860517  0.14896851  0.41931275  1
  O  O58  1  0.46691658  0.31908931  0.41708450  1
  O  O59  1  0.85171042  0.53252711  0.41929688  1
  O  O60  1  0.36772638  0.49346542  0.08850739  1
  O  O61  1  0.14456273  0.66785718  0.09322029  1
  O  O62  1  0.49226607  0.85903761  0.08964890  1
  O  O63  1  0.36470250  0.85633900  0.58884894  1
  O  O64  1  0.52004900  0.66584154  0.58879697  1
  O  O65  1  0.12856006  0.49569276  0.58799837  1
  O  O66  1  0.33247788  0.86123413  0.25477389  1
  O  O67  1  0.52743501  0.66952060  0.25510527  1
  O  O68  1  0.13487794  0.47907062  0.25697756  1
  O  O69  1  0.35231230  0.48891689  0.75233789  1
  O  O70  1  0.13796082  0.65378226  0.74867894  1
  O  O71  1  0.51658930  0.86064206  0.75119159  1
loop_
_geom_bond_atom_site_label_1
_geom_bond_atom_site_label_2
_geom_bond_distance
_geom_bond_site_symmetry_2
Na0 O52 2.426001 1_555
Na0 O66 2.501757 1_545
Na0 O53 2.504103 1_555
Na0 O16 2.562914 1_555
Na1 O53 2.418144 1_555
Na1 O51 2.475720 1_555
Na1 O67 2.532694 1_555
Na1 O17 2.694937 1_555
Na1 O32 2.782792 1_555
Na2 O15 2.355658 1_555
Na2 O51 2.434033 1_555
Na2 O68 2.470239 1_655
Na2 O52 2.551589 1_555
Na3 O14 2.417990 1_555
Na3 O69 2.437800 1_555
Na3 O49 2.453746 1_555
Na3 O50 2.488407 1_555
Na4 O50 2.409237 1_555
Na4 O48 2.423057 1_555
Na4 O70 2.488723 1_655
Na4 O12 2.588477 1_555
Na4 O33 2.843795 1_655
Na5 O48 2.386825 1_555
Na5 O13 2.428623 1_555
Na5 O49 2.438199 1_555
Na5 O71 2.468351 1_545
Na6 O43 2.408423 1_555
Na6 O8 2.478807 1_555
Na6 O65 2.575350 1_555
Na6 O44 2.623052 1_455
Na6 O63 2.815003 1_555
Na6 O29 2.987807 1_555
Na7 O64 2.509453 1_555
Na7 O63 2.536623 1_555
Na7 O42 2.604966 1_565
Na7 O44 2.634356 1_555
Na7 O6 2.671327 1_555
Na7 O27 2.969656 1_555
Na8 O62 2.526548 1_555
Na8 O61 2.526897 1_555
Na8 O47 2.556357 1_565
Na8 O45 2.672397 1_455
Na8 O11 2.689748 1_555
Na8 O26 2.984061 1_554
Na9 O46 2.410046 1_555
Na9 O60 2.552984 1_555
Na9 O45 2.624940 1_555
Na9 O9 2.707328 1_555
Na9 O62 2.817639 1_555
Na10 O55 2.405412 1_555
Na10 O41 2.595162 1_545
Na10 O39 2.655955 1_655
Na10 O56 2.688242 1_555
Na10 O20 2.804520 1_556
Na10 O5 2.929608 1_555
Na11 O40 2.422040 1_555
Na11 O56 2.577041 1_555
Na11 O54 2.614538 1_555
Na11 O3 2.681055 1_555
Na11 O39 2.717564 1_555
Na11 O18 2.873448 1_556
Na12 O2 2.343332 1_555
Na12 O57 2.434211 1_555
Na12 O37 2.456102 1_545
Na12 O38 2.490277 1_655
Na13 O36 2.414537 1_545
Na13 O38 2.451754 1_555
Na13 O58 2.453696 1_555
Na13 O0 2.526363 1_555
Na14 O37 2.413646 1_555
Na14 O36 2.432193 1_655
Na14 O1 2.435699 1_555
Na14 O59 2.440385 1_555
Na15 O38 2.373651 1_555
Na15 O37 2.463902 1_445
Na15 O36 2.475098 1_545
Na16 O39 2.509579 1_665
Na16 O40 2.559867 1_665
Na16 O41 2.599352 1_555
Na16 O45 2.755988 1_556
Na16 O46 2.823346 1_556
Na16 O47 2.866776 1_666
Na17 O50 2.480115 1_555
Na17 O49 2.585625 1_555
Na17 O48 2.610642 1_555
Na17 O55 2.717762 1_555
Na17 O56 2.787165 1_555
Na17 O54 2.832347 1_555
Na18 O51 2.334922 1_555
Na18 O52 2.352820 1_555
Na18 O53 2.394730 1_555
Na18 O58 2.950853 1_555
Na18 O57 2.962284 1_555
Na18 O59 3.012524 1_555
Na19 O61 2.396310 1_555
Na19 O62 2.528204 1_555
Na19 O60 2.542292 1_555
Na19 O68 2.750441 1_555
Na19 O67 2.883754 1_555
Na19 O66 2.899657 1_555
Na20 O64 2.442907 1_555
Na20 O63 2.508511 1_555
Na20 O65 2.518105 1_555
Na20 O69 2.653021 1_555
Na20 O70 2.762710 1_555
Na20 O71 2.809638 1_555
La0 O4 2.322642 1_455
La0 O5 2.414890 1_465
La0 O41 2.429059 1_455
La0 O40 2.430290 1_565
La0 O3 2.433484 1_565
La0 O39 2.442232 1_565
La1 O7 2.304080 1_555
La1 O42 2.353513 1_455
La1 O43 2.369324 1_545
La1 O6 2.404799 1_445
La1 O8 2.406165 1_545
La1 O44 2.418228 1_445
La2 O10 2.252684 1_555
La2 O9 2.347567 1_445
La2 O11 2.354192 1_545
La2 O47 2.401811 1_555
La2 O46 2.410459 1_445
La2 O45 2.433101 1_445
La3 O19 2.273563 1_556
La3 O18 2.344524 1_556
La3 O20 2.356548 1_556
La3 O55 2.390346 1_555
La3 O54 2.411004 1_555
La3 O56 2.474650 1_555
La4 O23 2.306760 1_555
La4 O21 2.317865 1_555
La4 O22 2.332461 1_555
La4 O58 2.386442 1_555
La4 O59 2.422769 1_555
La4 O57 2.456558 1_555
La5 O25 2.315770 1_554
La5 O26 2.359791 1_554
La5 O24 2.361620 1_554
La5 O61 2.431528 1_555
La5 O60 2.463666 1_555
La5 O62 2.505184 1_555
La6 O28 2.347537 1_555
La6 O27 2.389528 1_555
La6 O29 2.414690 1_555
La6 O64 2.428011 1_555
La6 O65 2.429768 1_555
La6 O63 2.484299 1_555
La7 O30 2.327010 1_555
La7 O31 2.335832 1_555
La7 O32 2.349270 1_555
La7 O67 2.397569 1_555
La7 O66 2.397726 1_555
La7 O68 2.400692 1_555
La8 O35 2.327214 1_555
La8 O34 2.355799 1_555
La8 O33 2.370527 1_555
La8 O70 2.387462 1_555
La8 O71 2.419130 1_555
La8 O69 2.447256 1_555
O0 P0 1.558887 1_555
O0 Zn0 2.126198 1_555
O1 P1 1.561506 1_555
O1 Zn0 2.125526 1_665
O2 P2 1.553047 1_555
O2 Zn0 2.159827 1_655
O3 P3 1.558118 1_555
O4 P4 1.556698 1_555
O5 P5 1.562739 1_555
O6 P5 1.556002 1_565
O7 P3 1.548707 1_555
O8 P4 1.546095 1_455
O9 P1 1.551454 1_555
O10 P2 1.540842 1_455
O11 P0 1.551097 1_565
O12 P6 1.549637 1_555
O12 Zn1 2.081222 1_555
O13 P7 1.552967 1_555
O13 Zn1 2.124803 1_555
O14 P8 1.546507 1_555
O14 Zn1 2.106180 1_555
O15 P9 1.547985 1_555
O15 Zn2 2.077618 1_555
O16 P10 1.558549 1_555
O16 Zn2 2.055363 1_555
O17 P11 1.556605 1_555
O17 Zn2 2.054211 1_555
O18 P11 1.551939 1_555
O19 P9 1.539795 1_555
O20 P10 1.546404 1_555
O21 P7 1.543145 1_555
O22 P8 1.547771 1_555
O23 P6 1.546329 1_555
O24 P12 1.556671 1_555
O25 P13 1.548564 1_555
O26 P14 1.549365 1_555
O27 P15 1.559530 1_555
O28 P16 1.555364 1_555
O29 P17 1.559540 1_555
O30 P17 1.550336 1_555
O31 P15 1.554671 1_555
O32 P16 1.547149 1_555
O33 P13 1.541784 1_555
O34 P14 1.552554 1_555
O35 P12 1.551255 1_555
O36 P17 1.558707 1_555
O36 Zn0 2.317586 1_565
O37 P15 1.556055 1_555
O37 Zn0 2.368075 1_665
O38 P16 1.554237 1_555
O38 Zn0 2.294112 1_555
O39 P13 1.565873 1_555
O40 P14 1.557303 1_545
O41 P12 1.555965 1_555
O42 P6 1.556761 1_555
O43 P7 1.558352 1_565
O44 P8 1.569763 1_555
O45 P9 1.567719 1_555
O46 P10 1.560610 1_565
O47 P11 1.557577 1_555
O48 P5 1.554534 1_555
O48 Zn1 2.325465 1_555
O49 P3 1.556653 1_555
O49 Zn1 2.250684 1_555
O50 P4 1.550464 1_555
O50 Zn1 2.315166 1_555
O51 P1 1.553553 1_555
O52 P2 1.561184 1_555
O52 Zn2 2.414297 1_555
O53 P0 1.561165 1_555
O53 Zn2 2.480278 1_555
O54 P12 1.548855 1_555
O55 P13 1.548126 1_655
O56 P14 1.559879 1_545
O57 P15 1.559694 1_545
O58 P16 1.557181 1_555
O59 P17 1.558539 1_655
O60 P11 1.564664 1_555
O61 P9 1.558188 1_455
O62 P10 1.569329 1_565
O63 P7 1.570806 1_565
O64 P8 1.562446 1_555
O65 P6 1.563060 1_455
O66 P0 1.571102 1_565
O67 P1 1.573220 1_555
O68 P2 1.568840 1_455
O69 P3 1.564441 1_555
O70 P4 1.563588 1_455
O71 P5 1.565715 1_565
