# generated using pymatgen
data_Nd6Fe13Sn
_symmetry_space_group_name_H-M   'P 1'
_cell_length_a   13.06307124
_cell_length_b   13.06307124
_cell_length_c   13.06307124
_cell_angle_alpha   144.02544714
_cell_angle_beta   144.02544714
_cell_angle_gamma   51.78924171
_symmetry_Int_Tables_number   1
_chemical_formula_structural   Nd6Fe13Sn
_chemical_formula_sum   'Nd12 Fe26 Sn2'
_cell_volume   764.91926441
_cell_formula_units_Z   2
loop_
 _symmetry_equiv_pos_site_id
 _symmetry_equiv_pos_as_xyz
  1  'x, y, z'
loop_
 _atom_site_type_symbol
 _atom_site_label
 _atom_site_symmetry_multiplicity
 _atom_site_fract_x
 _atom_site_fract_y
 _atom_site_fract_z
 _atom_site_occupancy
  Nd  Nd0  1  0.47952300  0.65130000  0.50000000  1
  Nd  Nd1  1  0.39565100  0.39565100  0.00000000  1
  Nd  Nd2  1  0.89565100  0.89565100  0.00000000  1
  Nd  Nd3  1  0.60434900  0.60434900  0.00000000  1
  Nd  Nd4  1  0.52047700  0.34870000  0.50000000  1
  Nd  Nd5  1  0.10434900  0.10434900  0.00000000  1
  Nd  Nd6  1  0.15130000  0.97952300  0.50000000  1
  Nd  Nd7  1  0.97952300  0.47952300  0.82822300  1
  Nd  Nd8  1  0.65130000  0.15130000  0.17177700  1
  Nd  Nd9  1  0.34870000  0.84870000  0.82822300  1
  Nd  Nd10  1  0.02047700  0.52047700  0.17177700  1
  Nd  Nd11  1  0.84870000  0.02047700  0.50000000  1
  Fe  Fe0  1  0.20643800  0.47988700  0.50000000  1
  Fe  Fe1  1  0.02011300  0.29356200  0.50000000  1
  Fe  Fe2  1  0.00000000  0.50000000  0.50000000  1
  Fe  Fe3  1  0.50000000  0.00000000  0.50000000  1
  Fe  Fe4  1  0.43360600  0.70957100  0.14317700  1
  Fe  Fe5  1  0.20957100  0.93360600  0.14317700  1
  Fe  Fe6  1  0.79042900  0.06639400  0.85682300  1
  Fe  Fe7  1  0.06639400  0.20957100  0.27596600  1
  Fe  Fe8  1  0.93360600  0.79042900  0.72403400  1
  Fe  Fe9  1  0.70957100  0.56639400  0.27596600  1
  Fe  Fe10  1  0.29042900  0.43360600  0.72403400  1
  Fe  Fe11  1  0.56639400  0.29042900  0.85682300  1
  Fe  Fe12  1  0.73727500  0.87946200  0.50000000  1
  Fe  Fe13  1  0.79356200  0.52011300  0.50000000  1
  Fe  Fe14  1  0.23727500  0.73727500  0.85781300  1
  Fe  Fe15  1  0.76272500  0.26272500  0.14218700  1
  Fe  Fe16  1  0.12053800  0.62053800  0.85781300  1
  Fe  Fe17  1  0.26272500  0.12053800  0.50000000  1
  Fe  Fe18  1  0.62053800  0.76272500  0.50000000  1
  Fe  Fe19  1  0.37946200  0.23727500  0.50000000  1
  Fe  Fe20  1  0.87946200  0.37946200  0.14218700  1
  Fe  Fe21  1  0.47988700  0.97988700  0.27345000  1
  Fe  Fe22  1  0.70643800  0.20643800  0.72655000  1
  Fe  Fe23  1  0.29356200  0.79356200  0.27345000  1
  Fe  Fe24  1  0.52011300  0.02011300  0.72655000  1
  Fe  Fe25  1  0.97988700  0.70643800  0.50000000  1
  Sn  Sn0  1  0.75000000  0.75000000  0.00000000  1
  Sn  Sn1  1  0.25000000  0.25000000  0.00000000  1
loop_
_geom_bond_atom_site_label_1
_geom_bond_atom_site_label_2
_geom_bond_distance
_geom_bond_site_symmetry_2
Nd0 Sn0 3.385295 1_556
Nd0 Sn1 3.385295 1_555
Nd0 Nd2 3.557138 1_556
Nd0 Nd1 3.557138 1_555
Nd0 Nd4 3.646279 1_555
Nd0 Nd6 3.744939 1_555
Nd0 Nd9 4.057869 1_555
Nd0 Nd10 4.057869 1_555
Nd1 Sn1 3.423242 1_555
Nd1 Nd8 3.557138 1_555
Nd1 Nd7 3.557138 1_454
Nd1 Nd6 3.557138 1_544
Nd2 Sn0 3.423242 1_555
Nd2 Nd8 3.557138 1_565
Nd2 Nd7 3.557138 1_554
Nd2 Nd6 3.557138 1_655
Nd3 Sn0 3.423242 1_555
Nd3 Nd4 3.557138 1_554
Nd3 Nd9 3.557138 1_554
Nd4 Sn0 3.385295 1_556
Nd4 Sn1 3.385295 1_555
Nd4 Nd5 3.557138 1_555
Nd4 Nd7 4.057869 1_555
Nd4 Nd8 4.057869 1_555
Nd5 Sn1 3.423242 1_555
Nd5 Nd9 3.557138 1_544
Nd6 Sn0 3.385295 1_455
Nd6 Sn1 3.385295 1_566
Nd6 Nd9 4.057869 1_555
Nd7 Sn0 3.385295 1_556
Nd7 Sn1 3.385295 1_656
Nd7 Nd8 3.744939 1_555
Nd8 Sn1 3.385295 1_555
Nd8 Sn0 3.385295 1_545
Nd8 Nd9 3.646279 1_544
Nd9 Sn0 3.385295 1_556
Nd9 Sn1 3.385295 1_566
Nd10 Sn0 3.385295 1_455
Nd10 Sn1 3.385295 1_555
Nd10 Nd5 3.557138 1_555
Nd10 Nd3 3.557138 1_455
Nd10 Nd7 3.646279 1_454
Nd10 Nd9 3.744939 1_555
Nd10 Nd6 4.057869 1_555
Nd11 Sn0 3.385295 1_545
Nd11 Sn1 3.385295 1_656
Nd11 Nd5 3.557138 1_656
Nd11 Nd3 3.557138 1_545
Nd11 Nd6 3.646279 1_645
Nd11 Nd4 3.744939 1_555
Nd11 Nd7 4.057869 1_555
Nd11 Nd8 4.057869 1_555
Fe0 Fe19 2.508204 1_555
Fe0 Fe2 2.542591 1_555
Fe0 Fe14 2.550678 1_555
Fe0 Fe20 2.550678 1_455
Fe0 Fe25 2.584888 1_455
Fe0 Fe10 2.641994 1_555
Fe0 Fe7 2.642013 1_555
Fe0 Nd9 3.129513 1_555
Fe0 Nd10 3.129513 1_555
Fe0 Nd5 3.261760 1_555
Fe0 Nd3 3.261760 1_556
Fe0 Nd4 3.326962 1_555
Fe1 Fe17 2.508204 1_555
Fe1 Fe2 2.542591 1_555
Fe1 Fe16 2.550678 1_555
Fe1 Fe15 2.550678 1_455
Fe1 Fe13 2.584888 1_455
Fe1 Fe7 2.641994 1_555
Fe1 Fe10 2.642013 1_555
Fe1 Nd8 3.129513 1_455
Fe1 Nd7 3.129513 1_455
Fe1 Nd2 3.261760 1_445
Fe1 Nd1 3.261760 1_556
Fe1 Nd6 3.326962 1_545
Fe2 Fe9 2.403598 1_455
Fe2 Fe8 2.403598 1_455
Fe2 Fe7 2.403598 1_555
Fe2 Fe20 2.459420 1_455
Fe2 Fe25 2.542591 1_455
Fe3 Fe6 2.403601 1_555
Fe3 Fe4 2.403601 1_545
Fe3 Fe5 2.403601 1_545
Fe4 Fe9 2.508281 1_555
Fe4 Fe5 2.556181 1_555
Fe4 Nd1 3.026646 1_555
Fe4 Nd3 3.026646 1_555
Fe5 Fe7 2.508281 1_565
Fe5 Fe8 2.508285 1_454
Fe5 Nd2 3.026646 1_455
Fe5 Nd5 3.026646 1_565
Fe6 Fe8 2.508281 1_545
Fe6 Fe7 2.508285 1_656
Fe6 Nd2 3.026646 1_546
Fe6 Nd5 3.026646 1_656
Fe7 Nd2 3.026639 1_445
Fe7 Nd5 3.026658 1_555
Fe8 Fe9 2.556170 1_555
Fe8 Nd5 3.026639 1_666
Fe8 Nd2 3.026658 1_556
Fe9 Nd1 3.026639 1_555
Fe9 Nd3 3.026658 1_555
Fe10 Fe2 2.403598 1_555
Fe10 Fe19 2.483078 1_555
Fe10 Fe17 2.483091 1_555
Fe10 Fe11 2.508281 1_555
Fe10 Fe4 2.508285 1_556
Fe10 Fe7 2.556170 1_555
Fe10 Fe14 2.570633 1_555
Fe10 Fe16 2.570645 1_555
Fe10 Nd3 3.026639 1_556
Fe10 Nd1 3.026658 1_556
Fe11 Fe3 2.403601 1_555
Fe11 Fe15 2.483087 1_556
Fe11 Fe20 2.483087 1_556
Fe11 Fe9 2.508285 1_556
Fe11 Fe6 2.556181 1_555
Fe11 Fe19 2.570637 1_555
Fe11 Fe17 2.570637 1_555
Fe11 Fe24 2.641998 1_555
Fe11 Fe22 2.642018 1_555
Fe11 Nd1 3.026646 1_556
Fe11 Nd3 3.026646 1_556
Fe12 Fe3 2.459420 1_565
Fe12 Fe8 2.483078 1_555
Fe12 Fe9 2.483091 1_555
Fe12 Fe25 2.508204 1_555
Fe12 Fe21 2.550672 1_555
Fe12 Fe22 2.550679 1_565
Fe12 Fe4 2.570637 1_555
Fe12 Fe6 2.570637 1_565
Fe12 Fe18 2.743675 1_555
Fe12 Nd11 2.971353 1_565
Fe12 Nd5 3.156301 1_666
Fe12 Nd3 3.156301 1_555
Fe13 Fe18 2.508204 1_555
Fe13 Fe2 2.542591 1_655
Fe13 Fe16 2.550678 1_655
Fe13 Fe15 2.550678 1_555
Fe13 Fe9 2.641994 1_555
Fe13 Fe8 2.642013 1_555
Fe13 Nd7 3.129513 1_555
Fe13 Nd8 3.129513 1_555
Fe13 Nd2 3.261760 1_556
Fe13 Nd1 3.261760 1_555
Fe13 Nd0 3.326962 1_555
Fe14 Fe2 2.459420 1_555
Fe14 Fe4 2.483087 1_556
Fe14 Fe5 2.483087 1_556
Fe14 Fe21 2.508206 1_556
Fe14 Fe25 2.550678 1_455
Fe14 Fe8 2.570633 1_455
Fe14 Fe16 2.743675 1_555
Fe14 Nd9 2.971353 1_555
Fe14 Nd5 3.156301 1_566
Fe14 Nd3 3.156301 1_556
Fe15 Fe2 2.459420 1_655
Fe15 Fe6 2.483087 1_554
Fe15 Fe24 2.508206 1_554
Fe15 Fe7 2.570633 1_655
Fe15 Fe9 2.570633 1_555
Fe15 Fe20 2.743675 1_555
Fe15 Nd8 2.971353 1_555
Fe15 Nd2 3.156301 1_545
Fe15 Nd1 3.156301 1_555
Fe16 Fe2 2.459420 1_555
Fe16 Fe5 2.483087 1_556
Fe16 Fe4 2.483087 1_556
Fe16 Fe23 2.508213 1_556
Fe16 Fe8 2.570645 1_455
Fe16 Nd7 2.971353 1_455
Fe16 Nd2 3.156301 1_456
Fe16 Nd1 3.156301 1_556
Fe17 Fe3 2.459420 1_555
Fe17 Fe7 2.483078 1_555
Fe17 Fe24 2.550672 1_555
Fe17 Fe23 2.550679 1_545
Fe17 Fe5 2.570637 1_545
Fe17 Fe19 2.743675 1_555
Fe17 Nd6 2.971353 1_545
Fe17 Nd2 3.156301 1_445
Fe17 Nd1 3.156301 1_556
Fe18 Fe3 2.459420 1_565
Fe18 Fe9 2.483078 1_555
Fe18 Fe8 2.483091 1_555
Fe18 Fe24 2.550672 1_565
Fe18 Fe23 2.550679 1_555
Fe18 Fe6 2.570637 1_565
Fe18 Fe4 2.570637 1_555
Fe18 Nd0 2.971353 1_555
Fe18 Nd1 3.156301 1_555
Fe18 Nd2 3.156301 1_556
Fe19 Fe3 2.459420 1_555
Fe19 Fe7 2.483091 1_555
Fe19 Fe21 2.550672 1_545
Fe19 Fe22 2.550679 1_555
Fe19 Fe5 2.570637 1_545
Fe19 Nd4 2.971353 1_555
Fe19 Nd3 3.156301 1_556
Fe19 Nd5 3.156301 1_555
Fe20 Fe6 2.483087 1_554
Fe20 Fe22 2.508213 1_554
Fe20 Fe25 2.550678 1_555
Fe20 Fe9 2.570645 1_555
Fe20 Fe7 2.570645 1_655
Fe20 Nd10 2.971353 1_655
Fe20 Nd5 3.156301 1_655
Fe20 Nd3 3.156301 1_555
Fe21 Fe3 2.542578 1_565
Fe21 Fe22 2.584876 1_565
Fe21 Fe4 2.641998 1_555
Fe21 Fe5 2.641998 1_555
Fe21 Nd4 3.129518 1_565
Fe21 Nd11 3.129518 1_565
Fe21 Nd5 3.261764 1_565
Fe21 Nd3 3.261764 1_555
Fe21 Nd9 3.326974 1_554
Fe22 Fe3 2.542599 1_555
Fe22 Fe6 2.642018 1_555
Fe22 Nd11 3.129502 1_555
Fe22 Nd4 3.129502 1_555
Fe22 Nd5 3.261762 1_656
Fe22 Nd3 3.261762 1_556
Fe22 Nd10 3.326958 1_656
Fe23 Fe3 2.542599 1_565
Fe23 Fe24 2.584876 1_565
Fe23 Fe5 2.642018 1_555
Fe23 Fe4 2.642018 1_555
Fe23 Nd0 3.129502 1_555
Fe23 Nd6 3.129502 1_555
Fe23 Nd1 3.261762 1_555
Fe23 Nd2 3.261762 1_455
Fe23 Nd7 3.326958 1_454
Fe24 Fe3 2.542578 1_555
Fe24 Fe6 2.641998 1_555
Fe24 Nd6 3.129518 1_545
Fe24 Nd0 3.129518 1_545
Fe24 Nd1 3.261764 1_556
Fe24 Nd2 3.261764 1_546
Fe24 Nd8 3.326974 1_556
Fe25 Fe8 2.641994 1_555
Fe25 Fe9 2.642013 1_555
Fe25 Nd9 3.129513 1_655
Fe25 Nd10 3.129513 1_655
Fe25 Nd3 3.261760 1_555
Fe25 Nd5 3.261760 1_666
Fe25 Nd11 3.326962 1_565
