# generated using pymatgen
data_Na6Mg4Ta2P6(SO12)3
_symmetry_space_group_name_H-M   'P 1'
_cell_length_a   8.85882672
_cell_length_b   8.83307777
_cell_length_c   22.39744682
_cell_angle_alpha   90.23562524
_cell_angle_beta   90.00000000
_cell_angle_gamma   120.09647636
_symmetry_Int_Tables_number   1
_chemical_formula_structural   Na6Mg4Ta2P6(SO12)3
_chemical_formula_sum   'Na12 Mg8 Ta4 P12 S6 O72'
_cell_volume   1516.31515457
_cell_formula_units_Z   2
loop_
 _symmetry_equiv_pos_site_id
 _symmetry_equiv_pos_as_xyz
  1  'x, y, z'
loop_
 _atom_site_type_symbol
 _atom_site_label
 _atom_site_symmetry_multiplicity
 _atom_site_fract_x
 _atom_site_fract_y
 _atom_site_fract_z
 _atom_site_occupancy
  Na  Na0  1  0.99524333  0.63954978  0.24561656  1
  Na  Na1  1  0.64430645  0.63954978  0.74561656  1
  Na  Na2  1  0.30373007  0.33972784  0.58625359  1
  Na  Na3  1  0.66778319  0.95719264  0.58408838  1
  Na  Na4  1  0.28941046  0.95719264  0.08408838  1
  Na  Na5  1  0.03599877  0.33972784  0.08625359  1
  Na  Na6  1  0.99499097  0.98420119  0.49065522  1
  Na  Na7  1  0.98921023  0.98420119  0.99065522  1
  Na  Na8  1  0.65694374  0.30983951  0.82499400  1
  Na  Na9  1  0.65289677  0.30983951  0.32499400  1
  Na  Na10  1  0.34467480  0.66660753  0.16547410  1
  Na  Na11  1  0.32193173  0.66660753  0.66547410  1
  Mg  Mg0  1  0.00640650  0.01076214  0.35243971  1
  Mg  Mg1  1  0.00435564  0.01076214  0.85243971  1
  Mg  Mg2  1  0.99471835  0.99439242  0.65420362  1
  Mg  Mg3  1  0.99967407  0.99439242  0.15420362  1
  Mg  Mg4  1  0.65980319  0.32703817  0.68735978  1
  Mg  Mg5  1  0.66723599  0.32703817  0.18735978  1
  Mg  Mg6  1  0.33308407  0.66809815  0.01432163  1
  Mg  Mg7  1  0.33501308  0.66809815  0.51432163  1
  Ta  Ta0  1  0.67415083  0.34396489  0.97425363  1
  Ta  Ta1  1  0.66981506  0.34396489  0.47425363  1
  Ta  Ta2  1  0.33232901  0.66729320  0.31574718  1
  Ta  Ta3  1  0.33496319  0.66729320  0.81574718  1
  P  P0  1  0.29603286  0.00514710  0.25010440  1
  P  P1  1  0.99735983  0.28994091  0.24940986  1
  P  P2  1  0.29258108  0.28994091  0.74940986  1
  P  P3  1  0.70911425  0.00514710  0.75010440  1
  P  P4  1  0.66964434  0.62822465  0.58574037  1
  P  P5  1  0.95858131  0.62822465  0.08574037  1
  P  P6  1  0.62861890  0.67610282  0.91846794  1
  P  P7  1  0.04616022  0.37211348  0.92004505  1
  P  P8  1  0.32721692  0.95734634  0.92049784  1
  P  P9  1  0.63012842  0.95734634  0.42049784  1
  P  P10  1  0.32595227  0.37211348  0.42004505  1
  P  P11  1  0.04748292  0.67610282  0.41846794  1
  S  S0  1  0.70617908  0.70849292  0.25078321  1
  S  S1  1  0.00231384  0.70849292  0.75078321  1
  S  S2  1  0.95673522  0.33748447  0.58376806  1
  S  S3  1  0.37589442  0.04144172  0.58288501  1
  S  S4  1  0.66554830  0.04144172  0.08288501  1
  S  S5  1  0.38075025  0.33748447  0.08376806  1
  O  O0  1  0.20175073  0.01754614  0.30406312  1
  O  O1  1  0.81347134  0.78841073  0.30357661  1
  O  O2  1  0.97366556  0.17830912  0.30276332  1
  O  O3  1  0.20464356  0.17830912  0.80276332  1
  O  O4  1  0.97493939  0.78841073  0.80357661  1
  O  O5  1  0.81579541  0.01754614  0.80406312  1
  O  O6  1  0.76663269  0.95218499  0.69175376  1
  O  O7  1  0.19318354  0.22455752  0.68971006  1
  O  O8  1  0.03665247  0.81298762  0.69624216  1
  O  O9  1  0.77633515  0.81298762  0.19624216  1
  O  O10  1  0.03137398  0.22455752  0.18971006  1
  O  O11  1  0.18555230  0.95218499  0.19175376  1
  O  O12  1  0.87285561  0.35646195  0.63644205  1
  O  O13  1  0.48580372  0.12206303  0.63543906  1
  O  O14  1  0.64154866  0.51476218  0.64021497  1
  O  O15  1  0.87321451  0.51476218  0.14021497  1
  O  O16  1  0.63626031  0.12206303  0.13543906  1
  O  O17  1  0.48360734  0.35646195  0.13644205  1
  O  O18  1  0.46819713  0.31132500  0.02913771  1
  O  O19  1  0.83768389  0.52144973  0.02921149  1
  O  O20  1  0.68907496  0.15547622  0.02869789  1
  O  O21  1  0.46640226  0.15547622  0.52869789  1
  O  O22  1  0.68376684  0.52144973  0.52921149  1
  O  O23  1  0.84312888  0.31132500  0.52913771  1
  O  O24  1  0.53950402  0.69212330  0.97307236  1
  O  O25  1  0.14203390  0.45332844  0.97768136  1
  O  O26  1  0.31080393  0.85968675  0.97780555  1
  O  O27  1  0.54888182  0.85968675  0.47780555  1
  O  O28  1  0.31129354  0.45332844  0.47768136  1
  O  O29  1  0.15261827  0.69212330  0.47307236  1
  O  O30  1  0.12979955  0.63862033  0.36097099  1
  O  O31  1  0.50323678  0.86449227  0.36541547  1
  O  O32  1  0.36074203  0.49705728  0.36525903  1
  O  O33  1  0.13631424  0.49705728  0.86525903  1
  O  O34  1  0.36125449  0.86449227  0.86541547  1
  O  O35  1  0.50881978  0.63862033  0.86097099  1
  O  O36  1  0.01197296  0.82250270  0.40862278  1
  O  O37  1  0.80826946  0.98325222  0.40962963  1
  O  O38  1  0.17625212  0.19025999  0.41133906  1
  O  O39  1  0.01400787  0.19025999  0.91133906  1
  O  O40  1  0.17498277  0.98325222  0.90962963  1
  O  O41  1  0.81052974  0.82250270  0.90862278  1
  O  O42  1  0.97170913  0.17600216  0.58494966  1
  O  O43  1  0.20536001  0.03326560  0.58626312  1
  O  O44  1  0.83356683  0.81030512  0.58502655  1
  O  O45  1  0.97673829  0.81030512  0.08502655  1
  O  O46  1  0.82790559  0.03326560  0.08626312  1
  O  O47  1  0.20429304  0.17600216  0.08494966  1
  O  O48  1  0.68111638  0.16051369  0.74368099  1
  O  O49  1  0.48545177  0.33651394  0.74583744  1
  O  O50  1  0.84826600  0.53145055  0.74385915  1
  O  O51  1  0.68318554  0.53145055  0.24385915  1
  O  O52  1  0.85106316  0.33651394  0.24583744  1
  O  O53  1  0.47939831  0.16051369  0.24368099  1
  O  O54  1  0.63430109  0.49625321  0.92363586  1
  O  O55  1  0.85933176  0.36300730  0.92335495  1
  O  O56  1  0.50403733  0.14284705  0.92551113  1
  O  O57  1  0.63881073  0.14284705  0.42551113  1
  O  O58  1  0.50367654  0.36300730  0.42335495  1
  O  O59  1  0.86195312  0.49625321  0.42363586  1
  O  O60  1  0.35824081  0.49166229  0.07744320  1
  O  O61  1  0.14064138  0.64388800  0.07871771  1
  O  O62  1  0.50912235  0.86667830  0.07612045  1
  O  O63  1  0.35755495  0.86667830  0.57612045  1
  O  O64  1  0.50324562  0.64388800  0.57871771  1
  O  O65  1  0.13342048  0.49166229  0.57744320  1
  O  O66  1  0.31448140  0.83077387  0.26029049  1
  O  O67  1  0.52558613  0.68795221  0.25828862  1
  O  O68  1  0.17201997  0.48313331  0.25952915  1
  O  O69  1  0.31111233  0.48313331  0.75952915  1
  O  O70  1  0.16236508  0.68795221  0.75828862  1
  O  O71  1  0.51629147  0.83077387  0.76029049  1
loop_
_geom_bond_atom_site_label_1
_geom_bond_atom_site_label_2
_geom_bond_distance
_geom_bond_site_symmetry_2
Na0 O52 2.316808 1_555
Na0 O51 2.430619 1_555
Na0 O66 2.482678 1_655
Na0 O68 2.575272 1_655
Na0 O15 2.596186 1_555
Na0 O11 2.698492 1_655
Na0 O30 2.847133 1_655
Na0 O1 2.848982 1_555
Na1 O49 2.316808 1_555
Na1 O50 2.430627 1_555
Na1 O71 2.482685 1_555
Na1 O69 2.575280 1_555
Na1 O14 2.596188 1_555
Na1 O6 2.698492 1_555
Na1 O35 2.847137 1_555
Na1 O4 2.848982 1_555
Na2 O64 2.368949 1_555
Na2 O43 2.391948 1_555
Na2 O65 2.479764 1_555
Na2 O7 2.526544 1_555
Na2 O42 2.545036 1_455
Na2 O28 2.622478 1_555
Na2 O14 2.855067 1_555
Na2 O21 2.953346 1_555
Na3 O64 2.397810 1_555
Na3 O44 2.398354 1_555
Na3 O42 2.401210 1_565
Na3 O63 2.453393 1_555
Na3 O27 2.567331 1_555
Na3 O6 2.573618 1_555
Na4 O61 2.397809 1_555
Na4 O45 2.398362 1_455
Na4 O47 2.401216 1_565
Na4 O62 2.453376 1_555
Na4 O26 2.567327 1_554
Na4 O11 2.573621 1_555
Na5 O61 2.368952 1_555
Na5 O46 2.391950 1_455
Na5 O60 2.479748 1_555
Na5 O10 2.526542 1_555
Na5 O47 2.545028 1_555
Na5 O25 2.622475 1_554
Na5 O15 2.855067 1_455
Na5 O20 2.953346 1_455
Na6 O36 2.373249 1_655
Na6 O37 2.452667 1_555
Na6 O38 2.478429 1_665
Na6 O44 2.587614 1_555
Na6 O43 2.725570 1_665
Na6 O42 2.773842 1_565
Na7 O41 2.373249 1_555
Na7 O40 2.452667 1_655
Na7 O39 2.478429 1_665
Na7 O45 2.587614 1_556
Na7 O46 2.725570 1_566
Na7 O47 2.773842 1_666
Na8 O48 2.316449 1_555
Na8 O49 2.422635 1_555
Na8 O50 2.590093 1_555
Na8 O56 2.665061 1_555
Na8 O55 2.726811 1_555
Na8 O54 2.816736 1_555
Na9 O53 2.316449 1_555
Na9 O52 2.422635 1_555
Na9 O51 2.590093 1_555
Na9 O57 2.665061 1_555
Na9 O58 2.726811 1_555
Na9 O59 2.816736 1_555
Na10 O60 2.539897 1_555
Na10 O67 2.572790 1_555
Na10 O62 2.587985 1_555
Na10 O61 2.591532 1_555
Na10 O68 2.635469 1_555
Na10 O66 2.654780 1_555
Na11 O65 2.539897 1_555
Na11 O70 2.572790 1_555
Na11 O63 2.587985 1_555
Na11 O64 2.591532 1_555
Na11 O69 2.635469 1_555
Na11 O71 2.654780 1_555
Mg0 O2 1.989065 1_455
Mg0 O0 2.017133 1_555
Mg0 O38 2.026890 1_555
Mg0 O37 2.086986 1_445
Mg0 O36 2.109649 1_545
Mg0 O1 2.142926 1_445
Mg1 O3 1.989065 1_555
Mg1 O5 2.017133 1_455
Mg1 O39 2.026890 1_555
Mg1 O40 2.086986 1_545
Mg1 O41 2.109649 1_445
Mg1 O4 2.142926 1_445
Mg2 O6 2.043551 1_555
Mg2 O8 2.049756 1_655
Mg2 O7 2.063675 1_665
Mg2 O44 2.175748 1_555
Mg2 O43 2.297225 1_665
Mg2 O42 2.317169 1_565
Mg3 O11 2.043551 1_655
Mg3 O9 2.049756 1_555
Mg3 O10 2.063675 1_665
Mg3 O45 2.175748 1_555
Mg3 O46 2.297225 1_565
Mg3 O47 2.317169 1_665
Mg4 O48 2.020970 1_555
Mg4 O14 2.043042 1_555
Mg4 O13 2.046986 1_555
Mg4 O49 2.058358 1_555
Mg4 O12 2.107333 1_555
Mg4 O50 2.146347 1_555
Mg5 O53 2.020970 1_555
Mg5 O15 2.043042 1_555
Mg5 O16 2.046986 1_555
Mg5 O52 2.058358 1_555
Mg5 O17 2.107333 1_555
Mg5 O51 2.146347 1_555
Mg6 O24 1.963395 1_554
Mg6 O25 1.975836 1_554
Mg6 O26 1.979439 1_554
Mg6 O62 2.158985 1_555
Mg6 O61 2.160852 1_555
Mg6 O60 2.200836 1_555
Mg7 O29 1.963395 1_555
Mg7 O28 1.975836 1_555
Mg7 O27 1.979439 1_555
Mg7 O63 2.158985 1_555
Mg7 O64 2.160852 1_555
Mg7 O65 2.200836 1_555
O0 P0 1.503602 1_555
O1 S0 1.456061 1_555
O2 P1 1.498817 1_555
O3 P2 1.498817 1_555
O4 S1 1.456061 1_655
O5 P3 1.503602 1_555
O6 P3 1.555807 1_565
O7 P2 1.542863 1_555
O8 S1 1.471196 1_555
O9 S0 1.471196 1_555
O10 P1 1.542863 1_455
O11 P0 1.555807 1_565
O12 S2 1.447549 1_555
O13 S3 1.462318 1_555
O14 P4 1.521481 1_555
O15 P5 1.521481 1_555
O16 S4 1.462318 1_555
O17 S5 1.447549 1_555
O18 S5 1.525734 1_555
O18 Ta0 2.097236 1_554
O19 P5 1.617628 1_555
O19 Ta0 1.943715 1_554
O20 S4 1.526599 1_555
O20 Ta0 2.124598 1_554
O21 S3 1.526599 1_555
O21 Ta1 2.124598 1_555
O22 P4 1.617628 1_555
O22 Ta1 1.943715 1_555
O23 S2 1.525734 1_555
O23 Ta1 2.097236 1_555
O24 P6 1.499869 1_555
O25 P7 1.511207 1_555
O26 P8 1.515284 1_555
O27 P9 1.515284 1_555
O28 P10 1.511207 1_555
O29 P11 1.499869 1_555
O30 P11 1.593241 1_555
O30 Ta2 1.963553 1_555
O31 P9 1.589141 1_555
O31 Ta2 1.975622 1_555
O32 P10 1.577563 1_555
O32 Ta2 1.986844 1_555
O33 P7 1.577563 1_555
O33 Ta3 1.986844 1_555
O34 P8 1.589141 1_555
O34 Ta3 1.975622 1_555
O35 P6 1.593241 1_555
O35 Ta3 1.963553 1_555
O36 P11 1.493378 1_555
O37 P9 1.496785 1_555
O38 P10 1.495989 1_555
O39 P7 1.495992 1_555
O40 P8 1.496777 1_555
O41 P6 1.493384 1_555
O42 S2 1.497647 1_555
O43 S3 1.477796 1_555
O44 P4 1.534146 1_555
O45 P5 1.534150 1_555
O46 S4 1.477787 1_555
O47 S5 1.497652 1_555
O48 P3 1.519409 1_555
O49 P2 1.546062 1_555
O50 S1 1.479738 1_655
O51 S0 1.479741 1_555
O52 P1 1.546054 1_555
O53 P0 1.519414 1_555
O54 P6 1.619066 1_555
O54 Ta0 1.925673 1_555
O55 P7 1.617959 1_655
O55 Ta0 1.934922 1_555
O56 P8 1.604824 1_545
O56 Ta0 1.979361 1_555
O57 P9 1.604816 1_545
O57 Ta1 1.979361 1_555
O58 P10 1.617977 1_555
O58 Ta1 1.934922 1_555
O59 P11 1.619057 1_655
O59 Ta1 1.925673 1_555
O60 S5 1.479341 1_555
O61 P5 1.556121 1_455
O62 S4 1.476118 1_565
O63 S3 1.476111 1_565
O64 P4 1.556139 1_555
O65 S2 1.479331 1_455
O66 P0 1.645141 1_565
O66 Ta2 1.974021 1_555
O67 S0 1.526370 1_555
O67 Ta2 2.075845 1_555
O68 P1 1.645068 1_455
O68 Ta2 1.978553 1_555
O69 P2 1.645072 1_555
O69 Ta3 1.978553 1_555
O70 S1 1.526361 1_555
O70 Ta3 2.075845 1_555
O71 P3 1.645146 1_565
O71 Ta3 1.974021 1_555
