# generated using pymatgen
data_Li5BiO5
_symmetry_space_group_name_H-M   'P 1'
_cell_length_a   4.20732745
_cell_length_b   5.34319704
_cell_length_c   5.95063196
_cell_angle_alpha   107.80650343
_cell_angle_beta   90.00000000
_cell_angle_gamma   113.18546412
_symmetry_Int_Tables_number   1
_chemical_formula_structural   Li5BiO5
_chemical_formula_sum   'Li5 Bi1 O5'
_cell_volume   115.96546012
_cell_formula_units_Z   1
loop_
 _symmetry_equiv_pos_site_id
 _symmetry_equiv_pos_as_xyz
  1  'x, y, z'
loop_
 _atom_site_type_symbol
 _atom_site_label
 _atom_site_symmetry_multiplicity
 _atom_site_fract_x
 _atom_site_fract_y
 _atom_site_fract_z
 _atom_site_occupancy
  Li  Li0  1  0.70395806  0.40791611  0.35692007  1
  Li  Li1  1  0.99067414  0.98134929  0.51579067  1
  Li  Li2  1  0.30573315  0.61146630  0.15629698  1
  Li  Li3  1  0.68392640  0.36785381  0.87454161  1
  Li  Li4  1  0.28033450  0.56067000  0.66951414  1
  Bi  Bi0  1  0.99445706  0.98891212  0.01602056  1
  O  O0  1  0.84371944  0.68743789  0.19429477  1
  O  O1  1  0.49565933  0.99131965  0.02119441  1
  O  O2  1  0.16016548  0.32032997  0.34252472  1
  O  O3  1  0.82939996  0.65879992  0.68755640  1
  O  O4  1  0.14397247  0.28794595  0.83534667  1
loop_
_geom_bond_atom_site_label_1
_geom_bond_atom_site_label_2
_geom_bond_distance
_geom_bond_site_symmetry_2
Li0 O0 1.924931 1_555
Li0 O3 1.943295 1_555
Li0 O2 2.143193 1_555
Li0 O2 2.143197 1_655
Li0 O1 2.336273 1_545
Li1 O0 1.976466 1_555
Li1 O4 1.994596 1_665
Li1 O3 2.152197 1_555
Li1 O2 2.230982 1_665
Li2 O4 2.037978 1_554
Li2 O2 2.080185 1_555
Li2 O0 2.135327 1_455
Li2 O0 2.135331 1_555
Li2 O1 2.263883 1_555
Li3 O0 2.024138 1_556
Li3 O3 2.082812 1_555
Li3 O4 2.138442 1_655
Li3 O4 2.138442 1_555
Li3 O1 2.292528 1_546
Li4 O4 1.909872 1_555
Li4 O2 1.910853 1_555
Li4 O3 2.152857 1_455
Li4 O3 2.152861 1_555
Li4 O1 2.430720 1_556
Bi0 O2 2.078553 1_665
Bi0 O3 2.083437 1_554
Bi0 O0 2.088807 1_555
Bi0 O4 2.088961 1_664
Bi0 O1 2.103858 1_655
Bi0 O1 2.103871 1_555
