# generated using pymatgen
data_K2ReH9
_symmetry_space_group_name_H-M   'P 1'
_cell_length_a   9.50581380
_cell_length_b   9.50575318
_cell_length_c   5.53008987
_cell_angle_alpha   90.00073334
_cell_angle_beta   89.99953515
_cell_angle_gamma   120.00016775
_symmetry_Int_Tables_number   1
_chemical_formula_structural   K2ReH9
_chemical_formula_sum   'K6 Re3 H27'
_cell_volume   432.75084392
_cell_formula_units_Z   3
loop_
 _symmetry_equiv_pos_site_id
 _symmetry_equiv_pos_as_xyz
  1  'x, y, z'
loop_
 _atom_site_type_symbol
 _atom_site_label
 _atom_site_symmetry_multiplicity
 _atom_site_fract_x
 _atom_site_fract_y
 _atom_site_fract_z
 _atom_site_occupancy
  K  K0  1  0.00000861  0.26229658  0.49997761  1
  K  K1  1  0.73771312  0.73768971  0.49999111  1
  K  K2  1  0.26228821  -0.00001453  0.49998544  1
  K  K3  1  0.00000240  0.59151602  0.00001114  1
  K  K4  1  0.40860535  0.40857878  0.00002504  1
  K  K5  1  0.59138687  -0.00001956  0.00001892  1
  Re  Re0  1  0.66667344  0.33334726  0.50000064  1
  Re  Re1  1  0.33334070  0.66666382  0.49999516  1
  Re  Re2  1  0.00000925  -0.00000689  0.00002168  1
  H  H0  1  0.77653710  0.30785001  0.72131030  1
  H  H1  1  0.69215792  0.46870642  0.72131217  1
  H  H2  1  0.53130203  0.22346597  0.72132105  1
  H  H3  1  0.22345948  0.53129694  0.27868429  1
  H  H4  1  0.53130418  0.22346644  0.27867249  1
  H  H5  1  0.77653510  0.30784942  0.27868283  1
  H  H6  1  0.69215788  0.46870412  0.27868676  1
  H  H7  1  0.30784169  0.77653770  0.72132132  1
  H  H8  1  0.46869119  0.69215172  0.72132175  1
  H  H9  1  0.17631912  -0.00000379  -0.00000659  1
  H  H10  1  0.82368137  0.82367398  -0.00000555  1
  H  H11  1  0.00000329  0.17631304  -0.00000494  1
  H  H12  1  0.87270770  -0.00000601  0.21518078  1
  H  H13  1  0.12729734  0.12728943  0.78480991  1
  H  H14  1  0.00000266  0.87269545  0.78480871  1
  H  H15  1  0.00000164  0.87269977  0.21517735  1
  H  H16  1  0.12729533  0.12728823  0.21518083  1
  H  H17  1  0.87270730  -0.00000500  0.78480998  1
  H  H18  1  0.14235499  0.63143327  0.50000732  1
  H  H19  1  0.48907481  0.85762898  0.50000878  1
  H  H20  1  0.36855851  0.51091732  0.50000587  1
  H  H21  1  0.51091856  0.36856458  0.49999897  1
  H  H22  1  0.85763397  0.48908071  0.49999852  1
  H  H23  1  0.63143763  0.14236589  0.49999524  1
  H  H24  1  0.22345839  0.53129740  0.72131993  1
  H  H25  1  0.30784148  0.77653514  0.27868959  1
  H  H26  1  0.46869237  0.69215068  0.27868659  1
loop_
_geom_bond_atom_site_label_1
_geom_bond_atom_site_label_2
_geom_bond_distance
_geom_bond_site_symmetry_2
H0 Re0 1.703051 1_555
H0 K0 2.667962 1_655
H0 K3 2.903562 1_656
H0 K5 2.981123 1_556
H1 Re0 1.703051 1_555
H1 K1 2.667589 1_555
H1 K4 2.902903 1_556
H1 K3 2.980831 1_656
H2 Re0 1.703169 1_555
H2 K2 2.667936 1_555
H2 K5 2.903123 1_556
H2 K4 2.980664 1_556
H3 Re1 1.703101 1_555
H3 K0 2.667673 1_555
H3 K3 2.903550 1_555
H3 K4 2.980929 1_555
H4 Re0 1.703185 1_555
H4 K2 2.667897 1_555
H4 K5 2.902952 1_555
H4 K4 2.980546 1_555
H5 Re0 1.703056 1_555
H5 K0 2.667900 1_655
H5 K3 2.903503 1_655
H5 K5 2.980966 1_555
H6 Re0 1.703067 1_555
H6 K1 2.667538 1_555
H6 K4 2.902774 1_555
H6 K3 2.980753 1_655
H7 Re1 1.703168 1_555
H7 K2 2.667786 1_565
H7 K5 2.902861 1_566
H7 K3 2.980750 1_556
H8 Re1 1.703069 1_555
H8 K1 2.667982 1_555
H8 K4 2.903150 1_556
H8 K5 2.980781 1_566
H9 Re2 1.675954 1_555
H9 K2 2.883258 1_555
H9 K2 2.883330 1_554
H10 Re2 1.676089 1_665
H10 K1 2.883283 1_555
H10 K1 2.883311 1_554
H11 Re2 1.676082 1_555
H11 K0 2.883207 1_555
H11 K0 2.883412 1_554
H12 Re2 1.697080 1_655
H12 K0 2.672910 1_655
H12 K1 2.672990 1_545
H12 K5 2.926900 1_555
H13 Re2 1.697224 1_556
H13 K2 2.672956 1_555
H13 K0 2.673021 1_555
H13 K4 2.926858 1_556
H14 Re2 1.697228 1_566
H14 K2 2.672905 1_565
H14 K1 2.672919 1_455
H14 K3 2.925810 1_556
H15 Re2 1.696995 1_565
H15 K2 2.672869 1_565
H15 K1 2.672896 1_455
H15 K3 2.925743 1_555
H16 Re2 1.697001 1_555
H16 K0 2.672869 1_555
H16 K2 2.672927 1_555
H16 K4 2.926749 1_555
H17 Re2 1.697304 1_656
H17 K1 2.672999 1_545
H17 K0 2.673045 1_655
H17 K5 2.926980 1_556
H18 Re1 1.673353 1_555
H18 K3 3.017781 1_555
H18 K3 3.017808 1_556
H19 Re1 1.673147 1_555
H19 K5 3.017630 1_565
H19 K5 3.017715 1_566
H20 Re1 1.673185 1_555
H20 K4 3.017680 1_555
H20 K4 3.017903 1_556
H21 Re0 1.673269 1_555
H21 K4 3.017491 1_555
H21 K4 3.017732 1_556
H22 Re0 1.673121 1_555
H22 K3 3.017773 1_655
H22 K3 3.017899 1_656
H23 Re0 1.673283 1_555
H23 K5 3.017653 1_555
H23 K5 3.017919 1_556
H24 Re1 1.703169 1_555
H24 K0 2.667782 1_555
H24 K3 2.903565 1_556
H24 K4 2.981101 1_556
H25 Re1 1.703092 1_555
H25 K2 2.667677 1_565
H25 K5 2.902795 1_565
H25 K3 2.980715 1_555
H26 Re1 1.702997 1_555
H26 K1 2.667917 1_555
H26 K4 2.902985 1_555
H26 K5 2.980734 1_565
