# generated using pymatgen
data_Na7Y2Nb2Si5PO24
_symmetry_space_group_name_H-M   'P 1'
_cell_length_a   9.31971111
_cell_length_b   9.32871930
_cell_length_c   22.70792127
_cell_angle_alpha   90.24486816
_cell_angle_beta   89.77153509
_cell_angle_gamma   119.97659738
_symmetry_Int_Tables_number   1
_chemical_formula_structural   Na7Y2Nb2Si5PO24
_chemical_formula_sum   'Na21 Y6 Nb6 Si15 P3 O72'
_cell_volume   1710.13303149
_cell_formula_units_Z   3
loop_
 _symmetry_equiv_pos_site_id
 _symmetry_equiv_pos_as_xyz
  1  'x, y, z'
loop_
 _atom_site_type_symbol
 _atom_site_label
 _atom_site_symmetry_multiplicity
 _atom_site_fract_x
 _atom_site_fract_y
 _atom_site_fract_z
 _atom_site_occupancy
  Na  Na0  1  0.65116548  0.01638820  0.25026563  1
  Na  Na1  1  0.37110603  0.35972628  0.24683198  1
  Na  Na2  1  0.98445741  0.62769120  0.24690208  1
  Na  Na3  1  0.63823220  0.62656442  0.74847612  1
  Na  Na4  1  0.98404763  0.35211833  0.74754734  1
  Na  Na5  1  0.37044336  0.01681876  0.74702632  1
  Na  Na6  1  0.31127723  0.34419962  0.58218089  1
  Na  Na7  1  0.03785586  0.69418826  0.57960370  1
  Na  Na8  1  0.65303329  0.95932123  0.58037916  1
  Na  Na9  1  0.30024967  0.96264970  0.07650663  1
  Na  Na10  1  0.03669145  0.34692945  0.08101862  1
  Na  Na11  1  0.98185179  0.68048628  0.91410031  1
  Na  Na12  1  0.31721037  0.29103228  0.91360570  1
  Na  Na13  1  0.32096739  0.02300350  0.41400812  1
  Na  Na14  1  0.70793471  0.67980171  0.41334200  1
  Na  Na15  1  0.99194738  0.00423149  0.49613494  1
  Na  Na16  1  0.98315530  0.99861063  0.99769711  1
  Na  Na17  1  0.66765899  0.32141727  0.83079624  1
  Na  Na18  1  0.67745537  0.33272180  0.33145169  1
  Na  Na19  1  0.33979662  0.65595631  0.16209734  1
  Na  Na20  1  0.33595580  0.66658378  0.66210310  1
  Y  Y0  1  0.99867971  0.00622167  0.35100295  1
  Y  Y1  1  0.99436751  0.00191820  0.85203404  1
  Y  Y2  1  0.66673095  0.33385284  0.68238968  1
  Y  Y3  1  0.66625613  0.33845774  0.18174408  1
  Y  Y4  1  0.33934966  0.66713049  0.01795334  1
  Y  Y5  1  0.33096038  0.66521646  0.51513247  1
  Nb  Nb0  1  0.99909159  0.99863822  0.64759182  1
  Nb  Nb1  1  0.00270169  0.99556805  0.14830758  1
  Nb  Nb2  1  0.66579734  0.33313304  0.98130847  1
  Nb  Nb3  1  0.67586278  0.33219171  0.48198283  1
  Nb  Nb4  1  0.32807658  0.66929934  0.31388110  1
  Nb  Nb5  1  0.32885650  0.67057608  0.81366430  1
  Si  Si0  1  0.29542966  0.99318081  0.25199574  1
  Si  Si1  1  0.70031756  0.70843896  0.25211415  1
  Si  Si2  1  0.00692285  0.30031471  0.24789609  1
  Si  Si3  1  0.29201322  0.30032780  0.75178490  1
  Si  Si4  1  0.00646551  0.70708113  0.75194128  1
  Si  Si5  1  0.69773695  0.99190185  0.74919854  1
  Si  Si6  1  0.96322883  0.32395175  0.58554840  1
  Si  Si7  1  0.36471742  0.03923982  0.58343833  1
  Si  Si8  1  0.67432525  0.63424578  0.58411969  1
  Si  Si9  1  0.96091203  0.63716576  0.08399483  1
  Si  Si10  1  0.36092981  0.32479228  0.08561373  1
  Si  Si11  1  0.03107898  0.37428757  0.91926868  1
  Si  Si12  1  0.34305154  0.96886416  0.91929546  1
  Si  Si13  1  0.62706534  0.96977429  0.41872486  1
  Si  Si14  1  0.02861687  0.65763122  0.41843742  1
  P  P0  1  0.67832335  0.04620933  0.08359126  1
  P  P1  1  0.62192539  0.65294934  0.91509887  1
  P  P2  1  0.34678646  0.37651495  0.41617685  1
  O  O0  1  0.22182390  0.02604510  0.31066250  1
  O  O1  1  0.80778589  0.77968394  0.31087333  1
  O  O2  1  0.96673710  0.17995049  0.30256211  1
  O  O3  1  0.21701364  0.19051772  0.80972320  1
  O  O4  1  0.97896181  0.78283875  0.81104895  1
  O  O5  1  0.81939487  0.03197485  0.80328072  1
  O  O6  1  0.79863519  0.96750663  0.69019023  1
  O  O7  1  0.16414190  0.19511507  0.69404737  1
  O  O8  1  0.02949735  0.83374587  0.69445356  1
  O  O9  1  0.81004643  0.84071778  0.19656773  1
  O  O10  1  0.03279855  0.20124618  0.18914380  1
  O  O11  1  0.16614737  0.96964675  0.19469119  1
  O  O12  1  0.89177721  0.35929402  0.64446867  1
  O  O13  1  0.47036272  0.11291151  0.64260920  1
  O  O14  1  0.64290602  0.53098226  0.64371254  1
  O  O15  1  0.89026647  0.52940024  0.14270698  1
  O  O16  1  0.65482611  0.11631185  0.14123812  1
  O  O17  1  0.45334953  0.33669136  0.14615005  1
  O  O18  1  0.47339340  0.30805788  0.02867585  1
  O  O19  1  0.83465893  0.52647734  0.02700132  1
  O  O20  1  0.69497602  0.16942608  0.03160543  1
  O  O21  1  0.47077329  0.16738174  0.52685241  1
  O  O22  1  0.69456579  0.52609978  0.52744913  1
  O  O23  1  0.83013546  0.30466294  0.52953156  1
  O  O24  1  0.54493669  0.67546812  0.96981528  1
  O  O25  1  0.13563552  0.45787448  0.97747985  1
  O  O26  1  0.31605486  0.86343216  0.97739839  1
  O  O27  1  0.54783113  0.86877262  0.47817529  1
  O  O28  1  0.32672228  0.44873492  0.47386218  1
  O  O29  1  0.13114200  0.68341435  0.47756436  1
  O  O30  1  0.13779421  0.64014829  0.36064114  1
  O  O31  1  0.49523511  0.85742675  0.36175992  1
  O  O32  1  0.35783113  0.49038821  0.36281338  1
  O  O33  1  0.14150067  0.50454537  0.86152881  1
  O  O34  1  0.36126657  0.86085968  0.86085210  1
  O  O35  1  0.51290153  0.63569130  0.85950562  1
  O  O36  1  0.00573727  0.81772858  0.41294451  1
  O  O37  1  0.80601688  0.98597536  0.41319013  1
  O  O38  1  0.20427342  0.19750143  0.41149656  1
  O  O39  1  0.01550217  0.19539773  0.91414771  1
  O  O40  1  0.18395915  0.99382055  0.91320300  1
  O  O41  1  0.80325920  0.79227899  0.91101346  1
  O  O42  1  0.95970523  0.14492163  0.58714997  1
  O  O43  1  0.18562106  0.03866471  0.58774708  1
  O  O44  1  0.85357363  0.81253089  0.58733708  1
  O  O45  1  0.96730224  0.81861756  0.08907426  1
  O  O46  1  0.84554026  0.04577951  0.08401481  1
  O  O47  1  0.18065338  0.14390515  0.08609592  1
  O  O48  1  0.66069729  0.14301868  0.74484206  1
  O  O49  1  0.47890394  0.33333037  0.74555647  1
  O  O50  1  0.85545563  0.51946020  0.74613827  1
  O  O51  1  0.66671529  0.52163930  0.24499620  1
  O  O52  1  0.85522805  0.33677720  0.24368323  1
  O  O53  1  0.48386603  0.14004703  0.24432090  1
  O  O54  1  0.62214561  0.48281703  0.91914164  1
  O  O55  1  0.85227289  0.37481519  0.92190761  1
  O  O56  1  0.51424057  0.15469705  0.92364774  1
  O  O57  1  0.62381586  0.14683342  0.42098863  1
  O  O58  1  0.51567354  0.37754983  0.41680081  1
  O  O59  1  0.84412720  0.48600299  0.42183436  1
  O  O60  1  0.32337475  0.47498210  0.08138406  1
  O  O61  1  0.14942989  0.67309794  0.07830984  1
  O  O62  1  0.52726665  0.87665646  0.07573006  1
  O  O63  1  0.33035756  0.85152100  0.57843246  1
  O  O64  1  0.51975951  0.66580278  0.57797081  1
  O  O65  1  0.14965912  0.47462814  0.57795220  1
  O  O66  1  0.29209730  0.81162313  0.25570358  1
  O  O67  1  0.51993493  0.70509173  0.25623850  1
  O  O68  1  0.18636112  0.47859739  0.25570005  1
  O  O69  1  0.29393507  0.47971941  0.75595230  1
  O  O70  1  0.18700716  0.70663955  0.75526373  1
  O  O71  1  0.52030035  0.81260478  0.75547397  1
loop_
_geom_bond_atom_site_label_1
_geom_bond_atom_site_label_2
_geom_bond_distance
_geom_bond_site_symmetry_2
Na0 O53 2.362286 1_555
Na0 O67 2.529877 1_545
Na0 O52 2.625579 1_555
Na0 O16 2.643272 1_555
Na0 O2 2.813562 1_555
Na0 O66 2.910929 1_545
Na0 O31 2.927487 1_545
Na0 O9 2.959457 1_545
Na1 O51 2.390495 1_555
Na1 O17 2.450950 1_555
Na1 O68 2.477500 1_555
Na1 O53 2.730930 1_555
Na1 O67 2.807217 1_555
Na1 O32 2.925416 1_555
Na2 O52 2.356627 1_555
Na2 O66 2.507990 1_655
Na2 O15 2.530462 1_555
Na2 O51 2.612049 1_555
Na2 O68 2.852331 1_655
Na2 O30 2.930420 1_655
Na2 O11 3.011239 1_655
Na2 O1 3.021252 1_555
Na3 O49 2.373276 1_555
Na3 O71 2.479449 1_555
Na3 O14 2.544852 1_555
Na3 O50 2.668245 1_555
Na3 O35 2.793266 1_555
Na3 O69 2.794033 1_555
Na4 O50 2.396778 1_555
Na4 O12 2.509536 1_555
Na4 O69 2.522170 1_655
Na4 O48 2.648855 1_555
Na4 O70 2.879712 1_655
Na4 O5 2.883226 1_555
Na4 O33 2.964485 1_655
Na4 O7 2.977126 1_655
Na5 O48 2.350098 1_555
Na5 O70 2.527687 1_545
Na5 O13 2.541500 1_555
Na5 O49 2.599825 1_555
Na5 O71 2.877605 1_545
Na6 O65 2.364727 1_555
Na6 O43 2.485501 1_555
Na6 O28 2.626631 1_555
Na6 O64 2.638384 1_555
Na6 O42 2.848937 1_455
Na6 O7 2.892084 1_555
Na6 O21 2.987713 1_555
Na6 O14 3.028673 1_555
Na7 O63 2.363830 1_555
Na7 O44 2.467777 1_455
Na7 O29 2.490819 1_555
Na7 O65 2.722868 1_555
Na7 O43 2.798582 1_565
Na8 O64 2.375688 1_555
Na8 O27 2.496975 1_555
Na8 O42 2.499264 1_565
Na8 O63 2.652433 1_555
Na8 O44 2.820446 1_555
Na8 O6 2.826120 1_555
Na9 O61 2.340945 1_555
Na9 O47 2.455011 1_565
Na9 O26 2.461527 1_554
Na9 O62 2.610710 1_555
Na9 O45 2.710193 1_455
Na9 O11 2.970169 1_555
Na9 O18 2.997720 1_565
Na10 O60 2.318686 1_555
Na10 O46 2.463762 1_455
Na10 O25 2.549354 1_554
Na10 O61 2.678123 1_555
Na10 O10 2.802736 1_555
Na10 O47 2.818310 1_555
Na10 O20 2.980958 1_455
Na10 O15 3.001285 1_455
Na11 O41 2.366217 1_555
Na11 O55 2.486450 1_555
Na11 O4 2.536471 1_555
Na11 O40 2.567225 1_655
Na11 O54 2.910861 1_555
Na12 O40 2.405984 1_545
Na12 O39 2.489078 1_555
Na12 O54 2.492628 1_555
Na12 O3 2.537631 1_555
Na12 O56 2.716802 1_555
Na12 O18 2.960995 1_556
Na13 O38 2.367762 1_555
Na13 O57 2.463679 1_555
Na13 O0 2.530993 1_555
Na13 O36 2.583972 1_545
Na14 O36 2.406240 1_655
Na14 O58 2.473691 1_555
Na14 O1 2.506632 1_555
Na14 O37 2.526770 1_555
Na14 O59 2.686029 1_555
Na14 O22 2.938719 1_555
Na15 O37 2.511501 1_545
Na15 O42 2.539745 1_555
Na15 O36 2.608750 1_645
Na15 O44 2.618400 1_545
Na15 O43 2.670905 1_655
Na15 O38 2.700816 1_655
Na16 O46 2.493394 1_566
Na16 O39 2.555898 1_665
Na16 O47 2.601476 1_666
Na16 O45 2.631770 1_556
Na16 O41 2.675734 1_555
Na16 O40 2.690690 1_655
Na17 O48 2.539468 1_555
Na17 O55 2.579166 1_555
Na17 O56 2.586638 1_555
Na17 O50 2.635225 1_555
Na17 O54 2.660284 1_555
Na17 O49 2.660433 1_555
Na18 O59 2.539810 1_555
Na18 O57 2.558644 1_555
Na18 O52 2.574930 1_555
Na18 O58 2.608507 1_555
Na18 O53 2.675441 1_555
Na18 O51 2.679103 1_555
Na19 O60 2.439364 1_555
Na19 O67 2.617219 1_555
Na19 O68 2.634712 1_555
Na19 O61 2.665762 1_555
Na19 O66 2.726864 1_555
Na19 O62 2.747803 1_555
Na20 O64 2.563310 1_555
Na20 O63 2.589949 1_555
Na20 O65 2.600568 1_555
Na20 O71 2.639779 1_555
Na20 O70 2.651425 1_555
Na20 O69 2.660209 1_555
Nb0 O6 1.988976 1_555
Nb0 O7 2.004354 1_665
Nb0 O8 2.007692 1_655
Nb0 O43 2.084479 1_665
Nb0 O44 2.089783 1_555
Nb0 O42 2.097938 1_565
Nb1 O11 1.967552 1_555
Nb1 O9 1.979264 1_455
Nb1 O10 2.017199 1_565
Nb1 O45 2.020712 1_455
Nb1 O47 2.089442 1_565
Nb1 O46 2.281383 1_465
Nb2 O19 1.991726 1_556
Nb2 O18 1.998665 1_556
Nb2 O56 2.031481 1_555
Nb2 O20 2.035457 1_556
Nb2 O55 2.073991 1_555
Nb2 O54 2.167316 1_555
Nb3 O23 1.919036 1_555
Nb3 O22 2.009698 1_555
Nb3 O21 2.028932 1_555
Nb3 O59 2.033393 1_555
Nb3 O57 2.071319 1_555
Nb3 O58 2.291924 1_555
Nb4 O30 1.962606 1_555
Nb4 O31 1.988491 1_555
Nb4 O66 2.020869 1_555
Nb4 O68 2.073788 1_555
Nb4 O67 2.100109 1_555
Nb4 O32 2.139616 1_555
Nb5 O34 1.959833 1_555
Nb5 O33 1.981386 1_555
Nb5 O70 2.020340 1_555
Nb5 O71 2.078165 1_555
Nb5 O69 2.097090 1_555
Nb5 O35 2.169449 1_555
O0 Si0 1.593332 1_545
O0 Y0 2.190933 1_455
O1 Si1 1.600971 1_555
O1 Y0 2.168171 1_565
O2 Si2 1.590589 1_655
O2 Y0 2.103602 1_555
O3 Si3 1.599238 1_555
O3 Y1 2.162081 1_455
O4 Si4 1.592754 1_655
O4 Y1 2.180644 1_565
O5 Si5 1.586546 1_545
O5 Y1 2.106509 1_555
O6 Si5 1.712516 1_555
O7 Si3 1.713225 1_555
O8 Si4 1.704093 1_555
O9 Si1 1.703379 1_555
O10 Si2 1.703471 1_555
O11 Si0 1.714335 1_555
O12 Si6 1.597116 1_555
O12 Y2 2.164878 1_555
O13 Si7 1.604242 1_555
O13 Y2 2.154372 1_555
O14 Si8 1.603452 1_555
O14 Y2 2.150782 1_555
O15 Si9 1.601461 1_555
O15 Y3 2.144719 1_555
O16 P0 1.524047 1_555
O16 Y3 2.217174 1_555
O17 Si10 1.598897 1_555
O17 Y3 2.137927 1_555
O18 Si10 1.716279 1_555
O19 Si9 1.706540 1_555
O20 P0 1.603359 1_555
O21 Si7 1.696856 1_555
O22 Si8 1.698990 1_555
O23 Si6 1.725279 1_555
O24 P1 1.498009 1_555
O24 Y4 2.169598 1_556
O25 Si11 1.595940 1_555
O25 Y4 2.134224 1_556
O26 Si12 1.591424 1_555
O26 Y4 2.159159 1_556
O27 Si13 1.600999 1_555
O27 Y5 2.135437 1_555
O28 P2 1.523527 1_555
O28 Y5 2.205131 1_555
O29 Si14 1.597298 1_555
O29 Y5 2.134101 1_555
O30 Si14 1.713984 1_555
O31 Si13 1.730766 1_555
O32 P2 1.583728 1_555
O33 Si11 1.734350 1_555
O34 Si12 1.721314 1_555
O35 P1 1.580195 1_555
O36 Si14 1.616050 1_555
O36 Y0 2.283018 1_465
O37 Si13 1.602101 1_555
O37 Y0 2.212923 1_565
O38 P2 1.532093 1_555
O38 Y0 2.307778 1_455
O39 Si11 1.604967 1_555
O39 Y1 2.216111 1_455
O40 Si12 1.618203 1_555
O40 Y1 2.282763 1_465
O41 P1 1.535834 1_555
O41 Y1 2.305042 1_565
O42 Si6 1.654512 1_555
O43 Si7 1.668933 1_555
O44 Si8 1.669039 1_555
O45 Si9 1.667266 1_555
O46 P0 1.560489 1_555
O47 Si10 1.684431 1_555
O48 Si5 1.613702 1_545
O48 Y2 2.259316 1_555
O49 Si3 1.615886 1_555
O49 Y2 2.256818 1_555
O50 Si4 1.612283 1_655
O50 Y2 2.267764 1_555
O51 Si1 1.616639 1_555
O51 Y3 2.225977 1_555
O52 Si2 1.614140 1_655
O52 Y3 2.264453 1_555
O53 Si0 1.608364 1_545
O53 Y3 2.278973 1_555
O54 P1 1.591186 1_555
O55 Si11 1.669722 1_655
O56 Si12 1.672249 1_545
O57 Si13 1.667644 1_545
O58 P2 1.569298 1_555
O59 Si14 1.665762 1_655
O60 Si10 1.608167 1_555
O60 Y4 2.250242 1_555
O61 Si9 1.620459 1_455
O61 Y4 2.256750 1_555
O62 P0 1.513280 1_565
O62 Y4 2.276979 1_555
O63 Si7 1.618734 1_565
O63 Y5 2.252800 1_555
O64 Si8 1.614603 1_555
O64 Y5 2.267713 1_555
O65 Si6 1.607334 1_455
O65 Y5 2.247541 1_555
O66 Si0 1.680866 1_555
O67 Si1 1.667994 1_555
O68 Si2 1.677679 1_555
O69 Si3 1.666903 1_555
O70 Si4 1.686648 1_555
O71 Si5 1.669943 1_555
