# generated using pymatgen
data_Na2Y2Ga2SiS5O24
_symmetry_space_group_name_H-M   'P 1'
_cell_length_a   8.86998150
_cell_length_b   8.84013811
_cell_length_c   23.25995932
_cell_angle_alpha   89.39896172
_cell_angle_beta   90.58770946
_cell_angle_gamma   119.76139901
_symmetry_Int_Tables_number   1
_chemical_formula_structural   Na2Y2Ga2SiS5O24
_chemical_formula_sum   'Na6 Y6 Ga6 Si3 S15 O72'
_cell_volume   1583.17623697
_cell_formula_units_Z   3
loop_
 _symmetry_equiv_pos_site_id
 _symmetry_equiv_pos_as_xyz
  1  'x, y, z'
loop_
 _atom_site_type_symbol
 _atom_site_label
 _atom_site_symmetry_multiplicity
 _atom_site_fract_x
 _atom_site_fract_y
 _atom_site_fract_z
 _atom_site_occupancy
  Na  Na0  1  0.98581864  0.98316998  0.50201091  1
  Na  Na1  1  0.99927582  0.99950228  0.99946013  1
  Na  Na2  1  0.67162977  0.31898118  0.83671068  1
  Na  Na3  1  0.63900628  0.31035426  0.32238932  1
  Na  Na4  1  0.32857141  0.67767042  0.17019374  1
  Na  Na5  1  0.39211742  0.69342930  0.67082085  1
  Y  Y0  1  0.01207496  0.00154357  0.34270536  1
  Y  Y1  1  0.97786230  0.98668181  0.64718029  1
  Y  Y2  1  0.66863449  0.33163745  0.68936483  1
  Y  Y3  1  0.66230686  0.34214131  0.47700413  1
  Y  Y4  1  0.34814777  0.67008499  0.52164068  1
  Y  Y5  1  0.34524447  0.67332746  0.82131362  1
  Ga  Ga0  1  0.99401095  0.00138638  0.83992257  1
  Ga  Ga1  1  0.00565556  0.98922112  0.15728969  1
  Ga  Ga2  1  0.65737730  0.32370541  0.17973833  1
  Ga  Ga3  1  0.66763834  0.33113237  0.98925178  1
  Ga  Ga4  1  0.33451842  0.66534239  0.01741109  1
  Ga  Ga5  1  0.33155911  0.68442539  0.31080975  1
  Si  Si0  1  0.30849830  0.00141765  0.24362402  1
  Si  Si1  1  0.70480108  0.00615373  0.75835854  1
  Si  Si2  1  0.67036534  0.63466230  0.58390653  1
  S  S0  1  0.70115821  0.69624027  0.24112686  1
  S  S1  1  0.99790043  0.29771902  0.24033820  1
  S  S2  1  0.28984853  0.28528140  0.75796413  1
  S  S3  1  0.99727507  0.70705062  0.76011051  1
  S  S4  1  0.96493000  0.33553924  0.58127664  1
  S  S5  1  0.36550019  0.03801255  0.58211357  1
  S  S6  1  0.95468397  0.62022825  0.08351841  1
  S  S7  1  0.66603458  0.03714761  0.08229829  1
  S  S8  1  0.37622962  0.33831305  0.08166928  1
  S  S9  1  0.63264188  0.65747660  0.92816677  1
  S  S10  1  0.03064679  0.37078235  0.92724996  1
  S  S11  1  0.33666988  0.96966280  0.92679443  1
  S  S12  1  0.62538178  0.96107578  0.40727473  1
  S  S13  1  0.33439264  0.38926602  0.40440872  1
  S  S14  1  0.04111860  0.65938595  0.40919179  1
  O  O0  1  0.23437553  0.04258112  0.30093384  1
  O  O1  1  0.80593708  0.77168234  0.29391234  1
  O  O2  1  0.95758625  0.19070021  0.29346987  1
  O  O3  1  0.20970705  0.18047450  0.81302063  1
  O  O4  1  0.99791512  0.80094150  0.81459542  1
  O  O5  1  0.80631586  0.00904182  0.82024834  1
  O  O6  1  0.80156427  0.99742272  0.70147279  1
  O  O7  1  0.19716852  0.19434163  0.70602738  1
  O  O8  1  0.02333101  0.81216517  0.70826219  1
  O  O9  1  0.78092898  0.82006492  0.19059890  1
  O  O10  1  0.02306068  0.20584462  0.19012855  1
  O  O11  1  0.17527811  0.95921919  0.18836415  1
  O  O12  1  0.87130143  0.32696523  0.63393408  1
  O  O13  1  0.46726387  0.12071282  0.63435133  1
  O  O14  1  0.67717844  0.53886187  0.64252807  1
  O  O15  1  0.87123224  0.50564005  0.13428817  1
  O  O16  1  0.63304265  0.11698684  0.13298127  1
  O  O17  1  0.48857862  0.37240714  0.13346120  1
  O  O18  1  0.45730292  0.30689775  0.03040620  1
  O  O19  1  0.84793381  0.54129174  0.03045028  1
  O  O20  1  0.69688883  0.14842876  0.02970321  1
  O  O21  1  0.46070739  0.12348358  0.52850082  1
  O  O22  1  0.65685823  0.53007692  0.52459359  1
  O  O23  1  0.86281462  0.31951687  0.52843901  1
  O  O24  1  0.54180230  0.68736467  0.97759228  1
  O  O25  1  0.14550304  0.46105968  0.97878943  1
  O  O26  1  0.30649512  0.85087632  0.97800348  1
  O  O27  1  0.53947620  0.87020245  0.46080619  1
  O  O28  1  0.33284774  0.47435874  0.45789285  1
  O  O29  1  0.13361103  0.66531125  0.46226570  1
  O  O30  1  0.13479678  0.65811241  0.35634843  1
  O  O31  1  0.52647141  0.86404152  0.35506875  1
  O  O32  1  0.34045727  0.49165338  0.35185683  1
  O  O33  1  0.10310912  0.47465677  0.87460926  1
  O  O34  1  0.36956588  0.89702837  0.87463607  1
  O  O35  1  0.53074211  0.62741193  0.87474535  1
  O  O36  1  0.01827966  0.81543988  0.40868557  1
  O  O37  1  0.79987960  0.97814932  0.40683387  1
  O  O38  1  0.17363027  0.21687933  0.40443532  1
  O  O39  1  0.01477865  0.19668595  0.92339249  1
  O  O40  1  0.18204346  0.99053607  0.91986224  1
  O  O41  1  0.80866374  0.80930248  0.92382923  1
  O  O42  1  0.00558554  0.19274240  0.58010573  1
  O  O43  1  0.20228158  0.04212657  0.58154103  1
  O  O44  1  0.84202660  0.82542849  0.57716448  1
  O  O45  1  0.96867881  0.79505203  0.08967130  1
  O  O46  1  0.82207093  0.01753624  0.09015233  1
  O  O47  1  0.20035118  0.18454165  0.08850202  1
  O  O48  1  0.68560883  0.17783204  0.76069503  1
  O  O49  1  0.46888180  0.31748542  0.75871720  1
  O  O50  1  0.83152096  0.54258733  0.75966516  1
  O  O51  1  0.69844443  0.52919879  0.23135631  1
  O  O52  1  0.84892342  0.32664451  0.23001391  1
  O  O53  1  0.50046521  0.17296857  0.23262036  1
  O  O54  1  0.64161710  0.49327023  0.93639859  1
  O  O55  1  0.85430324  0.35422908  0.93492383  1
  O  O56  1  0.49672224  0.14360749  0.93562631  1
  O  O57  1  0.63928096  0.13490478  0.40521234  1
  O  O58  1  0.48841295  0.36518932  0.40269858  1
  O  O59  1  0.86789957  0.50016181  0.40701169  1
  O  O60  1  0.36097112  0.50030545  0.07375132  1
  O  O61  1  0.13218963  0.64036731  0.07738181  1
  O  O62  1  0.50609348  0.86110459  0.07453342  1
  O  O63  1  0.32925198  0.85531085  0.58291340  1
  O  O64  1  0.49790326  0.65630005  0.58771049  1
  O  O65  1  0.12862906  0.50435795  0.58091888  1
  O  O66  1  0.32803494  0.82528320  0.25266587  1
  O  O67  1  0.52342658  0.66749303  0.24810248  1
  O  O68  1  0.15984906  0.46766044  0.24754707  1
  O  O69  1  0.28877628  0.45143234  0.76154808  1
  O  O70  1  0.14201795  0.67146864  0.76396498  1
  O  O71  1  0.51382967  0.82943730  0.75795187  1
loop_
_geom_bond_atom_site_label_1
_geom_bond_atom_site_label_2
_geom_bond_distance
_geom_bond_site_symmetry_2
Na0 O44 2.203608 1_555
Na0 O43 2.516750 1_665
Na0 O42 2.550342 1_665
Na0 O37 2.734509 1_555
Na0 O36 2.738210 1_655
Na0 O38 2.959225 1_665
Na1 O39 2.426986 1_665
Na1 O41 2.441130 1_555
Na1 O40 2.500892 1_655
Na1 O45 2.681097 1_556
Na1 O47 2.691683 1_666
Na1 O46 2.696258 1_566
Na2 O48 2.214263 1_555
Na2 O50 2.514941 1_555
Na2 O49 2.536795 1_555
Na2 O55 2.716413 1_555
Na2 O56 2.777506 1_555
Na2 O54 2.883765 1_555
Na3 O53 2.421537 1_555
Na3 O57 2.461263 1_555
Na3 O58 2.494322 1_555
Na3 O59 2.723412 1_555
Na3 O51 2.725536 1_555
Na3 O52 2.813131 1_555
Na4 O66 2.332717 1_555
Na4 O68 2.480007 1_555
Na4 O67 2.523080 1_555
Na4 O61 2.677857 1_555
Na4 O62 2.742456 1_555
Na4 O60 2.847370 1_555
Na5 O64 2.254218 1_555
Na5 O71 2.331536 1_555
Na5 O63 2.692060 1_555
Na5 O69 2.805061 1_555
Na5 O65 2.953567 1_555
Na5 O70 3.052041 1_555
Ga0 O5 1.755365 1_555
Ga0 O3 1.885491 1_655
Ga0 O4 1.889796 1_545
Ga0 O40 2.517878 1_645
Ga0 O39 2.555651 1_655
Ga1 O11 1.796180 1_555
Ga1 O9 1.964147 1_455
Ga1 O10 2.002296 1_565
Ga1 O45 2.239359 1_455
Ga1 O46 2.344619 1_465
Ga1 O47 2.358411 1_565
Ga2 O53 1.839906 1_555
Ga2 O52 2.042273 1_555
Ga2 O17 2.045214 1_555
Ga2 O16 2.052838 1_555
Ga2 O51 2.062535 1_555
Ga2 O15 2.068621 1_555
Ga3 O54 1.976021 1_555
Ga3 O20 1.985035 1_556
Ga3 O19 1.995904 1_556
Ga3 O18 2.019525 1_556
Ga3 O55 2.020351 1_555
Ga3 O56 2.027764 1_555
Ga4 O25 1.968863 1_554
Ga4 O24 1.987958 1_554
Ga4 O26 1.990120 1_554
Ga4 O60 2.048012 1_555
Ga4 O62 2.113852 1_555
Ga4 O61 2.206092 1_555
Ga5 O66 1.839294 1_555
Ga5 O31 1.960215 1_555
Ga5 O30 1.962596 1_555
Ga5 O32 1.979822 1_555
Ga5 O68 2.296227 1_555
Ga5 O67 2.313993 1_555
O0 Si0 1.614716 1_555
O0 Y0 2.070114 1_555
O1 S0 1.481359 1_555
O1 Y0 2.253338 1_665
O2 S1 1.482863 1_555
O2 Y0 2.256564 1_655
O3 S2 1.530890 1_555
O4 S3 1.520618 1_555
O5 Si1 1.683777 1_555
O6 Si1 1.607661 1_565
O6 Y1 2.059021 1_555
O7 S2 1.457861 1_555
O7 Y1 2.341024 1_445
O8 S3 1.462972 1_455
O8 Y1 2.263023 1_455
O9 S0 1.516997 1_555
O10 S1 1.509493 1_455
O11 Si0 1.651927 1_565
O12 S4 1.466981 1_555
O12 Y2 2.240083 1_555
O13 S5 1.471932 1_555
O13 Y2 2.236347 1_555
O14 Si2 1.613999 1_555
O14 Y2 2.090552 1_555
O15 S6 1.488959 1_555
O16 S7 1.484293 1_555
O17 S8 1.489958 1_555
O18 S8 1.496271 1_555
O19 S6 1.498427 1_555
O20 S7 1.501196 1_555
O21 S5 1.485768 1_555
O21 Y3 2.220931 1_555
O22 Si2 1.638868 1_555
O22 Y3 2.026621 1_555
O23 S4 1.484709 1_555
O23 Y3 2.222350 1_555
O24 S9 1.509114 1_555
O25 S10 1.516503 1_555
O26 S11 1.514716 1_555
O27 S12 1.472109 1_555
O27 Y4 2.242343 1_555
O28 S13 1.464202 1_555
O28 Y4 2.242178 1_555
O29 S14 1.462091 1_555
O29 Y4 2.323329 1_555
O30 S14 1.493942 1_555
O31 S12 1.494300 1_555
O32 S13 1.498694 1_555
O33 S10 1.470423 1_555
O33 Y5 2.344821 1_555
O34 S11 1.476108 1_555
O34 Y5 2.262289 1_555
O35 S9 1.475462 1_555
O35 Y5 2.242111 1_555
O36 S14 1.490424 1_555
O36 Y0 2.258348 1_565
O37 S12 1.478822 1_555
O37 Y0 2.339864 1_665
O38 S13 1.482680 1_555
O38 Y0 2.246279 1_555
O39 S10 1.477862 1_555
O40 S11 1.478933 1_555
O41 S9 1.472841 1_555
O42 S4 1.475517 1_455
O42 Y1 2.305715 1_445
O43 S5 1.466061 1_555
O43 Y1 2.368912 1_445
O44 Si2 1.623906 1_555
O44 Y1 2.106963 1_555
O45 S6 1.496053 1_555
O46 S7 1.487064 1_555
O47 S8 1.483932 1_555
O48 Si1 1.610478 1_555
O48 Y2 2.185147 1_555
O49 S2 1.467609 1_555
O49 Y2 2.364630 1_555
O50 S3 1.467433 1_555
O50 Y2 2.362099 1_555
O51 S0 1.484729 1_555
O52 S1 1.482184 1_555
O53 Si0 1.643744 1_555
O54 S9 1.502913 1_555
O55 S10 1.509247 1_655
O56 S11 1.501848 1_545
O57 S12 1.479647 1_545
O57 Y3 2.423249 1_555
O58 S13 1.484330 1_555
O58 Y3 2.378595 1_555
O59 S14 1.482346 1_655
O59 Y3 2.326270 1_555
O60 S8 1.513054 1_555
O61 S6 1.502274 1_455
O62 S7 1.508620 1_565
O63 S5 1.481974 1_565
O63 Y4 2.250946 1_555
O64 Si2 1.636501 1_555
O64 Y4 2.062983 1_555
O65 S4 1.477932 1_455
O65 Y4 2.240412 1_555
O66 Si0 1.661002 1_565
O67 S0 1.477441 1_555
O68 S1 1.485399 1_455
O69 S2 1.476773 1_555
O69 Y5 2.258030 1_555
O70 S3 1.467400 1_455
O70 Y5 2.225034 1_555
O71 Si1 1.637912 1_565
O71 Y5 2.065534 1_555
