# generated using pymatgen
data_Na6Nb3Ga5Si6(SO8)6
_symmetry_space_group_name_H-M   'P 1'
_cell_length_a   17.56239358
_cell_length_b   8.76371761
_cell_length_c   22.49749255
_cell_angle_alpha   89.78929558
_cell_angle_beta   90.16672406
_cell_angle_gamma   119.65828185
_symmetry_Int_Tables_number   1
_chemical_formula_structural   Na6Nb3Ga5Si6(SO8)6
_chemical_formula_sum   'Na18 Nb9 Ga15 Si18 S18 O144'
_cell_volume   3008.97594345
_cell_formula_units_Z   3
loop_
 _symmetry_equiv_pos_site_id
 _symmetry_equiv_pos_as_xyz
  1  'x, y, z'
loop_
 _atom_site_type_symbol
 _atom_site_label
 _atom_site_symmetry_multiplicity
 _atom_site_fract_x
 _atom_site_fract_y
 _atom_site_fract_z
 _atom_site_occupancy
  Na  Na0  1  0.48210106  0.67652562  0.91337529  1
  Na  Na1  1  0.16605612  0.30986419  0.91388458  1
  Na  Na2  1  0.48471166  0.29758371  0.41621208  1
  Na  Na3  1  0.97925345  0.29308533  0.41235981  1
  Na  Na4  1  0.16534153  0.02754748  0.41428237  1
  Na  Na5  1  0.66686089  0.03193778  0.41837127  1
  Na  Na6  1  0.99007235  0.98083387  0.49461675  1
  Na  Na7  1  0.49602047  0.99082345  0.49578628  1
  Na  Na8  1  0.99582244  0.99571220  0.99669499  1
  Na  Na9  1  0.50056288  0.00139400  0.99175256  1
  Na  Na10  1  0.33359260  0.32895199  0.82624880  1
  Na  Na11  1  0.83223729  0.33502526  0.82978506  1
  Na  Na12  1  0.33549089  0.33504999  0.33093772  1
  Na  Na13  1  0.83636854  0.33854289  0.33296092  1
  Na  Na14  1  0.15945147  0.66137094  0.16284881  1
  Na  Na15  1  0.66662549  0.65855286  0.16455437  1
  Na  Na16  1  0.16829391  0.66929150  0.66794499  1
  Na  Na17  1  0.66396978  0.66094300  0.66233499  1
  Nb  Nb0  1  0.00519627  0.99988174  0.64715399  1
  Nb  Nb1  1  0.50029162  0.00424971  0.65091917  1
  Nb  Nb2  1  0.00491853  0.99959576  0.14679598  1
  Nb  Nb3  1  0.50584098  0.01836822  0.14438704  1
  Nb  Nb4  1  0.83332652  0.33789663  0.97769193  1
  Nb  Nb5  1  0.15900502  0.67278516  0.31051659  1
  Nb  Nb6  1  0.66270237  0.65756574  0.31773208  1
  Nb  Nb7  1  0.16645363  0.65273857  0.80835993  1
  Nb  Nb8  1  0.66338254  0.67047842  0.80891477  1
  Ga  Ga0  1  0.99478012  0.99337811  0.35033569  1
  Ga  Ga1  1  0.49508216  0.00596292  0.35827199  1
  Ga  Ga2  1  0.00483249  0.00600175  0.84902723  1
  Ga  Ga3  1  0.49866243  0.98972562  0.84986349  1
  Ga  Ga4  1  0.33532643  0.33438127  0.69415178  1
  Ga  Ga5  1  0.83150912  0.34879375  0.68914820  1
  Ga  Ga6  1  0.33356062  0.32288546  0.19095119  1
  Ga  Ga7  1  0.84401363  0.35198210  0.18116182  1
  Ga  Ga8  1  0.33166421  0.33655872  0.98072184  1
  Ga  Ga9  1  0.33988201  0.33867039  0.47898660  1
  Ga  Ga10  1  0.83362499  0.33543451  0.47402897  1
  Ga  Ga11  1  0.15770414  0.64849483  0.01257243  1
  Ga  Ga12  1  0.66806867  0.66552703  0.01809225  1
  Ga  Ga13  1  0.16957716  0.67882667  0.51293623  1
  Ga  Ga14  1  0.66699425  0.67052739  0.50696723  1
  Si  Si0  1  0.14754570  0.01533408  0.25354866  1
  Si  Si1  1  0.99269085  0.28449053  0.25137018  1
  Si  Si2  1  0.49957401  0.29461632  0.25308307  1
  Si  Si3  1  0.14739560  0.28432666  0.75134759  1
  Si  Si4  1  0.64671234  0.28219267  0.75392919  1
  Si  Si5  1  0.99566177  0.70429244  0.75518637  1
  Si  Si6  1  0.49500876  0.70821903  0.75120794  1
  Si  Si7  1  0.35736340  0.00586361  0.75423990  1
  Si  Si8  1  0.98585197  0.62525565  0.08228536  1
  Si  Si9  1  0.69559909  0.35149260  0.08469292  1
  Si  Si10  1  0.31290948  0.67514071  0.92228763  1
  Si  Si11  1  0.01995067  0.36545358  0.91548162  1
  Si  Si12  1  0.66487400  0.95438959  0.92021714  1
  Si  Si13  1  0.31141818  0.95459569  0.41994465  1
  Si  Si14  1  0.81576391  0.95482542  0.41867507  1
  Si  Si15  1  0.66792477  0.37435666  0.42114805  1
  Si  Si16  1  0.01848023  0.67155009  0.42070609  1
  Si  Si17  1  0.51672711  0.66976898  0.41939109  1
  S  S0  1  0.64704580  0.00500683  0.25039229  1
  S  S1  1  0.35701309  0.70975870  0.24970779  1
  S  S2  1  0.85432015  0.70722892  0.25000563  1
  S  S3  1  0.85681219  0.00481676  0.74944943  1
  S  S4  1  0.47937023  0.33895395  0.58314303  1
  S  S5  1  0.97843440  0.33851616  0.58275188  1
  S  S6  1  0.19175106  0.04430612  0.58247901  1
  S  S7  1  0.69140088  0.04443584  0.58324239  1
  S  S8  1  0.33012798  0.61669226  0.58191720  1
  S  S9  1  0.83034140  0.61993704  0.58225846  1
  S  S10  1  0.47625465  0.61660588  0.08422567  1
  S  S11  1  0.33087627  0.04641722  0.08247229  1
  S  S12  1  0.83087695  0.04073524  0.08405952  1
  S  S13  1  0.19284117  0.33799930  0.08434009  1
  S  S14  1  0.81279851  0.67389743  0.91649873  1
  S  S15  1  0.52132607  0.37270419  0.91921064  1
  S  S16  1  0.16777472  0.95750542  0.91850748  1
  S  S17  1  0.16925873  0.38167646  0.41906710  1
  O  O0  1  0.10182314  0.03268991  0.31258458  1
  O  O1  1  0.60522379  0.02521496  0.30387984  1
  O  O2  1  0.41066530  0.78692435  0.30311309  1
  O  O3  1  0.90747801  0.78482586  0.30383080  1
  O  O4  1  0.48498583  0.17157971  0.30973212  1
  O  O5  1  0.98287858  0.17393996  0.31135158  1
  O  O6  1  0.10585477  0.17555201  0.81119584  1
  O  O7  1  0.60126618  0.16759245  0.81108733  1
  O  O8  1  0.48288516  0.78186626  0.81278514  1
  O  O9  1  0.97733038  0.79874472  0.81005162  1
  O  O10  1  0.41815442  0.03878272  0.81068598  1
  O  O11  1  0.90764622  0.03079027  0.80388413  1
  O  O12  1  0.40131640  0.96609096  0.69271901  1
  O  O13  1  0.89667733  0.97154786  0.69543853  1
  O  O14  1  0.08060540  0.19180513  0.69251832  1
  O  O15  1  0.58354902  0.20295886  0.69234339  1
  O  O16  1  0.01051018  0.83281706  0.69384089  1
  O  O17  1  0.51894905  0.83659549  0.69170751  1
  O  O18  1  0.39830809  0.82140512  0.19535456  1
  O  O19  1  0.89689205  0.81828257  0.19567523  1
  O  O20  1  0.00997177  0.18831935  0.19261691  1
  O  O21  1  0.51307162  0.19306898  0.19337363  1
  O  O22  1  0.08355579  0.96791331  0.19336334  1
  O  O23  1  0.58798850  0.97424847  0.19589425  1
  O  O24  1  0.43498017  0.35821101  0.63547254  1
  O  O25  1  0.93664396  0.36030202  0.63657043  1
  O  O26  1  0.24306038  0.12939598  0.63556581  1
  O  O27  1  0.74573528  0.13063888  0.63673169  1
  O  O28  1  0.31935990  0.51188799  0.63587235  1
  O  O29  1  0.82009815  0.51645615  0.63707900  1
  O  O30  1  0.43284403  0.50707413  0.13688075  1
  O  O31  1  0.94292785  0.51163636  0.14118511  1
  O  O32  1  0.32112732  0.13082898  0.13655084  1
  O  O33  1  0.81679553  0.11813105  0.13787438  1
  O  O34  1  0.24684936  0.35673316  0.13702316  1
  O  O35  1  0.74901356  0.36328235  0.14416299  1
  O  O36  1  0.22790679  0.30139033  0.02887758  1
  O  O37  1  0.73360718  0.30321062  0.02535885  1
  O  O38  1  0.42455612  0.54310712  0.02830432  1
  O  O39  1  0.91821327  0.52901503  0.02549427  1
  O  O40  1  0.34972553  0.15960025  0.02847221  1
  O  O41  1  0.84723683  0.15118045  0.02987120  1
  O  O42  1  0.22662419  0.14871683  0.52710649  1
  O  O43  1  0.72979693  0.15106651  0.52829226  1
  O  O44  1  0.34425065  0.53602238  0.52746326  1
  O  O45  1  0.84874854  0.54451014  0.52937579  1
  O  O46  1  0.42611864  0.30655141  0.52732868  1
  O  O47  1  0.92574828  0.30821129  0.52787976  1
  O  O48  1  0.26460573  0.69899647  0.97975998  1
  O  O49  1  0.77251188  0.69493113  0.97112527  1
  O  O50  1  0.08194965  0.44202769  0.97367405  1
  O  O51  1  0.57543302  0.45627974  0.97263986  1
  O  O52  1  0.15377074  0.85280314  0.97294838  1
  O  O53  1  0.64769300  0.82119901  0.97584346  1
  O  O54  1  0.27146437  0.83521671  0.47840561  1
  O  O55  1  0.77278896  0.83595532  0.47708497  1
  O  O56  1  0.15147791  0.45904564  0.47256717  1
  O  O57  1  0.64092865  0.45458621  0.47654803  1
  O  O58  1  0.08415627  0.70951581  0.47650179  1
  O  O59  1  0.58164310  0.71514647  0.47603102  1
  O  O60  1  0.06497560  0.62971122  0.36087547  1
  O  O61  1  0.56361570  0.62412479  0.36115226  1
  O  O62  1  0.24643119  0.86034547  0.36114709  1
  O  O63  1  0.74897460  0.86586585  0.35960383  1
  O  O64  1  0.18334171  0.48804486  0.36460901  1
  O  O65  1  0.68453924  0.50035638  0.36048095  1
  O  O66  1  0.06580095  0.49751840  0.85842626  1
  O  O67  1  0.56191852  0.48979050  0.86487597  1
  O  O68  1  0.18263110  0.88231415  0.86446178  1
  O  O69  1  0.68078349  0.85508062  0.86146605  1
  O  O70  1  0.24699659  0.62770451  0.86296841  1
  O  O71  1  0.75777019  0.64275802  0.86283563  1
  O  O72  1  0.01630539  0.85114742  0.40965217  1
  O  O73  1  0.51503236  0.84716671  0.40486343  1
  O  O74  1  0.40933881  0.98678710  0.41300351  1
  O  O75  1  0.91424393  0.98694645  0.41056588  1
  O  O76  1  0.09009743  0.20479943  0.41424318  1
  O  O77  1  0.58245733  0.18395358  0.41011985  1
  O  O78  1  0.01013553  0.17008527  0.90761845  1
  O  O79  1  0.51214386  0.20091628  0.91268186  1
  O  O80  1  0.08937928  0.98192563  0.91369111  1
  O  O81  1  0.57878686  0.97237405  0.91277169  1
  O  O82  1  0.41026753  0.83902873  0.91425575  1
  O  O83  1  0.90044430  0.82763217  0.91126452  1
  O  O84  1  0.48748028  0.17427159  0.58710895  1
  O  O85  1  0.98609710  0.17243175  0.58898707  1
  O  O86  1  0.09906601  0.02591405  0.58752658  1
  O  O87  1  0.60137740  0.02832037  0.58798400  1
  O  O88  1  0.41082334  0.79692561  0.58600675  1
  O  O89  1  0.91135632  0.80227354  0.58936533  1
  O  O90  1  0.48417959  0.79599551  0.09075729  1
  O  O91  1  0.98793008  0.81880193  0.08834797  1
  O  O92  1  0.41314660  0.02728452  0.08921576  1
  O  O93  1  0.91141330  0.02235135  0.08885568  1
  O  O94  1  0.10239241  0.17514944  0.08923804  1
  O  O95  1  0.59474503  0.16503521  0.09144787  1
  O  O96  1  0.34498215  0.17095318  0.74050434  1
  O  O97  1  0.84489275  0.15718354  0.74027380  1
  O  O98  1  0.24142203  0.30904457  0.73954776  1
  O  O99  1  0.74146755  0.30197876  0.74144461  1
  O  O100  1  0.41575143  0.51647024  0.74049413  1
  O  O101  1  0.91439428  0.51190880  0.74156767  1
  O  O102  1  0.34686771  0.53321257  0.24108570  1
  O  O103  1  0.84337819  0.53031410  0.24437809  1
  O  O104  1  0.41582414  0.31892039  0.24178123  1
  O  O105  1  0.90696964  0.30706930  0.24254239  1
  O  O106  1  0.24185385  0.18311804  0.24218105  1
  O  O107  1  0.73286660  0.16009067  0.24203998  1
  O  O108  1  0.32087962  0.48907795  0.92629850  1
  O  O109  1  0.81943720  0.50889296  0.92048565  1
  O  O110  1  0.43366488  0.36585673  0.92423841  1
  O  O111  1  0.92426993  0.35286702  0.92376312  1
  O  O112  1  0.24754468  0.13976423  0.92489865  1
  O  O113  1  0.75460740  0.14517133  0.92444663  1
  O  O114  1  0.31537273  0.14726502  0.42524589  1
  O  O115  1  0.82120713  0.14644149  0.42392012  1
  O  O116  1  0.24722789  0.35838079  0.42552391  1
  O  O117  1  0.75320225  0.35159781  0.42388588  1
  O  O118  1  0.42368486  0.48791942  0.42334341  1
  O  O119  1  0.92756333  0.48888288  0.42448654  1
  O  O120  1  0.18224155  0.49333915  0.08034169  1
  O  O121  1  0.67626573  0.51321716  0.07419479  1
  O  O122  1  0.08416941  0.65558317  0.07330201  1
  O  O123  1  0.56501859  0.63898947  0.07967038  1
  O  O124  1  0.25517790  0.87174714  0.07750409  1
  O  O125  1  0.75331077  0.86359773  0.07709559  1
  O  O126  1  0.17783908  0.86324343  0.57916020  1
  O  O127  1  0.68046190  0.86536763  0.57975546  1
  O  O128  1  0.24982751  0.63513064  0.57688928  1
  O  O129  1  0.75211477  0.64055061  0.57840734  1
  O  O130  1  0.06872512  0.49153167  0.57755114  1
  O  O131  1  0.56751889  0.49498403  0.57880391  1
  O  O132  1  0.15582190  0.83332331  0.25450270  1
  O  O133  1  0.65312632  0.84070107  0.25215644  1
  O  O134  1  0.26838015  0.69276520  0.25495321  1
  O  O135  1  0.76772290  0.69956226  0.25319284  1
  O  O136  1  0.08690709  0.47588017  0.25678869  1
  O  O137  1  0.59041703  0.48705512  0.25359626  1
  O  O138  1  0.15100424  0.47558076  0.75187875  1
  O  O139  1  0.65873130  0.48296878  0.76022056  1
  O  O140  1  0.08795418  0.70297188  0.75718789  1
  O  O141  1  0.58694576  0.69207245  0.75570534  1
  O  O142  1  0.26057636  0.82815054  0.75815558  1
  O  O143  1  0.76875486  0.83934975  0.75407278  1
loop_
_geom_bond_atom_site_label_1
_geom_bond_atom_site_label_2
_geom_bond_distance
_geom_bond_site_symmetry_2
Na0 O81 2.290993 1_555
Na0 O82 2.323467 1_555
Na0 O110 2.429042 1_555
Na0 O8 2.438435 1_555
Na0 O108 2.489627 1_555
Na0 O38 2.810237 1_556
Na0 O67 2.850606 1_555
Na0 O53 2.894895 1_555
Na1 O78 2.387105 1_555
Na1 O108 2.389675 1_555
Na1 O80 2.498605 1_545
Na1 O112 2.537381 1_555
Na1 O6 2.571909 1_555
Na1 O50 2.654974 1_555
Na1 O70 2.675640 1_555
Na1 O36 2.817864 1_556
Na2 O74 2.368313 1_545
Na2 O77 2.377286 1_555
Na2 O118 2.393549 1_555
Na2 O114 2.597243 1_555
Na2 O4 2.642495 1_555
Na2 O46 2.722272 1_555
Na2 O57 2.742075 1_555
Na2 O61 2.775507 1_555
Na3 O119 2.321503 1_555
Na3 O75 2.339289 1_545
Na3 O76 2.424846 1_655
Na3 O115 2.427984 1_555
Na3 O5 2.518401 1_555
Na3 O47 2.791938 1_555
Na3 O60 2.810832 1_655
Na3 O56 2.955625 1_655
Na4 O72 2.290589 1_545
Na4 O114 2.316590 1_555
Na4 O76 2.488126 1_555
Na4 O116 2.532805 1_555
Na4 O0 2.552505 1_555
Na4 O42 2.757101 1_555
Na4 O62 2.773495 1_545
Na4 O58 2.794741 1_545
Na5 O73 2.355910 1_545
Na5 O115 2.382723 1_555
Na5 O77 2.440802 1_555
Na5 O117 2.441334 1_555
Na5 O43 2.699666 1_555
Na5 O59 2.739171 1_545
Na5 O1 2.780581 1_555
Na5 O63 2.836952 1_545
Na6 O75 2.325339 1_555
Na6 O72 2.386853 1_655
Na6 O89 2.599103 1_555
Na6 O76 2.605398 1_665
Na6 O86 2.724642 1_665
Na6 O85 2.734029 1_565
Na7 O74 2.391235 1_555
Na7 O73 2.513887 1_555
Na7 O77 2.516708 1_565
Na7 O88 2.592721 1_555
Na7 O84 2.663264 1_565
Na7 O87 2.686071 1_565
Na8 O78 2.452490 1_665
Na8 O83 2.495958 1_555
Na8 O80 2.533259 1_655
Na8 O91 2.537734 1_556
Na8 O93 2.629632 1_566
Na8 O94 2.720143 1_666
Na9 O82 2.312628 1_545
Na9 O81 2.339355 1_545
Na9 O79 2.427045 1_555
Na9 O95 2.734533 1_556
Na9 O92 2.753954 1_556
Na9 O90 2.783124 1_546
Na10 O96 2.444270 1_555
Na10 O100 2.480095 1_555
Na10 O98 2.481945 1_555
Na10 O108 2.724285 1_555
Na10 O112 2.733334 1_555
Na10 O110 2.733772 1_555
Na11 O99 2.470616 1_555
Na11 O101 2.490841 1_555
Na11 O111 2.615242 1_555
Na11 O109 2.626898 1_555
Na11 O97 2.627224 1_555
Na11 O113 2.628382 1_555
Na12 O104 2.499921 1_555
Na12 O106 2.509564 1_555
Na12 O118 2.542411 1_555
Na12 O114 2.595763 1_555
Na12 O102 2.602925 1_555
Na12 O116 2.703495 1_555
Na13 O105 2.471577 1_555
Na13 O119 2.540341 1_555
Na13 O117 2.552516 1_555
Na13 O103 2.565799 1_555
Na13 O115 2.574279 1_555
Na13 O107 2.668812 1_555
Na14 O122 2.393328 1_555
Na14 O120 2.526246 1_555
Na14 O132 2.577866 1_555
Na14 O136 2.583216 1_555
Na14 O124 2.614833 1_555
Na14 O134 2.736669 1_555
Na15 O121 2.453145 1_555
Na15 O137 2.462885 1_555
Na15 O123 2.557413 1_555
Na15 O135 2.571260 1_555
Na15 O125 2.588873 1_555
Na15 O133 2.624674 1_555
Na16 O138 2.451413 1_555
Na16 O142 2.540168 1_555
Na16 O140 2.557724 1_555
Na16 O126 2.569427 1_555
Na16 O128 2.604289 1_555
Na16 O130 2.631923 1_555
Na17 O131 2.465688 1_555
Na17 O127 2.492007 1_555
Na17 O129 2.507348 1_555
Na17 O141 2.588972 1_555
Na17 O139 2.669210 1_555
Na17 O143 2.691626 1_555
Nb0 O16 1.838171 1_555
Nb0 O14 1.850624 1_565
Nb0 O86 2.051291 1_565
Nb0 O13 2.101346 1_455
Nb0 O89 2.141253 1_455
Nb0 O85 2.143951 1_465
Nb1 O12 1.857304 1_545
Nb1 O15 1.877008 1_555
Nb1 O17 1.890232 1_545
Nb1 O84 2.155418 1_555
Nb1 O87 2.200626 1_555
Nb1 O88 2.254688 1_545
Nb2 O22 1.857664 1_555
Nb2 O20 1.916439 1_565
Nb2 O91 1.968167 1_455
Nb2 O19 2.085511 1_455
Nb2 O94 2.089515 1_565
Nb2 O93 2.178390 1_465
Nb3 O21 1.842262 1_555
Nb3 O95 1.876672 1_555
Nb3 O23 2.027982 1_545
Nb3 O92 2.076129 1_555
Nb3 O18 2.152393 1_545
Nb3 O90 2.163153 1_545
Nb4 O39 1.927999 1_556
Nb4 O37 1.947096 1_556
Nb4 O111 1.960344 1_555
Nb4 O113 1.973144 1_555
Nb4 O109 2.075405 1_555
Nb4 O41 2.120169 1_556
Nb5 O60 1.882538 1_555
Nb5 O132 1.906553 1_555
Nb5 O62 1.965374 1_555
Nb5 O136 1.971335 1_555
Nb5 O64 2.225339 1_555
Nb5 O134 2.227681 1_555
Nb6 O65 1.865798 1_555
Nb6 O61 1.889835 1_555
Nb6 O63 1.944872 1_555
Nb6 O137 2.013539 1_555
Nb6 O135 2.232797 1_555
Nb6 O133 2.242515 1_555
Nb7 O138 1.922060 1_555
Nb7 O70 1.963006 1_555
Nb7 O142 1.963319 1_555
Nb7 O66 1.965831 1_555
Nb7 O140 2.001869 1_555
Nb7 O68 2.274316 1_555
Nb8 O141 1.873841 1_555
Nb8 O69 1.905549 1_555
Nb8 O139 1.946031 1_555
Nb8 O143 2.103954 1_555
Nb8 O67 2.115122 1_555
Nb8 O71 2.159430 1_555
Ga0 O5 1.906022 1_565
Ga0 O0 1.933993 1_665
Ga0 O75 1.942041 1_555
Ga0 O72 1.982064 1_655
Ga0 O3 2.004330 1_555
Ga0 O76 2.288769 1_665
Ga1 O74 1.889664 1_545
Ga1 O4 1.890103 1_555
Ga1 O73 1.904685 1_545
Ga1 O77 1.944892 1_555
Ga1 O2 2.147812 1_545
Ga1 O1 2.226401 1_555
Ga2 O9 1.855341 1_445
Ga2 O6 1.862936 1_555
Ga2 O78 1.922157 1_555
Ga2 O11 2.084979 1_455
Ga2 O80 2.158907 1_545
Ga2 O83 2.219857 1_445
Ga3 O10 1.884777 1_565
Ga3 O8 1.897690 1_555
Ga3 O7 1.912391 1_565
Ga3 O81 2.050578 1_555
Ga3 O82 2.054947 1_555
Ga3 O79 2.249996 1_565
Ga4 O96 1.842790 1_555
Ga4 O100 1.844328 1_555
Ga4 O98 1.859542 1_555
Ga4 O24 2.121115 1_555
Ga4 O28 2.152261 1_555
Ga4 O26 2.171238 1_555
Ga5 O99 1.848899 1_555
Ga5 O101 1.869826 1_555
Ga5 O29 1.961828 1_555
Ga5 O27 2.114484 1_555
Ga5 O97 2.138413 1_555
Ga5 O25 2.155494 1_555
Ga6 O104 1.853638 1_555
Ga6 O106 1.862993 1_555
Ga6 O32 2.007072 1_555
Ga6 O102 2.076482 1_555
Ga6 O34 2.076705 1_555
Ga6 O30 2.082812 1_555
Ga7 O31 1.838124 1_555
Ga7 O35 1.908180 1_555
Ga7 O105 1.924089 1_555
Ga7 O33 2.102242 1_555
Ga7 O103 2.121086 1_555
Ga7 O107 2.294372 1_555
Ga8 O108 1.886466 1_555
Ga8 O36 2.010585 1_556
Ga8 O40 2.032800 1_556
Ga8 O38 2.040977 1_556
Ga8 O112 2.053728 1_555
Ga8 O110 2.108406 1_555
Ga9 O118 1.880842 1_555
Ga9 O114 1.938584 1_555
Ga9 O46 1.991454 1_555
Ga9 O44 2.017093 1_555
Ga9 O116 2.095146 1_555
Ga9 O42 2.149873 1_555
Ga10 O117 1.864170 1_555
Ga10 O119 1.891175 1_555
Ga10 O115 1.927826 1_555
Ga10 O43 2.123364 1_555
Ga10 O47 2.123854 1_555
Ga10 O45 2.124019 1_555
Ga11 O50 1.852659 1_554
Ga11 O48 1.857138 1_554
Ga11 O122 1.904903 1_555
Ga11 O52 2.028704 1_554
Ga11 O120 2.218096 1_555
Ga11 O124 2.363097 1_555
Ga12 O53 1.834213 1_554
Ga12 O121 1.890027 1_555
Ga12 O49 2.022113 1_554
Ga12 O51 2.026527 1_554
Ga12 O125 2.109501 1_555
Ga12 O123 2.200992 1_555
Ga13 O54 1.804717 1_555
Ga13 O58 1.839926 1_555
Ga13 O56 2.010226 1_555
Ga13 O126 2.153410 1_555
Ga13 O128 2.172875 1_555
Ga13 O130 2.250508 1_555
Ga14 O55 1.827640 1_555
Ga14 O57 1.846513 1_555
Ga14 O59 1.859090 1_555
Ga14 O129 2.293151 1_555
Ga14 O127 2.296036 1_555
Ga14 O131 2.317120 1_555
O0 Si0 1.600161 1_555
O1 S0 1.467755 1_555
O2 S1 1.468849 1_555
O3 S2 1.473619 1_555
O4 Si2 1.603412 1_555
O5 Si1 1.617346 1_555
O6 Si3 1.600586 1_555
O7 Si4 1.581914 1_555
O8 Si6 1.589134 1_555
O9 Si5 1.608090 1_555
O10 Si7 1.589243 1_555
O11 S3 1.463958 1_555
O12 Si7 1.705588 1_565
O13 S3 1.503745 1_565
O14 Si3 1.686015 1_555
O15 Si4 1.693581 1_555
O16 Si5 1.715046 1_455
O17 Si6 1.660864 1_555
O18 S1 1.507542 1_555
O19 S2 1.508859 1_555
O20 Si1 1.677283 1_455
O21 Si2 1.694722 1_555
O22 Si0 1.673952 1_565
O23 S0 1.539483 1_565
O24 S4 1.469440 1_555
O25 S5 1.478737 1_555
O26 S6 1.459369 1_555
O27 S7 1.488617 1_555
O28 S8 1.474464 1_555
O29 S9 1.485762 1_555
O30 S10 1.476007 1_555
O31 Si8 1.602776 1_555
O32 S11 1.479842 1_555
O33 S12 1.469964 1_555
O34 S13 1.473836 1_555
O35 Si9 1.605777 1_555
O36 S13 1.497351 1_555
O37 Si9 1.641751 1_555
O38 S10 1.497528 1_555
O39 Si8 1.662057 1_555
O40 S11 1.495954 1_555
O41 S12 1.491224 1_555
O42 S6 1.485157 1_555
O43 S7 1.492981 1_555
O44 S8 1.497934 1_555
O45 S9 1.475265 1_555
O46 S4 1.504987 1_555
O47 S5 1.484325 1_555
O48 Si10 1.618354 1_555
O49 S14 1.476726 1_555
O50 Si11 1.620162 1_555
O51 S15 1.481663 1_555
O52 S16 1.474004 1_555
O53 Si12 1.631728 1_555
O54 Si13 1.607937 1_555
O55 Si14 1.612220 1_555
O56 S17 1.491202 1_555
O57 Si15 1.616278 1_555
O58 Si16 1.622231 1_555
O59 Si17 1.621185 1_555
O60 Si16 1.708621 1_555
O61 Si17 1.700278 1_555
O62 Si13 1.673606 1_555
O63 Si14 1.686221 1_555
O64 S17 1.482016 1_555
O65 Si15 1.685128 1_555
O66 Si11 1.645703 1_555
O67 S15 1.525542 1_555
O68 S16 1.469212 1_555
O69 Si12 1.683394 1_555
O70 Si10 1.677096 1_555
O71 S14 1.483449 1_555
O72 Si16 1.611568 1_555
O73 Si17 1.602088 1_555
O74 Si13 1.607020 1_555
O75 Si14 1.619716 1_555
O76 S17 1.488298 1_555
O77 Si15 1.618981 1_555
O78 Si11 1.643911 1_555
O79 S15 1.440602 1_555
O80 S16 1.497905 1_555
O81 Si12 1.604022 1_555
O82 Si10 1.608908 1_555
O83 S14 1.464893 1_555
O84 S4 1.521044 1_555
O85 S5 1.532500 1_555
O86 S6 1.558782 1_555
O87 S7 1.520153 1_555
O88 S8 1.515512 1_555
O89 S9 1.534242 1_555
O90 S10 1.515771 1_555
O91 Si8 1.684454 1_555
O92 S11 1.541771 1_555
O93 S12 1.504215 1_555
O94 S13 1.525957 1_555
O95 Si9 1.722183 1_555
O96 Si7 1.594886 1_555
O97 S3 1.464176 1_555
O98 Si3 1.578735 1_555
O99 Si4 1.610921 1_555
O100 Si6 1.582917 1_555
O101 Si5 1.610378 1_555
O102 S1 1.480671 1_555
O103 S2 1.470795 1_555
O104 Si2 1.606510 1_555
O105 Si1 1.624136 1_555
O106 Si0 1.600081 1_555
O107 S0 1.458317 1_555
O108 Si10 1.706260 1_555
O109 S14 1.509485 1_555
O110 S15 1.515293 1_555
O111 Si11 1.639756 1_655
O112 S16 1.523344 1_545
O113 Si12 1.637294 1_545
O114 Si13 1.659957 1_545
O115 Si14 1.638758 1_545
O116 S17 1.487656 1_555
O117 Si15 1.606738 1_555
O118 Si17 1.624939 1_555
O119 Si16 1.609219 1_655
O120 S13 1.464866 1_555
O121 Si9 1.628851 1_555
O122 Si8 1.624932 1_455
O123 S10 1.475575 1_555
O124 S11 1.452423 1_565
O125 S12 1.482517 1_565
O126 S6 1.483318 1_565
O127 S7 1.486010 1_565
O128 S8 1.500742 1_555
O129 S9 1.473909 1_555
O130 S5 1.490618 1_455
O131 S4 1.476775 1_555
O132 Si0 1.671849 1_565
O133 S0 1.496030 1_565
O134 S1 1.493535 1_555
O135 S2 1.490681 1_555
O136 Si1 1.679215 1_455
O137 Si2 1.651347 1_555
O138 Si3 1.645745 1_555
O139 Si4 1.671730 1_555
O140 Si5 1.627125 1_455
O141 Si6 1.691851 1_555
O142 Si7 1.643966 1_565
O143 S3 1.511863 1_565
