# generated using pymatgen
data_Ta2Bi4O11
_symmetry_space_group_name_H-M   'P 1'
_cell_length_a   6.59081605
_cell_length_b   7.66759566
_cell_length_c   9.91047152
_cell_angle_alpha   101.10094777
_cell_angle_beta   90.24294083
_cell_angle_gamma   89.92176409
_symmetry_Int_Tables_number   1
_chemical_formula_structural   Ta2Bi4O11
_chemical_formula_sum   'Ta4 Bi8 O22'
_cell_volume   491.45740378
_cell_formula_units_Z   2
loop_
 _symmetry_equiv_pos_site_id
 _symmetry_equiv_pos_as_xyz
  1  'x, y, z'
loop_
 _atom_site_type_symbol
 _atom_site_label
 _atom_site_symmetry_multiplicity
 _atom_site_fract_x
 _atom_site_fract_y
 _atom_site_fract_z
 _atom_site_occupancy
  Ta  Ta0  1  0.91321460  0.70334685  0.81225045  1
  Ta  Ta1  1  0.08678540  0.29665315  0.18774955  1
  Ta  Ta2  1  0.90929656  0.20227280  0.80947749  1
  Ta  Ta3  1  0.09070344  0.79772720  0.19052251  1
  Bi  Bi0  1  0.75921364  0.37254062  0.47910144  1
  Bi  Bi1  1  0.24078636  0.62745938  0.52089856  1
  Bi  Bi2  1  0.75198145  0.87195927  0.47878904  1
  Bi  Bi3  1  0.24801855  0.12804073  0.52121096  1
  Bi  Bi4  1  0.43543326  0.95284358  0.81820831  1
  Bi  Bi5  1  0.56456674  0.04715642  0.18179169  1
  Bi  Bi6  1  0.38417030  0.45522581  0.83282487  1
  Bi  Bi7  1  0.61582970  0.54477419  0.16717513  1
  O  O0  1  0.21724482  0.72937344  0.76193339  1
  O  O1  1  0.78275518  0.27062656  0.23806661  1
  O  O2  1  0.62898345  0.65945670  0.83312193  1
  O  O3  1  0.37101655  0.34054330  0.16687807  1
  O  O4  1  0.62828955  0.25719760  0.84885459  1
  O  O5  1  0.37171045  0.74280240  0.15114541  1
  O  O6  1  0.88790993  0.16845364  0.60336274  1
  O  O7  1  0.11209007  0.83154636  0.39663726  1
  O  O8  1  0.21414057  0.14853865  0.76343829  1
  O  O9  1  0.78585943  0.85146135  0.23656171  1
  O  O10  1  0.90821000  0.63762712  0.59831994  1
  O  O11  1  0.09179000  0.36237288  0.40168006  1
  O  O12  1  0.02029455  0.54712997  0.18783425  1
  O  O13  1  0.97970545  0.45287003  0.81216575  1
  O  O14  1  0.99751467  0.78239638  0.99965511  1
  O  O15  1  0.00248533  0.21760362  0.00034489  1
  O  O16  1  0.59104109  0.60789648  0.38325839  1
  O  O17  1  0.40895891  0.39210352  0.61674161  1
  O  O18  1  0.16370204  0.05345138  0.21219831  1
  O  O19  1  0.83629796  0.94654862  0.78780169  1
  O  O20  1  0.54309909  0.09231533  0.39636945  1
  O  O21  1  0.45690091  0.90768467  0.60363055  1
loop_
_geom_bond_atom_site_label_1
_geom_bond_atom_site_label_2
_geom_bond_distance
_geom_bond_site_symmetry_2
Bi0 O11 2.321681 1_655
Bi0 O6 2.326887 1_555
Bi0 O10 2.358500 1_555
Bi0 O1 2.371694 1_555
Bi0 O16 2.456228 1_555
Bi0 O20 2.576406 1_555
Bi0 O17 2.675666 1_555
Bi1 O10 2.321681 1_455
Bi1 O7 2.326887 1_555
Bi1 O11 2.358500 1_555
Bi1 O0 2.371694 1_555
Bi1 O17 2.456228 1_555
Bi1 O21 2.576406 1_555
Bi1 O16 2.675666 1_555
Bi2 O21 2.297078 1_555
Bi2 O16 2.319525 1_555
Bi2 O9 2.386742 1_555
Bi2 O20 2.435737 1_565
Bi2 O7 2.511809 1_655
Bi2 O6 2.531902 1_565
Bi2 O10 2.548746 1_555
Bi3 O20 2.297078 1_555
Bi3 O17 2.319525 1_555
Bi3 O8 2.386742 1_555
Bi3 O21 2.435737 1_545
Bi3 O6 2.511809 1_455
Bi3 O7 2.531902 1_545
Bi3 O11 2.548746 1_555
Bi4 O21 2.093101 1_555
Bi4 O0 2.224174 1_555
Bi4 O8 2.230319 1_565
Bi4 O2 2.613103 1_555
Bi4 O4 2.624075 1_565
Bi4 O19 2.659744 1_555
Bi5 O20 2.093101 1_555
Bi5 O1 2.224174 1_555
Bi5 O9 2.230319 1_545
Bi5 O3 2.613103 1_555
Bi5 O5 2.624075 1_545
Bi5 O18 2.659744 1_555
Bi6 O17 2.109631 1_555
Bi6 O4 2.236857 1_555
Bi6 O2 2.249615 1_555
Bi6 O8 2.576134 1_555
Bi6 O0 2.584268 1_555
Bi6 O13 2.672558 1_455
Bi7 O16 2.109631 1_555
Bi7 O5 2.236857 1_555
Bi7 O3 2.249615 1_555
Bi7 O9 2.576134 1_555
Bi7 O1 2.584268 1_555
Bi7 O12 2.672558 1_655
O0 Ta0 2.086054 1_455
O1 Ta1 2.086054 1_655
O2 Ta0 1.922801 1_555
O3 Ta1 1.922801 1_555
O4 Ta2 1.923671 1_555
O5 Ta3 1.923671 1_555
O6 Ta2 2.013305 1_555
O7 Ta3 2.013305 1_555
O8 Ta2 2.085144 1_455
O9 Ta3 2.085144 1_655
O10 Ta0 2.082813 1_555
O11 Ta1 2.082813 1_555
O12 Ta1 1.969178 1_555
O12 Ta3 1.972498 1_555
O13 Ta0 1.969178 1_555
O13 Ta2 1.972498 1_555
O14 Ta0 1.919428 1_555
O14 Ta3 1.968214 1_656
O15 Ta1 1.919428 1_555
O15 Ta2 1.968214 1_454
O18 Ta3 1.990432 1_545
O18 Ta1 1.990840 1_555
O19 Ta2 1.990432 1_565
O19 Ta0 1.990840 1_555
