# generated using pymatgen
data_Ca2V2O7
_symmetry_space_group_name_H-M   'P 1'
_cell_length_a   6.67743792
_cell_length_b   6.95984716
_cell_length_c   7.03579885
_cell_angle_alpha   85.81617553
_cell_angle_beta   63.84834332
_cell_angle_gamma   82.72471572
_symmetry_Int_Tables_number   1
_chemical_formula_structural   Ca2V2O7
_chemical_formula_sum   'Ca4 V4 O14'
_cell_volume   291.09150515
_cell_formula_units_Z   2
loop_
 _symmetry_equiv_pos_site_id
 _symmetry_equiv_pos_as_xyz
  1  'x, y, z'
loop_
 _atom_site_type_symbol
 _atom_site_label
 _atom_site_symmetry_multiplicity
 _atom_site_fract_x
 _atom_site_fract_y
 _atom_site_fract_z
 _atom_site_occupancy
  Ca  Ca0  1  0.26408339  0.55242702  0.26249432  1
  Ca  Ca1  1  0.73591846  0.44757616  0.73750346  1
  Ca  Ca2  1  0.74361760  0.84090708  0.32976742  1
  Ca  Ca3  1  0.25637950  0.15909565  0.67023141  1
  V  V0  1  0.72483416  0.94855015  0.84524983  1
  V  V1  1  0.27515887  0.05144790  0.15475600  1
  V  V2  1  0.19763302  0.66685329  0.76638724  1
  V  V3  1  0.80236483  0.33315006  0.23361531  1
  O  O0  1  0.75387890  0.78515804  0.67056451  1
  O  O1  1  0.24612903  0.21484536  0.32943262  1
  O  O2  1  0.35971080  0.82022051  0.57781643  1
  O  O3  1  0.64028977  0.17978324  0.42218511  1
  O  O4  1  0.34475352  0.55360035  0.89680489  1
  O  O5  1  0.65525030  0.44639722  0.10319262  1
  O  O6  1  0.88928885  0.12978560  0.73784584  1
  O  O7  1  0.11070061  0.87021466  0.26216708  1
  O  O8  1  0.04890993  0.19978356  0.06299181  1
  O  O9  1  0.95109082  0.80021454  0.93700917  1
  O  O10  1  0.46246679  0.09652064  0.86981538  1
  O  O11  1  0.13575557  0.49390499  0.63924349  1
  O  O12  1  0.86424700  0.50609694  0.36075157  1
  O  O13  1  0.53753530  0.90346602  0.13017751  1
loop_
_geom_bond_atom_site_label_1
_geom_bond_atom_site_label_2
_geom_bond_distance
_geom_bond_site_symmetry_2
Ca0 O7 2.316992 1_555
Ca0 O1 2.369920 1_555
Ca0 O5 2.382260 1_555
Ca0 O4 2.384632 1_554
Ca0 O11 2.419746 1_555
Ca0 O12 2.503732 1_455
Ca1 O6 2.316997 1_555
Ca1 O0 2.369926 1_555
Ca1 O4 2.382241 1_555
Ca1 O5 2.384632 1_556
Ca1 O12 2.419762 1_555
Ca1 O11 2.503730 1_655
Ca2 O7 2.315356 1_655
Ca2 O13 2.348974 1_555
Ca2 O12 2.394072 1_555
Ca2 O2 2.398170 1_555
Ca2 O3 2.424386 1_565
Ca2 O0 2.430418 1_555
Ca2 O9 2.505168 1_554
Ca3 O6 2.315383 1_455
Ca3 O10 2.348974 1_555
Ca3 O11 2.394062 1_555
Ca3 O3 2.398183 1_555
Ca3 O2 2.424376 1_545
Ca3 O1 2.430398 1_555
Ca3 O8 2.505176 1_556
O0 V0 1.667131 1_555
O1 V1 1.667142 1_555
O2 V2 1.700334 1_555
O3 V3 1.700322 1_555
O4 V2 1.709185 1_555
O5 V3 1.709168 1_555
O6 V0 1.687675 1_545
O7 V1 1.687681 1_565
O8 V3 1.745398 1_455
O8 V1 2.032882 1_555
O9 V2 1.745367 1_655
O9 V0 2.032903 1_555
O10 V0 1.860606 1_545
O10 V1 1.865262 1_556
O11 V2 1.740324 1_555
O12 V3 1.740299 1_555
O13 V1 1.860666 1_565
O13 V0 1.865193 1_554
