# generated using pymatgen
data_Na6ScTa3(SiO4)6
_symmetry_space_group_name_H-M   'P 1'
_cell_length_a   9.06675593
_cell_length_b   9.06771686
_cell_length_c   22.65065511
_cell_angle_alpha   90.02119021
_cell_angle_beta   90.01556489
_cell_angle_gamma   119.96605603
_symmetry_Int_Tables_number   1
_chemical_formula_structural   Na6ScTa3(SiO4)6
_chemical_formula_sum   'Na18 Sc3 Ta9 Si18 O72'
_cell_volume   1613.27955559
_cell_formula_units_Z   3
loop_
 _symmetry_equiv_pos_site_id
 _symmetry_equiv_pos_as_xyz
  1  'x, y, z'
loop_
 _atom_site_type_symbol
 _atom_site_label
 _atom_site_symmetry_multiplicity
 _atom_site_fract_x
 _atom_site_fract_y
 _atom_site_fract_z
 _atom_site_occupancy
  Na  Na0  1  0.00527493  0.00034017  0.49958460  1
  Na  Na1  1  0.99393738  0.99437559  0.99759896  1
  Na  Na2  1  0.66659425  0.33292712  0.83352952  1
  Na  Na3  1  0.66672305  0.33308263  0.32840532  1
  Na  Na4  1  0.33981176  0.66700659  0.16386944  1
  Na  Na5  1  0.32707990  0.66057802  0.66564279  1
  Na  Na6  1  0.63910978  0.01120046  0.24744152  1
  Na  Na7  1  0.37160111  0.36050071  0.24694920  1
  Na  Na8  1  0.98922505  0.62801494  0.24736609  1
  Na  Na9  1  0.63493605  0.62630419  0.74789751  1
  Na  Na10  1  0.99074751  0.36459533  0.74800038  1
  Na  Na11  1  0.37422742  0.00881457  0.74839404  1
  Na  Na12  1  0.66615769  0.97031556  0.58534944  1
  Na  Na13  1  0.30592887  0.97239646  0.08337255  1
  Na  Na14  1  0.02901634  0.33613475  0.08339462  1
  Na  Na15  1  0.96685995  0.29173228  0.41429275  1
  Na  Na16  1  0.32496348  0.03255699  0.41441314  1
  Na  Na17  1  0.70806522  0.67557861  0.41447387  1
  Sc  Sc0  1  0.99982419  -0.00001695  0.35164565  1
  Sc  Sc1  1  0.66706675  0.33455293  0.68464376  1
  Sc  Sc2  1  0.66607623  0.33385890  0.18247521  1
  Ta  Ta0  1  0.00051553  0.00048779  0.85632310  1
  Ta  Ta1  1  0.00425542  0.00008391  0.64535897  1
  Ta  Ta2  1  0.99591345  0.99624776  0.14568150  1
  Ta  Ta3  1  0.66729829  0.33416436  0.97783301  1
  Ta  Ta4  1  0.66624458  0.33382012  0.48247788  1
  Ta  Ta5  1  0.33719954  0.66683541  0.01798972  1
  Ta  Ta6  1  0.32972733  0.66302742  0.52188817  1
  Ta  Ta7  1  0.33290769  0.66651475  0.31297144  1
  Ta  Ta8  1  0.33374346  0.66691728  0.81527198  1
  Si  Si0  1  0.29222381  0.00171225  0.25104471  1
  Si  Si1  1  0.70898274  0.70748987  0.25151118  1
  Si  Si2  1  0.99852052  0.29037533  0.25089003  1
  Si  Si3  1  0.28769233  0.28844236  0.75099066  1
  Si  Si4  1  0.00046367  0.71185908  0.75121022  1
  Si  Si5  1  0.71186439  0.99938495  0.75055598  1
  Si  Si6  1  0.95994618  0.33486246  0.58505311  1
  Si  Si7  1  0.37300609  0.04203041  0.58434040  1
  Si  Si8  1  0.66728803  0.62481068  0.58489812  1
  Si  Si9  1  0.95564927  0.62366107  0.08298133  1
  Si  Si10  1  0.66544007  0.04122013  0.08309317  1
  Si  Si11  1  0.37874344  0.33686409  0.08353743  1
  Si  Si12  1  0.62550926  0.66598793  0.91630873  1
  Si  Si13  1  0.04129129  0.37559451  0.91679613  1
  Si  Si14  1  0.33408624  0.95855575  0.91707455  1
  Si  Si15  1  0.62275501  0.95707108  0.41794454  1
  Si  Si16  1  0.33442701  0.37688658  0.41730581  1
  Si  Si17  1  0.04270052  0.66580340  0.41758223  1
  O  O0  1  0.21000943  0.03247272  0.30920272  1
  O  O1  1  0.82172853  0.78889008  0.30978100  1
  O  O2  1  0.96753768  0.17754040  0.30909437  1
  O  O3  1  0.18986534  0.16300761  0.80677999  1
  O  O4  1  0.97335055  0.81030995  0.80690051  1
  O  O5  1  0.83766438  0.02633897  0.80621536  1
  O  O6  1  0.79895252  0.96332998  0.69164844  1
  O  O7  1  0.15940114  0.19621612  0.69356392  1
  O  O8  1  0.03608235  0.83991800  0.69372881  1
  O  O9  1  0.80387381  0.83915297  0.19445951  1
  O  O10  1  0.03569726  0.20044018  0.19242541  1
  O  O11  1  0.16510311  0.96470797  0.19258324  1
  O  O12  1  0.88084443  0.36656641  0.64302284  1
  O  O13  1  0.49209659  0.11559936  0.64137280  1
  O  O14  1  0.63128379  0.51334338  0.64283817  1
  O  O15  1  0.88745367  0.51091664  0.14202876  1
  O  O16  1  0.62500545  0.11263511  0.14231018  1
  O  O17  1  0.48257409  0.36739749  0.14365248  1
  O  O18  1  0.47020464  0.29897188  0.02760285  1
  O  O19  1  0.83211900  0.52739602  0.02659117  1
  O  O20  1  0.70070002  0.17010385  0.02728048  1
  O  O21  1  0.46876797  0.16322085  0.52500227  1
  O  O22  1  0.69444089  0.53097377  0.52532339  1
  O  O23  1  0.83415813  0.30176274  0.52586822  1
  O  O24  1  0.52660846  0.69367941  0.97240038  1
  O  O25  1  0.16274397  0.46954586  0.97442728  1
  O  O26  1  0.30585296  0.83655981  0.97456418  1
  O  O27  1  0.52687846  0.83450161  0.47426208  1
  O  O28  1  0.30846068  0.47793963  0.47221821  1
  O  O29  1  0.17051438  0.69293656  0.47232217  1
  O  O30  1  0.13313948  0.63056885  0.35897055  1
  O  O31  1  0.49670325  0.86557144  0.35951540  1
  O  O32  1  0.36932176  0.50252325  0.35884734  1
  O  O33  1  0.13684306  0.49764084  0.85868799  1
  O  O34  1  0.36092222  0.86325461  0.85882209  1
  O  O35  1  0.50337273  0.63874937  0.85810326  1
  O  O36  1  0.02356242  0.83153193  0.41420340  1
  O  O37  1  0.80824030  0.97696125  0.41423578  1
  O  O38  1  0.16868456  0.19208780  0.41421298  1
  O  O39  1  0.02508273  0.18927492  0.90895578  1
  O  O40  1  0.16413633  0.97490172  0.90897072  1
  O  O41  1  0.81111029  0.83615941  0.90894258  1
  O  O42  1  0.96900728  0.15772765  0.58914466  1
  O  O43  1  0.18429396  0.02314847  0.58933013  1
  O  O44  1  0.83435136  0.81857406  0.58922066  1
  O  O45  1  0.98427814  0.81875796  0.08980488  1
  O  O46  1  0.84156469  0.02932974  0.08996211  1
  O  O47  1  0.18525484  0.16271827  0.08971971  1
  O  O48  1  0.69018020  0.16460759  0.74700917  1
  O  O49  1  0.47360751  0.30838453  0.74677542  1
  O  O50  1  0.83509081  0.52572537  0.74710479  1
  O  O51  1  0.68374228  0.51971986  0.24494112  1
  O  O52  1  0.83628686  0.31665130  0.24481096  1
  O  O53  1  0.48094101  0.16333999  0.24516189  1
  O  O54  1  0.64043413  0.49557385  0.92459743  1
  O  O55  1  0.85463161  0.35867196  0.92431440  1
  O  O56  1  0.50421063  0.14467190  0.92476613  1
  O  O57  1  0.63555604  0.14540550  0.42367021  1
  O  O58  1  0.50986845  0.36468394  0.42366325  1
  O  O59  1  0.85536937  0.49013948  0.42404305  1
  O  O60  1  0.34345843  0.49745259  0.07402803  1
  O  O61  1  0.14928019  0.64941956  0.07348851  1
  O  O62  1  0.49483466  0.85271856  0.07338453  1
  O  O63  1  0.35881569  0.85550116  0.57281764  1
  O  O64  1  0.50387211  0.65504031  0.57355551  1
  O  O65  1  0.14871010  0.50045735  0.57365400  1
  O  O66  1  0.30383398  0.82326607  0.25664534  1
  O  O67  1  0.51955990  0.69634225  0.25656014  1
  O  O68  1  0.17666151  0.48036624  0.25662603  1
  O  O69  1  0.30174891  0.47769150  0.75719442  1
  O  O70  1  0.17587011  0.69796924  0.75717252  1
  O  O71  1  0.52197040  0.82418249  0.75723983  1
loop_
_geom_bond_atom_site_label_1
_geom_bond_atom_site_label_2
_geom_bond_distance
_geom_bond_site_symmetry_2
Na0 O36 2.522341 1_545
Na0 O38 2.527479 1_555
Na0 O43 2.544033 1_555
Na0 O37 2.567718 1_445
Na0 O44 2.587072 1_445
Na0 O42 2.593664 1_455
Na1 O41 2.541447 1_555
Na1 O40 2.591552 1_655
Na1 O39 2.595922 1_665
Na1 O45 2.601681 1_556
Na1 O46 2.612357 1_566
Na1 O47 2.653956 1_666
Na2 O48 2.557324 1_555
Na2 O50 2.560947 1_555
Na2 O49 2.565419 1_555
Na2 O55 2.605727 1_555
Na2 O54 2.614152 1_555
Na2 O56 2.616472 1_555
Na3 O53 2.483490 1_555
Na3 O52 2.490220 1_555
Na3 O51 2.490712 1_555
Na3 O57 2.674842 1_555
Na3 O58 2.677395 1_555
Na3 O59 2.684902 1_555
Na4 O60 2.560175 1_555
Na4 O62 2.579075 1_555
Na4 O67 2.588312 1_555
Na4 O61 2.631217 1_555
Na4 O68 2.640074 1_555
Na4 O66 2.643858 1_555
Na5 O65 2.591369 1_555
Na5 O69 2.593354 1_555
Na5 O70 2.599639 1_555
Na5 O71 2.646645 1_555
Na5 O64 2.646654 1_555
Na5 O63 2.668822 1_555
Na6 O52 2.434077 1_555
Na6 O53 2.436966 1_555
Na6 O67 2.505576 1_545
Na6 O16 2.579121 1_555
Na6 O66 2.648376 1_545
Na6 O31 2.855890 1_545
Na6 O9 2.904040 1_545
Na6 O2 2.932862 1_555
Na7 O53 2.439497 1_555
Na7 O51 2.452415 1_555
Na7 O68 2.504495 1_555
Na7 O17 2.535583 1_555
Na7 O67 2.653151 1_555
Na7 O32 2.847303 1_555
Na7 O10 2.913427 1_555
Na7 O0 2.938214 1_555
Na8 O51 2.433430 1_555
Na8 O52 2.446700 1_555
Na8 O66 2.503947 1_655
Na8 O15 2.586475 1_555
Na8 O68 2.645284 1_655
Na8 O30 2.839272 1_655
Na8 O11 2.923020 1_655
Na8 O1 2.940356 1_555
Na9 O50 2.403921 1_555
Na9 O71 2.479736 1_555
Na9 O49 2.497655 1_555
Na9 O14 2.584056 1_555
Na9 O69 2.630610 1_555
Na9 O35 2.793330 1_555
Na9 O6 2.939069 1_555
Na9 O4 2.977665 1_555
Na10 O48 2.403891 1_555
Na10 O69 2.481318 1_655
Na10 O50 2.487340 1_555
Na10 O12 2.581429 1_555
Na10 O70 2.632343 1_655
Na10 O33 2.809874 1_655
Na10 O7 2.919200 1_655
Na10 O5 2.970545 1_555
Na11 O49 2.397316 1_555
Na11 O70 2.481006 1_545
Na11 O48 2.482004 1_555
Na11 O71 2.622579 1_545
Na11 O13 2.631608 1_555
Na11 O34 2.802956 1_545
Na11 O8 2.929883 1_545
Na11 O3 2.971965 1_555
Na12 O42 2.402779 1_565
Na12 O63 2.455764 1_555
Na12 O64 2.491251 1_555
Na12 O44 2.514479 1_555
Na12 O6 2.706588 1_555
Na12 O27 2.808025 1_555
Na12 O13 2.813041 1_565
Na12 O23 2.932413 1_565
Na13 O62 2.453412 1_555
Na13 O47 2.466229 1_565
Na13 O45 2.531548 1_455
Na13 O61 2.547248 1_555
Na13 O26 2.754673 1_554
Na13 O11 2.768978 1_555
Na13 O16 2.844327 1_565
Na13 O18 2.860256 1_565
Na14 O46 2.434619 1_455
Na14 O60 2.479367 1_555
Na14 O61 2.493097 1_555
Na14 O47 2.593312 1_555
Na14 O25 2.750280 1_554
Na14 O10 2.773678 1_555
Na14 O15 2.820385 1_455
Na14 O20 2.874502 1_455
Na15 O38 2.411766 1_655
Na15 O37 2.472733 1_545
Na15 O59 2.474665 1_555
Na15 O2 2.598951 1_555
Na15 O57 2.616822 1_555
Na15 O23 2.820237 1_555
Na15 O30 2.942744 1_655
Na15 O28 2.989497 1_655
Na16 O36 2.411296 1_545
Na16 O57 2.478337 1_555
Na16 O38 2.479508 1_555
Na16 O0 2.600626 1_555
Na16 O58 2.622976 1_555
Na16 O21 2.798429 1_555
Na16 O31 2.935742 1_545
Na16 O29 2.976780 1_545
Na17 O37 2.411196 1_555
Na17 O36 2.478198 1_655
Na17 O58 2.481893 1_555
Na17 O1 2.585819 1_555
Na17 O59 2.627125 1_555
Na17 O22 2.807059 1_555
Na17 O32 2.943592 1_555
Na17 O27 2.995672 1_555
O0 Si0 1.605222 1_555
O0 Sc0 2.020654 1_455
O1 Si1 1.605173 1_555
O1 Sc0 2.020067 1_565
O2 Si2 1.605592 1_555
O2 Sc0 2.019575 1_555
O3 Si3 1.634357 1_555
O3 Ta0 1.962974 1_555
O4 Si4 1.633138 1_655
O4 Ta0 1.965144 1_665
O5 Si5 1.634203 1_545
O5 Ta0 1.966801 1_655
O6 Si5 1.663984 1_555
O6 Ta1 2.014178 1_665
O7 Si3 1.664616 1_555
O7 Ta1 1.957662 1_555
O8 Si4 1.665711 1_555
O8 Ta1 1.952586 1_565
O9 Si1 1.676644 1_555
O9 Ta2 1.950907 1_555
O10 Si2 1.675227 1_455
O10 Ta2 2.002636 1_445
O11 Si0 1.675409 1_565
O11 Ta2 2.000289 1_455
O12 Si6 1.589756 1_555
O12 Sc1 2.041821 1_555
O13 Si7 1.599609 1_555
O13 Sc1 2.066507 1_555
O14 Si8 1.588121 1_555
O14 Sc1 2.038797 1_555
O15 Si9 1.608189 1_555
O15 Sc2 2.056351 1_555
O16 Si10 1.609234 1_555
O16 Sc2 2.059756 1_555
O17 Si11 1.598633 1_555
O17 Sc2 2.034393 1_555
O18 Si11 1.641884 1_555
O18 Ta3 1.999435 1_554
O19 Si9 1.633880 1_555
O19 Ta3 1.976093 1_554
O20 Si10 1.641427 1_555
O20 Ta3 2.002595 1_554
O21 Si7 1.678248 1_555
O21 Ta4 1.939514 1_555
O22 Si8 1.677531 1_555
O22 Ta4 1.935251 1_555
O23 Si6 1.686672 1_555
O23 Ta4 1.951852 1_555
O24 Si12 1.645191 1_555
O24 Ta5 1.912677 1_556
O25 Si13 1.644274 1_555
O25 Ta5 1.961375 1_556
O26 Si14 1.644168 1_555
O26 Ta5 1.963355 1_556
O27 Si15 1.629310 1_555
O27 Ta6 2.000593 1_555
O28 Si16 1.630012 1_555
O28 Ta6 1.948052 1_555
O29 Si17 1.629414 1_555
O29 Ta6 1.951481 1_555
O30 Si17 1.673007 1_555
O30 Ta7 1.970775 1_555
O31 Si15 1.672485 1_555
O31 Ta7 1.973538 1_555
O32 Si16 1.671089 1_555
O32 Ta7 1.972671 1_555
O33 Si13 1.658783 1_555
O33 Ta8 1.942904 1_555
O34 Si14 1.660219 1_555
O34 Ta8 1.940018 1_555
O35 Si12 1.658671 1_555
O35 Ta8 1.940012 1_555
O36 Si17 1.598401 1_555
O36 Sc0 2.171899 1_465
O37 Si15 1.601546 1_555
O37 Sc0 2.170278 1_565
O38 Si16 1.598568 1_555
O38 Sc0 2.172467 1_455
O39 Si13 1.630722 1_555
O39 Ta0 2.004693 1_555
O40 Si14 1.630350 1_555
O40 Ta0 2.004936 1_565
O41 Si12 1.626974 1_555
O41 Ta0 2.009011 1_665
O42 Si6 1.651415 1_555
O42 Ta1 2.055306 1_655
O43 Si7 1.636185 1_555
O43 Ta1 1.994799 1_555
O44 Si8 1.652924 1_555
O44 Ta1 2.040449 1_665
O45 Si9 1.661916 1_555
O45 Ta2 2.007995 1_555
O46 Si10 1.660641 1_555
O46 Ta2 2.014936 1_545
O47 Si11 1.680385 1_555
O47 Ta2 2.060659 1_445
O48 Si5 1.607488 1_545
O48 Sc1 2.176740 1_555
O49 Si3 1.605871 1_555
O49 Sc1 2.167798 1_555
O50 Si4 1.605379 1_655
O50 Sc1 2.164794 1_555
O51 Si1 1.607502 1_555
O51 Sc2 2.143916 1_555
O52 Si2 1.609160 1_555
O52 Sc2 2.153860 1_555
O53 Si0 1.608899 1_555
O53 Sc2 2.152822 1_555
O54 Si12 1.628036 1_555
O54 Ta3 2.003191 1_555
O55 Si13 1.630185 1_655
O55 Ta3 2.007003 1_555
O56 Si14 1.629998 1_545
O56 Ta3 2.010740 1_555
O57 Si15 1.657880 1_545
O57 Ta4 2.072171 1_555
O58 Si16 1.654984 1_555
O58 Ta4 2.063715 1_555
O59 Si17 1.655634 1_655
O59 Ta4 2.067841 1_555
O60 Si11 1.653709 1_555
O60 Ta5 2.015407 1_555
O61 Si9 1.665395 1_455
O61 Ta5 2.059299 1_555
O62 Si10 1.649537 1_565
O62 Ta5 2.012213 1_555
O63 Si7 1.651590 1_565
O63 Ta6 1.996221 1_555
O64 Si8 1.655901 1_555
O64 Ta6 1.995283 1_555
O65 Si6 1.638228 1_455
O65 Ta6 1.956265 1_555
O66 Si0 1.678011 1_565
O66 Ta7 2.023111 1_555
O67 Si1 1.673207 1_555
O67 Ta7 2.028291 1_555
O68 Si2 1.677383 1_455
O68 Ta7 2.023249 1_555
O69 Si3 1.661978 1_555
O69 Ta8 2.063902 1_555
O70 Si4 1.662337 1_555
O70 Ta8 2.064435 1_555
O71 Si5 1.667040 1_555
O71 Ta8 2.060420 1_555
