# generated using pymatgen
data_TbSiRu
_symmetry_space_group_name_H-M   'P 1'
_cell_length_a   4.36766138
_cell_length_b   7.02328891
_cell_length_c   7.00064599
_cell_angle_alpha   90.00000000
_cell_angle_beta   90.00000000
_cell_angle_gamma   90.00000000
_symmetry_Int_Tables_number   1
_chemical_formula_structural   TbSiRu
_chemical_formula_sum   'Tb4 Si4 Ru4'
_cell_volume   214.74725010
_cell_formula_units_Z   4
loop_
 _symmetry_equiv_pos_site_id
 _symmetry_equiv_pos_as_xyz
  1  'x, y, z'
loop_
 _atom_site_type_symbol
 _atom_site_label
 _atom_site_symmetry_multiplicity
 _atom_site_fract_x
 _atom_site_fract_y
 _atom_site_fract_z
 _atom_site_occupancy
  Tb  Tb0  1  0.25000000  0.98160482  0.18560057  1
  Tb  Tb1  1  0.75000000  0.01839518  0.81439943  1
  Tb  Tb2  1  0.25000000  0.48160482  0.31439943  1
  Tb  Tb3  1  0.75000000  0.51839518  0.68560057  1
  Si  Si0  1  0.25000000  0.30686012  0.89289539  1
  Si  Si1  1  0.75000000  0.69313988  0.10710461  1
  Si  Si2  1  0.25000000  0.80686012  0.60710461  1
  Si  Si3  1  0.75000000  0.19313988  0.39289539  1
  Ru  Ru0  1  0.75000000  0.84915837  0.43175874  1
  Ru  Ru1  1  0.25000000  0.15084163  0.56824126  1
  Ru  Ru2  1  0.75000000  0.34915837  0.06824126  1
  Ru  Ru3  1  0.25000000  0.65084163  0.93175874  1
loop_
_geom_bond_atom_site_label_1
_geom_bond_atom_site_label_2
_geom_bond_distance
_geom_bond_site_symmetry_2
Si0 Tb3 3.013687 1_455
Si0 Tb3 3.013687 1_555
Si0 Tb1 3.029135 1_455
Si0 Tb1 3.029135 1_555
Si0 Tb0 3.068750 1_546
Si0 Tb2 3.195848 1_556
Si1 Tb2 3.013687 1_555
Si1 Tb2 3.013687 1_655
Si1 Tb0 3.029135 1_655
Si1 Tb0 3.029135 1_555
Si1 Tb1 3.068750 1_564
Si1 Tb3 3.195848 1_554
Si2 Tb1 3.013687 1_565
Si2 Tb1 3.013687 1_465
Si2 Tb3 3.029135 1_555
Si2 Tb3 3.029135 1_455
Si2 Tb2 3.068750 1_555
Si2 Tb0 3.195848 1_555
Si3 Tb0 3.013687 1_645
Si3 Tb0 3.013687 1_545
Si3 Tb2 3.029135 1_555
Si3 Tb2 3.029135 1_655
Si3 Tb3 3.068750 1_555
Si3 Tb1 3.195848 1_555
Ru0 Si3 2.431153 1_565
Ru0 Si2 2.522738 1_555
Ru0 Si2 2.522738 1_655
Ru0 Si1 2.523146 1_555
Ru0 Tb3 2.924803 1_555
Ru0 Tb1 2.930593 1_565
Ru0 Tb0 2.933267 1_555
Ru0 Tb0 2.933267 1_655
Ru1 Si2 2.431153 1_545
Ru1 Si3 2.522738 1_455
Ru1 Si3 2.522738 1_555
Ru1 Si0 2.523146 1_555
Ru1 Tb2 2.924803 1_555
Ru1 Tb0 2.930593 1_545
Ru1 Tb1 2.933267 1_455
Ru1 Tb1 2.933267 1_555
Ru2 Si1 2.431153 1_555
Ru2 Si0 2.522738 1_654
Ru2 Si0 2.522738 1_554
Ru2 Si3 2.523146 1_555
Ru2 Tb1 2.924803 1_554
Ru2 Tb3 2.930593 1_554
Ru2 Tb2 2.933267 1_655
Ru2 Tb2 2.933267 1_555
Ru3 Si0 2.431153 1_555
Ru3 Si1 2.522738 1_456
Ru3 Si1 2.522738 1_556
Ru3 Si2 2.523146 1_555
Ru3 Tb0 2.924803 1_556
Ru3 Tb2 2.930593 1_556
Ru3 Tb3 2.933267 1_455
Ru3 Tb3 2.933267 1_555
