# generated using pymatgen
data_Na3Ca3Ga(SO4)6
_symmetry_space_group_name_H-M   'P 1'
_cell_length_a   9.06402344
_cell_length_b   9.06735489
_cell_length_c   23.56689153
_cell_angle_alpha   89.94356026
_cell_angle_beta   90.21184314
_cell_angle_gamma   120.24288234
_symmetry_Int_Tables_number   1
_chemical_formula_structural   Na3Ca3Ga(SO4)6
_chemical_formula_sum   'Na9 Ca9 Ga3 S18 O72'
_cell_volume   1673.25932367
_cell_formula_units_Z   3
loop_
 _symmetry_equiv_pos_site_id
 _symmetry_equiv_pos_as_xyz
  1  'x, y, z'
loop_
 _atom_site_type_symbol
 _atom_site_label
 _atom_site_symmetry_multiplicity
 _atom_site_fract_x
 _atom_site_fract_y
 _atom_site_fract_z
 _atom_site_occupancy
  Na  Na0  1  0.63896445  0.99981712  0.24932249  1
  Na  Na1  1  0.36038945  0.35957918  0.24916383  1
  Na  Na2  1  0.03758674  0.70103604  0.58572174  1
  Na  Na3  1  0.99944078  0.01495586  0.49956560  1
  Na  Na4  1  0.00004110  0.99950907  0.99718233  1
  Na  Na5  1  0.66606429  0.33250626  0.83601604  1
  Na  Na6  1  0.68224986  0.34826186  0.34337204  1
  Na  Na7  1  0.31544683  0.66565046  0.15608210  1
  Na  Na8  1  0.34961779  0.66574077  0.67824120  1
  Ca  Ca0  1  0.00034968  0.99362566  0.35459172  1
  Ca  Ca1  1  0.00031039  0.99896948  0.85125666  1
  Ca  Ca2  1  0.99843548  0.01159466  0.65578517  1
  Ca  Ca3  1  0.99942058  0.99422257  0.14186289  1
  Ca  Ca4  1  0.66120765  0.32741098  0.68938089  1
  Ca  Ca5  1  0.67534073  0.34203077  0.17995941  1
  Ca  Ca6  1  0.33556457  0.66689494  0.01494644  1
  Ca  Ca7  1  0.34112936  0.66577222  0.51486261  1
  Ca  Ca8  1  0.32454180  0.66639964  0.32780174  1
  Ga  Ga0  1  0.66618547  0.33254765  0.98136117  1
  Ga  Ga1  1  0.66089696  0.32808172  0.48601081  1
  Ga  Ga2  1  0.33314410  0.66629148  0.82193334  1
  S  S0  1  0.30322896  0.00034903  0.24964148  1
  S  S1  1  0.69360009  0.69923259  0.25076162  1
  S  S2  1  0.00244702  0.29690683  0.25028317  1
  S  S3  1  0.30285915  0.32356176  0.75569435  1
  S  S4  1  0.02025119  0.69755107  0.75250602  1
  S  S5  1  0.67726270  0.97957476  0.75558148  1
  S  S6  1  0.94853722  0.33085577  0.57848717  1
  S  S7  1  0.37290490  0.04432206  0.57866246  1
  S  S8  1  0.67294985  0.61960355  0.57963962  1
  S  S9  1  0.95513755  0.62297462  0.07616548  1
  S  S10  1  0.66789608  0.04633774  0.07972944  1
  S  S11  1  0.37819434  0.33220103  0.07933009  1
  S  S12  1  0.62176297  0.64822077  0.91682449  1
  S  S13  1  0.02678997  0.37821081  0.91666236  1
  S  S14  1  0.35164910  0.97284634  0.91689966  1
  S  S15  1  0.64103745  0.99312362  0.41903232  1
  S  S16  1  0.35143947  0.35901407  0.41900832  1
  S  S17  1  0.00751182  0.64819436  0.42438304  1
  O  O0  1  0.21974725  0.01765548  0.30061865  1
  O  O1  1  0.79269922  0.78101447  0.30238536  1
  O  O2  1  0.98290058  0.19372607  0.30120444  1
  O  O3  1  0.21526034  0.21402395  0.80402584  1
  O  O4  1  0.00007314  0.79157027  0.79924627  1
  O  O5  1  0.78709075  0.00215149  0.80401454  1
  O  O6  1  0.74773781  0.95383247  0.70196061  1
  O  O7  1  0.20572712  0.25264366  0.70199802  1
  O  O8  1  0.04400799  0.78920901  0.69723571  1
  O  O9  1  0.77781717  0.79992963  0.19977465  1
  O  O10  1  0.02111881  0.21378630  0.19913556  1
  O  O11  1  0.20563416  0.98504493  0.19804336  1
  O  O12  1  0.86829742  0.34887812  0.62964293  1
  O  O13  1  0.46868543  0.12500747  0.63028903  1
  O  O14  1  0.65838570  0.52509705  0.63145297  1
  O  O15  1  0.88017768  0.53664295  0.13020851  1
  O  O16  1  0.65813375  0.11810822  0.13527325  1
  O  O17  1  0.45972862  0.34187041  0.13499378  1
  O  O18  1  0.48126775  0.32452119  0.03111791  1
  O  O19  1  0.84761939  0.52481635  0.02627155  1
  O  O20  1  0.67675972  0.15760060  0.03129312  1
  O  O21  1  0.46267725  0.14602818  0.52666758  1
  O  O22  1  0.68872526  0.52889226  0.52833801  1
  O  O23  1  0.84425890  0.31420879  0.52647535  1
  O  O24  1  0.54553877  0.67097487  0.96773435  1
  O  O25  1  0.12644563  0.45510470  0.96769667  1
  O  O26  1  0.32942766  0.87377735  0.96785837  1
  O  O27  1  0.54673536  0.87930835  0.46596620  1
  O  O28  1  0.33165418  0.45247753  0.46605006  1
  O  O29  1  0.11155065  0.66921594  0.47477739  1
  O  O30  1  0.08477111  0.62447093  0.37236590  1
  O  O31  1  0.54946965  0.92418386  0.36408035  1
  O  O32  1  0.37481376  0.45089615  0.36421291  1
  O  O33  1  0.11320711  0.48753859  0.86494396  1
  O  O34  1  0.37468754  0.88781922  0.86512913  1
  O  O35  1  0.51278578  0.62558985  0.86507465  1
  O  O36  1  0.98514961  0.79844792  0.41933057  1
  O  O37  1  0.81491617  0.01745044  0.41711912  1
  O  O38  1  0.20083354  0.18534688  0.41690395  1
  O  O39  1  0.00110038  0.20543888  0.90982140  1
  O  O40  1  0.20427770  0.99768440  0.90996659  1
  O  O41  1  0.79499079  0.79603648  0.91022932  1
  O  O42  1  0.96917739  0.17930812  0.58020000  1
  O  O43  1  0.19949377  0.02539670  0.57967546  1
  O  O44  1  0.83545947  0.78891238  0.58081490  1
  O  O45  1  0.96785317  0.79230537  0.07495546  1
  O  O46  1  0.82433357  0.03354235  0.07745218  1
  O  O47  1  0.20806722  0.17535079  0.07673318  1
  O  O48  1  0.65202344  0.12804687  0.75109256  1
  O  O49  1  0.47693555  0.34921251  0.75129415  1
  O  O50  1  0.87034445  0.52327903  0.74974184  1
  O  O51  1  0.66436639  0.52224876  0.24787176  1
  O  O52  1  0.84584061  0.31095984  0.24698490  1
  O  O53  1  0.47667153  0.15943776  0.24735295  1
  O  O54  1  0.63281098  0.48669516  0.92139589  1
  O  O55  1  0.85344032  0.36578663  0.92098935  1
  O  O56  1  0.51352362  0.14721263  0.92174760  1
  O  O57  1  0.65330449  0.16360496  0.42638716  1
  O  O58  1  0.50951605  0.34671172  0.42668574  1
  O  O59  1  0.83475403  0.49019191  0.42882042  1
  O  O60  1  0.36181697  0.48587321  0.07585111  1
  O  O61  1  0.12618290  0.64158363  0.07373828  1
  O  O62  1  0.51365037  0.87574618  0.07615809  1
  O  O63  1  0.34927605  0.86990083  0.57451826  1
  O  O64  1  0.52469931  0.64321216  0.57450673  1
  O  O65  1  0.11787893  0.49031271  0.57381458  1
  O  O66  1  0.33112057  0.85181357  0.25365181  1
  O  O67  1  0.52117288  0.68549114  0.25429673  1
  O  O68  1  0.15935269  0.46839194  0.25472875  1
  O  O69  1  0.31621549  0.49580535  0.76302987  1
  O  O70  1  0.17928728  0.68555372  0.76124346  1
  O  O71  1  0.50472302  0.82004420  0.76295913  1
loop_
_geom_bond_atom_site_label_1
_geom_bond_atom_site_label_2
_geom_bond_distance
_geom_bond_site_symmetry_2
Na0 O66 2.413909 1_555
Na0 O52 2.479923 1_565
Na0 O67 2.492337 1_555
Na0 O53 2.530792 1_565
Na0 O31 2.809762 1_555
Na0 O16 2.866160 1_565
Na0 O9 2.923236 1_555
Na0 O2 2.959645 1_565
Na1 O51 2.382164 1_555
Na1 O68 2.474703 1_555
Na1 O53 2.516598 1_555
Na1 O67 2.555892 1_555
Na1 O32 2.819016 1_555
Na1 O17 2.870617 1_555
Na1 O10 2.911263 1_555
Na1 O0 2.954733 1_555
Na2 O44 2.339570 1_455
Na2 O65 2.379600 1_555
Na2 O63 2.458234 1_555
Na2 O43 2.544976 1_565
Na2 O8 2.739580 1_555
Na2 O29 2.752852 1_555
Na3 O42 2.515636 1_555
Na3 O37 2.566545 1_555
Na3 O43 2.581356 1_655
Na3 O38 2.587202 1_655
Na3 O44 2.649737 1_545
Na3 O36 2.682454 1_545
Na4 O45 2.533652 1_456
Na4 O47 2.561947 1_566
Na4 O46 2.593980 1_466
Na4 O41 2.753652 1_455
Na4 O39 2.774878 1_565
Na4 O40 2.776864 1_555
Na5 O55 2.538811 1_555
Na5 O56 2.547656 1_555
Na5 O54 2.555132 1_555
Na5 O49 2.680275 1_555
Na5 O48 2.688206 1_555
Na5 O50 2.710927 1_555
Na6 O59 2.411368 1_555
Na6 O57 2.500930 1_555
Na6 O58 2.511399 1_555
Na6 O51 2.797929 1_555
Na6 O52 2.829242 1_555
Na6 O53 2.878689 1_555
Na7 O61 2.521018 1_555
Na7 O62 2.640989 1_555
Na7 O60 2.666665 1_555
Na7 O66 2.814342 1_555
Na7 O68 2.841224 1_555
Na7 O67 2.915117 1_555
Na8 O71 2.433830 1_555
Na8 O69 2.446881 1_555
Na8 O70 2.558243 1_555
Ca0 O1 2.259472 1_455
Ca0 O2 2.276640 1_465
Ca0 O0 2.280727 1_565
Ca0 O36 2.286776 1_455
Ca0 O38 2.298664 1_565
Ca0 O37 2.329763 1_465
Ca1 O5 2.239559 1_465
Ca1 O3 2.240986 1_565
Ca1 O4 2.244853 1_555
Ca1 O40 2.309805 1_555
Ca1 O41 2.312005 1_455
Ca1 O39 2.324083 1_565
Ca2 O7 2.312216 1_655
Ca2 O6 2.332446 1_545
Ca2 O42 2.439955 1_555
Ca2 O8 2.454207 1_645
Ca2 O43 2.519530 1_655
Ca2 O44 2.522674 1_545
Ca3 O11 2.322002 1_655
Ca3 O45 2.322681 1_555
Ca3 O10 2.330862 1_665
Ca3 O9 2.334920 1_555
Ca3 O46 2.345407 1_565
Ca3 O47 2.348947 1_665
Ca4 O13 2.261343 1_555
Ca4 O14 2.262410 1_555
Ca4 O12 2.279084 1_555
Ca4 O48 2.287793 1_555
Ca4 O49 2.304121 1_555
Ca4 O50 2.316215 1_555
Ca5 O15 2.155790 1_555
Ca5 O17 2.219039 1_555
Ca5 O16 2.222576 1_555
Ca5 O52 2.320004 1_555
Ca5 O51 2.326326 1_555
Ca5 O53 2.349275 1_555
Ca6 O24 2.192306 1_554
Ca6 O25 2.200563 1_554
Ca6 O26 2.203188 1_554
Ca6 O61 2.270298 1_555
Ca6 O62 2.276336 1_555
Ca6 O60 2.279743 1_555
Ca7 O28 2.215280 1_555
Ca7 O27 2.219577 1_555
Ca7 O64 2.260782 1_555
Ca7 O29 2.296614 1_555
Ca7 O63 2.296637 1_555
Ca7 O65 2.308577 1_555
Ca8 O30 2.270353 1_555
Ca8 O31 2.354083 1_555
Ca8 O32 2.377602 1_555
Ca8 O68 2.389572 1_555
Ca8 O66 2.403691 1_555
Ca8 O67 2.432840 1_555
Ga0 O19 1.991664 1_556
Ga0 O20 2.014676 1_556
Ga0 O18 2.020175 1_556
Ga0 O56 2.088160 1_555
Ga0 O54 2.112129 1_555
Ga0 O55 2.120758 1_555
Ga1 O23 1.971318 1_555
Ga1 O21 1.973083 1_555
Ga1 O22 1.978163 1_555
Ga1 O58 2.021086 1_555
Ga1 O57 2.025679 1_555
Ga1 O59 2.034442 1_555
Ga2 O69 2.025823 1_555
Ga2 O71 2.030272 1_555
Ga2 O70 2.061820 1_555
Ga2 O33 2.094152 1_555
Ga2 O35 2.100840 1_555
Ga2 O34 2.110008 1_555
O0 S0 1.472139 1_555
O1 S1 1.469554 1_555
O2 S2 1.476217 1_655
O3 S3 1.457515 1_555
O4 S4 1.460811 1_555
O5 S5 1.456882 1_545
O6 S5 1.488677 1_555
O7 S3 1.487639 1_555
O8 S4 1.501129 1_555
O9 S1 1.470630 1_555
O10 S2 1.476968 1_555
O11 S0 1.466006 1_565
O12 S6 1.461399 1_555
O13 S7 1.457183 1_555
O14 S8 1.458753 1_555
O15 S9 1.471464 1_555
O16 S10 1.485038 1_555
O17 S11 1.484086 1_555
O18 S11 1.497400 1_555
O19 S9 1.498120 1_555
O20 S10 1.498006 1_555
O21 S7 1.504432 1_555
O22 S8 1.510102 1_555
O23 S6 1.505561 1_555
O24 S12 1.452448 1_555
O25 S13 1.451821 1_555
O26 S14 1.451606 1_555
O27 S15 1.461242 1_555
O28 S16 1.461448 1_555
O29 S17 1.465327 1_555
O30 S17 1.482586 1_555
O31 S15 1.492574 1_555
O32 S16 1.492880 1_555
O33 S13 1.517998 1_555
O34 S14 1.514096 1_555
O35 S12 1.514130 1_555
O36 S17 1.479553 1_655
O37 S15 1.478143 1_545
O38 S16 1.476449 1_555
O39 S13 1.472129 1_555
O40 S14 1.470741 1_555
O41 S12 1.472210 1_555
O42 S6 1.477727 1_555
O43 S7 1.493033 1_555
O44 S8 1.499715 1_555
O45 S9 1.480937 1_555
O46 S10 1.480954 1_555
O47 S11 1.481419 1_555
O48 S5 1.478409 1_545
O49 S3 1.478478 1_555
O50 S4 1.477893 1_655
O51 S1 1.490601 1_555
O52 S2 1.489490 1_655
O53 S0 1.507083 1_555
O54 S12 1.521206 1_555
O55 S13 1.521433 1_655
O56 S14 1.525735 1_545
O57 S15 1.503063 1_545
O58 S16 1.502388 1_555
O59 S17 1.502174 1_655
O60 S11 1.475929 1_555
O61 S9 1.473932 1_455
O62 S10 1.474894 1_565
O63 S7 1.488495 1_565
O64 S8 1.467863 1_555
O65 S6 1.491303 1_455
O66 S0 1.493097 1_565
O67 S1 1.506603 1_555
O68 S2 1.490969 1_555
O69 S3 1.514483 1_555
O70 S4 1.512581 1_555
O71 S5 1.513656 1_555
