# generated using pymatgen
data_Mg(Fe2S3)2
_symmetry_space_group_name_H-M   'P 1'
_cell_length_a   6.21816947
_cell_length_b   6.21861721
_cell_length_c   6.21815653
_cell_angle_alpha   55.70708855
_cell_angle_beta   55.71465981
_cell_angle_gamma   55.70600974
_symmetry_Int_Tables_number   1
_chemical_formula_structural   Mg(Fe2S3)2
_chemical_formula_sum   'Mg1 Fe4 S6'
_cell_volume   153.09848805
_cell_formula_units_Z   1
loop_
 _symmetry_equiv_pos_site_id
 _symmetry_equiv_pos_as_xyz
  1  'x, y, z'
loop_
 _atom_site_type_symbol
 _atom_site_label
 _atom_site_symmetry_multiplicity
 _atom_site_fract_x
 _atom_site_fract_y
 _atom_site_fract_z
 _atom_site_occupancy
  Mg  Mg0  1  0.00000000  0.00000000  0.00000000  1
  Fe  Fe0  1  0.83844600  0.83787800  0.83821200  1
  Fe  Fe1  1  0.65425600  0.65395300  0.65431000  1
  Fe  Fe2  1  0.16155600  0.16212000  0.16178800  1
  Fe  Fe3  1  0.34574500  0.34604800  0.34569000  1
  S  S0  1  0.06882600  0.73946100  0.44916200  1
  S  S1  1  0.73932600  0.44918700  0.06882500  1
  S  S2  1  0.44915300  0.06877500  0.73942200  1
  S  S3  1  0.93117400  0.26054000  0.55083700  1
  S  S4  1  0.55084700  0.93122600  0.26057700  1
  S  S5  1  0.26067400  0.55081400  0.93117500  1
loop_
_geom_bond_atom_site_label_1
_geom_bond_atom_site_label_2
_geom_bond_distance
_geom_bond_site_symmetry_2
Mg0 S0 2.464745 1_545
Mg0 S3 2.464750 1_454
Mg0 S4 2.464829 1_445
Mg0 S2 2.464831 1_554
Mg0 S5 2.465051 1_544
Mg0 S1 2.465056 1_455
Fe0 S0 2.248363 1_655
Fe0 S1 2.248541 1_556
Fe0 S2 2.250200 1_565
Fe0 S5 2.383188 1_655
Fe0 S3 2.385044 1_565
Fe0 S4 2.385236 1_556
Fe0 Mg0 2.541739 1_666
Fe1 S5 2.267712 1_555
Fe1 S3 2.267752 1_555
Fe1 S4 2.268908 1_555
Fe1 S1 2.371391 1_556
Fe1 S0 2.372949 1_655
Fe1 S2 2.373115 1_565
Fe2 S3 2.248366 1_455
Fe2 S5 2.248550 1_554
Fe2 S4 2.250189 1_545
Fe2 S1 2.383198 1_455
Fe2 S0 2.385034 1_545
Fe2 S2 2.385233 1_554
Fe2 Mg0 2.541739 1_555
Fe3 S1 2.267707 1_555
Fe3 S0 2.267749 1_555
Fe3 S2 2.268900 1_555
Fe3 S5 2.371394 1_554
Fe3 S3 2.372955 1_455
Fe3 S4 2.373119 1_545
