# generated using pymatgen
data_Ce2MgNb2O8
_symmetry_space_group_name_H-M   'P 1'
_cell_length_a   5.40972791
_cell_length_b   5.70231577
_cell_length_c   6.94306747
_cell_angle_alpha   112.63388224
_cell_angle_beta   111.59438408
_cell_angle_gamma   93.66345602
_symmetry_Int_Tables_number   1
_chemical_formula_structural   Ce2MgNb2O8
_chemical_formula_sum   'Ce2 Mg1 Nb2 O8'
_cell_volume   178.46009043
_cell_formula_units_Z   1
loop_
 _symmetry_equiv_pos_site_id
 _symmetry_equiv_pos_as_xyz
  1  'x, y, z'
loop_
 _atom_site_type_symbol
 _atom_site_label
 _atom_site_symmetry_multiplicity
 _atom_site_fract_x
 _atom_site_fract_y
 _atom_site_fract_z
 _atom_site_occupancy
  Ce  Ce0  1  0.86635500  0.11640400  0.73361700  1
  Ce  Ce1  1  0.10952800  0.86100200  0.21881400  1
  Mg  Mg0  1  0.15375900  0.40552100  0.30701400  1
  Nb  Nb0  1  0.38380500  0.63047300  0.76816500  1
  Nb  Nb1  1  0.65637100  0.40651400  0.31233800  1
  O  O0  1  0.27517700  0.14738000  0.08686700  1
  O  O1  1  0.80771900  0.44159800  0.08646200  1
  O  O2  1  0.72613900  0.87852200  0.91602000  1
  O  O3  1  0.18670400  0.53803000  0.91654100  1
  O  O4  1  0.48822400  0.71347200  0.40868200  1
  O  O5  1  0.92344000  0.19736800  0.41029900  1
  O  O6  1  0.48438100  0.32809300  0.55711200  1
  O  O7  1  0.07589700  0.72847800  0.55806800  1
loop_
_geom_bond_atom_site_label_1
_geom_bond_atom_site_label_2
_geom_bond_distance
_geom_bond_site_symmetry_2
Ce0 O3 2.427744 1_655
Ce0 O2 2.432508 1_545
Ce0 O0 2.561615 1_656
Ce0 O4 2.562439 1_545
Ce0 O5 2.576328 1_555
Ce0 O1 2.586798 1_556
Ce0 O6 2.611945 1_555
Ce0 O7 2.631741 1_645
Ce1 O2 2.389563 1_454
Ce1 O4 2.393417 1_555
Ce1 O5 2.393554 1_465
Ce1 O3 2.395609 1_554
Ce1 O0 2.424413 1_565
Ce1 O1 2.436169 1_455
Ce1 O6 2.777054 1_565
Ce1 O7 2.796478 1_555
Mg0 O0 2.016266 1_555
Mg0 O1 2.018224 1_455
Mg0 O4 2.134366 1_555
Mg0 O5 2.144612 1_455
Mg0 O7 2.185426 1_555
Mg0 O6 2.194117 1_555
Nb0 O3 1.905453 1_555
Nb0 O2 1.905903 1_555
Nb0 O7 2.042709 1_555
Nb0 O6 2.044115 1_555
Nb1 O4 2.022087 1_555
Nb1 O5 2.023246 1_555
Nb1 O1 2.082196 1_555
Nb1 O0 2.083412 1_555
Nb1 O7 2.374610 1_655
Nb1 O6 2.376879 1_555
