# generated using pymatgen
data_Na2Sc6Nb2Si3(S3O16)3
_symmetry_space_group_name_H-M   'P 1'
_cell_length_a   17.76927894
_cell_length_b   8.88145434
_cell_length_c   23.11463601
_cell_angle_alpha   89.91188026
_cell_angle_beta   90.06933583
_cell_angle_gamma   120.09913312
_symmetry_Int_Tables_number   1
_chemical_formula_structural   Na2Sc6Nb2Si3(S3O16)3
_chemical_formula_sum   'Na6 Sc18 Nb6 Si9 S27 O144'
_cell_volume   3155.99506799
_cell_formula_units_Z   3
loop_
 _symmetry_equiv_pos_site_id
 _symmetry_equiv_pos_as_xyz
  1  'x, y, z'
loop_
 _atom_site_type_symbol
 _atom_site_label
 _atom_site_symmetry_multiplicity
 _atom_site_fract_x
 _atom_site_fract_y
 _atom_site_fract_z
 _atom_site_occupancy
  Na  Na0  1  0.99821660  0.99278645  0.49928492  1
  Na  Na1  1  0.50036308  0.00577125  0.99734441  1
  Na  Na2  1  0.33876380  0.33621352  0.83368641  1
  Na  Na3  1  0.83535685  0.34698295  0.83102854  1
  Na  Na4  1  0.33516908  0.32536019  0.33562254  1
  Na  Na5  1  0.83877495  0.34049410  0.33923249  1
  Sc  Sc0  1  0.00167820  0.99039370  0.35811029  1
  Sc  Sc1  1  0.50132785  0.01296406  0.85484064  1
  Sc  Sc2  1  0.99983164  0.99141551  0.64981830  1
  Sc  Sc3  1  0.50072814  0.00760793  0.15077514  1
  Sc  Sc4  1  0.33139376  0.34181797  0.68429800  1
  Sc  Sc5  1  0.83424116  0.33390871  0.68518284  1
  Sc  Sc6  1  0.33971253  0.33419325  0.18898268  1
  Sc  Sc7  1  0.82955980  0.31819000  0.18453074  1
  Sc  Sc8  1  0.33872893  0.33564397  0.97887654  1
  Sc  Sc9  1  0.83577387  0.33061301  0.97991954  1
  Sc  Sc10  1  0.33643692  0.34105247  0.48107012  1
  Sc  Sc11  1  0.83265825  0.33237096  0.48219504  1
  Sc  Sc12  1  0.16671632  0.66597620  0.01985153  1
  Sc  Sc13  1  0.66818245  0.67838319  0.52479143  1
  Sc  Sc14  1  0.16349185  0.67442738  0.31566294  1
  Sc  Sc15  1  0.66441483  0.66308266  0.30955191  1
  Sc  Sc16  1  0.16479532  0.66794576  0.80719529  1
  Sc  Sc17  1  0.66281038  0.65100794  0.81385209  1
  Nb  Nb0  1  0.49427638  0.00602044  0.35726694  1
  Nb  Nb1  1  0.99341792  0.98184693  0.85459919  1
  Nb  Nb2  1  0.50109743  0.99375588  0.64040241  1
  Nb  Nb3  1  0.99733939  0.00177762  0.14389616  1
  Nb  Nb4  1  0.67170980  0.66320063  0.01894576  1
  Nb  Nb5  1  0.17018592  0.67982040  0.52002774  1
  Si  Si0  1  0.50000747  0.29260925  0.24940928  1
  Si  Si1  1  0.99710772  0.70031943  0.74832488  1
  Si  Si2  1  0.69483726  0.04962041  0.58346725  1
  Si  Si3  1  0.32927247  0.61575196  0.58251953  1
  Si  Si4  1  0.82981542  0.04366040  0.08245153  1
  Si  Si5  1  0.80924858  0.65634036  0.91435491  1
  Si  Si6  1  0.52071229  0.37503742  0.91601145  1
  Si  Si7  1  0.30814360  0.96225252  0.41518474  1
  Si  Si8  1  0.01782960  0.65917731  0.41618837  1
  S  S0  1  0.14361214  0.00214021  0.24896780  1
  S  S1  1  0.64463024  0.00243049  0.25161734  1
  S  S2  1  0.35501572  0.71027580  0.25069343  1
  S  S3  1  0.85737100  0.71162754  0.24994542  1
  S  S4  1  -0.00012264  0.28708103  0.25019145  1
  S  S5  1  0.14462720  0.28613009  0.75149375  1
  S  S6  1  0.64344241  0.28566402  0.74913849  1
  S  S7  1  0.49970413  0.71341876  0.75032090  1
  S  S8  1  0.35714253  0.00380122  0.74983832  1
  S  S9  1  0.85485826  -0.00029256  0.75081030  1
  S  S10  1  0.47823887  0.33272506  0.58455175  1
  S  S11  1  0.98059069  0.33288379  0.58251144  1
  S  S12  1  0.18742276  0.04459680  0.58273974  1
  S  S13  1  0.83455479  0.62695176  0.58257222  1
  S  S14  1  0.47947579  0.62666009  0.08259629  1
  S  S15  1  0.97938601  0.62464155  0.08459323  1
  S  S16  1  0.33300237  0.04083861  0.08259939  1
  S  S17  1  0.18895441  0.33410465  0.08431974  1
  S  S18  1  0.68739079  0.33067291  0.08256026  1
  S  S19  1  0.31065657  0.66551442  0.91671969  1
  S  S20  1  0.02371461  0.37802626  0.91529703  1
  S  S21  1  0.16668059  0.95699154  0.91594715  1
  S  S22  1  0.66640302  0.95352343  0.91652724  1
  S  S23  1  0.81119485  0.95588871  0.41574437  1
  S  S24  1  0.16699061  0.37958764  0.41672430  1
  S  S25  1  0.66739133  0.37811888  0.41527833  1
  S  S26  1  0.52265820  0.66854596  0.41474943  1
  O  O0  1  0.10369147  0.02961977  0.30072041  1
  O  O1  1  0.60083492  0.02516438  0.30293335  1
  O  O2  1  0.41272525  0.79566474  0.30280093  1
  O  O3  1  0.91249823  0.79425077  0.30084329  1
  O  O4  1  0.48706381  0.16060100  0.30647333  1
  O  O5  1  0.98517272  0.17598743  0.30079435  1
  O  O6  1  0.10027061  0.17587797  0.80358219  1
  O  O7  1  0.60284546  0.17828872  0.80183734  1
  O  O8  1  0.48524017  0.79399905  0.80179399  1
  O  O9  1  0.98739913  0.81301692  0.80630975  1
  O  O10  1  0.41112490  0.03083367  0.80234035  1
  O  O11  1  0.91330815  0.02536309  0.80367287  1
  O  O12  1  0.39960134  0.98151469  0.69801692  1
  O  O13  1  0.89721629  0.97901530  0.69925253  1
  O  O14  1  0.09304843  0.21050902  0.69880106  1
  O  O15  1  0.58754926  0.19575930  0.69788050  1
  O  O16  1  0.01312610  0.82893415  0.69468615  1
  O  O17  1  0.50792719  0.82146262  0.69760553  1
  O  O18  1  0.39728246  0.81551677  0.19857416  1
  O  O19  1  0.90265850  0.82258086  0.19677043  1
  O  O20  1  0.00784341  0.19150395  0.19685134  1
  O  O21  1  0.51283275  0.19786392  0.19393540  1
  O  O22  1  0.08788215  0.98241849  0.19678295  1
  O  O23  1  0.59333403  0.97524878  0.19833043  1
  O  O24  1  0.43745855  0.35875820  0.63611198  1
  O  O25  1  0.94338467  0.36488728  0.63485974  1
  O  O26  1  0.23972393  0.11915369  0.63539366  1
  O  O27  1  0.74984902  0.13560150  0.64141117  1
  O  O28  1  0.31592512  0.50275240  0.64038335  1
  O  O29  1  0.82299042  0.52351721  0.63515515  1
  O  O30  1  0.43918175  0.51878069  0.13475945  1
  O  O31  1  0.93907812  0.51869969  0.13635846  1
  O  O32  1  0.31990860  0.12111471  0.13463701  1
  O  O33  1  0.81775870  0.12915920  0.14059707  1
  O  O34  1  0.24211733  0.36148973  0.13593895  1
  O  O35  1  0.73977232  0.36054032  0.13525406  1
  O  O36  1  0.22372983  0.29600132  0.03252230  1
  O  O37  1  0.72889064  0.30876412  0.03088020  1
  O  O38  1  0.42299521  0.54339707  0.03143083  1
  O  O39  1  0.92515711  0.55707631  0.03280058  1
  O  O40  1  0.34678559  0.15100683  0.03099424  1
  O  O41  1  0.85284962  0.16512995  0.02683038  1
  O  O42  1  0.22869334  0.14869106  0.53072717  1
  O  O43  1  0.73080614  0.16746410  0.52637947  1
  O  O44  1  0.35082513  0.53818376  0.52663020  1
  O  O45  1  0.85115051  0.55010808  0.53083630  1
  O  O46  1  0.42359150  0.29395892  0.53266164  1
  O  O47  1  0.92560039  0.30341135  0.53101162  1
  O  O48  1  0.26951521  0.69134095  0.96940922  1
  O  O49  1  0.76491706  0.69226665  0.97320962  1
  O  O50  1  0.07557880  0.45745728  0.96865055  1
  O  O51  1  0.58304051  0.47940547  0.97345863  1
  O  O52  1  0.15131345  0.84949711  0.96844921  1
  O  O53  1  0.65467707  0.84566201  0.96971014  1
  O  O54  1  0.26461673  0.83729448  0.47329956  1
  O  O55  1  0.77160641  0.84800658  0.46776322  1
  O  O56  1  0.15450607  0.46203584  0.46919578  1
  O  O57  1  0.65033072  0.44862326  0.46723995  1
  O  O58  1  0.08296061  0.68544899  0.47271424  1
  O  O59  1  0.57369987  0.69532841  0.46743059  1
  O  O60  1  0.06336437  0.63380486  0.35921841  1
  O  O61  1  0.56392531  0.64277643  0.36340006  1
  O  O62  1  0.25426915  0.86871566  0.35816677  1
  O  O63  1  0.75898207  0.87243631  0.36350851  1
  O  O64  1  0.18017001  0.48244543  0.36391201  1
  O  O65  1  0.67873228  0.48420278  0.36342270  1
  O  O66  1  0.06555667  0.48856688  0.86468605  1
  O  O67  1  0.56281284  0.49363396  0.85962611  1
  O  O68  1  0.18115556  0.87720138  0.86497496  1
  O  O69  1  0.67985633  0.87716067  0.86445755  1
  O  O70  1  0.25849164  0.64242668  0.86504625  1
  O  O71  1  0.75289528  0.63994413  0.85884131  1
  O  O72  1  0.01388297  0.84072086  0.41294988  1
  O  O73  1  0.51407227  0.82663437  0.40440435  1
  O  O74  1  0.40487613  0.96973234  0.40656782  1
  O  O75  1  0.89999010  0.97780134  0.40938501  1
  O  O76  1  0.08701570  0.20514297  0.41176998  1
  O  O77  1  0.58800006  0.19693887  0.40523750  1
  O  O78  1  0.01552722  0.20403257  0.90682767  1
  O  O79  1  0.51279941  0.18341121  0.91351174  1
  O  O80  1  0.08814522  0.97691008  0.90712125  1
  O  O81  1  0.58658919  0.96761160  0.91242606  1
  O  O82  1  0.39919301  0.82026493  0.91164623  1
  O  O83  1  0.90560189  0.84172287  0.90643972  1
  O  O84  1  0.48760238  0.17473677  0.59564853  1
  O  O85  1  0.99136302  0.17855559  0.58961713  1
  O  O86  1  0.09957997  0.02335027  0.58807007  1
  O  O87  1  0.59437142  0.02446679  0.59806951  1
  O  O88  1  0.41343030  0.81339628  0.59814681  1
  O  O89  1  0.91186208  0.80638618  0.58881097  1
  O  O90  1  0.48939366  0.80173438  0.08918200  1
  O  O91  1  0.99127154  0.80491268  0.09638942  1
  O  O92  1  0.41029422  0.01876530  0.08868681  1
  O  O93  1  0.91540026  0.01525013  0.09871374  1
  O  O94  1  0.09876173  0.17481114  0.09572674  1
  O  O95  1  0.59937660  0.17549728  0.08820687  1
  O  O96  1  0.34653336  0.15818333  0.74334372  1
  O  O97  1  0.85060209  0.16096983  0.74815448  1
  O  O98  1  0.23121399  0.29819652  0.74730949  1
  O  O99  1  0.73004257  0.30368866  0.74343140  1
  O  O100  1  0.42188580  0.53681034  0.74317850  1
  O  O101  1  0.90999048  0.51420400  0.74708850  1
  O  O102  1  0.34795149  0.53676858  0.24503154  1
  O  O103  1  0.84821546  0.53907317  0.24091684  1
  O  O104  1  0.41152985  0.30469470  0.24588775  1
  O  O105  1  0.92241878  0.30680651  0.24155553  1
  O  O106  1  0.22984504  0.15953506  0.24058606  1
  O  O107  1  0.73157543  0.16425297  0.24648519  1
  O  O108  1  0.31801482  0.50710720  0.92463714  1
  O  O109  1  0.82645658  0.49824557  0.92523414  1
  O  O110  1  0.42405242  0.35187446  0.92502094  1
  O  O111  1  0.93599884  0.35633138  0.92171079  1
  O  O112  1  0.24209351  0.13364776  0.92405494  1
  O  O113  1  0.74314011  0.12933074  0.92445232  1
  O  O114  1  0.32643741  0.15595495  0.42440122  1
  O  O115  1  0.82020839  0.13005207  0.42134770  1
  O  O116  1  0.24338903  0.35657884  0.42379967  1
  O  O117  1  0.74297059  0.35323366  0.41996656  1
  O  O118  1  0.43417915  0.51570157  0.42001578  1
  O  O119  1  0.92195374  0.49250039  0.42387163  1
  O  O120  1  0.17436829  0.48189966  0.07487601  1
  O  O121  1  0.67780479  0.48862421  0.07529889  1
  O  O122  1  0.06681239  0.64987986  0.07504669  1
  O  O123  1  0.56587853  0.64374017  0.07359801  1
  O  O124  1  0.25481725  0.86719188  0.07339552  1
  O  O125  1  0.74683005  0.84946725  0.07116112  1
  O  O126  1  0.17765152  0.86694985  0.57568695  1
  O  O127  1  0.67403975  0.85238701  0.57338945  1
  O  O128  1  0.24547101  0.64123762  0.57049149  1
  O  O129  1  0.75626542  0.64123607  0.57402852  1
  O  O130  1  0.06816250  0.48892721  0.57278063  1
  O  O131  1  0.56523140  0.48092245  0.57540123  1
  O  O132  1  0.15049755  0.84540678  0.25264385  1
  O  O133  1  0.65649935  0.85216088  0.25979326  1
  O  O134  1  0.26981724  0.69214834  0.25872468  1
  O  O135  1  0.77318343  0.70149134  0.25494253  1
  O  O136  1  0.07931040  0.45457121  0.25241525  1
  O  O137  1  0.58411350  0.47708098  0.26234334  1
  O  O138  1  0.15621043  0.45991962  0.76032146  1
  O  O139  1  0.64980380  0.45627957  0.75385016  1
  O  O140  1  0.08384182  0.69344175  0.76261633  1
  O  O141  1  0.57866517  0.70252134  0.75453264  1
  O  O142  1  0.27188778  0.84588860  0.75749439  1
  O  O143  1  0.77028007  0.84676152  0.75971274  1
loop_
_geom_bond_atom_site_label_1
_geom_bond_atom_site_label_2
_geom_bond_distance
_geom_bond_site_symmetry_2
Na0 O72 2.504133 1_655
Na0 O89 2.612806 1_555
Na0 O86 2.651772 1_665
Na0 O75 2.672333 1_555
Na0 O76 2.673952 1_665
Na0 O85 2.703604 1_565
Na1 O79 2.436152 1_555
Na1 O81 2.616369 1_545
Na1 O82 2.626947 1_545
Na1 O95 2.668249 1_556
Na1 O92 2.688262 1_556
Na1 O90 2.731849 1_546
Na2 O110 2.560251 1_555
Na2 O100 2.662526 1_555
Na2 O98 2.664240 1_555
Na2 O96 2.666401 1_555
Na2 O108 2.726207 1_555
Na2 O112 2.729121 1_555
Na3 O101 2.398101 1_555
Na3 O109 2.606604 1_555
Na3 O97 2.632892 1_555
Na3 O99 2.649727 1_555
Na3 O111 2.727848 1_555
Na3 O113 2.811363 1_555
Na4 O114 2.501196 1_555
Na4 O104 2.536695 1_555
Na4 O118 2.603295 1_555
Na4 O116 2.711846 1_555
Na4 O102 2.742823 1_555
Na4 O106 2.780779 1_555
Na5 O119 2.415457 1_555
Na5 O115 2.564547 1_555
Na5 O117 2.568051 1_555
Na5 O107 2.772078 1_555
Na5 O105 2.802198 1_555
Na5 O103 2.827529 1_555
Nb0 O74 1.848191 1_545
Nb0 O4 1.857658 1_555
Nb0 O77 2.011757 1_555
Nb0 O73 2.098818 1_545
Nb0 O2 2.112511 1_545
Nb0 O1 2.207626 1_555
Nb1 O9 1.830220 1_555
Nb1 O83 1.863264 1_555
Nb1 O11 2.026752 1_565
Nb1 O80 2.092364 1_655
Nb1 O6 2.163960 1_665
Nb1 O78 2.175872 1_665
Nb2 O87 1.824437 1_565
Nb2 O88 1.856051 1_555
Nb2 O84 2.022910 1_565
Nb2 O17 2.069837 1_555
Nb2 O15 2.140522 1_565
Nb2 O12 2.201524 1_555
Nb3 O93 1.842728 1_555
Nb3 O20 2.015646 1_655
Nb3 O94 2.017684 1_655
Nb3 O91 2.022635 1_545
Nb3 O19 2.042189 1_545
Nb3 O22 2.093922 1_645
Nb4 O49 1.871338 1_554
Nb4 O51 1.916824 1_554
Nb4 O125 1.939752 1_555
Nb4 O121 2.067450 1_555
Nb4 O53 2.120923 1_554
Nb4 O123 2.200282 1_555
Nb5 O54 1.893195 1_555
Nb5 O58 1.916837 1_555
Nb5 O128 1.929357 1_555
Nb5 O126 2.054264 1_555
Nb5 O130 2.136355 1_555
Nb5 O56 2.159891 1_555
O0 S0 1.473211 1_555
O0 Sc0 2.130252 1_545
O1 S1 1.487919 1_555
O2 S2 1.515650 1_555
O3 S3 1.470052 1_555
O3 Sc0 2.128673 1_655
O4 Si0 1.700821 1_555
O5 S4 1.465786 1_655
O5 Sc0 2.243987 1_645
O6 S5 1.501421 1_555
O7 S6 1.490700 1_555
O7 Sc1 2.062568 1_555
O8 S7 1.477047 1_555
O8 Sc1 2.194545 1_565
O9 Si1 1.733746 1_555
O10 S8 1.489158 1_555
O10 Sc1 2.077686 1_555
O11 S9 1.544050 1_555
O12 S8 1.481855 1_565
O13 S9 1.470412 1_565
O13 Sc2 2.108511 1_555
O14 S5 1.468658 1_555
O14 Sc2 2.140427 1_445
O15 S6 1.494124 1_555
O16 Si1 1.610412 1_455
O16 Sc2 1.884296 1_455
O17 S7 1.510991 1_555
O18 S2 1.477733 1_555
O18 Sc3 2.088987 1_565
O19 S3 1.527312 1_555
O20 S4 1.544312 1_555
O21 Si0 1.612630 1_555
O21 Sc3 1.880670 1_555
O22 S0 1.513315 1_565
O23 S1 1.477735 1_565
O23 Sc3 2.113688 1_565
O24 S10 1.473065 1_555
O24 Sc4 2.129653 1_555
O25 S11 1.474272 1_555
O25 Sc5 2.158539 1_555
O26 S12 1.471717 1_555
O26 Sc4 2.147897 1_555
O27 Si2 1.607427 1_555
O27 Sc5 1.930595 1_555
O28 Si3 1.615634 1_555
O28 Sc4 1.880911 1_555
O29 S13 1.473518 1_555
O29 Sc5 2.131698 1_555
O30 S14 1.481524 1_555
O30 Sc6 2.115490 1_555
O31 S15 1.467205 1_555
O31 Sc7 2.172901 1_555
O32 S16 1.476129 1_555
O32 Sc6 2.149761 1_555
O33 Si4 1.611178 1_555
O33 Sc7 1.882938 1_555
O34 S17 1.463863 1_555
O34 Sc6 2.232739 1_555
O35 S18 1.473379 1_555
O35 Sc7 2.140210 1_555
O36 S17 1.463770 1_555
O36 Sc8 2.262836 1_554
O37 S18 1.468131 1_555
O37 Sc9 2.160407 1_554
O38 S14 1.486014 1_555
O38 Sc8 2.086550 1_554
O39 S15 1.463315 1_555
O39 Sc9 2.204741 1_554
O40 S16 1.482218 1_555
O40 Sc8 2.095190 1_554
O41 Si4 1.593249 1_555
O41 Sc9 1.967111 1_554
O42 S12 1.468544 1_555
O42 Sc10 2.149484 1_555
O43 Si2 1.603751 1_555
O43 Sc11 1.950614 1_555
O44 Si3 1.599609 1_555
O44 Sc10 1.948279 1_555
O45 S13 1.479205 1_555
O45 Sc11 2.116648 1_555
O46 S10 1.470782 1_555
O46 Sc10 2.153861 1_555
O47 S11 1.477149 1_555
O47 Sc11 2.118380 1_555
O48 S19 1.497175 1_555
O48 Sc12 2.082908 1_556
O49 Si5 1.681986 1_555
O50 S20 1.488534 1_555
O50 Sc12 2.108784 1_556
O51 Si6 1.679171 1_555
O52 S21 1.481396 1_555
O52 Sc12 2.141024 1_556
O53 S22 1.506352 1_555
O54 Si7 1.664733 1_555
O55 S23 1.476865 1_555
O55 Sc13 2.146490 1_555
O56 S24 1.490893 1_555
O57 S25 1.456083 1_555
O57 Sc13 2.322158 1_555
O58 Si8 1.681495 1_555
O59 S26 1.464180 1_555
O59 Sc13 2.201518 1_555
O60 Si8 1.620460 1_555
O60 Sc14 1.915376 1_555
O61 S26 1.473142 1_555
O61 Sc15 2.109954 1_555
O62 Si7 1.595688 1_555
O62 Sc14 1.937613 1_555
O63 S23 1.475907 1_555
O63 Sc15 2.169025 1_555
O64 S24 1.470462 1_555
O64 Sc14 2.176949 1_555
O65 S25 1.473664 1_555
O65 Sc15 2.130214 1_555
O66 S20 1.466852 1_555
O66 Sc16 2.143595 1_555
O67 Si6 1.604858 1_555
O67 Sc17 1.933746 1_555
O68 S21 1.463772 1_555
O68 Sc16 2.187925 1_555
O69 S22 1.459975 1_555
O69 Sc17 2.211448 1_555
O70 S19 1.461269 1_555
O70 Sc16 2.232395 1_555
O71 Si5 1.587978 1_555
O71 Sc17 1.951120 1_555
O72 Si8 1.650239 1_555
O72 Sc0 1.924632 1_555
O73 S26 1.505177 1_555
O74 Si7 1.698484 1_555
O75 S23 1.497166 1_555
O75 Sc0 2.117607 1_655
O76 S24 1.491593 1_555
O76 Sc0 2.139498 1_545
O77 S25 1.535203 1_555
O78 S20 1.490927 1_555
O79 Si6 1.637041 1_555
O79 Sc1 1.966854 1_555
O80 S21 1.505721 1_555
O81 S22 1.487836 1_555
O81 Sc1 2.198830 1_565
O82 S19 1.486276 1_555
O82 Sc1 2.197809 1_565
O83 Si5 1.687642 1_555
O84 S10 1.515025 1_555
O85 S11 1.484825 1_555
O85 Sc2 2.228168 1_545
O86 S12 1.480600 1_555
O86 Sc2 2.181708 1_445
O87 Si2 1.718140 1_555
O88 Si3 1.678050 1_555
O89 S13 1.500671 1_555
O89 Sc2 2.134915 1_555
O90 S14 1.482499 1_555
O90 Sc3 2.246931 1_565
O91 S15 1.531151 1_555
O92 S16 1.487958 1_555
O92 Sc3 2.192132 1_555
O93 Si4 1.703216 1_555
O94 S17 1.537949 1_555
O95 S18 1.483388 1_555
O95 Sc3 2.183027 1_555
O96 S8 1.482110 1_555
O96 Sc4 2.242190 1_555
O97 S9 1.472812 1_555
O97 Sc5 2.236583 1_555
O98 S5 1.490983 1_555
O98 Sc4 2.180161 1_555
O99 S6 1.471173 1_555
O99 Sc5 2.195331 1_555
O100 S7 1.491459 1_555
O100 Sc4 2.155457 1_555
O101 Si1 1.600947 1_555
O101 Sc5 2.064944 1_555
O102 S2 1.487992 1_555
O102 Sc6 2.163191 1_555
O103 S3 1.472926 1_555
O103 Sc7 2.238675 1_555
O104 Si0 1.630592 1_555
O104 Sc6 1.938430 1_555
O105 S4 1.485277 1_655
O105 Sc7 2.152185 1_555
O106 S0 1.480222 1_555
O106 Sc6 2.145428 1_555
O107 S1 1.496457 1_555
O107 Sc7 2.136330 1_555
O108 S19 1.487807 1_555
O108 Sc8 2.140459 1_555
O109 Si5 1.599256 1_555
O109 Sc9 2.020572 1_555
O110 Si6 1.637709 1_555
O110 Sc8 1.911522 1_555
O111 S20 1.479098 1_655
O111 Sc9 2.151979 1_555
O112 S21 1.477834 1_545
O112 Sc8 2.164427 1_555
O113 S22 1.481791 1_545
O113 Sc9 2.144660 1_555
O114 Si7 1.597104 1_545
O114 Sc10 2.040335 1_555
O115 S23 1.478908 1_545
O115 Sc11 2.205492 1_555
O116 S24 1.479541 1_555
O116 Sc10 2.174387 1_555
O117 S25 1.470203 1_555
O117 Sc11 2.221022 1_555
O118 S26 1.479436 1_555
O118 Sc10 2.170543 1_555
O119 Si8 1.611130 1_655
O119 Sc11 2.023272 1_555
O120 S17 1.475822 1_555
O120 Sc12 2.127223 1_555
O121 S18 1.504664 1_555
O122 S15 1.470960 1_455
O122 Sc12 2.133056 1_555
O123 S14 1.480047 1_555
O124 S16 1.484973 1_565
O124 Sc12 2.091001 1_555
O125 Si4 1.633021 1_565
O126 S12 1.507322 1_565
O127 Si2 1.615891 1_565
O127 Sc13 1.872086 1_555
O128 Si3 1.637924 1_555
O129 S13 1.471957 1_555
O129 Sc13 2.089578 1_555
O130 S11 1.493170 1_455
O131 S10 1.458038 1_555
O131 Sc13 2.138154 1_555
O132 S0 1.459570 1_565
O132 Sc14 2.196640 1_555
O133 S1 1.463843 1_565
O133 Sc15 2.096001 1_555
O134 S2 1.452048 1_555
O134 Sc14 2.243567 1_555
O135 S3 1.457611 1_555
O135 Sc15 2.188262 1_555
O136 S4 1.449772 1_555
O136 Sc14 2.293805 1_555
O137 Si0 1.597414 1_555
O137 Sc15 1.895598 1_555
O138 S5 1.465820 1_555
O138 Sc16 2.081774 1_555
O139 S6 1.466115 1_555
O139 Sc17 2.138629 1_555
O140 Si1 1.606640 1_455
O140 Sc16 1.872084 1_555
O141 S7 1.457163 1_555
O141 Sc17 2.237011 1_555
O142 S8 1.470421 1_565
O142 Sc16 2.102842 1_555
O143 S9 1.448622 1_565
O143 Sc17 2.214618 1_555
