# generated using pymatgen
data_Na5La2In2P5SO24
_symmetry_space_group_name_H-M   'P 1'
_cell_length_a   9.31732964
_cell_length_b   9.29552105
_cell_length_c   23.66765393
_cell_angle_alpha   90.50807970
_cell_angle_beta   89.86426617
_cell_angle_gamma   120.05796800
_symmetry_Int_Tables_number   1
_chemical_formula_structural   Na5La2In2P5SO24
_chemical_formula_sum   'Na15 La6 In6 P15 S3 O72'
_cell_volume   1774.10264046
_cell_formula_units_Z   3
loop_
 _symmetry_equiv_pos_site_id
 _symmetry_equiv_pos_as_xyz
  1  'x, y, z'
loop_
 _atom_site_type_symbol
 _atom_site_label
 _atom_site_symmetry_multiplicity
 _atom_site_fract_x
 _atom_site_fract_y
 _atom_site_fract_z
 _atom_site_occupancy
  Na  Na0  1  0.64143707  0.00081799  0.25020666  1
  Na  Na1  1  0.99709545  0.35938248  0.74887226  1
  Na  Na2  1  0.35946969  0.99915459  0.74980652  1
  Na  Na3  1  0.03104453  0.69618404  0.57665201  1
  Na  Na4  1  0.66401262  0.97083740  0.58058986  1
  Na  Na5  1  0.30462409  0.97393190  0.08536017  1
  Na  Na6  1  0.02610877  0.33163894  0.08797262  1
  Na  Na7  1  0.97892508  0.66498554  0.92108904  1
  Na  Na8  1  0.70328987  0.67558045  0.41494849  1
  Na  Na9  1  0.02148260  0.01773398  0.49601857  1
  Na  Na10  1  0.99807471  0.00915734  0.00371162  1
  Na  Na11  1  0.65571449  0.32304561  0.83299490  1
  Na  Na12  1  0.68998799  0.34255633  0.33306598  1
  Na  Na13  1  0.33760278  0.64236057  0.16860456  1
  Na  Na14  1  0.34919806  0.65289918  0.66619564  1
  La  La0  1  0.99893908  0.01148325  0.85463677  1
  La  La1  1  0.00286679  0.00019706  0.64719446  1
  La  La2  1  0.66383671  0.34818387  0.67913285  1
  La  La3  1  0.65933426  0.32344199  0.99119217  1
  La  La4  1  0.32500131  0.66112151  0.50538559  1
  La  La5  1  0.34616438  0.66983936  0.82040209  1
  In  In0  1  0.99121478  0.99448347  0.34362378  1
  In  In1  1  0.99083850  0.99493740  0.15615140  1
  In  In2  1  0.67570990  0.35187811  0.18260369  1
  In  In3  1  0.67002054  0.32590281  0.47842421  1
  In  In4  1  0.33818590  0.66786690  0.02203989  1
  In  In5  1  0.32097987  0.66032640  0.31655273  1
  P  P0  1  0.69450814  0.69908123  0.25237087  1
  P  P1  1  0.99762494  0.29718020  0.24865962  1
  P  P2  1  0.30495112  0.30454354  0.75058325  1
  P  P3  1  0.00339271  0.69284633  0.75235227  1
  P  P4  1  0.69154262  0.00406862  0.74563002  1
  P  P5  1  0.96271852  0.33335213  0.58072049  1
  P  P6  1  0.37029837  0.03450624  0.57823516  1
  P  P7  1  0.66934424  0.63719835  0.57179797  1
  P  P8  1  0.97671390  0.64369227  0.08511870  1
  P  P9  1  0.66629009  0.02831966  0.09163441  1
  P  P10  1  0.35615265  0.32846307  0.09015317  1
  P  P11  1  0.03710289  0.37341154  0.92328872  1
  P  P12  1  0.32788324  0.96202950  0.92248390  1
  P  P13  1  0.64035428  0.97269060  0.41033024  1
  P  P14  1  0.02125304  0.66899278  0.41322083  1
  S  S0  1  0.29996152  0.00080215  0.24945929  1
  S  S1  1  0.63950190  0.66808430  0.92397996  1
  S  S2  1  0.33375355  0.35355505  0.41008102  1
  O  O0  1  0.21386840  0.01926871  0.29892262  1
  O  O1  1  0.79513523  0.76977017  0.30774811  1
  O  O2  1  0.96647590  0.17688526  0.29814079  1
  O  O3  1  0.21013635  0.20516020  0.80307720  1
  O  O4  1  0.99908899  0.78711172  0.80582684  1
  O  O5  1  0.79828726  0.00843660  0.79616671  1
  O  O6  1  0.77205130  0.99770939  0.68908733  1
  O  O7  1  0.20821367  0.21376639  0.69675335  1
  O  O8  1  0.00659704  0.78591855  0.69777783  1
  O  O9  1  0.78289294  0.82071151  0.20278976  1
  O  O10  1  0.02659836  0.22540271  0.19280336  1
  O  O11  1  0.20493966  0.97980324  0.19633489  1
  O  O12  1  0.89298832  0.34663221  0.63890619  1
  O  O13  1  0.45127326  0.10661412  0.63654425  1
  O  O14  1  0.65947594  0.54757567  0.62708389  1
  O  O15  1  0.88383735  0.51526840  0.13251741  1
  O  O16  1  0.63309083  0.11266606  0.14371001  1
  O  O17  1  0.47261714  0.35699503  0.14049314  1
  O  O18  1  0.42334847  0.29060546  0.03618274  1
  O  O19  1  0.88445830  0.58266098  0.02863452  1
  O  O20  1  0.70552995  0.13946780  0.03948451  1
  O  O21  1  0.47370224  0.14618310  0.52916571  1
  O  O22  1  0.67112750  0.53877952  0.51872754  1
  O  O23  1  0.84780134  0.32431470  0.53220623  1
  O  O24  1  0.54015112  0.66753624  0.97338188  1
  O  O25  1  0.14333243  0.47308365  0.97550786  1
  O  O26  1  0.33181583  0.86028826  0.97423757  1
  O  O27  1  0.56893701  0.86904400  0.46472806  1
  O  O28  1  0.30181761  0.41364351  0.46407195  1
  O  O29  1  0.10635624  0.69284635  0.47119146  1
  O  O30  1  0.12065228  0.64231816  0.36571847  1
  O  O31  1  0.52639936  0.87841398  0.35851149  1
  O  O32  1  0.35998554  0.47294231  0.36382442  1
  O  O33  1  0.12121242  0.45692310  0.86698528  1
  O  O34  1  0.33387147  0.88162661  0.86577525  1
  O  O35  1  0.56137694  0.66486306  0.87027607  1
  O  O36  1  0.00282560  0.82538832  0.40408615  1
  O  O37  1  0.81373087  0.98565814  0.40433412  1
  O  O38  1  0.19023561  0.18511924  0.39989966  1
  O  O39  1  0.00745513  0.19507631  0.92703887  1
  O  O40  1  0.15859170  0.95770674  0.92607574  1
  O  O41  1  0.80685495  0.81896647  0.92813004  1
  O  O42  1  0.97162353  0.17170035  0.57717648  1
  O  O43  1  0.19042622  0.00250322  0.57541528  1
  O  O44  1  0.83547419  0.80696221  0.57176752  1
  O  O45  1  0.00727367  0.82195873  0.09739068  1
  O  O46  1  0.82233527  0.01052993  0.09783044  1
  O  O47  1  0.17927061  0.17072223  0.09751521  1
  O  O48  1  0.67992789  0.16514078  0.75041702  1
  O  O49  1  0.47504042  0.31381576  0.75293872  1
  O  O50  1  0.85476193  0.51275073  0.75377286  1
  O  O51  1  0.67416128  0.52455114  0.24317645  1
  O  O52  1  0.83212128  0.30443336  0.24404648  1
  O  O53  1  0.47061273  0.14883347  0.24625724  1
  O  O54  1  0.66256569  0.52120274  0.92361037  1
  O  O55  1  0.87075829  0.37481285  0.92339854  1
  O  O56  1  0.47663815  0.14044598  0.92257186  1
  O  O57  1  0.65736586  0.14736274  0.41531757  1
  O  O58  1  0.49185940  0.34936871  0.41396505  1
  O  O59  1  0.84062659  0.51360944  0.41503355  1
  O  O60  1  0.33008653  0.48206646  0.08359249  1
  O  O61  1  0.15298444  0.65834611  0.08240357  1
  O  O62  1  0.50319028  0.85747573  0.08325782  1
  O  O63  1  0.35986219  0.86119394  0.57483736  1
  O  O64  1  0.52373791  0.67284357  0.57235198  1
  O  O65  1  0.13439704  0.49399484  0.57633197  1
  O  O66  1  0.32024578  0.85016684  0.25450648  1
  O  O67  1  0.52198197  0.69241774  0.25702577  1
  O  O68  1  0.15124787  0.47330219  0.25754784  1
  O  O69  1  0.31661708  0.47588045  0.74935699  1
  O  O70  1  0.16517693  0.68214579  0.75057998  1
  O  O71  1  0.51261761  0.85423003  0.74688470  1
loop_
_geom_bond_atom_site_label_1
_geom_bond_atom_site_label_2
_geom_bond_distance
_geom_bond_site_symmetry_2
Na0 O52 2.475083 1_555
Na0 O67 2.508805 1_545
Na0 O53 2.575223 1_555
Na0 O66 2.594272 1_545
Na0 O16 2.751080 1_555
Na0 O31 2.798409 1_545
Na0 O9 2.823034 1_545
Na0 O2 2.855791 1_555
Na1 O50 2.386400 1_555
Na1 O48 2.578747 1_555
Na1 O70 2.597506 1_655
Na1 O69 2.608880 1_655
Na1 O12 2.760435 1_555
Na2 O71 2.404008 1_555
Na2 O49 2.561581 1_565
Na2 O70 2.572519 1_555
Na2 O48 2.584718 1_565
Na2 O13 2.845354 1_565
Na2 O34 2.927949 1_555
Na3 O43 2.465610 1_565
Na3 O65 2.504487 1_555
Na3 O44 2.505375 1_455
Na3 O29 2.595289 1_555
Na3 O63 2.652144 1_555
Na3 O8 3.018414 1_555
Na4 O64 2.405015 1_555
Na4 O63 2.488806 1_555
Na4 O42 2.519543 1_565
Na4 O44 2.710514 1_555
Na4 O6 2.723729 1_555
Na4 O27 2.885380 1_555
Na5 O45 2.415609 1_555
Na5 O61 2.539997 1_555
Na5 O62 2.569459 1_555
Na5 O47 2.631054 1_565
Na5 O11 2.793005 1_555
Na5 O18 2.834806 1_565
Na5 O26 2.883185 1_554
Na5 O16 2.995209 1_565
Na6 O60 2.453891 1_555
Na6 O47 2.543776 1_555
Na6 O46 2.627139 1_455
Na6 O61 2.654747 1_555
Na6 O10 2.679381 1_555
Na6 O15 2.830266 1_455
Na6 O20 2.839831 1_455
Na6 O25 2.935374 1_554
Na7 O55 2.360792 1_555
Na7 O40 2.377466 1_655
Na7 O54 2.555867 1_555
Na7 O41 2.634413 1_555
Na7 O19 2.681104 1_556
Na7 O4 2.933391 1_555
Na8 O59 2.415427 1_555
Na8 O36 2.429809 1_655
Na8 O37 2.543676 1_555
Na8 O58 2.662923 1_555
Na8 O1 2.686024 1_555
Na8 O22 2.722128 1_555
Na8 O27 2.898225 1_555
Na8 O32 3.030827 1_555
Na9 O43 2.504191 1_555
Na9 O42 2.562562 1_455
Na9 O44 2.588908 1_445
Na9 O36 2.753662 1_545
Na9 O38 2.768295 1_555
Na9 O37 2.823965 1_445
Na10 O39 2.488157 1_654
Na10 O41 2.510669 1_544
Na10 O40 2.555329 1_644
Na10 O47 2.730076 1_655
Na10 O46 2.765236 1_555
Na10 O45 2.858298 1_645
Na11 O49 2.509739 1_555
Na11 O48 2.510755 1_555
Na11 O50 2.613575 1_555
Na11 O56 2.714723 1_555
Na11 O54 2.794511 1_555
Na11 O55 2.803637 1_555
Na12 O59 2.446276 1_555
Na12 O57 2.584870 1_555
Na12 O52 2.600379 1_555
Na12 O58 2.678821 1_555
Na12 O51 2.779404 1_555
Na12 O53 2.812284 1_555
Na13 O60 2.473118 1_555
Na13 O67 2.597356 1_555
Na13 O68 2.687698 1_555
Na13 O61 2.724219 1_555
Na13 O62 2.724958 1_555
Na13 O66 2.851790 1_555
Na14 O69 2.495581 1_555
Na14 O71 2.561971 1_555
Na14 O64 2.701909 1_555
Na14 O70 2.728284 1_555
Na14 O65 2.777391 1_555
Na14 O63 2.883496 1_555
La0 O3 2.254156 1_655
La0 O5 2.317227 1_555
La0 O4 2.375846 1_545
La0 O39 2.380813 1_655
La0 O40 2.468446 1_645
La0 O41 2.502633 1_545
La1 O7 2.267593 1_555
La1 O8 2.348126 1_545
La1 O6 2.355656 1_445
La1 O42 2.426205 1_455
La1 O43 2.426835 1_555
La1 O44 2.448616 1_445
La2 O14 2.251804 1_555
La2 O12 2.342262 1_555
La2 O13 2.344153 1_555
La2 O49 2.383306 1_555
La2 O50 2.422037 1_555
La2 O48 2.464056 1_555
La3 O20 2.278281 1_556
La3 O18 2.320325 1_556
La3 O56 2.343556 1_555
La3 O55 2.395690 1_555
La3 O19 2.428777 1_556
La3 O54 2.436205 1_555
La4 O27 2.334384 1_555
La4 O29 2.346470 1_555
La4 O63 2.368418 1_555
La4 O65 2.378067 1_555
La4 O28 2.399599 1_555
La4 O64 2.400291 1_555
La5 O34 2.286877 1_555
La5 O33 2.323338 1_555
La5 O35 2.349774 1_555
La5 O69 2.367480 1_555
La5 O71 2.397468 1_555
La5 O70 2.407779 1_555
In0 O2 2.124092 1_565
In0 O1 2.138904 1_555
In0 O37 2.158913 1_555
In0 O36 2.177402 1_655
In0 O0 2.234104 1_665
In0 O38 2.242959 1_665
In1 O9 2.115046 1_555
In1 O46 2.152432 1_565
In1 O10 2.169404 1_665
In1 O45 2.179218 1_655
In1 O47 2.198453 1_665
In1 O11 2.279519 1_655
In2 O15 2.131451 1_555
In2 O51 2.148035 1_555
In2 O17 2.162466 1_555
In2 O16 2.242843 1_555
In2 O52 2.257944 1_555
In2 O53 2.430517 1_555
In3 O23 2.097403 1_555
In3 O21 2.131427 1_555
In3 O57 2.181719 1_555
In3 O22 2.184440 1_555
In3 O59 2.253633 1_555
In3 O58 2.347595 1_555
In4 O25 2.113868 1_554
In4 O26 2.150666 1_554
In4 O62 2.195483 1_555
In4 O24 2.205173 1_554
In4 O61 2.205479 1_555
In4 O60 2.241524 1_555
In5 O30 2.132166 1_555
In5 O68 2.164905 1_555
In5 O31 2.201265 1_555
In5 O67 2.239772 1_555
In5 O32 2.255754 1_555
In5 O66 2.308387 1_555
O0 S0 1.474225 1_555
O1 P0 1.549844 1_555
O2 P1 1.550035 1_555
O3 P2 1.541122 1_555
O4 P3 1.544828 1_655
O5 P4 1.544593 1_555
O6 P4 1.547679 1_565
O7 P2 1.540150 1_555
O8 P3 1.552901 1_555
O9 P0 1.555551 1_555
O10 P1 1.558458 1_455
O11 S0 1.493528 1_565
O12 P5 1.551417 1_555
O13 P6 1.550788 1_555
O14 P7 1.535142 1_555
O15 P8 1.554575 1_555
O16 P9 1.566362 1_555
O17 P10 1.542591 1_555
O18 P10 1.535057 1_555
O19 P8 1.533418 1_555
O20 P9 1.538382 1_555
O21 P6 1.539092 1_555
O22 P7 1.552305 1_555
O23 P5 1.544641 1_555
O24 S1 1.488040 1_555
O25 P11 1.559608 1_555
O26 P12 1.565754 1_555
O27 P13 1.550584 1_555
O28 S2 1.478319 1_555
O29 P14 1.544023 1_555
O30 P14 1.550276 1_555
O31 P13 1.566668 1_555
O32 S2 1.496141 1_555
O33 P11 1.548059 1_555
O34 P12 1.544902 1_555
O35 S1 1.458831 1_555
O36 P14 1.563804 1_555
O37 P13 1.564725 1_555
O38 S2 1.481588 1_555
O39 P11 1.541423 1_555
O40 P12 1.559741 1_555
O41 S1 1.488493 1_555
O42 P5 1.547406 1_555
O43 P6 1.549977 1_555
O44 P7 1.561819 1_555
O45 P8 1.559021 1_455
O46 P9 1.550818 1_555
O47 P10 1.574445 1_555
O48 P4 1.557418 1_555
O49 P2 1.544526 1_555
O50 P3 1.549144 1_655
O51 P0 1.549562 1_555
O52 P1 1.580971 1_555
O53 S0 1.495621 1_555
O54 S1 1.484623 1_555
O55 P11 1.556449 1_655
O56 P12 1.539096 1_545
O57 P13 1.553782 1_545
O58 S2 1.496058 1_555
O59 P14 1.576729 1_655
O60 P10 1.572661 1_555
O61 P8 1.579751 1_455
O62 P9 1.564909 1_565
O63 P6 1.565933 1_565
O64 P7 1.549398 1_555
O65 P5 1.551923 1_455
O66 S0 1.509575 1_565
O67 P0 1.580986 1_555
O68 P1 1.556006 1_455
O69 P2 1.541631 1_555
O70 P3 1.560040 1_555
O71 P4 1.547426 1_565
