# generated using pymatgen
data_Na2MgV2Cd2O8
_symmetry_space_group_name_H-M   'P 1'
_cell_length_a   5.80670155
_cell_length_b   5.80670183
_cell_length_c   7.30944773
_cell_angle_alpha   90.21922044
_cell_angle_beta   89.78077882
_cell_angle_gamma   114.86355130
_symmetry_Int_Tables_number   1
_chemical_formula_structural   Na2MgV2Cd2O8
_chemical_formula_sum   'Na2 Mg1 V2 Cd2 O8'
_cell_volume   223.61226347
_cell_formula_units_Z   1
loop_
 _symmetry_equiv_pos_site_id
 _symmetry_equiv_pos_as_xyz
  1  'x, y, z'
loop_
 _atom_site_type_symbol
 _atom_site_label
 _atom_site_symmetry_multiplicity
 _atom_site_fract_x
 _atom_site_fract_y
 _atom_site_fract_z
 _atom_site_occupancy
  Na  Na0  1  0.50000000  0.50000000  0.00000000  1
  Na  Na1  1  0.50000000  0.50000000  0.50000000  1
  Mg  Mg0  1  0.00000000  0.00000000  0.00000000  1
  V  V0  1  0.83373800  0.16626200  0.75278700  1
  V  V1  1  0.16626200  0.83373800  0.24721300  1
  Cd  Cd0  1  0.16667200  0.83332800  0.70040900  1
  Cd  Cd1  1  0.83332800  0.16667200  0.29959100  1
  O  O0  1  0.81941800  0.76643800  0.22914400  1
  O  O1  1  0.23356200  0.18058200  0.22914400  1
  O  O2  1  0.27165900  0.72834100  0.44587700  1
  O  O3  1  0.22093400  0.77906600  0.01353300  1
  O  O4  1  0.72834100  0.27165900  0.55412300  1
  O  O5  1  0.77906600  0.22093400  0.98646700  1
  O  O6  1  0.18058200  0.23356200  0.77085600  1
  O  O7  1  0.76643800  0.81941800  0.77085600  1
loop_
_geom_bond_atom_site_label_1
_geom_bond_atom_site_label_2
_geom_bond_distance
_geom_bond_site_symmetry_2
Na0 O7 2.495993 1_554
Na0 O1 2.495993 1_555
Na0 O0 2.495993 1_555
Na0 O6 2.495993 1_554
Na0 O3 2.732619 1_555
Na0 O5 2.732619 1_554
Na1 O4 2.271334 1_555
Na1 O2 2.271334 1_555
Na1 O0 2.708444 1_555
Na1 O6 2.708444 1_555
Na1 O1 2.708444 1_555
Na1 O7 2.708444 1_555
Mg0 O6 2.133608 1_554
Mg0 O0 2.133608 1_445
Mg0 O1 2.133608 1_555
Mg0 O7 2.133608 1_444
Mg0 O5 2.165037 1_454
Mg0 O3 2.165037 1_545
Cd0 O2 2.121291 1_555
Cd0 O7 2.346517 1_455
Cd0 O6 2.346517 1_565
Cd0 O3 2.351917 1_556
Cd1 O4 2.121291 1_555
Cd1 O1 2.346517 1_655
Cd1 O0 2.346517 1_545
Cd1 O5 2.351917 1_554
O0 V1 1.888445 1_655
O1 V1 1.888445 1_545
O2 V1 1.785034 1_555
O3 V1 1.787604 1_555
O4 V0 1.785034 1_555
O5 V0 1.787604 1_555
O6 V0 1.888445 1_455
O7 V0 1.888445 1_565
