# generated using pymatgen
data_Ba2Nd2Mg(Fe2O5)2
_symmetry_space_group_name_H-M   'P 1'
_cell_length_a   3.93494642
_cell_length_b   7.80678623
_cell_length_c   9.89696533
_cell_angle_alpha   90.18530051
_cell_angle_beta   79.27737561
_cell_angle_gamma   90.36439161
_symmetry_Int_Tables_number   1
_chemical_formula_structural   Ba2Nd2Mg(Fe2O5)2
_chemical_formula_sum   'Ba2 Nd2 Mg1 Fe4 O10'
_cell_volume   298.71250751
_cell_formula_units_Z   1
loop_
 _symmetry_equiv_pos_site_id
 _symmetry_equiv_pos_as_xyz
  1  'x, y, z'
loop_
 _atom_site_type_symbol
 _atom_site_label
 _atom_site_symmetry_multiplicity
 _atom_site_fract_x
 _atom_site_fract_y
 _atom_site_fract_z
 _atom_site_occupancy
  Ba  Ba0  1  0.75101140  0.00250646  0.96230821  1
  Ba  Ba1  1  0.97298883  0.99052191  0.44528338  1
  Nd  Nd0  1  0.17228466  0.49661900  0.10166776  1
  Nd  Nd1  1  0.96644334  0.50178092  0.50007622  1
  Mg  Mg0  1  0.79176917  0.50005832  0.85470259  1
  Fe  Fe0  1  0.57111393  0.25417866  0.28098960  1
  Fe  Fe1  1  0.37288675  0.22835613  0.69420791  1
  Fe  Fe2  1  0.58276919  0.74672695  0.26461717  1
  Fe  Fe3  1  0.37118708  0.77187244  0.69557347  1
  O  O0  1  0.86203582  0.68727351  0.71558360  1
  O  O1  1  0.70856657  0.33386150  0.02204625  1
  O  O2  1  0.06388850  0.67668834  0.28734480  1
  O  O3  1  0.86669076  0.31318074  0.71312157  1
  O  O4  1  0.54955051  -0.00170458  0.25600081  1
  O  O5  1  0.06590923  0.31135087  0.28479027  1
  O  O6  1  0.70857298  0.66969145  0.03203657  1
  O  O7  1  0.46886533  0.70328836  0.49518869  1
  O  O8  1  0.33598883  0.00064741  0.78601314  1
  O  O9  1  0.46747713  0.30476961  0.49504600  1
loop_
_geom_bond_atom_site_label_1
_geom_bond_atom_site_label_2
_geom_bond_distance
_geom_bond_site_symmetry_2
Ba0 O8 2.602172 1_555
Ba0 O8 2.617022 1_655
Ba0 O1 2.651024 1_556
Ba0 O6 2.686642 1_546
Ba0 O4 2.867243 1_556
Ba1 O4 2.660393 1_665
Ba1 O4 2.729976 1_565
Ba1 O2 2.890025 1_655
Ba1 O5 2.954302 1_665
Ba1 O7 2.965340 1_555
Ba1 O7 3.082365 1_655
Ba1 O9 3.147625 1_565
Ba1 O9 3.214841 1_665
Nd0 O2 2.287853 1_555
Nd0 O5 2.297551 1_555
Nd0 O1 2.462530 1_455
Nd0 O1 2.469288 1_555
Nd0 O6 2.476942 1_455
Nd0 O6 2.486427 1_555
Nd1 O2 2.481077 1_655
Nd1 O9 2.494078 1_555
Nd1 O9 2.501305 1_655
Nd1 O7 2.512161 1_655
Nd1 O7 2.526958 1_555
Nd1 O3 2.544104 1_555
Nd1 O0 2.544885 1_555
Nd1 O5 2.565091 1_655
Mg0 O0 1.993621 1_555
Mg0 O3 2.004320 1_555
Mg0 O1 2.083340 1_556
Mg0 O6 2.172064 1_556
Fe0 O5 2.001874 1_655
Fe0 O4 2.015274 1_555
Fe0 O5 2.033700 1_555
Fe0 O9 2.117907 1_555
Fe0 O1 2.595661 1_555
Fe1 O8 1.991186 1_555
Fe1 O9 2.027662 1_555
Fe1 O3 2.078046 1_455
Fe1 O3 2.089819 1_555
Fe2 O4 1.972288 1_565
Fe2 O2 2.026353 1_655
Fe2 O2 2.081844 1_555
Fe2 O7 2.268415 1_555
Fe2 O6 2.340093 1_555
Fe3 O8 1.989173 1_565
Fe3 O7 2.019802 1_555
Fe3 O0 2.079838 1_455
Fe3 O0 2.089346 1_555
