# generated using pymatgen
data_MgMn2V2O7
_symmetry_space_group_name_H-M   'P 1'
_cell_length_a   5.41672520
_cell_length_b   5.67235484
_cell_length_c   5.57849894
_cell_angle_alpha   111.82516375
_cell_angle_beta   95.33570829
_cell_angle_gamma   93.33225334
_symmetry_Int_Tables_number   1
_chemical_formula_structural   MgMn2V2O7
_chemical_formula_sum   'Mg1 Mn2 V2 O7'
_cell_volume   157.62875415
_cell_formula_units_Z   1
loop_
 _symmetry_equiv_pos_site_id
 _symmetry_equiv_pos_as_xyz
  1  'x, y, z'
loop_
 _atom_site_type_symbol
 _atom_site_label
 _atom_site_symmetry_multiplicity
 _atom_site_fract_x
 _atom_site_fract_y
 _atom_site_fract_z
 _atom_site_occupancy
  Mg  Mg0  1  0.86894300  0.66581000  0.57415900  1
  Mn  Mn0  1  0.02753400  0.83211400  0.18411000  1
  Mn  Mn1  1  0.02022100  0.21665100  0.84976300  1
  V  V0  1  0.38604100  0.75724800  0.75880600  1
  V  V1  1  0.62355600  0.20280600  0.24341700  1
  O  O0  1  0.84879900  0.44149600  0.18249900  1
  O  O1  1  0.17969200  0.88723800  0.56587100  1
  O  O2  1  0.12924700  0.56626100  0.82137100  1
  O  O3  1  0.77608200  0.06245600  0.44104700  1
  O  O4  1  0.52183700  0.49227400  0.51115600  1
  O  O5  1  0.29670300  0.06580100  0.07144500  1
  O  O6  1  0.72134600  0.91698700  0.90350000  1
loop_
_geom_bond_atom_site_label_1
_geom_bond_atom_site_label_2
_geom_bond_distance
_geom_bond_site_symmetry_2
Mg0 O4 2.008048 1_555
Mg0 O1 2.055456 1_655
Mg0 O0 2.068091 1_555
Mg0 O6 2.122220 1_555
Mg0 O2 2.125731 1_655
Mg0 O3 2.677853 1_565
Mn0 O1 2.112097 1_555
Mn0 O2 2.169638 1_554
Mn0 O3 2.189571 1_465
Mn0 O5 2.200711 1_565
Mn0 O0 2.362422 1_455
Mn0 O6 2.367122 1_454
Mn1 O2 2.102707 1_555
Mn1 O0 2.152248 1_456
Mn1 O1 2.233263 1_545
Mn1 O5 2.257368 1_556
Mn1 O3 2.352510 1_455
Mn1 O6 2.397776 1_445
O0 V1 1.914264 1_555
O1 V0 1.847584 1_555
O2 V0 1.851091 1_555
O3 V1 1.758274 1_555
O4 V0 1.866094 1_555
O4 V1 1.914459 1_555
O5 V1 1.904907 1_555
O5 V0 2.079648 1_544
O6 V0 1.939983 1_555
O6 V1 2.122620 1_566
