# generated using pymatgen
data_CuAgTe2
_symmetry_space_group_name_H-M   'P 1'
_cell_length_a   6.29895800
_cell_length_b   8.57998000
_cell_length_c   15.22414000
_cell_angle_alpha   90.00000000
_cell_angle_beta   90.00000000
_cell_angle_gamma   90.00000000
_symmetry_Int_Tables_number   1
_chemical_formula_structural   CuAgTe2
_chemical_formula_sum   'Cu8 Ag8 Te16'
_cell_volume   822.78763634
_cell_formula_units_Z   8
loop_
 _symmetry_equiv_pos_site_id
 _symmetry_equiv_pos_as_xyz
  1  'x, y, z'
loop_
 _atom_site_type_symbol
 _atom_site_label
 _atom_site_symmetry_multiplicity
 _atom_site_fract_x
 _atom_site_fract_y
 _atom_site_fract_z
 _atom_site_occupancy
  Cu  Cu0_0  1  0.25000000  0.00000000  0.28203000  1
  Cu  Cu0_1  1  0.25000000  0.00000000  0.78203000  1
  Cu  Cu0_2  1  0.25000000  0.50000000  0.28203000  1
  Cu  Cu0_3  1  0.25000000  0.50000000  0.78203000  1
  Cu  Cu0_4  1  0.75000000  0.00000000  0.28203000  1
  Cu  Cu0_5  1  0.75000000  0.00000000  0.78203000  1
  Cu  Cu0_6  1  0.75000000  0.50000000  0.28203000  1
  Cu  Cu0_7  1  0.75000000  0.50000000  0.78203000  1
  Ag  Ag0_0  1  0.00000000  0.25000000  0.22259150  1
  Ag  Ag0_1  1  0.00000000  0.25000000  0.72259150  1
  Ag  Ag0_2  1  0.00000000  0.75000000  0.22259150  1
  Ag  Ag0_3  1  0.00000000  0.75000000  0.72259150  1
  Ag  Ag0_4  1  0.50000000  0.25000000  0.22259150  1
  Ag  Ag0_5  1  0.50000000  0.25000000  0.72259150  1
  Ag  Ag0_6  1  0.50000000  0.75000000  0.22259150  1
  Ag  Ag0_7  1  0.50000000  0.75000000  0.72259150  1
  Te  Te0_0  1  0.00000000  0.00000000  0.10893500  1
  Te  Te0_1  1  0.00000000  0.00000000  0.60893500  1
  Te  Te0_2  1  0.00000000  0.50000000  0.10893500  1
  Te  Te0_3  1  0.00000000  0.50000000  0.60893500  1
  Te  Te0_4  1  0.50000000  0.00000000  0.10893500  1
  Te  Te0_5  1  0.50000000  0.00000000  0.60893500  1
  Te  Te0_6  1  0.50000000  0.50000000  0.10893500  1
  Te  Te0_7  1  0.50000000  0.50000000  0.60893500  1
  Te  Te1_0  1  0.25000000  0.25000000  0.38644350  1
  Te  Te1_1  1  0.25000000  0.25000000  0.88644350  1
  Te  Te1_2  1  0.25000000  0.75000000  0.38644350  1
  Te  Te1_3  1  0.25000000  0.75000000  0.88644350  1
  Te  Te1_4  1  0.75000000  0.25000000  0.38644350  1
  Te  Te1_5  1  0.75000000  0.25000000  0.88644350  1
  Te  Te1_6  1  0.75000000  0.75000000  0.38644350  1
  Te  Te1_7  1  0.75000000  0.75000000  0.88644350  1
loop_
_geom_bond_atom_site_label_1
_geom_bond_atom_site_label_2
_geom_bond_distance
_geom_bond_site_symmetry_2
Cu0_0 Te1_2 2.669803 1_545
Cu0_0 Te1_0 2.669803 1_555
Cu0_0 Te0_0 3.069886 1_555
Cu0_0 Te0_4 3.069886 1_555
Cu0_0 Cu0_4 3.149479 1_455
Cu0_0 Cu0_4 3.149479 1_555
Cu0_1 Te1_3 2.669803 1_545
Cu0_1 Te1_1 2.669803 1_555
Cu0_1 Te0_1 3.069886 1_555
Cu0_1 Te0_5 3.069886 1_555
Cu0_1 Cu0_5 3.149479 1_455
Cu0_1 Cu0_5 3.149479 1_555
Cu0_2 Te1_0 2.669803 1_555
Cu0_2 Te1_2 2.669803 1_555
Cu0_2 Te0_2 3.069886 1_555
Cu0_2 Te0_6 3.069886 1_555
Cu0_2 Cu0_6 3.149479 1_455
Cu0_2 Cu0_6 3.149479 1_555
Cu0_3 Te1_1 2.669803 1_555
Cu0_3 Te1_3 2.669803 1_555
Cu0_3 Te0_3 3.069886 1_555
Cu0_3 Te0_7 3.069886 1_555
Cu0_3 Cu0_7 3.149479 1_455
Cu0_3 Cu0_7 3.149479 1_555
Cu0_4 Te1_4 2.669803 1_555
Cu0_4 Te1_6 2.669803 1_545
Cu0_4 Te0_0 3.069886 1_655
Cu0_4 Te0_4 3.069886 1_555
Cu0_5 Te1_5 2.669803 1_555
Cu0_5 Te1_7 2.669803 1_545
Cu0_5 Te0_1 3.069886 1_655
Cu0_5 Te0_5 3.069886 1_555
Cu0_6 Te1_4 2.669803 1_555
Cu0_6 Te1_6 2.669803 1_555
Cu0_6 Te0_2 3.069886 1_655
Cu0_6 Te0_6 3.069886 1_555
Cu0_7 Te1_5 2.669803 1_555
Cu0_7 Te1_7 2.669803 1_555
Cu0_7 Te0_3 3.069886 1_655
Cu0_7 Te0_7 3.069886 1_555
Ag0_0 Te0_0 2.755906 1_555
Ag0_0 Te0_2 2.755906 1_555
Ag0_0 Cu0_6 2.810632 1_455
Ag0_0 Cu0_4 2.810632 1_455
Ag0_0 Cu0_0 2.810632 1_555
Ag0_0 Cu0_2 2.810632 1_555
Ag0_0 Te1_4 2.949977 1_455
Ag0_0 Te1_0 2.949977 1_555
Ag0_0 Ag0_4 3.149479 1_455
Ag0_0 Ag0_4 3.149479 1_555
Ag0_1 Te0_1 2.755906 1_555
Ag0_1 Te0_3 2.755906 1_555
Ag0_1 Cu0_7 2.810632 1_455
Ag0_1 Cu0_5 2.810632 1_455
Ag0_1 Cu0_3 2.810632 1_555
Ag0_1 Cu0_1 2.810632 1_555
Ag0_1 Te1_5 2.949977 1_455
Ag0_1 Te1_1 2.949977 1_555
Ag0_1 Ag0_5 3.149479 1_455
Ag0_1 Ag0_5 3.149479 1_555
Ag0_2 Te0_0 2.755906 1_565
Ag0_2 Te0_2 2.755906 1_555
Ag0_2 Cu0_4 2.810632 1_465
Ag0_2 Cu0_6 2.810632 1_455
Ag0_2 Cu0_0 2.810632 1_565
Ag0_2 Cu0_2 2.810632 1_555
Ag0_2 Te1_6 2.949977 1_455
Ag0_2 Te1_2 2.949977 1_555
Ag0_2 Ag0_6 3.149479 1_555
Ag0_2 Ag0_6 3.149479 1_455
Ag0_3 Te0_1 2.755906 1_565
Ag0_3 Te0_3 2.755906 1_555
Ag0_3 Cu0_5 2.810632 1_465
Ag0_3 Cu0_7 2.810632 1_455
Ag0_3 Cu0_1 2.810632 1_565
Ag0_3 Cu0_3 2.810632 1_555
Ag0_3 Te1_7 2.949977 1_455
Ag0_3 Te1_3 2.949977 1_555
Ag0_3 Ag0_7 3.149479 1_455
Ag0_3 Ag0_7 3.149479 1_555
Ag0_4 Te0_6 2.755906 1_555
Ag0_4 Te0_4 2.755906 1_555
Ag0_4 Cu0_0 2.810632 1_555
Ag0_4 Cu0_2 2.810632 1_555
Ag0_4 Cu0_4 2.810632 1_555
Ag0_4 Cu0_6 2.810632 1_555
Ag0_4 Te1_0 2.949977 1_555
Ag0_4 Te1_4 2.949977 1_555
Ag0_5 Te0_7 2.755906 1_555
Ag0_5 Te0_5 2.755906 1_555
Ag0_5 Cu0_3 2.810632 1_555
Ag0_5 Cu0_1 2.810632 1_555
Ag0_5 Cu0_5 2.810632 1_555
Ag0_5 Cu0_7 2.810632 1_555
Ag0_5 Te1_5 2.949977 1_555
Ag0_5 Te1_1 2.949977 1_555
Ag0_6 Te0_4 2.755906 1_565
Ag0_6 Te0_6 2.755906 1_555
Ag0_6 Cu0_0 2.810632 1_565
Ag0_6 Cu0_4 2.810632 1_565
Ag0_6 Cu0_6 2.810632 1_555
Ag0_6 Cu0_2 2.810632 1_555
Ag0_6 Te1_2 2.949977 1_555
Ag0_6 Te1_6 2.949977 1_555
Ag0_7 Te0_5 2.755906 1_565
Ag0_7 Te0_7 2.755906 1_555
Ag0_7 Cu0_1 2.810632 1_565
Ag0_7 Cu0_3 2.810632 1_555
Ag0_7 Cu0_7 2.810632 1_555
Ag0_7 Cu0_5 2.810632 1_565
Ag0_7 Te1_3 2.949977 1_555
Ag0_7 Te1_7 2.949977 1_555
Te0_0 Te0_4 3.149479 1_555
Te0_0 Te0_4 3.149479 1_455
Te0_1 Te0_5 3.149479 1_555
Te0_1 Te0_5 3.149479 1_455
Te0_2 Te0_6 3.149479 1_455
Te0_2 Te0_6 3.149479 1_555
Te0_3 Te0_7 3.149479 1_555
Te0_3 Te0_7 3.149479 1_455
Te1_0 Te1_4 3.149479 1_455
Te1_0 Te1_4 3.149479 1_555
Te1_1 Te1_5 3.149479 1_455
Te1_1 Te1_5 3.149479 1_555
Te1_2 Te1_6 3.149479 1_455
Te1_2 Te1_6 3.149479 1_555
Te1_3 Te1_7 3.149479 1_455
Te1_3 Te1_7 3.149479 1_555
