# generated using pymatgen
data_Ba2La2MgZn(WO6)2
_symmetry_space_group_name_H-M   'P 1'
_cell_length_a   10.12591396
_cell_length_b   10.12591307
_cell_length_c   10.12591272
_cell_angle_alpha   33.07940878
_cell_angle_beta   33.07942253
_cell_angle_gamma   33.07940911
_symmetry_Int_Tables_number   1
_chemical_formula_structural   Ba2La2MgZn(WO6)2
_chemical_formula_sum   'Ba2 La2 Mg1 Zn1 W2 O12'
_cell_volume   275.28021415
_cell_formula_units_Z   1
loop_
 _symmetry_equiv_pos_site_id
 _symmetry_equiv_pos_as_xyz
  1  'x, y, z'
loop_
 _atom_site_type_symbol
 _atom_site_label
 _atom_site_symmetry_multiplicity
 _atom_site_fract_x
 _atom_site_fract_y
 _atom_site_fract_z
 _atom_site_occupancy
  Ba  Ba0  1  0.28604000  0.28604000  0.28604000  1
  Ba  Ba1  1  0.71396000  0.71396000  0.71396000  1
  La  La0  1  0.13616900  0.13616900  0.13616900  1
  La  La1  1  0.86383100  0.86383100  0.86383100  1
  Mg  Mg0  1  0.50000000  0.50000000  0.50000000  1
  Zn  Zn0  1  0.00000000  0.00000000  0.00000000  1
  W  W0  1  0.41146400  0.41146400  0.41146400  1
  W  W1  1  0.58853600  0.58853600  0.58853600  1
  O  O0  1  0.20990000  0.71828200  0.20990000  1
  O  O1  1  0.20990000  0.20990000  0.71828200  1
  O  O2  1  0.71828200  0.20990000  0.20990000  1
  O  O3  1  0.12915300  0.62336700  0.62336700  1
  O  O4  1  0.62336700  0.12915300  0.62336700  1
  O  O5  1  0.62336700  0.62336700  0.12915300  1
  O  O6  1  0.37663300  0.37663300  0.87084700  1
  O  O7  1  0.37663300  0.87084700  0.37663300  1
  O  O8  1  0.87084700  0.37663300  0.37663300  1
  O  O9  1  0.28171800  0.79010000  0.79010000  1
  O  O10  1  0.79010000  0.79010000  0.28171800  1
  O  O11  1  0.79010000  0.28171800  0.79010000  1
loop_
_geom_bond_atom_site_label_1
_geom_bond_atom_site_label_2
_geom_bond_distance
_geom_bond_site_symmetry_2
Ba0 O7 2.800418 1_545
Ba0 O6 2.800418 1_554
Ba0 O8 2.800418 1_455
Ba0 O9 2.883006 1_554
Ba0 O9 2.883006 1_545
Ba0 O10 2.883006 1_455
Ba0 O10 2.883006 1_545
Ba0 O11 2.883007 1_455
Ba0 O11 2.883007 1_554
Ba0 O1 3.167273 1_555
Ba0 O0 3.167273 1_555
Ba0 O2 3.167273 1_555
Ba1 O4 2.800418 1_565
Ba1 O5 2.800418 1_556
Ba1 O3 2.800418 1_655
Ba1 O2 2.883006 1_556
Ba1 O2 2.883006 1_565
Ba1 O1 2.883006 1_655
Ba1 O1 2.883006 1_565
Ba1 O0 2.883007 1_655
Ba1 O0 2.883007 1_556
Ba1 O10 3.167273 1_555
Ba1 O11 3.167273 1_555
Ba1 O9 3.167273 1_555
La0 O7 2.661899 1_545
La0 O8 2.661899 1_455
La0 O6 2.661900 1_554
La0 O3 2.899536 1_554
La0 O3 2.899536 1_545
La0 O5 2.899536 1_545
La0 O5 2.899536 1_455
La0 O4 2.899537 1_554
La0 O4 2.899537 1_455
La0 O1 3.060365 1_554
La0 O0 3.060365 1_545
La0 O2 3.060365 1_455
La1 O4 2.661899 1_565
La1 O3 2.661899 1_655
La1 O5 2.661900 1_556
La1 O8 2.899536 1_556
La1 O8 2.899536 1_565
La1 O6 2.899536 1_565
La1 O6 2.899536 1_655
La1 O7 2.899537 1_556
La1 O7 2.899537 1_655
La1 O10 3.060365 1_556
La1 O11 3.060365 1_565
La1 O9 3.060365 1_655
Mg0 O4 2.028524 1_555
Mg0 O7 2.028524 1_555
Mg0 O5 2.028524 1_555
Mg0 O6 2.028524 1_555
Mg0 O8 2.028525 1_555
Mg0 O3 2.028525 1_555
O0 W0 1.926608 1_555
O0 Zn0 2.102740 1_565
O1 W0 1.926609 1_555
O1 Zn0 2.102741 1_556
O2 W0 1.926609 1_555
O2 Zn0 2.102741 1_655
O3 W0 2.130056 1_555
O4 W0 2.130056 1_555
O5 W0 2.130056 1_555
O6 W1 2.130056 1_555
O7 W1 2.130056 1_555
O8 W1 2.130056 1_555
O9 W1 1.926609 1_555
O9 Zn0 2.102741 1_566
O10 W1 1.926609 1_555
O10 Zn0 2.102741 1_665
O11 W1 1.926608 1_555
O11 Zn0 2.102740 1_656
