# generated using pymatgen
data_CaHgPb
_symmetry_space_group_name_H-M   'P 1'
_cell_length_a   5.15181058
_cell_length_b   5.15181058
_cell_length_c   7.55870400
_cell_angle_alpha   90.00000000
_cell_angle_beta   90.00000000
_cell_angle_gamma   120.00000739
_symmetry_Int_Tables_number   1
_chemical_formula_structural   CaHgPb
_chemical_formula_sum   'Ca2 Hg2 Pb2'
_cell_volume   173.73915724
_cell_formula_units_Z   2
loop_
 _symmetry_equiv_pos_site_id
 _symmetry_equiv_pos_as_xyz
  1  'x, y, z'
loop_
 _atom_site_type_symbol
 _atom_site_label
 _atom_site_symmetry_multiplicity
 _atom_site_fract_x
 _atom_site_fract_y
 _atom_site_fract_z
 _atom_site_occupancy
  Ca  Ca0  1  0.00000000  0.00000000  0.00000000  1
  Ca  Ca1  1  0.00000000  0.00000000  0.50000000  1
  Hg  Hg0  1  0.33333300  0.66666700  0.25000000  1
  Hg  Hg1  1  0.66666700  0.33333300  0.75000000  1
  Pb  Pb0  1  0.33333300  0.66666700  0.75000000  1
  Pb  Pb1  1  0.66666700  0.33333300  0.25000000  1
loop_
_geom_bond_atom_site_label_1
_geom_bond_atom_site_label_2
_geom_bond_distance
_geom_bond_site_symmetry_2
Ca0 Hg1 3.523905 1_454
Ca0 Pb1 3.523905 1_455
Ca0 Hg0 3.523905 1_545
Ca0 Pb0 3.523905 1_544
Ca0 Pb0 3.523909 1_554
Ca0 Hg1 3.523909 1_444
Ca0 Pb1 3.523909 1_555
Ca0 Pb0 3.523909 1_444
Ca0 Hg0 3.523909 1_555
Ca0 Pb1 3.523909 1_445
Ca0 Hg1 3.523909 1_554
Ca0 Hg0 3.523909 1_445
Ca1 Pb1 3.523905 1_455
Ca1 Hg0 3.523905 1_545
Ca1 Pb0 3.523905 1_545
Ca1 Hg1 3.523905 1_455
Ca1 Pb0 3.523909 1_445
Ca1 Pb1 3.523909 1_555
Ca1 Hg0 3.523909 1_555
Ca1 Hg1 3.523909 1_445
Ca1 Pb0 3.523909 1_555
Ca1 Pb1 3.523909 1_445
Ca1 Hg0 3.523909 1_445
Ca1 Hg1 3.523909 1_555
Hg0 Pb1 2.974396 1_455
Hg0 Pb1 2.974396 1_565
Hg0 Pb1 2.974405 1_555
Hg1 Pb0 2.974396 1_545
Hg1 Pb0 2.974396 1_655
Hg1 Pb0 2.974405 1_555
