# generated using pymatgen
data_MgV4O7F5
_symmetry_space_group_name_H-M   'P 1'
_cell_length_a   5.28671280
_cell_length_b   5.46433577
_cell_length_c   8.80533582
_cell_angle_alpha   77.34009336
_cell_angle_beta   90.73425362
_cell_angle_gamma   59.63015529
_symmetry_Int_Tables_number   1
_chemical_formula_structural   MgV4O7F5
_chemical_formula_sum   'Mg1 V4 O7 F5'
_cell_volume   211.80978786
_cell_formula_units_Z   1
loop_
 _symmetry_equiv_pos_site_id
 _symmetry_equiv_pos_as_xyz
  1  'x, y, z'
loop_
 _atom_site_type_symbol
 _atom_site_label
 _atom_site_symmetry_multiplicity
 _atom_site_fract_x
 _atom_site_fract_y
 _atom_site_fract_z
 _atom_site_occupancy
  Mg  Mg0  1  0.55516500  0.89626000  0.85003400  1
  V  V0  1  0.76780200  0.46965800  0.24117600  1
  V  V1  1  0.46349300  0.07883000  0.47297600  1
  V  V2  1  0.26156100  0.54106600  0.73685900  1
  V  V3  1  0.04628300  0.94081100  0.01064500  1
  O  O0  1  0.94622000  0.23128100  0.12814900  1
  O  O1  1  0.44508800  0.75100000  0.06224900  1
  O  O2  1  0.43764300  0.72675600  0.69514500  1
  O  O3  1  0.56077100  0.27275300  0.33516000  1
  O  O4  1  0.46501900  0.21516500  0.64026100  1
  O  O5  1  0.99568400  0.74671600  0.88116600  1
  O  O6  1  0.09330600  0.23681300  0.42152900  1
  F  F0  1  0.92263800  0.74132600  0.57834400  1
  F  F1  1  0.95008500  0.71794600  0.18326500  1
  F  F2  1  0.55676900  0.75282000  0.37649000  1
  F  F3  1  0.55759100  0.22868700  0.92625400  1
  F  F4  1  0.09988200  0.20211500  0.83648700  1
loop_
_geom_bond_atom_site_label_1
_geom_bond_atom_site_label_2
_geom_bond_distance
_geom_bond_site_symmetry_2
Mg0 O5 2.031697 1_555
Mg0 O2 2.053749 1_555
Mg0 O1 2.074913 1_556
Mg0 O4 2.098202 1_565
O0 V0 1.710803 1_555
O0 V3 1.937654 1_645
O1 V3 1.812494 1_555
O1 V0 1.993424 1_555
O2 V2 1.682716 1_555
O2 V1 2.483929 1_565
O3 V1 1.692151 1_555
O3 V0 1.965758 1_555
O4 V1 1.792084 1_555
O4 V2 1.949956 1_555
O5 V3 1.818065 1_656
O5 V2 1.981829 1_655
O6 V1 1.696499 1_555
O6 V0 1.983048 1_455
F0 V2 1.907869 1_655
F0 V1 2.195405 1_565
F1 V3 1.971481 1_655
F1 V0 2.015143 1_555
F2 V1 1.980993 1_565
F2 V0 2.038406 1_555
F3 V2 2.031813 1_555
F3 Mg0 2.075562 1_545
F3 V3 2.242880 1_646
F4 V3 1.982729 1_546
F4 Mg0 2.106776 1_545
F4 V2 2.416282 1_555
