# generated using pymatgen
data_MgNi2(PO4)2
_symmetry_space_group_name_H-M   'P 1'
_cell_length_a   4.90639192
_cell_length_b   4.90639367
_cell_length_c   6.30402500
_cell_angle_alpha   90.00000000
_cell_angle_beta   90.00000000
_cell_angle_gamma   66.82734735
_symmetry_Int_Tables_number   1
_chemical_formula_structural   MgNi2(PO4)2
_chemical_formula_sum   'Mg1 Ni2 P2 O8'
_cell_volume   139.51175585
_cell_formula_units_Z   1
loop_
 _symmetry_equiv_pos_site_id
 _symmetry_equiv_pos_as_xyz
  1  'x, y, z'
loop_
 _atom_site_type_symbol
 _atom_site_label
 _atom_site_symmetry_multiplicity
 _atom_site_fract_x
 _atom_site_fract_y
 _atom_site_fract_z
 _atom_site_occupancy
  Mg  Mg0  1  0.32215500  0.32215500  0.75000000  1
  Ni  Ni0  1  0.99353100  0.99353100  0.48414500  1
  Ni  Ni1  1  0.99353100  0.99353100  0.01585600  1
  P  P0  1  0.35403200  0.35403000  0.25000000  1
  P  P1  1  0.65474800  0.65474800  0.75000000  1
  O  O0  1  0.75560400  0.75560500  0.54975200  1
  O  O1  1  0.69854000  0.22636000  0.25000000  1
  O  O2  1  0.22635900  0.69854100  0.25000000  1
  O  O3  1  0.30042400  0.76050500  0.75000000  1
  O  O4  1  0.75560400  0.75560500  0.95024800  1
  O  O5  1  0.24526300  0.24526400  0.45280300  1
  O  O6  1  0.76050500  0.30042400  0.75000000  1
  O  O7  1  0.24526300  0.24526400  0.04719600  1
loop_
_geom_bond_atom_site_label_1
_geom_bond_atom_site_label_2
_geom_bond_distance
_geom_bond_site_symmetry_2
Mg0 O7 1.976557 1_556
Mg0 O5 1.976563 1_555
Mg0 O6 2.111038 1_555
Mg0 O3 2.111039 1_555
Ni0 O0 1.992234 1_555
Ni0 O2 2.068157 1_655
Ni0 O1 2.068161 1_565
Ni0 O5 2.071359 1_665
Ni0 O3 2.242407 1_655
Ni0 O6 2.242407 1_565
Ni1 O4 1.992235 1_554
Ni1 O2 2.068153 1_655
Ni1 O1 2.068156 1_565
Ni1 O7 2.071358 1_665
Ni1 O3 2.242412 1_654
Ni1 O6 2.242412 1_564
O0 P1 1.508649 1_555
O1 P0 1.554407 1_555
O2 P0 1.554421 1_555
O3 P1 1.606715 1_555
O4 P1 1.508649 1_555
O5 P0 1.558271 1_555
O6 P1 1.606716 1_555
O7 P0 1.558276 1_555
