# generated using pymatgen
data_Cs3Cr2Br9
_symmetry_space_group_name_H-M   'P 1'
_cell_length_a   7.62323495
_cell_length_b   7.62327647
_cell_length_c   19.09839660
_cell_angle_alpha   90.00298197
_cell_angle_beta   89.99842621
_cell_angle_gamma   119.99949748
_symmetry_Int_Tables_number   1
_chemical_formula_structural   Cs3Cr2Br9
_chemical_formula_sum   'Cs6 Cr4 Br18'
_cell_volume   961.19325162
_cell_formula_units_Z   2
loop_
 _symmetry_equiv_pos_site_id
 _symmetry_equiv_pos_as_xyz
  1  'x, y, z'
loop_
 _atom_site_type_symbol
 _atom_site_label
 _atom_site_symmetry_multiplicity
 _atom_site_fract_x
 _atom_site_fract_y
 _atom_site_fract_z
 _atom_site_occupancy
  Cs  Cs0  1  0.66665121  0.33333281  0.92749526  1
  Cs  Cs1  1  0.33332636  0.66665200  0.42748886  1
  Cs  Cs2  1  0.66665899  0.33331739  0.57248683  1
  Cs  Cs3  1  0.33332279  0.66666322  0.07249471  1
  Cs  Cs4  1  -0.00000624  -0.00000484  0.74999838  1
  Cs  Cs5  1  -0.00000006  -0.00000278  0.24999137  1
  Cr  Cr0  1  0.33333274  0.66663460  0.66214484  1
  Cr  Cr1  1  0.66668060  0.33338321  0.16222170  1
  Cr  Cr2  1  0.66666939  0.33334267  0.33786780  1
  Cr  Cr3  1  0.33333765  0.66665460  0.83778699  1
  Br  Br0  1  0.82298954  0.64593758  0.40744420  1
  Br  Br1  1  0.17702439  0.35407072  0.90742417  1
  Br  Br2  1  0.17703169  0.82297413  0.90742301  1
  Br  Br3  1  0.17707022  0.35406211  0.59255622  1
  Br  Br4  1  0.64591714  0.82296106  0.90742758  1
  Br  Br5  1  0.35408287  0.17704453  0.40744700  1
  Br  Br6  1  0.03161776  0.51579637  0.74996556  1
  Br  Br7  1  0.82295101  0.17704575  0.40741185  1
  Br  Br8  1  0.51576026  0.03158509  0.25005201  1
  Br  Br9  1  0.48416604  0.51577790  0.74996833  1
  Br  Br10  1  0.51579503  0.48422878  0.25002895  1
  Br  Br11  1  0.96843898  0.48425567  0.25007679  1
  Br  Br12  1  0.35405921  0.17702970  0.09255427  1
  Br  Br13  1  0.48419797  0.96839414  0.74996153  1
  Br  Br14  1  0.82297590  0.64595267  0.09258344  1
  Br  Br15  1  0.17704047  0.82291770  0.59258004  1
  Br  Br16  1  0.64592068  0.82293792  0.59255772  1
  Br  Br17  1  0.82298443  0.17705531  0.09256060  1
loop_
_geom_bond_atom_site_label_1
_geom_bond_atom_site_label_2
_geom_bond_distance
_geom_bond_site_symmetry_2
Br0 Cr2 2.454488 1_555
Br0 Cs2 3.767722 1_555
Br0 Cs5 3.808824 1_665
Br0 Cs1 3.833090 1_655
Br0 Cs1 3.833377 1_555
Br1 Cr3 2.455154 1_555
Br1 Cs3 3.767915 1_556
Br1 Cs4 3.808318 1_555
Br1 Cs0 3.833268 1_555
Br1 Cs0 3.833313 1_455
Br2 Cr3 2.455255 1_555
Br2 Cs3 3.768112 1_556
Br2 Cs4 3.808384 1_565
Br2 Cs0 3.833240 1_565
Br2 Cs0 3.833422 1_455
Br3 Cr0 2.454490 1_555
Br3 Cs1 3.768008 1_555
Br3 Cs4 3.808693 1_555
Br3 Cs2 3.832982 1_555
Br3 Cs2 3.833593 1_455
Br4 Cr3 2.455108 1_555
Br4 Cs3 3.767935 1_556
Br4 Cs4 3.808444 1_665
Br4 Cs0 3.833286 1_555
Br4 Cs0 3.833321 1_565
Br5 Cr2 2.454508 1_555
Br5 Cs2 3.767439 1_555
Br5 Cs5 3.808874 1_555
Br5 Cs1 3.833129 1_555
Br5 Cs1 3.833389 1_545
Br6 Cr0 2.603997 1_555
Br6 Cr3 2.604034 1_555
Br6 Cs4 3.817272 1_555
Br6 Cs4 3.817432 1_565
Br6 Cs2 4.158670 1_455
Br6 Cs0 4.159487 1_455
Br7 Cr2 2.454145 1_555
Br7 Cs2 3.767868 1_555
Br7 Cs5 3.808308 1_655
Br7 Cs1 3.833268 1_655
Br7 Cs1 3.833428 1_545
Br8 Cr2 2.604105 1_555
Br8 Cr1 2.604602 1_555
Br8 Cs5 3.817064 1_555
Br8 Cs5 3.817573 1_655
Br8 Cs1 4.158011 1_545
Br8 Cs3 4.159669 1_545
Br9 Cr3 2.603857 1_555
Br9 Cr0 2.603958 1_555
Br9 Cs4 3.817196 1_555
Br9 Cs4 3.817535 1_665
Br9 Cs2 4.158592 1_555
Br9 Cs0 4.159391 1_555
Br10 Cr1 2.603848 1_555
Br10 Cr2 2.604503 1_555
Br10 Cs5 3.817248 1_665
Br10 Cs5 3.817449 1_555
Br10 Cs1 4.158021 1_555
Br10 Cs3 4.159415 1_555
Br11 Cr2 2.603907 1_555
Br11 Cr1 2.604643 1_555
Br11 Cs5 3.817036 1_665
Br11 Cs5 3.817623 1_655
Br11 Cs1 4.157359 1_655
Br11 Cs3 4.159986 1_655
Br12 Cr1 2.455618 1_555
Br12 Cs0 3.767797 1_554
Br12 Cs5 3.808493 1_555
Br12 Cs3 3.833257 1_545
Br12 Cs3 3.833319 1_555
Br13 Cr0 2.604126 1_555
Br13 Cr3 2.604246 1_555
Br13 Cs4 3.817288 1_665
Br13 Cs4 3.817358 1_565
Br13 Cs2 4.158562 1_565
Br13 Cs0 4.159367 1_565
Br14 Cr1 2.455085 1_555
Br14 Cs0 3.768296 1_554
Br14 Cs5 3.807923 1_665
Br14 Cs3 3.833244 1_655
Br14 Cs3 3.833391 1_555
Br15 Cr0 2.454342 1_555
Br15 Cs1 3.768083 1_555
Br15 Cs4 3.808384 1_565
Br15 Cs2 3.833303 1_455
Br15 Cs2 3.833461 1_565
Br16 Cr0 2.454598 1_555
Br16 Cs1 3.767968 1_555
Br16 Cs4 3.808609 1_665
Br16 Cs2 3.833211 1_555
Br16 Cs2 3.833410 1_565
Br17 Cr1 2.455549 1_555
Br17 Cs0 3.768042 1_554
Br17 Cs5 3.808536 1_655
Br17 Cs3 3.833121 1_655
Br17 Cs3 3.833512 1_545
