# generated using pymatgen
data_MgTe4Mo3W(SeS)2
_symmetry_space_group_name_H-M   'P 1'
_cell_length_a   6.79962204
_cell_length_b   6.80028979
_cell_length_c   91.35080164
_cell_angle_alpha   90.01113712
_cell_angle_beta   90.01136699
_cell_angle_gamma   120.00100480
_symmetry_Int_Tables_number   1
_chemical_formula_structural   MgTe4Mo3W(SeS)2
_chemical_formula_sum   'Mg8 Te32 Mo24 W8 Se16 S16'
_cell_volume   3658.05942837
_cell_formula_units_Z   8
loop_
 _symmetry_equiv_pos_site_id
 _symmetry_equiv_pos_as_xyz
  1  'x, y, z'
loop_
 _atom_site_type_symbol
 _atom_site_label
 _atom_site_symmetry_multiplicity
 _atom_site_fract_x
 _atom_site_fract_y
 _atom_site_fract_z
 _atom_site_occupancy
  Mg  Mg0_0  1  0.00031600  0.00013400  0.19422200  1
  Mg  Mg0_1  1  0.00031600  0.00013400  0.69422200  1
  Mg  Mg0_2  1  0.00031600  0.50013400  0.19422200  1
  Mg  Mg0_3  1  0.00031600  0.50013400  0.69422200  1
  Mg  Mg0_4  1  0.50031600  0.00013400  0.19422200  1
  Mg  Mg0_5  1  0.50031600  0.00013400  0.69422200  1
  Mg  Mg0_6  1  0.50031600  0.50013400  0.19422200  1
  Mg  Mg0_7  1  0.50031600  0.50013400  0.69422200  1
  Te  Te0_0  1  0.16691550  0.33358000  0.15791750  1
  Te  Te0_1  1  0.16691550  0.33358000  0.65791750  1
  Te  Te0_2  1  0.16691550  0.83358000  0.15791750  1
  Te  Te0_3  1  0.16691550  0.83358000  0.65791750  1
  Te  Te0_4  1  0.66691550  0.33358000  0.15791750  1
  Te  Te0_5  1  0.66691550  0.33358000  0.65791750  1
  Te  Te0_6  1  0.66691550  0.83358000  0.15791750  1
  Te  Te0_7  1  0.66691550  0.83358000  0.65791750  1
  Te  Te1_0  1  0.16687200  0.33352800  0.34923750  1
  Te  Te1_1  1  0.16687200  0.33352800  0.84923750  1
  Te  Te1_2  1  0.16687200  0.83352800  0.34923750  1
  Te  Te1_3  1  0.16687200  0.83352800  0.84923750  1
  Te  Te1_4  1  0.66687200  0.33352800  0.34923750  1
  Te  Te1_5  1  0.66687200  0.33352800  0.84923750  1
  Te  Te1_6  1  0.66687200  0.83352800  0.34923750  1
  Te  Te1_7  1  0.66687200  0.83352800  0.84923750  1
  Te  Te2_0  1  0.16661100  0.33327850  0.11660250  1
  Te  Te2_1  1  0.16661100  0.33327850  0.61660250  1
  Te  Te2_2  1  0.16661100  0.83327850  0.11660250  1
  Te  Te2_3  1  0.16661100  0.83327850  0.61660250  1
  Te  Te2_4  1  0.66661100  0.33327850  0.11660250  1
  Te  Te2_5  1  0.66661100  0.33327850  0.61660250  1
  Te  Te2_6  1  0.66661100  0.83327850  0.11660250  1
  Te  Te2_7  1  0.66661100  0.83327850  0.61660250  1
  Te  Te3_0  1  0.16653900  0.33325800  0.30823700  1
  Te  Te3_1  1  0.16653900  0.33325800  0.80823700  1
  Te  Te3_2  1  0.16653900  0.83325800  0.30823700  1
  Te  Te3_3  1  0.16653900  0.83325800  0.80823700  1
  Te  Te3_4  1  0.66653900  0.33325800  0.30823700  1
  Te  Te3_5  1  0.66653900  0.33325800  0.80823700  1
  Te  Te3_6  1  0.66653900  0.83325800  0.30823700  1
  Te  Te3_7  1  0.66653900  0.83325800  0.80823700  1
  Mo  Mo0_0  1  0.16669200  0.33333500  0.04698850  1
  Mo  Mo0_1  1  0.16669200  0.33333500  0.54698850  1
  Mo  Mo0_2  1  0.16669200  0.83333500  0.04698850  1
  Mo  Mo0_3  1  0.16669200  0.83333500  0.54698850  1
  Mo  Mo0_4  1  0.66669200  0.33333500  0.04698850  1
  Mo  Mo0_5  1  0.66669200  0.33333500  0.54698850  1
  Mo  Mo0_6  1  0.66669200  0.83333500  0.04698850  1
  Mo  Mo0_7  1  0.66669200  0.83333500  0.54698850  1
  Mo  Mo1_0  1  0.16653750  0.33321850  0.23840400  1
  Mo  Mo1_1  1  0.16653750  0.33321850  0.73840400  1
  Mo  Mo1_2  1  0.16653750  0.83321850  0.23840400  1
  Mo  Mo1_3  1  0.16653750  0.83321850  0.73840400  1
  Mo  Mo1_4  1  0.66653750  0.33321850  0.23840400  1
  Mo  Mo1_5  1  0.66653750  0.33321850  0.73840400  1
  Mo  Mo1_6  1  0.66653750  0.83321850  0.23840400  1
  Mo  Mo1_7  1  0.66653750  0.83321850  0.73840400  1
  Mo  Mo2_0  1  0.33332500  0.16669550  0.32874150  1
  Mo  Mo2_1  1  0.33332500  0.16669550  0.82874150  1
  Mo  Mo2_2  1  0.33332500  0.66669550  0.32874150  1
  Mo  Mo2_3  1  0.33332500  0.66669550  0.82874150  1
  Mo  Mo2_4  1  0.83332500  0.16669550  0.32874150  1
  Mo  Mo2_5  1  0.83332500  0.16669550  0.82874150  1
  Mo  Mo2_6  1  0.83332500  0.66669550  0.32874150  1
  Mo  Mo2_7  1  0.83332500  0.66669550  0.82874150  1
  W  W0_0  1  0.33337500  0.16671350  0.13719650  1
  W  W0_1  1  0.33337500  0.16671350  0.63719650  1
  W  W0_2  1  0.33337500  0.66671350  0.13719650  1
  W  W0_3  1  0.33337500  0.66671350  0.63719650  1
  W  W0_4  1  0.83337500  0.16671350  0.13719650  1
  W  W0_5  1  0.83337500  0.16671350  0.63719650  1
  W  W0_6  1  0.83337500  0.66671350  0.13719650  1
  W  W0_7  1  0.83337500  0.66671350  0.63719650  1
  Se  Se0_0  1  0.33322700  0.16653600  0.02894650  1
  Se  Se0_1  1  0.33322700  0.16653600  0.52894650  1
  Se  Se0_2  1  0.33322700  0.66653600  0.02894650  1
  Se  Se0_3  1  0.33322700  0.66653600  0.52894650  1
  Se  Se0_4  1  0.83322700  0.16653600  0.02894650  1
  Se  Se0_5  1  0.83322700  0.16653600  0.52894650  1
  Se  Se0_6  1  0.83322700  0.66653600  0.02894650  1
  Se  Se0_7  1  0.83322700  0.66653600  0.52894650  1
  Se  Se1_0  1  0.33339650  0.16671200  0.06502500  1
  Se  Se1_1  1  0.33339650  0.16671200  0.56502500  1
  Se  Se1_2  1  0.33339650  0.66671200  0.06502500  1
  Se  Se1_3  1  0.33339650  0.66671200  0.56502500  1
  Se  Se1_4  1  0.83339650  0.16671200  0.06502500  1
  Se  Se1_5  1  0.83339650  0.16671200  0.56502500  1
  Se  Se1_6  1  0.83339650  0.66671200  0.06502500  1
  Se  Se1_7  1  0.83339650  0.66671200  0.56502500  1
  S  S0_0  1  0.33307050  0.16645350  0.22176550  1
  S  S0_1  1  0.33307050  0.16645350  0.72176550  1
  S  S0_2  1  0.33307050  0.66645350  0.22176550  1
  S  S0_3  1  0.33307050  0.66645350  0.72176550  1
  S  S0_4  1  0.83307050  0.16645350  0.22176550  1
  S  S0_5  1  0.83307050  0.16645350  0.72176550  1
  S  S0_6  1  0.83307050  0.66645350  0.22176550  1
  S  S0_7  1  0.83307050  0.66645350  0.72176550  1
  S  S1_0  1  0.33312300  0.16655750  0.25466750  1
  S  S1_1  1  0.33312300  0.16655750  0.75466750  1
  S  S1_2  1  0.33312300  0.66655750  0.25466750  1
  S  S1_3  1  0.33312300  0.66655750  0.75466750  1
  S  S1_4  1  0.83312300  0.16655750  0.25466750  1
  S  S1_5  1  0.83312300  0.16655750  0.75466750  1
  S  S1_6  1  0.83312300  0.66655750  0.25466750  1
  S  S1_7  1  0.83312300  0.66655750  0.75466750  1
loop_
_geom_bond_atom_site_label_1
_geom_bond_atom_site_label_2
_geom_bond_distance
_geom_bond_site_symmetry_2
Mg0_0 S0_0 3.188567 1_555
Mg0_0 S0_4 3.192112 1_455
Mg0_0 S0_6 3.193093 1_445
Mg0_0 Mg0_4 3.399811 1_455
Mg0_0 Mg0_4 3.399811 1_555
Mg0_0 Mg0_6 3.399926 1_555
Mg0_0 Mg0_6 3.399926 1_445
Mg0_0 Mg0_2 3.400145 1_545
Mg0_0 Mg0_2 3.400145 1_555
Mg0_1 S0_1 3.188567 1_555
Mg0_1 S0_5 3.192112 1_455
Mg0_1 S0_7 3.193093 1_445
Mg0_1 Mg0_5 3.399811 1_455
Mg0_1 Mg0_5 3.399811 1_555
Mg0_1 Mg0_7 3.399926 1_555
Mg0_1 Mg0_7 3.399926 1_445
Mg0_1 Mg0_3 3.400145 1_545
Mg0_1 Mg0_3 3.400145 1_555
Mg0_2 S0_2 3.188567 1_555
Mg0_2 S0_6 3.192112 1_455
Mg0_2 S0_4 3.193093 1_455
Mg0_2 Mg0_6 3.399811 1_455
Mg0_2 Mg0_6 3.399811 1_555
Mg0_2 Mg0_4 3.399926 1_455
Mg0_2 Mg0_4 3.399926 1_565
Mg0_3 S0_3 3.188567 1_555
Mg0_3 S0_7 3.192112 1_455
Mg0_3 S0_5 3.193093 1_455
Mg0_3 Mg0_7 3.399811 1_455
Mg0_3 Mg0_7 3.399811 1_555
Mg0_3 Mg0_5 3.399926 1_455
Mg0_3 Mg0_5 3.399926 1_565
Mg0_4 S0_4 3.188567 1_555
Mg0_4 S0_0 3.192112 1_555
Mg0_4 S0_2 3.193093 1_545
Mg0_4 Mg0_6 3.400145 1_555
Mg0_4 Mg0_6 3.400145 1_545
Mg0_5 S0_5 3.188567 1_555
Mg0_5 S0_1 3.192112 1_555
Mg0_5 S0_3 3.193093 1_545
Mg0_5 Mg0_7 3.400145 1_555
Mg0_5 Mg0_7 3.400145 1_545
Mg0_6 S0_6 3.188567 1_555
Mg0_6 S0_2 3.192112 1_555
Mg0_6 S0_0 3.193093 1_555
Mg0_7 S0_7 3.188567 1_555
Mg0_7 S0_3 3.192112 1_555
Mg0_7 S0_1 3.193093 1_555
Te0_0 W0_2 2.726624 1_555
Te0_0 W0_0 2.726933 1_555
Te0_0 W0_4 2.727283 1_455
Te0_1 W0_3 2.726624 1_555
Te0_1 W0_1 2.726933 1_555
Te0_1 W0_5 2.727283 1_455
Te0_2 W0_0 2.726624 1_565
Te0_2 W0_2 2.726933 1_555
Te0_2 W0_6 2.727283 1_455
Te0_3 W0_1 2.726624 1_565
Te0_3 W0_3 2.726933 1_555
Te0_3 W0_7 2.727283 1_455
Te0_4 W0_6 2.726624 1_555
Te0_4 W0_4 2.726933 1_555
Te0_4 W0_0 2.727283 1_555
Te0_5 W0_7 2.726624 1_555
Te0_5 W0_5 2.726933 1_555
Te0_5 W0_1 2.727283 1_555
Te0_6 W0_4 2.726624 1_565
Te0_6 W0_6 2.726933 1_555
Te0_6 W0_2 2.727283 1_555
Te0_7 W0_5 2.726624 1_565
Te0_7 W0_7 2.726933 1_555
Te0_7 W0_3 2.727283 1_555
Te2_0 W0_4 2.718879 1_455
Te2_0 W0_0 2.718899 1_555
Te2_0 W0_2 2.718941 1_555
Te2_1 W0_5 2.718879 1_455
Te2_1 W0_1 2.718899 1_555
Te2_1 W0_3 2.718941 1_555
Te2_2 W0_6 2.718879 1_455
Te2_2 W0_2 2.718899 1_555
Te2_2 W0_0 2.718941 1_565
Te2_3 W0_7 2.718879 1_455
Te2_3 W0_3 2.718899 1_555
Te2_3 W0_1 2.718941 1_565
Te2_4 W0_0 2.718879 1_555
Te2_4 W0_4 2.718899 1_555
Te2_4 W0_6 2.718941 1_555
Te2_5 W0_1 2.718879 1_555
Te2_5 W0_5 2.718899 1_555
Te2_5 W0_7 2.718941 1_555
Te2_6 W0_2 2.718879 1_555
Te2_6 W0_6 2.718899 1_555
Te2_6 W0_4 2.718941 1_565
Te2_7 W0_3 2.718879 1_555
Te2_7 W0_7 2.718899 1_555
Te2_7 W0_5 2.718941 1_565
Mo0_0 Se1_2 2.562644 1_555
Mo0_0 Se1_0 2.562795 1_555
Mo0_0 Se1_4 2.562988 1_455
Mo0_0 Se0_2 2.563029 1_555
Mo0_0 Se0_0 2.563153 1_555
Mo0_0 Se0_4 2.563214 1_455
Mo0_1 Se1_3 2.562644 1_555
Mo0_1 Se1_1 2.562795 1_555
Mo0_1 Se1_5 2.562988 1_455
Mo0_1 Se0_3 2.563029 1_555
Mo0_1 Se0_1 2.563153 1_555
Mo0_1 Se0_5 2.563214 1_455
Mo0_2 Se1_0 2.562644 1_565
Mo0_2 Se1_2 2.562795 1_555
Mo0_2 Se1_6 2.562988 1_455
Mo0_2 Se0_0 2.563029 1_565
Mo0_2 Se0_2 2.563153 1_555
Mo0_2 Se0_6 2.563214 1_455
Mo0_3 Se1_1 2.562644 1_565
Mo0_3 Se1_3 2.562795 1_555
Mo0_3 Se1_7 2.562988 1_455
Mo0_3 Se0_1 2.563029 1_565
Mo0_3 Se0_3 2.563153 1_555
Mo0_3 Se0_7 2.563214 1_455
Mo0_4 Se1_6 2.562644 1_555
Mo0_4 Se1_4 2.562795 1_555
Mo0_4 Se1_0 2.562988 1_555
Mo0_4 Se0_6 2.563029 1_555
Mo0_4 Se0_4 2.563153 1_555
Mo0_4 Se0_0 2.563214 1_555
Mo0_5 Se1_7 2.562644 1_555
Mo0_5 Se1_5 2.562795 1_555
Mo0_5 Se1_1 2.562988 1_555
Mo0_5 Se0_7 2.563029 1_555
Mo0_5 Se0_5 2.563153 1_555
Mo0_5 Se0_1 2.563214 1_555
Mo0_6 Se1_4 2.562644 1_565
Mo0_6 Se1_6 2.562795 1_555
Mo0_6 Se1_2 2.562988 1_555
Mo0_6 Se0_4 2.563029 1_565
Mo0_6 Se0_6 2.563153 1_555
Mo0_6 Se0_2 2.563214 1_555
Mo0_7 Se1_5 2.562644 1_565
Mo0_7 Se1_7 2.562795 1_555
Mo0_7 Se1_3 2.562988 1_555
Mo0_7 Se0_5 2.563029 1_565
Mo0_7 Se0_7 2.563153 1_555
Mo0_7 Se0_3 2.563214 1_555
Mo1_0 S1_0 2.461414 1_555
Mo1_0 S1_2 2.461502 1_555
Mo1_0 S1_4 2.462509 1_455
Mo1_0 S0_0 2.482486 1_555
Mo1_0 S0_2 2.482650 1_555
Mo1_0 S0_4 2.482760 1_455
Mo1_1 S1_1 2.461414 1_555
Mo1_1 S1_3 2.461502 1_555
Mo1_1 S1_5 2.462509 1_455
Mo1_1 S0_1 2.482486 1_555
Mo1_1 S0_3 2.482650 1_555
Mo1_1 S0_5 2.482760 1_455
Mo1_2 S1_2 2.461414 1_555
Mo1_2 S1_0 2.461502 1_565
Mo1_2 S1_6 2.462509 1_455
Mo1_2 S0_2 2.482486 1_555
Mo1_2 S0_0 2.482650 1_565
Mo1_2 S0_6 2.482760 1_455
Mo1_3 S1_3 2.461414 1_555
Mo1_3 S1_1 2.461502 1_565
Mo1_3 S1_7 2.462509 1_455
Mo1_3 S0_3 2.482486 1_555
Mo1_3 S0_1 2.482650 1_565
Mo1_3 S0_7 2.482760 1_455
Mo1_4 S1_4 2.461414 1_555
Mo1_4 S1_6 2.461502 1_555
Mo1_4 S1_0 2.462509 1_555
Mo1_4 S0_4 2.482486 1_555
Mo1_4 S0_6 2.482650 1_555
Mo1_4 S0_0 2.482760 1_555
Mo1_5 S1_5 2.461414 1_555
Mo1_5 S1_7 2.461502 1_555
Mo1_5 S1_1 2.462509 1_555
Mo1_5 S0_5 2.482486 1_555
Mo1_5 S0_7 2.482650 1_555
Mo1_5 S0_1 2.482760 1_555
Mo1_6 S1_6 2.461414 1_555
Mo1_6 S1_4 2.461502 1_565
Mo1_6 S1_2 2.462509 1_555
Mo1_6 S0_6 2.482486 1_555
Mo1_6 S0_4 2.482650 1_565
Mo1_6 S0_2 2.482760 1_555
Mo1_7 S1_7 2.461414 1_555
Mo1_7 S1_5 2.461502 1_565
Mo1_7 S1_3 2.462509 1_555
Mo1_7 S0_7 2.482486 1_555
Mo1_7 S0_5 2.482650 1_565
Mo1_7 S0_3 2.482760 1_555
Mo2_0 Te1_0 2.712534 1_555
Mo2_0 Te1_2 2.712535 1_545
Mo2_0 Te1_4 2.713091 1_555
Mo2_0 Te3_4 2.713133 1_555
Mo2_0 Te3_2 2.713303 1_545
Mo2_0 Te3_0 2.713332 1_555
Mo2_1 Te1_1 2.712534 1_555
Mo2_1 Te1_3 2.712535 1_545
Mo2_1 Te1_5 2.713091 1_555
Mo2_1 Te3_5 2.713133 1_555
Mo2_1 Te3_3 2.713303 1_545
Mo2_1 Te3_1 2.713332 1_555
Mo2_2 Te1_2 2.712534 1_555
Mo2_2 Te1_0 2.712535 1_555
Mo2_2 Te1_6 2.713091 1_555
Mo2_2 Te3_6 2.713133 1_555
Mo2_2 Te3_0 2.713303 1_555
Mo2_2 Te3_2 2.713332 1_555
Mo2_3 Te1_3 2.712534 1_555
Mo2_3 Te1_1 2.712535 1_555
Mo2_3 Te1_7 2.713091 1_555
Mo2_3 Te3_7 2.713133 1_555
Mo2_3 Te3_1 2.713303 1_555
Mo2_3 Te3_3 2.713332 1_555
Mo2_4 Te1_4 2.712534 1_555
Mo2_4 Te1_6 2.712535 1_545
Mo2_4 Te1_0 2.713091 1_655
Mo2_4 Te3_0 2.713133 1_655
Mo2_4 Te3_6 2.713303 1_545
Mo2_4 Te3_4 2.713332 1_555
Mo2_5 Te1_5 2.712534 1_555
Mo2_5 Te1_7 2.712535 1_545
Mo2_5 Te1_1 2.713091 1_655
Mo2_5 Te3_1 2.713133 1_655
Mo2_5 Te3_7 2.713303 1_545
Mo2_5 Te3_5 2.713332 1_555
Mo2_6 Te1_6 2.712534 1_555
Mo2_6 Te1_4 2.712535 1_555
Mo2_6 Te1_2 2.713091 1_655
Mo2_6 Te3_2 2.713133 1_655
Mo2_6 Te3_4 2.713303 1_555
Mo2_6 Te3_6 2.713332 1_555
Mo2_7 Te1_7 2.712534 1_555
Mo2_7 Te1_5 2.712535 1_555
Mo2_7 Te1_3 2.713091 1_655
Mo2_7 Te3_3 2.713133 1_655
Mo2_7 Te3_5 2.713303 1_555
Mo2_7 Te3_7 2.713332 1_555
