# generated using pymatgen
data_Na2YTa3Si4(SO12)2
_symmetry_space_group_name_H-M   'P 1'
_cell_length_a   8.93740640
_cell_length_b   8.97666444
_cell_length_c   23.29353161
_cell_angle_alpha   90.67252375
_cell_angle_beta   90.15562005
_cell_angle_gamma   120.03850860
_symmetry_Int_Tables_number   1
_chemical_formula_structural   Na2YTa3Si4(SO12)2
_chemical_formula_sum   'Na6 Y3 Ta9 Si12 S6 O72'
_cell_volume   1617.60508331
_cell_formula_units_Z   3
loop_
 _symmetry_equiv_pos_site_id
 _symmetry_equiv_pos_as_xyz
  1  'x, y, z'
loop_
 _atom_site_type_symbol
 _atom_site_label
 _atom_site_symmetry_multiplicity
 _atom_site_fract_x
 _atom_site_fract_y
 _atom_site_fract_z
 _atom_site_occupancy
  Na  Na0  1  0.98812640  0.98381113  0.49935780  1
  Na  Na1  1  0.00063862  0.99494748  0.99893329  1
  Na  Na2  1  0.65637383  0.31955816  0.83268916  1
  Na  Na3  1  0.66889155  0.32022671  0.32671893  1
  Na  Na4  1  0.32218835  0.65451170  0.16212099  1
  Na  Na5  1  0.35062570  0.66368198  0.66845313  1
  Y  Y0  1  0.65370067  0.33113028  0.69259955  1
  Y  Y1  1  0.67252384  0.33666164  0.18614056  1
  Y  Y2  1  0.34563995  0.67773005  0.51575187  1
  Ta  Ta0  1  0.99796310  0.00249327  0.35198844  1
  Ta  Ta1  1  0.00549992  0.01453410  0.85931216  1
  Ta  Ta2  1  0.98589471  0.99370613  0.65034077  1
  Ta  Ta3  1  0.02439621  0.01331243  0.14258844  1
  Ta  Ta4  1  0.66232028  0.34600310  0.97593801  1
  Ta  Ta5  1  0.67996484  0.34547551  0.47725060  1
  Ta  Ta6  1  0.32474621  0.66124179  0.01653623  1
  Ta  Ta7  1  0.31943044  0.67789175  0.31056274  1
  Ta  Ta8  1  0.34194304  0.66382184  0.81526627  1
  Si  Si0  1  0.28796474  0.00498028  0.25132954  1
  Si  Si1  1  0.00520494  0.28913152  0.25101359  1
  Si  Si2  1  0.27854895  0.28888667  0.75281968  1
  Si  Si3  1  0.70791506  0.99377705  0.75497878  1
  Si  Si4  1  0.67005035  0.62913162  0.58522786  1
  Si  Si5  1  0.95969799  0.62647389  0.08282565  1
  Si  Si6  1  0.38259918  0.34467854  0.08213832  1
  Si  Si7  1  0.62421658  0.67287338  0.91771023  1
  Si  Si8  1  0.04169551  0.38436744  0.91499829  1
  Si  Si9  1  0.33557678  0.95263488  0.91610332  1
  Si  Si10  1  0.62690697  0.96148455  0.41505919  1
  Si  Si11  1  0.04093753  0.67338936  0.41627807  1
  S  S0  1  0.71018621  0.71949955  0.25117230  1
  S  S1  1  0.00936452  0.72330000  0.75203615  1
  S  S2  1  0.95448524  0.32614568  0.58329128  1
  S  S3  1  0.37059040  0.04644815  0.58238126  1
  S  S4  1  0.66696393  0.03699758  0.08099496  1
  S  S5  1  0.33476532  0.37051097  0.41479644  1
  O  O0  1  0.17660639  0.00513791  0.30620980  1
  O  O1  1  0.81699165  0.80790498  0.30378890  1
  O  O2  1  0.99120317  0.17027025  0.30609494  1
  O  O3  1  0.17703713  0.16550879  0.80696313  1
  O  O4  1  0.98769823  0.80720456  0.80299790  1
  O  O5  1  0.83063532  0.00324193  0.80789758  1
  O  O6  1  0.80215108  0.96471931  0.69471679  1
  O  O7  1  0.16129751  0.18617447  0.69349045  1
  O  O8  1  0.02649282  0.82708526  0.69798093  1
  O  O9  1  0.78877950  0.82153914  0.19946634  1
  O  O10  1  0.02360644  0.18604854  0.19399996  1
  O  O11  1  0.16589258  0.97052925  0.19293430  1
  O  O12  1  0.87507596  0.34717106  0.63448834  1
  O  O13  1  0.47408154  0.12141979  0.63417935  1
  O  O14  1  0.65709637  0.52045210  0.63969380  1
  O  O15  1  0.89620743  0.51915717  0.14017739  1
  O  O16  1  0.63417124  0.10425426  0.13420198  1
  O  O17  1  0.48153980  0.37279771  0.14122793  1
  O  O18  1  0.47193140  0.30630910  0.02602237  1
  O  O19  1  0.83315239  0.52438591  0.02643997  1
  O  O20  1  0.69577395  0.14708329  0.03096375  1
  O  O21  1  0.45934645  0.15234381  0.53063538  1
  O  O22  1  0.69070084  0.52146991  0.52653267  1
  O  O23  1  0.84289454  0.30142294  0.52978443  1
  O  O24  1  0.53124531  0.69924920  0.97300290  1
  O  O25  1  0.16476106  0.47099442  0.97152331  1
  O  O26  1  0.30673718  0.83297256  0.97150129  1
  O  O27  1  0.56603646  0.85271804  0.47187186  1
  O  O28  1  0.29958718  0.43541527  0.46755482  1
  O  O29  1  0.14327274  0.70316745  0.47426707  1
  O  O30  1  0.13422548  0.63668466  0.35982717  1
  O  O31  1  0.49835247  0.85656669  0.35938277  1
  O  O32  1  0.36433066  0.47914115  0.36487551  1
  O  O33  1  0.13639396  0.50189649  0.85925296  1
  O  O34  1  0.36120727  0.85756255  0.85926487  1
  O  O35  1  0.50086341  0.63550167  0.86017161  1
  O  O36  1  0.00704776  0.83117328  0.40287400  1
  O  O37  1  0.82205622  0.99636855  0.40235896  1
  O  O38  1  0.18358479  0.19274709  0.40612009  1
  O  O39  1  0.02570453  0.19349592  0.90928532  1
  O  O40  1  0.16499580  0.97330519  0.90642067  1
  O  O41  1  0.81587783  0.83561024  0.90751646  1
  O  O42  1  0.96512621  0.16308691  0.58711936  1
  O  O43  1  0.19831726  0.03637340  0.58768243  1
  O  O44  1  0.85524398  0.82176719  0.58986115  1
  O  O45  1  0.97076110  0.81776784  0.09101241  1
  O  O46  1  0.82405323  0.01807031  0.08872082  1
  O  O47  1  0.18367968  0.16614151  0.08876281  1
  O  O48  1  0.70157790  0.16667510  0.75042795  1
  O  O49  1  0.46705198  0.31057091  0.75325790  1
  O  O50  1  0.85816266  0.55238797  0.74661181  1
  O  O51  1  0.69578810  0.55046454  0.25017311  1
  O  O52  1  0.84218299  0.31527263  0.25229779  1
  O  O53  1  0.47521391  0.16800090  0.25194872  1
  O  O54  1  0.63871488  0.49756774  0.92458166  1
  O  O55  1  0.85011408  0.35580734  0.92634911  1
  O  O56  1  0.50569515  0.14294895  0.92706897  1
  O  O57  1  0.64089904  0.15172281  0.42662174  1
  O  O58  1  0.49106635  0.34925621  0.42308443  1
  O  O59  1  0.84613023  0.49366763  0.42407630  1
  O  O60  1  0.35058152  0.50559471  0.06990355  1
  O  O61  1  0.15710850  0.66446849  0.06966432  1
  O  O62  1  0.51470709  0.86173231  0.07231447  1
  O  O63  1  0.34263262  0.87121928  0.57724348  1
  O  O64  1  0.50651993  0.65607542  0.58059931  1
  O  O65  1  0.12645416  0.47328383  0.57549103  1
  O  O66  1  0.29661387  0.82220687  0.25768469  1
  O  O67  1  0.53687702  0.70297758  0.25941193  1
  O  O68  1  0.19014418  0.47457109  0.26158680  1
  O  O69  1  0.28593439  0.47520928  0.75792570  1
  O  O70  1  0.16944303  0.71329422  0.75424744  1
  O  O71  1  0.51802328  0.81816502  0.75860495  1
loop_
_geom_bond_atom_site_label_1
_geom_bond_atom_site_label_2
_geom_bond_distance
_geom_bond_site_symmetry_2
Na0 O44 2.515285 1_555
Na0 O43 2.655805 1_665
Na0 O42 2.658461 1_565
Na0 O36 2.668101 1_655
Na0 O37 2.734232 1_555
Na0 O38 2.849951 1_665
Na1 O47 2.608668 1_566
Na1 O41 2.617588 1_455
Na1 O45 2.619028 1_456
Na1 O40 2.670647 1_555
Na1 O46 2.691430 1_466
Na1 O39 2.697705 1_565
Na2 O49 2.477039 1_555
Na2 O48 2.493164 1_555
Na2 O56 2.668425 1_555
Na2 O55 2.694904 1_555
Na2 O54 2.708149 1_555
Na2 O50 2.825822 1_555
Na3 O53 2.335934 1_555
Na3 O52 2.342551 1_555
Na3 O51 2.664567 1_555
Na3 O57 2.733648 1_555
Na3 O59 2.739456 1_555
Na3 O58 2.837727 1_555
Na4 O60 2.596294 1_555
Na4 O61 2.634807 1_555
Na4 O66 2.746275 1_555
Na4 O68 2.750296 1_555
Na4 O62 2.775490 1_555
Na4 O67 2.850314 1_555
Na5 O64 2.498246 1_555
Na5 O71 2.531527 1_555
Na5 O69 2.578811 1_555
Na5 O70 2.744627 1_555
Na5 O65 2.843507 1_555
Na5 O63 2.866197 1_555
O0 Si0 1.622654 1_555
O0 Ta0 1.912775 1_455
O1 S0 1.501843 1_555
O1 Ta0 2.010797 1_565
O2 Si1 1.643053 1_655
O2 Ta0 1.882357 1_555
O3 Si2 1.635039 1_555
O3 Ta1 1.908615 1_555
O4 S1 1.462947 1_655
O4 Ta1 2.203389 1_665
O5 Si3 1.620666 1_545
O5 Ta1 1.927543 1_655
O6 Si3 1.722082 1_555
O6 Ta2 1.849517 1_555
O7 Si2 1.689094 1_555
O7 Ta2 1.921419 1_445
O8 S1 1.537083 1_555
O8 Ta2 2.044586 1_455
O9 S0 1.472876 1_555
O9 Ta3 2.364870 1_665
O10 Si1 1.664847 1_555
O10 Ta3 1.950883 1_555
O11 Si0 1.667465 1_565
O11 Ta3 1.900209 1_565
O12 S2 1.447389 1_555
O12 Y0 2.345518 1_555
O13 S3 1.454613 1_555
O13 Y0 2.207974 1_555
O14 Si4 1.578462 1_555
O14 Y0 2.098951 1_555
O15 Si5 1.588008 1_555
O15 Y1 2.144893 1_555
O16 S4 1.465612 1_555
O16 Y1 2.270717 1_555
O17 Si6 1.581744 1_555
O17 Y1 2.160050 1_555
O18 Si6 1.653812 1_555
O18 Ta4 1.948571 1_554
O19 Si5 1.664344 1_555
O19 Ta4 1.943554 1_554
O20 S4 1.474764 1_555
O20 Ta4 2.346681 1_554
O21 S3 1.504287 1_555
O21 Ta5 2.254188 1_555
O22 Si4 1.728088 1_555
O22 Ta5 1.904723 1_555
O23 S2 1.537044 1_555
O23 Ta5 2.086247 1_555
O24 Si7 1.612747 1_555
O24 Ta6 1.984614 1_556
O25 Si8 1.630910 1_555
O25 Ta6 1.888248 1_556
O26 Si9 1.625607 1_555
O26 Ta6 1.946342 1_556
O27 Si10 1.582089 1_555
O27 Y2 2.084002 1_555
O28 S5 1.455076 1_555
O28 Y2 2.281459 1_555
O29 Si11 1.572447 1_555
O29 Y2 2.160152 1_555
O30 Si11 1.674392 1_555
O30 Ta7 1.897585 1_555
O31 Si10 1.664006 1_555
O31 Ta7 1.949961 1_555
O32 S5 1.463973 1_555
O32 Ta7 2.389915 1_555
O33 Si8 1.630850 1_555
O33 Ta8 1.977187 1_555
O34 Si9 1.644554 1_555
O34 Ta8 1.939606 1_555
O35 Si7 1.653917 1_555
O35 Ta8 1.880366 1_555
O36 Si11 1.623178 1_555
O36 Ta0 1.985925 1_465
O37 Si10 1.638823 1_555
O37 Ta0 1.943278 1_565
O38 S5 1.498392 1_555
O38 Ta0 2.088148 1_455
O39 Si8 1.650219 1_555
O39 Ta1 1.906025 1_555
O40 Si9 1.640695 1_555
O40 Ta1 1.975424 1_565
O41 Si7 1.621644 1_555
O41 Ta1 2.010003 1_665
O42 S2 1.517191 1_555
O42 Ta2 2.201960 1_545
O43 S3 1.501970 1_555
O43 Ta2 2.276279 1_445
O44 Si4 1.694279 1_555
O44 Ta2 1.966222 1_555
O45 Si5 1.678416 1_555
O45 Ta3 1.964505 1_665
O46 S4 1.506835 1_555
O46 Ta3 2.201803 1_655
O47 Si6 1.705207 1_555
O47 Ta3 1.890890 1_555
O48 Si3 1.585917 1_545
O48 Y0 2.202929 1_555
O49 Si2 1.596197 1_555
O49 Y0 2.126952 1_555
O50 S1 1.454230 1_655
O50 Y0 2.272041 1_555
O51 S0 1.457115 1_555
O51 Y1 2.341582 1_555
O52 Si1 1.587815 1_655
O52 Y1 2.235304 1_555
O53 Si0 1.577939 1_555
O53 Y1 2.268906 1_555
O54 Si7 1.651897 1_555
O54 Ta4 1.910723 1_555
O55 Si8 1.622335 1_655
O55 Ta4 2.005998 1_555
O56 Si9 1.637882 1_545
O56 Ta4 1.991446 1_555
O57 Si10 1.667229 1_545
O57 Ta5 1.969610 1_555
O58 S5 1.513709 1_555
O58 Ta5 2.118990 1_555
O59 Si11 1.692195 1_655
O59 Ta5 1.892111 1_555
O60 Si6 1.634842 1_555
O60 Ta6 1.978128 1_555
O61 Si5 1.651103 1_455
O61 Ta6 1.956979 1_555
O62 S4 1.488458 1_565
O62 Ta6 2.164161 1_555
O63 S3 1.467282 1_565
O63 Y2 2.248931 1_555
O64 Si4 1.599962 1_555
O64 Y2 2.159121 1_555
O65 S2 1.454148 1_455
O65 Y2 2.370107 1_555
O66 Si0 1.688901 1_565
O66 Ta7 1.880830 1_555
O67 S0 1.493426 1_555
O67 Ta7 2.197252 1_555
O68 Si1 1.672479 1_555
O68 Ta7 1.949447 1_555
O69 Si2 1.643382 1_555
O69 Ta8 1.998992 1_555
O70 S1 1.478494 1_555
O70 Ta8 2.298405 1_555
O71 Si3 1.642525 1_555
O71 Ta8 2.002354 1_555
