# generated using pymatgen
data_TaNiGe
_symmetry_space_group_name_H-M   'P 1'
_cell_length_a   3.75179829
_cell_length_b   6.26086406
_cell_length_c   7.15151676
_cell_angle_alpha   90.00000000
_cell_angle_beta   90.00000000
_cell_angle_gamma   90.00000000
_symmetry_Int_Tables_number   1
_chemical_formula_structural   TaNiGe
_chemical_formula_sum   'Ta4 Ni4 Ge4'
_cell_volume   167.98554631
_cell_formula_units_Z   4
loop_
 _symmetry_equiv_pos_site_id
 _symmetry_equiv_pos_as_xyz
  1  'x, y, z'
loop_
 _atom_site_type_symbol
 _atom_site_label
 _atom_site_symmetry_multiplicity
 _atom_site_fract_x
 _atom_site_fract_y
 _atom_site_fract_z
 _atom_site_occupancy
  Ta  Ta0  1  0.25000000  0.51443858  0.67685947  1
  Ta  Ta1  1  0.25000000  0.01443858  0.82314053  1
  Ta  Ta2  1  0.75000000  0.98556142  0.17685947  1
  Ta  Ta3  1  0.75000000  0.48556142  0.32314053  1
  Ni  Ni0  1  0.75000000  0.83635761  0.57406014  1
  Ni  Ni1  1  0.25000000  0.16364239  0.42593986  1
  Ni  Ni2  1  0.75000000  0.33635761  0.92593986  1
  Ni  Ni3  1  0.25000000  0.66364239  0.07406014  1
  Ge  Ge0  1  0.75000000  0.71452527  0.88702371  1
  Ge  Ge1  1  0.25000000  0.78547473  0.38702371  1
  Ge  Ge2  1  0.25000000  0.28547473  0.11297629  1
  Ge  Ge3  1  0.75000000  0.21452527  0.61297629  1
loop_
_geom_bond_atom_site_label_1
_geom_bond_atom_site_label_2
_geom_bond_distance
_geom_bond_site_symmetry_2
Ni0 Ta1 2.816936 1_565
Ni0 Ta1 2.816936 1_665
Ni0 Ta3 2.836150 1_555
Ni0 Ta0 2.849856 1_555
Ni0 Ta0 2.849856 1_655
Ni0 Ta2 2.990245 1_555
Ni1 Ta2 2.816936 1_545
Ni1 Ta2 2.816936 1_445
Ni1 Ta0 2.836150 1_555
Ni1 Ta3 2.849856 1_455
Ni1 Ta3 2.849856 1_555
Ni1 Ta1 2.990245 1_555
Ni2 Ta0 2.816936 1_555
Ni2 Ta0 2.816936 1_655
Ni2 Ta2 2.836150 1_546
Ni2 Ta1 2.849856 1_655
Ni2 Ta1 2.849856 1_555
Ni2 Ta3 2.990245 1_556
Ni3 Ta3 2.816936 1_455
Ni3 Ta3 2.816936 1_555
Ni3 Ta1 2.836150 1_564
Ni3 Ta2 2.849856 1_455
Ni3 Ta2 2.849856 1_555
Ni3 Ta0 2.990245 1_554
Ge0 Ni3 2.325864 1_656
Ge0 Ni3 2.325864 1_556
Ge0 Ni0 2.364573 1_555
Ge0 Ni2 2.383957 1_555
Ge0 Ta2 2.678786 1_556
Ge0 Ta1 2.693240 1_565
Ge0 Ta1 2.693240 1_665
Ge0 Ta0 2.710587 1_555
Ge0 Ta0 2.710587 1_655
Ge1 Ni0 2.325864 1_455
Ge1 Ni0 2.325864 1_555
Ge1 Ni3 2.364573 1_555
Ge1 Ni1 2.383957 1_565
Ge1 Ta0 2.678786 1_555
Ge1 Ta3 2.693240 1_455
Ge1 Ta3 2.693240 1_555
Ge1 Ta2 2.710587 1_555
Ge1 Ta2 2.710587 1_455
Ge2 Ni2 2.325864 1_554
Ge2 Ni2 2.325864 1_454
Ge2 Ni1 2.364573 1_555
Ge2 Ni3 2.383957 1_555
Ge2 Ta1 2.678786 1_554
Ge2 Ta2 2.693240 1_545
Ge2 Ta2 2.693240 1_445
Ge2 Ta3 2.710587 1_455
Ge2 Ta3 2.710587 1_555
Ge3 Ni1 2.325864 1_555
Ge3 Ni1 2.325864 1_655
Ge3 Ni2 2.364573 1_555
Ge3 Ni0 2.383957 1_545
Ge3 Ta3 2.678786 1_555
Ge3 Ta0 2.693240 1_655
Ge3 Ta0 2.693240 1_555
Ge3 Ta1 2.710587 1_655
Ge3 Ta1 2.710587 1_555
