# generated using pymatgen
data_Li2Cr(PO3)4
_symmetry_space_group_name_H-M   'P 1'
_cell_length_a   8.50311960
_cell_length_b   8.50311960
_cell_length_c   7.46071743
_cell_angle_alpha   88.36629069
_cell_angle_beta   88.36629069
_cell_angle_gamma   114.59449180
_symmetry_Int_Tables_number   1
_chemical_formula_structural   Li2Cr(PO3)4
_chemical_formula_sum   'Li4 Cr2 P8 O24'
_cell_volume   489.80979312
_cell_formula_units_Z   2
loop_
 _symmetry_equiv_pos_site_id
 _symmetry_equiv_pos_as_xyz
  1  'x, y, z'
loop_
 _atom_site_type_symbol
 _atom_site_label
 _atom_site_symmetry_multiplicity
 _atom_site_fract_x
 _atom_site_fract_y
 _atom_site_fract_z
 _atom_site_occupancy
  Li  Li0  1  0.50251200  0.82000600  0.31250400  1
  Li  Li1  1  0.49748800  0.17999400  0.68749600  1
  Li  Li2  1  0.17999400  0.49748800  0.18749600  1
  Li  Li3  1  0.82000600  0.50251200  0.81250400  1
  Cr  Cr0  1  0.12863800  0.87136200  0.75000000  1
  Cr  Cr1  1  0.87136200  0.12863800  0.25000000  1
  P  P0  1  0.22149100  0.56242400  0.61321200  1
  P  P1  1  0.22846800  0.07155300  0.31653500  1
  P  P2  1  0.92844700  0.77153200  0.18346500  1
  P  P3  1  0.77153200  0.92844700  0.68346500  1
  P  P4  1  0.77850900  0.43757600  0.38678800  1
  P  P5  1  0.43757600  0.77850900  0.88678800  1
  P  P6  1  0.56242400  0.22149100  0.11321200  1
  P  P7  1  0.07155300  0.22846800  0.81653500  1
  O  O0  1  0.37925000  0.91563800  0.82025000  1
  O  O1  1  0.16666700  0.11388000  0.82523200  1
  O  O2  1  0.83333300  0.88612000  0.17476800  1
  O  O3  1  0.88612000  0.83333300  0.67476800  1
  O  O4  1  0.93779600  0.67468900  0.02194200  1
  O  O5  1  0.67468900  0.93779600  0.52194200  1
  O  O6  1  0.84822400  0.64204000  0.35787800  1
  O  O7  1  0.64204000  0.84822400  0.85787800  1
  O  O8  1  0.91563800  0.37925000  0.32025000  1
  O  O9  1  0.87759300  0.12240700  0.75000000  1
  O  O10  1  0.38904300  0.70529300  0.07512800  1
  O  O11  1  0.62261400  0.37738600  0.25000000  1
  O  O12  1  0.12240700  0.87759300  0.25000000  1
  O  O13  1  0.06220400  0.32531100  0.97805800  1
  O  O14  1  0.29470700  0.61095700  0.42487200  1
  O  O15  1  0.11388000  0.16666700  0.32523200  1
  O  O16  1  0.37738600  0.62261400  0.75000000  1
  O  O17  1  0.61095700  0.29470700  0.92487200  1
  O  O18  1  0.62075000  0.08436200  0.17975000  1
  O  O19  1  0.08436200  0.62075000  0.67975000  1
  O  O20  1  0.35796000  0.15177600  0.14212200  1
  O  O21  1  0.15177600  0.35796000  0.64212200  1
  O  O22  1  0.32531100  0.06220400  0.47805800  1
  O  O23  1  0.70529300  0.38904300  0.57512800  1
loop_
_geom_bond_atom_site_label_1
_geom_bond_atom_site_label_2
_geom_bond_distance
_geom_bond_site_symmetry_2
Li0 O14 2.049612 1_555
Li0 O10 2.105073 1_555
Li0 O5 2.141792 1_555
Li0 O18 2.231529 1_565
Li1 O23 2.049612 1_555
Li1 O17 2.105073 1_555
Li1 O22 2.141792 1_555
Li1 O0 2.231529 1_545
Li2 O10 2.049612 1_555
Li2 O14 2.105073 1_555
Li2 O13 2.141792 1_554
Li2 O8 2.231529 1_455
Li3 O17 2.049612 1_555
Li3 O23 2.105073 1_555
Li3 O4 2.141792 1_556
Li3 O19 2.231529 1_655
Cr0 O3 2.047778 1_455
Cr0 O1 2.047778 1_565
Cr0 O19 2.089176 1_555
Cr0 O0 2.089176 1_555
Cr0 O4 2.627980 1_456
Cr0 O22 2.627980 1_565
Cr1 O2 2.047778 1_545
Cr1 O15 2.047778 1_655
Cr1 O18 2.089176 1_555
Cr1 O8 2.089176 1_555
Cr1 O13 2.627980 1_654
Cr1 O5 2.627980 1_545
O0 P5 1.521319 1_555
O1 P7 1.504330 1_555
O2 P2 1.504330 1_555
O3 P3 1.504330 1_555
O4 P2 1.497411 1_555
O5 P3 1.497411 1_555
O6 P4 1.591869 1_555
O6 P2 1.616613 1_555
O7 P5 1.591869 1_555
O7 P3 1.616613 1_555
O8 P4 1.521319 1_555
O9 P3 1.616770 1_545
O9 P7 1.616770 1_655
O10 P5 1.495173 1_554
O11 P6 1.613328 1_555
O11 P4 1.613328 1_555
O12 P2 1.616770 1_455
O12 P1 1.616770 1_565
O13 P7 1.497411 1_555
O14 P0 1.495173 1_555
O15 P1 1.504330 1_555
O16 P5 1.613328 1_555
O16 P0 1.613328 1_555
O17 P6 1.495173 1_556
O18 P6 1.521319 1_555
O19 P0 1.521319 1_555
O20 P6 1.591869 1_555
O20 P1 1.616613 1_555
O21 P0 1.591869 1_555
O21 P7 1.616613 1_555
O22 P1 1.497411 1_555
O23 P4 1.495173 1_555
