# generated using pymatgen
data_MgZn2(FeS2)4
_symmetry_space_group_name_H-M   'P 1'
_cell_length_a   7.10088134
_cell_length_b   6.75525515
_cell_length_c   6.74747997
_cell_angle_alpha   59.85073668
_cell_angle_beta   61.63389276
_cell_angle_gamma   61.58413971
_symmetry_Int_Tables_number   1
_chemical_formula_structural   MgZn2(FeS2)4
_chemical_formula_sum   'Mg1 Zn2 Fe4 S8'
_cell_volume   233.99714213
_cell_formula_units_Z   1
loop_
 _symmetry_equiv_pos_site_id
 _symmetry_equiv_pos_as_xyz
  1  'x, y, z'
loop_
 _atom_site_type_symbol
 _atom_site_label
 _atom_site_symmetry_multiplicity
 _atom_site_fract_x
 _atom_site_fract_y
 _atom_site_fract_z
 _atom_site_occupancy
  Mg  Mg0  1  0.50000000  0.00000000  0.00000000  1
  Zn  Zn0  1  0.93791000  0.85395000  0.85419700  1
  Zn  Zn1  1  0.06209100  0.14605000  0.14580300  1
  Fe  Fe0  1  0.50000000  0.50000000  0.50000000  1
  Fe  Fe1  1  0.50000100  0.49999900  0.00000000  1
  Fe  Fe2  1  0.00000100  0.50000000  0.50000000  1
  Fe  Fe3  1  0.49999900  0.99999900  0.50000100  1
  S  S0  1  0.74108700  0.73449300  0.73465600  1
  S  S1  1  0.25989800  0.26491100  0.70985800  1
  S  S2  1  0.25932900  0.71007600  0.26496700  1
  S  S3  1  0.68390100  0.27224700  0.27270600  1
  S  S4  1  0.74067300  0.28992400  0.73503300  1
  S  S5  1  0.31609900  0.72775100  0.72729600  1
  S  S6  1  0.25891300  0.26550700  0.26534400  1
  S  S7  1  0.74010200  0.73508900  0.29014200  1
loop_
_geom_bond_atom_site_label_1
_geom_bond_atom_site_label_2
_geom_bond_distance
_geom_bond_site_symmetry_2
Mg0 S1 2.586607 1_554
Mg0 S7 2.586607 1_545
Mg0 S2 2.591854 1_545
Mg0 S4 2.591864 1_554
Mg0 S0 2.596945 1_544
Mg0 S6 2.596945 1_555
Mg0 Zn1 2.599775 1_555
Mg0 Zn0 2.599781 1_544
Fe0 S5 2.231485 1_555
Fe0 S3 2.231485 1_555
Fe0 S2 2.335789 1_555
Fe0 S4 2.335800 1_555
Fe0 S1 2.336221 1_555
Fe0 S7 2.336221 1_555
Fe1 S5 2.232830 1_554
Fe1 S3 2.232831 1_555
Fe1 S0 2.337752 1_554
Fe1 S6 2.337753 1_555
Fe1 S4 2.338393 1_554
Fe1 S2 2.338402 1_555
Fe2 S1 2.316863 1_555
Fe2 S7 2.316874 1_455
Fe2 S2 2.317622 1_555
Fe2 S4 2.317622 1_455
Fe2 S6 2.319039 1_555
Fe2 S0 2.319041 1_455
Fe3 S5 2.233621 1_555
Fe3 S3 2.233631 1_565
Fe3 S6 2.335647 1_565
Fe3 S0 2.335647 1_555
Fe3 S1 2.337092 1_565
Fe3 S7 2.337092 1_555
S0 Zn0 2.460393 1_555
S1 Zn1 2.458683 1_556
S2 Zn1 2.459145 1_565
S3 Zn1 2.245251 1_655
S4 Zn0 2.459144 1_545
S5 Zn0 2.245245 1_455
S6 Zn1 2.460387 1_555
S7 Zn0 2.458685 1_554
