# generated using pymatgen
data_EuPd3S4
_symmetry_space_group_name_H-M   'P 1'
_cell_length_a   6.70970292
_cell_length_b   6.70973062
_cell_length_c   6.70971474
_cell_angle_alpha   90.00000000
_cell_angle_beta   90.00000000
_cell_angle_gamma   90.00026574
_symmetry_Int_Tables_number   1
_chemical_formula_structural   EuPd3S4
_chemical_formula_sum   'Eu2 Pd6 S8'
_cell_volume   302.07336469
_cell_formula_units_Z   2
loop_
 _symmetry_equiv_pos_site_id
 _symmetry_equiv_pos_as_xyz
  1  'x, y, z'
loop_
 _atom_site_type_symbol
 _atom_site_label
 _atom_site_symmetry_multiplicity
 _atom_site_fract_x
 _atom_site_fract_y
 _atom_site_fract_z
 _atom_site_occupancy
  Eu  Eu0  1  0.50000000  0.50000000  0.50000000  1
  Eu  Eu1  1  -0.00000000  -0.00000000  -0.00000000  1
  Pd  Pd0  1  0.74999939  0.00000100  0.50000000  1
  Pd  Pd1  1  0.49999900  0.74999762  -0.00000000  1
  Pd  Pd2  1  -0.00000000  0.50000000  0.74999614  1
  Pd  Pd3  1  -0.00000000  0.50000000  0.25000386  1
  Pd  Pd4  1  0.25000061  0.99999900  0.50000000  1
  Pd  Pd5  1  0.50000100  0.25000238  -0.00000000  1
  S  S0  1  0.74999268  0.25000866  0.25001028  1
  S  S1  1  0.25000632  0.25000866  0.74998972  1
  S  S2  1  0.25000732  0.74999134  0.25001028  1
  S  S3  1  0.74999368  0.74999134  0.74998972  1
  S  S4  1  0.25000732  0.74999134  0.74998972  1
  S  S5  1  0.74999368  0.74999134  0.25001028  1
  S  S6  1  0.25000632  0.25000866  0.25001028  1
  S  S7  1  0.74999268  0.25000866  0.74998972  1
loop_
_geom_bond_atom_site_label_1
_geom_bond_atom_site_label_2
_geom_bond_distance
_geom_bond_site_symmetry_2
Eu0 S6 2.905290 1_555
Eu0 S3 2.905290 1_555
Eu0 S1 2.905290 1_555
Eu0 S5 2.905290 1_555
Eu0 S7 2.905295 1_555
Eu0 S0 2.905295 1_555
Eu0 S4 2.905295 1_555
Eu0 S2 2.905295 1_555
Eu1 S5 2.905486 1_445
Eu1 S6 2.905486 1_555
Eu1 S1 2.905486 1_554
Eu1 S3 2.905486 1_444
Eu1 S0 2.905499 1_455
Eu1 S2 2.905499 1_545
Eu1 S4 2.905499 1_544
Eu1 S7 2.905499 1_454
Pd0 S7 2.372233 1_555
Pd0 S0 2.372233 1_555
Pd0 S5 2.372242 1_545
Pd0 S3 2.372242 1_545
Pd1 S2 2.372250 1_555
Pd1 S4 2.372250 1_554
Pd1 S5 2.372264 1_555
Pd1 S3 2.372264 1_554
Pd2 S7 2.372231 1_455
Pd2 S4 2.372231 1_555
Pd2 S3 2.372238 1_455
Pd2 S1 2.372238 1_555
Pd3 S2 2.372231 1_555
Pd3 S0 2.372231 1_455
Pd3 S5 2.372238 1_455
Pd3 S6 2.372238 1_555
Pd4 S4 2.372233 1_555
Pd4 S2 2.372233 1_555
Pd4 S1 2.372242 1_565
Pd4 S6 2.372242 1_565
Pd5 S0 2.372250 1_555
Pd5 S7 2.372250 1_554
Pd5 S6 2.372264 1_555
Pd5 S1 2.372264 1_554
