# generated using pymatgen
data_Na7Ca2Ta2Si3(PO8)3
_symmetry_space_group_name_H-M   'P 1'
_cell_length_a   9.26382846
_cell_length_b   9.26627940
_cell_length_c   22.58206818
_cell_angle_alpha   90.07438172
_cell_angle_beta   89.96849221
_cell_angle_gamma   119.89189708
_symmetry_Int_Tables_number   1
_chemical_formula_structural   Na7Ca2Ta2Si3(PO8)3
_chemical_formula_sum   'Na21 Ca6 Ta6 Si9 P9 O72'
_cell_volume   1680.59058715
_cell_formula_units_Z   3
loop_
 _symmetry_equiv_pos_site_id
 _symmetry_equiv_pos_as_xyz
  1  'x, y, z'
loop_
 _atom_site_type_symbol
 _atom_site_label
 _atom_site_symmetry_multiplicity
 _atom_site_fract_x
 _atom_site_fract_y
 _atom_site_fract_z
 _atom_site_occupancy
  Na  Na0  1  0.62529323  0.98484933  0.25990426  1
  Na  Na1  1  0.34662386  0.36732656  0.25510600  1
  Na  Na2  1  0.02976901  0.65305530  0.25472139  1
  Na  Na3  1  0.65612450  0.62766440  0.74546397  1
  Na  Na4  1  0.98291426  0.35495506  0.74023291  1
  Na  Na5  1  0.36785082  0.01878582  0.74167083  1
  Na  Na6  1  0.00712401  0.66824762  0.58539071  1
  Na  Na7  1  0.67143338  0.00011473  0.58325309  1
  Na  Na8  1  0.27077807  0.94077427  0.08710285  1
  Na  Na9  1  0.66846176  0.71767036  0.07721350  1
  Na  Na10  1  0.05431527  0.33699224  0.08843576  1
  Na  Na11  1  0.98308315  0.68712960  0.90701645  1
  Na  Na12  1  0.31935337  0.29461782  0.90781246  1
  Na  Na13  1  0.95799597  0.30992541  0.42840928  1
  Na  Na14  1  0.35665660  0.03397914  0.42479988  1
  Na  Na15  1  0.00276716  0.00400400  0.50213805  1
  Na  Na16  1  0.97434978  0.98297005  0.99424840  1
  Na  Na17  1  0.66791828  0.33095320  0.82071493  1
  Na  Na18  1  0.66583387  0.33994855  0.34756757  1
  Na  Na19  1  0.31711575  0.66745253  0.17258564  1
  Na  Na20  1  0.32621430  0.65223806  0.66295125  1
  Ca  Ca0  1  0.99370708  0.99776842  0.85124407  1
  Ca  Ca1  1  0.99869894  0.99723568  0.14411923  1
  Ca  Ca2  1  0.66574253  0.33521286  0.67360113  1
  Ca  Ca3  1  0.66083786  0.33410856  0.49032565  1
  Ca  Ca4  1  0.33408958  0.66867813  0.02248681  1
  Ca  Ca5  1  0.33577579  0.66820273  0.32008091  1
  Ta  Ta0  1  0.99834193  0.00237316  0.35053835  1
  Ta  Ta1  1  0.00953548  0.00441314  0.65209847  1
  Ta  Ta2  1  0.67018056  0.33310157  0.19103685  1
  Ta  Ta3  1  0.66949460  0.33701010  0.97503458  1
  Ta  Ta4  1  0.33852595  0.66816234  0.51382099  1
  Ta  Ta5  1  0.33640456  0.66723208  0.81576976  1
  Si  Si0  1  0.29816407  0.00512079  0.24617244  1
  Si  Si1  1  0.99651092  0.29403197  0.24544301  1
  Si  Si2  1  0.29957061  0.30236964  0.75620391  1
  Si  Si3  1  0.00342293  0.69894874  0.75492525  1
  Si  Si4  1  0.98536192  0.33361743  0.58257072  1
  Si  Si5  1  0.35100917  0.01607344  0.58184932  1
  Si  Si6  1  0.94883882  0.61619743  0.08301270  1
  Si  Si7  1  0.62901797  0.66394018  0.92245521  1
  Si  Si8  1  0.64082562  0.96848740  0.41197523  1
  P  P0  1  0.71177554  0.70130604  0.24785314  1
  P  P1  1  0.69838648  0.99292822  0.75100263  1
  P  P2  1  0.66945579  0.65308012  0.58661650  1
  P  P3  1  0.66416477  0.05641824  0.08299157  1
  P  P4  1  0.38938838  0.33234382  0.08299627  1
  P  P5  1  0.03618908  0.37949512  0.91936446  1
  P  P6  1  0.34465182  0.96606275  0.91947571  1
  P  P7  1  0.32500207  0.36115223  0.41099201  1
  P  P8  1  0.03724823  0.67590715  0.41362698  1
  O  O0  1  0.18949295  0.02544830  0.30453199  1
  O  O1  1  0.83594313  0.80500574  0.30074877  1
  O  O2  1  0.97194768  0.16063246  0.30296992  1
  O  O3  1  0.22860024  0.20760173  0.81651876  1
  O  O4  1  0.97507430  0.77092137  0.81462898  1
  O  O5  1  0.80057508  0.02396003  0.80542211  1
  O  O6  1  0.78700121  0.96677816  0.69526862  1
  O  O7  1  0.16142651  0.18545674  0.70183211  1
  O  O8  1  0.01779480  0.82779758  0.69865088  1
  O  O9  1  0.77745922  0.79349069  0.19005575  1
  O  O10  1  0.01860119  0.21899155  0.18515633  1
  O  O11  1  0.19527321  0.97567599  0.18653216  1
  O  O12  1  0.92719686  0.39652194  0.63978806  1
  O  O13  1  0.46823487  0.07791965  0.63947750  1
  O  O14  1  0.62909866  0.55899823  0.64484988  1
  O  O15  1  0.83601359  0.50283274  0.14145071  1
  O  O16  1  0.66385851  0.15593443  0.14046707  1
  O  O17  1  0.49129502  0.33153806  0.13883547  1
  O  O18  1  0.49053318  0.33089879  0.02659499  1
  O  O19  1  0.83711894  0.50190329  0.02408455  1
  O  O20  1  0.66247776  0.15967543  0.02856213  1
  O  O21  1  0.41718265  0.12048593  0.52236062  1
  O  O22  1  0.71942390  0.57541210  0.53722024  1
  O  O23  1  0.86013842  0.27922575  0.52704980  1
  O  O24  1  0.54646921  0.66864106  0.98339858  1
  O  O25  1  0.12352257  0.45740608  0.97707471  1
  O  O26  1  0.31978974  0.86944652  0.97620472  1
  O  O27  1  0.52352846  0.83876622  0.46786497  1
  O  O28  1  0.31010096  0.47236917  0.46128457  1
  O  O29  1  0.16392870  0.69213003  0.46519335  1
  O  O30  1  0.10206492  0.65164608  0.35498775  1
  O  O31  1  0.54456490  0.89670326  0.35157520  1
  O  O32  1  0.33542528  0.43775241  0.35120863  1
  O  O33  1  0.13702589  0.50428045  0.86522540  1
  O  O34  1  0.35846890  0.86414053  0.86432881  1
  O  O35  1  0.49664051  0.64259221  0.86441228  1
  O  O36  1  0.04091059  0.84856054  0.41261344  1
  O  O37  1  0.82649650  0.97536882  0.40939930  1
  O  O38  1  0.15173723  0.18681220  0.41234272  1
  O  O39  1  0.01921225  0.21020379  0.91196378  1
  O  O40  1  0.19938448  0.99798710  0.91252460  1
  O  O41  1  0.81888699  0.80632052  0.91772053  1
  O  O42  1  0.99942491  0.16519098  0.59826113  1
  O  O43  1  0.15724922  0.98103932  0.59565682  1
  O  O44  1  0.82070373  0.83618965  0.59414151  1
  O  O45  1  0.95553502  0.79208166  0.07473272  1
  O  O46  1  0.82261474  0.04512078  0.07832358  1
  O  O47  1  0.21856977  0.17579647  0.07759063  1
  O  O48  1  0.66251361  0.13606870  0.74137073  1
  O  O49  1  0.48338705  0.33339677  0.74325471  1
  O  O50  1  0.85215323  0.51147581  0.74503278  1
  O  O51  1  0.71072495  0.52890119  0.24789291  1
  O  O52  1  0.81454966  0.29621924  0.24620405  1
  O  O53  1  0.47924146  0.18960515  0.24548700  1
  O  O54  1  0.62784053  0.47632953  0.91988878  1
  O  O55  1  0.85952669  0.36995800  0.91783668  1
  O  O56  1  0.51120461  0.14052240  0.92046424  1
  O  O57  1  0.67010552  0.15435196  0.42108708  1
  O  O58  1  0.46685433  0.32590995  0.42101949  1
  O  O59  1  0.86603884  0.52803021  0.42615371  1
  O  O60  1  0.37706467  0.49044597  0.08866192  1
  O  O61  1  0.12694213  0.62683222  0.09096841  1
  O  O62  1  0.50653412  0.88643445  0.08863847  1
  O  O63  1  0.31999889  0.82033897  0.56991222  1
  O  O64  1  0.51557708  0.67545383  0.56966947  1
  O  O65  1  0.17307205  0.49187607  0.56508958  1
  O  O66  1  0.33566613  0.85408762  0.25277020  1
  O  O67  1  0.53430107  0.66453230  0.25732018  1
  O  O68  1  0.14809519  0.48015410  0.25357857  1
  O  O69  1  0.30070158  0.48659089  0.75851329  1
  O  O70  1  0.18909497  0.70413008  0.75781256  1
  O  O71  1  0.52386581  0.82210147  0.75719582  1
loop_
_geom_bond_atom_site_label_1
_geom_bond_atom_site_label_2
_geom_bond_distance
_geom_bond_site_symmetry_2
Na0 O31 2.214874 1_555
Na0 O66 2.335060 1_555
Na0 O52 2.540457 1_565
Na0 O67 2.651353 1_555
Na0 O53 2.845561 1_565
Na0 O2 2.949119 1_565
Na1 O32 2.282528 1_555
Na1 O67 2.415990 1_555
Na1 O53 2.506764 1_555
Na1 O68 2.528505 1_555
Na1 O51 2.934553 1_555
Na2 O68 2.349346 1_555
Na2 O30 2.363447 1_555
Na2 O66 2.498171 1_555
Na2 O51 2.587205 1_455
Na2 O52 2.893643 1_455
Na3 O14 2.338364 1_555
Na3 O49 2.376766 1_555
Na3 O50 2.530952 1_555
Na3 O71 2.648809 1_555
Na3 O69 2.889049 1_555
Na4 O50 2.309387 1_555
Na4 O12 2.400304 1_555
Na4 O69 2.597270 1_655
Na4 O48 2.631334 1_555
Na4 O70 2.848212 1_655
Na4 O7 2.921867 1_655
Na5 O48 2.382339 1_555
Na5 O13 2.446163 1_555
Na5 O49 2.556441 1_555
Na5 O70 2.562407 1_545
Na5 O71 2.856767 1_545
Na6 O43 2.523799 1_555
Na6 O63 2.537304 1_555
Na6 O12 2.558470 1_455
Na6 O22 2.596566 1_455
Na6 O65 2.783159 1_555
Na6 O44 2.849693 1_455
Na6 O8 2.929488 1_555
Na6 O29 3.033697 1_555
Na7 O44 2.524849 1_545
Na7 O23 2.618299 1_555
Na7 O64 2.626381 1_545
Na7 O13 2.650083 1_555
Na7 O42 2.655959 1_555
Na7 O6 2.823975 1_545
Na7 O63 2.838848 1_545
Na7 O27 2.975624 1_545
Na8 O11 2.420158 1_555
Na8 O47 2.464540 1_565
Na8 O62 2.474036 1_555
Na8 O61 2.526413 1_555
Na8 O45 2.548379 1_455
Na8 O26 2.684794 1_554
Na9 O24 2.336695 1_554
Na9 O45 2.392321 1_555
Na9 O60 2.474385 1_555
Na9 O46 2.632027 1_565
Na9 O62 2.664391 1_555
Na9 O9 2.701415 1_555
Na10 O10 2.391733 1_555
Na10 O61 2.422334 1_555
Na10 O46 2.487315 1_455
Na10 O60 2.593040 1_555
Na10 O47 2.621155 1_555
Na10 O25 2.696766 1_554
Na11 O4 2.241161 1_555
Na11 O41 2.294632 1_555
Na11 O40 2.564017 1_655
Na11 O55 2.579944 1_555
Na11 O33 2.863196 1_655
Na11 O54 2.885009 1_555
Na12 O3 2.220152 1_555
Na12 O40 2.399469 1_545
Na12 O39 2.486704 1_555
Na12 O54 2.505971 1_555
Na12 O56 2.794690 1_555
Na13 O57 2.320776 1_555
Na13 O23 2.367890 1_555
Na13 O59 2.555220 1_555
Na13 O38 2.587147 1_655
Na13 O37 2.740771 1_545
Na13 O28 2.926167 1_655
Na14 O21 2.315055 1_555
Na14 O58 2.369615 1_555
Na14 O57 2.540584 1_555
Na14 O36 2.563974 1_545
Na14 O38 2.893039 1_555
Na15 O38 2.561556 1_555
Na15 O37 2.587115 1_445
Na15 O36 2.604916 1_545
Na15 O43 2.619397 1_545
Na15 O44 2.640011 1_445
Na15 O42 2.642190 1_455
Na16 O41 2.320718 1_555
Na16 O45 2.482568 1_556
Na16 O46 2.590996 1_566
Na16 O39 2.682564 1_665
Na16 O40 2.734667 1_655
Na16 O47 2.796410 1_666
Na17 O50 2.406355 1_555
Na17 O49 2.454486 1_555
Na17 O48 2.524992 1_555
Na17 O55 2.730256 1_555
Na17 O54 2.730909 1_555
Na17 O56 2.783646 1_555
Na18 O57 2.406429 1_555
Na18 O58 2.433966 1_555
Na18 O59 2.529891 1_555
Na18 O51 2.754701 1_555
Na18 O53 2.799721 1_555
Na18 O52 2.802186 1_555
Na19 O61 2.446053 1_555
Na19 O66 2.448498 1_555
Na19 O68 2.470931 1_555
Na19 O62 2.692133 1_555
Na19 O60 2.736606 1_555
Na19 O67 2.787255 1_555
Na20 O69 2.591379 1_555
Na20 O63 2.634755 1_555
Na20 O65 2.645409 1_555
Na20 O70 2.652687 1_555
Na20 O64 2.679902 1_555
Na20 O71 2.735411 1_555
Ca0 O4 2.183114 1_555
Ca0 O5 2.183149 1_565
Ca0 O3 2.217086 1_665
Ca0 O41 2.272455 1_555
Ca0 O39 2.310985 1_665
Ca0 O40 2.354668 1_655
Ca1 O11 2.153698 1_655
Ca1 O10 2.175503 1_665
Ca1 O9 2.233159 1_555
Ca1 O45 2.337560 1_555
Ca1 O47 2.405710 1_665
Ca1 O46 2.406482 1_565
Ca2 O13 2.296630 1_555
Ca2 O49 2.301509 1_555
Ca2 O12 2.323746 1_555
Ca2 O50 2.331678 1_555
Ca2 O14 2.354188 1_555
Ca2 O48 2.387560 1_555
Ca3 O21 2.255002 1_555
Ca3 O22 2.280468 1_555
Ca3 O23 2.300828 1_555
Ca3 O57 2.315634 1_555
Ca3 O59 2.354057 1_555
Ca3 O58 2.356112 1_555
Ca4 O24 2.156099 1_554
Ca4 O26 2.195841 1_554
Ca4 O25 2.209069 1_554
Ca4 O61 2.341152 1_555
Ca4 O62 2.374229 1_555
Ca4 O60 2.404510 1_555
Ca5 O31 2.155390 1_555
Ca5 O30 2.236010 1_555
Ca5 O32 2.247467 1_555
Ca5 O66 2.299101 1_555
Ca5 O68 2.300192 1_555
Ca5 O67 2.334836 1_555
O0 Si0 1.724138 1_555
O0 Ta0 1.970261 1_455
O1 P0 1.603159 1_555
O1 Ta0 2.031340 1_565
O2 Si1 1.729408 1_555
O2 Ta0 1.930286 1_555
O3 Si2 1.576449 1_555
O4 Si3 1.582191 1_655
O5 P1 1.489326 1_545
O6 P1 1.585244 1_555
O6 Ta1 2.145682 1_665
O7 Si2 1.713285 1_555
O7 Ta1 1.923436 1_555
O8 Si3 1.703956 1_555
O8 Ta1 1.979572 1_565
O9 P0 1.512409 1_555
O10 Si1 1.586775 1_455
O11 Si0 1.593135 1_565
O12 Si4 1.615524 1_555
O13 Si5 1.606420 1_555
O14 P2 1.518771 1_555
O15 Si6 1.686749 1_555
O15 Ta2 1.918840 1_555
O16 P3 1.591993 1_555
O16 Ta2 1.975351 1_555
O17 P4 1.577868 1_555
O17 Ta2 2.028345 1_555
O18 P4 1.584764 1_555
O18 Ta3 2.002971 1_554
O19 Si6 1.693793 1_555
O19 Ta3 1.898795 1_554
O20 P3 1.563479 1_555
O20 Ta3 2.015974 1_554
O21 Si5 1.589920 1_555
O22 P2 1.518521 1_555
O23 Si4 1.609003 1_555
O24 Si7 1.585112 1_555
O25 P5 1.513496 1_555
O26 P6 1.514200 1_555
O27 Si8 1.708533 1_555
O27 Ta4 1.953245 1_555
O28 P7 1.584155 1_555
O28 Ta4 2.070508 1_555
O29 P8 1.606556 1_555
O29 Ta4 2.057162 1_555
O30 P8 1.515741 1_555
O31 Si8 1.582971 1_555
O32 P7 1.506571 1_555
O33 P5 1.621764 1_555
O33 Ta5 2.039854 1_555
O34 P6 1.605136 1_555
O34 Ta5 2.048597 1_555
O35 Si7 1.737904 1_555
O35 Ta5 1.949977 1_555
O36 P8 1.583415 1_555
O36 Ta0 2.172077 1_465
O37 Si8 1.690121 1_555
O37 Ta0 1.991274 1_565
O38 P7 1.613256 1_555
O38 Ta0 2.112680 1_455
O39 P5 1.505633 1_555
O40 P6 1.523249 1_555
O41 Si7 1.591542 1_555
O42 Si4 1.668053 1_555
O42 Ta1 1.962217 1_655
O43 Si5 1.686218 1_565
O43 Ta1 1.958754 1_565
O44 P2 1.581428 1_555
O44 Ta1 2.117116 1_665
O45 Si6 1.610913 1_555
O46 P3 1.526311 1_555
O47 P4 1.528082 1_555
O48 P1 1.535317 1_545
O49 Si2 1.606095 1_555
O50 Si3 1.613802 1_655
O51 P0 1.592725 1_555
O51 Ta2 2.096808 1_555
O52 Si1 1.695927 1_555
O52 Ta2 1.978883 1_555
O53 Si0 1.696552 1_555
O53 Ta2 2.016501 1_555
O54 Si7 1.733936 1_555
O54 Ta3 1.966603 1_555
O55 P5 1.594760 1_655
O55 Ta3 2.079296 1_555
O56 P6 1.583759 1_545
O56 Ta3 2.078190 1_555
O57 Si8 1.617297 1_545
O58 P7 1.520861 1_555
O59 P8 1.519054 1_655
O60 P4 1.530322 1_555
O61 Si6 1.613208 1_455
O62 P3 1.528848 1_565
O63 Si5 1.710056 1_565
O63 Ta4 1.964342 1_555
O64 P2 1.586469 1_555
O64 Ta4 2.043743 1_555
O65 Si4 1.670093 1_455
O65 Ta4 1.966073 1_555
O66 Si0 1.608339 1_565
O67 P0 1.518638 1_555
O68 Si1 1.601764 1_455
O69 Si2 1.702580 1_555
O69 Ta5 2.006500 1_555
O70 Si3 1.697904 1_555
O70 Ta5 2.039681 1_555
O71 P1 1.608901 1_555
O71 Ta5 2.084038 1_555
