# generated using pymatgen
data_Na15Nb11Zn(SiO4)18
_symmetry_space_group_name_H-M   'P 1'
_cell_length_a   9.07568166
_cell_length_b   9.07711314
_cell_length_c   22.56714355
_cell_angle_alpha   90.18290201
_cell_angle_beta   89.83239720
_cell_angle_gamma   120.16865256
_symmetry_Int_Tables_number   1
_chemical_formula_structural   Na15Nb11Zn(SiO4)18
_chemical_formula_sum   'Na15 Nb11 Zn1 Si18 O72'
_cell_volume   1607.27774441
_cell_formula_units_Z   1
loop_
 _symmetry_equiv_pos_site_id
 _symmetry_equiv_pos_as_xyz
  1  'x, y, z'
loop_
 _atom_site_type_symbol
 _atom_site_label
 _atom_site_symmetry_multiplicity
 _atom_site_fract_x
 _atom_site_fract_y
 _atom_site_fract_z
 _atom_site_occupancy
  Na  Na0  1  0.36651016  0.36567870  0.25128314  1
  Na  Na1  1  0.63163754  0.61153726  0.74257540  1
  Na  Na2  1  0.97893685  0.36900589  0.74279772  1
  Na  Na3  1  0.39088942  0.02081567  0.74243730  1
  Na  Na4  1  0.31171765  0.33679215  0.58374947  1
  Na  Na5  1  0.02444440  0.68734315  0.58381472  1
  Na  Na6  1  0.66261587  0.97502378  0.58375289  1
  Na  Na7  1  0.30049689  0.96748226  0.08486569  1
  Na  Na8  1  0.70110569  0.03532566  0.91790543  1
  Na  Na9  1  0.00064739  0.00032606  0.49329250  1
  Na  Na10  1  0.00055319  0.00073538  0.00198798  1
  Na  Na11  1  0.66549880  0.34038615  0.82813506  1
  Na  Na12  1  0.67593968  0.33196323  0.33470471  1
  Na  Na13  1  0.33410871  0.66719626  0.16853377  1
  Na  Na14  1  0.33350782  0.66700372  0.66506870  1
  Nb  Nb0  1  0.99913314  0.99984902  0.35512704  1
  Nb  Nb1  1  0.00487220  0.99970654  0.85693611  1
  Nb  Nb2  1  0.99971418  0.99983032  0.64591426  1
  Nb  Nb3  1  0.99413891  0.99894813  0.14517782  1
  Nb  Nb4  1  0.67121310  0.33402395  0.18913140  1
  Nb  Nb5  1  0.66743451  0.33836617  0.97810616  1
  Nb  Nb6  1  0.66577630  0.33333470  0.47752351  1
  Nb  Nb7  1  0.33246398  0.66151647  0.02304394  1
  Nb  Nb8  1  0.33285742  0.66638729  0.51625586  1
  Nb  Nb9  1  0.33309507  0.67188228  0.31153320  1
  Nb  Nb10  1  0.33302698  0.66556813  0.81365048  1
  Zn  Zn0  1  0.66702651  0.33385000  0.68203213  1
  Si  Si0  1  0.28619781  0.99710498  0.24867548  1
  Si  Si1  1  0.71155820  0.71123928  0.25069031  1
  Si  Si2  1  0.99776289  0.28725345  0.25079819  1
  Si  Si3  1  0.28921110  0.29161487  0.75084053  1
  Si  Si4  1  0.00220566  0.71102372  0.75091337  1
  Si  Si5  1  0.70978331  0.99821204  0.75253602  1
  Si  Si6  1  0.95686841  0.33534888  0.58527829  1
  Si  Si7  1  0.37830923  0.04237646  0.58553332  1
  Si  Si8  1  0.66342978  0.62158423  0.58542883  1
  Si  Si9  1  0.95490930  0.62222251  0.08343951  1
  Si  Si10  1  0.66976160  0.04714649  0.08188618  1
  Si  Si11  1  0.37947880  0.33495570  0.08484450  1
  Si  Si12  1  0.62106599  0.66359483  0.91684622  1
  Si  Si13  1  0.04341368  0.37796904  0.91697469  1
  Si  Si14  1  0.33139084  0.95476164  0.91876855  1
  Si  Si15  1  0.62607076  0.95933142  0.41592974  1
  Si  Si16  1  0.33431481  0.37572580  0.41428993  1
  Si  Si17  1  0.04116886  0.66666746  0.41565842  1
  O  O0  1  0.19243065  0.03048413  0.30516828  1
  O  O1  1  0.83167731  0.80628772  0.30791317  1
  O  O2  1  0.97348116  0.16803166  0.30822023  1
  O  O3  1  0.18191496  0.16896145  0.80682783  1
  O  O4  1  0.98406899  0.81675393  0.80690834  1
  O  O5  1  0.82637859  0.01441261  0.81007713  1
  O  O6  1  0.80312442  0.96916470  0.69272019  1
  O  O7  1  0.16873549  0.20007819  0.69090924  1
  O  O8  1  0.03186106  0.83215740  0.69113951  1
  O  O9  1  0.80854514  0.83163995  0.19250339  1
  O  O10  1  0.02981877  0.19305256  0.19318333  1
  O  O11  1  0.17366235  0.97375179  0.18868865  1
  O  O12  1  0.89518826  0.38460392  0.64537400  1
  O  O13  1  0.48962706  0.10538807  0.64533850  1
  O  O14  1  0.61486495  0.51053073  0.64522882  1
  O  O15  1  0.85829737  0.50200733  0.14087983  1
  O  O16  1  0.63660010  0.14213608  0.13843689  1
  O  O17  1  0.49230531  0.35957967  0.14422281  1
  O  O18  1  0.47631857  0.30439465  0.02775907  1
  O  O19  1  0.83544426  0.52484943  0.02544333  1
  O  O20  1  0.69313075  0.15927156  0.02198789  1
  O  O21  1  0.47195339  0.17206465  0.52955967  1
  O  O22  1  0.70011175  0.52803865  0.52947625  1
  O  O23  1  0.82720184  0.29982470  0.52951391  1
  O  O24  1  0.52499909  0.69659714  0.97259565  1
  O  O25  1  0.16640730  0.47735719  0.97335452  1
  O  O26  1  0.30824699  0.83942708  0.97699644  1
  O  O27  1  0.53178822  0.84408769  0.47575526  1
  O  O28  1  0.31261254  0.47171541  0.47388852  1
  O  O29  1  0.15714432  0.68853025  0.47537619  1
  O  O30  1  0.14162270  0.64190005  0.35940070  1
  O  O31  1  0.50189695  0.85739659  0.35964020  1
  O  O32  1  0.35799468  0.49296058  0.35631881  1
  O  O33  1  0.13611923  0.49419436  0.85723579  1
  O  O34  1  0.36094344  0.86077031  0.85977963  1
  O  O35  1  0.50440311  0.63981658  0.85701810  1
  O  O36  1  0.02697771  0.83768271  0.41041596  1
  O  O37  1  0.81216324  0.97505560  0.41135173  1
  O  O38  1  0.16354115  0.18784295  0.41097994  1
  O  O39  1  0.01794919  0.18616865  0.91220834  1
  O  O40  1  0.16364017  0.97529904  0.91180618  1
  O  O41  1  0.80594708  0.83946910  0.91166887  1
  O  O42  1  0.97456478  0.16111612  0.58884113  1
  O  O43  1  0.18634231  0.02465979  0.58883874  1
  O  O44  1  0.83827934  0.81376408  0.58885683  1
  O  O45  1  0.98136443  0.81436542  0.08774109  1
  O  O46  1  0.83763324  0.02654385  0.08904274  1
  O  O47  1  0.19320232  0.15939237  0.08824519  1
  O  O48  1  0.69149911  0.16416975  0.75109610  1
  O  O49  1  0.47269414  0.30858918  0.75036352  1
  O  O50  1  0.83514612  0.52700592  0.75007910  1
  O  O51  1  0.68566870  0.51877588  0.24477747  1
  O  O52  1  0.82880313  0.30611752  0.24367183  1
  O  O53  1  0.47359353  0.17274447  0.24378312  1
  O  O54  1  0.63878471  0.49471288  0.92253207  1
  O  O55  1  0.85226426  0.35295719  0.92156829  1
  O  O56  1  0.50753206  0.13984385  0.92204443  1
  O  O57  1  0.63959197  0.14504079  0.42325851  1
  O  O58  1  0.50549478  0.36052322  0.42370884  1
  O  O59  1  0.85496270  0.49446682  0.42349497  1
  O  O60  1  0.36000907  0.50388978  0.07677346  1
  O  O61  1  0.14725392  0.64725433  0.07824666  1
  O  O62  1  0.49351366  0.86004717  0.07747833  1
  O  O63  1  0.34431545  0.84697938  0.57490150  1
  O  O64  1  0.50197549  0.65506741  0.57469866  1
  O  O65  1  0.15291486  0.49718150  0.57456907  1
  O  O66  1  0.30751609  0.82898539  0.25541509  1
  O  O67  1  0.51907872  0.68518990  0.25492768  1
  O  O68  1  0.17378582  0.47296466  0.25537606  1
  O  O69  1  0.29631758  0.47703839  0.75416970  1
  O  O70  1  0.18098345  0.70494695  0.75498172  1
  O  O71  1  0.52281223  0.81921707  0.75457751  1
loop_
_geom_bond_atom_site_label_1
_geom_bond_atom_site_label_2
_geom_bond_distance
_geom_bond_site_symmetry_2
Na0 O68 2.393072 1_555
Na0 O53 2.397491 1_555
Na0 O51 2.509171 1_555
Na0 O67 2.509637 1_555
Na0 O32 2.651525 1_555
Na0 O17 2.681474 1_555
Na0 O0 2.900538 1_555
Na0 O10 2.951196 1_555
Na1 O50 2.335770 1_555
Na1 O14 2.353441 1_555
Na1 O49 2.385014 1_555
Na1 O71 2.543444 1_555
Na1 O69 2.661473 1_555
Na1 O35 2.888878 1_555
Na2 O48 2.328451 1_555
Na2 O12 2.356145 1_555
Na2 O50 2.380187 1_555
Na2 O69 2.547185 1_655
Na2 O70 2.667251 1_655
Na2 O33 2.892979 1_655
Na3 O49 2.335618 1_555
Na3 O13 2.345572 1_555
Na3 O48 2.368124 1_555
Na3 O70 2.538136 1_545
Na3 O71 2.657905 1_545
Na4 O43 2.469072 1_555
Na4 O65 2.520376 1_555
Na4 O64 2.521405 1_555
Na4 O42 2.648367 1_455
Na4 O7 2.730255 1_555
Na4 O14 2.762037 1_555
Na4 O28 2.766935 1_555
Na4 O21 2.830120 1_555
Na5 O44 2.476130 1_455
Na5 O63 2.517587 1_555
Na5 O65 2.530135 1_555
Na5 O43 2.650233 1_565
Na5 O29 2.721943 1_555
Na5 O8 2.736837 1_555
Na5 O12 2.762667 1_455
Na5 O22 2.826804 1_455
Na6 O42 2.464934 1_565
Na6 O64 2.518790 1_555
Na6 O63 2.522524 1_555
Na6 O44 2.654291 1_555
Na6 O27 2.709682 1_555
Na6 O13 2.764189 1_565
Na6 O6 2.786291 1_555
Na6 O23 2.829783 1_565
Na7 O47 2.385840 1_565
Na7 O62 2.400362 1_555
Na7 O45 2.505632 1_455
Na7 O61 2.518125 1_555
Na7 O11 2.620514 1_555
Na7 O26 2.710163 1_554
Na7 O16 2.903176 1_565
Na7 O18 2.944138 1_565
Na8 O56 2.380942 1_555
Na8 O41 2.404917 1_545
Na8 O39 2.490344 1_655
Na8 O55 2.495039 1_555
Na8 O20 2.617646 1_556
Na8 O5 2.729061 1_555
Na8 O24 2.933403 1_545
Na8 O34 2.975893 1_545
Na9 O38 2.451172 1_555
Na9 O37 2.453504 1_445
Na9 O36 2.463530 1_545
Na9 O42 2.675786 1_455
Na9 O43 2.679990 1_555
Na9 O44 2.680818 1_445
Na10 O45 2.521906 1_445
Na10 O47 2.528117 1_555
Na10 O46 2.535538 1_455
Na10 O40 2.590128 1_544
Na10 O39 2.591495 1_554
Na10 O41 2.611531 1_444
Na11 O50 2.392642 1_555
Na11 O49 2.394295 1_555
Na11 O48 2.448666 1_555
Na11 O54 2.622686 1_555
Na11 O55 2.675249 1_555
Na11 O56 2.691492 1_555
Na12 O59 2.534162 1_555
Na12 O57 2.537030 1_555
Na12 O52 2.550980 1_555
Na12 O51 2.621481 1_555
Na12 O58 2.622219 1_555
Na12 O53 2.647028 1_555
Na13 O67 2.527356 1_555
Na13 O66 2.528687 1_555
Na13 O68 2.548187 1_555
Na13 O61 2.601815 1_555
Na13 O62 2.615328 1_555
Na13 O60 2.620778 1_555
Na14 O71 2.560776 1_555
Na14 O69 2.561950 1_555
Na14 O70 2.571044 1_555
Na14 O64 2.579812 1_555
Na14 O63 2.584171 1_555
Na14 O65 2.587219 1_555
Nb0 O1 1.961033 1_555
Nb0 O2 1.968314 1_565
Nb0 O0 1.981444 1_665
Nb0 O37 2.036019 1_555
Nb0 O38 2.040871 1_665
Nb0 O36 2.043255 1_655
Nb1 O3 1.933943 1_565
Nb1 O4 1.934490 1_455
Nb1 O5 1.997143 1_465
Nb1 O40 1.997924 1_555
Nb1 O39 2.054290 1_565
Nb1 O41 2.063906 1_455
Nb2 O6 1.966775 1_555
Nb2 O7 1.970517 1_665
Nb2 O8 1.975137 1_655
Nb2 O44 2.041357 1_555
Nb2 O43 2.045509 1_665
Nb2 O42 2.050347 1_565
Nb3 O9 1.926897 1_555
Nb3 O10 1.949164 1_665
Nb3 O46 2.013761 1_565
Nb3 O11 2.014052 1_655
Nb3 O45 2.071843 1_555
Nb3 O47 2.095116 1_665
Nb4 O15 1.947115 1_555
Nb4 O16 1.969961 1_555
Nb4 O52 2.000273 1_555
Nb4 O17 2.026585 1_555
Nb4 O51 2.042777 1_555
Nb4 O53 2.059269 1_555
Nb5 O19 1.932694 1_556
Nb5 O18 1.952545 1_556
Nb5 O54 2.009657 1_555
Nb5 O20 2.017551 1_556
Nb5 O55 2.055376 1_555
Nb5 O56 2.078857 1_555
Nb6 O58 2.006217 1_555
Nb6 O21 2.006731 1_555
Nb6 O22 2.007630 1_555
Nb6 O59 2.012207 1_555
Nb6 O57 2.014319 1_555
Nb6 O23 2.018834 1_555
Nb7 O25 1.946502 1_554
Nb7 O24 1.970356 1_554
Nb7 O60 1.988023 1_555
Nb7 O26 2.026056 1_554
Nb7 O61 2.040639 1_555
Nb7 O62 2.059585 1_555
Nb8 O28 1.932438 1_555
Nb8 O29 1.940759 1_555
Nb8 O27 1.941518 1_555
Nb8 O65 2.058407 1_555
Nb8 O63 2.065224 1_555
Nb8 O64 2.068101 1_555
Nb9 O31 1.940718 1_555
Nb9 O30 1.943264 1_555
Nb9 O66 2.009306 1_555
Nb9 O32 2.022603 1_555
Nb9 O67 2.068562 1_555
Nb9 O68 2.080603 1_555
Nb10 O33 1.945843 1_555
Nb10 O35 1.951249 1_555
Nb10 O34 1.956008 1_555
Nb10 O69 2.063072 1_555
Nb10 O71 2.067135 1_555
Nb10 O70 2.072267 1_555
O0 Si0 1.640630 1_545
O1 Si1 1.629785 1_555
O2 Si2 1.632946 1_555
O3 Si3 1.642027 1_555
O4 Si4 1.641581 1_655
O5 Si5 1.636457 1_545
O6 Si5 1.680728 1_555
O7 Si3 1.674350 1_555
O8 Si4 1.676585 1_555
O9 Si1 1.651962 1_555
O10 Si2 1.657419 1_455
O11 Si0 1.645996 1_555
O12 Si6 1.611131 1_555
O12 Zn0 2.053798 1_555
O13 Si7 1.609840 1_555
O13 Zn0 2.054122 1_555
O14 Si8 1.609426 1_555
O14 Zn0 2.063934 1_555
O15 Si9 1.637242 1_555
O16 Si10 1.647491 1_555
O17 Si11 1.634063 1_555
O18 Si11 1.656847 1_555
O19 Si9 1.645439 1_555
O20 Si10 1.642611 1_555
O21 Si7 1.643568 1_555
O22 Si8 1.643487 1_555
O23 Si6 1.642320 1_555
O24 Si12 1.639030 1_555
O25 Si13 1.633263 1_555
O26 Si14 1.628795 1_555
O27 Si15 1.658857 1_555
O28 Si16 1.664444 1_555
O29 Si17 1.661352 1_555
O30 Si17 1.640412 1_555
O31 Si15 1.640925 1_555
O32 Si16 1.633245 1_555
O33 Si13 1.657909 1_555
O34 Si14 1.671112 1_555
O35 Si12 1.663535 1_555
O36 Si17 1.625579 1_555
O37 Si15 1.624890 1_555
O38 Si16 1.630768 1_555
O39 Si13 1.640300 1_555
O40 Si14 1.632221 1_555
O41 Si12 1.638712 1_555
O42 Si6 1.670235 1_555
O43 Si7 1.668683 1_555
O44 Si8 1.668765 1_555
O45 Si9 1.639247 1_555
O46 Si10 1.634095 1_555
O47 Si11 1.641866 1_555
O48 Si5 1.596709 1_545
O48 Zn0 2.282961 1_555
O49 Si3 1.593387 1_555
O49 Zn0 2.262960 1_555
O50 Si4 1.594910 1_655
O50 Zn0 2.251216 1_555
O51 Si1 1.646567 1_555
O52 Si2 1.634657 1_555
O53 Si0 1.649615 1_545
O54 Si12 1.625250 1_555
O55 Si13 1.635570 1_655
O56 Si14 1.638286 1_545
O57 Si15 1.635371 1_545
O58 Si16 1.641772 1_555
O59 Si17 1.635684 1_655
O60 Si11 1.640161 1_555
O61 Si9 1.647117 1_455
O62 Si10 1.649923 1_565
O63 Si7 1.657191 1_565
O64 Si8 1.657801 1_555
O65 Si6 1.659758 1_455
O66 Si0 1.639445 1_555
O67 Si1 1.643368 1_555
O68 Si2 1.642429 1_455
O69 Si3 1.653112 1_555
O70 Si4 1.653764 1_555
O71 Si5 1.658414 1_555
