# generated using pymatgen
data_Na8MgTi2O8
_symmetry_space_group_name_H-M   'P 1'
_cell_length_a   7.19106869
_cell_length_b   7.19106869
_cell_length_c   6.44700294
_cell_angle_alpha   90.00000000
_cell_angle_beta   90.00000000
_cell_angle_gamma   77.59936063
_symmetry_Int_Tables_number   1
_chemical_formula_structural   Na8MgTi2O8
_chemical_formula_sum   'Na8 Mg1 Ti2 O8'
_cell_volume   325.60610424
_cell_formula_units_Z   1
loop_
 _symmetry_equiv_pos_site_id
 _symmetry_equiv_pos_as_xyz
  1  'x, y, z'
loop_
 _atom_site_type_symbol
 _atom_site_label
 _atom_site_symmetry_multiplicity
 _atom_site_fract_x
 _atom_site_fract_y
 _atom_site_fract_z
 _atom_site_occupancy
  Na  Na0  1  0.12490826  0.77480598  0.50797981  1
  Na  Na1  1  0.12490826  0.77480598  0.99202019  1
  Na  Na2  1  0.53136510  0.83956559  0.25000000  1
  Na  Na3  1  0.05005756  0.34412307  0.75000000  1
  Na  Na4  1  0.34412307  0.05005756  0.75000000  1
  Na  Na5  1  0.83956559  0.53136510  0.25000000  1
  Na  Na6  1  0.77480598  0.12490826  0.99202019  1
  Na  Na7  1  0.77480598  0.12490826  0.50797981  1
  Mg  Mg0  1  0.43698964  0.43698964  0.75000000  1
  Ti  Ti0  1  0.68163836  0.68163836  0.75000000  1
  Ti  Ti1  1  0.39477632  0.39477632  0.25000000  1
  O  O0  1  0.32010710  0.65030474  0.25000000  1
  O  O1  1  0.41473284  0.72457333  0.75000000  1
  O  O2  1  0.77452438  0.77452438  0.98448275  1
  O  O3  1  0.31914455  0.31914455  0.51574390  1
  O  O4  1  0.31914455  0.31914455  0.98425610  1
  O  O5  1  0.77452438  0.77452438  0.51551725  1
  O  O6  1  0.72457333  0.41473284  0.75000000  1
  O  O7  1  0.65030474  0.32010710  0.25000000  1
loop_
_geom_bond_atom_site_label_1
_geom_bond_atom_site_label_2
_geom_bond_distance
_geom_bond_site_symmetry_2
Na0 O0 2.235703 1_555
Na0 O5 2.520539 1_455
Na0 O1 2.566197 1_555
Na1 O0 2.235703 1_556
Na1 O2 2.520539 1_455
Na1 O1 2.566197 1_555
Na2 O0 2.246814 1_555
Na2 O2 2.419761 1_554
Na2 O5 2.419761 1_555
Na3 O6 2.285979 1_455
Na3 O4 2.430669 1_555
Na3 O3 2.430669 1_555
Na4 O1 2.285979 1_545
Na4 O4 2.430669 1_555
Na4 O3 2.430669 1_555
Na5 O7 2.246814 1_555
Na5 O2 2.419761 1_554
Na5 O5 2.419761 1_555
Na6 O7 2.235703 1_556
Na6 O2 2.520539 1_545
Na6 O6 2.566197 1_555
Na7 O7 2.235703 1_555
Na7 O5 2.520539 1_545
Na7 O6 2.566197 1_555
Mg0 O4 2.006383 1_555
Mg0 O3 2.006383 1_555
Mg0 O6 2.039663 1_555
Mg0 O1 2.039663 1_555
O0 Ti1 1.800290 1_555
O1 Ti0 1.877408 1_555
O2 Ti0 1.835539 1_555
O3 Ti1 1.911510 1_555
O4 Ti1 1.911510 1_556
O5 Ti0 1.835539 1_555
O6 Ti0 1.877408 1_555
O7 Ti1 1.800290 1_555
