# generated using pymatgen
data_TbCoSi
_symmetry_space_group_name_H-M   'P 1'
_cell_length_a   4.01779719
_cell_length_b   4.01779719
_cell_length_c   6.52486911
_cell_angle_alpha   90.00000000
_cell_angle_beta   90.00000000
_cell_angle_gamma   90.00000000
_symmetry_Int_Tables_number   1
_chemical_formula_structural   TbCoSi
_chemical_formula_sum   'Tb2 Co2 Si2'
_cell_volume   105.32896713
_cell_formula_units_Z   2
loop_
 _symmetry_equiv_pos_site_id
 _symmetry_equiv_pos_as_xyz
  1  'x, y, z'
loop_
 _atom_site_type_symbol
 _atom_site_label
 _atom_site_symmetry_multiplicity
 _atom_site_fract_x
 _atom_site_fract_y
 _atom_site_fract_z
 _atom_site_occupancy
  Tb  Tb0  1  0.25000000  0.25000000  0.68706847  1
  Tb  Tb1  1  0.75000000  0.75000000  0.31293153  1
  Co  Co0  1  0.75000000  0.25000000  0.00000000  1
  Co  Co1  1  0.25000000  0.75000000  -0.00000000  1
  Si  Si0  1  0.75000000  0.75000000  0.81895986  1
  Si  Si1  1  0.25000000  0.25000000  0.18104014  1
loop_
_geom_bond_atom_site_label_1
_geom_bond_atom_site_label_2
_geom_bond_distance
_geom_bond_site_symmetry_2
Co0 Si0 2.330463 1_544
Co0 Si1 2.330463 1_655
Co0 Si1 2.330463 1_555
Co0 Si0 2.330463 1_554
Co0 Tb0 2.864397 1_654
Co0 Tb0 2.864397 1_554
Co0 Tb1 2.864397 1_555
Co0 Tb1 2.864397 1_545
Co1 Si0 2.330463 1_454
Co1 Si1 2.330463 1_565
Co1 Si1 2.330463 1_555
Co1 Si0 2.330463 1_554
Co1 Tb0 2.864397 1_564
Co1 Tb0 2.864397 1_554
Co1 Tb1 2.864397 1_455
Co1 Tb1 2.864397 1_555
Si0 Tb0 2.968490 1_565
Si0 Tb0 2.968490 1_665
Si0 Tb0 2.968490 1_655
Si0 Tb0 2.968490 1_555
Si0 Tb1 3.301769 1_555
Si1 Tb1 2.968490 1_555
Si1 Tb1 2.968490 1_445
Si1 Tb1 2.968490 1_545
Si1 Tb1 2.968490 1_455
Si1 Tb0 3.301769 1_555
