# generated using pymatgen
data_Tl4Te3Pb
_symmetry_space_group_name_H-M   'P 1'
_cell_length_a   9.17981636
_cell_length_b   9.17981636
_cell_length_c   9.17981636
_cell_angle_alpha   121.52478124
_cell_angle_beta   121.52478124
_cell_angle_gamma   87.37868669
_symmetry_Int_Tables_number   1
_chemical_formula_structural   Tl4Te3Pb
_chemical_formula_sum   'Tl8 Te6 Pb2'
_cell_volume   533.78565733
_cell_formula_units_Z   2
loop_
 _symmetry_equiv_pos_site_id
 _symmetry_equiv_pos_as_xyz
  1  'x, y, z'
loop_
 _atom_site_type_symbol
 _atom_site_label
 _atom_site_symmetry_multiplicity
 _atom_site_fract_x
 _atom_site_fract_y
 _atom_site_fract_z
 _atom_site_occupancy
  Tl  Tl0  1  0.01280425  0.51280425  0.20734601  1
  Tl  Tl1  1  0.69454076  0.19454076  0.20734601  1
  Tl  Tl2  1  0.30545924  0.80545924  0.79265399  1
  Tl  Tl3  1  0.80545924  0.01280425  0.50000000  1
  Tl  Tl4  1  0.51280425  0.30545924  0.50000000  1
  Tl  Tl5  1  0.19454076  0.98719575  0.50000000  1
  Tl  Tl6  1  0.48719575  0.69454076  0.50000000  1
  Tl  Tl7  1  0.98719575  0.48719575  0.79265399  1
  Te  Te0  1  0.16491387  0.33508613  0.50000000  1
  Te  Te1  1  0.66491387  0.16491387  0.82982874  1
  Te  Te2  1  0.75000000  0.75000000  -0.00000000  1
  Te  Te3  1  0.25000000  0.25000000  -0.00000000  1
  Te  Te4  1  0.33508613  0.83508613  0.17017126  1
  Te  Te5  1  0.83508613  0.66491387  0.50000000  1
  Pb  Pb0  1  -0.00000000  0.00000000  -0.00000000  1
  Pb  Pb1  1  0.50000000  0.50000000  -0.00000000  1
loop_
_geom_bond_atom_site_label_1
_geom_bond_atom_site_label_2
_geom_bond_distance
_geom_bond_site_symmetry_2
Te0 Tl5 3.192712 1_545
Te0 Tl4 3.192712 1_555
Te0 Tl0 3.504382 1_555
Te0 Tl7 3.504382 1_455
Te0 Tl1 3.504390 1_455
Te0 Tl2 3.504390 1_555
Te1 Tl1 3.192712 1_556
Te1 Tl0 3.192712 1_656
Te1 Tl5 3.504389 1_545
Te1 Tl6 3.504389 1_545
Te1 Tl4 3.504397 1_555
Te1 Tl3 3.504397 1_555
Te4 Tl7 3.192712 1_454
Te4 Tl2 3.192712 1_554
Te4 Tl3 3.504389 1_565
Te4 Tl4 3.504389 1_565
Te4 Tl5 3.504397 1_555
Te4 Tl6 3.504397 1_555
Te5 Tl6 3.192712 1_555
Te5 Tl3 3.192712 1_565
Te5 Tl7 3.504382 1_555
Te5 Tl0 3.504382 1_655
Te5 Tl1 3.504390 1_555
Te5 Tl2 3.504390 1_655
Pb0 Te2 3.318943 1_445
Pb0 Te3 3.318943 1_555
Pb0 Te1 3.349062 1_454
Pb0 Te4 3.349062 1_545
Pb0 Te5 3.349064 1_444
Pb0 Te0 3.349064 1_555
Pb1 Te2 3.318943 1_555
Pb1 Te3 3.318943 1_555
Pb1 Te4 3.349062 1_555
Pb1 Te1 3.349062 1_554
Pb1 Te0 3.349064 1_554
Pb1 Te5 3.349064 1_555
