# generated using pymatgen
data_Cs2Mg(ReO4)2
_symmetry_space_group_name_H-M   'P 1'
_cell_length_a   6.43205940
_cell_length_b   6.90396457
_cell_length_c   8.37400127
_cell_angle_alpha   114.37762208
_cell_angle_beta   112.61426897
_cell_angle_gamma   89.98628765
_symmetry_Int_Tables_number   1
_chemical_formula_structural   Cs2Mg(ReO4)2
_chemical_formula_sum   'Cs2 Mg1 Re2 O8'
_cell_volume   307.06305095
_cell_formula_units_Z   1
loop_
 _symmetry_equiv_pos_site_id
 _symmetry_equiv_pos_as_xyz
  1  'x, y, z'
loop_
 _atom_site_type_symbol
 _atom_site_label
 _atom_site_symmetry_multiplicity
 _atom_site_fract_x
 _atom_site_fract_y
 _atom_site_fract_z
 _atom_site_occupancy
  Cs  Cs0  1  0.12930100  0.87893300  0.25751500  1
  Cs  Cs1  1  0.87769700  0.12876300  0.75608300  1
  Mg  Mg0  1  0.83165200  0.58181400  0.66242700  1
  Re  Re0  1  0.36423700  0.61374000  0.72759800  1
  Re  Re1  1  0.62255200  0.37304300  0.24554200  1
  O  O0  1  0.72089200  0.28438500  0.44136300  1
  O  O1  1  0.68038000  0.67022900  0.83996300  1
  O  O2  1  0.16055900  0.67021900  0.83996800  1
  O  O3  1  0.30187700  0.77537800  0.60287900  1
  O  O4  1  0.30234400  0.32720800  0.60358000  1
  O  O5  1  0.32406300  0.30581500  0.11145300  1
  O  O6  1  0.78657400  0.30557700  0.11098400  1
  O  O7  1  0.72078900  0.65781400  0.44127100  1
loop_
_geom_bond_atom_site_label_1
_geom_bond_atom_site_label_2
_geom_bond_distance
_geom_bond_site_symmetry_2
Cs0 O4 3.054923 1_565
Cs0 O3 3.056962 1_555
Cs0 O1 3.273868 1_454
Cs0 O2 3.274738 1_554
Cs1 O6 3.001756 1_556
Cs1 O5 3.003514 1_656
Cs1 O0 3.067573 1_555
Cs1 O7 3.069152 1_545
Mg0 O2 1.972594 1_655
Mg0 O1 1.972965 1_555
Mg0 O0 1.999887 1_555
Mg0 O7 1.999982 1_555
O0 Re1 1.869334 1_555
O1 Re0 1.843467 1_555
O2 Re0 1.843556 1_555
O3 Re0 1.771075 1_555
O4 Re0 1.771109 1_555
O5 Re1 1.753442 1_555
O6 Re1 1.755095 1_555
O7 Re1 1.869509 1_555
