# generated using pymatgen
data_Nb3CuO8
_symmetry_space_group_name_H-M   'P 1'
_cell_length_a   5.10103300
_cell_length_b   7.66205700
_cell_length_c   15.56287317
_cell_angle_alpha   72.83151422
_cell_angle_beta   90.00000000
_cell_angle_gamma   90.00000000
_symmetry_Int_Tables_number   1
_chemical_formula_structural   Nb3CuO8
_chemical_formula_sum   'Nb12 Cu4 O32'
_cell_volume   581.16185612
_cell_formula_units_Z   4
loop_
 _symmetry_equiv_pos_site_id
 _symmetry_equiv_pos_as_xyz
  1  'x, y, z'
loop_
 _atom_site_type_symbol
 _atom_site_label
 _atom_site_symmetry_multiplicity
 _atom_site_fract_x
 _atom_site_fract_y
 _atom_site_fract_z
 _atom_site_occupancy
  Nb  Nb0  1  0.74036100  0.51712500  0.83507600  1
  Nb  Nb1  1  0.24036100  0.48287500  0.66492400  1
  Nb  Nb2  1  0.25963900  0.48287500  0.16492400  1
  Nb  Nb3  1  0.75963900  0.51712500  0.33507600  1
  Nb  Nb4  1  0.24583900  0.25141100  0.92410300  1
  Nb  Nb5  1  0.74583900  0.74858900  0.57589700  1
  Nb  Nb6  1  0.75416100  0.74858900  0.07589700  1
  Nb  Nb7  1  0.25416100  0.25141100  0.42410300  1
  Nb  Nb8  1  0.73545000  0.00796100  0.83267700  1
  Nb  Nb9  1  0.23545000  0.99203900  0.66732300  1
  Nb  Nb10  1  0.26455000  0.99203900  0.16732300  1
  Nb  Nb11  1  0.76455000  0.00796100  0.33267700  1
  Cu  Cu0  1  0.74184900  0.26607400  0.57776000  1
  Cu  Cu1  1  0.24184900  0.73392600  0.92224000  1
  Cu  Cu2  1  0.25815100  0.73392600  0.42224000  1
  Cu  Cu3  1  0.75815100  0.26607400  0.07776000  1
  O  O0  1  0.91958600  0.21967600  0.84526500  1
  O  O1  1  0.41958600  0.78032400  0.65473500  1
  O  O2  1  0.08041400  0.78032400  0.15473500  1
  O  O3  1  0.58041400  0.21967600  0.34526500  1
  O  O4  1  0.42507900  0.04223200  0.89996100  1
  O  O5  1  0.92507900  0.95776800  0.60003900  1
  O  O6  1  0.57492100  0.95776800  0.10003900  1
  O  O7  1  0.07492100  0.04223200  0.39996100  1
  O  O8  1  0.57220200  0.35163700  0.95222100  1
  O  O9  1  0.07220200  0.64836300  0.54777900  1
  O  O10  1  0.42779800  0.64836300  0.04777900  1
  O  O11  1  0.92779800  0.35163700  0.45222100  1
  O  O12  1  0.06701400  0.50274000  0.90073300  1
  O  O13  1  0.56701400  0.49726000  0.59926700  1
  O  O14  1  0.93298600  0.49726000  0.09926700  1
  O  O15  1  0.43298600  0.50274000  0.40073300  1
  O  O16  1  0.93051200  0.08350500  0.21919300  1
  O  O17  1  0.43051200  0.91649500  0.28080700  1
  O  O18  1  0.06948800  0.91649500  0.78080700  1
  O  O19  1  0.56948800  0.08350500  0.71919300  1
  O  O20  1  0.90219700  0.73375300  0.34665000  1
  O  O21  1  0.40219700  0.26624700  0.15335000  1
  O  O22  1  0.09780300  0.26624700  0.65335000  1
  O  O23  1  0.59780300  0.73375300  0.84665000  1
  O  O24  1  0.08496000  0.41560900  0.28401900  1
  O  O25  1  0.58496000  0.58439100  0.21598100  1
  O  O26  1  0.91504000  0.58439100  0.71598100  1
  O  O27  1  0.41504000  0.41560900  0.78401900  1
  O  O28  1  0.59958800  0.84795800  0.46111900  1
  O  O29  1  0.09958800  0.15204200  0.03888100  1
  O  O30  1  0.40041200  0.15204200  0.53888100  1
  O  O31  1  0.90041200  0.84795800  0.96111900  1
loop_
_geom_bond_atom_site_label_1
_geom_bond_atom_site_label_2
_geom_bond_distance
_geom_bond_site_symmetry_2
Nb0 O23 1.868889 1_555
Nb0 O12 1.940672 1_655
Nb0 O26 1.982663 1_555
Nb0 O8 2.074265 1_555
Nb0 O27 2.086891 1_555
Nb0 O0 2.416977 1_555
Nb1 O22 1.868889 1_555
Nb1 O13 1.940672 1_555
Nb1 O27 1.982663 1_555
Nb1 O9 2.074265 1_555
Nb1 O26 2.086891 1_455
Nb1 O1 2.416977 1_555
Nb2 O21 1.868889 1_555
Nb2 O14 1.940672 1_455
Nb2 O24 1.982663 1_555
Nb2 O10 2.074265 1_555
Nb2 O25 2.086891 1_555
Nb2 O2 2.416977 1_555
Nb3 O20 1.868889 1_555
Nb3 O15 1.940672 1_555
Nb3 O25 1.982663 1_555
Nb3 O11 2.074265 1_555
Nb3 O24 2.086891 1_655
Nb3 O3 2.416977 1_555
Nb4 O29 1.877264 1_556
Nb4 O8 1.936783 1_555
Nb4 O4 1.975199 1_555
Nb4 O12 2.063784 1_555
Nb4 O0 2.123747 1_455
Nb4 O27 2.336959 1_555
Nb5 O28 1.877264 1_555
Nb5 O9 1.936783 1_655
Nb5 O5 1.975199 1_555
Nb5 O13 2.063784 1_555
Nb5 O1 2.123747 1_555
Nb5 O26 2.336959 1_555
Nb6 O31 1.877264 1_554
Nb6 O10 1.936783 1_555
Nb6 O6 1.975199 1_555
Nb6 O14 2.063784 1_555
Nb6 O2 2.123747 1_655
Nb6 O25 2.336959 1_555
Nb7 O30 1.877264 1_555
Nb7 O11 1.936783 1_455
Nb7 O7 1.975199 1_555
Nb7 O15 2.063784 1_555
Nb7 O3 2.123747 1_555
Nb7 O24 2.336959 1_555
Nb8 O19 1.888770 1_555
Nb8 O0 1.933828 1_555
Nb8 O4 1.958144 1_555
Nb8 O18 2.092890 1_645
Nb8 O23 2.164429 1_545
Nb8 O31 2.181744 1_545
Nb9 O18 1.888770 1_555
Nb9 O1 1.933828 1_555
Nb9 O5 1.958144 1_455
Nb9 O19 2.092890 1_565
Nb9 O22 2.164429 1_565
Nb9 O30 2.181744 1_565
Nb10 O17 1.888770 1_555
Nb10 O2 1.933828 1_555
Nb10 O6 1.958144 1_555
Nb10 O16 2.092890 1_465
Nb10 O21 2.164429 1_565
Nb10 O29 2.181744 1_565
Nb11 O16 1.888770 1_555
Nb11 O3 1.933828 1_555
Nb11 O7 1.958144 1_655
Nb11 O17 2.092890 1_545
Nb11 O20 2.164429 1_545
Nb11 O28 2.181744 1_545
Cu0 O11 2.095344 1_555
Cu0 O13 2.096461 1_555
Cu0 O30 2.115432 1_555
Cu0 O22 2.163728 1_655
Cu0 O19 2.399360 1_555
Cu0 O5 2.467901 1_545
Cu1 O10 2.095344 1_556
Cu1 O12 2.096461 1_555
Cu1 O31 2.115432 1_455
Cu1 O23 2.163728 1_555
Cu1 O18 2.399360 1_555
Cu1 O4 2.467901 1_565
Cu2 O9 2.095344 1_555
Cu2 O15 2.096461 1_555
Cu2 O28 2.115432 1_555
Cu2 O20 2.163728 1_455
Cu2 O17 2.399360 1_555
Cu2 O7 2.467901 1_565
Cu3 O8 2.095344 1_554
Cu3 O14 2.096461 1_555
Cu3 O29 2.115432 1_655
Cu3 O21 2.163728 1_555
Cu3 O16 2.399360 1_555
Cu3 O6 2.467901 1_545
