# generated using pymatgen
data_Rb2PdI6
_symmetry_space_group_name_H-M   'P 1'
_cell_length_a   8.11734609
_cell_length_b   12.38152156
_cell_length_c   14.61077578
_cell_angle_alpha   90.00000000
_cell_angle_beta   90.00000000
_cell_angle_gamma   90.00000000
_symmetry_Int_Tables_number   1
_chemical_formula_structural   Rb2PdI6
_chemical_formula_sum   'Rb8 Pd4 I24'
_cell_volume   1468.45741690
_cell_formula_units_Z   4
loop_
 _symmetry_equiv_pos_site_id
 _symmetry_equiv_pos_as_xyz
  1  'x, y, z'
loop_
 _atom_site_type_symbol
 _atom_site_label
 _atom_site_symmetry_multiplicity
 _atom_site_fract_x
 _atom_site_fract_y
 _atom_site_fract_z
 _atom_site_occupancy
  Rb  Rb0  1  0.29039690  0.01318782  0.86058378  1
  Rb  Rb1  1  0.79039690  0.48681218  0.63941622  1
  Rb  Rb2  1  0.70960310  0.51318782  0.13941622  1
  Rb  Rb3  1  0.20960310  0.98681218  0.36058378  1
  Rb  Rb4  1  0.70960310  0.98681218  0.13941622  1
  Rb  Rb5  1  0.20960310  0.51318782  0.36058378  1
  Rb  Rb6  1  0.29039690  0.48681218  0.86058378  1
  Rb  Rb7  1  0.79039690  0.01318782  0.63941622  1
  Pd  Pd0  1  0.26514974  0.25000000  0.59905311  1
  Pd  Pd1  1  0.76514974  0.25000000  0.90094689  1
  Pd  Pd2  1  0.73485026  0.75000000  0.40094689  1
  Pd  Pd3  1  0.23485026  0.75000000  0.09905311  1
  I  I0  1  0.44830074  0.25000000  0.41478300  1
  I  I1  1  0.94830074  0.25000000  0.08521700  1
  I  I2  1  0.55169926  0.75000000  0.58521700  1
  I  I3  1  0.05169926  0.75000000  0.91478300  1
  I  I4  1  0.49016218  0.25000000  0.21962064  1
  I  I5  1  0.99016218  0.25000000  0.28037936  1
  I  I6  1  0.50983782  0.75000000  0.78037936  1
  I  I7  1  0.00983782  0.75000000  0.71962064  1
  I  I8  1  0.47959670  0.25000000  0.99459308  1
  I  I9  1  0.97959670  0.25000000  0.50540692  1
  I  I10  1  0.52040330  0.75000000  0.00540692  1
  I  I11  1  0.02040330  0.75000000  0.49459308  1
  I  I12  1  0.02578981  0.25000000  0.79326309  1
  I  I13  1  0.52578981  0.25000000  0.70673691  1
  I  I14  1  0.97421019  0.75000000  0.20673691  1
  I  I15  1  0.47421019  0.75000000  0.29326309  1
  I  I16  1  0.26533091  0.03486871  0.60563965  1
  I  I17  1  0.76533091  0.46513129  0.89436035  1
  I  I18  1  0.73466909  0.53486871  0.39436035  1
  I  I19  1  0.23466909  0.96513129  0.10563965  1
  I  I20  1  0.73466909  0.96513129  0.39436035  1
  I  I21  1  0.23466909  0.53486871  0.10563965  1
  I  I22  1  0.26533091  0.46513129  0.60563965  1
  I  I23  1  0.76533091  0.03486871  0.89436035  1
loop_
_geom_bond_atom_site_label_1
_geom_bond_atom_site_label_2
_geom_bond_distance
_geom_bond_site_symmetry_2
I0 I4 2.871649 1_555
I0 Pd0 3.075535 1_555
I0 Rb5 3.873016 1_555
I0 Rb3 3.873016 1_545
I1 I5 2.871649 1_555
I1 Pd1 3.075535 1_554
I1 Rb2 3.873016 1_555
I1 Rb4 3.873016 1_545
I2 I6 2.871649 1_555
I2 Pd2 3.075535 1_555
I2 Rb7 3.873016 1_565
I2 Rb1 3.873016 1_555
I3 I7 2.871649 1_555
I3 Pd3 3.075535 1_556
I3 Rb0 3.873016 1_565
I3 Rb6 3.873016 1_555
I4 I8 3.288946 1_554
I4 Rb4 3.894237 1_545
I4 Rb2 3.894237 1_555
I5 I9 3.288946 1_555
I5 Rb3 3.894237 1_645
I5 Rb5 3.894237 1_655
I6 Rb0 3.894237 1_565
I6 Rb6 3.894237 1_555
I7 Rb7 3.894237 1_465
I7 Rb1 3.894237 1_455
I8 Pd1 2.691636 1_555
I8 Rb6 3.845718 1_555
I8 Rb0 3.845718 1_555
I9 Pd0 2.691636 1_655
I9 Rb1 3.845718 1_555
I9 Rb7 3.845718 1_555
I10 Pd3 2.691636 1_555
I10 I6 3.288946 1_554
I10 Rb4 3.845718 1_555
I10 Rb2 3.845718 1_555
I11 Pd2 2.691636 1_455
I11 I7 3.288946 1_555
I11 Rb3 3.845718 1_555
I11 Rb5 3.845718 1_555
I12 Pd1 2.636593 1_455
I12 Pd0 3.439020 1_555
I12 Rb6 3.765391 1_555
I12 Rb0 3.765391 1_555
I12 Rb7 4.159436 1_455
I12 Rb1 4.159436 1_455
I13 Pd0 2.636593 1_555
I13 Pd1 3.439020 1_555
I13 Rb1 3.765391 1_555
I13 Rb7 3.765391 1_555
I13 Rb6 4.159436 1_555
I13 Rb0 4.159436 1_555
I14 Pd3 2.636593 1_655
I14 Pd2 3.439020 1_555
I14 Rb2 3.765391 1_555
I14 Rb4 3.765391 1_555
I14 Rb3 4.159436 1_655
I14 Rb5 4.159436 1_655
I15 Pd2 2.636593 1_555
I15 Pd3 3.439020 1_555
I15 Rb5 3.765391 1_555
I15 Rb3 3.765391 1_555
I15 Rb2 4.159436 1_555
I15 Rb4 4.159436 1_555
I16 Pd0 2.665391 1_555
I16 Rb3 3.657641 1_545
I16 Rb0 3.740130 1_555
I16 Rb7 3.895921 1_455
I17 Pd1 2.665391 1_555
I17 Rb2 3.657641 1_556
I17 Rb1 3.740130 1_555
I17 Rb6 3.895921 1_555
I18 Pd2 2.665391 1_555
I18 Rb1 3.657641 1_555
I18 Rb2 3.740130 1_555
I18 Rb5 3.895921 1_655
I19 Pd3 2.665391 1_555
I19 Rb0 3.657641 1_564
I19 Rb3 3.740130 1_555
I19 Rb4 3.895921 1_555
I20 Pd2 2.665391 1_555
I20 Rb7 3.657641 1_565
I20 Rb4 3.740130 1_555
I20 Rb3 3.895921 1_655
I21 Pd3 2.665391 1_555
I21 Rb6 3.657641 1_554
I21 Rb5 3.740130 1_555
I21 Rb2 3.895921 1_555
I22 Pd0 2.665391 1_555
I22 Rb5 3.657641 1_555
I22 Rb6 3.740130 1_555
I22 Rb1 3.895921 1_455
I23 Pd1 2.665391 1_555
I23 Rb4 3.657641 1_546
I23 Rb7 3.740130 1_555
I23 Rb0 3.895921 1_555
