# generated using pymatgen
data_MgMn6(O2F)4
_symmetry_space_group_name_H-M   'P 1'
_cell_length_a   11.57318500
_cell_length_b   6.70270561
_cell_length_c   3.05903900
_cell_angle_alpha   90.00000000
_cell_angle_beta   90.00000000
_cell_angle_gamma   105.42694656
_symmetry_Int_Tables_number   1
_chemical_formula_structural   MgMn6(O2F)4
_chemical_formula_sum   'Mg1 Mn6 O8 F4'
_cell_volume   228.74507655
_cell_formula_units_Z   1
loop_
 _symmetry_equiv_pos_site_id
 _symmetry_equiv_pos_as_xyz
  1  'x, y, z'
loop_
 _atom_site_type_symbol
 _atom_site_label
 _atom_site_symmetry_multiplicity
 _atom_site_fract_x
 _atom_site_fract_y
 _atom_site_fract_z
 _atom_site_occupancy
  Mg  Mg0  1  0.83288200  0.16938500  0.00000000  1
  Mn  Mn0  1  0.05515500  0.03371800  0.00000000  1
  Mn  Mn1  1  0.33322400  0.17112100  0.50000000  1
  Mn  Mn2  1  0.04474300  0.54432200  0.50000000  1
  Mn  Mn3  1  0.61120400  0.30744900  0.00000000  1
  Mn  Mn4  1  0.33256500  0.67089600  0.00000000  1
  Mn  Mn5  1  0.62036500  0.79619500  0.50000000  1
  O  O0  1  0.16019800  0.09431600  0.50000000  1
  O  O1  1  0.00932900  0.33682700  0.00000000  1
  O  O2  1  0.02547900  0.72075300  0.00000000  1
  O  O3  1  0.65620100  0.00358600  0.00000000  1
  O  O4  1  0.50627600  0.24718700  0.50000000  1
  O  O5  1  0.22150200  0.61654600  0.50000000  1
  O  O6  1  0.44370300  0.72511800  0.50000000  1
  O  O7  1  0.63984600  0.61994700  0.00000000  1
  F  F0  1  0.33466000  0.36579100  0.00000000  1
  F  F1  1  0.77777100  0.33173200  0.50000000  1
  F  F2  1  0.33197100  0.97652300  0.00000000  1
  F  F3  1  0.88792600  0.00817300  0.50000000  1
loop_
_geom_bond_atom_site_label_1
_geom_bond_atom_site_label_2
_geom_bond_distance
_geom_bond_site_symmetry_2
Mg0 O3 2.051124 1_555
Mg0 O1 2.051896 1_655
Mn0 O0 1.928624 1_555
Mn0 O0 1.928624 1_554
Mn0 O2 2.033484 1_545
Mn0 O1 2.232067 1_555
Mn1 O0 1.930397 1_555
Mn1 O4 1.930740 1_555
Mn2 O5 1.972875 1_555
Mn2 O2 1.981883 1_555
Mn2 O2 1.981883 1_556
Mn2 O1 2.034309 1_555
Mn2 O1 2.034309 1_556
Mn3 O4 1.927764 1_554
Mn3 O4 1.927764 1_555
Mn3 O7 2.031691 1_555
Mn3 O3 2.232404 1_555
Mn4 O5 1.968541 1_554
Mn4 O5 1.968541 1_555
Mn4 O6 1.969056 1_554
Mn4 O6 1.969056 1_555
Mn5 O6 1.972032 1_555
Mn5 O7 1.981797 1_556
Mn5 O7 1.981797 1_555
Mn5 O3 2.033972 1_566
Mn5 O3 2.033972 1_565
F0 Mn1 2.007664 1_555
F0 Mn1 2.007664 1_554
F0 Mn4 2.051612 1_555
F1 Mg0 2.073542 1_555
F1 Mg0 2.073542 1_556
F1 Mn3 2.432091 1_556
F1 Mn3 2.432091 1_555
F2 Mn1 2.007701 1_564
F2 Mn1 2.007701 1_565
F2 Mn4 2.050367 1_555
F3 Mg0 2.068589 1_555
F3 Mg0 2.068589 1_556
F3 Mn0 2.436825 1_655
F3 Mn0 2.436825 1_656
