# generated using pymatgen
data_Ca3Al2Ge3
_symmetry_space_group_name_H-M   'P 1'
_cell_length_a   4.33626495
_cell_length_b   11.39214122
_cell_length_c   14.78043415
_cell_angle_alpha   90.00000000
_cell_angle_beta   90.00000000
_cell_angle_gamma   90.00000000
_symmetry_Int_Tables_number   1
_chemical_formula_structural   Ca3Al2Ge3
_chemical_formula_sum   'Ca12 Al8 Ge12'
_cell_volume   730.14373150
_cell_formula_units_Z   4
loop_
 _symmetry_equiv_pos_site_id
 _symmetry_equiv_pos_as_xyz
  1  'x, y, z'
loop_
 _atom_site_type_symbol
 _atom_site_label
 _atom_site_symmetry_multiplicity
 _atom_site_fract_x
 _atom_site_fract_y
 _atom_site_fract_z
 _atom_site_occupancy
  Ca  Ca0  1  0.25000000  0.89433593  0.56630771  1
  Ca  Ca1  1  0.75000000  0.10566407  0.43369229  1
  Ca  Ca2  1  0.25000000  0.39433593  0.93369229  1
  Ca  Ca3  1  0.75000000  0.60566407  0.06630771  1
  Ca  Ca4  1  0.25000000  0.60566224  0.43779233  1
  Ca  Ca5  1  0.75000000  0.39433776  0.56220767  1
  Ca  Ca6  1  0.25000000  0.10566224  0.06220767  1
  Ca  Ca7  1  0.75000000  0.89433776  0.93779233  1
  Ca  Ca8  1  0.75000000  0.37752092  0.29696191  1
  Ca  Ca9  1  0.25000000  0.62247908  0.70303809  1
  Ca  Ca10  1  0.75000000  0.87752092  0.20303809  1
  Ca  Ca11  1  0.25000000  0.12247908  0.79696191  1
  Al  Al0  1  0.75000000  0.86142475  0.70937843  1
  Al  Al1  1  0.25000000  0.13857525  0.29062157  1
  Al  Al2  1  0.75000000  0.36142475  0.79062157  1
  Al  Al3  1  0.25000000  0.63857525  0.20937843  1
  Al  Al4  1  0.25000000  0.68417685  0.91096408  1
  Al  Al5  1  0.75000000  0.31582315  0.08903592  1
  Al  Al6  1  0.25000000  0.18417685  0.58903592  1
  Al  Al7  1  0.75000000  0.81582315  0.41096408  1
  Ge  Ge0  1  0.25000000  0.92893508  0.36335077  1
  Ge  Ge1  1  0.75000000  0.07106492  0.63664923  1
  Ge  Ge2  1  0.25000000  0.42893508  0.13664923  1
  Ge  Ge3  1  0.75000000  0.57106492  0.86335077  1
  Ge  Ge4  1  0.25000000  0.85951902  0.79922177  1
  Ge  Ge5  1  0.75000000  0.14048098  0.20077823  1
  Ge  Ge6  1  0.25000000  0.35951902  0.70077823  1
  Ge  Ge7  1  0.75000000  0.64048098  0.29922177  1
  Ge  Ge8  1  0.25000000  0.29916381  0.43389844  1
  Ge  Ge9  1  0.75000000  0.70083619  0.56610156  1
  Ge  Ge10  1  0.25000000  0.79916381  0.06610156  1
  Ge  Ge11  1  0.75000000  0.20083619  0.93389844  1
loop_
_geom_bond_atom_site_label_1
_geom_bond_atom_site_label_2
_geom_bond_distance
_geom_bond_site_symmetry_2
Ca0 Ge0 3.025576 1_555
Ca0 Ge9 3.091938 1_555
Ca0 Ge9 3.091938 1_455
Ca0 Ge1 3.136111 1_565
Ca0 Ge1 3.136111 1_465
Ca0 Ge4 3.465345 1_555
Ca1 Ge1 3.025576 1_555
Ca1 Ge8 3.091938 1_555
Ca1 Ge8 3.091938 1_655
Ca1 Ge0 3.136111 1_545
Ca1 Ge0 3.136111 1_645
Ca1 Ge5 3.465345 1_555
Ca2 Ge2 3.025576 1_556
Ca2 Ge11 3.091938 1_555
Ca2 Ge11 3.091938 1_455
Ca2 Ge3 3.136111 1_555
Ca2 Ge3 3.136111 1_455
Ca2 Ge6 3.465345 1_555
Ca3 Ge3 3.025576 1_554
Ca3 Ge10 3.091938 1_655
Ca3 Ge10 3.091938 1_555
Ca3 Ge2 3.136111 1_555
Ca3 Ge2 3.136111 1_655
Ca3 Ge7 3.465345 1_555
Ca4 Ge7 3.008818 1_455
Ca4 Ge7 3.008818 1_555
Ca4 Ge9 3.077815 1_555
Ca4 Ge9 3.077815 1_455
Ca4 Ge8 3.492148 1_555
Ca5 Ge6 3.008818 1_655
Ca5 Ge6 3.008818 1_555
Ca5 Ge8 3.077815 1_555
Ca5 Ge8 3.077815 1_655
Ca5 Ge9 3.492148 1_555
Ca6 Ge5 3.008818 1_555
Ca6 Ge5 3.008818 1_455
Ca6 Ge11 3.077815 1_554
Ca6 Ge11 3.077815 1_454
Ca6 Ge10 3.492148 1_545
Ca7 Ge4 3.008818 1_655
Ca7 Ge4 3.008818 1_555
Ca7 Ge10 3.077815 1_656
Ca7 Ge10 3.077815 1_556
Ca7 Ge11 3.492148 1_565
Ca8 Ge7 2.995864 1_555
Ca8 Ge5 3.051749 1_555
Ca8 Ge8 3.097440 1_555
Ca8 Ge8 3.097440 1_655
Ca8 Ge2 3.264713 1_555
Ca8 Ge2 3.264713 1_655
Ca9 Ge6 2.995864 1_555
Ca9 Ge4 3.051749 1_555
Ca9 Ge9 3.097440 1_455
Ca9 Ge9 3.097440 1_555
Ca9 Ge3 3.264713 1_455
Ca9 Ge3 3.264713 1_555
Ca10 Ge5 2.995864 1_565
Ca10 Ge7 3.051749 1_555
Ca10 Ge10 3.097440 1_655
Ca10 Ge10 3.097440 1_555
Ca10 Ge0 3.264713 1_555
Ca10 Ge0 3.264713 1_655
Ca11 Ge4 2.995864 1_545
Ca11 Ge6 3.051749 1_555
Ca11 Ge11 3.097440 1_455
Ca11 Ge11 3.097440 1_555
Ca11 Ge1 3.264713 1_455
Ca11 Ge1 3.264713 1_555
Al0 Ge4 2.542568 1_555
Al0 Ge4 2.542568 1_655
Al0 Ge1 2.619026 1_565
Al0 Ge9 2.798483 1_555
Al0 Ca0 3.051738 1_555
Al0 Ca0 3.051738 1_655
Al0 Ca7 3.396814 1_555
Al0 Ca9 3.481296 1_555
Al0 Ca9 3.481296 1_655
Al1 Ge5 2.542568 1_555
Al1 Ge5 2.542568 1_455
Al1 Ge0 2.619026 1_545
Al1 Ge8 2.798483 1_555
Al1 Ca1 3.051738 1_455
Al1 Ca1 3.051738 1_555
Al1 Ca6 3.396814 1_555
Al1 Ca8 3.481296 1_555
Al1 Ca8 3.481296 1_455
Al2 Ge6 2.542568 1_655
Al2 Ge6 2.542568 1_555
Al2 Ge3 2.619026 1_555
Al2 Ge11 2.798483 1_555
Al2 Ca2 3.051738 1_555
Al2 Ca2 3.051738 1_655
Al2 Ca5 3.396814 1_555
Al2 Ca11 3.481296 1_555
Al2 Ca11 3.481296 1_655
Al3 Ge7 2.542568 1_555
Al3 Ge7 2.542568 1_455
Al3 Ge2 2.619026 1_555
Al3 Ge10 2.798483 1_555
Al3 Ca3 3.051738 1_455
Al3 Ca3 3.051738 1_555
Al3 Ca4 3.396814 1_555
Al3 Ca10 3.481296 1_455
Al3 Ca10 3.481296 1_555
Al4 Ge4 2.591887 1_555
Al4 Ge3 2.618494 1_455
Al4 Ge3 2.618494 1_555
Al4 Ge10 2.640797 1_556
Al4 Ca9 3.152587 1_555
Al4 Ca7 3.254251 1_455
Al4 Ca7 3.254251 1_555
Al4 Ca3 3.282168 1_556
Al4 Ca3 3.282168 1_456
Al4 Ca2 3.318953 1_555
Al5 Ge5 2.591887 1_555
Al5 Ge2 2.618494 1_655
Al5 Ge2 2.618494 1_555
Al5 Ge11 2.640797 1_554
Al5 Ca8 3.152587 1_555
Al5 Ca6 3.254251 1_555
Al5 Ca6 3.254251 1_655
Al5 Ca2 3.282168 1_554
Al5 Ca2 3.282168 1_654
Al5 Ca3 3.318953 1_555
Al6 Ge6 2.591887 1_555
Al6 Ge1 2.618494 1_555
Al6 Ge1 2.618494 1_455
Al6 Ge8 2.640797 1_555
Al6 Ca11 3.152587 1_555
Al6 Ca5 3.254251 1_455
Al6 Ca5 3.254251 1_555
Al6 Ca1 3.282168 1_455
Al6 Ca1 3.282168 1_555
Al6 Ca0 3.318953 1_545
Al7 Ge7 2.591887 1_555
Al7 Ge0 2.618494 1_655
Al7 Ge0 2.618494 1_555
Al7 Ge9 2.640797 1_555
Al7 Ca10 3.152587 1_555
Al7 Ca4 3.254251 1_655
Al7 Ca4 3.254251 1_555
Al7 Ca0 3.282168 1_555
Al7 Ca0 3.282168 1_655
Al7 Ca1 3.318953 1_565
