# generated using pymatgen
data_NaCu3(RuO3)4
_symmetry_space_group_name_H-M   'P 1'
_cell_length_a   6.44701354
_cell_length_b   6.44701354
_cell_length_c   6.44701354
_cell_angle_alpha   109.47122063
_cell_angle_beta   109.47122063
_cell_angle_gamma   109.47122063
_symmetry_Int_Tables_number   1
_chemical_formula_structural   NaCu3(RuO3)4
_chemical_formula_sum   'Na1 Cu3 Ru4 O12'
_cell_volume   206.27844801
_cell_formula_units_Z   1
loop_
 _symmetry_equiv_pos_site_id
 _symmetry_equiv_pos_as_xyz
  1  'x, y, z'
loop_
 _atom_site_type_symbol
 _atom_site_label
 _atom_site_symmetry_multiplicity
 _atom_site_fract_x
 _atom_site_fract_y
 _atom_site_fract_z
 _atom_site_occupancy
  Na  Na0  1  0.00000000  0.00000000  0.00000000  1
  Cu  Cu0  1  0.50000000  0.50000000  0.00000000  1
  Cu  Cu1  1  0.50000000  0.00000000  0.50000000  1
  Cu  Cu2  1  0.00000000  0.50000000  0.50000000  1
  Ru  Ru0  1  0.00000000  0.00000000  0.50000000  1
  Ru  Ru1  1  0.00000000  0.50000000  0.00000000  1
  Ru  Ru2  1  0.50000000  0.50000000  0.50000000  1
  Ru  Ru3  1  0.50000000  0.00000000  0.00000000  1
  O  O0  1  0.17522100  0.68845000  0.86367100  1
  O  O1  1  0.82477900  0.31155000  0.13632900  1
  O  O2  1  0.82477900  0.68845000  0.51322900  1
  O  O3  1  0.13632900  0.82477900  0.31155000  1
  O  O4  1  0.68845000  0.86367100  0.17522100  1
  O  O5  1  0.31155000  0.48677100  0.17522100  1
  O  O6  1  0.48677100  0.17522100  0.31155000  1
  O  O7  1  0.31155000  0.13632900  0.82477900  1
  O  O8  1  0.17522100  0.31155000  0.48677100  1
  O  O9  1  0.86367100  0.17522100  0.68845000  1
  O  O10  1  0.68845000  0.51322900  0.82477900  1
  O  O11  1  0.51322900  0.82477900  0.68845000  1
loop_
_geom_bond_atom_site_label_1
_geom_bond_atom_site_label_2
_geom_bond_distance
_geom_bond_site_symmetry_2
Na0 O8 2.660941 1_555
Na0 O6 2.660941 1_555
Na0 O5 2.660941 1_555
Na0 O0 2.660941 1_544
Na0 O4 2.660941 1_445
Na0 O9 2.660941 1_454
Na0 O11 2.660941 1_444
Na0 O2 2.660941 1_444
Na0 O10 2.660941 1_444
Na0 O1 2.660941 1_455
Na0 O3 2.660941 1_545
Na0 O7 2.660941 1_554
Cu0 O4 1.915617 1_555
Cu0 O5 1.915617 1_555
Cu0 O7 1.915617 1_554
Cu0 O10 1.915617 1_554
Cu1 O6 1.915617 1_555
Cu1 O9 1.915617 1_555
Cu1 O3 1.915617 1_545
Cu1 O11 1.915617 1_545
Cu2 O1 1.915617 1_455
Cu2 O0 1.915617 1_555
Cu2 O8 1.915617 1_555
Cu2 O2 1.915617 1_455
O0 Ru3 1.995873 1_566
O0 Ru1 1.995873 1_556
O1 Ru3 1.995873 1_555
O1 Ru1 1.995873 1_655
O2 Ru2 1.995873 1_555
O2 Ru0 1.995873 1_665
O3 Ru1 1.995873 1_555
O3 Ru0 1.995873 1_565
O4 Ru3 1.995873 1_565
O4 Ru0 1.995873 1_665
O5 Ru2 1.995873 1_555
O5 Ru1 1.995873 1_555
O6 Ru2 1.995873 1_555
O6 Ru3 1.995873 1_555
O7 Ru0 1.995873 1_555
O7 Ru3 1.995873 1_556
O8 Ru2 1.995873 1_555
O8 Ru0 1.995873 1_555
O9 Ru1 1.995873 1_656
O9 Ru0 1.995873 1_655
O10 Ru2 1.995873 1_555
O10 Ru1 1.995873 1_656
O11 Ru3 1.995873 1_566
O11 Ru2 1.995873 1_555
