# generated using pymatgen
data_Na3CoO2
_symmetry_space_group_name_H-M   'P 1'
_cell_length_a   4.67912200
_cell_length_b   9.44718008
_cell_length_c   9.44721312
_cell_angle_alpha   90.00188614
_cell_angle_beta   90.00000000
_cell_angle_gamma   90.00000000
_symmetry_Int_Tables_number   1
_chemical_formula_structural   Na3CoO2
_chemical_formula_sum   'Na12 Co4 O8'
_cell_volume   417.60940916
_cell_formula_units_Z   4
loop_
 _symmetry_equiv_pos_site_id
 _symmetry_equiv_pos_as_xyz
  1  'x, y, z'
loop_
 _atom_site_type_symbol
 _atom_site_label
 _atom_site_symmetry_multiplicity
 _atom_site_fract_x
 _atom_site_fract_y
 _atom_site_fract_z
 _atom_site_occupancy
  Na  Na0  1  0.50000000  0.14127100  0.14126900  1
  Na  Na1  1  0.50000000  0.85872300  0.85872200  1
  Na  Na2  1  0.00000000  0.35871500  0.64128400  1
  Na  Na3  1  0.00000000  0.64128300  0.35871700  1
  Na  Na4  1  0.00000000  0.02607700  0.65834600  1
  Na  Na5  1  0.00000000  0.97392100  0.34165300  1
  Na  Na6  1  0.50000000  0.84163500  0.52607400  1
  Na  Na7  1  0.50000000  0.15836500  0.47392600  1
  Na  Na8  1  0.00000000  0.65834700  0.02607900  1
  Na  Na9  1  0.50000000  0.47392600  0.15836600  1
  Na  Na10  1  0.00000000  0.34165000  0.97392200  1
  Na  Na11  1  0.50000000  0.52607500  0.84163500  1
  Co  Co0  1  0.00000000  0.32302000  0.32306300  1
  Co  Co1  1  0.50000000  0.82300800  0.17693100  1
  Co  Co2  1  0.50000000  0.17690100  0.82297900  1
  Co  Co3  1  0.00000000  0.67695500  0.67695600  1
  O  O0  1  0.50000000  0.04010200  0.69519300  1
  O  O1  1  0.00000000  0.80483200  0.54006500  1
  O  O2  1  0.50000000  0.69517200  0.04008500  1
  O  O3  1  0.00000000  0.45994200  0.19515100  1
  O  O4  1  0.50000000  0.30488000  0.95997500  1
  O  O5  1  0.00000000  0.54006600  0.80483600  1
  O  O6  1  0.50000000  0.95995300  0.30485800  1
  O  O7  1  0.00000000  0.19518100  0.45991300  1
loop_
_geom_bond_atom_site_label_1
_geom_bond_atom_site_label_2
_geom_bond_distance
_geom_bond_site_symmetry_2
Na0 O4 2.307078 1_554
Na0 O6 2.307119 1_545
Na1 O0 2.307167 1_565
Na1 O2 2.307195 1_556
Na2 O5 2.307041 1_555
Na2 O7 2.307068 1_555
Na3 O1 2.307002 1_555
Na3 O3 2.307059 1_555
Na4 O0 2.369024 1_555
Na4 O0 2.369024 1_455
Na4 O1 2.370059 1_545
Na4 O7 2.463058 1_555
Na5 O6 2.368921 1_555
Na5 O6 2.368921 1_455
Na5 O7 2.370090 1_565
Na5 O1 2.462815 1_555
Na6 O1 2.368946 1_655
Na6 O1 2.368946 1_555
Na6 O6 2.370051 1_555
Na6 O0 2.463313 1_565
Na7 O7 2.368975 1_555
Na7 O7 2.368975 1_655
Na7 O0 2.370231 1_555
Na7 O6 2.462605 1_545
Na8 O2 2.368983 1_555
Na8 O2 2.368983 1_455
Na8 O5 2.370047 1_554
Na8 O3 2.462659 1_555
Na9 O3 2.368917 1_655
Na9 O3 2.368917 1_555
Na9 O2 2.370132 1_555
Na9 O4 2.462320 1_554
Na10 O4 2.368876 1_555
Na10 O4 2.368876 1_455
Na10 O3 2.369979 1_556
Na10 O5 2.462824 1_555
Na11 O5 2.368940 1_555
Na11 O5 2.368940 1_655
Na11 O4 2.369970 1_555
Na11 O2 2.463057 1_556
Co0 O7 1.769223 1_555
Co0 O3 1.770190 1_555
Co1 O2 1.769118 1_555
Co1 O6 1.770388 1_555
Co2 O0 1.768471 1_555
Co2 O4 1.771076 1_555
Co3 O1 1.769751 1_555
Co3 O5 1.769756 1_555
