# generated using pymatgen
data_YAl(SO4)3
_symmetry_space_group_name_H-M   'P 1'
_cell_length_a   8.69005750
_cell_length_b   8.69005723
_cell_length_c   22.92622251
_cell_angle_alpha   90.00000000
_cell_angle_beta   90.00000000
_cell_angle_gamma   120.00000104
_symmetry_Int_Tables_number   1
_chemical_formula_structural   YAl(SO4)3
_chemical_formula_sum   'Y6 Al6 S18 O72'
_cell_volume   1499.36861809
_cell_formula_units_Z   6
loop_
 _symmetry_equiv_pos_site_id
 _symmetry_equiv_pos_as_xyz
  1  'x, y, z'
loop_
 _atom_site_type_symbol
 _atom_site_label
 _atom_site_symmetry_multiplicity
 _atom_site_fract_x
 _atom_site_fract_y
 _atom_site_fract_z
 _atom_site_occupancy
  Y  Y0  1  0.00000000  0.00000000  0.84829231  1
  Y  Y1  1  0.66666700  0.33333300  0.98504069  1
  Y  Y2  1  0.33333300  0.66666700  0.03066615  1
  Y  Y3  1  0.33333300  0.66666700  0.52141572  1
  Y  Y4  1  0.33333300  0.66666700  0.31191828  1
  Y  Y5  1  0.33333300  0.66666700  0.80266785  1
  Al  Al0  1  0.00000000  0.00000000  0.34997968  1
  Al  Al1  1  0.00000000  0.00000000  0.64300049  1
  Al  Al2  1  0.00000000  0.00000000  0.15157099  1
  Al  Al3  1  0.66666700  0.33333300  0.68176201  1
  Al  Al4  1  0.66666700  0.33333300  0.19033251  1
  Al  Al5  1  0.66666700  0.33333300  0.48335332  1
  S  S0  1  0.28744803  0.01869604  0.24814028  1
  S  S1  1  0.73124801  0.71255197  0.24814028  1
  S  S2  1  0.98130396  0.26875199  0.24814028  1
  S  S3  1  0.30080569  0.27982417  0.73894585  1
  S  S4  1  0.97901848  0.69919431  0.73894585  1
  S  S5  1  0.72017583  0.02098152  0.73894585  1
  S  S6  1  0.93541899  0.31463696  0.58519272  1
  S  S7  1  0.37921897  0.06458101  0.58519272  1
  S  S8  1  0.68536304  0.62078103  0.58519272  1
  S  S9  1  0.94649117  0.63413869  0.09438715  1
  S  S10  1  0.68764852  0.05350883  0.09438715  1
  S  S11  1  0.36586131  0.31235148  0.09438715  1
  S  S12  1  0.62460831  0.66666700  0.91666700  1
  S  S13  1  0.04205769  0.37539169  0.91666700  1
  S  S14  1  0.33333300  0.95794231  0.91666700  1
  S  S15  1  0.64831868  0.98165268  0.41666700  1
  S  S16  1  0.33333300  0.35168132  0.41666700  1
  S  S17  1  0.01834732  0.66666700  0.41666700  1
  O  O0  1  0.20481140  0.04592567  0.30111991  1
  O  O1  1  0.84111426  0.79518860  0.30111991  1
  O  O2  1  0.95407433  0.15888574  0.30111991  1
  O  O3  1  0.23476372  0.18106908  0.79439215  1
  O  O4  1  0.94630536  0.76523628  0.79439215  1
  O  O5  1  0.81893092  0.05369464  0.79439215  1
  O  O6  1  0.81520284  0.99065339  0.69088068  1
  O  O7  1  0.17545054  0.18479716  0.69088068  1
  O  O8  1  0.00934661  0.82454946  0.69088068  1
  O  O9  1  0.81188382  0.82664764  0.19654004  1
  O  O10  1  0.01476382  0.18811618  0.19654004  1
  O  O11  1  0.17335236  0.98523618  0.19654004  1
  O  O12  1  0.85478318  0.34809682  0.63679296  1
  O  O13  1  0.49331464  0.14521682  0.63679296  1
  O  O14  1  0.65190318  0.50668536  0.63679296  1
  O  O15  1  0.85146416  0.50878354  0.14245232  1
  O  O16  1  0.65732039  0.14853584  0.14245232  1
  O  O17  1  0.49121646  0.34267961  0.14245232  1
  O  O18  1  0.43190328  0.27963836  0.03894085  1
  O  O19  1  0.84773608  0.56809672  0.03894085  1
  O  O20  1  0.72036164  0.15226392  0.03894085  1
  O  O21  1  0.46185560  0.17444726  0.53221309  1
  O  O22  1  0.71259267  0.53814440  0.53221309  1
  O  O23  1  0.82555274  0.28740733  0.53221309  1
  O  O24  1  0.53823355  0.68400647  0.96979519  1
  O  O25  1  0.14577192  0.46176645  0.96979519  1
  O  O26  1  0.31599353  0.85422808  0.96979519  1
  O  O27  1  0.57108927  0.85942532  0.46718484  1
  O  O28  1  0.28833506  0.42891073  0.46718484  1
  O  O29  1  0.14057468  0.71166494  0.46718484  1
  O  O30  1  0.09557673  0.62166906  0.36614916  1
  O  O31  1  0.52609132  0.90442327  0.36614916  1
  O  O32  1  0.37833094  0.47390868  0.36614916  1
  O  O33  1  0.12843245  0.47910592  0.86353881  1
  O  O34  1  0.35067247  0.87156755  0.86353881  1
  O  O35  1  0.52089408  0.64932753  0.86353881  1
  O  O36  1  0.99883811  0.82229343  0.40198855  1
  O  O37  1  0.82345532  0.00116189  0.40198855  1
  O  O38  1  0.17770657  0.17654468  0.40198855  1
  O  O39  1  0.02582216  0.19972771  0.91243142  1
  O  O40  1  0.17390556  0.97417784  0.91243142  1
  O  O41  1  0.80027229  0.82609444  0.91243142  1
  O  O42  1  0.95389528  0.15534863  0.59343752  1
  O  O43  1  0.20145335  0.04610472  0.59343752  1
  O  O44  1  0.84465137  0.79854665  0.59343752  1
  O  O45  1  0.96932538  0.81152786  0.10372587  1
  O  O46  1  0.84220248  0.03067462  0.10372587  1
  O  O47  1  0.18847214  0.15779752  0.10372587  1
  O  O48  1  0.69734162  0.17553548  0.72960713  1
  O  O49  1  0.47819486  0.30265838  0.72960713  1
  O  O50  1  0.82446452  0.52180514  0.72960713  1
  O  O51  1  0.71277172  0.53478635  0.23989548  1
  O  O52  1  0.82201563  0.28722828  0.23989548  1
  O  O53  1  0.46521365  0.17798437  0.23989548  1
  O  O54  1  0.64084484  0.50723856  0.92090158  1
  O  O55  1  0.86639471  0.35915516  0.92090158  1
  O  O56  1  0.49276144  0.13360529  0.92090158  1
  O  O57  1  0.66782889  0.15678832  0.43134445  1
  O  O58  1  0.48896043  0.33217111  0.43134445  1
  O  O59  1  0.84321168  0.51103957  0.43134445  1
  O  O60  1  0.35130120  0.47360756  0.08965579  1
  O  O61  1  0.12230536  0.64869880  0.08965579  1
  O  O62  1  0.52639244  0.87769464  0.08965579  1
  O  O63  1  0.36012674  0.88718869  0.57830519  1
  O  O64  1  0.52706095  0.63987326  0.57830519  1
  O  O65  1  0.11281131  0.47293905  0.57830519  1
  O  O66  1  0.30653926  0.86039495  0.25502881  1
  O  O67  1  0.55385469  0.69346074  0.25502881  1
  O  O68  1  0.13960505  0.44614531  0.25502881  1
  O  O69  1  0.31536480  0.45563936  0.74367821  1
  O  O70  1  0.14027356  0.68463520  0.74367821  1
  O  O71  1  0.54436064  0.85972644  0.74367821  1
loop_
_geom_bond_atom_site_label_1
_geom_bond_atom_site_label_2
_geom_bond_distance
_geom_bond_site_symmetry_2
Al0 O36 1.947062 1_445
Al0 O38 1.947062 1_555
Al0 O37 1.947062 1_455
Al0 O1 1.967614 1_445
Al0 O0 1.967614 1_555
Al0 O2 1.967615 1_455
Al1 O8 1.913123 1_545
Al1 O7 1.913123 1_555
Al1 O6 1.913124 1_445
Al1 O44 1.953209 1_445
Al1 O42 1.953209 1_455
Al1 O43 1.953209 1_555
Al2 O45 1.876213 1_445
Al2 O47 1.876213 1_555
Al2 O46 1.876213 1_455
Al2 O10 1.882021 1_555
Al2 O9 1.882021 1_445
Al2 O11 1.882021 1_545
Al3 O50 1.876213 1_555
Al3 O48 1.876213 1_555
Al3 O49 1.876213 1_555
Al3 O13 1.882021 1_555
Al3 O14 1.882021 1_555
Al3 O12 1.882021 1_555
Al4 O17 1.913123 1_555
Al4 O15 1.913123 1_555
Al4 O16 1.913123 1_555
Al4 O51 1.953209 1_555
Al4 O53 1.953209 1_555
Al4 O52 1.953209 1_555
Al5 O59 1.947062 1_555
Al5 O57 1.947062 1_555
Al5 O58 1.947062 1_555
Al5 O22 1.967614 1_555
Al5 O21 1.967614 1_555
Al5 O23 1.967615 1_555
O0 S0 1.488932 1_555
O1 S1 1.488932 1_555
O2 S2 1.488932 1_555
O3 S3 1.479601 1_555
O3 Y0 2.225952 1_555
O4 S4 1.479601 1_555
O4 Y0 2.225952 1_665
O5 S5 1.479601 1_555
O5 Y0 2.225952 1_655
O6 S5 1.477609 1_565
O7 S3 1.477609 1_555
O8 S4 1.477609 1_455
O9 S1 1.476077 1_555
O10 S2 1.476077 1_455
O11 S0 1.476077 1_565
O12 S6 1.476077 1_555
O13 S7 1.476077 1_555
O14 S8 1.476077 1_555
O15 S9 1.477609 1_555
O16 S10 1.477609 1_555
O17 S11 1.477609 1_555
O18 S11 1.479601 1_555
O18 Y1 2.225952 1_554
O19 S9 1.479601 1_555
O19 Y1 2.225952 1_554
O20 S10 1.479601 1_555
O20 Y1 2.225952 1_554
O21 S7 1.488932 1_555
O22 S8 1.488932 1_555
O23 S6 1.488932 1_555
O24 S12 1.477431 1_555
O24 Y2 2.207366 1_556
O25 S13 1.477431 1_555
O25 Y2 2.207366 1_556
O26 S14 1.477431 1_555
O26 Y2 2.207366 1_556
O27 S15 1.485646 1_555
O27 Y3 2.271483 1_555
O28 S16 1.485646 1_555
O28 Y3 2.271483 1_555
O29 S17 1.485646 1_555
O29 Y3 2.271483 1_555
O30 S17 1.485646 1_555
O30 Y4 2.271483 1_555
O31 S15 1.485646 1_555
O31 Y4 2.271483 1_555
O32 S16 1.485646 1_555
O32 Y4 2.271483 1_555
O33 S13 1.477431 1_555
O33 Y5 2.207366 1_555
O34 S14 1.477431 1_555
O34 Y5 2.207366 1_555
O35 S12 1.477431 1_555
O35 Y5 2.207366 1_555
O36 S17 1.483328 1_655
O37 S15 1.483337 1_545
O38 S16 1.483333 1_555
O39 S13 1.464327 1_555
O39 Y0 2.199004 1_555
O40 S14 1.464319 1_555
O40 Y0 2.199005 1_565
O41 S12 1.464324 1_555
O41 Y0 2.199005 1_665
O42 S6 1.483185 1_555
O43 S7 1.483194 1_555
O44 S8 1.483190 1_555
O45 S9 1.468203 1_555
O46 S10 1.468194 1_555
O47 S11 1.468199 1_555
O48 S5 1.468194 1_555
O49 S3 1.468203 1_555
O50 S4 1.468199 1_555
O51 S1 1.483194 1_555
O52 S2 1.483185 1_555
O53 S0 1.483190 1_555
O54 S12 1.464331 1_555
O54 Y1 2.199005 1_555
O55 S13 1.464314 1_655
O55 Y1 2.199005 1_555
O56 S14 1.464321 1_545
O56 Y1 2.199005 1_555
O57 S15 1.483320 1_545
O58 S16 1.483337 1_555
O59 S17 1.483327 1_655
O60 S11 1.472682 1_555
O60 Y2 2.220366 1_555
O61 S9 1.472665 1_455
O61 Y2 2.220366 1_555
O62 S10 1.472673 1_565
O62 Y2 2.220366 1_555
O63 S7 1.474135 1_565
O63 Y3 2.231926 1_555
O64 S8 1.474152 1_555
O64 Y3 2.231926 1_555
O65 S6 1.474142 1_455
O65 Y3 2.231926 1_555
O66 S0 1.474141 1_565
O66 Y4 2.231926 1_555
O67 S1 1.474149 1_555
O67 Y4 2.231926 1_555
O68 S2 1.474146 1_455
O68 Y4 2.231926 1_555
O69 S3 1.472679 1_555
O69 Y5 2.220366 1_555
O70 S4 1.472671 1_455
O70 Y5 2.220366 1_555
O71 S5 1.472675 1_565
O71 Y5 2.220366 1_555
