# generated using pymatgen
data_MgCo6(O2F)4
_symmetry_space_group_name_H-M   'P 1'
_cell_length_a   4.90676725
_cell_length_b   4.89989533
_cell_length_c   8.68769549
_cell_angle_alpha   89.45122925
_cell_angle_beta   89.27800658
_cell_angle_gamma   100.44224998
_symmetry_Int_Tables_number   1
_chemical_formula_structural   MgCo6(O2F)4
_chemical_formula_sum   'Mg1 Co6 O8 F4'
_cell_volume   205.38456266
_cell_formula_units_Z   1
loop_
 _symmetry_equiv_pos_site_id
 _symmetry_equiv_pos_as_xyz
  1  'x, y, z'
loop_
 _atom_site_type_symbol
 _atom_site_label
 _atom_site_symmetry_multiplicity
 _atom_site_fract_x
 _atom_site_fract_y
 _atom_site_fract_z
 _atom_site_occupancy
  Mg  Mg0  1  0.00013900  0.50004400  0.33327500  1
  Co  Co0  1  0.98488200  0.01009100  0.00654400  1
  Co  Co1  1  0.99994100  0.00007500  0.33329200  1
  Co  Co2  1  0.01504000  0.98992700  0.65998900  1
  Co  Co3  1  0.52757600  0.46455500  0.15975400  1
  Co  Co4  1  0.49997900  0.49998400  0.83322500  1
  Co  Co5  1  0.47262500  0.53514600  0.50682500  1
  O  O0  1  0.15846700  0.80466300  0.48589000  1
  O  O1  1  0.31457300  0.30231700  0.33618300  1
  O  O2  1  0.31803900  0.28665500  0.99878500  1
  O  O3  1  0.30310100  0.31267900  0.66838700  1
  O  O4  1  0.68185400  0.71330100  0.66775000  1
  O  O5  1  0.69692900  0.68731000  0.99818700  1
  O  O6  1  0.68546800  0.69760300  0.33030900  1
  O  O7  1  0.84148000  0.19545300  0.18065000  1
  F  F0  1  0.17037600  0.77310300  0.16556700  1
  F  F1  1  0.17877000  0.81831600  0.83261800  1
  F  F2  1  0.82112200  0.18167600  0.83394800  1
  F  F3  1  0.82963900  0.22710500  0.50096600  1
loop_
_geom_bond_atom_site_label_1
_geom_bond_atom_site_label_2
_geom_bond_distance
_geom_bond_site_symmetry_2
Mg0 O1 1.965209 1_555
Mg0 O6 1.965713 1_455
Mg0 O0 2.057395 1_555
Mg0 O7 2.057774 1_455
Co0 O5 1.922964 1_544
Co0 O2 1.925024 1_654
Co0 O7 1.959359 1_555
Co0 F2 1.962654 1_554
Co0 F1 2.094345 1_644
Co0 F0 2.114139 1_645
Co1 O0 1.884423 1_645
Co1 O7 1.884433 1_555
Co1 O1 1.936536 1_655
Co1 O6 1.936747 1_545
Co1 F3 2.096442 1_555
Co1 F0 2.096894 1_645
Co2 O3 1.923196 1_565
Co2 O4 1.925294 1_455
Co2 O0 1.959108 1_555
Co2 F1 1.962863 1_555
Co2 F2 2.094561 1_465
Co2 F3 2.114472 1_465
Co3 O5 1.861329 1_554
Co3 O2 1.872782 1_554
Co3 O1 1.925816 1_555
Co3 O6 1.959683 1_555
Co3 O7 2.209666 1_555
Co3 F0 2.513953 1_555
Co4 O4 1.885832 1_555
Co4 O2 1.886530 1_555
Co4 O3 1.888119 1_555
Co4 O5 1.889142 1_555
Co4 F2 2.409697 1_555
Co4 F1 2.410033 1_555
Co5 O3 1.860871 1_555
Co5 O4 1.872243 1_555
Co5 O6 1.926380 1_555
Co5 O1 1.959942 1_555
Co5 O0 2.212168 1_555
Co5 F3 2.511416 1_555
F0 Mg0 2.034106 1_555
F3 Mg0 2.034028 1_655
