# generated using pymatgen
data_TmMnGe
_symmetry_space_group_name_H-M   'P 1'
_cell_length_a   4.05096200
_cell_length_b   6.95890200
_cell_length_c   7.88104500
_cell_angle_alpha   90.00000000
_cell_angle_beta   90.00000000
_cell_angle_gamma   90.00000000
_symmetry_Int_Tables_number   1
_chemical_formula_structural   TmMnGe
_chemical_formula_sum   'Tm4 Mn4 Ge4'
_cell_volume   222.16860961
_cell_formula_units_Z   4
loop_
 _symmetry_equiv_pos_site_id
 _symmetry_equiv_pos_as_xyz
  1  'x, y, z'
loop_
 _atom_site_type_symbol
 _atom_site_label
 _atom_site_symmetry_multiplicity
 _atom_site_fract_x
 _atom_site_fract_y
 _atom_site_fract_z
 _atom_site_occupancy
  Tm  Tm0  1  0.25000000  0.52608400  0.18084600  1
  Tm  Tm1  1  0.75000000  0.47391600  0.81915400  1
  Tm  Tm2  1  0.25000000  0.02608400  0.31915400  1
  Tm  Tm3  1  0.75000000  0.97391600  0.68084600  1
  Mn  Mn0  1  0.75000000  0.36742200  0.44565800  1
  Mn  Mn1  1  0.25000000  0.13257800  0.94565800  1
  Mn  Mn2  1  0.75000000  0.86742200  0.05434200  1
  Mn  Mn3  1  0.25000000  0.63257800  0.55434200  1
  Ge  Ge0  1  0.25000000  0.27300400  0.62127000  1
  Ge  Ge1  1  0.75000000  0.22699600  0.12127000  1
  Ge  Ge2  1  0.25000000  0.77300400  0.87873000  1
  Ge  Ge3  1  0.75000000  0.72699600  0.37873000  1
loop_
_geom_bond_atom_site_label_1
_geom_bond_atom_site_label_2
_geom_bond_distance
_geom_bond_site_symmetry_2
Ge0 Mn0 2.539637 1_455
Ge0 Mn0 2.539637 1_555
Ge0 Mn3 2.557230 1_555
Ge0 Mn1 2.736917 1_555
Ge0 Tm1 2.913670 1_555
Ge0 Tm1 2.913670 1_455
Ge0 Tm2 2.936263 1_555
Ge0 Tm3 2.941927 1_445
Ge0 Tm3 2.941927 1_545
Ge1 Mn1 2.539637 1_654
Ge1 Mn1 2.539637 1_554
Ge1 Mn2 2.557230 1_545
Ge1 Mn0 2.736917 1_555
Ge1 Tm2 2.913670 1_555
Ge1 Tm2 2.913670 1_655
Ge1 Tm1 2.936263 1_554
Ge1 Tm0 2.941927 1_555
Ge1 Tm0 2.941927 1_655
Ge2 Mn2 2.539637 1_556
Ge2 Mn2 2.539637 1_456
Ge2 Mn1 2.557230 1_565
Ge2 Mn3 2.736917 1_555
Ge2 Tm3 2.913670 1_555
Ge2 Tm3 2.913670 1_455
Ge2 Tm0 2.936263 1_556
Ge2 Tm1 2.941927 1_455
Ge2 Tm1 2.941927 1_555
Ge3 Mn3 2.539637 1_655
Ge3 Mn3 2.539637 1_555
Ge3 Mn0 2.557230 1_555
Ge3 Mn2 2.736917 1_555
Ge3 Tm0 2.913670 1_555
Ge3 Tm0 2.913670 1_655
Ge3 Tm3 2.936263 1_555
Ge3 Tm2 2.941927 1_665
Ge3 Tm2 2.941927 1_565
