# generated using pymatgen
data_MgSn4Ru
_symmetry_space_group_name_H-M   'P 1'
_cell_length_a   6.78633221
_cell_length_b   6.78633250
_cell_length_c   7.41301536
_cell_angle_alpha   117.24078581
_cell_angle_beta   117.24078448
_cell_angle_gamma   89.99999704
_symmetry_Int_Tables_number   1
_chemical_formula_structural   MgSn4Ru
_chemical_formula_sum   'Mg2 Sn8 Ru2'
_cell_volume   260.21963656
_cell_formula_units_Z   2
loop_
 _symmetry_equiv_pos_site_id
 _symmetry_equiv_pos_as_xyz
  1  'x, y, z'
loop_
 _atom_site_type_symbol
 _atom_site_label
 _atom_site_symmetry_multiplicity
 _atom_site_fract_x
 _atom_site_fract_y
 _atom_site_fract_z
 _atom_site_occupancy
  Mg  Mg0  1  0.50000000  0.50000000  -0.00000000  1
  Mg  Mg1  1  -0.00000000  0.00000000  -0.00000000  1
  Sn  Sn0  1  0.51494428  0.70550251  0.72044580  1
  Sn  Sn1  1  0.01494428  0.51494428  0.72044580  1
  Sn  Sn2  1  0.70550251  0.20550251  0.72044580  1
  Sn  Sn3  1  0.29449749  0.79449749  0.27955420  1
  Sn  Sn4  1  0.98505572  0.48505572  0.27955420  1
  Sn  Sn5  1  0.48505572  0.29449749  0.27955420  1
  Sn  Sn6  1  0.79449749  0.98505572  0.27955420  1
  Sn  Sn7  1  0.20550251  0.01494428  0.72044580  1
  Ru  Ru0  1  0.75000000  0.75000000  0.50000000  1
  Ru  Ru1  1  0.25000000  0.25000000  0.50000000  1
loop_
_geom_bond_atom_site_label_1
_geom_bond_atom_site_label_2
_geom_bond_distance
_geom_bond_site_symmetry_2
Mg0 Ru1 2.825139 1_554
Mg0 Ru0 2.825139 1_555
Mg0 Sn7 3.014622 1_554
Mg0 Sn6 3.014622 1_555
Mg0 Sn4 3.014624 1_555
Mg0 Sn1 3.014624 1_554
Mg0 Sn3 3.014627 1_555
Mg0 Sn2 3.014627 1_554
Mg0 Sn5 3.014629 1_555
Mg0 Sn0 3.014629 1_554
Mg1 Ru0 2.825139 1_444
Mg1 Ru1 2.825139 1_555
Mg1 Sn0 3.014622 1_444
Mg1 Sn5 3.014622 1_555
Mg1 Sn4 3.014624 1_455
Mg1 Sn1 3.014624 1_544
Mg1 Sn3 3.014627 1_545
Mg1 Sn2 3.014627 1_454
Mg1 Sn6 3.014629 1_445
Mg1 Sn7 3.014629 1_554
Sn0 Sn7 2.969813 1_565
Sn0 Sn5 3.090399 1_555
Sn0 Sn6 3.159118 1_556
Sn0 Sn3 3.258181 1_555
Sn0 Sn4 3.258190 1_455
Sn1 Sn2 2.969813 1_455
Sn1 Sn4 3.090394 1_455
Sn1 Sn3 3.159118 1_556
Sn1 Sn5 3.258190 1_455
Sn1 Sn6 3.258190 1_445
Sn2 Sn3 3.090405 1_545
Sn2 Sn4 3.159118 1_556
Sn2 Sn6 3.258181 1_545
Sn2 Sn5 3.258181 1_555
Sn3 Sn4 2.969813 1_455
Sn3 Sn7 3.258181 1_565
Sn4 Sn7 3.258190 1_665
Sn5 Sn6 2.969813 1_545
Sn5 Sn7 3.159118 1_554
Sn6 Sn7 3.090399 1_665
Ru0 Sn0 2.853841 1_555
Ru0 Sn6 2.853841 1_555
Ru0 Sn4 2.853843 1_555
Ru0 Sn1 2.853843 1_655
Ru0 Sn3 2.853846 1_555
Ru0 Sn2 2.853846 1_565
Ru0 Sn7 2.853849 1_665
Ru0 Sn5 2.853849 1_555
Ru1 Sn5 2.853841 1_555
Ru1 Sn7 2.853841 1_555
Ru1 Sn1 2.853843 1_555
Ru1 Sn4 2.853843 1_455
Ru1 Sn2 2.853846 1_555
Ru1 Sn3 2.853846 1_545
Ru1 Sn6 2.853849 1_445
Ru1 Sn0 2.853849 1_555
