# generated using pymatgen
data_MgTe4Mo2W2(SeS)2
_symmetry_space_group_name_H-M   'P 1'
_cell_length_a   3.39662419
_cell_length_b   3.39657832
_cell_length_c   44.36237990
_cell_angle_alpha   90.22000287
_cell_angle_beta   89.77941224
_cell_angle_gamma   119.99097701
_symmetry_Int_Tables_number   1
_chemical_formula_structural   MgTe4Mo2W2(SeS)2
_chemical_formula_sum   'Mg1 Te4 Mo2 W2 Se2 S2'
_cell_volume   443.27148941
_cell_formula_units_Z   1
loop_
 _symmetry_equiv_pos_site_id
 _symmetry_equiv_pos_as_xyz
  1  'x, y, z'
loop_
 _atom_site_type_symbol
 _atom_site_label
 _atom_site_symmetry_multiplicity
 _atom_site_fract_x
 _atom_site_fract_y
 _atom_site_fract_z
 _atom_site_occupancy
  Mg  Mg0  1  0.66579900  0.33420600  0.37263300  1
  Te  Te0  1  0.33196100  0.66816600  0.70012900  1
  Te  Te1  1  0.66804900  0.33191700  0.05166200  1
  Te  Te2  1  0.66540700  0.33454100  0.13621600  1
  Te  Te3  1  0.33462800  0.66558500  0.61515000  1
  Mo  Mo0  1  0.33331100  0.66662600  0.09394200  1
  Mo  Mo1  1  0.33317200  0.66658800  0.47410500  1
  W  W0  1  0.66516400  0.33496900  0.27401000  1
  W  W1  1  0.66662700  0.33353400  0.65764600  1
  Se  Se0  1  0.66768600  0.33200800  0.43676000  1
  Se  Se1  1  0.66533800  0.33445800  0.51115300  1
  S  S0  1  0.33078600  0.66935400  0.30789400  1
  S  S1  1  0.33278400  0.66733200  0.24029600  1
loop_
_geom_bond_atom_site_label_1
_geom_bond_atom_site_label_2
_geom_bond_distance
_geom_bond_site_symmetry_2
Mg0 Se0 2.844905 1_555
Te0 W1 2.719310 1_555
Te0 W1 2.720167 1_455
Te0 W1 2.720196 1_565
Te3 W1 2.720060 1_565
Te3 W1 2.720165 1_455
Te3 W1 2.720648 1_555
Mo0 Te2 2.713159 1_455
Mo0 Te2 2.713187 1_565
Mo0 Te1 2.713422 1_555
Mo0 Te1 2.713768 1_455
Mo0 Te1 2.713787 1_565
Mo0 Te2 2.714080 1_555
Mo1 Se1 2.558642 1_455
Mo1 Se1 2.558725 1_565
Mo1 Se1 2.558851 1_555
Mo1 Se0 2.566921 1_555
Mo1 Se0 2.567277 1_565
Mo1 Se0 2.567468 1_455
S0 W0 2.470381 1_555
S0 W0 2.471169 1_565
S0 W0 2.471227 1_455
S1 W0 2.466006 1_455
S1 W0 2.466046 1_565
S1 W0 2.466984 1_555
