# generated using pymatgen
data_Zr2Zn2N3
_symmetry_space_group_name_H-M   'P 1'
_cell_length_a   3.22040701
_cell_length_b   3.22040700
_cell_length_c   10.27857600
_cell_angle_alpha   90.00000000
_cell_angle_beta   90.00000000
_cell_angle_gamma   120.00001013
_symmetry_Int_Tables_number   1
_chemical_formula_structural   Zr2Zn2N3
_chemical_formula_sum   'Zr2 Zn2 N3'
_cell_volume   92.31771885
_cell_formula_units_Z   1
loop_
 _symmetry_equiv_pos_site_id
 _symmetry_equiv_pos_as_xyz
  1  'x, y, z'
loop_
 _atom_site_type_symbol
 _atom_site_label
 _atom_site_symmetry_multiplicity
 _atom_site_fract_x
 _atom_site_fract_y
 _atom_site_fract_z
 _atom_site_occupancy
  Zr  Zr0  1  0.66666700  0.33333300  0.86499800  1
  Zr  Zr1  1  0.33333300  0.66666700  0.13500200  1
  Zn  Zn0  1  0.33333300  0.66666700  0.40782500  1
  Zn  Zn1  1  0.66666700  0.33333300  0.59217500  1
  N  N0  1  0.33333300  0.66666700  0.74818400  1
  N  N1  1  0.66666700  0.33333300  0.25181600  1
  N  N2  1  0.00000000  0.00000000  0.00000000  1
loop_
_geom_bond_atom_site_label_1
_geom_bond_atom_site_label_2
_geom_bond_distance
_geom_bond_site_symmetry_2
N0 Zr0 2.213286 1_565
N0 Zr0 2.213286 1_455
N0 Zr0 2.213291 1_555
N0 Zn1 2.455275 1_565
N0 Zn1 2.455275 1_455
N0 Zn1 2.455279 1_555
N1 Zr1 2.213286 1_545
N1 Zr1 2.213286 1_655
N1 Zr1 2.213291 1_555
N1 Zn0 2.455275 1_545
N1 Zn0 2.455275 1_655
N1 Zn0 2.455279 1_555
N2 Zr1 2.320024 1_545
N2 Zr0 2.320024 1_454
N2 Zr1 2.320026 1_555
N2 Zr0 2.320026 1_444
N2 Zr1 2.320026 1_445
N2 Zr0 2.320026 1_554
