# generated using pymatgen
data_Na7Mg2Ga2P5SO24
_symmetry_space_group_name_H-M   'P 1'
_cell_length_a   8.88757857
_cell_length_b   8.87712863
_cell_length_c   21.63830381
_cell_angle_alpha   90.25504928
_cell_angle_beta   89.91156224
_cell_angle_gamma   119.87405141
_symmetry_Int_Tables_number   1
_chemical_formula_structural   Na7Mg2Ga2P5SO24
_chemical_formula_sum   'Na21 Mg6 Ga6 P15 S3 O72'
_cell_volume   1480.31848148
_cell_formula_units_Z   3
loop_
 _symmetry_equiv_pos_site_id
 _symmetry_equiv_pos_as_xyz
  1  'x, y, z'
loop_
 _atom_site_type_symbol
 _atom_site_label
 _atom_site_symmetry_multiplicity
 _atom_site_fract_x
 _atom_site_fract_y
 _atom_site_fract_z
 _atom_site_occupancy
  Na  Na0  1  0.63951382  0.99653793  0.25184160  1
  Na  Na1  1  0.99812114  0.62993296  0.25528651  1
  Na  Na2  1  0.63457587  0.63934864  0.74839489  1
  Na  Na3  1  0.00528931  0.36730234  0.75245350  1
  Na  Na4  1  0.36445680  0.99545631  0.75254121  1
  Na  Na5  1  0.29463942  0.33256942  0.58596771  1
  Na  Na6  1  0.04179241  0.70811521  0.58222498  1
  Na  Na7  1  0.66902311  0.95902993  0.58322690  1
  Na  Na8  1  0.29407024  0.95925565  0.07945874  1
  Na  Na9  1  0.66745862  0.70505567  0.08644142  1
  Na  Na10  1  0.04104016  0.33217535  0.08371402  1
  Na  Na11  1  0.98311841  0.66942734  0.91583597  1
  Na  Na12  1  0.32889425  0.30509986  0.91969767  1
  Na  Na13  1  0.97015938  0.31228285  0.41344694  1
  Na  Na14  1  0.69468695  0.67124856  0.41869895  1
  Na  Na15  1  0.01060218  0.99526588  0.49989045  1
  Na  Na16  1  0.99371513  0.00738392  0.99951856  1
  Na  Na17  1  0.66881090  0.31250916  0.83524009  1
  Na  Na18  1  0.65159240  0.32597459  0.33364191  1
  Na  Na19  1  0.33415905  0.64206721  0.16893750  1
  Na  Na20  1  0.33442327  0.66867867  0.66705708  1
  Mg  Mg0  1  0.00002124  0.00031449  0.64815450  1
  Mg  Mg1  1  0.99866802  0.00213163  0.14812462  1
  Mg  Mg2  1  0.32793336  0.66591389  0.01665819  1
  Mg  Mg3  1  0.33366922  0.67676594  0.51613048  1
  Mg  Mg4  1  0.33263144  0.66427820  0.31759576  1
  Mg  Mg5  1  0.32880325  0.67094990  0.81785640  1
  Ga  Ga0  1  0.98549608  0.98943952  0.34774167  1
  Ga  Ga1  1  0.00627612  0.01028691  0.84632372  1
  Ga  Ga2  1  0.66818165  0.33330367  0.68432598  1
  Ga  Ga3  1  0.67213856  0.33939721  0.18292633  1
  Ga  Ga4  1  0.66731936  0.31908743  0.98413350  1
  Ga  Ga5  1  0.67001808  0.32794761  0.48408243  1
  P  P0  1  0.69945443  0.69527133  0.24780466  1
  P  P1  1  -0.00090872  0.29580512  0.24891373  1
  P  P2  1  0.30159025  0.29812952  0.74887541  1
  P  P3  1  0.99582055  0.70431166  0.74924718  1
  P  P4  1  0.70754757  0.00221852  0.74796141  1
  P  P5  1  0.96079043  0.33426048  0.58360862  1
  P  P6  1  0.37969932  0.04633860  0.58406052  1
  P  P7  1  0.66477056  0.62047598  0.58240784  1
  P  P8  1  0.95714139  0.62284702  0.08236991  1
  P  P9  1  0.66555346  0.04059460  0.08606258  1
  P  P10  1  0.38157881  0.33454042  0.08220634  1
  P  P11  1  0.02729031  0.35988204  0.91656782  1
  P  P12  1  0.33332502  0.97175544  0.91623365  1
  P  P13  1  0.63420302  0.97053096  0.41571830  1
  P  P14  1  0.03061753  0.67067140  0.41655718  1
  S  S0  1  0.29352670  0.00569627  0.24969924  1
  S  S1  1  0.63475433  0.67089191  0.91681951  1
  S  S2  1  0.33202583  0.36407648  0.41744882  1
  O  O0  1  0.20451762  0.02542077  0.30498651  1
  O  O1  1  0.81750860  0.77821720  0.30695931  1
  O  O2  1  0.97257369  0.18020683  0.30763125  1
  O  O3  1  0.21999607  0.18226748  0.80746470  1
  O  O4  1  0.96568728  0.79045066  0.80807757  1
  O  O5  1  0.83140169  0.03702513  0.80370347  1
  O  O6  1  0.78279343  0.97233110  0.68865794  1
  O  O7  1  0.18866321  0.21589717  0.69183845  1
  O  O8  1  0.02192944  0.81347278  0.69184354  1
  O  O9  1  0.78855350  0.80706793  0.19115965  1
  O  O10  1  0.01851829  0.21181586  0.19036971  1
  O  O11  1  0.19443416  0.98390548  0.19279843  1
  O  O12  1  0.87511705  0.36421436  0.64187664  1
  O  O13  1  0.48863898  0.12568310  0.64415461  1
  O  O14  1  0.63708755  0.50874510  0.64133643  1
  O  O15  1  0.87739666  0.51074013  0.14148981  1
  O  O16  1  0.63385395  0.12270828  0.14536719  1
  O  O17  1  0.50084486  0.36497072  0.13843248  1
  O  O18  1  0.46415381  0.30819331  0.02239387  1
  O  O19  1  0.83896708  0.53604205  0.02498246  1
  O  O20  1  0.70092428  0.16083615  0.03009745  1
  O  O21  1  0.46943841  0.16757050  0.52871752  1
  O  O22  1  0.69006738  0.53245161  0.52410146  1
  O  O23  1  0.84924074  0.30604768  0.52480612  1
  O  O24  1  0.55107095  0.68632313  0.97343825  1
  O  O25  1  0.14145093  0.44094972  0.97430884  1
  O  O26  1  0.30536416  0.86122969  0.97406573  1
  O  O27  1  0.55608863  0.85716363  0.47325874  1
  O  O28  1  0.30533303  0.44096463  0.47473634  1
  O  O29  1  0.13164969  0.68997622  0.47607653  1
  O  O30  1  0.11383540  0.63826202  0.35957435  1
  O  O31  1  0.53172880  0.88561797  0.35675707  1
  O  O32  1  0.35823619  0.47748213  0.36420345  1
  O  O33  1  0.11108372  0.47309199  0.85901839  1
  O  O34  1  0.35507735  0.88870339  0.85734584  1
  O  O35  1  0.52871265  0.65006553  0.86139044  1
  O  O36  1  0.00727393  0.83419870  0.41011956  1
  O  O37  1  0.82436515  0.99544573  0.41109948  1
  O  O38  1  0.17409561  0.18962401  0.41033199  1
  O  O39  1  0.00953996  0.17662202  0.90964332  1
  O  O40  1  0.16359119  0.98811405  0.91157646  1
  O  O41  1  0.81262268  0.82413427  0.91318546  1
  O  O42  1  0.97802002  0.17037462  0.58713941  1
  O  O43  1  0.19701266  0.02563797  0.58721754  1
  O  O44  1  0.82912887  0.80129727  0.58534456  1
  O  O45  1  0.97722016  0.80548776  0.08680289  1
  O  O46  1  0.82768550  0.02037257  0.08926214  1
  O  O47  1  0.20045646  0.17031356  0.08659051  1
  O  O48  1  0.69037353  0.17007122  0.74586489  1
  O  O49  1  0.48480313  0.31367493  0.74531446  1
  O  O50  1  0.82859879  0.52008427  0.74655679  1
  O  O51  1  0.68699981  0.51331244  0.24458070  1
  O  O52  1  0.82517296  0.30591086  0.24799650  1
  O  O53  1  0.47091034  0.16029512  0.24825928  1
  O  O54  1  0.65254334  0.51061255  0.91846051  1
  O  O55  1  0.84656139  0.34972603  0.92282505  1
  O  O56  1  0.49226420  0.16055818  0.92137447  1
  O  O57  1  0.65906929  0.15753732  0.42142956  1
  O  O58  1  0.49069190  0.34778769  0.42133882  1
  O  O59  1  0.84129401  0.50566872  0.42003631  1
  O  O60  1  0.36166596  0.49749680  0.07839021  1
  O  O61  1  0.13813099  0.64025670  0.07744867  1
  O  O62  1  0.50240373  0.85969486  0.07985689  1
  O  O63  1  0.36250214  0.86490708  0.57878062  1
  O  O64  1  0.50114116  0.63871525  0.57818745  1
  O  O65  1  0.14232165  0.49744293  0.57940397  1
  O  O66  1  0.31147917  0.84742328  0.25480818  1
  O  O67  1  0.52218388  0.68312409  0.25551259  1
  O  O68  1  0.15189096  0.48170668  0.25560612  1
  O  O69  1  0.32614143  0.48187629  0.75704521  1
  O  O70  1  0.15542478  0.67984667  0.75527706  1
  O  O71  1  0.52513405  0.84247047  0.75644490  1
loop_
_geom_bond_atom_site_label_1
_geom_bond_atom_site_label_2
_geom_bond_distance
_geom_bond_site_symmetry_2
Na0 O52 2.399847 1_565
Na0 O67 2.438431 1_555
Na0 O31 2.472754 1_555
Na0 O66 2.532148 1_555
Na0 O53 2.556571 1_565
Na0 O16 2.577698 1_565
Na0 O2 2.839623 1_565
Na0 O9 2.915824 1_555
Na1 O68 2.321781 1_655
Na1 O51 2.432988 1_555
Na1 O30 2.466848 1_655
Na1 O66 2.475374 1_655
Na1 O52 2.500683 1_555
Na1 O15 2.681051 1_555
Na1 O1 2.765125 1_555
Na2 O69 2.384723 1_555
Na2 O50 2.431899 1_555
Na2 O71 2.443687 1_555
Na2 O49 2.509854 1_555
Na2 O14 2.590916 1_555
Na2 O35 2.636752 1_555
Na2 O4 2.861995 1_555
Na2 O6 2.879822 1_555
Na3 O70 2.406813 1_555
Na3 O48 2.456955 1_455
Na3 O33 2.488148 1_555
Na3 O69 2.507320 1_555
Na3 O50 2.538817 1_455
Na3 O12 2.653407 1_455
Na3 O5 2.779230 1_455
Na3 O7 2.888367 1_555
Na4 O71 2.413329 1_555
Na4 O34 2.446988 1_555
Na4 O70 2.473951 1_555
Na4 O49 2.478272 1_565
Na4 O48 2.518293 1_565
Na4 O13 2.607698 1_565
Na4 O3 2.812426 1_565
Na4 O8 2.948975 1_555
Na5 O64 2.411820 1_555
Na5 O43 2.413066 1_555
Na5 O42 2.440517 1_455
Na5 O65 2.443591 1_555
Na5 O7 2.500110 1_555
Na5 O28 2.580060 1_555
Na5 O21 2.887599 1_555
Na5 O14 2.897796 1_555
Na6 O44 2.411998 1_455
Na6 O65 2.441902 1_555
Na6 O43 2.446198 1_565
Na6 O29 2.461399 1_555
Na6 O63 2.472922 1_555
Na6 O8 2.583704 1_555
Na7 O63 2.421027 1_555
Na7 O42 2.436284 1_565
Na7 O44 2.443994 1_555
Na7 O64 2.468755 1_555
Na7 O6 2.475215 1_555
Na7 O27 2.563462 1_555
Na8 O47 2.403391 1_565
Na8 O62 2.416586 1_555
Na8 O45 2.447410 1_455
Na8 O61 2.455836 1_555
Na8 O26 2.456978 1_554
Na8 O11 2.651082 1_555
Na9 O60 2.412799 1_555
Na9 O46 2.427862 1_565
Na9 O45 2.434952 1_555
Na9 O62 2.462745 1_555
Na9 O9 2.476112 1_555
Na9 O24 2.628586 1_554
Na9 O17 2.853812 1_555
Na9 O19 2.932122 1_555
Na10 O61 2.427866 1_555
Na10 O46 2.458673 1_455
Na10 O47 2.470822 1_555
Na10 O60 2.474194 1_555
Na10 O10 2.513023 1_555
Na10 O25 2.547252 1_554
Na10 O20 2.865614 1_455
Na10 O15 2.909338 1_455
Na11 O40 2.462939 1_655
Na11 O55 2.474314 1_555
Na11 O41 2.501915 1_555
Na11 O54 2.548851 1_555
Na11 O4 2.608504 1_555
Na11 O19 2.669380 1_556
Na11 O33 2.791756 1_655
Na11 O26 2.797010 1_655
Na12 O56 2.369053 1_555
Na12 O40 2.446532 1_545
Na12 O39 2.485739 1_555
Na12 O18 2.521653 1_556
Na12 O54 2.524977 1_555
Na12 O3 2.637388 1_555
Na12 O25 2.758372 1_555
Na12 O35 2.955198 1_555
Na13 O57 2.403802 1_555
Na13 O37 2.441449 1_545
Na13 O59 2.497022 1_555
Na13 O38 2.537777 1_655
Na13 O2 2.572688 1_555
Na13 O23 2.626444 1_555
Na13 O30 2.776267 1_655
Na13 O28 2.923400 1_655
Na14 O59 2.401571 1_555
Na14 O36 2.417111 1_655
Na14 O37 2.517391 1_555
Na14 O58 2.519986 1_555
Na14 O22 2.587638 1_555
Na14 O1 2.630396 1_555
Na14 O27 2.763744 1_555
Na14 O32 2.856509 1_555
Na15 O36 2.398297 1_555
Na15 O43 2.438903 1_565
Na15 O44 2.497572 1_455
Na15 O38 2.523335 1_565
Na15 O37 2.538404 1_455
Na15 O42 2.546577 1_465
Na16 O39 2.423541 1_655
Na16 O41 2.469916 1_545
Na16 O46 2.473928 1_556
Na16 O40 2.485021 1_645
Na16 O47 2.521280 1_656
Na16 O45 2.562879 1_546
Na17 O48 2.365183 1_555
Na17 O56 2.379109 1_555
Na17 O55 2.383339 1_555
Na17 O49 2.547103 1_555
Na17 O50 2.551627 1_555
Na17 O54 2.565253 1_555
Na18 O53 2.405697 1_555
Na18 O58 2.438765 1_555
Na18 O57 2.444014 1_555
Na18 O51 2.466544 1_555
Na18 O52 2.471450 1_555
Na18 O59 2.487141 1_555
Na19 O67 2.414872 1_555
Na19 O60 2.415431 1_555
Na19 O68 2.425850 1_555
Na19 O62 2.613450 1_555
Na19 O61 2.633839 1_555
Na19 O66 2.674158 1_555
Na20 O65 2.494368 1_555
Na20 O70 2.516098 1_555
Na20 O63 2.518022 1_555
Na20 O64 2.518609 1_555
Na20 O71 2.524429 1_555
Na20 O69 2.540381 1_555
Mg0 O8 2.004713 1_545
Mg0 O6 2.018938 1_445
Mg0 O7 2.039437 1_555
Mg0 O42 2.091164 1_455
Mg0 O43 2.111356 1_555
Mg0 O44 2.141756 1_445
Mg1 O10 1.997429 1_655
Mg1 O9 2.034824 1_545
Mg1 O46 2.051994 1_555
Mg1 O11 2.067570 1_645
Mg1 O45 2.119647 1_545
Mg1 O47 2.135692 1_655
Mg2 O61 2.059322 1_555
Mg2 O26 2.063275 1_554
Mg2 O25 2.065417 1_554
Mg2 O24 2.116172 1_554
Mg2 O62 2.135889 1_555
Mg2 O60 2.138905 1_555
Mg3 O27 2.046147 1_555
Mg3 O29 2.050383 1_555
Mg3 O63 2.060924 1_555
Mg3 O65 2.148497 1_555
Mg3 O64 2.154919 1_555
Mg3 O28 2.169378 1_555
Mg4 O30 2.051536 1_555
Mg4 O32 2.051843 1_555
Mg4 O31 2.058176 1_555
Mg4 O67 2.094034 1_555
Mg4 O68 2.097633 1_555
Mg4 O66 2.202122 1_555
Mg5 O34 2.014325 1_555
Mg5 O33 2.060438 1_555
Mg5 O70 2.083962 1_555
Mg5 O35 2.100785 1_555
Mg5 O69 2.118969 1_555
Mg5 O71 2.119675 1_555
Ga0 O1 1.929805 1_555
Ga0 O2 1.959962 1_565
Ga0 O37 2.000630 1_555
Ga0 O36 2.010352 1_655
Ga0 O0 2.030948 1_665
Ga0 O38 2.195465 1_665
Ga1 O5 1.922574 1_455
Ga1 O3 1.939947 1_555
Ga1 O4 1.977037 1_445
Ga1 O39 1.999455 1_555
Ga1 O40 2.066377 1_545
Ga1 O41 2.228550 1_445
Ga2 O13 1.938811 1_555
Ga2 O12 1.948275 1_555
Ga2 O14 1.951838 1_555
Ga2 O49 2.034861 1_555
Ga2 O48 2.052913 1_555
Ga2 O50 2.055783 1_555
Ga3 O17 1.909684 1_555
Ga3 O15 1.920485 1_555
Ga3 O16 1.952266 1_555
Ga3 O51 1.989938 1_555
Ga3 O52 2.081621 1_555
Ga3 O53 2.214595 1_555
Ga4 O20 1.866343 1_556
Ga4 O18 1.943519 1_556
Ga4 O19 1.969741 1_556
Ga4 O55 1.984105 1_555
Ga4 O56 2.013343 1_555
Ga4 O54 2.274159 1_555
Ga5 O21 1.901643 1_555
Ga5 O23 1.914634 1_555
Ga5 O22 1.934307 1_555
Ga5 O57 1.992819 1_555
Ga5 O59 2.085018 1_555
Ga5 O58 2.168602 1_555
O0 S0 1.490251 1_555
O1 P0 1.583533 1_555
O2 P1 1.578809 1_655
O3 P2 1.567399 1_555
O4 P3 1.572015 1_555
O5 P4 1.556901 1_555
O6 P4 1.528191 1_565
O7 P2 1.526218 1_555
O8 P3 1.523666 1_455
O9 P0 1.529470 1_555
O10 P1 1.519746 1_555
O11 S0 1.469863 1_565
O12 P5 1.560736 1_555
O13 P6 1.562300 1_555
O14 P7 1.561220 1_555
O15 P8 1.560479 1_555
O16 P9 1.566074 1_555
O17 P10 1.546790 1_555
O18 P10 1.560040 1_555
O19 P8 1.558248 1_555
O20 P9 1.542960 1_555
O21 P6 1.543319 1_555
O22 P7 1.555076 1_555
O23 P5 1.555084 1_555
O24 S1 1.473111 1_555
O25 P11 1.541720 1_555
O26 P12 1.535404 1_555
O27 P13 1.535404 1_555
O28 S2 1.487157 1_555
O29 P14 1.530569 1_555
O30 P14 1.534962 1_555
O31 P13 1.528563 1_555
O32 S2 1.473448 1_555
O33 P11 1.542075 1_555
O34 P12 1.528877 1_555
O35 S1 1.479486 1_555
O36 P14 1.572150 1_555
O37 P13 1.594547 1_555
O38 S2 1.491732 1_555
O39 P11 1.560810 1_555
O40 P12 1.589249 1_555
O41 S1 1.487959 1_555
O42 P5 1.539087 1_555
O43 P6 1.541814 1_555
O44 P7 1.542064 1_555
O45 P8 1.542785 1_555
O46 P9 1.539965 1_555
O47 P10 1.545492 1_555
O48 P4 1.572513 1_555
O49 P2 1.565970 1_555
O50 P3 1.569992 1_555
O51 P0 1.564330 1_555
O52 P1 1.592457 1_655
O53 S0 1.488187 1_555
O54 S1 1.508388 1_555
O55 P11 1.568965 1_655
O56 P12 1.567530 1_545
O57 P13 1.566127 1_545
O58 S2 1.490013 1_555
O59 P14 1.589889 1_655
O60 P10 1.544957 1_555
O61 P8 1.540991 1_455
O62 P9 1.542206 1_565
O63 P6 1.543893 1_565
O64 P7 1.544203 1_555
O65 P5 1.543429 1_455
O66 S0 1.495489 1_565
O67 P0 1.533548 1_555
O68 P1 1.534438 1_555
O69 P2 1.543530 1_555
O70 P3 1.544032 1_455
O71 P4 1.544072 1_565
