# generated using pymatgen
data_MgFe2(NiS2)4
_symmetry_space_group_name_H-M   'P 1'
_cell_length_a   6.93994499
_cell_length_b   6.93994456
_cell_length_c   6.93994545
_cell_angle_alpha   56.91497805
_cell_angle_beta   56.91497993
_cell_angle_gamma   56.91498147
_symmetry_Int_Tables_number   1
_chemical_formula_structural   MgFe2(NiS2)4
_chemical_formula_sum   'Mg1 Fe2 Ni4 S8'
_cell_volume   219.52928028
_cell_formula_units_Z   1
loop_
 _symmetry_equiv_pos_site_id
 _symmetry_equiv_pos_as_xyz
  1  'x, y, z'
loop_
 _atom_site_type_symbol
 _atom_site_label
 _atom_site_symmetry_multiplicity
 _atom_site_fract_x
 _atom_site_fract_y
 _atom_site_fract_z
 _atom_site_occupancy
  Mg  Mg0  1  0.00000000  0.00000000  -0.00000000  1
  Fe  Fe0  1  0.13885064  0.13885064  0.13885064  1
  Fe  Fe1  1  0.86114936  0.86114936  0.86114936  1
  Ni  Ni0  1  0.50000000  0.50000000  0.50000000  1
  Ni  Ni1  1  0.50000000  0.50000000  -0.00000000  1
  Ni  Ni2  1  0.00000000  0.50000000  0.50000000  1
  Ni  Ni3  1  0.50000000  0.00000000  0.50000000  1
  S  S0  1  0.26193472  0.26193472  0.26193472  1
  S  S1  1  0.73919447  0.73919447  0.25997448  1
  S  S2  1  0.25997448  0.73919447  0.73919447  1
  S  S3  1  0.73919447  0.25997448  0.73919447  1
  S  S4  1  0.74002552  0.26080553  0.26080553  1
  S  S5  1  0.26080553  0.74002552  0.26080553  1
  S  S6  1  0.26080553  0.26080553  0.74002552  1
  S  S7  1  0.73806528  0.73806528  0.73806528  1
loop_
_geom_bond_atom_site_label_1
_geom_bond_atom_site_label_2
_geom_bond_distance
_geom_bond_site_symmetry_2
Mg0 S1 2.500670 1_445
Mg0 S6 2.500670 1_554
Mg0 S2 2.500670 1_544
Mg0 S4 2.500670 1_455
Mg0 S3 2.500670 1_454
Mg0 S5 2.500670 1_545
Fe0 S0 2.139809 1_555
Fe0 S5 2.181851 1_545
Fe0 S4 2.181851 1_455
Fe0 S6 2.181851 1_554
Fe0 Mg0 2.413910 1_555
Fe1 S7 2.139809 1_555
Fe1 S3 2.181851 1_565
Fe1 S2 2.181851 1_655
Fe1 S1 2.181851 1_556
Fe1 Mg0 2.413910 1_666
Ni0 S6 2.292724 1_555
Ni0 S1 2.292724 1_555
Ni0 S4 2.292724 1_555
Ni0 S2 2.292724 1_555
Ni0 S5 2.292724 1_555
Ni0 S3 2.292724 1_555
Ni1 S0 2.277277 1_555
Ni1 S7 2.277277 1_554
Ni1 S3 2.408082 1_554
Ni1 S5 2.408082 1_555
Ni1 S4 2.408082 1_555
Ni1 S2 2.408082 1_554
Ni2 S0 2.277277 1_555
Ni2 S7 2.277277 1_455
Ni2 S3 2.408082 1_455
Ni2 S5 2.408082 1_555
Ni2 S1 2.408082 1_455
Ni2 S6 2.408082 1_555
Ni3 S0 2.277277 1_555
Ni3 S7 2.277277 1_545
Ni3 S2 2.408082 1_545
Ni3 S4 2.408082 1_555
Ni3 S1 2.408082 1_545
Ni3 S6 2.408082 1_555
