# generated using pymatgen
data_Ba2MgFeMoO6
_symmetry_space_group_name_H-M   'P 1'
_cell_length_a   6.42783615
_cell_length_b   6.42793575
_cell_length_c   5.70742813
_cell_angle_alpha   116.35783885
_cell_angle_beta   116.35657057
_cell_angle_gamma   101.35281979
_symmetry_Int_Tables_number   1
_chemical_formula_structural   Ba2MgFeMoO6
_chemical_formula_sum   'Ba2 Mg1 Fe1 Mo1 O6'
_cell_volume   164.97780536
_cell_formula_units_Z   1
loop_
 _symmetry_equiv_pos_site_id
 _symmetry_equiv_pos_as_xyz
  1  'x, y, z'
loop_
 _atom_site_type_symbol
 _atom_site_label
 _atom_site_symmetry_multiplicity
 _atom_site_fract_x
 _atom_site_fract_y
 _atom_site_fract_z
 _atom_site_occupancy
  Ba  Ba0  1  0.69542100  0.30459100  0.49999400  1
  Ba  Ba1  1  0.30467400  0.69533400  0.49999900  1
  Mg  Mg0  1  0.99999500  0.00000300  0.50000000  1
  Fe  Fe0  1  0.00078700  0.99921000  0.00001100  1
  Mo  Mo0  1  0.50002800  0.49997900  0.99999900  1
  O  O0  1  0.76762100  0.76767300  0.52102600  1
  O  O1  1  0.23231300  0.23237500  0.47896400  1
  O  O2  1  0.76761300  0.76767500  0.01427100  1
  O  O3  1  0.27529000  0.72471300  0.99999900  1
  O  O4  1  0.23232400  0.23237600  0.98574300  1
  O  O5  1  0.72393500  0.27607200  0.99999500  1
loop_
_geom_bond_atom_site_label_1
_geom_bond_atom_site_label_2
_geom_bond_distance
_geom_bond_site_symmetry_2
Ba0 O4 2.859986 1_554
Ba0 O0 2.860015 1_555
Ba0 O2 2.860065 1_556
Ba0 O1 2.860136 1_555
Ba0 O5 2.867746 1_554
Ba0 O5 2.867796 1_555
Ba0 O3 3.013137 1_655
Ba0 O3 3.013196 1_544
Ba0 Mg0 3.029046 1_555
Ba1 O4 2.859052 1_554
Ba1 O0 2.859071 1_555
Ba1 O2 2.859080 1_556
Ba1 O1 2.859161 1_555
Ba1 O3 2.868625 1_554
Ba1 O3 2.868644 1_555
Ba1 O5 3.015444 1_454
Ba1 O5 3.015447 1_565
Ba1 Mg0 3.029971 1_465
Mg0 O2 1.978791 1_545
Mg0 O1 1.978814 1_655
Mg0 O0 1.978829 1_545
Mg0 O4 1.978850 1_655
Fe0 O1 1.950725 1_565
Fe0 O2 1.950823 1_455
Fe0 O4 1.950831 1_564
Fe0 O0 1.950856 1_454
Fe0 O3 2.729891 1_554
Fe0 O5 2.753332 1_464
Mo0 O2 2.124113 1_556
Mo0 O0 2.124149 1_556
Mo0 O1 2.124186 1_555
Mo0 O4 2.124281 1_555
Mo0 O5 2.226746 1_555
Mo0 O3 2.234991 1_555
