# generated using pymatgen
data_NaMgNiO2
_symmetry_space_group_name_H-M   'P 1'
_cell_length_a   6.65603225
_cell_length_b   5.22589327
_cell_length_c   6.65603090
_cell_angle_alpha   36.80590974
_cell_angle_beta   45.07176288
_cell_angle_gamma   36.80591091
_symmetry_Int_Tables_number   1
_chemical_formula_structural   NaMgNiO2
_chemical_formula_sum   'Na1 Mg1 Ni1 O2'
_cell_volume   81.71924591
_cell_formula_units_Z   1
loop_
 _symmetry_equiv_pos_site_id
 _symmetry_equiv_pos_as_xyz
  1  'x, y, z'
loop_
 _atom_site_type_symbol
 _atom_site_label
 _atom_site_symmetry_multiplicity
 _atom_site_fract_x
 _atom_site_fract_y
 _atom_site_fract_z
 _atom_site_occupancy
  Na  Na0  1  0.50000000  0.50000000  0.50000000  1
  Mg  Mg0  1  -0.00000000  0.50000000  -0.00000000  1
  Ni  Ni0  1  -0.00000000  0.00000000  -0.00000000  1
  O  O0  1  0.21532039  0.30967420  0.21532039  1
  O  O1  1  0.78467961  0.69032580  0.78467961  1
loop_
_geom_bond_atom_site_label_1
_geom_bond_atom_site_label_2
_geom_bond_distance
_geom_bond_site_symmetry_2
Na0 O0 2.116132 1_565
Na0 O1 2.116132 1_545
Mg0 O0 1.852865 1_555
Mg0 O1 1.852865 1_454
Ni0 O0 1.861433 1_545
Ni0 O1 1.861433 1_454
