# generated using pymatgen
data_Na9NbZn11(SO4)18
_symmetry_space_group_name_H-M   'P 1'
_cell_length_a   8.78255505
_cell_length_b   8.79646554
_cell_length_c   22.54609010
_cell_angle_alpha   90.38326345
_cell_angle_beta   89.73268819
_cell_angle_gamma   120.17323733
_symmetry_Int_Tables_number   1
_chemical_formula_structural   Na9NbZn11(SO4)18
_chemical_formula_sum   'Na9 Nb1 Zn11 S18 O72'
_cell_volume   1505.77460480
_cell_formula_units_Z   1
loop_
 _symmetry_equiv_pos_site_id
 _symmetry_equiv_pos_as_xyz
  1  'x, y, z'
loop_
 _atom_site_type_symbol
 _atom_site_label
 _atom_site_symmetry_multiplicity
 _atom_site_fract_x
 _atom_site_fract_y
 _atom_site_fract_z
 _atom_site_occupancy
  Na  Na0  1  0.36151775  0.36199392  0.25406746  1
  Na  Na1  1  0.30333311  0.97209857  0.08874431  1
  Na  Na2  1  0.97169804  0.30423809  0.41980007  1
  Na  Na3  1  0.00072736  0.98205128  0.50160833  1
  Na  Na4  1  0.98344944  0.00067038  0.00269087  1
  Na  Na5  1  0.66674735  0.33347683  0.83121780  1
  Na  Na6  1  0.66766837  0.33418268  0.33677385  1
  Na  Na7  1  0.33404211  0.66721544  0.17087391  1
  Na  Na8  1  0.33433556  0.66780515  0.64987217  1
  Nb  Nb0  1  0.33336086  0.66705780  0.81336980  1
  Zn  Zn0  1  0.99566772  0.98559441  0.34892373  1
  Zn  Zn1  1  0.99956730  0.99941049  0.84830128  1
  Zn  Zn2  1  0.00006155  0.00085816  0.64680645  1
  Zn  Zn3  1  0.98739618  0.99631276  0.15442581  1
  Zn  Zn4  1  0.66668170  0.33514024  0.67143346  1
  Zn  Zn5  1  0.68101988  0.33750173  0.18185493  1
  Zn  Zn6  1  0.67119100  0.33606489  0.98607747  1
  Zn  Zn7  1  0.65778446  0.33393885  0.48788857  1
  Zn  Zn8  1  0.33410460  0.65758321  0.01794067  1
  Zn  Zn9  1  0.33813229  0.67209623  0.51482508  1
  Zn  Zn10  1  0.33699080  0.67873625  0.32169995  1
  S  S0  1  0.29833650  -0.00086274  0.24708184  1
  S  S1  1  0.69870349  0.69915912  0.24945945  1
  S  S2  1  0.00005815  0.29881431  0.25176768  1
  S  S3  1  0.29662610  0.29059148  0.75187339  1
  S  S4  1  0.99409229  0.70283876  0.75183715  1
  S  S5  1  0.71006131  0.00693588  0.75187422  1
  S  S6  1  0.96786896  0.33397177  0.58217095  1
  S  S7  1  0.36705228  0.03276789  0.58422877  1
  S  S8  1  0.66563628  0.63286216  0.58404119  1
  S  S9  1  0.96512569  0.63323343  0.08185164  1
  S  S10  1  0.66826214  0.03765261  0.08152571  1
  S  S11  1  0.36905513  0.33294981  0.08425044  1
  S  S12  1  0.62865379  0.66787005  0.91737768  1
  S  S13  1  0.03817415  0.37051216  0.91747873  1
  S  S14  1  0.33223877  0.96260457  0.91878986  1
  S  S15  1  0.63343736  0.96723825  0.41700927  1
  S  S16  1  0.33454506  0.36862563  0.41434340  1
  S  S17  1  0.03571974  0.66615756  0.41752250  1
  O  O0  1  0.20685599  0.02604863  0.29787853  1
  O  O1  1  0.80297199  0.78392020  0.30283463  1
  O  O2  1  0.98143825  0.19878165  0.30665180  1
  O  O3  1  0.21669083  0.19159032  0.80644664  1
  O  O4  1  0.97407140  0.78208538  0.80676393  1
  O  O5  1  0.80904286  0.02647157  0.80647746  1
  O  O6  1  0.77910312  0.96618104  0.69904725  1
  O  O7  1  0.18708570  0.21990696  0.69924008  1
  O  O8  1  0.03488942  0.81218404  0.69938800  1
  O  O9  1  0.77773779  0.79798895  0.19422344  1
  O  O10  1  0.02845233  0.21334901  0.19876759  1
  O  O11  1  0.20117450  0.97829466  0.19027031  1
  O  O12  1  0.88406430  0.35574477  0.63683684  1
  O  O13  1  0.46746190  0.11136817  0.64015731  1
  O  O14  1  0.64252046  0.53297284  0.63989014  1
  O  O15  1  0.88114586  0.52930278  0.13525248  1
  O  O16  1  0.63924077  0.12207252  0.13410781  1
  O  O17  1  0.46916835  0.35124623  0.13923576  1
  O  O18  1  0.45523726  0.30629530  0.03105148  1
  O  O19  1  0.86494501  0.55301223  0.02664054  1
  O  O20  1  0.69141141  0.13917036  0.02642123  1
  O  O21  1  0.45534928  0.13925581  0.53150642  1
  O  O22  1  0.68655370  0.54525856  0.53126722  1
  O  O23  1  0.86548135  0.31610813  0.52767460  1
  O  O24  1  0.54594655  0.68925585  0.97064685  1
  O  O25  1  0.14140404  0.45463481  0.97058299  1
  O  O26  1  0.31376846  0.86364159  0.97310210  1
  O  O27  1  0.54857208  0.86242440  0.46998398  1
  O  O28  1  0.30794521  0.45993543  0.46513696  1
  O  O29  1  0.14159683  0.68737895  0.47060762  1
  O  O30  1  0.11463341  0.63589072  0.36303211  1
  O  O31  1  0.53409882  0.88856457  0.36154917  1
  O  O32  1  0.35516221  0.46540211  0.35761050  1
  O  O33  1  0.14027802  0.48374984  0.86342135  1
  O  O34  1  0.34376743  0.85589905  0.86570480  1
  O  O35  1  0.51483009  0.65562294  0.86342229  1
  O  O36  1  0.01623194  0.82349563  0.41174485  1
  O  O37  1  0.81515169  0.99120937  0.41285328  1
  O  O38  1  0.17062655  0.19125897  0.41090341  1
  O  O39  1  0.02178698  0.19676017  0.90966413  1
  O  O40  1  0.17415759  0.97677096  0.90995832  1
  O  O41  1  0.80263374  0.82581377  0.90954053  1
  O  O42  1  0.98326073  0.17330547  0.58668958  1
  O  O43  1  0.18945383  0.01551948  0.58784457  1
  O  O44  1  0.82636926  0.81032306  0.58778709  1
  O  O45  1  0.98916864  0.81400319  0.08659672  1
  O  O46  1  0.82381906  0.01588781  0.08805230  1
  O  O47  1  0.19103565  0.17052548  0.08744990  1
  O  O48  1  0.67620685  0.15293026  0.74607507  1
  O  O49  1  0.47726127  0.32487826  0.74581186  1
  O  O50  1  0.84745763  0.52203883  0.74570650  1
  O  O51  1  0.67490755  0.51784374  0.24553322  1
  O  O52  1  0.84218118  0.31723612  0.24534338  1
  O  O53  1  0.47532351  0.16304158  0.24399470  1
  O  O54  1  0.63307904  0.50268631  0.91608825  1
  O  O55  1  0.86771815  0.36508263  0.91624466  1
  O  O56  1  0.49740253  0.13303823  0.91634279  1
  O  O57  1  0.65770687  0.14832319  0.42198713  1
  O  O58  1  0.49067003  0.34803765  0.42121031  1
  O  O59  1  0.85809822  0.50373614  0.42248927  1
  O  O60  1  0.34945151  0.49016589  0.07875830  1
  O  O61  1  0.14719199  0.65752314  0.07835721  1
  O  O62  1  0.50362892  0.86068454  0.07750791  1
  O  O63  1  0.34769223  0.85579332  0.57903604  1
  O  O64  1  0.50707283  0.65044722  0.57857187  1
  O  O65  1  0.14574756  0.49202588  0.57824722  1
  O  O66  1  0.31843182  0.84313142  0.25403834  1
  O  O67  1  0.51765787  0.67526266  0.25434494  1
  O  O68  1  0.16263694  0.47646445  0.25504736  1
  O  O69  1  0.31568093  0.47694487  0.76107958  1
  O  O70  1  0.16151023  0.68423429  0.76136629  1
  O  O71  1  0.52306706  0.83931555  0.76122107  1
loop_
_geom_bond_atom_site_label_1
_geom_bond_atom_site_label_2
_geom_bond_distance
_geom_bond_site_symmetry_2
Na0 O67 2.382309 1_555
Na0 O51 2.386948 1_555
Na0 O68 2.415087 1_555
Na0 O53 2.421629 1_555
Na0 O32 2.510338 1_555
Na0 O0 2.746822 1_555
Na0 O17 2.769386 1_555
Na0 O10 2.826338 1_555
Na1 O45 2.385893 1_455
Na1 O47 2.398249 1_565
Na1 O61 2.402564 1_555
Na1 O62 2.417581 1_555
Na1 O11 2.464929 1_555
Na1 O16 2.754545 1_565
Na1 O26 2.787271 1_554
Na1 O18 2.864685 1_565
Na2 O57 2.384488 1_555
Na2 O37 2.384843 1_545
Na2 O38 2.412408 1_655
Na2 O59 2.415922 1_555
Na2 O23 2.621033 1_555
Na2 O2 2.724294 1_555
Na2 O28 2.754122 1_655
Na2 O30 2.842283 1_655
Na3 O44 2.467439 1_455
Na3 O43 2.479139 1_565
Na3 O36 2.493854 1_555
Na3 O42 2.597510 1_465
Na3 O37 2.613756 1_455
Na3 O38 2.656480 1_565
Na4 O46 2.418140 1_555
Na4 O45 2.530374 1_545
Na4 O47 2.542472 1_655
Na4 O41 2.613604 1_544
Na4 O39 2.635465 1_654
Na4 O40 2.745208 1_644
Na5 O48 2.510887 1_555
Na5 O50 2.520921 1_555
Na5 O54 2.522582 1_555
Na5 O49 2.526743 1_555
Na5 O56 2.527209 1_555
Na5 O55 2.529583 1_555
Na6 O58 2.493023 1_555
Na6 O59 2.498093 1_555
Na6 O57 2.503668 1_555
Na6 O51 2.604963 1_555
Na6 O52 2.610889 1_555
Na6 O53 2.632507 1_555
Na7 O67 2.461513 1_555
Na7 O66 2.470052 1_555
Na7 O68 2.481935 1_555
Na7 O60 2.631181 1_555
Na7 O61 2.634402 1_555
Na7 O62 2.648861 1_555
Na8 O64 2.261821 1_555
Na8 O63 2.266606 1_555
Na8 O65 2.271354 1_555
Nb0 O71 1.980422 1_555
Nb0 O70 1.980807 1_555
Nb0 O69 1.981155 1_555
Nb0 O34 1.995538 1_555
Nb0 O35 2.000784 1_555
Nb0 O33 2.001726 1_555
O0 S0 1.480592 1_555
O0 Zn0 2.052655 1_445
O1 S1 1.467858 1_555
O1 Zn0 2.016129 1_555
O2 S2 1.483331 1_655
O2 Zn0 2.168245 1_545
O3 S3 1.468629 1_555
O3 Zn1 2.036817 1_445
O4 S4 1.469721 1_555
O4 Zn1 2.032105 1_555
O5 S5 1.468946 1_555
O5 Zn1 2.040557 1_545
O6 S5 1.456312 1_565
O6 Zn2 2.152813 1_665
O7 S3 1.455956 1_555
O7 Zn2 2.148116 1_555
O8 S4 1.454898 1_455
O8 Zn2 2.189406 1_565
O9 S1 1.479296 1_555
O9 Zn3 2.003871 1_555
O10 S2 1.492961 1_555
O10 Zn3 2.014987 1_445
O11 S0 1.500741 1_565
O11 Zn3 2.125634 1_455
O12 S6 1.492498 1_555
O12 Zn4 1.981510 1_555
O13 S7 1.493839 1_555
O13 Zn4 1.990992 1_555
O14 S8 1.493955 1_555
O14 Zn4 1.992075 1_555
O15 S9 1.469007 1_555
O15 Zn5 2.016261 1_555
O16 S10 1.482411 1_555
O16 Zn5 2.040102 1_555
O17 S11 1.483611 1_555
O17 Zn5 2.155024 1_555
O18 S11 1.494209 1_555
O18 Zn6 2.044573 1_554
O19 S9 1.481871 1_555
O19 Zn6 2.025014 1_554
O20 S10 1.487378 1_555
O20 Zn6 2.047049 1_554
O21 S7 1.472365 1_555
O21 Zn7 2.001587 1_555
O22 S8 1.473537 1_555
O22 Zn7 1.995394 1_555
O23 S6 1.486148 1_555
O23 Zn7 2.112196 1_555
O24 S12 1.460016 1_555
O24 Zn8 2.034824 1_556
O25 S13 1.458400 1_555
O25 Zn8 2.036061 1_556
O26 S14 1.467669 1_555
O26 Zn8 2.165867 1_556
O27 S15 1.465522 1_555
O27 Zn9 2.033636 1_555
O28 S16 1.478177 1_555
O28 Zn9 2.070187 1_555
O29 S17 1.471357 1_555
O29 Zn9 2.059713 1_555
O30 S17 1.494561 1_555
O30 Zn10 2.017915 1_555
O31 S15 1.481649 1_555
O31 Zn10 1.997786 1_555
O32 S16 1.500349 1_555
O32 Zn10 2.127241 1_555
O33 S13 1.545930 1_555
O34 S14 1.550203 1_555
O35 S12 1.546641 1_555
O36 S17 1.484085 1_555
O36 Zn0 2.088105 1_455
O37 S15 1.503590 1_555
O37 Zn0 2.156356 1_555
O38 S16 1.501441 1_555
O38 Zn0 2.185987 1_445
O39 S13 1.470811 1_555
O39 Zn1 2.143736 1_445
O40 S14 1.469536 1_555
O40 Zn1 2.157272 1_455
O41 S12 1.470716 1_555
O41 Zn1 2.140236 1_555
O42 S6 1.490020 1_555
O42 Zn2 2.101029 1_655
O43 S7 1.491183 1_555
O43 Zn2 2.077638 1_555
O44 S8 1.490264 1_555
O44 Zn2 2.079849 1_665
O45 S9 1.498322 1_555
O45 Zn3 2.214225 1_555
O46 S10 1.479850 1_555
O46 Zn3 2.145954 1_545
O47 S11 1.498601 1_555
O47 Zn3 2.253433 1_445
O48 S5 1.463286 1_555
O48 Zn4 2.362252 1_555
O49 S3 1.464233 1_555
O49 Zn4 2.326558 1_555
O50 S4 1.465203 1_555
O50 Zn4 2.322043 1_555
O51 S1 1.502845 1_555
O51 Zn5 2.152928 1_555
O52 S2 1.482514 1_655
O52 Zn5 2.088078 1_555
O53 S0 1.499077 1_555
O53 Zn5 2.190839 1_555
O54 S12 1.473042 1_555
O54 Zn6 2.297676 1_555
O55 S13 1.474001 1_655
O55 Zn6 2.249517 1_555
O56 S14 1.472784 1_545
O56 Zn6 2.288181 1_555
O57 S15 1.500637 1_545
O57 Zn7 2.200002 1_555
O58 S16 1.479483 1_555
O58 Zn7 2.153037 1_555
O59 S17 1.499132 1_655
O59 Zn7 2.205424 1_555
O60 S11 1.483021 1_555
O60 Zn8 2.072539 1_555
O61 S9 1.504758 1_455
O61 Zn8 2.128027 1_555
O62 S10 1.502951 1_565
O62 Zn8 2.127181 1_555
O63 S7 1.482483 1_565
O63 Zn9 2.132474 1_555
O64 S8 1.482176 1_555
O64 Zn9 2.147317 1_555
O65 S6 1.482688 1_455
O65 Zn9 2.173921 1_555
O66 S0 1.478362 1_565
O66 Zn10 2.171106 1_555
O67 S1 1.499083 1_555
O67 Zn10 2.202354 1_555
O68 S2 1.497570 1_555
O68 Zn10 2.239594 1_555
O69 S3 1.574243 1_555
O70 S4 1.574864 1_455
O71 S5 1.575541 1_565
