# generated using pymatgen
data_LiMoPO5
_symmetry_space_group_name_H-M   'P 1'
_cell_length_a   6.55102392
_cell_length_b   7.35472717
_cell_length_c   7.36296028
_cell_angle_alpha   90.00000000
_cell_angle_beta   90.00000000
_cell_angle_gamma   90.00000000
_symmetry_Int_Tables_number   1
_chemical_formula_structural   LiMoPO5
_chemical_formula_sum   'Li4 Mo4 P4 O20'
_cell_volume   354.75474224
_cell_formula_units_Z   4
loop_
 _symmetry_equiv_pos_site_id
 _symmetry_equiv_pos_as_xyz
  1  'x, y, z'
loop_
 _atom_site_type_symbol
 _atom_site_label
 _atom_site_symmetry_multiplicity
 _atom_site_fract_x
 _atom_site_fract_y
 _atom_site_fract_z
 _atom_site_occupancy
  Li  Li0  1  0.50000000  -0.00000000  -0.00000000  1
  Li  Li1  1  0.00000000  -0.00000000  -0.00000000  1
  Li  Li2  1  0.00000000  0.50000000  0.50000000  1
  Li  Li3  1  0.50000000  0.50000000  0.50000000  1
  Mo  Mo0  1  0.75000000  0.35822133  0.23042633  1
  Mo  Mo1  1  0.25000000  0.14177867  0.73042633  1
  Mo  Mo2  1  0.25000000  0.64177867  0.76957367  1
  Mo  Mo3  1  0.75000000  0.85822133  0.26957367  1
  P  P0  1  0.75000000  0.12940039  0.63663320  1
  P  P1  1  0.75000000  0.62940039  0.86336680  1
  P  P2  1  0.25000000  0.37059961  0.13663320  1
  P  P3  1  0.25000000  0.87059961  0.36336680  1
  O  O0  1  0.56298182  0.63180632  0.73830815  1
  O  O1  1  0.25000000  0.19968925  0.01513787  1
  O  O2  1  0.25000000  0.89532294  0.82550237  1
  O  O3  1  0.93701818  0.13180632  0.76169185  1
  O  O4  1  0.43701818  0.86819368  0.23830815  1
  O  O5  1  0.75000000  0.60467706  0.32550237  1
  O  O6  1  0.25000000  0.54429664  0.02321084  1
  O  O7  1  0.25000000  0.69968925  0.48486213  1
  O  O8  1  0.93701818  0.63180632  0.73830815  1
  O  O9  1  0.75000000  0.30031075  0.51513787  1
  O  O10  1  0.06298182  0.86819368  0.23830815  1
  O  O11  1  0.56298182  0.13180632  0.76169185  1
  O  O12  1  0.43701818  0.36819368  0.26169185  1
  O  O13  1  0.25000000  0.04429664  0.47678916  1
  O  O14  1  0.75000000  0.10467706  0.17449763  1
  O  O15  1  0.75000000  0.45570336  0.97678916  1
  O  O16  1  0.75000000  0.95570336  0.52321084  1
  O  O17  1  0.75000000  0.80031075  0.98486213  1
  O  O18  1  0.25000000  0.39532294  0.67449763  1
  O  O19  1  0.06298182  0.36819368  0.26169185  1
loop_
_geom_bond_atom_site_label_1
_geom_bond_atom_site_label_2
_geom_bond_distance
_geom_bond_site_symmetry_2
Li0 O11 2.046651 1_554
Li0 O4 2.046651 1_545
Li0 O17 2.202642 1_544
Li0 O1 2.202642 1_555
Li0 O2 2.219393 1_544
Li0 O14 2.219393 1_555
Li1 O3 2.046651 1_454
Li1 O10 2.046651 1_545
Li1 O17 2.202642 1_444
Li1 O1 2.202642 1_555
Li1 O14 2.219393 1_455
Li1 O2 2.219393 1_544
Li2 O19 2.046651 1_555
Li2 O8 2.046651 1_455
Li2 O9 2.202642 1_455
Li2 O7 2.202642 1_555
Li2 O18 2.219393 1_555
Li2 O5 2.219393 1_455
Li3 O12 2.046651 1_555
Li3 O0 2.046651 1_555
Li3 O9 2.202642 1_555
Li3 O7 2.202642 1_555
Li3 O5 2.219393 1_555
Li3 O18 2.219393 1_555
Mo0 O14 1.909678 1_555
Mo0 O5 1.943098 1_555
Mo0 O15 2.000414 1_554
Mo0 O12 2.064538 1_555
Mo0 O19 2.064538 1_655
Mo0 O9 2.139150 1_555
Mo1 O18 1.909678 1_555
Mo1 O2 1.943098 1_545
Mo1 O13 2.000414 1_555
Mo1 O3 2.064538 1_455
Mo1 O11 2.064538 1_555
Mo1 O1 2.139150 1_556
Mo2 O2 1.909678 1_555
Mo2 O18 1.943098 1_555
Mo2 O6 2.000414 1_556
Mo2 O0 2.064538 1_555
Mo2 O8 2.064538 1_455
Mo2 O7 2.139150 1_555
Mo3 O5 1.909678 1_555
Mo3 O14 1.943098 1_565
Mo3 O16 2.000414 1_555
Mo3 O4 2.064538 1_555
Mo3 O10 2.064538 1_655
Mo3 O17 2.139150 1_554
O0 P1 1.532713 1_555
O1 P2 1.542820 1_555
O3 P0 1.532713 1_555
O4 P3 1.532713 1_555
O6 P2 1.526245 1_555
O7 P3 1.542820 1_555
O8 P1 1.532713 1_555
O9 P0 1.542820 1_555
O10 P3 1.532713 1_555
O11 P0 1.532713 1_555
O12 P2 1.532713 1_555
O13 P3 1.526245 1_545
O15 P1 1.526245 1_555
O16 P0 1.526245 1_565
O17 P1 1.542820 1_555
O19 P2 1.532713 1_555
