# generated using pymatgen
data_MgMoW2(Se2S)2
_symmetry_space_group_name_H-M   'P 1'
_cell_length_a   6.55359000
_cell_length_b   6.55361425
_cell_length_c   75.78617400
_cell_angle_alpha   89.99928126
_cell_angle_beta   90.00000000
_cell_angle_gamma   119.99986752
_symmetry_Int_Tables_number   1
_chemical_formula_structural   MgMoW2(Se2S)2
_chemical_formula_sum   'Mg8 Mo8 W16 Se32 S16'
_cell_volume   2818.91082043
_cell_formula_units_Z   8
loop_
 _symmetry_equiv_pos_site_id
 _symmetry_equiv_pos_as_xyz
  1  'x, y, z'
loop_
 _atom_site_type_symbol
 _atom_site_label
 _atom_site_symmetry_multiplicity
 _atom_site_fract_x
 _atom_site_fract_y
 _atom_site_fract_z
 _atom_site_occupancy
  Mg  Mg0_0  1  0.49998800  0.49997600  0.22869800  1
  Mg  Mg0_1  1  0.49998800  0.49997600  0.72869800  1
  Mg  Mg0_2  1  0.49998800  0.99997600  0.22869800  1
  Mg  Mg0_3  1  0.49998800  0.99997600  0.72869800  1
  Mg  Mg0_4  1  0.99998800  0.49997600  0.22869800  1
  Mg  Mg0_5  1  0.99998800  0.49997600  0.72869800  1
  Mg  Mg0_6  1  0.99998800  0.99997600  0.22869800  1
  Mg  Mg0_7  1  0.99998800  0.99997600  0.72869800  1
  Mo  Mo0_0  1  0.16662100  0.33324250  0.05781200  1
  Mo  Mo0_1  1  0.16662100  0.33324250  0.55781200  1
  Mo  Mo0_2  1  0.16662100  0.83324250  0.05781200  1
  Mo  Mo0_3  1  0.16662100  0.83324250  0.55781200  1
  Mo  Mo0_4  1  0.66662100  0.33324250  0.05781200  1
  Mo  Mo0_5  1  0.66662100  0.33324250  0.55781200  1
  Mo  Mo0_6  1  0.66662100  0.83324250  0.05781200  1
  Mo  Mo0_7  1  0.66662100  0.83324250  0.55781200  1
  W  W0_0  1  0.16668300  0.33336600  0.29346950  1
  W  W0_1  1  0.16668300  0.33336600  0.79346950  1
  W  W0_2  1  0.16668300  0.83336600  0.29346950  1
  W  W0_3  1  0.16668300  0.83336600  0.79346950  1
  W  W0_4  1  0.66668300  0.33336600  0.29346950  1
  W  W0_5  1  0.66668300  0.33336600  0.79346950  1
  W  W0_6  1  0.66668300  0.83336600  0.29346950  1
  W  W0_7  1  0.66668300  0.83336600  0.79346950  1
  W  W1_0  1  0.33335400  0.16670850  0.16900500  1
  W  W1_1  1  0.33335400  0.16670850  0.66900500  1
  W  W1_2  1  0.33335400  0.66670850  0.16900500  1
  W  W1_3  1  0.33335400  0.66670850  0.66900500  1
  W  W1_4  1  0.83335400  0.16670850  0.16900500  1
  W  W1_5  1  0.83335400  0.16670850  0.66900500  1
  W  W1_6  1  0.83335400  0.66670850  0.16900500  1
  W  W1_7  1  0.83335400  0.66670850  0.66900500  1
  Se  Se0_0  1  0.33331550  0.16663100  0.03553050  1
  Se  Se0_1  1  0.33331550  0.16663100  0.53553050  1
  Se  Se0_2  1  0.33331550  0.66663100  0.03553050  1
  Se  Se0_3  1  0.33331550  0.66663100  0.53553050  1
  Se  Se0_4  1  0.83331550  0.16663100  0.03553050  1
  Se  Se0_5  1  0.83331550  0.16663100  0.53553050  1
  Se  Se0_6  1  0.83331550  0.66663100  0.03553050  1
  Se  Se0_7  1  0.83331550  0.66663100  0.53553050  1
  Se  Se1_0  1  0.33335700  0.16671400  0.27087650  1
  Se  Se1_1  1  0.33335700  0.16671400  0.77087650  1
  Se  Se1_2  1  0.33335700  0.66671400  0.27087650  1
  Se  Se1_3  1  0.33335700  0.66671400  0.77087650  1
  Se  Se1_4  1  0.83335700  0.16671400  0.27087650  1
  Se  Se1_5  1  0.83335700  0.16671400  0.77087650  1
  Se  Se1_6  1  0.83335700  0.66671400  0.27087650  1
  Se  Se1_7  1  0.83335700  0.66671400  0.77087650  1
  Se  Se2_0  1  0.33326550  0.16653050  0.08012550  1
  Se  Se2_1  1  0.33326550  0.16653050  0.58012550  1
  Se  Se2_2  1  0.33326550  0.66653050  0.08012550  1
  Se  Se2_3  1  0.33326550  0.66653050  0.58012550  1
  Se  Se2_4  1  0.83326550  0.16653050  0.08012550  1
  Se  Se2_5  1  0.83326550  0.16653050  0.58012550  1
  Se  Se2_6  1  0.83326550  0.66653050  0.08012550  1
  Se  Se2_7  1  0.83326550  0.66653050  0.58012550  1
  Se  Se3_0  1  0.33334850  0.16669600  0.31588550  1
  Se  Se3_1  1  0.33334850  0.16669600  0.81588550  1
  Se  Se3_2  1  0.33334850  0.66669600  0.31588550  1
  Se  Se3_3  1  0.33334850  0.66669600  0.81588550  1
  Se  Se3_4  1  0.83334850  0.16669600  0.31588550  1
  Se  Se3_5  1  0.83334850  0.16669600  0.81588550  1
  Se  Se3_6  1  0.83334850  0.66669600  0.31588550  1
  Se  Se3_7  1  0.83334850  0.66669600  0.81588550  1
  S  S0_0  1  0.16668050  0.33336100  0.18934500  1
  S  S0_1  1  0.16668050  0.33336100  0.68934500  1
  S  S0_2  1  0.16668050  0.83336100  0.18934500  1
  S  S0_3  1  0.16668050  0.83336100  0.68934500  1
  S  S0_4  1  0.66668050  0.33336100  0.18934500  1
  S  S0_5  1  0.66668050  0.33336100  0.68934500  1
  S  S0_6  1  0.66668050  0.83336100  0.18934500  1
  S  S0_7  1  0.66668050  0.83336100  0.68934500  1
  S  S1_0  1  0.16668700  0.33337500  0.14879750  1
  S  S1_1  1  0.16668700  0.33337500  0.64879750  1
  S  S1_2  1  0.16668700  0.83337500  0.14879750  1
  S  S1_3  1  0.16668700  0.83337500  0.64879750  1
  S  S1_4  1  0.66668700  0.33337500  0.14879750  1
  S  S1_5  1  0.66668700  0.33337500  0.64879750  1
  S  S1_6  1  0.66668700  0.83337500  0.14879750  1
  S  S1_7  1  0.66668700  0.83337500  0.64879750  1
loop_
_geom_bond_atom_site_label_1
_geom_bond_atom_site_label_2
_geom_bond_distance
_geom_bond_site_symmetry_2
Mg0_0 Mg0_4 3.276795 1_455
Mg0_0 Mg0_4 3.276795 1_555
Mg0_0 Mg0_2 3.276807 1_555
Mg0_0 Mg0_2 3.276807 1_545
Mg0_0 Mg0_6 3.276808 1_555
Mg0_0 Mg0_6 3.276808 1_445
Mg0_1 Mg0_5 3.276795 1_455
Mg0_1 Mg0_5 3.276795 1_555
Mg0_1 Mg0_3 3.276807 1_555
Mg0_1 Mg0_3 3.276807 1_545
Mg0_1 Mg0_7 3.276808 1_445
Mg0_1 Mg0_7 3.276808 1_555
Mg0_2 Mg0_6 3.276795 1_555
Mg0_2 Mg0_6 3.276795 1_455
Mg0_2 Mg0_4 3.276808 1_455
Mg0_2 Mg0_4 3.276808 1_565
Mg0_3 Mg0_7 3.276795 1_455
Mg0_3 Mg0_7 3.276795 1_555
Mg0_3 Mg0_5 3.276808 1_455
Mg0_3 Mg0_5 3.276808 1_565
Mg0_4 Mg0_6 3.276807 1_545
Mg0_4 Mg0_6 3.276807 1_555
Mg0_5 Mg0_7 3.276807 1_545
Mg0_5 Mg0_7 3.276807 1_555
Mo0_0 Se0_4 2.535756 1_455
Mo0_0 Se0_0 2.535758 1_555
Mo0_0 Se0_2 2.536085 1_555
Mo0_0 Se2_2 2.537312 1_555
Mo0_0 Se2_4 2.537565 1_455
Mo0_0 Se2_0 2.537569 1_555
Mo0_1 Se0_5 2.535756 1_455
Mo0_1 Se0_1 2.535758 1_555
Mo0_1 Se0_3 2.536085 1_555
Mo0_1 Se2_3 2.537312 1_555
Mo0_1 Se2_5 2.537565 1_455
Mo0_1 Se2_1 2.537569 1_555
Mo0_2 Se0_6 2.535756 1_455
Mo0_2 Se0_2 2.535758 1_555
Mo0_2 Se0_0 2.536085 1_565
Mo0_2 Se2_0 2.537312 1_565
Mo0_2 Se2_6 2.537565 1_455
Mo0_2 Se2_2 2.537569 1_555
Mo0_3 Se0_7 2.535756 1_455
Mo0_3 Se0_3 2.535758 1_555
Mo0_3 Se0_1 2.536085 1_565
Mo0_3 Se2_1 2.537312 1_565
Mo0_3 Se2_7 2.537565 1_455
Mo0_3 Se2_3 2.537569 1_555
Mo0_4 Se0_0 2.535756 1_555
Mo0_4 Se0_4 2.535758 1_555
Mo0_4 Se0_6 2.536085 1_555
Mo0_4 Se2_6 2.537312 1_555
Mo0_4 Se2_0 2.537565 1_555
Mo0_4 Se2_4 2.537569 1_555
Mo0_5 Se0_1 2.535756 1_555
Mo0_5 Se0_5 2.535758 1_555
Mo0_5 Se0_7 2.536085 1_555
Mo0_5 Se2_7 2.537312 1_555
Mo0_5 Se2_1 2.537565 1_555
Mo0_5 Se2_5 2.537569 1_555
Mo0_6 Se0_2 2.535756 1_555
Mo0_6 Se0_6 2.535758 1_555
Mo0_6 Se0_4 2.536085 1_565
Mo0_6 Se2_4 2.537312 1_565
Mo0_6 Se2_2 2.537565 1_555
Mo0_6 Se2_6 2.537569 1_555
Mo0_7 Se0_3 2.535756 1_555
Mo0_7 Se0_7 2.535758 1_555
Mo0_7 Se0_5 2.536085 1_565
Mo0_7 Se2_5 2.537312 1_565
Mo0_7 Se2_3 2.537565 1_555
Mo0_7 Se2_7 2.537569 1_555
Se1_0 W0_0 2.551623 1_555
Se1_0 W0_4 2.551624 1_555
Se1_0 W0_2 2.551694 1_545
Se1_1 W0_1 2.551623 1_555
Se1_1 W0_5 2.551624 1_555
Se1_1 W0_3 2.551694 1_545
Se1_2 W0_2 2.551623 1_555
Se1_2 W0_6 2.551624 1_555
Se1_2 W0_0 2.551694 1_555
Se1_3 W0_3 2.551623 1_555
Se1_3 W0_7 2.551624 1_555
Se1_3 W0_1 2.551694 1_555
Se1_4 W0_4 2.551623 1_555
Se1_4 W0_0 2.551624 1_655
Se1_4 W0_6 2.551694 1_545
Se1_5 W0_5 2.551623 1_555
Se1_5 W0_1 2.551624 1_655
Se1_5 W0_7 2.551694 1_545
Se1_6 W0_6 2.551623 1_555
Se1_6 W0_2 2.551624 1_655
Se1_6 W0_4 2.551694 1_555
Se1_7 W0_7 2.551623 1_555
Se1_7 W0_3 2.551624 1_655
Se1_7 W0_5 2.551694 1_555
Se3_0 W0_4 2.542659 1_555
Se3_0 W0_0 2.542663 1_555
Se3_0 W0_2 2.542673 1_545
Se3_1 W0_5 2.542659 1_555
Se3_1 W0_1 2.542663 1_555
Se3_1 W0_3 2.542673 1_545
Se3_2 W0_6 2.542659 1_555
Se3_2 W0_2 2.542663 1_555
Se3_2 W0_0 2.542673 1_555
Se3_3 W0_7 2.542659 1_555
Se3_3 W0_3 2.542663 1_555
Se3_3 W0_1 2.542673 1_555
Se3_4 W0_0 2.542659 1_655
Se3_4 W0_4 2.542663 1_555
Se3_4 W0_6 2.542673 1_545
Se3_5 W0_1 2.542659 1_655
Se3_5 W0_5 2.542663 1_555
Se3_5 W0_7 2.542673 1_545
Se3_6 W0_2 2.542659 1_655
Se3_6 W0_6 2.542663 1_555
Se3_6 W0_4 2.542673 1_555
Se3_7 W0_3 2.542659 1_655
Se3_7 W0_7 2.542663 1_555
Se3_7 W0_5 2.542673 1_555
S0_0 W1_0 2.440331 1_555
S0_0 W1_4 2.440333 1_455
S0_0 W1_2 2.440405 1_555
S0_1 W1_1 2.440331 1_555
S0_1 W1_5 2.440333 1_455
S0_1 W1_3 2.440405 1_555
S0_2 W1_2 2.440331 1_555
S0_2 W1_6 2.440333 1_455
S0_2 W1_0 2.440405 1_565
S0_3 W1_3 2.440331 1_555
S0_3 W1_7 2.440333 1_455
S0_3 W1_1 2.440405 1_565
S0_4 W1_4 2.440331 1_555
S0_4 W1_0 2.440333 1_555
S0_4 W1_6 2.440405 1_555
S0_5 W1_5 2.440331 1_555
S0_5 W1_1 2.440333 1_555
S0_5 W1_7 2.440405 1_555
S0_6 W1_6 2.440331 1_555
S0_6 W1_2 2.440333 1_555
S0_6 W1_4 2.440405 1_565
S0_7 W1_7 2.440331 1_555
S0_7 W1_3 2.440333 1_555
S0_7 W1_5 2.440405 1_565
S1_0 W1_4 2.434014 1_455
S1_0 W1_0 2.434016 1_555
S1_0 W1_2 2.434048 1_555
S1_1 W1_5 2.434014 1_455
S1_1 W1_1 2.434016 1_555
S1_1 W1_3 2.434048 1_555
S1_2 W1_6 2.434014 1_455
S1_2 W1_2 2.434016 1_555
S1_2 W1_0 2.434048 1_565
S1_3 W1_7 2.434014 1_455
S1_3 W1_3 2.434016 1_555
S1_3 W1_1 2.434048 1_565
S1_4 W1_0 2.434014 1_555
S1_4 W1_4 2.434016 1_555
S1_4 W1_6 2.434048 1_555
S1_5 W1_1 2.434014 1_555
S1_5 W1_5 2.434016 1_555
S1_5 W1_7 2.434048 1_555
S1_6 W1_2 2.434014 1_555
S1_6 W1_6 2.434016 1_555
S1_6 W1_4 2.434048 1_565
S1_7 W1_3 2.434014 1_555
S1_7 W1_7 2.434016 1_555
S1_7 W1_5 2.434048 1_565
