# generated using pymatgen
data_Li3Mo(PO4)2
_symmetry_space_group_name_H-M   'P 1'
_cell_length_a   5.55980200
_cell_length_b   6.24208900
_cell_length_c   8.41543900
_cell_angle_alpha   89.99831832
_cell_angle_beta   90.00000000
_cell_angle_gamma   90.00000000
_symmetry_Int_Tables_number   1
_chemical_formula_structural   Li3Mo(PO4)2
_chemical_formula_sum   'Li6 Mo2 P4 O16'
_cell_volume   292.05594990
_cell_formula_units_Z   2
loop_
 _symmetry_equiv_pos_site_id
 _symmetry_equiv_pos_as_xyz
  1  'x, y, z'
loop_
 _atom_site_type_symbol
 _atom_site_label
 _atom_site_symmetry_multiplicity
 _atom_site_fract_x
 _atom_site_fract_y
 _atom_site_fract_z
 _atom_site_occupancy
  Li  Li0  1  0.75000000  0.28079800  0.08209600  1
  Li  Li1  1  0.25000000  0.49944400  0.25040500  1
  Li  Li2  1  0.75000000  0.72065100  0.41779500  1
  Li  Li3  1  0.25000000  0.27934900  0.58220500  1
  Li  Li4  1  0.75000000  0.50055600  0.74959500  1
  Li  Li5  1  0.25000000  0.71920200  0.91790400  1
  Mo  Mo0  1  0.25000000  0.00002100  0.24991000  1
  Mo  Mo1  1  0.75000000  0.99997900  0.75009000  1
  P  P0  1  0.25000000  0.23507900  0.89975700  1
  P  P1  1  0.25000000  0.76403000  0.60024900  1
  P  P2  1  0.75000000  0.76492100  0.10024300  1
  P  P3  1  0.75000000  0.23597000  0.39975100  1
  O  O0  1  0.25000000  0.02387300  0.99795900  1
  O  O1  1  0.75000000  0.56971300  0.99311600  1
  O  O2  1  0.75000000  0.97612700  0.00204100  1
  O  O3  1  0.25000000  0.43028700  0.00688400  1
  O  O4  1  0.52591200  0.76250100  0.21599600  1
  O  O5  1  0.97408800  0.76250100  0.21599600  1
  O  O6  1  0.52583700  0.23789600  0.28405700  1
  O  O7  1  0.97416300  0.23789600  0.28405700  1
  O  O8  1  0.25000000  0.56845700  0.49351300  1
  O  O9  1  0.75000000  0.02502500  0.49827900  1
  O  O10  1  0.25000000  0.97497500  0.50172100  1
  O  O11  1  0.75000000  0.43154300  0.50648700  1
  O  O12  1  0.02583700  0.76210400  0.71594300  1
  O  O13  1  0.47416300  0.76210400  0.71594300  1
  O  O14  1  0.02591200  0.23749900  0.78400400  1
  O  O15  1  0.47408800  0.23749900  0.78400400  1
loop_
_geom_bond_atom_site_label_1
_geom_bond_atom_site_label_2
_geom_bond_distance
_geom_bond_site_symmetry_2
Li0 O1 1.952691 1_554
Li0 O2 2.017604 1_545
Li0 O6 2.124515 1_555
Li0 O7 2.124515 1_555
Li1 O8 2.090735 1_555
Li1 O3 2.094321 1_555
Li1 O6 2.257765 1_555
Li1 O7 2.257765 1_455
Li1 O4 2.265673 1_555
Li1 O5 2.265673 1_455
Li2 O11 1.952876 1_555
Li2 O9 2.017066 1_565
Li2 O5 2.122362 1_555
Li2 O4 2.122362 1_555
Li3 O8 1.952876 1_555
Li3 O10 2.017066 1_545
Li3 O15 2.122362 1_555
Li3 O14 2.122362 1_555
Li4 O11 2.090735 1_555
Li4 O1 2.094321 1_555
Li4 O13 2.257765 1_555
Li4 O12 2.257765 1_655
Li4 O14 2.265673 1_655
Li4 O15 2.265673 1_555
Li5 O3 1.952691 1_556
Li5 O0 2.017604 1_565
Li5 O13 2.124515 1_555
Li5 O12 2.124515 1_555
Mo0 O10 2.124855 1_545
Mo0 O0 2.125495 1_554
Mo0 O4 2.152405 1_545
Mo0 O5 2.152405 1_445
Mo0 O7 2.153896 1_455
Mo0 O6 2.153896 1_555
Mo1 O9 2.124855 1_565
Mo1 O2 2.125495 1_556
Mo1 O14 2.152405 1_665
Mo1 O15 2.152405 1_565
Mo1 O13 2.153896 1_555
Mo1 O12 2.153896 1_655
O0 P0 1.555951 1_555
O1 P2 1.515771 1_556
O2 P2 1.555951 1_555
O3 P0 1.515771 1_554
O4 P2 1.581566 1_555
O5 P2 1.581566 1_555
O6 P3 1.581563 1_555
O7 P3 1.581563 1_555
O8 P1 1.515650 1_555
O9 P3 1.556031 1_555
O10 P1 1.556031 1_555
O11 P3 1.515650 1_555
O12 P1 1.581563 1_555
O13 P1 1.581563 1_555
O14 P0 1.581566 1_555
O15 P0 1.581566 1_555
