# generated using pymatgen
data_Na2La4Ga4SiS11O48
_symmetry_space_group_name_H-M   'P 1'
_cell_length_a   17.89305774
_cell_length_b   8.98963488
_cell_length_c   23.68250735
_cell_angle_alpha   90.04029682
_cell_angle_beta   90.19799670
_cell_angle_gamma   120.22022066
_symmetry_Int_Tables_number   1
_chemical_formula_structural   Na2La4Ga4SiS11O48
_chemical_formula_sum   'Na6 La12 Ga12 Si3 S33 O144'
_cell_volume   3291.64187368
_cell_formula_units_Z   3
loop_
 _symmetry_equiv_pos_site_id
 _symmetry_equiv_pos_as_xyz
  1  'x, y, z'
loop_
 _atom_site_type_symbol
 _atom_site_label
 _atom_site_symmetry_multiplicity
 _atom_site_fract_x
 _atom_site_fract_y
 _atom_site_fract_z
 _atom_site_occupancy
  Na  Na0  1  0.00101061  0.97721594  0.48541114  1
  Na  Na1  1  0.50074052  0.02784033  0.00843828  1
  Na  Na2  1  0.34344379  0.33328945  0.83435901  1
  Na  Na3  1  0.83696692  0.34648698  0.83371808  1
  Na  Na4  1  0.33493684  0.33309931  0.33106974  1
  Na  Na5  1  0.84246623  0.35312793  0.31972159  1
  La  La0  1  0.00011928  0.99177590  0.86043624  1
  La  La1  1  0.49817160  0.00685381  0.86390605  1
  La  La2  1  0.99857616  0.98556628  0.64630067  1
  La  La3  1  0.49943616  0.00014521  0.63698100  1
  La  La4  1  0.34336729  0.33620733  0.68057298  1
  La  La5  1  0.84051231  0.36282145  0.67961135  1
  La  La6  1  0.34652074  0.34047547  0.99056033  1
  La  La7  1  0.84221654  0.34849480  0.46605698  1
  La  La8  1  0.65761314  0.65060382  0.03447117  1
  La  La9  1  0.15700237  0.66908933  0.50342362  1
  La  La10  1  0.15180082  0.64971202  0.81159549  1
  La  La11  1  0.66927428  0.66743468  0.82178938  1
  Ga  Ga0  1  0.00723863  0.99832559  0.33731232  1
  Ga  Ga1  1  0.49988911  0.00614525  0.34725206  1
  Ga  Ga2  1  0.99913395  0.00552648  0.15339564  1
  Ga  Ga3  1  0.49550361  0.99564421  0.16771339  1
  Ga  Ga4  1  0.31390158  0.30979834  0.17447662  1
  Ga  Ga5  1  0.85473157  0.36462983  0.18072391  1
  Ga  Ga6  1  0.83737168  0.33569556  0.99650570  1
  Ga  Ga7  1  0.33758546  0.33847519  0.47369925  1
  Ga  Ga8  1  0.16129901  0.65868553  0.02543573  1
  Ga  Ga9  1  0.66401582  0.67118555  0.50429504  1
  Ga  Ga10  1  0.17537918  0.66119884  0.32031520  1
  Ga  Ga11  1  0.64991549  0.65594354  0.31507011  1
  Si  Si0  1  0.99069627  0.68600213  0.74894527  1
  Si  Si1  1  0.50934641  0.36585094  0.92097563  1
  Si  Si2  1  0.02040677  0.68156452  0.39610631  1
  S  S0  1  0.14849093  0.01320962  0.24243100  1
  S  S1  1  0.64070060  0.99451351  0.25806785  1
  S  S2  1  0.35093962  0.71012082  0.25857845  1
  S  S3  1  0.85741068  0.71059091  0.24345066  1
  S  S4  1  0.00071551  0.28545016  0.25268532  1
  S  S5  1  0.49968079  0.29019383  0.24969002  1
  S  S6  1  0.16185574  0.30407113  0.75148923  1
  S  S7  1  0.64939964  0.29985395  0.74993849  1
  S  S8  1  0.50154076  0.70117105  0.75266962  1
  S  S9  1  0.34774416  0.00189544  0.74995512  1
  S  S10  1  0.84728943  0.00840230  0.75106091  1
  S  S11  1  0.48696428  0.35404653  0.56286514  1
  S  S12  1  0.99032151  0.32878278  0.57759267  1
  S  S13  1  0.19055923  0.05697968  0.56631547  1
  S  S14  1  0.68862278  0.01232869  0.57339077  1
  S  S15  1  0.33376221  0.61667814  0.56756663  1
  S  S16  1  0.81715603  0.63919369  0.56999660  1
  S  S17  1  0.47106723  0.64267927  0.10509401  1
  S  S18  1  0.98239437  0.63770899  0.08725597  1
  S  S19  1  0.33521899  0.02140953  0.09468874  1
  S  S20  1  0.84961418  0.07393656  0.09531191  1
  S  S21  1  0.17508035  0.32766757  0.09014622  1
  S  S22  1  0.69140750  0.30007145  0.09531483  1
  S  S23  1  0.30587194  0.66556325  0.93238339  1
  S  S24  1  0.81516187  0.63381841  0.92923414  1
  S  S25  1  0.01204491  0.37477259  0.93526873  1
  S  S26  1  0.16503525  0.94554454  0.93246876  1
  S  S27  1  0.68379589  0.99396279  0.92986520  1
  S  S28  1  0.32620390  0.98183975  0.40623874  1
  S  S29  1  0.80393405  0.92708796  0.40489171  1
  S  S30  1  0.17208570  0.35949881  0.40647188  1
  S  S31  1  0.65273384  0.37631352  0.40354649  1
  S  S32  1  0.51819312  0.67068368  0.41046493  1
  O  O0  1  0.11404806  0.06119138  0.29221912  1
  O  O1  1  0.60144632  0.03306497  0.30803161  1
  O  O2  1  0.41049233  0.79080068  0.30795712  1
  O  O3  1  0.91711808  0.78834905  0.29242715  1
  O  O4  1  0.48257782  0.17298684  0.29836998  1
  O  O5  1  0.97779352  0.16456861  0.30267526  1
  O  O6  1  0.11098802  0.22663738  0.80375732  1
  O  O7  1  0.59835936  0.20186359  0.79951952  1
  O  O8  1  0.50359748  0.79285806  0.80511388  1
  O  O9  1  0.99734901  0.80624020  0.80250877  1
  O  O10  1  0.39782578  0.99780097  0.79902328  1
  O  O11  1  0.89375422  0.01609697  0.80459900  1
  O  O12  1  0.39736902  0.03252026  0.69624618  1
  O  O13  1  0.90079058  0.02206375  0.70156974  1
  O  O14  1  0.11546382  0.20115079  0.70088080  1
  O  O15  1  0.60569716  0.20817867  0.69657643  1
  O  O16  1  0.97526954  0.75140116  0.68746909  1
  O  O17  1  0.48760281  0.78237431  0.70199739  1
  O  O18  1  0.38748851  0.82403788  0.20819867  1
  O  O19  1  0.89553171  0.82137329  0.19199993  1
  O  O20  1  0.01200715  0.20395133  0.20169397  1
  O  O21  1  0.52137067  0.21727254  0.19848590  1
  O  O22  1  0.09113763  0.98128227  0.19249388  1
  O  O23  1  0.58384339  0.96134349  0.20741813  1
  O  O24  1  0.45420403  0.38499282  0.61634414  1
  O  O25  1  0.94601482  0.31606269  0.63112048  1
  O  O26  1  0.23054839  0.15013646  0.61939496  1
  O  O27  1  0.73620346  0.08188110  0.62662915  1
  O  O28  1  0.32895428  0.52639493  0.62091538  1
  O  O29  1  0.80849128  0.55710739  0.62521340  1
  O  O30  1  0.41806701  0.50969562  0.14928093  1
  O  O31  1  0.95232195  0.52293290  0.13914093  1
  O  O32  1  0.31458155  0.11439897  0.14014310  1
  O  O33  1  0.83491064  0.15064707  0.14804092  1
  O  O34  1  0.23739900  0.37329198  0.14003885  1
  O  O35  1  0.74620342  0.32671787  0.14666423  1
  O  O36  1  0.21075627  0.28608102  0.04116435  1
  O  O37  1  0.73105720  0.27286977  0.04365079  1
  O  O38  1  0.42851452  0.59154326  0.04965596  1
  O  O39  1  0.91894292  0.55327549  0.04073704  1
  O  O40  1  0.36116327  0.12483938  0.04240222  1
  O  O41  1  0.86725952  0.18912746  0.04600368  1
  O  O42  1  0.24131939  0.15452513  0.51525922  1
  O  O43  1  0.73299699  0.13010657  0.52564209  1
  O  O44  1  0.33947154  0.52091336  0.51738254  1
  O  O45  1  0.83378153  0.54486527  0.52497262  1
  O  O46  1  0.42569401  0.32044104  0.51541433  1
  O  O47  1  0.93980021  0.33964401  0.52900849  1
  O  O48  1  0.25456793  0.66065299  0.98340649  1
  O  O49  1  0.76230434  0.64574759  0.97474182  1
  O  O50  1  0.07079097  0.47128819  0.98340913  1
  O  O51  1  0.55129833  0.47929939  0.97895033  1
  O  O52  1  0.17105427  0.85453374  0.98449887  1
  O  O53  1  0.67602331  0.87744625  0.97610306  1
  O  O54  1  0.29212522  0.88510274  0.45876686  1
  O  O55  1  0.76337046  0.82410554  0.45704523  1
  O  O56  1  0.15594404  0.42182746  0.45974938  1
  O  O57  1  0.64097664  0.45834105  0.45406310  1
  O  O58  1  0.05553438  0.69825995  0.46092367  1
  O  O59  1  0.57570195  0.70447344  0.45953640  1
  O  O60  1  0.08551898  0.65998351  0.35197623  1
  O  O61  1  0.55142386  0.62186827  0.35932238  1
  O  O62  1  0.26660366  0.89651655  0.35752368  1
  O  O63  1  0.74985078  0.83981382  0.35355071  1
  O  O64  1  0.19521140  0.48871438  0.35995394  1
  O  O65  1  0.66793164  0.48342277  0.35137604  1
  O  O66  1  0.04421320  0.46726595  0.88133814  1
  O  O67  1  0.56150778  0.45148085  0.86317181  1
  O  O68  1  0.17080683  0.86429663  0.88032532  1
  O  O69  1  0.69100915  0.92858287  0.87427873  1
  O  O70  1  0.26969273  0.68377328  0.87917228  1
  O  O71  1  0.77347456  0.61184110  0.87324701  1
  O  O72  1  0.01519661  0.85870556  0.38852513  1
  O  O73  1  0.51229636  0.82628192  0.39956920  1
  O  O74  1  0.41109889  0.99421699  0.39590656  1
  O  O75  1  0.89113496  0.94947086  0.40039980  1
  O  O76  1  0.09322180  0.19549364  0.39212822  1
  O  O77  1  0.57300703  0.20464561  0.39717895  1
  O  O78  1  0.00224147  0.20333558  0.93237225  1
  O  O79  1  0.50042936  0.17774618  0.93137226  1
  O  O80  1  0.08373141  0.94930639  0.93497197  1
  O  O81  1  0.60759672  0.01822863  0.93136665  1
  O  O82  1  0.39567149  0.81100329  0.94085391  1
  O  O83  1  0.90174359  0.78739541  0.92951104  1
  O  O84  1  0.49668042  0.20130961  0.56908294  1
  O  O85  1  0.99974289  0.17648312  0.56831163  1
  O  O86  1  0.10211906  0.02898662  0.56108104  1
  O  O87  1  0.60006918  0.98661847  0.57841815  1
  O  O88  1  0.41241163  0.78823621  0.56822294  1
  O  O89  1  0.89092119  0.81907748  0.56981890  1
  O  O90  1  0.47834447  0.81184782  0.11733649  1
  O  O91  1  0.98899494  0.80471512  0.09966755  1
  O  O92  1  0.41283927  0.01028707  0.11179975  1
  O  O93  1  0.92783938  0.05683941  0.10215471  1
  O  O94  1  0.09137302  0.17545165  0.10501835  1
  O  O95  1  0.60360717  0.14552522  0.10173879  1
  O  O96  1  0.33384347  0.15046549  0.75800728  1
  O  O97  1  0.83053117  0.15307635  0.75163059  1
  O  O98  1  0.24569187  0.30753351  0.75674882  1
  O  O99  1  0.73459798  0.31174638  0.75391351  1
  O  O100  1  0.42632355  0.52162025  0.75714427  1
  O  O101  1  0.90725603  0.49431154  0.75741221  1
  O  O102  1  0.33804443  0.53680849  0.25005063  1
  O  O103  1  0.85159415  0.53489902  0.23418080  1
  O  O104  1  0.42266312  0.30578434  0.24004002  1
  O  O105  1  0.92388242  0.31339850  0.24532371  1
  O  O106  1  0.23763451  0.17834298  0.23415271  1
  O  O107  1  0.72820054  0.14188471  0.25068388  1
  O  O108  1  0.30683678  0.50191262  0.93047293  1
  O  O109  1  0.82158879  0.47506283  0.93802976  1
  O  O110  1  0.41361717  0.34515000  0.91356234  1
  O  O111  1  0.92712586  0.36348515  0.94471202  1
  O  O112  1  0.23904556  0.12291496  0.93386638  1
  O  O113  1  0.76543711  0.16237874  0.93807857  1
  O  O114  1  0.33869881  0.16051016  0.41169611  1
  O  O115  1  0.80929080  0.09647351  0.40906622  1
  O  O116  1  0.24933761  0.33463320  0.41205403  1
  O  O117  1  0.72803225  0.35192762  0.40839870  1
  O  O118  1  0.42959593  0.51796350  0.41905969  1
  O  O119  1  0.92478975  0.50769889  0.39200196  1
  O  O120  1  0.16445324  0.47995307  0.08176038  1
  O  O121  1  0.68307077  0.45431777  0.08878059  1
  O  O122  1  0.06881249  0.66147180  0.07455822  1
  O  O123  1  0.55691190  0.65958375  0.10499299  1
  O  O124  1  0.25850254  0.85002134  0.08654954  1
  O  O125  1  0.77339267  0.90419557  0.08689123  1
  O  O126  1  0.18879999  0.89141672  0.56894417  1
  O  O127  1  0.68064106  0.84156897  0.56153980  1
  O  O128  1  0.25668887  0.63270818  0.56285465  1
  O  O129  1  0.73380992  0.63128696  0.55832350  1
  O  O130  1  0.07650124  0.48705900  0.57891158  1
  O  O131  1  0.57079569  0.50900737  0.55160985  1
  O  O132  1  0.16184578  0.86902304  0.25113903  1
  O  O133  1  0.64326711  0.83194484  0.26699357  1
  O  O134  1  0.26463234  0.69751913  0.26800799  1
  O  O135  1  0.77143625  0.68358350  0.25367069  1
  O  O136  1  0.07975440  0.45075880  0.26331589  1
  O  O137  1  0.57781421  0.46469190  0.25876919  1
  O  O138  1  0.17916448  0.48081787  0.74481800  1
  O  O139  1  0.65964514  0.47265810  0.74863159  1
  O  O140  1  0.07704580  0.67175634  0.74633877  1
  O  O141  1  0.58205356  0.69673231  0.74653980  1
  O  O142  1  0.26521267  0.84122150  0.74570528  1
  O  O143  1  0.76500524  0.84335285  0.74767396  1
loop_
_geom_bond_atom_site_label_1
_geom_bond_atom_site_label_2
_geom_bond_distance
_geom_bond_site_symmetry_2
Na0 O86 2.414515 1_565
Na0 O72 2.595571 1_555
Na0 O85 2.664618 1_465
Na0 O89 2.666351 1_455
Na0 O75 2.731123 1_455
Na0 O76 2.867980 1_565
Na1 O79 2.271133 1_554
Na1 O82 2.486308 1_544
Na1 O81 2.680464 1_554
Na1 O95 2.719879 1_555
Na1 O92 2.875412 1_555
Na2 O110 2.225981 1_555
Na2 O96 2.389504 1_555
Na2 O100 2.430052 1_555
Na2 O98 2.461842 1_555
Na3 O101 2.224866 1_555
Na3 O99 2.534566 1_555
Na3 O97 2.570552 1_555
Na3 O109 2.799149 1_555
Na3 O113 2.894994 1_555
Na4 O116 2.462924 1_555
Na4 O114 2.483158 1_555
Na4 O102 2.634648 1_555
Na4 O118 2.666480 1_555
Na4 O104 2.753616 1_555
Na4 O106 2.786471 1_555
Na5 O119 2.224768 1_555
Na5 O105 2.427917 1_555
Na5 O107 2.554154 1_555
Na5 O103 2.557156 1_555
Na5 O117 2.934381 1_555
Na5 O115 2.964723 1_555
La0 O9 2.139965 1_455
La0 O11 2.412571 1_465
La0 O83 2.432841 1_455
La0 O6 2.449687 1_565
La0 O80 2.461216 1_555
La0 O78 2.538324 1_565
La1 O79 2.201867 1_555
La1 O10 2.329202 1_545
La1 O7 2.339039 1_555
La1 O8 2.415371 1_545
La1 O81 2.484567 1_555
La1 O82 2.561529 1_545
La2 O16 2.162810 1_555
La2 O13 2.339956 1_565
La2 O14 2.387158 1_665
La2 O89 2.510220 1_555
La2 O85 2.515155 1_565
La2 O86 2.637616 1_665
La3 O87 2.327667 1_545
La3 O15 2.345805 1_555
La3 O88 2.386896 1_545
La3 O17 2.416073 1_545
La3 O12 2.437662 1_555
La3 O84 2.439606 1_555
La4 O28 2.330343 1_555
La4 O26 2.355724 1_555
La4 O24 2.363353 1_555
La4 O100 2.399269 1_555
La4 O96 2.429013 1_555
La4 O98 2.438120 1_555
La5 O101 2.186099 1_555
La5 O25 2.423266 1_555
La5 O29 2.458420 1_555
La5 O99 2.459065 1_555
La5 O97 2.482706 1_555
La5 O27 2.582748 1_555
La6 O110 2.175485 1_555
La6 O112 2.349115 1_555
La6 O108 2.380884 1_555
La6 O40 2.417878 1_556
La6 O38 2.419351 1_556
La6 O36 2.530165 1_556
La7 O119 2.280335 1_555
La7 O45 2.313446 1_555
La7 O47 2.323736 1_555
La7 O43 2.413604 1_555
La7 O115 2.438886 1_555
La7 O117 2.466587 1_555
La8 O51 2.179456 1_554
La8 O53 2.347047 1_554
La8 O49 2.369057 1_554
La8 O121 2.404917 1_555
La8 O123 2.491901 1_555
La8 O125 2.500805 1_555
La9 O58 2.201167 1_555
La9 O126 2.360267 1_555
La9 O130 2.365955 1_555
La9 O128 2.416622 1_555
La9 O56 2.442384 1_555
La9 O54 2.455461 1_555
La10 O140 2.114192 1_555
La10 O138 2.407544 1_555
La10 O68 2.411971 1_555
La10 O66 2.443643 1_555
La10 O142 2.454732 1_555
La10 O70 2.535851 1_555
La11 O67 2.166780 1_555
La11 O139 2.405686 1_555
La11 O143 2.411162 1_555
La11 O141 2.464967 1_555
La11 O71 2.476737 1_555
La11 O69 2.506258 1_555
Ga0 O72 1.802080 1_555
Ga0 O5 1.993800 1_465
Ga0 O0 2.009982 1_565
Ga0 O3 2.052937 1_455
Ga0 O76 2.105179 1_565
Ga0 O75 2.417612 1_455
Ga1 O74 1.924732 1_545
Ga1 O1 1.947489 1_555
Ga1 O77 1.982468 1_555
Ga1 O2 2.010542 1_545
Ga1 O4 2.037957 1_555
Ga1 O73 2.135663 1_545
Ga2 O94 1.961539 1_655
Ga2 O93 1.973627 1_555
Ga2 O19 1.984300 1_545
Ga2 O22 1.991447 1_645
Ga2 O20 2.030990 1_655
Ga2 O91 2.139223 1_545
Ga3 O90 1.931745 1_555
Ga3 O21 1.944779 1_565
Ga3 O23 1.989611 1_555
Ga3 O18 2.011975 1_555
Ga3 O92 2.035009 1_565
Ga3 O95 2.323460 1_565
Ga4 O34 1.908981 1_555
Ga4 O106 1.910086 1_555
Ga4 O30 1.922696 1_555
Ga4 O32 1.940720 1_555
Ga5 O31 1.885873 1_555
Ga5 O33 1.932476 1_555
Ga5 O35 1.964771 1_555
Ga5 O103 2.008250 1_555
Ga5 O105 2.155264 1_555
Ga6 O111 1.938119 1_555
Ga6 O109 1.980693 1_555
Ga6 O113 1.991173 1_555
Ga6 O41 2.025670 1_556
Ga6 O37 2.029369 1_556
Ga6 O39 2.041104 1_556
Ga7 O44 1.924271 1_555
Ga7 O46 1.932476 1_555
Ga7 O42 1.953698 1_555
Ga7 O118 2.081335 1_555
Ga7 O116 2.134234 1_555
Ga7 O114 2.178310 1_555
Ga8 O50 1.921308 1_554
Ga8 O48 1.938545 1_554
Ga8 O52 1.940183 1_554
Ga8 O122 2.036558 1_555
Ga8 O120 2.111372 1_555
Ga8 O124 2.246318 1_555
Ga9 O131 1.931469 1_555
Ga9 O129 1.940598 1_555
Ga9 O127 1.951434 1_555
Ga9 O55 1.964216 1_555
Ga9 O59 2.043300 1_555
Ga9 O57 2.108458 1_555
Ga10 O60 1.771513 1_555
Ga10 O134 1.918576 1_555
Ga10 O64 1.991251 1_555
Ga10 O62 2.104129 1_555
Ga10 O136 2.247367 1_555
Ga11 O65 1.936937 1_555
Ga11 O61 1.941055 1_555
Ga11 O63 1.942016 1_555
Ga11 O133 2.001220 1_555
Ga11 O137 2.037205 1_555
O0 S0 1.492669 1_555
O1 S1 1.504583 1_545
O2 S2 1.497072 1_555
O3 S3 1.487906 1_555
O4 S5 1.487441 1_555
O5 S4 1.518943 1_655
O6 S6 1.488771 1_555
O7 S7 1.479125 1_555
O8 S8 1.480208 1_555
O9 Si0 1.630690 1_555
O10 S9 1.476759 1_565
O11 S10 1.496100 1_555
O12 S9 1.498111 1_555
O13 S10 1.481510 1_555
O14 S6 1.483242 1_555
O15 S7 1.493552 1_555
O16 Si0 1.644171 1_555
O17 S8 1.489166 1_555
O18 S2 1.494283 1_555
O19 S3 1.505124 1_555
O20 S4 1.478291 1_555
O21 S5 1.519568 1_555
O22 S0 1.492910 1_565
O23 S1 1.499477 1_555
O24 S11 1.481168 1_555
O25 S12 1.471213 1_555
O26 S13 1.477358 1_555
O27 S14 1.470047 1_555
O28 S15 1.481312 1_555
O29 S16 1.471791 1_555
O30 S17 1.513585 1_555
O31 S18 1.520352 1_555
O32 S19 1.518608 1_555
O33 S20 1.512563 1_555
O34 S21 1.528911 1_555
O35 S22 1.500825 1_555
O36 S21 1.462063 1_555
O37 S22 1.496788 1_555
O38 S17 1.467886 1_555
O39 S18 1.483753 1_555
O40 S19 1.477985 1_555
O41 S20 1.486858 1_555
O42 S13 1.504405 1_555
O43 S14 1.480474 1_555
O44 S15 1.500665 1_555
O45 S16 1.483028 1_555
O46 S11 1.487816 1_555
O47 S12 1.494123 1_555
O48 S23 1.507222 1_555
O49 S24 1.475297 1_555
O50 S25 1.493234 1_555
O51 Si1 1.645885 1_555
O52 S26 1.512779 1_555
O53 S27 1.473630 1_555
O54 S28 1.465800 1_555
O55 S29 1.496928 1_555
O56 S30 1.467583 1_555
O57 S31 1.475109 1_555
O58 Si2 1.634618 1_555
O59 S32 1.475899 1_555
O60 Si2 1.650125 1_555
O61 S32 1.509961 1_555
O62 S28 1.491123 1_555
O63 S29 1.502208 1_555
O64 S30 1.501763 1_555
O65 S31 1.505993 1_555
O66 S25 1.476054 1_555
O67 Si1 1.620103 1_555
O68 S26 1.464453 1_555
O69 S27 1.473610 1_555
O70 S23 1.461244 1_555
O71 S24 1.482538 1_555
O72 Si2 1.651211 1_555
O73 S32 1.477554 1_555
O74 S28 1.487338 1_555
O75 S29 1.473584 1_555
O76 S30 1.477164 1_555
O77 S31 1.490439 1_555
O78 S25 1.462282 1_555
O79 Si1 1.635481 1_555
O80 S26 1.473480 1_555
O81 S27 1.485776 1_545
O82 S23 1.487977 1_555
O83 S24 1.467314 1_555
O84 S11 1.475660 1_555
O85 S12 1.477628 1_555
O86 S13 1.476692 1_555
O87 S14 1.486912 1_565
O88 S15 1.474519 1_555
O89 S16 1.486127 1_555
O90 S17 1.487790 1_555
O91 S18 1.474778 1_555
O92 S19 1.496366 1_555
O93 S20 1.491321 1_555
O94 S21 1.476823 1_555
O95 S22 1.492056 1_555
O96 S9 1.488760 1_555
O97 S10 1.474500 1_555
O98 S6 1.489443 1_555
O99 S7 1.476211 1_555
O100 S8 1.497436 1_555
O101 Si0 1.628324 1_555
O102 S2 1.469283 1_555
O103 S3 1.545132 1_555
O104 S5 1.470808 1_555
O105 S4 1.526317 1_655
O106 S0 1.550909 1_555
O107 S1 1.466692 1_545
O108 S23 1.480586 1_555
O109 S24 1.502946 1_555
O110 Si1 1.635983 1_555
O111 S25 1.488708 1_655
O112 S26 1.473513 1_545
O113 S27 1.495073 1_545
O114 S28 1.511467 1_545
O115 S29 1.480007 1_545
O116 S30 1.512593 1_555
O117 S31 1.474049 1_555
O118 S32 1.500369 1_555
O119 Si2 1.638982 1_655
O120 S21 1.487247 1_555
O121 S22 1.475557 1_555
O122 S18 1.482515 1_455
O123 S17 1.465442 1_555
O124 S19 1.471057 1_565
O125 S20 1.459788 1_565
O126 S13 1.474122 1_565
O127 S14 1.494665 1_565
O128 S15 1.460851 1_555
O129 S16 1.481863 1_555
O130 S12 1.481299 1_455
O131 S11 1.470185 1_555
O132 S0 1.446221 1_565
O133 S1 1.500168 1_555
O134 S2 1.507939 1_555
O135 S3 1.452830 1_555
O136 S4 1.467392 1_555
O137 S5 1.500430 1_555
O138 S6 1.466553 1_555
O139 S7 1.470099 1_555
O140 Si0 1.614696 1_455
O141 S8 1.468794 1_555
O142 S9 1.459029 1_565
O143 S10 1.474984 1_565
