# generated using pymatgen
data_MgMn5O8
_symmetry_space_group_name_H-M   'P 1'
_cell_length_a   6.85460586
_cell_length_b   7.88294512
_cell_length_c   6.80640170
_cell_angle_alpha   89.70674036
_cell_angle_beta   50.85497855
_cell_angle_gamma   50.65559534
_symmetry_Int_Tables_number   1
_chemical_formula_structural   MgMn5O8
_chemical_formula_sum   'Mg1 Mn5 O8'
_cell_volume   165.95753676
_cell_formula_units_Z   1
loop_
 _symmetry_equiv_pos_site_id
 _symmetry_equiv_pos_as_xyz
  1  'x, y, z'
loop_
 _atom_site_type_symbol
 _atom_site_label
 _atom_site_symmetry_multiplicity
 _atom_site_fract_x
 _atom_site_fract_y
 _atom_site_fract_z
 _atom_site_occupancy
  Mg  Mg0  1  0.82091029  0.96782322  0.71888028  1
  Mn  Mn0  1  0.99336748  0.51312826  0.48398118  1
  Mn  Mn1  1  0.70516958  0.30192524  0.28292281  1
  Mn  Mn2  1  0.27908334  0.99487781  0.23031111  1
  Mn  Mn3  1  0.03384244  0.49235435  0.98218004  1
  Mn  Mn4  1  0.49071607  0.51267004  0.98123168  1
  O  O0  1  0.60643744  0.27721933  0.65593911  1
  O  O1  1  0.10152770  0.23834446  0.55281284  1
  O  O2  1  0.36512719  0.80914615  0.94274528  1
  O  O3  1  0.96687230  0.67123977  0.78884934  1
  O  O4  1  0.13519417  0.27158616  0.13235708  1
  O  O5  1  0.61420952  0.24103830  0.06869237  1
  O  O6  1  0.90532276  0.76932698  0.40157460  1
  O  O7  1  0.47180272  0.68931993  0.27752229  1
loop_
_geom_bond_atom_site_label_1
_geom_bond_atom_site_label_2
_geom_bond_distance
_geom_bond_site_symmetry_2
Mg0 O5 2.058900 1_566
Mg0 O3 2.078001 1_555
Mg0 O7 2.115594 1_655
Mg0 O0 2.128711 1_565
Mg0 O6 2.180915 1_555
Mg0 O4 2.200822 1_566
Mn0 O6 1.904717 1_555
Mn0 O1 1.962920 1_655
Mn0 O5 2.000377 1_655
Mn0 O2 2.023772 1_555
Mn0 O4 2.249532 1_655
Mn0 O3 2.270674 1_555
Mn1 O5 2.068756 1_555
Mn1 O0 2.221397 1_555
Mn1 O4 2.256271 1_655
Mn1 O3 2.315905 1_455
Mn1 O2 2.345450 1_644
Mn1 O7 2.401055 1_555
Mn2 O1 1.921302 1_565
Mn2 O2 1.949196 1_554
Mn2 O7 2.035591 1_555
Mn2 O4 2.064640 1_565
Mn2 O3 2.169367 1_554
Mn2 O0 2.189687 1_465
Mn3 O0 1.951066 1_555
Mn3 O3 1.963079 1_455
Mn3 O4 1.975218 1_556
Mn3 O7 1.990815 1_456
Mn4 O6 1.910732 1_456
Mn4 O1 1.969526 1_655
Mn4 O5 1.995201 1_556
Mn4 O2 1.999793 1_555
Mn4 O0 2.221289 1_555
Mn4 O7 2.343637 1_556
