# generated using pymatgen
data_Nb2Co4O9
_symmetry_space_group_name_H-M   'P 1'
_cell_length_a   5.05736772
_cell_length_b   5.15644438
_cell_length_c   14.26065704
_cell_angle_alpha   92.68749824
_cell_angle_beta   90.27741056
_cell_angle_gamma   59.93774338
_symmetry_Int_Tables_number   1
_chemical_formula_structural   Nb2Co4O9
_chemical_formula_sum   'Nb4 Co8 O18'
_cell_volume   321.43508150
_cell_formula_units_Z   2
loop_
 _symmetry_equiv_pos_site_id
 _symmetry_equiv_pos_as_xyz
  1  'x, y, z'
loop_
 _atom_site_type_symbol
 _atom_site_label
 _atom_site_symmetry_multiplicity
 _atom_site_fract_x
 _atom_site_fract_y
 _atom_site_fract_z
 _atom_site_occupancy
  Nb  Nb0  1  0.99094364  0.02469396  0.64230897  1
  Nb  Nb1  1  0.01649821  0.97626102  0.85523765  1
  Nb  Nb2  1  0.00785244  0.97408554  0.35767674  1
  Nb  Nb3  1  0.98414070  0.02563836  0.14479611  1
  Co  Co0  1  0.33882534  0.33873688  0.01380679  1
  Co  Co1  1  0.66230600  0.66270885  0.98611022  1
  Co  Co2  1  0.67788454  0.66784319  0.69265745  1
  Co  Co3  1  0.32202033  0.33184335  0.30750788  1
  Co  Co4  1  0.67196485  0.66290093  0.48576094  1
  Co  Co5  1  0.32701054  0.33548496  0.51430573  1
  Co  Co6  1  0.32928760  0.34409311  0.81983103  1
  Co  Co7  1  0.67098219  0.65620112  0.18008901  1
  O  O0  1  0.70630150  0.28488930  0.25329969  1
  O  O1  1  0.99040808  0.69685400  0.24789828  1
  O  O2  1  0.31126369  0.97812921  0.24876738  1
  O  O3  1  0.29364821  0.71522512  0.74678940  1
  O  O4  1  0.00963340  0.30306474  0.75196023  1
  O  O5  1  0.68874862  0.02180766  0.75138807  1
  O  O6  1  0.34066467  0.98689781  0.58056098  1
  O  O7  1  0.66918544  0.35582230  0.58232043  1
  O  O8  1  0.97201186  0.68222511  0.58591578  1
  O  O9  1  0.31894394  0.01672652  0.92294122  1
  O  O10  1  0.01999737  0.64521892  0.91556481  1
  O  O11  1  0.64209490  0.33040424  0.91042385  1
  O  O12  1  0.65869232  0.01162915  0.41955659  1
  O  O13  1  0.32982706  0.64282554  0.41767026  1
  O  O14  1  0.02716866  0.31647198  0.41411548  1
  O  O15  1  0.68215754  0.98430542  0.07707470  1
  O  O16  1  0.98088472  0.35598459  0.08417169  1
  O  O17  1  0.35865066  0.67102814  0.08949464  1
loop_
_geom_bond_atom_site_label_1
_geom_bond_atom_site_label_2
_geom_bond_distance
_geom_bond_site_symmetry_2
Nb0 O6 1.896102 1_645
Nb0 O7 1.906562 1_555
Nb0 O8 1.951887 1_545
Nb0 O4 2.106771 1_655
Nb0 O5 2.191721 1_555
Nb0 O3 2.205311 1_645
Nb1 O9 1.897868 1_565
Nb1 O10 1.939482 1_555
Nb1 O11 1.988667 1_465
Nb1 O3 2.025775 1_555
Nb1 O5 2.148187 1_465
Nb1 O4 2.276775 1_565
Nb2 O12 1.894974 1_465
Nb2 O13 1.907370 1_555
Nb2 O14 1.952713 1_565
Nb2 O1 2.101741 1_455
Nb2 O2 2.196670 1_555
Nb2 O0 2.205187 1_465
Nb3 O15 1.898181 1_545
Nb3 O16 1.938861 1_555
Nb3 O17 1.990540 1_645
Nb3 O0 2.025056 1_555
Nb3 O2 2.144679 1_645
Nb3 O1 2.283968 1_545
Co0 O17 2.026965 1_555
Co0 O15 2.032052 1_545
Co0 O16 2.034626 1_455
Co0 O9 2.100112 1_554
Co0 O11 2.116067 1_554
Co0 O10 2.166332 1_554
Co1 O11 2.027931 1_555
Co1 O9 2.030384 1_565
Co1 O10 2.034276 1_655
Co1 O15 2.099189 1_556
Co1 O17 2.117509 1_556
Co1 O16 2.164600 1_556
Co2 O3 1.988191 1_555
Co2 O5 1.998126 1_565
Co2 O4 2.010426 1_655
Co2 O8 2.162945 1_555
Co2 O7 2.213420 1_555
Co2 O6 2.362156 1_555
Co3 O0 1.989671 1_555
Co3 O2 1.996745 1_545
Co3 O1 2.012837 1_455
Co3 O14 2.166297 1_555
Co3 O13 2.206255 1_555
Co3 O12 2.362855 1_555
Co4 O14 2.023253 1_655
Co4 O13 2.025178 1_555
Co4 O12 2.041333 1_565
Co4 O6 2.105177 1_555
Co4 O8 2.114166 1_555
Co4 O7 2.151872 1_555
Co5 O8 2.023219 1_455
Co5 O7 2.025448 1_555
Co5 O6 2.040263 1_545
Co5 O12 2.105246 1_555
Co5 O14 2.113138 1_555
Co5 O13 2.153712 1_555
Co6 O5 1.964058 1_555
Co6 O4 1.975672 1_555
Co6 O11 2.013349 1_555
Co6 O10 2.027332 1_555
Co6 O3 2.149262 1_555
Co6 O9 2.310056 1_555
Co7 O2 1.965607 1_555
Co7 O1 1.973290 1_555
Co7 O17 2.009604 1_555
Co7 O16 2.028604 1_555
Co7 O0 2.151929 1_555
Co7 O15 2.313730 1_555
