# generated using pymatgen
data_La2SbO2
_symmetry_space_group_name_H-M   'P 1'
_cell_length_a   7.57823920
_cell_length_b   7.57823920
_cell_length_c   7.57823920
_cell_angle_alpha   149.04920662
_cell_angle_beta   149.02718532
_cell_angle_gamma   44.35508927
_symmetry_Int_Tables_number   1
_chemical_formula_structural   La2SbO2
_chemical_formula_sum   'La2 Sb1 O2'
_cell_volume   114.85173650
_cell_formula_units_Z   1
loop_
 _symmetry_equiv_pos_site_id
 _symmetry_equiv_pos_as_xyz
  1  'x, y, z'
loop_
 _atom_site_type_symbol
 _atom_site_label
 _atom_site_symmetry_multiplicity
 _atom_site_fract_x
 _atom_site_fract_y
 _atom_site_fract_z
 _atom_site_occupancy
  La  La0  1  0.33738023  0.35126863  0.01388940  1
  La  La1  1  0.66261977  0.67650916  0.01388940  1
  Sb  Sb0  1  -0.00000000  0.01679033  0.01679033  1
  O  O0  1  0.75000344  0.26421989  0.51421644  1
  O  O1  1  0.24999656  0.76421300  0.51421644  1
loop_
_geom_bond_atom_site_label_1
_geom_bond_atom_site_label_2
_geom_bond_distance
_geom_bond_site_symmetry_2
La0 O1 2.363795 1_544
La0 O1 2.366060 1_555
La0 O0 2.366076 1_555
La0 O0 2.366079 1_454
La0 Sb0 3.653106 1_655
La0 Sb0 3.653108 1_554
La0 Sb0 3.666073 1_666
La0 Sb0 3.666075 1_565
La1 O0 2.363800 1_554
La1 O0 2.366062 1_565
La1 O1 2.366081 1_655
La1 O1 2.366081 1_554
La1 Sb0 3.653104 1_655
La1 Sb0 3.653104 1_554
La1 Sb0 3.666068 1_666
La1 Sb0 3.666068 1_565
