# generated using pymatgen
data_NaTa3N5
_symmetry_space_group_name_H-M   'P 1'
_cell_length_a   5.51374177
_cell_length_b   5.51374177
_cell_length_c   10.42433900
_cell_angle_alpha   90.00000000
_cell_angle_beta   90.00000000
_cell_angle_gamma   137.02676145
_symmetry_Int_Tables_number   1
_chemical_formula_structural   NaTa3N5
_chemical_formula_sum   'Na2 Ta6 N10'
_cell_volume   216.02652105
_cell_formula_units_Z   2
loop_
 _symmetry_equiv_pos_site_id
 _symmetry_equiv_pos_as_xyz
  1  'x, y, z'
loop_
 _atom_site_type_symbol
 _atom_site_label
 _atom_site_symmetry_multiplicity
 _atom_site_fract_x
 _atom_site_fract_y
 _atom_site_fract_z
 _atom_site_occupancy
  Na  Na0  1  0.50391700  0.49608400  0.75000000  1
  Na  Na1  1  0.49608400  0.50391600  0.25000000  1
  Ta  Ta0  1  0.13980300  0.86019700  0.54681900  1
  Ta  Ta1  1  0.79655800  0.20344200  0.75000000  1
  Ta  Ta2  1  0.86019700  0.13980300  0.04681900  1
  Ta  Ta3  1  0.86019700  0.13980300  0.45318100  1
  Ta  Ta4  1  0.20344200  0.79655800  0.25000000  1
  Ta  Ta5  1  0.13980300  0.86019700  0.95318100  1
  N  N0  1  0.32098200  0.67901800  0.07888700  1
  N  N1  1  0.95469500  0.04530500  0.87851600  1
  N  N2  1  0.95469500  0.04530500  0.62148400  1
  N  N3  1  0.04530500  0.95469500  0.37851600  1
  N  N4  1  0.32098200  0.67901800  0.42111300  1
  N  N5  1  0.25346700  0.74653300  0.75000000  1
  N  N6  1  0.67901800  0.32098200  0.57888700  1
  N  N7  1  0.74653300  0.25346700  0.25000000  1
  N  N8  1  0.04530500  0.95469500  0.12148400  1
  N  N9  1  0.67901800  0.32098200  0.92111300  1
loop_
_geom_bond_atom_site_label_1
_geom_bond_atom_site_label_2
_geom_bond_distance
_geom_bond_site_symmetry_2
N0 Ta2 2.086248 1_565
N0 Ta2 2.086248 1_455
N0 Ta4 2.153226 1_555
N0 Ta5 2.274510 1_554
N0 Na1 2.531799 1_555
N1 Ta2 2.004574 1_556
N1 Ta5 2.052699 1_645
N1 Ta1 2.104236 1_555
N1 Na0 2.475607 1_545
N1 Na0 2.475610 1_655
N2 Ta3 2.004574 1_555
N2 Ta0 2.052699 1_645
N2 Ta1 2.104236 1_555
N2 Na0 2.475607 1_545
N2 Na0 2.475610 1_655
N3 Ta0 2.004574 1_555
N3 Ta3 2.052699 1_465
N3 Ta4 2.104236 1_555
N3 Na1 2.475608 1_565
N3 Na1 2.475608 1_455
N4 Ta3 2.086248 1_565
N4 Ta3 2.086248 1_455
N4 Ta4 2.153226 1_555
N4 Ta0 2.274510 1_555
N4 Na1 2.531799 1_555
N5 Ta1 2.067431 1_565
N5 Ta1 2.067431 1_455
N5 Ta5 2.417921 1_555
N5 Ta0 2.417921 1_555
N5 Na0 2.569889 1_555
N6 Ta0 2.086248 1_545
N6 Ta0 2.086248 1_655
N6 Ta1 2.153226 1_555
N6 Ta3 2.274510 1_555
N6 Na0 2.531795 1_555
N7 Ta4 2.067431 1_655
N7 Ta4 2.067431 1_545
N7 Ta3 2.417921 1_555
N7 Ta2 2.417921 1_555
N7 Na1 2.569884 1_555
N8 Ta5 2.004574 1_554
N8 Ta2 2.052699 1_465
N8 Ta4 2.104236 1_555
N8 Na1 2.475608 1_565
N8 Na1 2.475608 1_455
N9 Ta5 2.086248 1_545
N9 Ta5 2.086248 1_655
N9 Ta1 2.153226 1_555
N9 Ta2 2.274510 1_556
N9 Na0 2.531795 1_555
