# generated using pymatgen
data_Mo4P7O24
_symmetry_space_group_name_H-M   'P 1'
_cell_length_a   10.56087371
_cell_length_b   10.58488893
_cell_length_c   11.34206849
_cell_angle_alpha   112.88982416
_cell_angle_beta   109.69480619
_cell_angle_gamma   104.33281540
_symmetry_Int_Tables_number   1
_chemical_formula_structural   Mo4P7O24
_chemical_formula_sum   'Mo8 P14 O48'
_cell_volume   989.39451505
_cell_formula_units_Z   2
loop_
 _symmetry_equiv_pos_site_id
 _symmetry_equiv_pos_as_xyz
  1  'x, y, z'
loop_
 _atom_site_type_symbol
 _atom_site_label
 _atom_site_symmetry_multiplicity
 _atom_site_fract_x
 _atom_site_fract_y
 _atom_site_fract_z
 _atom_site_occupancy
  Mo  Mo0  1  0.75792200  0.15430300  0.26060800  1
  Mo  Mo1  1  0.92261800  0.30623500  0.92557500  1
  Mo  Mo2  1  0.62542900  0.77582400  0.11414500  1
  Mo  Mo3  1  0.57296000  0.41395900  0.58734600  1
  Mo  Mo4  1  0.42704100  0.58604100  0.41265400  1
  Mo  Mo5  1  0.37457100  0.22417600  0.88585500  1
  Mo  Mo6  1  0.07738200  0.69376500  0.07442500  1
  Mo  Mo7  1  0.24207800  0.84569800  0.73939200  1
  P  P0  1  0.38540900  0.94592400  0.11819200  1
  P  P1  1  0.29901500  0.51218100  0.04721600  1
  P  P2  1  0.70098400  0.48781900  0.95278400  1
  P  P3  1  0.61459100  0.05407700  0.88180800  1
  P  P4  1  0.26769400  0.12620600  0.51856700  1
  P  P5  1  0.73230600  0.87379500  0.48143300  1
  P  P6  1  0.50338600  0.27902600  0.24342900  1
  P  P7  1  0.93613500  0.68501300  0.73876300  1
  P  P8  1  0.99724800  0.99051200  0.76667500  1
  P  P9  1  0.24036900  0.81282200  0.43221300  1
  P  P10  1  0.06386500  0.31498700  0.26123700  1
  P  P11  1  0.00275200  0.00948800  0.23332600  1
  P  P12  1  0.49661500  0.72097400  0.75657100  1
  P  P13  1  0.75963000  0.18717800  0.56778700  1
  O  O0  1  0.97912700  0.12292300  0.86052900  1
  O  O1  1  0.99786200  0.31392400  0.11726200  1
  O  O2  1  0.96580600  0.32284600  0.33242200  1
  O  O3  1  0.68374000  0.10243100  0.04065200  1
  O  O4  1  0.83453500  0.18857400  0.47548400  1
  O  O5  1  0.87943200  0.28765100  0.73325100  1
  O  O6  1  0.74376000  0.64512800  0.07679500  1
  O  O7  1  0.84104900  0.97734100  0.20118200  1
  O  O8  1  0.00213800  0.68607700  0.88273800  1
  O  O9  1  0.03419400  0.67715400  0.66757800  1
  O  O10  1  0.31626000  0.89756900  0.95934800  1
  O  O11  1  0.02087300  0.87707700  0.13947100  1
  O  O12  1  0.16546500  0.81142500  0.52451500  1
  O  O13  1  0.12056800  0.71235000  0.26674900  1
  O  O14  1  0.25624000  0.35487100  0.92320400  1
  O  O15  1  0.15895100  0.02265800  0.79881800  1
  O  O16  1  0.30607500  0.98492300  0.45999200  1
  O  O17  1  0.33384700  0.69215500  0.69572500  1
  O  O18  1  0.09260300  0.06257100  0.40185000  1
  O  O19  1  0.06662700  0.14520500  0.21098400  1
  O  O20  1  0.22269700  0.43113600  0.36420400  1
  O  O21  1  0.27462400  0.16766000  0.66305200  1
  O  O22  1  0.37172300  0.77432100  0.46315600  1
  O  O23  1  0.13440400  0.51607100  0.00907300  1
  O  O24  1  0.29183500  0.85037100  0.15686700  1
  O  O25  1  0.56488300  0.72334300  0.89711400  1
  O  O26  1  0.59522800  0.88525100  0.78465200  1
  O  O27  1  0.35446500  0.24832600  0.50342000  1
  O  O28  1  0.51373800  0.60782200  0.63183900  1
  O  O29  1  0.45147700  0.04146000  0.82073100  1
  O  O30  1  0.59932700  0.36303600  0.95902200  1
  O  O31  1  0.35795500  0.53255800  0.19784400  1
  O  O32  1  0.64204400  0.46744200  0.80215600  1
  O  O33  1  0.40067300  0.63696400  0.04097800  1
  O  O34  1  0.54852200  0.95853900  0.17926900  1
  O  O35  1  0.48626200  0.39217900  0.36816000  1
  O  O36  1  0.64553500  0.75167400  0.49658000  1
  O  O37  1  0.40477300  0.11475000  0.21534900  1
  O  O38  1  0.43511700  0.27665700  0.10288600  1
  O  O39  1  0.70816500  0.14963000  0.84313300  1
  O  O40  1  0.86559700  0.48393000  0.99092800  1
  O  O41  1  0.62827800  0.22568000  0.53684500  1
  O  O42  1  0.72537600  0.83233900  0.33694700  1
  O  O43  1  0.77730400  0.56886400  0.63579600  1
  O  O44  1  0.93337200  0.85479400  0.78901600  1
  O  O45  1  0.69392500  0.01507700  0.54000900  1
  O  O46  1  0.66615200  0.30784600  0.30427400  1
  O  O47  1  0.90739700  0.93743000  0.59815000  1
loop_
_geom_bond_atom_site_label_1
_geom_bond_atom_site_label_2
_geom_bond_distance
_geom_bond_site_symmetry_2
Mo0 O46 2.074414 1_555
Mo0 O2 2.095517 1_555
Mo0 O3 2.131466 1_555
Mo0 O4 2.136287 1_555
Mo0 O34 2.214573 1_545
Mo0 O7 2.228101 1_545
Mo1 O5 1.989024 1_555
Mo1 O1 2.007677 1_556
Mo1 O40 2.055935 1_555
Mo1 O39 2.063871 1_555
Mo1 O0 2.102815 1_555
Mo1 O23 2.304146 1_656
Mo2 O6 2.100436 1_555
Mo2 O25 2.115731 1_554
Mo2 O33 2.116422 1_555
Mo2 O42 2.138096 1_555
Mo2 O34 2.239752 1_555
Mo2 O7 2.269724 1_555
Mo3 O32 2.076827 1_555
Mo3 O43 2.096534 1_555
Mo3 O27 2.126661 1_555
Mo3 O41 2.134258 1_555
Mo3 O28 2.213416 1_555
Mo3 O35 2.233209 1_555
Mo4 O31 2.076825 1_555
Mo4 O20 2.096534 1_555
Mo4 O36 2.126653 1_555
Mo4 O22 2.134268 1_555
Mo4 O35 2.213399 1_555
Mo4 O28 2.233193 1_555
Mo5 O14 2.100427 1_555
Mo5 O38 2.115731 1_556
Mo5 O30 2.116422 1_555
Mo5 O21 2.138103 1_555
Mo5 O29 2.239753 1_555
Mo5 O15 2.269730 1_555
Mo6 O13 1.989020 1_555
Mo6 O8 2.007682 1_554
Mo6 O23 2.055931 1_555
Mo6 O24 2.063875 1_555
Mo6 O11 2.102815 1_555
Mo6 O40 2.304137 1_454
Mo7 O17 2.074407 1_555
Mo7 O9 2.095521 1_555
Mo7 O10 2.131469 1_555
Mo7 O12 2.136290 1_555
Mo7 O29 2.214555 1_565
Mo7 O15 2.228083 1_565
O0 P8 1.497873 1_545
O1 P10 1.538577 1_655
O2 P10 1.511688 1_655
O3 P3 1.500640 1_554
O4 P13 1.512105 1_555
O5 P13 1.560312 1_555
O6 P2 1.527211 1_554
O7 P11 1.536611 1_665
O8 P7 1.538572 1_455
O9 P7 1.511688 1_455
O10 P0 1.500637 1_556
O11 P11 1.497878 1_565
O12 P9 1.512088 1_555
O13 P9 1.560310 1_555
O14 P1 1.527226 1_556
O15 P8 1.536615 1_445
O16 P4 1.597131 1_565
O16 P9 1.636935 1_555
O17 P12 1.516975 1_555
O18 P11 1.596142 1_555
O18 P4 1.632532 1_555
O19 P11 1.581630 1_555
O19 P10 1.672035 1_555
O20 P10 1.493557 1_555
O21 P4 1.492416 1_555
O22 P9 1.508848 1_555
O23 P1 1.659335 1_555
O24 P0 1.527881 1_555
O25 P12 1.498915 1_555
O26 P3 1.607736 1_565
O26 P12 1.630539 1_555
O27 P4 1.494169 1_555
O28 P12 1.558900 1_555
O29 P3 1.573202 1_555
O30 P2 1.524458 1_555
O31 P1 1.510901 1_555
O32 P2 1.510901 1_555
O33 P1 1.524463 1_555
O34 P0 1.573200 1_555
O35 P6 1.558904 1_555
O36 P5 1.494177 1_555
O37 P0 1.607734 1_545
O37 P6 1.630535 1_555
O38 P6 1.498916 1_555
O39 P3 1.527881 1_555
O40 P2 1.659351 1_555
O41 P13 1.508835 1_555
O42 P5 1.492424 1_555
O43 P7 1.493550 1_555
O44 P8 1.581634 1_555
O44 P7 1.672029 1_555
O45 P5 1.597124 1_545
O45 P13 1.636938 1_555
O46 P6 1.516952 1_555
O47 P8 1.596155 1_555
O47 P5 1.632532 1_555
