# generated using pymatgen
data_MgFe6O7F5
_symmetry_space_group_name_H-M   'P 1'
_cell_length_a   5.09311686
_cell_length_b   5.11906837
_cell_length_c   8.95745299
_cell_angle_alpha   90.63758395
_cell_angle_beta   89.59562377
_cell_angle_gamma   99.46771007
_symmetry_Int_Tables_number   1
_chemical_formula_structural   MgFe6O7F5
_chemical_formula_sum   'Mg1 Fe6 O7 F5'
_cell_volume   230.34017869
_cell_formula_units_Z   1
loop_
 _symmetry_equiv_pos_site_id
 _symmetry_equiv_pos_as_xyz
  1  'x, y, z'
loop_
 _atom_site_type_symbol
 _atom_site_label
 _atom_site_symmetry_multiplicity
 _atom_site_fract_x
 _atom_site_fract_y
 _atom_site_fract_z
 _atom_site_occupancy
  Mg  Mg0  1  0.48882137  -0.01860917  0.17880967  1
  Fe  Fe0  1  0.00943477  0.98049602  0.98277018  1
  Fe  Fe1  1  0.00495849  0.99066246  0.35700629  1
  Fe  Fe2  1  0.05926714  0.98918482  0.66213174  1
  Fe  Fe3  1  0.56186158  0.48216667  0.16896983  1
  Fe  Fe4  1  0.42040287  0.53622471  0.84470055  1
  Fe  Fe5  1  0.42713323  0.53540021  0.49533484  1
  O  O0  1  0.17508755  0.77091068  0.50781505  1
  O  O1  1  0.16344390  0.78102493  0.83624626  1
  O  O2  1  0.34398867  0.26205563  0.01358768  1
  O  O3  1  0.35743500  0.26191298  0.32347264  1
  O  O4  1  0.33572610  0.30891445  0.67181516  1
  O  O5  1  0.64509270  0.75038071  0.01349709  1
  O  O6  1  0.64052787  0.74558030  0.32540810  1
  F  F0  1  0.13290223  0.78382809  0.15942900  1
  F  F1  1  0.67318184  0.72382013  0.67329795  1
  F  F2  1  0.83337117  0.22830530  0.16250625  1
  F  F3  1  0.87024437  0.18273163  0.83355361  1
  F  F4  1  0.85711717  0.19111645  0.52536511  1
loop_
_geom_bond_atom_site_label_1
_geom_bond_atom_site_label_2
_geom_bond_distance
_geom_bond_site_symmetry_2
Mg0 O6 2.033462 1_545
Mg0 O3 2.109863 1_555
Mg0 O5 2.116283 1_545
Mg0 O2 2.282554 1_555
Fe0 O1 1.897278 1_555
Fe0 O5 2.046375 1_456
Fe0 O2 2.060776 1_566
Fe1 O0 2.052339 1_555
Fe1 O6 2.081491 1_455
Fe1 O3 2.103012 1_565
Fe2 O0 1.917844 1_555
Fe2 O4 1.977205 1_565
Fe2 O1 2.020911 1_555
Fe3 O6 1.931461 1_555
Fe3 O5 1.961385 1_555
Fe3 O3 1.974535 1_555
Fe3 O2 2.003416 1_555
Fe4 O4 1.934535 1_555
Fe4 O1 1.957530 1_555
Fe4 O2 2.066169 1_556
Fe4 O5 2.091011 1_556
Fe5 O0 1.902091 1_555
Fe5 O4 1.978064 1_555
Fe5 O3 2.062077 1_555
Fe5 O6 2.069798 1_555
F0 Mg0 1.932970 1_565
F0 Fe0 2.042253 1_554
F0 Fe1 2.201553 1_555
F1 Fe4 2.129578 1_555
F1 Fe5 2.153648 1_555
F1 Fe2 2.200779 1_655
F2 Mg0 1.992279 1_555
F2 Fe3 2.047620 1_555
F2 Fe0 2.305156 1_644
F2 Fe1 2.386919 1_645
F3 Fe0 1.909563 1_645
F3 Fe2 2.127277 1_645
F4 Fe2 2.006365 1_645
F4 Fe1 2.024330 1_645
