# generated using pymatgen
data_CsTbF5
_symmetry_space_group_name_H-M   'P 1'
_cell_length_a   8.36458624
_cell_length_b   8.36458624
_cell_length_c   8.36904382
_cell_angle_alpha   90.00000000
_cell_angle_beta   90.00000000
_cell_angle_gamma   119.97698544
_symmetry_Int_Tables_number   1
_chemical_formula_structural   CsTbF5
_chemical_formula_sum   'Cs4 Tb4 F20'
_cell_volume   507.21965060
_cell_formula_units_Z   4
loop_
 _symmetry_equiv_pos_site_id
 _symmetry_equiv_pos_as_xyz
  1  'x, y, z'
loop_
 _atom_site_type_symbol
 _atom_site_label
 _atom_site_symmetry_multiplicity
 _atom_site_fract_x
 _atom_site_fract_y
 _atom_site_fract_z
 _atom_site_occupancy
  Cs  Cs0  1  0.68739983  0.31260017  0.50000000  1
  Cs  Cs1  1  0.18739983  0.81260017  0.00000000  1
  Cs  Cs2  1  0.31260017  0.68739983  0.50000000  1
  Cs  Cs3  1  0.81260017  0.18739983  0.00000000  1
  Tb  Tb0  1  0.33054295  0.33054295  0.83087357  1
  Tb  Tb1  1  0.66945705  0.66945705  0.16912643  1
  Tb  Tb2  1  0.16945705  0.16945705  0.33087357  1
  Tb  Tb3  1  0.83054295  0.83054295  0.66912643  1
  F  F0  1  0.28614672  0.28614672  0.56814365  1
  F  F1  1  0.71385328  0.71385328  0.43185635  1
  F  F2  1  0.21385328  0.21385328  0.06814365  1
  F  F3  1  0.78614672  0.78614672  0.93185635  1
  F  F4  1  0.06725598  0.06725598  0.78688177  1
  F  F5  1  0.93274402  0.93274402  0.21311823  1
  F  F6  1  0.43274402  0.43274402  0.28688177  1
  F  F7  1  0.56725598  0.56725598  0.71311823  1
  F  F8  1  0.60670174  0.39329826  0.00000000  1
  F  F9  1  0.10670174  0.89329826  0.50000000  1
  F  F10  1  0.39329826  0.60670174  0.00000000  1
  F  F11  1  0.89329826  0.10670174  0.50000000  1
  F  F12  1  0.47004854  0.16558670  0.82210846  1
  F  F13  1  0.83441330  0.52995146  0.17789154  1
  F  F14  1  0.33441330  0.02995146  0.32210846  1
  F  F15  1  0.97004854  0.66558670  0.67789154  1
  F  F16  1  0.52995146  0.83441330  0.17789154  1
  F  F17  1  0.16558670  0.47004854  0.82210846  1
  F  F18  1  0.66558670  0.97004854  0.67789154  1
  F  F19  1  0.02995146  0.33441330  0.32210846  1
loop_
_geom_bond_atom_site_label_1
_geom_bond_atom_site_label_2
_geom_bond_distance
_geom_bond_site_symmetry_2
Cs0 F11 2.982688 1_555
Cs0 F15 3.090000 1_555
Cs0 F14 3.090000 1_555
Cs0 F12 3.138534 1_555
Cs0 F13 3.138534 1_555
Cs0 F19 3.152347 1_655
Cs0 F18 3.152347 1_545
Cs0 F7 3.296602 1_555
Cs0 F6 3.296602 1_555
Cs0 F0 3.301048 1_555
Cs0 F1 3.301048 1_555
Cs1 F10 2.982688 1_555
Cs1 F13 3.090000 1_455
Cs1 F12 3.090000 1_564
Cs1 F14 3.138534 1_565
Cs1 F15 3.138534 1_454
Cs1 F17 3.152347 1_554
Cs1 F16 3.152347 1_555
Cs1 F5 3.296602 1_455
Cs1 F4 3.296602 1_564
Cs1 F2 3.301048 1_565
Cs1 F3 3.301048 1_454
Cs2 F9 2.982688 1_555
Cs2 F18 3.090000 1_555
Cs2 F19 3.090000 1_555
Cs2 F16 3.138534 1_555
Cs2 F17 3.138534 1_555
Cs2 F14 3.152347 1_565
Cs2 F15 3.152347 1_455
Cs2 F7 3.296602 1_555
Cs2 F6 3.296602 1_555
Cs2 F0 3.301048 1_555
Cs2 F1 3.301048 1_555
Cs3 F8 2.982688 1_555
Cs3 F16 3.090000 1_545
Cs3 F17 3.090000 1_654
Cs3 F19 3.138534 1_655
Cs3 F18 3.138534 1_544
Cs3 F12 3.152347 1_554
Cs3 F13 3.152347 1_555
Cs3 F5 3.296602 1_545
Cs3 F4 3.296602 1_654
Cs3 F2 3.301048 1_655
Cs3 F3 3.301048 1_544
F0 Tb2 2.212794 1_555
F0 Tb0 2.229958 1_555
F1 Tb3 2.212794 1_555
F1 Tb1 2.229958 1_555
F2 Tb0 2.212794 1_554
F2 Tb2 2.229958 1_555
F3 Tb1 2.212794 1_556
F3 Tb3 2.229958 1_555
F4 Tb3 2.212321 1_445
F4 Tb0 2.233605 1_555
F5 Tb2 2.212321 1_665
F5 Tb1 2.233605 1_555
F6 Tb1 2.212321 1_555
F6 Tb2 2.233605 1_555
F7 Tb0 2.212321 1_555
F7 Tb3 2.233605 1_555
F8 Tb1 2.530447 1_555
F8 Tb0 2.530447 1_554
F9 Tb3 2.530447 1_455
F9 Tb2 2.530447 1_565
F10 Tb1 2.530447 1_555
F10 Tb0 2.530447 1_554
F11 Tb3 2.530447 1_545
F11 Tb2 2.530447 1_655
F12 Tb0 2.209036 1_555
F13 Tb1 2.209036 1_555
F14 Tb2 2.209036 1_555
F15 Tb3 2.209036 1_555
F16 Tb1 2.209036 1_555
F17 Tb0 2.209036 1_555
F18 Tb3 2.209036 1_555
F19 Tb2 2.209036 1_555
