# generated using pymatgen
data_Eu3Al5O12
_symmetry_space_group_name_H-M   'P 1'
_cell_length_a   10.51440548
_cell_length_b   10.51438525
_cell_length_c   10.51438525
_cell_angle_alpha   109.47119990
_cell_angle_beta   109.47119203
_cell_angle_gamma   109.47119203
_symmetry_Int_Tables_number   1
_chemical_formula_structural   Eu3Al5O12
_chemical_formula_sum   'Eu12 Al20 O48'
_cell_volume   894.81039382
_cell_formula_units_Z   4
loop_
 _symmetry_equiv_pos_site_id
 _symmetry_equiv_pos_as_xyz
  1  'x, y, z'
loop_
 _atom_site_type_symbol
 _atom_site_label
 _atom_site_symmetry_multiplicity
 _atom_site_fract_x
 _atom_site_fract_y
 _atom_site_fract_z
 _atom_site_occupancy
  Eu  Eu0  1  0.87497471  0.62499845  0.24997125  1
  Eu  Eu1  1  0.62502529  0.25002875  0.87500155  1
  Eu  Eu2  1  0.87497471  0.74997626  0.62500346  1
  Eu  Eu3  1  0.75000000  0.62500000  0.87500000  1
  Eu  Eu4  1  0.25000000  0.87500000  0.62500000  1
  Eu  Eu5  1  0.62502529  0.87499654  0.75002374  1
  Eu  Eu6  1  0.12502529  0.37500155  0.75002875  1
  Eu  Eu7  1  0.37497471  0.74997125  0.12499845  1
  Eu  Eu8  1  0.12502529  0.25002374  0.37499654  1
  Eu  Eu9  1  0.25000000  0.37500000  0.12500000  1
  Eu  Eu10  1  0.75000000  0.12500000  0.37500000  1
  Eu  Eu11  1  0.37497471  0.12500346  0.24997626  1
  Al  Al0  1  0.12497738  0.87499722  0.24997369  1
  Al  Al1  1  0.87502262  0.12500278  0.75002631  1
  Al  Al2  1  0.25000000  0.62499071  0.37499071  1
  Al  Al3  1  0.37502262  0.25002631  0.62500278  1
  Al  Al4  1  0.75000000  0.87499071  0.12499071  1
  Al  Al5  1  0.12497738  0.74998016  0.87500369  1
  Al  Al6  1  0.37502262  0.62499631  0.75001984  1
  Al  Al7  1  0.62497738  0.74997369  0.37499722  1
  Al  Al8  1  0.87502262  0.25001984  0.12499631  1
  Al  Al9  1  0.25000000  0.12500929  0.87500929  1
  Al  Al10  1  0.75000000  0.37500929  0.62500929  1
  Al  Al11  1  0.62497738  0.37500369  0.24998016  1
  Al  Al12  1  0.50000000  0.50000000  0.50000000  1
  Al  Al13  1  0.50000000  0.00000000  0.50000000  1
  Al  Al14  1  -0.00000000  0.50000000  0.50000000  1
  Al  Al15  1  0.50000000  0.50000000  -0.00000000  1
  Al  Al16  1  -0.00000000  0.00000000  0.50000000  1
  Al  Al17  1  -0.00000000  0.50000000  -0.00000000  1
  Al  Al18  1  0.50000000  0.00000000  -0.00000000  1
  Al  Al19  1  -0.00000000  0.00000000  -0.00000000  1
  O  O0  1  0.91917548  0.11536794  0.59958459  1
  O  O1  1  0.18042013  0.19621791  0.58084383  1
  O  O2  1  0.30378840  0.48420371  0.38463852  1
  O  O3  1  0.01581080  0.31958773  0.90046023  1
  O  O4  1  0.38465009  0.58085063  0.90045758  1
  O  O5  1  0.31957987  0.90042369  0.01579778  1
  O  O6  1  0.31957987  0.91915617  0.30378209  1
  O  O7  1  0.90044645  0.01580433  0.31959377  1
  O  O8  1  0.11534991  0.01580749  0.19620055  1
  O  O9  1  0.48418920  0.59953977  0.18041227  1
  O  O10  1  0.59955355  0.18040623  0.48419567  1
  O  O11  1  0.90044645  0.38464212  0.58085267  1
  O  O12  1  0.91917548  0.30380754  0.31959089  1
  O  O13  1  0.19621160  0.11536148  0.01579629  1
  O  O14  1  0.58082452  0.90041541  0.38463206  1
  O  O15  1  0.30378840  0.31958469  0.91914988  1
  O  O16  1  0.01581080  0.19622307  0.11535057  1
  O  O17  1  0.58082452  0.18040911  0.19619246  1
  O  O18  1  0.48418920  0.38464943  0.30377693  1
  O  O19  1  0.88465009  0.98419251  0.80379945  1
  O  O20  1  0.38465009  0.30379945  0.48419251  1
  O  O21  1  0.59955355  0.91914733  0.11535788  1
  O  O22  1  0.19621160  0.58085012  0.18041531  1
  O  O23  1  0.18042013  0.48420222  0.59957631  1
  O  O24  1  0.08082452  0.88463206  0.40041541  1
  O  O25  1  0.81957987  0.80378209  0.41915617  1
  O  O26  1  0.69621160  0.51579629  0.61536148  1
  O  O27  1  0.98418920  0.68041227  0.09953977  1
  O  O28  1  0.61534991  0.41914937  0.09954242  1
  O  O29  1  0.68042013  0.09957631  0.98420222  1
  O  O30  1  0.68042013  0.08084383  0.69621791  1
  O  O31  1  0.09955355  0.98419567  0.68040623  1
  O  O32  1  0.81957987  0.51579778  0.40042369  1
  O  O33  1  0.80378840  0.41914988  0.81958469  1
  O  O34  1  0.40044645  0.08085267  0.88464212  1
  O  O35  1  0.88465009  0.40045758  0.08085063  1
  O  O36  1  0.61534991  0.69620055  0.51580749  1
  O  O37  1  0.51581080  0.61535057  0.69622307  1
  O  O38  1  0.41917548  0.81959089  0.80380754  1
  O  O39  1  0.98418920  0.80377693  0.88464943  1
  O  O40  1  0.69621160  0.68041531  0.08085012  1
  O  O41  1  0.41917548  0.09958459  0.61536794  1
  O  O42  1  0.80378840  0.88463852  0.98420371  1
  O  O43  1  0.08082452  0.69619246  0.68040911  1
  O  O44  1  0.09955355  0.61535788  0.41914733  1
  O  O45  1  0.40044645  0.81959377  0.51580433  1
  O  O46  1  0.51581080  0.40046023  0.81958773  1
  O  O47  1  0.11534991  0.59954242  0.91914937  1
loop_
_geom_bond_atom_site_label_1
_geom_bond_atom_site_label_2
_geom_bond_distance
_geom_bond_site_symmetry_2
Eu0 O28 2.353402 1_555
Eu0 O24 2.353458 1_655
Eu0 O27 2.353525 1_555
Eu0 O32 2.353573 1_555
Eu0 O40 2.495405 1_555
Eu0 O35 2.495631 1_555
Eu0 O25 2.495726 1_555
Eu0 O44 2.495945 1_655
Eu1 O35 2.353402 1_556
Eu1 O41 2.353458 1_555
Eu1 O46 2.353525 1_555
Eu1 O29 2.353573 1_555
Eu1 O33 2.495405 1_555
Eu1 O28 2.495631 1_556
Eu1 O30 2.495726 1_555
Eu1 O34 2.495945 1_555
Eu2 O36 2.353402 1_555
Eu2 O43 2.353458 1_655
Eu2 O39 2.353525 1_555
Eu2 O25 2.353573 1_555
Eu2 O26 2.495405 1_555
Eu2 O19 2.495631 1_555
Eu2 O32 2.495726 1_555
Eu2 O31 2.495945 1_655
Eu3 O26 2.353490 1_555
Eu3 O42 2.353490 1_555
Eu3 O40 2.353490 1_556
Eu3 O33 2.353490 1_555
Eu3 O37 2.495494 1_555
Eu3 O27 2.495494 1_556
Eu3 O46 2.495494 1_555
Eu3 O39 2.495494 1_555
Eu4 O34 2.353521 1_565
Eu4 O44 2.353521 1_555
Eu4 O45 2.353521 1_555
Eu4 O31 2.353521 1_555
Eu4 O24 2.495931 1_555
Eu4 O43 2.495931 1_555
Eu4 O38 2.495931 1_555
Eu4 O41 2.495931 1_565
Eu5 O19 2.353402 1_555
Eu5 O38 2.353458 1_555
Eu5 O37 2.353525 1_555
Eu5 O30 2.353573 1_565
Eu5 O42 2.495405 1_555
Eu5 O36 2.495631 1_555
Eu5 O29 2.495726 1_565
Eu5 O45 2.495945 1_555
Eu6 O4 2.353402 1_555
Eu6 O0 2.353458 1_455
Eu6 O3 2.353525 1_555
Eu6 O23 2.353573 1_555
Eu6 O15 2.495405 1_555
Eu6 O47 2.495631 1_555
Eu6 O1 2.495726 1_555
Eu6 O11 2.495945 1_455
Eu7 O47 2.353402 1_554
Eu7 O14 2.353458 1_555
Eu7 O9 2.353525 1_555
Eu7 O5 2.353573 1_555
Eu7 O22 2.495405 1_555
Eu7 O4 2.495631 1_554
Eu7 O6 2.495726 1_555
Eu7 O21 2.495945 1_555
Eu8 O20 2.353402 1_555
Eu8 O12 2.353458 1_455
Eu8 O16 2.353525 1_555
Eu8 O1 2.353573 1_555
Eu8 O2 2.495405 1_555
Eu8 O8 2.495631 1_555
Eu8 O23 2.495726 1_555
Eu8 O7 2.495945 1_455
Eu9 O13 2.353490 1_555
Eu9 O2 2.353490 1_555
Eu9 O22 2.353490 1_555
Eu9 O15 2.353490 1_554
Eu9 O9 2.495494 1_555
Eu9 O18 2.495494 1_555
Eu9 O3 2.495494 1_554
Eu9 O16 2.495494 1_555
Eu10 O11 2.353521 1_555
Eu10 O21 2.353521 1_545
Eu10 O10 2.353521 1_555
Eu10 O7 2.353521 1_555
Eu10 O14 2.495931 1_545
Eu10 O0 2.495931 1_555
Eu10 O12 2.495931 1_555
Eu10 O17 2.495931 1_555
Eu11 O8 2.353402 1_555
Eu11 O17 2.353458 1_555
Eu11 O18 2.353525 1_555
Eu11 O6 2.353573 1_545
Eu11 O13 2.495405 1_555
Eu11 O20 2.495631 1_555
Eu11 O5 2.495726 1_545
Eu11 O10 2.495945 1_555
Al0 O27 1.772453 1_455
Al0 O8 1.772486 1_565
Al0 O24 1.772558 1_555
Al0 O6 1.772594 1_555
Al1 O3 1.772453 1_655
Al1 O19 1.772486 1_545
Al1 O0 1.772558 1_555
Al1 O30 1.772594 1_555
Al2 O2 1.772393 1_555
Al2 O22 1.772393 1_555
Al2 O45 1.772634 1_555
Al2 O44 1.772634 1_555
Al3 O46 1.772453 1_555
Al3 O20 1.772486 1_555
Al3 O41 1.772558 1_555
Al3 O1 1.772594 1_555
Al4 O40 1.772393 1_555
Al4 O42 1.772393 1_554
Al4 O7 1.772634 1_565
Al4 O21 1.772634 1_555
Al5 O39 1.772453 1_455
Al5 O47 1.772486 1_555
Al5 O43 1.772558 1_555
Al5 O5 1.772594 1_556
Al6 O37 1.772453 1_555
Al6 O4 1.772486 1_555
Al6 O38 1.772558 1_555
Al6 O23 1.772594 1_555
Al7 O9 1.772453 1_555
Al7 O36 1.772486 1_555
Al7 O14 1.772558 1_555
Al7 O25 1.772594 1_555
Al8 O16 1.772453 1_655
Al8 O35 1.772486 1_555
Al8 O12 1.772558 1_555
Al8 O29 1.772594 1_554
Al9 O13 1.772393 1_556
Al9 O15 1.772393 1_555
Al9 O31 1.772634 1_545
Al9 O34 1.772634 1_555
Al10 O33 1.772393 1_555
Al10 O26 1.772393 1_555
Al10 O10 1.772634 1_555
Al10 O11 1.772634 1_555
Al11 O18 1.772453 1_555
Al11 O28 1.772486 1_555
Al11 O17 1.772558 1_555
Al11 O32 1.772594 1_555
Al12 O20 1.929587 1_555
Al12 O36 1.929587 1_555
Al12 O18 1.929768 1_555
Al12 O37 1.929768 1_555
Al12 O2 1.929773 1_555
Al12 O26 1.929773 1_555
Al13 O14 1.929684 1_545
Al13 O41 1.929684 1_555
Al13 O10 1.929711 1_555
Al13 O45 1.929711 1_545
Al13 O30 1.929852 1_555
Al13 O6 1.929852 1_545
Al14 O12 1.929684 1_455
Al14 O43 1.929684 1_555
Al14 O11 1.929711 1_455
Al14 O44 1.929711 1_555
Al14 O32 1.929852 1_455
Al14 O23 1.929852 1_555
Al15 O28 1.929587 1_555
Al15 O4 1.929587 1_554
Al15 O46 1.929768 1_554
Al15 O9 1.929768 1_555
Al15 O15 1.929773 1_554
Al15 O40 1.929773 1_555
Al16 O0 1.929684 1_455
Al16 O24 1.929684 1_545
Al16 O7 1.929711 1_455
Al16 O31 1.929711 1_545
Al16 O25 1.929852 1_445
Al16 O1 1.929852 1_555
Al17 O47 1.929587 1_554
Al17 O35 1.929587 1_455
Al17 O3 1.929768 1_554
Al17 O27 1.929768 1_455
Al17 O22 1.929773 1_555
Al17 O33 1.929773 1_454
Al18 O38 1.929684 1_544
Al18 O17 1.929684 1_555
Al18 O21 1.929711 1_545
Al18 O34 1.929711 1_554
Al18 O29 1.929852 1_554
Al18 O5 1.929852 1_545
Al19 O8 1.929587 1_555
Al19 O19 1.929587 1_444
Al19 O16 1.929768 1_555
Al19 O39 1.929768 1_444
Al19 O13 1.929773 1_555
Al19 O42 1.929773 1_444
