# generated using pymatgen
data_Eu3RuO7
_symmetry_space_group_name_H-M   'P 1'
_cell_length_a   6.49473309
_cell_length_b   6.49482946
_cell_length_c   7.49050814
_cell_angle_alpha   89.97443735
_cell_angle_beta   89.97450105
_cell_angle_gamma   112.26184942
_symmetry_Int_Tables_number   1
_chemical_formula_structural   Eu3RuO7
_chemical_formula_sum   'Eu6 Ru2 O14'
_cell_volume   292.41447979
_cell_formula_units_Z   2
loop_
 _symmetry_equiv_pos_site_id
 _symmetry_equiv_pos_as_xyz
  1  'x, y, z'
loop_
 _atom_site_type_symbol
 _atom_site_label
 _atom_site_symmetry_multiplicity
 _atom_site_fract_x
 _atom_site_fract_y
 _atom_site_fract_z
 _atom_site_occupancy
  Eu  Eu0  1  0.46966912  0.92034325  0.75028274  1
  Eu  Eu1  1  0.52994115  0.07843372  0.24992361  1
  Eu  Eu2  1  0.92156856  0.47007049  0.75007587  1
  Eu  Eu3  1  0.07965288  0.53033803  0.24971833  1
  Eu  Eu4  1  0.99932778  0.00068398  0.49998727  1
  Eu  Eu5  1  0.99956499  0.00046388  0.00001059  1
  Ru  Ru0  1  0.50047649  0.49951406  0.49998883  1
  Ru  Ru1  1  0.50048960  0.49949842  0.00000823  1
  O  O0  1  0.58276438  0.58223541  0.75008911  1
  O  O1  1  0.41775539  0.41722439  0.24991140  1
  O  O2  1  0.83799630  0.09999544  0.75026495  1
  O  O3  1  0.15959239  0.89846145  0.25012959  1
  O  O4  1  0.10154220  0.84041481  0.74987030  1
  O  O5  1  0.90000708  0.16201100  0.24973724  1
  O  O6  1  0.43813753  0.18678073  0.95944084  1
  O  O7  1  0.56274332  0.81458136  0.46096734  1
  O  O8  1  0.18637301  0.43835701  0.96002223  1
  O  O9  1  0.81338739  0.56125811  0.45927784  1
  O  O10  1  0.43874667  0.18660499  0.54071376  1
  O  O11  1  0.56163651  0.81362066  0.03998534  1
  O  O12  1  0.81320659  0.56184723  0.04056898  1
  O  O13  1  0.18542067  0.43725957  0.53902561  1
loop_
_geom_bond_atom_site_label_1
_geom_bond_atom_site_label_2
_geom_bond_distance
_geom_bond_site_symmetry_2
Eu0 O2 2.229158 1_565
Eu0 O4 2.246205 1_555
Eu0 O10 2.399189 1_565
Eu0 O6 2.400342 1_565
Eu0 O7 2.418353 1_555
Eu0 O11 2.420684 1_556
Eu0 O0 2.565903 1_555
Eu1 O3 2.240891 1_545
Eu1 O5 2.254518 1_555
Eu1 O11 2.396615 1_545
Eu1 O7 2.399079 1_545
Eu1 O6 2.429560 1_554
Eu1 O10 2.429874 1_555
Eu1 O1 2.566579 1_555
Eu2 O4 2.240896 1_655
Eu2 O2 2.254617 1_555
Eu2 O8 2.396635 1_655
Eu2 O13 2.399114 1_655
Eu2 O12 2.429605 1_556
Eu2 O9 2.429933 1_555
Eu2 O0 2.566557 1_555
Eu3 O5 2.229181 1_455
Eu3 O3 2.246207 1_555
Eu3 O9 2.399138 1_455
Eu3 O12 2.400271 1_455
Eu3 O13 2.418320 1_555
Eu3 O8 2.420666 1_554
Eu3 O1 2.565918 1_555
Eu4 O5 2.353541 1_555
Eu4 O2 2.353692 1_555
Eu4 O3 2.355828 1_645
Eu4 O4 2.355974 1_645
Eu4 O13 2.643995 1_655
Eu4 O7 2.643997 1_545
Eu4 O10 2.661951 1_655
Eu4 O9 2.662021 1_545
Eu5 O5 2.352176 1_555
Eu5 O2 2.352285 1_554
Eu5 O3 2.356163 1_645
Eu5 O4 2.356299 1_644
Eu5 O8 2.652317 1_654
Eu5 O11 2.652487 1_545
Eu5 O6 2.656580 1_654
Eu5 O12 2.656879 1_545
O0 Ru1 1.964537 1_556
O0 Ru0 1.966737 1_555
O1 Ru1 1.964419 1_555
O1 Ru0 1.966575 1_555
O6 Ru1 1.938804 1_556
O7 Ru0 1.951591 1_555
O8 Ru1 1.948397 1_556
O9 Ru0 1.940564 1_555
O10 Ru0 1.940616 1_555
O11 Ru1 1.948446 1_555
O12 Ru1 1.938765 1_555
O13 Ru0 1.951521 1_555
