# generated using pymatgen
data_Sr4Mg(Co2O5)2
_symmetry_space_group_name_H-M   'P 1'
_cell_length_a   5.45144503
_cell_length_b   5.53596163
_cell_length_c   9.57562191
_cell_angle_alpha   108.00055758
_cell_angle_beta   109.27562362
_cell_angle_gamma   89.13359071
_symmetry_Int_Tables_number   1
_chemical_formula_structural   Sr4Mg(Co2O5)2
_chemical_formula_sum   'Sr4 Mg1 Co4 O10'
_cell_volume   258.21283119
_cell_formula_units_Z   1
loop_
 _symmetry_equiv_pos_site_id
 _symmetry_equiv_pos_as_xyz
  1  'x, y, z'
loop_
 _atom_site_type_symbol
 _atom_site_label
 _atom_site_symmetry_multiplicity
 _atom_site_fract_x
 _atom_site_fract_y
 _atom_site_fract_z
 _atom_site_occupancy
  Sr  Sr0  1  0.59015200  0.12420400  0.21482600  1
  Sr  Sr1  1  0.84590900  0.38165200  0.79455600  1
  Sr  Sr2  1  0.08826700  0.59438400  0.20650100  1
  Sr  Sr3  1  0.33850000  0.87735200  0.79893900  1
  Mg  Mg0  1  0.52518200  0.58551600  0.52930400  1
  Co  Co0  1  0.84141100  0.88370200  0.50271100  1
  Co  Co1  1  0.96524400  0.98915000  0.00077900  1
  Co  Co2  1  0.28922500  0.14209600  0.47742700  1
  Co  Co3  1  0.46759000  0.49393800  0.00241000  1
  O  O0  1  0.59141400  0.61178400  0.33796300  1
  O  O1  1  0.35152100  0.41814300  0.65306100  1
  O  O2  1  0.66421800  0.20189200  0.49680700  1
  O  O3  1  0.81693600  0.83395400  0.70672500  1
  O  O4  1  0.70530100  0.24977200  0.99618700  1
  O  O5  1  0.22376900  0.25129600  0.99617500  1
  O  O6  1  0.11490400  0.12763300  0.27309200  1
  O  O7  1  0.70806200  0.73301200  0.00557900  1
  O  O8  1  0.20872300  0.82832800  0.50501900  1
  O  O9  1  0.22517400  0.73171500  0.00194300  1
loop_
_geom_bond_atom_site_label_1
_geom_bond_atom_site_label_2
_geom_bond_distance
_geom_bond_site_symmetry_2
Mg0 O0 2.027690 1_555
Mg0 O3 2.036060 1_555
Mg0 O1 2.145925 1_555
Mg0 O8 2.166868 1_555
Mg0 O2 2.209101 1_555
Co0 O0 1.946001 1_555
Co0 O2 2.003284 1_565
Co0 O8 2.015043 1_655
Co0 O3 2.101374 1_555
Co1 O9 1.994334 1_655
Co1 O4 2.006963 1_564
Co1 O7 2.030109 1_555
Co1 O5 2.058314 1_664
Co1 O6 2.330576 1_665
Co1 O3 2.518547 1_554
Co2 O1 1.824636 1_555
Co2 O6 1.848178 1_555
Co2 O8 1.913856 1_545
Co2 O2 2.013709 1_555
Co3 O9 1.851018 1_555
Co3 O4 1.859605 1_554
Co3 O7 1.863459 1_555
Co3 O5 1.877938 1_554
O0 Sr0 2.589267 1_555
O0 Sr2 2.602061 1_555
O1 Sr3 2.506819 1_555
O1 Sr1 2.623373 1_555
O2 Sr0 2.491284 1_555
O2 Sr1 2.551874 1_555
O3 Sr3 2.674623 1_655
O3 Sr1 2.864232 1_555
O3 Sr1 2.876845 1_565
O3 Sr3 3.001735 1_555
O4 Sr1 2.591055 1_555
O4 Sr2 2.650258 1_656
O4 Sr0 2.653450 1_556
O4 Sr3 2.653462 1_545
O5 Sr3 2.562807 1_545
O5 Sr1 2.584902 1_455
O5 Sr2 2.604779 1_556
O5 Sr0 2.641015 1_556
O6 Sr0 2.726966 1_455
O6 Sr2 2.816147 1_545
O6 Sr0 2.823145 1_555
O6 Sr2 2.837278 1_555
O7 Sr2 2.611164 1_655
O7 Sr3 2.628532 1_554
O7 Sr1 2.638259 1_554
O7 Sr0 2.691497 1_565
O8 Sr3 2.591235 1_555
O8 Sr2 2.603434 1_555
O9 Sr3 2.566510 1_554
O9 Sr2 2.621934 1_555
O9 Sr1 2.646846 1_454
O9 Sr0 2.747851 1_565
