# generated using pymatgen
data_Cr2CdH14(NO2)4
_symmetry_space_group_name_H-M   'P 1'
_cell_length_a   6.22783800
_cell_length_b   7.03592394
_cell_length_c   7.87918056
_cell_angle_alpha   107.78911708
_cell_angle_beta   93.27729379
_cell_angle_gamma   115.30156348
_symmetry_Int_Tables_number   1
_chemical_formula_structural   Cr2CdH14(NO2)4
_chemical_formula_sum   'Cr2 Cd1 H14 N4 O8'
_cell_volume   290.05656796
_cell_formula_units_Z   1
loop_
 _symmetry_equiv_pos_site_id
 _symmetry_equiv_pos_as_xyz
  1  'x, y, z'
loop_
 _atom_site_type_symbol
 _atom_site_label
 _atom_site_symmetry_multiplicity
 _atom_site_fract_x
 _atom_site_fract_y
 _atom_site_fract_z
 _atom_site_occupancy
  Cr  Cr0  1  0.32404100  0.66980900  0.77763000  1
  Cr  Cr1  1  0.67595900  0.33019100  0.22237000  1
  Cd  Cd0  1  0.00000000  0.00000000  0.00000000  1
  H  H0  1  0.77199200  0.88784600  0.65126600  1
  H  H1  1  0.22800800  0.11215400  0.34873400  1
  H  H2  1  0.02539100  0.12800800  0.68979600  1
  H  H3  1  0.97460900  0.87199200  0.31020400  1
  H  H4  1  0.03427400  0.88548000  0.64026800  1
  H  H5  1  0.96572600  0.11452000  0.35973200  1
  H  H6  1  0.41180700  0.80864000  0.23735500  1
  H  H7  1  0.58819300  0.19136000  0.76264500  1
  H  H8  1  0.34996900  0.71231400  0.40950100  1
  H  H9  1  0.65003100  0.28768600  0.59049900  1
  H  H10  1  0.15357300  0.55956700  0.20020600  1
  H  H11  1  0.84642700  0.44043300  0.79979400  1
  H  H12  1  0.42330100  0.56700700  0.22308500  1
  H  H13  1  0.57669900  0.43299300  0.77691500  1
  N  N0  1  0.95444800  0.97673000  0.71003500  1
  N  N1  1  0.04555200  0.02327000  0.28996500  1
  N  N2  1  0.33571100  0.66399400  0.26803900  1
  N  N3  1  0.66428900  0.33600600  0.73196100  1
  O  O0  1  0.57563000  0.71346000  0.90739400  1
  O  O1  1  0.42437000  0.28654000  0.09260600  1
  O  O2  1  0.12986800  0.70995700  0.90670500  1
  O  O3  1  0.87013200  0.29004300  0.09329500  1
  O  O4  1  0.40025700  0.84141700  0.65889900  1
  O  O5  1  0.59974300  0.15858300  0.34110100  1
  O  O6  1  0.18890300  0.40518100  0.63573000  1
  O  O7  1  0.81109700  0.59481900  0.36427000  1
loop_
_geom_bond_atom_site_label_1
_geom_bond_atom_site_label_2
_geom_bond_distance
_geom_bond_site_symmetry_2
Cr0 O6 1.645008 1_555
Cr0 O0 1.675817 1_555
Cr0 O4 1.676130 1_555
Cr0 O2 1.683303 1_555
Cr1 O7 1.645008 1_555
Cr1 O1 1.675817 1_555
Cr1 O5 1.676130 1_555
Cr1 O3 1.683303 1_555
Cd0 N1 2.232646 1_555
Cd0 N0 2.232646 1_444
Cd0 O1 2.430665 1_555
Cd0 O0 2.430665 1_444
Cd0 O2 2.433357 1_544
Cd0 O3 2.433357 1_455
H0 N0 1.025763 1_555
H1 N1 1.025763 1_555
H2 N0 1.031185 1_445
H3 N1 1.031185 1_665
H4 N0 1.024671 1_455
H5 N1 1.024671 1_655
H6 N2 1.034396 1_555
H7 N3 1.034396 1_555
H8 N2 1.047449 1_555
H9 N3 1.047449 1_555
H10 N2 1.044288 1_555
H11 N3 1.044288 1_555
H12 N2 1.039841 1_555
H13 N3 1.039841 1_555
