# generated using pymatgen
data_Mg(MoO3)4
_symmetry_space_group_name_H-M   'P 1'
_cell_length_a   5.24844593
_cell_length_b   5.54088702
_cell_length_c   7.48918296
_cell_angle_alpha   90.54443610
_cell_angle_beta   90.00657224
_cell_angle_gamma   89.88100095
_symmetry_Int_Tables_number   1
_chemical_formula_structural   Mg(MoO3)4
_chemical_formula_sum   'Mg1 Mo4 O12'
_cell_volume   217.78297047
_cell_formula_units_Z   1
loop_
 _symmetry_equiv_pos_site_id
 _symmetry_equiv_pos_as_xyz
  1  'x, y, z'
loop_
 _atom_site_type_symbol
 _atom_site_label
 _atom_site_symmetry_multiplicity
 _atom_site_fract_x
 _atom_site_fract_y
 _atom_site_fract_z
 _atom_site_occupancy
  Mg  Mg0  1  0.47829400  0.43157100  0.76128500  1
  Mo  Mo0  1  0.49024400  0.99733200  0.00360300  1
  Mo  Mo1  1  0.98717500  0.51601900  0.00435100  1
  Mo  Mo2  1  0.98787400  0.45770100  0.49330000  1
  Mo  Mo3  1  0.50923000  0.94840500  0.49773100  1
  O  O0  1  0.70999700  0.28729000  0.44035200  1
  O  O1  1  0.21328500  0.22545300  0.55702000  1
  O  O2  1  0.78836200  0.81668200  0.03791600  1
  O  O3  1  0.30130600  0.69355400  0.93707400  1
  O  O4  1  0.32478300  0.68710500  0.57013100  1
  O  O5  1  0.80481100  0.79913000  0.45439900  1
  O  O6  1  0.23433700  0.22919500  0.95243500  1
  O  O7  1  0.72182300  0.30749700  0.04044500  1
  O  O8  1  0.09224100  0.50686600  0.26020100  1
  O  O9  1  0.58367400  0.05999300  0.73739200  1
  O  O10  1  0.39463300  0.97667800  0.26403700  1
  O  O11  1  0.86543000  0.52202900  0.73832700  1
loop_
_geom_bond_atom_site_label_1
_geom_bond_atom_site_label_2
_geom_bond_distance
_geom_bond_site_symmetry_2
Mg0 O11 2.101236 1_555
Mg0 O9 2.136624 1_555
Mg0 O3 2.159085 1_555
Mg0 O4 2.176427 1_555
Mg0 O6 2.232279 1_555
Mg0 O1 2.356274 1_555
Mg0 O7 2.549566 1_556
Mo0 O2 1.874673 1_555
Mo0 O6 1.898261 1_564
Mo0 O3 2.013858 1_554
Mo0 O10 2.018371 1_555
Mo0 O9 2.085651 1_564
Mo0 O7 2.122861 1_565
Mo1 O7 1.833110 1_555
Mo1 O2 1.977936 1_555
Mo1 O3 1.988992 1_654
Mo1 O8 1.994895 1_655
Mo1 O6 2.083146 1_654
Mo1 O11 2.092736 1_554
Mo2 O0 1.781650 1_555
Mo2 O1 1.813444 1_655
Mo2 O8 1.852478 1_655
Mo2 O11 1.973408 1_555
Mo2 O5 2.142393 1_555
Mo2 O4 2.251376 1_655
Mo3 O5 1.784875 1_555
Mo3 O4 1.829815 1_555
Mo3 O10 1.858491 1_555
Mo3 O9 1.932936 1_565
Mo3 O0 2.201018 1_565
Mo3 O1 2.223411 1_565
