# generated using pymatgen
data_NaScTa(PO4)3
_symmetry_space_group_name_H-M   'P 1'
_cell_length_a   8.78505407
_cell_length_b   8.78505378
_cell_length_c   22.86617482
_cell_angle_alpha   90.00000000
_cell_angle_beta   90.00000000
_cell_angle_gamma   120.00000104
_symmetry_Int_Tables_number   1
_chemical_formula_structural   NaScTa(PO4)3
_chemical_formula_sum   'Na6 Sc6 Ta6 P18 O72'
_cell_volume   1528.31547329
_cell_formula_units_Z   6
loop_
 _symmetry_equiv_pos_site_id
 _symmetry_equiv_pos_as_xyz
  1  'x, y, z'
loop_
 _atom_site_type_symbol
 _atom_site_label
 _atom_site_symmetry_multiplicity
 _atom_site_fract_x
 _atom_site_fract_y
 _atom_site_fract_z
 _atom_site_occupancy
  Na  Na0  1  -0.00000000  0.00000000  0.49691401  1
  Na  Na1  1  -0.00000000  0.00000000  0.99691401  1
  Na  Na2  1  0.66666700  0.33333300  0.83024701  1
  Na  Na3  1  0.66666700  0.33333300  0.33024701  1
  Na  Na4  1  0.33333300  0.66666700  0.16358101  1
  Na  Na5  1  0.33333300  0.66666700  0.66358101  1
  Sc  Sc0  1  -0.00000000  0.00000000  0.35299423  1
  Sc  Sc1  1  -0.00000000  0.00000000  0.85299423  1
  Sc  Sc2  1  0.66666700  0.33333300  0.68632723  1
  Sc  Sc3  1  0.66666700  0.33333300  0.18632723  1
  Sc  Sc4  1  0.33333300  0.66666700  0.01966123  1
  Sc  Sc5  1  0.33333300  0.66666700  0.51966123  1
  Ta  Ta0  1  -0.00000000  0.00000000  0.64617944  1
  Ta  Ta1  1  -0.00000000  0.00000000  0.14617944  1
  Ta  Ta2  1  0.66666700  0.33333300  0.97951244  1
  Ta  Ta3  1  0.66666700  0.33333300  0.47951244  1
  Ta  Ta4  1  0.33333300  0.66666700  0.31284644  1
  Ta  Ta5  1  0.33333300  0.66666700  0.81284644  1
  P  P0  1  0.28986342  0.00097514  0.25080777  1
  P  P1  1  0.71111172  0.71013658  0.25080777  1
  P  P2  1  0.99902486  0.28888828  0.25080777  1
  P  P3  1  0.28986342  0.28888828  0.75080777  1
  P  P4  1  0.99902486  0.71013658  0.75080777  1
  P  P5  1  0.71111172  0.00097514  0.75080777  1
  P  P6  1  0.95653042  0.33430814  0.58414077  1
  P  P7  1  0.37777872  0.04346958  0.58414077  1
  P  P8  1  0.66569186  0.62222128  0.58414077  1
  P  P9  1  0.95653042  0.62222128  0.08414077  1
  P  P10  1  0.66569186  0.04346958  0.08414077  1
  P  P11  1  0.37777872  0.33430814  0.08414077  1
  P  P12  1  0.62319642  0.66764214  0.91747477  1
  P  P13  1  0.04444472  0.37680358  0.91747477  1
  P  P14  1  0.33235786  0.95555528  0.91747477  1
  P  P15  1  0.62319642  0.95555528  0.41747477  1
  P  P16  1  0.33235786  0.37680358  0.41747477  1
  P  P17  1  0.04444472  0.66764214  0.41747477  1
  O  O0  1  0.20541852  0.02638489  0.30458753  1
  O  O1  1  0.82096637  0.79458148  0.30458753  1
  O  O2  1  0.97361511  0.17903363  0.30458753  1
  O  O3  1  0.20541852  0.17903363  0.80458753  1
  O  O4  1  0.97361511  0.79458148  0.80458753  1
  O  O5  1  0.82096637  0.02638489  0.80458753  1
  O  O6  1  0.79913612  0.96899895  0.69521576  1
  O  O7  1  0.16986283  0.20086388  0.69521576  1
  O  O8  1  0.03100105  0.83013717  0.69521576  1
  O  O9  1  0.79913612  0.83013717  0.19521576  1
  O  O10  1  0.03100105  0.20086388  0.19521576  1
  O  O11  1  0.16986283  0.96899895  0.19521576  1
  O  O12  1  0.87208552  0.35971789  0.63792053  1
  O  O13  1  0.48763337  0.12791448  0.63792053  1
  O  O14  1  0.64028211  0.51236663  0.63792053  1
  O  O15  1  0.87208552  0.51236663  0.13792053  1
  O  O16  1  0.64028211  0.12791448  0.13792053  1
  O  O17  1  0.48763337  0.35971789  0.13792053  1
  O  O18  1  0.46580312  0.30233195  0.02854876  1
  O  O19  1  0.83652983  0.53419688  0.02854876  1
  O  O20  1  0.69766805  0.16347017  0.02854876  1
  O  O21  1  0.46580312  0.16347017  0.52854876  1
  O  O22  1  0.69766805  0.53419688  0.52854876  1
  O  O23  1  0.83652983  0.30233195  0.52854876  1
  O  O24  1  0.53875152  0.69305189  0.97125453  1
  O  O25  1  0.15429937  0.46124848  0.97125453  1
  O  O26  1  0.30694811  0.84570063  0.97125453  1
  O  O27  1  0.53875152  0.84570063  0.47125453  1
  O  O28  1  0.30694811  0.46124848  0.47125453  1
  O  O29  1  0.15429937  0.69305189  0.47125453  1
  O  O30  1  0.13246912  0.63566595  0.36188276  1
  O  O31  1  0.50319583  0.86753088  0.36188276  1
  O  O32  1  0.36433405  0.49680417  0.36188276  1
  O  O33  1  0.13246912  0.49680417  0.86188276  1
  O  O34  1  0.36433405  0.86753088  0.86188276  1
  O  O35  1  0.50319583  0.63566595  0.86188276  1
  O  O36  1  0.01876156  0.82405094  0.40947090  1
  O  O37  1  0.80528938  0.98123844  0.40947090  1
  O  O38  1  0.17594906  0.19471062  0.40947090  1
  O  O39  1  0.01876156  0.19471062  0.90947090  1
  O  O40  1  0.17594906  0.98123844  0.90947090  1
  O  O41  1  0.80528938  0.82405094  0.90947090  1
  O  O42  1  0.97061598  0.16292990  0.59122215  1
  O  O43  1  0.19231392  0.02938402  0.59122215  1
  O  O44  1  0.83707010  0.80768608  0.59122215  1
  O  O45  1  0.97061598  0.80768608  0.09122215  1
  O  O46  1  0.83707010  0.02938402  0.09122215  1
  O  O47  1  0.19231392  0.16292990  0.09122215  1
  O  O48  1  0.68542856  0.15738394  0.74280390  1
  O  O49  1  0.47195638  0.31457144  0.74280390  1
  O  O50  1  0.84261606  0.52804362  0.74280390  1
  O  O51  1  0.68542856  0.52804362  0.24280390  1
  O  O52  1  0.84261606  0.31457144  0.24280390  1
  O  O53  1  0.47195638  0.15738394  0.24280390  1
  O  O54  1  0.63728298  0.49626290  0.92455515  1
  O  O55  1  0.85898092  0.36271702  0.92455515  1
  O  O56  1  0.50373710  0.14101908  0.92455515  1
  O  O57  1  0.63728298  0.14101908  0.42455515  1
  O  O58  1  0.50373710  0.36271702  0.42455515  1
  O  O59  1  0.85898092  0.49626290  0.42455515  1
  O  O60  1  0.35209456  0.49071794  0.07613790  1
  O  O61  1  0.13862238  0.64790544  0.07613790  1
  O  O62  1  0.50928206  0.86137762  0.07613790  1
  O  O63  1  0.35209456  0.86137762  0.57613790  1
  O  O64  1  0.50928206  0.64790544  0.57613790  1
  O  O65  1  0.13862238  0.49071794  0.57613790  1
  O  O66  1  0.30394898  0.82959690  0.25788915  1
  O  O67  1  0.52564692  0.69605102  0.25788915  1
  O  O68  1  0.17040310  0.47435308  0.25788915  1
  O  O69  1  0.30394898  0.47435308  0.75788915  1
  O  O70  1  0.17040310  0.69605102  0.75788915  1
  O  O71  1  0.52564692  0.82959690  0.75788915  1
loop_
_geom_bond_atom_site_label_1
_geom_bond_atom_site_label_2
_geom_bond_distance
_geom_bond_site_symmetry_2
Na0 O38 2.582469 1_555
Na0 O36 2.582469 1_545
Na0 O37 2.582469 1_445
Na0 O44 2.671185 1_445
Na0 O42 2.671185 1_455
Na0 O43 2.671185 1_555
Na1 O39 2.582469 1_555
Na1 O41 2.582469 1_445
Na1 O40 2.582469 1_545
Na1 O45 2.671185 1_446
Na1 O47 2.671185 1_556
Na1 O46 2.671185 1_456
Na2 O50 2.582469 1_555
Na2 O48 2.582469 1_555
Na2 O49 2.582469 1_555
Na2 O56 2.671185 1_555
Na2 O54 2.671185 1_555
Na2 O55 2.671185 1_555
Na3 O51 2.582469 1_555
Na3 O53 2.582469 1_555
Na3 O52 2.582469 1_555
Na3 O57 2.671185 1_555
Na3 O59 2.671185 1_555
Na3 O58 2.671185 1_555
Na4 O62 2.582469 1_555
Na4 O60 2.582469 1_555
Na4 O61 2.582469 1_555
Na4 O68 2.671185 1_555
Na4 O66 2.671185 1_555
Na4 O67 2.671185 1_555
Na5 O63 2.582469 1_555
Na5 O65 2.582469 1_555
Na5 O64 2.582469 1_555
Na5 O69 2.671185 1_555
Na5 O71 2.671185 1_555
Na5 O70 2.671185 1_555
O0 P0 1.509315 1_555
O0 Sc0 2.029097 1_555
O1 P1 1.509315 1_555
O1 Sc0 2.029097 1_665
O2 P2 1.509315 1_555
O2 Sc0 2.029097 1_655
O3 P3 1.509315 1_555
O3 Sc1 2.029097 1_555
O4 P4 1.509315 1_555
O4 Sc1 2.029097 1_665
O5 P5 1.509315 1_555
O5 Sc1 2.029097 1_655
O6 P5 1.584305 1_565
O6 Ta0 1.991145 1_665
O7 P3 1.584305 1_555
O7 Ta0 1.991145 1_555
O8 P4 1.584305 1_455
O8 Ta0 1.991145 1_565
O9 P1 1.584305 1_555
O9 Ta1 1.991145 1_665
O10 P2 1.584305 1_455
O10 Ta1 1.991145 1_555
O11 P0 1.584305 1_565
O11 Ta1 1.991145 1_565
O12 P6 1.509315 1_555
O12 Sc2 2.029097 1_555
O13 P7 1.509315 1_555
O13 Sc2 2.029097 1_555
O14 P8 1.509315 1_555
O14 Sc2 2.029097 1_555
O15 P9 1.509315 1_555
O15 Sc3 2.029097 1_555
O16 P10 1.509315 1_555
O16 Sc3 2.029097 1_555
O17 P11 1.509315 1_555
O17 Sc3 2.029097 1_555
O18 P11 1.584305 1_555
O18 Ta2 1.991145 1_554
O19 P9 1.584305 1_555
O19 Ta2 1.991145 1_554
O20 P10 1.584305 1_555
O20 Ta2 1.991145 1_554
O21 P7 1.584305 1_555
O21 Ta3 1.991145 1_555
O22 P8 1.584305 1_555
O22 Ta3 1.991145 1_555
O23 P6 1.584305 1_555
O23 Ta3 1.991145 1_555
O24 P12 1.509315 1_555
O24 Sc4 2.029097 1_556
O25 P13 1.509315 1_555
O25 Sc4 2.029097 1_556
O26 P14 1.509315 1_555
O26 Sc4 2.029097 1_556
O27 P15 1.509315 1_555
O27 Sc5 2.029097 1_555
O28 P16 1.509315 1_555
O28 Sc5 2.029097 1_555
O29 P17 1.509315 1_555
O29 Sc5 2.029097 1_555
O30 P17 1.584305 1_555
O30 Ta4 1.991145 1_555
O31 P15 1.584305 1_555
O31 Ta4 1.991145 1_555
O32 P16 1.584305 1_555
O32 Ta4 1.991145 1_555
O33 P13 1.584305 1_555
O33 Ta5 1.991145 1_555
O34 P14 1.584305 1_555
O34 Ta5 1.991145 1_555
O35 P12 1.584305 1_555
O35 Ta5 1.991145 1_555
O36 P17 1.510785 1_555
O36 Sc0 2.083007 1_565
O37 P15 1.510793 1_555
O37 Sc0 2.083007 1_665
O38 P16 1.510790 1_555
O38 Sc0 2.083007 1_555
O39 P13 1.510793 1_555
O39 Sc1 2.083007 1_555
O40 P14 1.510785 1_555
O40 Sc1 2.083007 1_565
O41 P12 1.510790 1_555
O41 Sc1 2.083007 1_665
O42 P6 1.579420 1_555
O42 Ta0 2.015957 1_655
O43 P7 1.579428 1_555
O43 Ta0 2.015957 1_555
O44 P8 1.579424 1_555
O44 Ta0 2.015957 1_665
O45 P9 1.579428 1_555
O45 Ta1 2.015957 1_665
O46 P10 1.579420 1_555
O46 Ta1 2.015957 1_655
O47 P11 1.579424 1_555
O47 Ta1 2.015957 1_555
O48 P5 1.510785 1_555
O48 Sc2 2.083007 1_555
O49 P3 1.510793 1_555
O49 Sc2 2.083007 1_555
O50 P4 1.510790 1_555
O50 Sc2 2.083007 1_555
O51 P1 1.510793 1_555
O51 Sc3 2.083007 1_555
O52 P2 1.510785 1_555
O52 Sc3 2.083007 1_555
O53 P0 1.510790 1_555
O53 Sc3 2.083007 1_555
O54 P12 1.579431 1_555
O54 Ta2 2.015957 1_555
O55 P13 1.579413 1_655
O55 Ta2 2.015957 1_555
O56 P14 1.579421 1_545
O56 Ta2 2.015957 1_555
O57 P15 1.579413 1_545
O57 Ta3 2.015957 1_555
O58 P16 1.579431 1_555
O58 Ta3 2.015957 1_555
O59 P17 1.579421 1_655
O59 Ta3 2.015957 1_555
O60 P11 1.510796 1_555
O60 Sc4 2.083007 1_555
O61 P9 1.510778 1_455
O61 Sc4 2.083007 1_555
O62 P10 1.510785 1_565
O62 Sc4 2.083007 1_555
O63 P7 1.510778 1_565
O63 Sc5 2.083007 1_555
O64 P8 1.510796 1_555
O64 Sc5 2.083007 1_555
O65 P6 1.510785 1_455
O65 Sc5 2.083007 1_555
O66 P0 1.579420 1_565
O66 Ta4 2.015957 1_555
O67 P1 1.579428 1_555
O67 Ta4 2.015957 1_555
O68 P2 1.579424 1_455
O68 Ta4 2.015957 1_555
O69 P3 1.579428 1_555
O69 Ta5 2.015957 1_555
O70 P4 1.579420 1_455
O70 Ta5 2.015957 1_555
O71 P5 1.579424 1_565
O71 Ta5 2.015957 1_555
