# generated using pymatgen
data_Na10Ca6Si3Ge2(S3O16)3
_symmetry_space_group_name_H-M   'P 1'
_cell_length_a   18.41776825
_cell_length_b   9.27840399
_cell_length_c   23.21818567
_cell_angle_alpha   90.25088576
_cell_angle_beta   89.99271835
_cell_angle_gamma   120.58023033
_symmetry_Int_Tables_number   1
_chemical_formula_structural   Na10Ca6Si3Ge2(S3O16)3
_chemical_formula_sum   'Na30 Ca18 Si9 Ge6 S27 O144'
_cell_volume   3415.81783108
_cell_formula_units_Z   3
loop_
 _symmetry_equiv_pos_site_id
 _symmetry_equiv_pos_as_xyz
  1  'x, y, z'
loop_
 _atom_site_type_symbol
 _atom_site_label
 _atom_site_symmetry_multiplicity
 _atom_site_fract_x
 _atom_site_fract_y
 _atom_site_fract_z
 _atom_site_occupancy
  Na  Na0  1  0.31437450  0.00071928  0.24664415  1
  Na  Na1  1  0.18452543  0.35535860  0.25138681  1
  Na  Na2  1  0.49357566  0.63851927  0.25211921  1
  Na  Na3  1  0.31077551  0.61568879  0.73894406  1
  Na  Na4  1  0.81274655  0.62742956  0.74704448  1
  Na  Na5  1  0.99758223  0.34363216  0.75225444  1
  Na  Na6  1  0.18287050  0.02018786  0.75344563  1
  Na  Na7  1  0.68448439  0.01328202  0.75174217  1
  Na  Na8  1  0.16383194  0.34650056  0.59037509  1
  Na  Na9  1  0.83252719  0.68821977  0.08773454  1
  Na  Na10  1  0.48704585  0.65993063  0.91668858  1
  Na  Na11  1  0.35765707  0.04977997  0.91779854  1
  Na  Na12  1  0.85127407  0.03000310  0.91782763  1
  Na  Na13  1  0.65836806  0.30162425  0.91825006  1
  Na  Na14  1  0.98613161  0.31239426  0.41274366  1
  Na  Na15  1  0.15881839  0.01687403  0.41345938  1
  Na  Na16  1  0.35231126  0.67263250  0.41711882  1
  Na  Na17  1  0.85637424  0.66548496  0.41406628  1
  Na  Na18  1  0.99668195  0.96786086  0.50310157  1
  Na  Na19  1  0.50499963  0.00027670  0.50408238  1
  Na  Na20  1  0.01240559  0.02386046  0.00534005  1
  Na  Na21  1  0.50338167  0.02246765  0.00876123  1
  Na  Na22  1  0.33135194  0.33294999  0.83515218  1
  Na  Na23  1  0.83099132  0.32837330  0.83060547  1
  Na  Na24  1  0.33251796  0.33333734  0.32804471  1
  Na  Na25  1  0.83153056  0.33264846  0.33370424  1
  Na  Na26  1  0.16184360  0.66663880  0.16453820  1
  Na  Na27  1  0.67527722  0.68561862  0.16197722  1
  Na  Na28  1  0.17452926  0.66980314  0.66225214  1
  Na  Na29  1  0.66047433  0.65457928  0.66446160  1
  Ca  Ca0  1  0.00027978  0.99778967  0.34674716  1
  Ca  Ca1  1  0.50414368  0.00862128  0.35117638  1
  Ca  Ca2  1  0.00456911  0.00494426  0.85259592  1
  Ca  Ca3  1  0.50101661  0.00540611  0.84737462  1
  Ca  Ca4  1  0.33783540  0.33799986  0.67967106  1
  Ca  Ca5  1  0.83035941  0.32692981  0.67940897  1
  Ca  Ca6  1  0.33009874  0.33275053  0.17981048  1
  Ca  Ca7  1  0.83198427  0.32323113  0.18254523  1
  Ca  Ca8  1  0.33342107  0.33361990  0.98609027  1
  Ca  Ca9  1  0.83806059  0.31788013  0.99350937  1
  Ca  Ca10  1  0.34197343  0.35330443  0.49126537  1
  Ca  Ca11  1  0.83467470  0.33665261  0.48578838  1
  Ca  Ca12  1  0.16418518  0.65953857  0.01856291  1
  Ca  Ca13  1  0.66518585  0.66861152  0.02056215  1
  Ca  Ca14  1  0.16870403  0.67729432  0.51971564  1
  Ca  Ca15  1  0.66400390  0.66858048  0.51837365  1
  Ca  Ca16  1  0.67070976  0.66943616  0.31466266  1
  Ca  Ca17  1  0.16488174  0.65492432  0.81572231  1
  Si  Si0  1  0.14379779  0.99620992  0.24955460  1
  Si  Si1  1  0.34316169  0.70087357  0.25868588  1
  Si  Si2  1  0.14620356  0.29038766  0.74578006  1
  Si  Si3  1  0.64384573  0.29191141  0.74867227  1
  Si  Si4  1  0.84474849  0.98695351  0.75737972  1
  Si  Si5  1  0.34425232  0.66322272  0.58917148  1
  Si  Si6  1  0.84366288  0.02700800  0.08766927  1
  Si  Si7  1  0.52205585  0.37947796  0.91179197  1
  Si  Si8  1  0.02180339  0.66506930  0.41191165  1
  Ge  Ge0  1  0.98542646  0.00300058  0.65906806  1
  Ge  Ge1  1  0.50447440  0.02508735  0.64490520  1
  Ge  Ge2  1  0.00274043  0.98884570  0.15001800  1
  Ge  Ge3  1  0.47981472  0.97215526  0.15730585  1
  Ge  Ge4  1  0.15567071  0.68145900  0.30321865  1
  Ge  Ge5  1  0.65804279  0.63238827  0.80485870  1
  S  S0  1  0.64454706  0.99437137  0.24800757  1
  S  S1  1  0.85191836  0.70571190  0.24548728  1
  S  S2  1  0.00434899  0.30297742  0.25175779  1
  S  S3  1  0.50112742  0.29666266  0.24692605  1
  S  S4  1  0.00083391  0.71578283  0.74576222  1
  S  S5  1  0.50580210  0.70569462  0.75201512  1
  S  S6  1  0.35195099  0.99663305  0.74697279  1
  S  S7  1  0.48833028  0.32396553  0.58682941  1
  S  S8  1  0.98403308  0.31318372  0.58722257  1
  S  S9  1  0.17388516  0.03069584  0.58632158  1
  S  S10  1  0.67394483  0.02780727  0.58779721  1
  S  S11  1  0.84188119  0.65941120  0.58821538  1
  S  S12  1  0.48472675  0.65115655  0.08692633  1
  S  S13  1  0.98582607  0.64806933  0.08772792  1
  S  S14  1  0.33750267  0.02516227  0.08514086  1
  S  S15  1  0.17393419  0.32064764  0.08830160  1
  S  S16  1  0.67854956  0.32474060  0.08289050  1
  S  S17  1  0.31739003  0.66558263  0.91579426  1
  S  S18  1  0.80960661  0.65907927  0.91257106  1
  S  S19  1  0.01209980  0.36248361  0.91533372  1
  S  S20  1  0.16838442  0.96399208  0.91636884  1
  S  S21  1  0.66891414  0.96185233  0.91209114  1
  S  S22  1  0.31080102  0.96172437  0.41154260  1
  S  S23  1  0.81722574  0.96771781  0.41814431  1
  S  S24  1  0.16843551  0.37365736  0.41557243  1
  S  S25  1  0.66878570  0.37299104  0.41855569  1
  S  S26  1  0.51457402  0.66546727  0.41432121  1
  O  O0  1  0.11418835  0.03607108  0.30856715  1
  O  O1  1  0.60692246  0.01282144  0.30109953  1
  O  O2  1  0.40045791  0.77983417  0.31395379  1
  O  O3  1  0.89581846  0.78409789  0.29963098  1
  O  O4  1  0.49170347  0.20045044  0.29919848  1
  O  O5  1  0.99458656  0.21726275  0.30670729  1
  O  O6  1  0.10353155  0.16671530  0.79843177  1
  O  O7  1  0.61362985  0.19017465  0.80703068  1
  O  O8  1  0.49289327  0.77208296  0.80665614  1
  O  O9  1  0.98487694  0.78036585  0.79876478  1
  O  O10  1  0.39437816  0.01080677  0.80229960  1
  O  O11  1  0.89941266  0.02025736  0.81370702  1
  O  O12  1  0.39878651  0.97844978  0.69772416  1
  O  O13  1  0.88992775  0.94327841  0.69910705  1
  O  O14  1  0.07658722  0.18853140  0.68647498  1
  O  O15  1  0.57855044  0.18323294  0.69219359  1
  O  O16  1  0.01162026  0.82558653  0.69475666  1
  O  O17  1  0.51919837  0.81744113  0.70321765  1
  O  O18  1  0.38458681  0.83338565  0.20048353  1
  O  O19  1  0.89924342  0.81255113  0.19366201  1
  O  O20  1  0.01761806  0.21572042  0.20288754  1
  O  O21  1  0.51029589  0.21362453  0.19470072  1
  O  O22  1  0.07913300  0.97797836  0.19368144  1
  O  O23  1  0.58885902  0.97004227  0.19654511  1
  O  O24  1  0.44769033  0.33544154  0.63876206  1
  O  O25  1  0.94523540  0.33534995  0.63900537  1
  O  O26  1  0.22350446  0.11426795  0.63858665  1
  O  O27  1  0.72137459  0.09910529  0.64146314  1
  O  O28  1  0.32708045  0.54079116  0.64446795  1
  O  O29  1  0.83342919  0.55840597  0.63885510  1
  O  O30  1  0.44272582  0.55198871  0.13871747  1
  O  O31  1  0.94375147  0.54820953  0.13829013  1
  O  O32  1  0.33127491  0.11009994  0.13687458  1
  O  O33  1  0.83055425  0.12598761  0.13748224  1
  O  O34  1  0.22277645  0.34629200  0.14132440  1
  O  O35  1  0.73465069  0.34604495  0.13166614  1
  O  O36  1  0.21528980  0.30007318  0.03721593  1
  O  O37  1  0.71763920  0.31110432  0.02791735  1
  O  O38  1  0.43664981  0.56986658  0.03379860  1
  O  O39  1  0.93422172  0.57680906  0.03527489  1
  O  O40  1  0.34677046  0.12109989  0.03215115  1
  O  O41  1  0.86313259  0.12010485  0.02558454  1
  O  O42  1  0.21764519  0.13313957  0.53442583  1
  O  O43  1  0.71734137  0.13252275  0.53753453  1
  O  O44  1  0.36114918  0.59479821  0.52888735  1
  O  O45  1  0.85415873  0.58696417  0.53473604  1
  O  O46  1  0.43867162  0.29951672  0.53464751  1
  O  O47  1  0.93559004  0.29496506  0.53456153  1
  O  O48  1  0.27184966  0.68320223  0.96466400  1
  O  O49  1  0.77084604  0.68285362  0.96443097  1
  O  O50  1  0.06309158  0.46029254  0.96465132  1
  O  O51  1  0.58191390  0.46544012  0.96545064  1
  O  O52  1  0.16539670  0.86156257  0.96543456  1
  O  O53  1  0.66254370  0.86280232  0.96289586  1
  O  O54  1  0.27188626  0.85491972  0.46153767  1
  O  O55  1  0.77496020  0.86451107  0.46874521  1
  O  O56  1  0.16208294  0.45581549  0.46794528  1
  O  O57  1  0.66345843  0.45874640  0.47018324  1
  O  O58  1  0.08061745  0.69892472  0.46612717  1
  O  O59  1  0.56374694  0.67018601  0.46452558  1
  O  O60  1  0.07527097  0.63683059  0.35323107  1
  O  O61  1  0.55474392  0.65821008  0.35974870  1
  O  O62  1  0.26027350  0.88171005  0.35690400  1
  O  O63  1  0.77018745  0.88823448  0.36485716  1
  O  O64  1  0.18082289  0.47386232  0.36295860  1
  O  O65  1  0.67646990  0.46995135  0.36595082  1
  O  O66  1  0.05087427  0.44600640  0.86007488  1
  O  O67  1  0.57443919  0.51291661  0.85291284  1
  O  O68  1  0.17457802  0.88848790  0.86099773  1
  O  O69  1  0.68106795  0.88936539  0.85839415  1
  O  O70  1  0.27377841  0.65159321  0.86071278  1
  O  O71  1  0.75809719  0.64037472  0.85860620  1
  O  O72  1  0.00547726  0.82249704  0.40870589  1
  O  O73  1  0.50526998  0.81603639  0.41659486  1
  O  O74  1  0.39638524  0.98529655  0.40726771  1
  O  O75  1  0.90315729  0.98731095  0.41601083  1
  O  O76  1  0.08905802  0.20686505  0.41268152  1
  O  O77  1  0.59467979  0.20275021  0.41670240  1
  O  O78  1  0.00275173  0.19370879  0.91850953  1
  O  O79  1  0.50572300  0.18956876  0.90874262  1
  O  O80  1  0.09377334  0.98269075  0.91834552  1
  O  O81  1  0.59015625  0.97047864  0.91070110  1
  O  O82  1  0.40350057  0.81817805  0.91566534  1
  O  O83  1  0.89444229  0.80866451  0.90861637  1
  O  O84  1  0.49610625  0.16627202  0.58932507  1
  O  O85  1  0.98628526  0.14997202  0.59210748  1
  O  O86  1  0.09063522  0.02585135  0.58820811  1
  O  O87  1  0.58961436  0.02104774  0.59147780  1
  O  O88  1  0.43108654  0.85298562  0.60262208  1
  O  O89  1  0.92387473  0.83302481  0.59427935  1
  O  O90  1  0.48810943  0.81849378  0.09070350  1
  O  O91  1  0.99151388  0.81919550  0.09273556  1
  O  O92  1  0.41710282  0.01298511  0.08877233  1
  O  O93  1  0.93163475  0.00586787  0.10182934  1
  O  O94  1  0.08945890  0.15976258  0.09309028  1
  O  O95  1  0.59396321  0.17405218  0.08726733  1
  O  O96  1  0.33901351  0.14036336  0.74191092  1
  O  O97  1  0.83315452  0.14478152  0.74437457  1
  O  O98  1  0.24121218  0.31886138  0.74213638  1
  O  O99  1  0.73917203  0.33466344  0.73802547  1
  O  O100  1  0.43308926  0.53591969  0.74483164  1
  O  O101  1  0.92851172  0.54208968  0.73823256  1
  O  O102  1  0.33175254  0.51926286  0.24615703  1
  O  O103  1  0.84371351  0.54024966  0.24133141  1
  O  O104  1  0.42327741  0.31072435  0.24340813  1
  O  O105  1  0.93471598  0.33373803  0.24456325  1
  O  O106  1  0.23914729  0.14417718  0.23885488  1
  O  O107  1  0.72992192  0.14093099  0.24351893  1
  O  O108  1  0.32724914  0.51696639  0.92102965  1
  O  O109  1  0.81306826  0.50288367  0.91582568  1
  O  O110  1  0.43038138  0.36979078  0.91156347  1
  O  O111  1  0.92600810  0.34203346  0.91670588  1
  O  O112  1  0.24816933  0.13147766  0.91967742  1
  O  O113  1  0.74346890  0.13615100  0.91730701  1
  O  O114  1  0.31407099  0.12466654  0.41719990  1
  O  O115  1  0.82823842  0.13755742  0.42245611  1
  O  O116  1  0.24237802  0.34729717  0.41961637  1
  O  O117  1  0.74870683  0.36621847  0.42082418  1
  O  O118  1  0.42775519  0.51343094  0.41520819  1
  O  O119  1  0.92991968  0.49016051  0.41117458  1
  O  O120  1  0.16036576  0.46369441  0.08219351  1
  O  O121  1  0.67453433  0.48116180  0.08170611  1
  O  O122  1  0.07121620  0.67471234  0.08270020  1
  O  O123  1  0.57017701  0.67619981  0.08433223  1
  O  O124  1  0.26274518  0.85554020  0.08229221  1
  O  O125  1  0.76651280  0.83469091  0.08560731  1
  O  O126  1  0.16150919  0.86183284  0.58358164  1
  O  O127  1  0.65883403  0.85661361  0.58166005  1
  O  O128  1  0.25518338  0.66563423  0.58651760  1
  O  O129  1  0.76846039  0.68135577  0.58373966  1
  O  O130  1  0.07149977  0.45365532  0.58276807  1
  O  O131  1  0.57419471  0.47086273  0.58336658  1
  O  O132  1  0.14983968  0.81842038  0.25016172  1
  O  O133  1  0.64776287  0.83649987  0.24960290  1
  O  O134  1  0.24616667  0.68711675  0.26335363  1
  O  O135  1  0.76808950  0.69169505  0.24396058  1
  O  O136  1  0.08954796  0.47283056  0.25329466  1
  O  O137  1  0.57436214  0.46997000  0.24944050  1
  O  O138  1  0.14973249  0.47033065  0.74451820  1
  O  O139  1  0.65074181  0.48220953  0.75094736  1
  O  O140  1  0.07993796  0.70915854  0.74862934  1
  O  O141  1  0.58856004  0.70268647  0.75486351  1
  O  O142  1  0.26690805  0.83945900  0.74693161  1
  O  O143  1  0.74739480  0.80504365  0.76144890  1
loop_
_geom_bond_atom_site_label_1
_geom_bond_atom_site_label_2
_geom_bond_distance
_geom_bond_site_symmetry_2
Na0 O106 2.367006 1_555
Na0 O104 2.536492 1_555
Na0 O134 2.546705 1_545
Na0 O132 2.614684 1_545
Na0 O18 2.694325 1_545
Na0 O32 2.706198 1_555
Na0 O62 2.769570 1_545
Na1 O102 2.342207 1_555
Na1 O136 2.487859 1_555
Na1 O106 2.633760 1_555
Na1 O34 2.663020 1_555
Na1 O134 2.697804 1_555
Na1 O64 2.824105 1_555
Na1 O20 2.886545 1_555
Na1 O0 2.888979 1_555
Na2 O133 2.476953 1_555
Na2 O102 2.601857 1_555
Na2 O104 2.637315 1_555
Na2 O137 2.651439 1_555
Na2 O61 2.708259 1_555
Na2 O30 2.769720 1_555
Na3 O28 2.362975 1_555
Na3 O98 2.375599 1_555
Na3 O138 2.562103 1_555
Na3 O142 2.588686 1_555
Na3 O100 2.709021 1_555
Na3 O70 2.964938 1_555
Na4 O99 2.347063 1_555
Na4 O143 2.507933 1_555
Na4 O139 2.576221 1_555
Na4 O101 2.632698 1_555
Na4 O29 2.664413 1_555
Na4 O13 2.763554 1_555
Na4 O71 2.802959 1_555
Na4 O9 2.985785 1_555
Na5 O138 2.432445 1_655
Na5 O97 2.630732 1_555
Na5 O66 2.676528 1_655
Na5 O101 2.739289 1_555
Na5 O25 2.787983 1_555
Na5 O140 2.928876 1_655
Na5 O14 2.937972 1_655
Na5 O11 2.970582 1_555
Na6 O98 2.424802 1_555
Na6 O96 2.514955 1_555
Na6 O140 2.522946 1_545
Na6 O6 2.661411 1_555
Na6 O68 2.754830 1_545
Na6 O26 2.790905 1_555
Na6 O142 2.805169 1_545
Na7 O97 2.370217 1_555
Na7 O141 2.500573 1_545
Na7 O99 2.638173 1_555
Na7 O27 2.668089 1_555
Na7 O143 2.721785 1_545
Na7 O69 2.721958 1_545
Na7 O17 2.862329 1_545
Na7 O7 2.864453 1_555
Na8 O130 2.373494 1_555
Na8 O128 2.557310 1_555
Na8 O86 2.566906 1_555
Na8 O14 2.709276 1_555
Na8 O85 2.820143 1_455
Na8 O28 2.886764 1_555
Na8 O42 2.926153 1_555
Na8 O56 3.027979 1_555
Na9 O125 2.238186 1_555
Na9 O91 2.538248 1_555
Na9 O121 2.547052 1_555
Na9 O93 2.577441 1_565
Na9 O19 2.724544 1_555
Na9 O39 2.831712 1_555
Na10 O110 2.342856 1_555
Na10 O81 2.522692 1_555
Na10 O108 2.541731 1_555
Na10 O82 2.612120 1_555
Na10 O8 2.744155 1_555
Na10 O38 2.860647 1_556
Na11 O79 2.359363 1_555
Na11 O112 2.489548 1_555
Na11 O110 2.566761 1_555
Na11 O82 2.679232 1_545
Na11 O40 2.765307 1_556
Na11 O10 2.831862 1_555
Na12 O78 2.403932 1_655
Na12 O111 2.494612 1_555
Na12 O83 2.559859 1_545
Na12 O11 2.591838 1_555
Na12 O41 2.608111 1_556
Na12 O113 2.627223 1_555
Na13 O79 2.461221 1_555
Na13 O109 2.489100 1_555
Na13 O81 2.667794 1_545
Na13 O113 2.694913 1_555
Na13 O7 2.743499 1_555
Na13 O37 2.753903 1_556
Na13 O51 2.767087 1_555
Na14 O119 2.351947 1_555
Na14 O115 2.518372 1_555
Na14 O76 2.537891 1_655
Na14 O75 2.598242 1_545
Na14 O5 2.642988 1_555
Na14 O60 2.945097 1_655
Na14 O47 2.956792 1_555
Na15 O72 2.461041 1_545
Na15 O114 2.504697 1_555
Na15 O0 2.606122 1_555
Na15 O116 2.642635 1_555
Na15 O76 2.657713 1_555
Na15 O58 2.824988 1_545
Na15 O42 3.001827 1_555
Na15 O62 3.026212 1_545
Na16 O73 2.427571 1_555
Na16 O118 2.490469 1_555
Na16 O2 2.576053 1_555
Na16 O74 2.595548 1_555
Na16 O116 2.645292 1_555
Na16 O44 2.723695 1_555
Na16 O54 2.941391 1_555
Na16 O64 3.002027 1_555
Na17 O72 2.368549 1_655
Na17 O117 2.463384 1_555
Na17 O119 2.593565 1_555
Na17 O75 2.653638 1_555
Na17 O3 2.830215 1_555
Na17 O45 2.893052 1_555
Na18 O89 2.482023 1_555
Na18 O86 2.496536 1_665
Na18 O72 2.616335 1_655
Na18 O75 2.721919 1_555
Na18 O85 2.731471 1_565
Na18 O76 2.901843 1_665
Na19 O87 2.505012 1_555
Na19 O84 2.558520 1_555
Na19 O73 2.650792 1_545
Na19 O88 2.662524 1_545
Na19 O77 2.692351 1_555
Na19 O74 2.964698 1_545
Na20 O94 2.431554 1_555
Na20 O78 2.625377 1_554
Na20 O93 2.647563 1_455
Na20 O80 2.654526 1_544
Na20 O91 2.676139 1_445
Na21 O95 2.382174 1_555
Na21 O92 2.417103 1_555
Na21 O90 2.601984 1_545
Na21 O79 2.786041 1_554
Na21 O82 2.840129 1_544
Na21 O81 2.957110 1_544
Na22 O110 2.439704 1_555
Na22 O112 2.609684 1_555
Na22 O108 2.645371 1_555
Na22 O98 2.686077 1_555
Na22 O100 2.810420 1_555
Na22 O96 2.849960 1_555
Na23 O111 2.616854 1_555
Na23 O113 2.633841 1_555
Na23 O97 2.636468 1_555
Na23 O109 2.676082 1_555
Na23 O99 2.754308 1_555
Na23 O101 2.858382 1_555
Na24 O102 2.577692 1_555
Na24 O118 2.636968 1_555
Na24 O104 2.655613 1_555
Na24 O106 2.687765 1_555
Na24 O116 2.740231 1_555
Na24 O114 2.741284 1_555
Na25 O119 2.436835 1_555
Na25 O117 2.644367 1_555
Na25 O115 2.729016 1_555
Na25 O107 2.762648 1_555
Na25 O105 2.806253 1_555
Na25 O103 2.820776 1_555
Na26 O132 2.505307 1_555
Na26 O122 2.555671 1_555
Na26 O136 2.617027 1_555
Na26 O124 2.624193 1_555
Na26 O120 2.667978 1_555
Na26 O134 2.721905 1_555
Na27 O125 2.353025 1_555
Na27 O135 2.539757 1_555
Na27 O123 2.613810 1_555
Na27 O121 2.648607 1_555
Na27 O133 2.655650 1_555
Na27 O137 2.798679 1_555
Na28 O128 2.314596 1_555
Na28 O138 2.540285 1_555
Na28 O142 2.546944 1_555
Na28 O126 2.651759 1_555
Na28 O130 2.669260 1_555
Na28 O140 2.798314 1_555
Na29 O131 2.488493 1_555
Na29 O139 2.521610 1_555
Na29 O141 2.636633 1_555
Na29 O129 2.651482 1_555
Na29 O143 2.698537 1_555
Na29 O127 2.701867 1_555
Ca0 O0 2.134815 1_565
Ca0 O72 2.214245 1_555
Ca0 O3 2.220282 1_455
Ca0 O5 2.292569 1_465
Ca0 O76 2.351071 1_565
Ca0 O75 2.370464 1_455
Ca1 O2 2.181645 1_545
Ca1 O1 2.204866 1_555
Ca1 O4 2.260684 1_555
Ca1 O74 2.290551 1_545
Ca1 O77 2.293493 1_555
Ca1 O73 2.358372 1_545
Ca2 O6 2.094973 1_555
Ca2 O11 2.206358 1_455
Ca2 O9 2.289972 1_445
Ca2 O83 2.320350 1_445
Ca2 O80 2.328287 1_545
Ca2 O78 2.333862 1_555
Ca3 O7 2.124604 1_555
Ca3 O79 2.187579 1_555
Ca3 O10 2.248640 1_555
Ca3 O8 2.292462 1_545
Ca3 O81 2.346992 1_545
Ca3 O82 2.367784 1_545
Ca4 O28 2.154154 1_555
Ca4 O98 2.232034 1_555
Ca4 O24 2.246019 1_555
Ca4 O26 2.277885 1_555
Ca4 O100 2.331803 1_555
Ca4 O96 2.348429 1_555
Ca5 O99 2.190703 1_555
Ca5 O27 2.222735 1_555
Ca5 O25 2.279149 1_555
Ca5 O97 2.290195 1_555
Ca5 O29 2.323073 1_555
Ca5 O101 2.328825 1_555
Ca6 O106 2.187463 1_555
Ca6 O34 2.230580 1_555
Ca6 O30 2.252600 1_555
Ca6 O32 2.299883 1_555
Ca6 O102 2.300368 1_555
Ca6 O104 2.351057 1_555
Ca7 O33 2.092576 1_555
Ca7 O35 2.245620 1_555
Ca7 O107 2.276813 1_555
Ca7 O31 2.301465 1_555
Ca7 O105 2.339814 1_555
Ca7 O103 2.344692 1_555
Ca8 O112 2.310775 1_555
Ca8 O38 2.320654 1_556
Ca8 O108 2.325524 1_555
Ca8 O36 2.356526 1_556
Ca8 O40 2.367314 1_556
Ca8 O110 2.385453 1_555
Ca9 O41 2.238182 1_556
Ca9 O37 2.327949 1_556
Ca9 O111 2.342502 1_555
Ca9 O39 2.345106 1_556
Ca9 O113 2.448334 1_555
Ca9 O109 2.691262 1_555
Ca10 O44 2.255247 1_555
Ca10 O46 2.311857 1_555
Ca10 O118 2.335771 1_555
Ca10 O42 2.382951 1_555
Ca10 O116 2.455854 1_555
Ca10 O114 2.565284 1_555
Ca11 O117 2.302934 1_555
Ca11 O115 2.311323 1_555
Ca11 O43 2.356998 1_555
Ca11 O119 2.363406 1_555
Ca11 O47 2.371154 1_555
Ca11 O45 2.437889 1_555
Ca12 O50 2.220187 1_554
Ca12 O52 2.239066 1_554
Ca12 O48 2.259454 1_554
Ca12 O120 2.320124 1_555
Ca12 O124 2.325948 1_555
Ca12 O122 2.326392 1_555
Ca13 O51 2.140284 1_554
Ca13 O53 2.269760 1_554
Ca13 O125 2.278681 1_555
Ca13 O49 2.289581 1_554
Ca13 O123 2.320123 1_555
Ca13 O121 2.323009 1_555
Ca14 O58 2.134109 1_555
Ca14 O54 2.232564 1_555
Ca14 O128 2.265319 1_555
Ca14 O126 2.314453 1_555
Ca14 O56 2.325089 1_555
Ca14 O130 2.429010 1_555
Ca15 O59 2.236447 1_555
Ca15 O57 2.236865 1_555
Ca15 O55 2.246440 1_555
Ca15 O131 2.305353 1_555
Ca15 O127 2.314848 1_555
Ca15 O129 2.405360 1_555
Ca16 O63 2.243130 1_555
Ca16 O65 2.252613 1_555
Ca16 O61 2.332912 1_555
Ca16 O137 2.345607 1_555
Ca16 O133 2.355937 1_555
Ca16 O135 2.362087 1_555
Ca17 O66 2.258865 1_555
Ca17 O70 2.275652 1_555
Ca17 O138 2.287698 1_555
Ca17 O68 2.327997 1_555
Ca17 O142 2.400662 1_555
Ca17 O140 2.436386 1_555
Ge0 O14 1.799195 1_655
Ge0 O13 1.810337 1_545
Ge0 O89 2.048358 1_545
Ge0 O85 2.067253 1_555
Ge0 O16 2.109299 1_645
Ge0 O86 2.467938 1_655
Ge1 O88 1.769499 1_545
Ge1 O15 1.780248 1_555
Ge1 O84 1.904039 1_555
Ge1 O87 2.014451 1_555
Ge1 O12 2.151095 1_545
Ge1 O17 2.484560 1_545
Ge2 O22 1.778519 1_555
Ge2 O93 1.790035 1_465
Ge2 O91 1.984931 1_455
Ge2 O19 2.043892 1_455
Ge2 O94 2.062409 1_565
Ge2 O20 2.324577 1_565
Ge3 O18 1.857977 1_555
Ge3 O92 2.111996 1_565
Ge3 O90 2.156296 1_555
Ge3 O21 2.189049 1_565
Ge3 O23 2.214630 1_555
Ge4 O60 1.758536 1_555
Ge4 O132 1.815646 1_555
Ge4 O134 1.883743 1_555
Ge4 O136 2.038601 1_555
Ge4 O62 2.248483 1_555
Ge5 O67 1.765863 1_555
Ge5 O139 1.822260 1_555
Ge5 O143 1.903071 1_555
Ge5 O141 2.065641 1_555
Ge5 O71 2.195327 1_555
Ge5 O69 2.520973 1_555
O0 Si0 1.584969 1_545
O1 S0 1.465497 1_545
O2 Si1 1.581917 1_555
O3 S1 1.468661 1_555
O4 S3 1.466905 1_555
O5 S2 1.468295 1_655
O6 Si2 1.588483 1_555
O7 Si3 1.585313 1_555
O8 S5 1.479039 1_555
O9 S4 1.460314 1_655
O10 S6 1.473867 1_545
O11 Si4 1.581060 1_545
O12 S6 1.492045 1_555
O13 Si4 1.739306 1_555
O14 Si2 1.785848 1_555
O15 Si3 1.713938 1_555
O16 S4 1.511443 1_555
O17 S5 1.472916 1_555
O18 Si1 1.726197 1_555
O19 S1 1.523592 1_555
O20 S2 1.481851 1_555
O21 S3 1.488829 1_555
O22 Si0 1.709810 1_555
O23 S0 1.514262 1_555
O24 S7 1.450943 1_555
O25 S8 1.464782 1_555
O26 S9 1.476495 1_555
O27 S10 1.469137 1_555
O28 Si5 1.638879 1_555
O29 S11 1.464957 1_555
O30 S12 1.475212 1_555
O31 S13 1.454616 1_555
O32 S14 1.469925 1_555
O33 Si6 1.567027 1_555
O34 S15 1.470155 1_555
O35 S16 1.476391 1_555
O36 S15 1.472821 1_555
O37 S16 1.501499 1_555
O38 S12 1.478893 1_555
O39 S13 1.475644 1_555
O40 S14 1.479911 1_555
O41 Si6 1.627341 1_555
O42 S9 1.495060 1_555
O43 S10 1.471149 1_555
O44 Si5 1.628548 1_555
O45 S11 1.480559 1_555
O46 S7 1.463772 1_555
O47 S8 1.471261 1_555
O48 S17 1.468112 1_555
O49 S18 1.471670 1_555
O50 S19 1.463125 1_555
O51 Si7 1.581352 1_555
O52 S20 1.469804 1_555
O53 S21 1.466138 1_555
O54 S22 1.459574 1_555
O55 S23 1.467789 1_555
O56 S24 1.468347 1_555
O57 S25 1.466510 1_555
O58 Si8 1.583432 1_555
O59 S26 1.462995 1_555
O60 Si8 1.775876 1_555
O61 S26 1.485624 1_555
O62 S22 1.521724 1_555
O63 S23 1.472196 1_555
O64 S24 1.484190 1_555
O65 S25 1.483644 1_555
O66 S19 1.483926 1_555
O67 Si7 1.769651 1_555
O68 S20 1.493316 1_555
O69 S21 1.484114 1_555
O70 S17 1.479971 1_555
O71 S18 1.526738 1_555
O72 Si8 1.636272 1_555
O73 S26 1.492250 1_555
O74 S22 1.480434 1_555
O75 S23 1.499216 1_555
O76 S24 1.494609 1_555
O77 S25 1.471582 1_555
O78 S19 1.487950 1_555
O79 Si7 1.630929 1_555
O80 S20 1.470728 1_555
O81 S21 1.493215 1_555
O82 S17 1.495055 1_555
O83 S18 1.473313 1_555
O84 S7 1.542276 1_555
O85 S8 1.540533 1_555
O86 S9 1.511541 1_555
O87 S10 1.524631 1_555
O88 Si5 1.698681 1_555
O89 S11 1.555027 1_555
O90 S12 1.524006 1_555
O91 S13 1.540999 1_555
O92 S14 1.529004 1_555
O93 Si6 1.759495 1_555
O94 S15 1.516454 1_555
O95 S16 1.475506 1_555
O96 S6 1.474364 1_545
O97 Si4 1.613467 1_545
O98 Si2 1.633615 1_555
O99 Si3 1.610300 1_555
O100 S5 1.467640 1_555
O101 S4 1.488437 1_655
O102 Si1 1.613581 1_555
O103 S1 1.466873 1_555
O104 S3 1.506655 1_555
O105 S2 1.458436 1_655
O106 Si0 1.606323 1_545
O107 S0 1.469042 1_545
O108 S17 1.485064 1_555
O109 S18 1.484945 1_555
O110 Si7 1.644542 1_555
O111 S19 1.498371 1_655
O112 S20 1.501877 1_545
O113 S21 1.501459 1_545
O114 S22 1.487336 1_545
O115 S23 1.485881 1_545
O116 S24 1.504137 1_555
O117 S25 1.505848 1_555
O118 S26 1.500783 1_555
O119 Si8 1.644148 1_655
O120 S15 1.477593 1_555
O121 S16 1.490693 1_555
O122 S13 1.467221 1_455
O123 S12 1.470540 1_555
O124 S14 1.473541 1_565
O125 Si6 1.620132 1_565
O126 S9 1.465113 1_565
O127 S10 1.472759 1_565
O128 Si5 1.653107 1_555
O129 S11 1.470101 1_555
O130 S8 1.472871 1_455
O131 S7 1.474064 1_555
O132 Si0 1.709021 1_555
O133 S0 1.496414 1_555
O134 Si1 1.728421 1_555
O135 S1 1.482427 1_555
O136 S2 1.559025 1_555
O137 S3 1.483503 1_555
O138 Si2 1.637867 1_555
O139 Si3 1.705137 1_555
O140 S4 1.490637 1_555
O141 S5 1.540038 1_555
O142 S6 1.501957 1_555
O143 Si4 1.730540 1_555
