# generated using pymatgen
data_LaInAu
_symmetry_space_group_name_H-M   'P 1'
_cell_length_a   7.84528851
_cell_length_b   7.84528851
_cell_length_c   4.29587248
_cell_angle_alpha   90.00000000
_cell_angle_beta   90.00000000
_cell_angle_gamma   119.99999961
_symmetry_Int_Tables_number   1
_chemical_formula_structural   LaInAu
_chemical_formula_sum   'La3 In3 Au3'
_cell_volume   228.98121409
_cell_formula_units_Z   3
loop_
 _symmetry_equiv_pos_site_id
 _symmetry_equiv_pos_as_xyz
  1  'x, y, z'
loop_
 _atom_site_type_symbol
 _atom_site_label
 _atom_site_symmetry_multiplicity
 _atom_site_fract_x
 _atom_site_fract_y
 _atom_site_fract_z
 _atom_site_occupancy
  La  La0  1  0.58575238  -0.00000000  0.50000000  1
  La  La1  1  0.41424762  0.41424762  0.50000000  1
  La  La2  1  -0.00000000  0.58575238  0.50000000  1
  In  In0  1  -0.00000000  0.24614057  -0.00000000  1
  In  In1  1  0.75385943  0.75385943  0.00000000  1
  In  In2  1  0.24614057  -0.00000000  -0.00000000  1
  Au  Au0  1  0.66666700  0.33333300  -0.00000000  1
  Au  Au1  1  0.33333300  0.66666700  0.00000000  1
  Au  Au2  1  -0.00000000  0.00000000  0.50000000  1
loop_
_geom_bond_atom_site_label_1
_geom_bond_atom_site_label_2
_geom_bond_distance
_geom_bond_site_symmetry_2
In0 In2 3.344666 1_555
In0 In1 3.344666 1_445
In0 La2 3.422339 1_555
In0 La2 3.422339 1_554
In0 La1 3.553685 1_555
In0 La1 3.553685 1_554
In0 La0 3.553685 1_455
In0 La0 3.553685 1_454
In1 In2 3.344666 1_665
In1 La1 3.422339 1_554
In1 La1 3.422339 1_555
In1 La0 3.553685 1_565
In1 La0 3.553685 1_564
In1 La2 3.553685 1_655
In1 La2 3.553685 1_654
In2 La0 3.422339 1_554
In2 La0 3.422339 1_555
In2 La1 3.553685 1_555
In2 La1 3.553685 1_554
In2 La2 3.553685 1_545
In2 La2 3.553685 1_544
Au0 In0 3.015873 1_655
Au0 In2 3.015879 1_555
Au0 In1 3.015881 1_555
Au0 La0 3.193001 1_554
Au0 La0 3.193001 1_555
Au0 La2 3.193003 1_654
Au0 La2 3.193003 1_655
Au0 La1 3.193007 1_554
Au0 La1 3.193007 1_555
Au1 In2 3.015873 1_565
Au1 In0 3.015879 1_555
Au1 In1 3.015881 1_555
Au1 La2 3.193001 1_555
Au1 La2 3.193001 1_554
Au1 La0 3.193003 1_565
Au1 La0 3.193003 1_564
Au1 La1 3.193007 1_554
Au1 La1 3.193007 1_555
Au2 In0 2.888349 1_556
Au2 In2 2.888349 1_556
Au2 In2 2.888349 1_555
Au2 In0 2.888349 1_555
Au2 In1 2.888349 1_446
Au2 In1 2.888349 1_445
Au2 La2 3.249892 1_545
Au2 La0 3.249892 1_455
Au2 La1 3.249892 1_555
