# generated using pymatgen
data_Mg6TiCr
_symmetry_space_group_name_H-M   'P 1'
_cell_length_a   5.97492777
_cell_length_b   7.25560413
_cell_length_c   4.77975857
_cell_angle_alpha   90.00000000
_cell_angle_beta   90.00000000
_cell_angle_gamma   127.38542731
_symmetry_Int_Tables_number   1
_chemical_formula_structural   Mg6TiCr
_chemical_formula_sum   'Mg6 Ti1 Cr1'
_cell_volume   164.64322248
_cell_formula_units_Z   1
loop_
 _symmetry_equiv_pos_site_id
 _symmetry_equiv_pos_as_xyz
  1  'x, y, z'
loop_
 _atom_site_type_symbol
 _atom_site_label
 _atom_site_symmetry_multiplicity
 _atom_site_fract_x
 _atom_site_fract_y
 _atom_site_fract_z
 _atom_site_occupancy
  Mg  Mg0  1  0.74964884  0.37374050  0.25000000  1
  Mg  Mg1  1  0.74964908  0.87590771  0.25000000  1
  Mg  Mg2  1  0.24982019  0.10812531  0.75000000  1
  Mg  Mg3  1  0.24982025  0.64169560  0.75000000  1
  Mg  Mg4  1  0.77324318  0.13662201  0.75000000  1
  Mg  Mg5  1  0.72968521  0.61484301  0.75000000  1
  Ti  Ti0  1  0.25062334  0.37531126  0.25000000  1
  Cr  Cr0  1  0.24750990  0.87375460  0.25000000  1
loop_
_geom_bond_atom_site_label_1
_geom_bond_atom_site_label_2
_geom_bond_distance
_geom_bond_site_symmetry_2
Mg0 Ti0 2.986380 1_655
Mg0 Ti0 2.988575 1_555
Mg0 Mg4 2.997637 1_554
Mg0 Mg4 2.997637 1_555
Mg0 Mg5 3.006551 1_554
Mg0 Mg5 3.006551 1_555
Mg1 Ti0 2.986369 1_665
Mg1 Ti0 2.988566 1_555
Mg1 Mg4 2.997644 1_565
Mg1 Mg4 2.997644 1_564
Mg1 Mg5 3.006543 1_555
Mg1 Mg5 3.006543 1_554
Mg2 Mg4 2.977589 1_455
Mg2 Mg5 2.989456 1_555
Mg2 Mg5 2.993467 1_445
Mg2 Mg4 3.006367 1_555
Mg2 Ti0 3.075451 1_556
Mg2 Ti0 3.075451 1_555
Mg3 Mg4 2.977577 1_455
Mg3 Mg5 2.989466 1_555
Mg3 Mg5 2.993478 1_455
Mg3 Mg4 3.006357 1_565
Mg3 Ti0 3.075458 1_556
Mg3 Ti0 3.075458 1_555
Mg4 Ti0 3.293616 1_655
Mg4 Ti0 3.293616 1_656
Mg5 Ti0 3.299115 1_555
Mg5 Ti0 3.299115 1_556
Cr0 Mg3 2.928289 1_555
Cr0 Mg3 2.928289 1_554
Cr0 Mg2 2.928295 1_565
Cr0 Mg2 2.928295 1_564
Cr0 Mg0 2.984184 1_455
Cr0 Mg1 2.984194 1_455
Cr0 Mg0 2.990774 1_565
Cr0 Mg1 2.990786 1_555
