# generated using pymatgen
data_MgVP2O7
_symmetry_space_group_name_H-M   'P 1'
_cell_length_a   5.40203956
_cell_length_b   5.40204745
_cell_length_c   4.91989982
_cell_angle_alpha   83.95564238
_cell_angle_beta   96.04414851
_cell_angle_gamma   79.90361646
_symmetry_Int_Tables_number   1
_chemical_formula_structural   MgVP2O7
_chemical_formula_sum   'Mg1 V1 P2 O7'
_cell_volume   139.43626692
_cell_formula_units_Z   1
loop_
 _symmetry_equiv_pos_site_id
 _symmetry_equiv_pos_as_xyz
  1  'x, y, z'
loop_
 _atom_site_type_symbol
 _atom_site_label
 _atom_site_symmetry_multiplicity
 _atom_site_fract_x
 _atom_site_fract_y
 _atom_site_fract_z
 _atom_site_occupancy
  Mg  Mg0  1  0.52806900  0.52806900  0.00000000  1
  V  V0  1  0.11187400  0.11187900  0.00000200  1
  P  P0  1  0.66722000  0.24603300  0.43806300  1
  P  P1  1  0.24603200  0.66722100  0.56193800  1
  O  O0  1  0.78115000  0.09596300  0.70953300  1
  O  O1  1  0.33069000  0.84636900  0.76824800  1
  O  O2  1  0.17465600  0.44915500  0.74235900  1
  O  O3  1  0.09596200  0.78114900  0.29046600  1
  O  O4  1  0.54070900  0.54070800  0.49999900  1
  O  O5  1  0.44915600  0.17465300  0.25764000  1
  O  O6  1  0.84636900  0.33068800  0.23175200  1
loop_
_geom_bond_atom_site_label_1
_geom_bond_atom_site_label_2
_geom_bond_distance
_geom_bond_site_symmetry_2
Mg0 O1 2.020350 1_554
Mg0 O6 2.020353 1_555
Mg0 O2 2.307128 1_554
Mg0 O5 2.307134 1_555
Mg0 O4 2.462171 1_555
Mg0 O4 2.462182 1_554
O0 P0 1.497923 1_555
O0 V0 2.187145 1_656
O1 P1 1.562140 1_555
O1 V0 2.188227 1_566
O2 P1 1.528202 1_555
O2 V0 2.205040 1_556
O3 P1 1.497929 1_555
O3 V0 2.187147 1_565
O4 P0 1.690703 1_555
O4 P1 1.690718 1_555
O5 P0 1.528211 1_555
O5 V0 2.205040 1_555
O6 P0 1.562138 1_555
O6 V0 2.188179 1_655
