# generated using pymatgen
data_Tm2Si3Pd
_symmetry_space_group_name_H-M   'P 1'
_cell_length_a   8.07028686
_cell_length_b   8.07029947
_cell_length_c   7.96540110
_cell_angle_alpha   90.00000884
_cell_angle_beta   90.00006833
_cell_angle_gamma   120.00007340
_symmetry_Int_Tables_number   1
_chemical_formula_structural   Tm2Si3Pd
_chemical_formula_sum   'Tm8 Si12 Pd4'
_cell_volume   449.27947929
_cell_formula_units_Z   4
loop_
 _symmetry_equiv_pos_site_id
 _symmetry_equiv_pos_as_xyz
  1  'x, y, z'
loop_
 _atom_site_type_symbol
 _atom_site_label
 _atom_site_symmetry_multiplicity
 _atom_site_fract_x
 _atom_site_fract_y
 _atom_site_fract_z
 _atom_site_occupancy
  Tm  Tm0  1  0.50006904  0.00013437  0.25000001  1
  Tm  Tm1  1  0.49993393  -0.00012533  0.75000096  1
  Tm  Tm2  1  -0.00012426  0.49993833  0.24999942  1
  Tm  Tm3  1  0.00012768  0.50006748  0.74999876  1
  Tm  Tm4  1  0.50006581  0.49993725  0.24999933  1
  Tm  Tm5  1  0.49993680  0.50006473  0.74999977  1
  Tm  Tm6  1  0.00000042  -0.00000621  0.25000147  1
  Tm  Tm7  1  -0.00000569  -0.00000601  0.74999702  1
  Si  Si0  1  0.16573768  0.33147554  -0.00031865  1
  Si  Si1  1  0.83426188  0.66852393  0.00031638  1
  Si  Si2  1  0.66852186  0.83426068  -0.00031634  1
  Si  Si3  1  0.83426199  0.66852478  0.49968112  1
  Si  Si4  1  0.33147617  0.16573933  0.00031662  1
  Si  Si5  1  0.16573723  0.33147465  0.50031688  1
  Si  Si6  1  0.16573693  0.83426258  -0.00031815  1
  Si  Si7  1  0.33147655  0.16573941  0.49968273  1
  Si  Si8  1  0.83426250  0.16573694  0.00031719  1
  Si  Si9  1  0.66852179  0.83426121  0.50031596  1
  Si  Si10  1  0.83426206  0.16573674  0.49968203  1
  Si  Si11  1  0.16573887  0.83426427  0.50031764  1
  Pd  Pd0  1  0.33333210  0.66666617  -0.00003225  1
  Pd  Pd1  1  0.66666821  0.33333121  0.00003983  1
  Pd  Pd2  1  0.66666971  0.33333421  0.49996247  1
  Pd  Pd3  1  0.33333073  0.66666474  0.50003980  1
loop_
_geom_bond_atom_site_label_1
_geom_bond_atom_site_label_2
_geom_bond_distance
_geom_bond_site_symmetry_2
Si0 Si8 2.316708 1_455
Si0 Si4 2.316709 1_555
Si0 Tm7 3.053325 1_554
Si0 Tm6 3.056630 1_555
Si0 Tm5 3.067772 1_554
Si0 Tm3 3.067792 1_554
Si0 Tm2 3.071725 1_555
Si0 Tm4 3.071736 1_555
Si1 Si6 2.316707 1_655
Si1 Si2 2.316724 1_555
Si1 Tm6 3.053267 1_665
Si1 Tm7 3.056564 1_664
Si1 Tm4 3.067762 1_555
Si1 Tm2 3.067781 1_655
Si1 Tm3 3.071709 1_654
Si1 Tm5 3.071713 1_554
Si2 Si8 2.316719 1_565
Si2 Tm7 3.053290 1_664
Si2 Tm6 3.056595 1_665
Si2 Tm5 3.067766 1_554
Si2 Tm1 3.067792 1_564
Si2 Tm4 3.071705 1_555
Si2 Tm0 3.071725 1_565
Si3 Si9 2.316723 1_555
Si3 Tm6 3.053237 1_665
Si3 Tm7 3.056539 1_665
Si3 Tm4 3.067753 1_555
Si3 Tm2 3.067780 1_655
Si3 Tm3 3.071712 1_655
Si3 Tm5 3.071728 1_555
Si4 Si6 2.316723 1_545
Si4 Tm6 3.053298 1_555
Si4 Tm7 3.056622 1_554
Si4 Tm4 3.067770 1_555
Si4 Tm0 3.067774 1_555
Si4 Tm1 3.071700 1_554
Si4 Tm5 3.071722 1_554
Si5 Si7 2.316708 1_555
Si5 Tm7 3.053301 1_555
Si5 Tm6 3.056598 1_555
Si5 Tm5 3.067776 1_555
Si5 Tm3 3.067793 1_555
Si5 Tm2 3.071722 1_555
Si5 Tm4 3.071741 1_555
Si6 Tm7 3.053289 1_564
Si6 Tm6 3.056553 1_565
Si6 Tm1 3.067757 1_564
Si6 Tm3 3.067757 1_554
Si6 Tm2 3.071720 1_555
Si6 Tm0 3.071758 1_565
Si7 Tm6 3.053277 1_555
Si7 Tm7 3.056600 1_555
Si7 Tm0 3.067771 1_555
Si7 Tm4 3.067776 1_555
Si7 Tm1 3.071710 1_555
Si7 Tm5 3.071720 1_555
Si8 Tm6 3.053323 1_655
Si8 Tm7 3.056593 1_654
Si8 Tm0 3.067748 1_555
Si8 Tm2 3.067786 1_655
Si8 Tm1 3.071729 1_554
Si8 Tm3 3.071758 1_654
Si9 Tm7 3.053257 1_665
Si9 Tm6 3.056582 1_665
Si9 Tm5 3.067771 1_555
Si9 Tm1 3.067803 1_565
Si9 Tm4 3.071710 1_555
Si9 Tm0 3.071718 1_565
Si10 Si5 2.316708 1_655
Si10 Si9 2.316714 1_545
Si10 Tm6 3.053307 1_655
Si10 Tm7 3.056566 1_655
Si10 Tm0 3.067737 1_555
Si10 Tm2 3.067792 1_655
Si10 Tm1 3.071746 1_555
Si10 Tm3 3.071747 1_655
Si11 Si7 2.316712 1_565
Si11 Si3 2.316720 1_455
Si11 Tm7 3.053264 1_565
Si11 Tm6 3.056535 1_565
Si11 Tm1 3.067754 1_565
Si11 Tm3 3.067759 1_555
Si11 Tm2 3.071729 1_555
Si11 Tm0 3.071749 1_565
Pd0 Si2 2.342665 1_555
Pd0 Si0 2.342675 1_555
Pd0 Si6 2.342682 1_555
Pd0 Tm3 3.063941 1_554
Pd0 Tm5 3.063951 1_554
Pd0 Tm1 3.063958 1_564
Pd0 Tm2 3.065608 1_555
Pd0 Tm4 3.065641 1_555
Pd0 Tm0 3.065673 1_565
Pd1 Si8 2.342661 1_555
Pd1 Si4 2.342681 1_555
Pd1 Si1 2.342689 1_555
Pd1 Tm0 3.063861 1_555
Pd1 Tm2 3.063909 1_655
Pd1 Tm4 3.063920 1_555
Pd1 Tm1 3.065646 1_554
Pd1 Tm3 3.065673 1_654
Pd1 Tm5 3.065697 1_554
Pd2 Si10 2.342670 1_555
Pd2 Si3 2.342675 1_555
Pd2 Si7 2.342689 1_555
Pd2 Tm0 3.063887 1_555
Pd2 Tm2 3.063923 1_655
Pd2 Tm4 3.063929 1_555
Pd2 Tm3 3.065636 1_655
Pd2 Tm1 3.065662 1_555
Pd2 Tm5 3.065677 1_555
Pd3 Si5 2.342671 1_555
Pd3 Si9 2.342674 1_555
Pd3 Si11 2.342681 1_555
Pd3 Tm3 3.063886 1_555
Pd3 Tm5 3.063908 1_555
Pd3 Tm1 3.063933 1_565
Pd3 Tm2 3.065642 1_555
Pd3 Tm4 3.065689 1_555
Pd3 Tm0 3.065723 1_565
