# generated using pymatgen
data_LiNiP2O7
_symmetry_space_group_name_H-M   'P 1'
_cell_length_a   5.03263800
_cell_length_b   6.82675424
_cell_length_c   8.39176230
_cell_angle_alpha   67.61026937
_cell_angle_beta   87.89629894
_cell_angle_gamma   87.74422222
_symmetry_Int_Tables_number   1
_chemical_formula_structural   LiNiP2O7
_chemical_formula_sum   'Li2 Ni2 P4 O14'
_cell_volume   266.29749151
_cell_formula_units_Z   2
loop_
 _symmetry_equiv_pos_site_id
 _symmetry_equiv_pos_as_xyz
  1  'x, y, z'
loop_
 _atom_site_type_symbol
 _atom_site_label
 _atom_site_symmetry_multiplicity
 _atom_site_fract_x
 _atom_site_fract_y
 _atom_site_fract_z
 _atom_site_occupancy
  Li  Li0  1  0.27601500  0.82416900  0.00330300  1
  Li  Li1  1  0.78271000  0.17385800  0.43920200  1
  Ni  Ni0  1  0.24359400  0.21495300  0.72045300  1
  Ni  Ni1  1  0.75716000  0.78065000  0.27009200  1
  P  P0  1  0.76546200  0.88753100  0.83007600  1
  P  P1  1  0.71607200  0.55061100  0.68789100  1
  P  P2  1  0.23753000  0.12396000  0.16961400  1
  P  P3  1  0.28099300  0.45373700  0.30927400  1
  O  O0  1  0.28302200  0.36090600  0.15458300  1
  O  O1  1  0.89154700  0.35025600  0.76076800  1
  O  O2  1  0.06418400  0.92253800  0.79658800  1
  O  O3  1  0.12355200  0.66239500  0.22632600  1
  O  O4  1  0.14570600  0.28914300  0.46705000  1
  O  O5  1  0.95472500  0.06519300  0.24364800  1
  O  O6  1  0.27200600  0.12515200  0.98827600  1
  O  O7  1  0.43066400  0.48729100  0.67876800  1
  O  O8  1  0.44495100  0.97891500  0.29154200  1
  O  O9  1  0.82152300  0.71645600  0.52121300  1
  O  O10  1  0.59739600  0.05192800  0.68888200  1
  O  O11  1  0.66724100  0.85880000  0.01224000  1
  O  O12  1  0.71025100  0.65390300  0.83140200  1
  O  O13  1  0.57430300  0.48381000  0.33432300  1
loop_
_geom_bond_atom_site_label_1
_geom_bond_atom_site_label_2
_geom_bond_distance
_geom_bond_site_symmetry_2
Li0 O3 1.922969 1_555
Li0 O2 1.946440 1_554
Li0 O11 1.999768 1_555
Li0 O6 2.009424 1_564
Li1 O4 2.072668 1_655
Li1 O10 2.131137 1_555
Li1 O5 2.182958 1_555
Li1 O13 2.196890 1_555
Ni0 O7 2.020750 1_555
Ni0 O1 2.042518 1_455
Ni0 O4 2.063488 1_555
Ni0 O2 2.082390 1_545
Ni0 O6 2.101097 1_555
Ni0 O10 2.124426 1_555
Ni1 O9 2.018238 1_555
Ni1 O3 2.060492 1_655
Ni1 O8 2.081006 1_555
Ni1 O11 2.084471 1_555
Ni1 O13 2.126544 1_555
Ni1 O5 2.149093 1_565
O0 P2 1.598894 1_555
O0 P3 1.646846 1_555
O1 P1 1.527093 1_555
O2 P0 1.530451 1_455
O3 P3 1.528952 1_555
O4 P3 1.529652 1_555
O5 P2 1.537122 1_655
O6 P2 1.522226 1_556
O7 P1 1.529051 1_555
O8 P2 1.530452 1_565
O9 P1 1.518649 1_555
O10 P0 1.537752 1_545
O11 P0 1.530819 1_554
O12 P1 1.609715 1_555
O12 P0 1.625497 1_555
O13 P3 1.531270 1_555
