# generated using pymatgen
data_MgAl2(CuO3)2
_symmetry_space_group_name_H-M   'P 1'
_cell_length_a   2.94569900
_cell_length_b   2.94569947
_cell_length_c   14.87649300
_cell_angle_alpha   90.00000000
_cell_angle_beta   90.00000000
_cell_angle_gamma   119.99998347
_symmetry_Int_Tables_number   1
_chemical_formula_structural   MgAl2(CuO3)2
_chemical_formula_sum   'Mg1 Al2 Cu2 O6'
_cell_volume   111.79131649
_cell_formula_units_Z   1
loop_
 _symmetry_equiv_pos_site_id
 _symmetry_equiv_pos_as_xyz
  1  'x, y, z'
loop_
 _atom_site_type_symbol
 _atom_site_label
 _atom_site_symmetry_multiplicity
 _atom_site_fract_x
 _atom_site_fract_y
 _atom_site_fract_z
 _atom_site_occupancy
  Mg  Mg0  1  0.66666700  0.33333300  0.14772200  1
  Al  Al0  1  0.00000000  0.00000000  0.50821900  1
  Al  Al1  1  0.00000000  0.00000000  0.97314400  1
  Cu  Cu0  1  0.66666500  0.33333200  0.70777900  1
  Cu  Cu1  1  0.33333400  0.66666800  0.31343400  1
  O  O0  1  0.33333400  0.66666800  0.44294200  1
  O  O1  1  0.66666500  0.33333200  0.92946300  1
  O  O2  1  0.66666500  0.33333200  0.57176600  1
  O  O3  1  0.33333400  0.66666800  0.06491300  1
  O  O4  1  0.00000000  0.00000000  0.22818900  1
  O  O5  1  0.00000000  0.00000000  0.75528600  1
loop_
_geom_bond_atom_site_label_1
_geom_bond_atom_site_label_2
_geom_bond_distance
_geom_bond_site_symmetry_2
Mg0 O4 2.079746 1_655
Mg0 O4 2.079748 1_555
Mg0 O4 2.079749 1_665
Mg0 O3 2.099992 1_545
Mg0 O3 2.099995 1_655
Mg0 O3 2.099997 1_555
Al0 O2 1.945782 1_555
Al0 O2 1.945786 1_455
Al0 O2 1.945789 1_445
Al0 O0 1.958417 1_545
Al0 O0 1.958417 1_445
Al0 O0 1.958422 1_555
Al1 O1 1.820614 1_555
Al1 O1 1.820618 1_455
Al1 O1 1.820621 1_445
Al1 O3 2.180860 1_546
Al1 O3 2.180860 1_446
Al1 O3 2.180864 1_556
Cu0 O5 1.841696 1_555
Cu0 O5 1.841701 1_655
Cu0 O5 1.841704 1_665
Cu0 O2 2.023396 1_555
Cu1 O0 1.926625 1_555
Cu1 O4 2.121455 1_565
Cu1 O4 2.121455 1_665
Cu1 O4 2.121459 1_555
