# generated using pymatgen
data_MoN
_symmetry_space_group_name_H-M   'P 1'
_cell_length_a   3.39928151
_cell_length_b   3.39928151
_cell_length_c   4.92927000
_cell_angle_alpha   90.00000000
_cell_angle_beta   90.00000000
_cell_angle_gamma   119.99999045
_symmetry_Int_Tables_number   1
_chemical_formula_structural   MoN
_chemical_formula_sum   'Mo2 N2'
_cell_volume   49.32732273
_cell_formula_units_Z   2
loop_
 _symmetry_equiv_pos_site_id
 _symmetry_equiv_pos_as_xyz
  1  'x, y, z'
loop_
 _atom_site_type_symbol
 _atom_site_label
 _atom_site_symmetry_multiplicity
 _atom_site_fract_x
 _atom_site_fract_y
 _atom_site_fract_z
 _atom_site_occupancy
  Mo  Mo0  1  0.00000000  0.00000000  0.74800900  1
  Mo  Mo1  1  0.00000000  0.00000000  0.25199100  1
  N  N0  1  0.33333300  0.66666700  0.00000000  1
  N  N1  1  0.66666700  0.33333300  0.00000000  1
loop_
_geom_bond_atom_site_label_1
_geom_bond_atom_site_label_2
_geom_bond_distance
_geom_bond_site_symmetry_2
Mo0 N0 2.322625 1_546
Mo0 N1 2.322625 1_456
Mo0 N0 2.322628 1_446
Mo0 N1 2.322628 1_556
Mo0 N1 2.322628 1_446
Mo0 N0 2.322628 1_556
Mo1 N1 2.322625 1_455
Mo1 N0 2.322625 1_545
Mo1 N1 2.322628 1_445
Mo1 N0 2.322628 1_445
Mo1 N0 2.322628 1_555
Mo1 N1 2.322628 1_555
N0 N1 1.962574 1_455
N0 N1 1.962574 1_565
N0 N1 1.962580 1_555
