# generated using pymatgen
data_Na3AlSn3(PO4)6
_symmetry_space_group_name_H-M   'P 1'
_cell_length_a   8.69577393
_cell_length_b   8.68942598
_cell_length_c   22.51111485
_cell_angle_alpha   89.99353070
_cell_angle_beta   90.00021214
_cell_angle_gamma   120.11869917
_symmetry_Int_Tables_number   1
_chemical_formula_structural   Na3AlSn3(PO4)6
_chemical_formula_sum   'Na9 Al3 Sn9 P18 O72'
_cell_volume   1471.31702755
_cell_formula_units_Z   3
loop_
 _symmetry_equiv_pos_site_id
 _symmetry_equiv_pos_as_xyz
  1  'x, y, z'
loop_
 _atom_site_type_symbol
 _atom_site_label
 _atom_site_symmetry_multiplicity
 _atom_site_fract_x
 _atom_site_fract_y
 _atom_site_fract_z
 _atom_site_occupancy
  Na  Na0  1  0.36575868  0.36350992  0.24731374  1
  Na  Na1  1  0.63785008  0.63431990  0.74815231  1
  Na  Na2  1  0.97101734  0.30086269  0.41445437  1
  Na  Na3  1  0.00079731  0.99198684  0.49863584  1
  Na  Na4  1  0.99993267  0.99993775  0.00170986  1
  Na  Na5  1  0.66734989  0.32549886  0.83287983  1
  Na  Na6  1  0.66713683  0.33332665  0.32922756  1
  Na  Na7  1  0.33286034  0.67470553  0.16533547  1
  Na  Na8  1  0.32613257  0.66753498  0.66545592  1
  Al  Al0  1  0.99909734  0.99354367  0.34973075  1
  Al  Al1  1  0.66703105  0.32821218  0.68478790  1
  Al  Al2  1  0.67257998  0.33273643  0.18560207  1
  Sn  Sn0  1  0.00118800  0.00161385  0.85220671  1
  Sn  Sn1  1  0.00134327  0.00196124  0.64678204  1
  Sn  Sn2  1  0.99785894  0.99793726  0.14772222  1
  Sn  Sn3  1  0.66677056  0.33338111  0.98266394  1
  Sn  Sn4  1  0.66204258  0.33356412  0.48253502  1
  Sn  Sn5  1  0.33309871  0.66672852  0.02247425  1
  Sn  Sn6  1  0.33454448  0.66883148  0.52061575  1
  Sn  Sn7  1  0.33428081  0.67299778  0.31378385  1
  Sn  Sn8  1  0.32887849  0.66720655  0.81546617  1
  P  P0  1  0.29113829  0.00421391  0.25068700  1
  P  P1  1  0.71565126  0.70809355  0.25129131  1
  P  P2  1  0.99012072  0.28513381  0.25187659  1
  P  P3  1  0.29871493  0.29169547  0.74871846  1
  P  P4  1  0.99629775  0.70114204  0.74817127  1
  P  P5  1  0.70792007  0.00905237  0.74889937  1
  P  P6  1  0.95277973  0.33382732  0.58513721  1
  P  P7  1  0.38026267  0.04700084  0.58612714  1
  P  P8  1  0.66635327  0.61993152  0.58653841  1
  P  P9  1  0.95174059  0.61901819  0.08611783  1
  P  P10  1  0.66743720  0.04848278  0.08621212  1
  P  P11  1  0.38047584  0.33262126  0.08671962  1
  P  P12  1  0.62575921  0.66589453  0.91660317  1
  P  P13  1  0.03961046  0.37376821  0.91752908  1
  P  P14  1  0.33391872  0.96007779  0.91740731  1
  P  P15  1  0.63244128  0.95858293  0.41597473  1
  P  P16  1  0.32979747  0.36788632  0.41475954  1
  P  P17  1  0.04089887  0.67566516  0.41605790  1
  O  O0  1  0.20235398  0.03638247  0.30508686  1
  O  O1  1  0.83000910  0.79923338  0.30599087  1
  O  O2  1  0.96839251  0.17440838  0.30831940  1
  O  O3  1  0.22006795  0.17964707  0.80534638  1
  O  O4  1  0.95373360  0.77879987  0.80414436  1
  O  O5  1  0.82043653  0.04059847  0.80547293  1
  O  O6  1  0.78468007  0.95762648  0.69514096  1
  O  O7  1  0.17769250  0.21528948  0.69420520  1
  O  O8  1  0.03586619  0.82237157  0.69382706  1
  O  O9  1  0.78466639  0.82115615  0.19467397  1
  O  O10  1  0.04096851  0.21305317  0.19675403  1
  O  O11  1  0.17838635  0.96537432  0.19415326  1
  O  O12  1  0.85972123  0.35913643  0.63853667  1
  O  O13  1  0.49730752  0.13877483  0.63987280  1
  O  O14  1  0.64132868  0.50681251  0.64195974  1
  O  O15  1  0.86068482  0.50190220  0.14002710  1
  O  O16  1  0.64063515  0.13905873  0.14011911  1
  O  O17  1  0.49385044  0.35840100  0.14220934  1
  O  O18  1  0.45305100  0.29982814  0.02829929  1
  O  O19  1  0.84819068  0.54892692  0.02708058  1
  O  O20  1  0.70092881  0.15181803  0.02717616  1
  O  O21  1  0.44993867  0.15078155  0.52720700  1
  O  O22  1  0.70074893  0.54776330  0.52842401  1
  O  O23  1  0.85170949  0.30146560  0.52513431  1
  O  O24  1  0.54264476  0.69994907  0.97133106  1
  O  O25  1  0.15563444  0.45476308  0.97275560  1
  O  O26  1  0.29884716  0.84428126  0.97268749  1
  O  O27  1  0.55297362  0.84572493  0.47268529  1
  O  O28  1  0.28850975  0.44886142  0.47026515  1
  O  O29  1  0.15409190  0.70750937  0.47271693  1
  O  O30  1  0.11694165  0.62335980  0.36227064  1
  O  O31  1  0.51196211  0.88292087  0.36139065  1
  O  O32  1  0.36749131  0.48491883  0.35874660  1
  O  O33  1  0.11587729  0.48471325  0.86010915  1
  O  O34  1  0.36967507  0.88428522  0.86011700  1
  O  O35  1  0.51816205  0.63331721  0.85787389  1
  O  O36  1  0.02268696  0.83904776  0.40591024  1
  O  O37  1  0.81881067  0.98272544  0.40707806  1
  O  O38  1  0.16019867  0.18565048  0.40655332  1
  O  O39  1  0.02341712  0.18915105  0.91198230  1
  O  O40  1  0.16535000  0.97568515  0.91157393  1
  O  O41  1  0.81071552  0.83435847  0.91135398  1
  O  O42  1  0.97364491  0.16743123  0.58912783  1
  O  O43  1  0.19232495  0.02465041  0.58950865  1
  O  O44  1  0.83221587  0.80832074  0.58966579  1
  O  O45  1  0.97499012  0.80738016  0.08949860  1
  O  O46  1  0.83270225  0.02589059  0.08993412  1
  O  O47  1  0.19173345  0.16750499  0.08992534  1
  O  O48  1  0.68888770  0.17179341  0.73940475  1
  O  O49  1  0.48529870  0.31639203  0.74014148  1
  O  O50  1  0.82704725  0.51873401  0.73974344  1
  O  O51  1  0.68942775  0.51917961  0.24317980  1
  O  O52  1  0.82713397  0.30543058  0.24242378  1
  O  O53  1  0.47573724  0.17397260  0.24293014  1
  O  O54  1  0.64250270  0.49817615  0.92132195  1
  O  O55  1  0.85471223  0.35596790  0.92179207  1
  O  O56  1  0.50109889  0.14558487  0.92181188  1
  O  O57  1  0.65566183  0.14849048  0.42220329  1
  O  O58  1  0.49834606  0.35371948  0.42130956  1
  O  O59  1  0.85737135  0.50061587  0.42251023  1
  O  O60  1  0.36408545  0.50260121  0.08147860  1
  O  O61  1  0.13844677  0.63614033  0.08137205  1
  O  O62  1  0.49784602  0.86114579  0.08137555  1
  O  O63  1  0.36324858  0.86043041  0.58131328  1
  O  O64  1  0.49643765  0.63578409  0.58107781  1
  O  O65  1  0.13985584  0.50299514  0.58053374  1
  O  O66  1  0.31110365  0.83707230  0.25573846  1
  O  O67  1  0.52207098  0.68011226  0.25661762  1
  O  O68  1  0.16518487  0.47239390  0.25701694  1
  O  O69  1  0.32197664  0.48179877  0.75500756  1
  O  O70  1  0.16444254  0.68588890  0.75448623  1
  O  O71  1  0.52428943  0.83345077  0.75529015  1
loop_
_geom_bond_atom_site_label_1
_geom_bond_atom_site_label_2
_geom_bond_distance
_geom_bond_site_symmetry_2
Na0 O53 2.284210 1_555
Na0 O68 2.375100 1_555
Na0 O67 2.388981 1_555
Na0 O51 2.437056 1_555
Na0 O17 2.624948 1_555
Na0 O10 2.697398 1_555
Na0 O32 2.718511 1_555
Na0 O0 2.781395 1_555
Na1 O50 2.325881 1_555
Na1 O69 2.381504 1_555
Na1 O71 2.389543 1_555
Na1 O49 2.397186 1_555
Na1 O14 2.641456 1_555
Na1 O35 2.678599 1_555
Na1 O4 2.692489 1_555
Na1 O6 2.710377 1_555
Na2 O38 2.322295 1_655
Na2 O57 2.378985 1_555
Na2 O59 2.396633 1_555
Na2 O37 2.397822 1_545
Na2 O2 2.625204 1_555
Na2 O30 2.696976 1_655
Na2 O23 2.699921 1_555
Na2 O28 2.700306 1_655
Na3 O36 2.532569 1_555
Na3 O44 2.558620 1_455
Na3 O43 2.562179 1_565
Na3 O37 2.575079 1_455
Na3 O38 2.590045 1_565
Na3 O42 2.625168 1_465
Na4 O45 2.527289 1_555
Na4 O47 2.531560 1_665
Na4 O46 2.537537 1_565
Na4 O39 2.546979 1_664
Na4 O40 2.556350 1_654
Na4 O41 2.557225 1_554
Na5 O56 2.504596 1_555
Na5 O55 2.509548 1_555
Na5 O48 2.549194 1_555
Na5 O54 2.566696 1_555
Na5 O49 2.597102 1_555
Na5 O50 2.608200 1_555
Na6 O51 2.466349 1_555
Na6 O53 2.479732 1_555
Na6 O52 2.480196 1_555
Na6 O58 2.596854 1_555
Na6 O57 2.609325 1_555
Na6 O59 2.616585 1_555
Na7 O62 2.433483 1_555
Na7 O61 2.444263 1_555
Na7 O60 2.506357 1_555
Na7 O66 2.537008 1_555
Na7 O67 2.618054 1_555
Na7 O68 2.627295 1_555
Na8 O63 2.440860 1_555
Na8 O65 2.449272 1_555
Na8 O70 2.498833 1_555
Na8 O64 2.507463 1_555
Na8 O69 2.571133 1_555
Na8 O71 2.577740 1_555
Al0 O1 1.868459 1_555
Al0 O0 1.900568 1_665
Al0 O36 1.928650 1_655
Al0 O2 1.957312 1_565
Al0 O37 1.996312 1_555
Al0 O38 2.009686 1_665
Al1 O13 1.863431 1_555
Al1 O12 1.874011 1_555
Al1 O48 1.911552 1_555
Al1 O14 1.932803 1_555
Al1 O50 1.973820 1_555
Al1 O49 1.974257 1_555
Al2 O15 1.864273 1_555
Al2 O16 1.867888 1_555
Al2 O17 1.940929 1_555
Al2 O52 1.954134 1_555
Al2 O51 2.021975 1_555
Al2 O53 2.031822 1_555
O0 P0 1.546127 1_555
O1 P1 1.530406 1_555
O2 P2 1.546964 1_555
O3 P3 1.540182 1_555
O3 Sn0 2.042862 1_555
O4 P4 1.559118 1_555
O4 Sn0 2.070775 1_665
O5 P5 1.544421 1_555
O5 Sn0 2.055786 1_655
O6 P5 1.552156 1_565
O6 Sn1 2.038296 1_665
O7 P3 1.534008 1_555
O7 Sn1 2.018680 1_555
O8 P4 1.536428 1_455
O8 Sn1 2.028970 1_565
O9 P1 1.535505 1_555
O9 Sn2 2.013777 1_555
O10 P2 1.551026 1_455
O10 Sn2 2.037174 1_445
O11 P0 1.537147 1_565
O11 Sn2 2.020542 1_455
O12 P6 1.525406 1_555
O13 P7 1.523580 1_555
O14 P8 1.534627 1_555
O15 P9 1.525244 1_555
O16 P10 1.526656 1_555
O17 P11 1.536520 1_555
O18 P11 1.545819 1_555
O18 Sn3 2.012555 1_554
O19 P9 1.548471 1_555
O19 Sn3 2.007878 1_554
O20 P10 1.547425 1_555
O20 Sn3 2.012781 1_554
O21 P7 1.546269 1_555
O21 Sn4 1.998860 1_555
O22 P8 1.543560 1_555
O22 Sn4 2.004105 1_555
O23 P6 1.558215 1_555
O23 Sn4 2.044305 1_555
O24 P12 1.530503 1_555
O24 Sn5 2.049668 1_556
O25 P13 1.531792 1_555
O25 Sn5 2.043149 1_556
O26 P14 1.531597 1_555
O26 Sn5 2.045950 1_556
O27 P15 1.545514 1_555
O27 Sn6 2.050414 1_555
O28 P16 1.561716 1_555
O28 Sn6 2.081115 1_555
O29 P17 1.548851 1_555
O29 Sn6 2.065691 1_555
O30 P17 1.552945 1_555
O30 Sn7 2.032498 1_555
O31 P15 1.532506 1_555
O31 Sn7 2.008750 1_555
O32 P16 1.548130 1_555
O32 Sn7 2.062059 1_555
O33 P13 1.548573 1_555
O33 Sn8 2.001807 1_555
O34 P14 1.548991 1_555
O34 Sn8 2.005766 1_555
O35 P12 1.561304 1_555
O35 Sn8 2.047837 1_555
O36 P17 1.522623 1_555
O37 P15 1.539266 1_555
O38 P16 1.540457 1_555
O39 P13 1.543461 1_555
O39 Sn0 2.046454 1_555
O40 P14 1.543960 1_555
O40 Sn0 2.048728 1_565
O41 P12 1.542962 1_555
O41 Sn0 2.052352 1_665
O42 P6 1.547524 1_555
O42 Sn1 2.038865 1_655
O43 P7 1.547836 1_555
O43 Sn1 2.032371 1_555
O44 P8 1.547728 1_555
O44 Sn1 2.040660 1_665
O45 P9 1.547118 1_555
O45 Sn2 2.041869 1_555
O46 P10 1.547245 1_555
O46 Sn2 2.040552 1_545
O47 P11 1.547322 1_555
O47 Sn2 2.052477 1_445
O48 P5 1.519091 1_555
O49 P3 1.538300 1_555
O50 P4 1.540551 1_555
O51 P1 1.550624 1_555
O52 P2 1.528386 1_555
O53 P0 1.551374 1_555
O54 P12 1.539268 1_555
O54 Sn3 2.074783 1_555
O55 P13 1.539050 1_655
O55 Sn3 2.065237 1_555
O56 P14 1.539440 1_545
O56 Sn3 2.063008 1_555
O57 P15 1.564992 1_545
O57 Sn4 2.084419 1_555
O58 P16 1.538220 1_555
O58 Sn4 2.051011 1_555
O59 P17 1.563795 1_655
O59 Sn4 2.084009 1_555
O60 P11 1.557908 1_555
O60 Sn5 2.063023 1_555
O61 P9 1.557901 1_455
O61 Sn5 2.059618 1_555
O62 P10 1.558001 1_565
O62 Sn5 2.058167 1_555
O63 P7 1.556025 1_565
O63 Sn6 2.069919 1_555
O64 P8 1.556114 1_555
O64 Sn6 2.079049 1_555
O65 P6 1.555000 1_455
O65 Sn6 2.076832 1_555
O66 P0 1.550953 1_565
O66 Sn7 2.017079 1_555
O67 P1 1.579979 1_555
O67 Sn7 2.055524 1_555
O68 P2 1.578808 1_455
O68 Sn7 2.064413 1_555
O69 P3 1.566655 1_555
O69 Sn8 2.086853 1_555
O70 P4 1.539526 1_455
O70 Sn8 2.046518 1_555
O71 P5 1.566359 1_565
O71 Sn8 2.084547 1_555
