# generated using pymatgen
data_Sr2MgRu3O10
_symmetry_space_group_name_H-M   'P 1'
_cell_length_a   5.70025098
_cell_length_b   6.87021803
_cell_length_c   6.76276801
_cell_angle_alpha   98.70217291
_cell_angle_beta   90.22804983
_cell_angle_gamma   125.68672618
_symmetry_Int_Tables_number   1
_chemical_formula_structural   Sr2MgRu3O10
_chemical_formula_sum   'Sr2 Mg1 Ru3 O10'
_cell_volume   211.22636966
_cell_formula_units_Z   1
loop_
 _symmetry_equiv_pos_site_id
 _symmetry_equiv_pos_as_xyz
  1  'x, y, z'
loop_
 _atom_site_type_symbol
 _atom_site_label
 _atom_site_symmetry_multiplicity
 _atom_site_fract_x
 _atom_site_fract_y
 _atom_site_fract_z
 _atom_site_occupancy
  Sr  Sr0  1  0.15416543  0.59594892  0.77233942  1
  Sr  Sr1  1  0.82727959  0.37445062  0.22583920  1
  Mg  Mg0  1  0.53766972  0.62606773  0.17857343  1
  Ru  Ru0  1  0.23504570  0.01392417  0.49824059  1
  Ru  Ru1  1  0.77611673  0.99279159  0.51503579  1
  Ru  Ru2  1  0.01613069  0.00702473  0.99646613  1
  O  O0  1  0.18049355  0.27739705  0.56119238  1
  O  O1  1  0.80952596  0.71943483  0.43634407  1
  O  O2  1  0.67543497  0.23027424  0.55148455  1
  O  O3  1  0.33122957  0.76477958  0.44537082  1
  O  O4  1  0.83826828  0.65877686  0.00205537  1
  O  O5  1  0.73765035  0.97803233  0.19912075  1
  O  O6  1  0.71561505  0.93464384  0.79083789  1
  O  O7  1  0.23056007  0.00074473  0.78480111  1
  O  O8  1  0.28620211  0.08719309  0.22400815  1
  O  O9  1  0.17242322  0.36351367  0.02828934  1
loop_
_geom_bond_atom_site_label_1
_geom_bond_atom_site_label_2
_geom_bond_distance
_geom_bond_site_symmetry_2
Mg0 O9 1.915252 1_555
Mg0 O5 1.961362 1_555
Mg0 O4 2.014892 1_555
Mg0 O1 2.081385 1_555
Mg0 O3 2.520591 1_555
O0 Ru1 1.945522 1_445
O0 Ru0 1.994753 1_555
O0 Sr0 2.508072 1_555
O1 Ru1 1.990501 1_555
O1 Ru0 2.040121 1_665
O1 Sr1 2.629510 1_555
O2 Ru1 2.005994 1_545
O2 Ru0 2.029348 1_555
O2 Sr1 2.501053 1_555
O2 Sr0 2.612021 1_655
O3 Ru1 2.058965 1_555
O3 Ru0 2.066293 1_565
O3 Sr0 2.584868 1_555
O3 Sr1 2.724182 1_455
O4 Ru2 1.987756 1_664
O4 Sr0 2.562890 1_654
O4 Sr1 2.619648 1_555
O5 Ru2 2.041776 1_664
O5 Ru1 2.127816 1_555
O5 Sr1 2.436793 1_565
O6 Ru1 1.956348 1_555
O6 Ru2 1.973185 1_665
O6 Sr0 2.625443 1_555
O7 Ru2 1.897808 1_555
O7 Ru0 1.953270 1_555
O7 Sr0 2.539043 1_545
O8 Ru2 1.943376 1_554
O8 Ru0 1.973166 1_555
O8 Sr1 2.509661 1_555
O9 Ru2 2.032649 1_554
O9 Sr1 2.413339 1_455
O9 Sr0 2.566291 1_554
