# generated using pymatgen
data_RbMgV4O10
_symmetry_space_group_name_H-M   'P 1'
_cell_length_a   3.81023113
_cell_length_b   6.40137879
_cell_length_c   8.97720693
_cell_angle_alpha   101.35077247
_cell_angle_beta   89.59132609
_cell_angle_gamma   106.27785670
_symmetry_Int_Tables_number   1
_chemical_formula_structural   RbMgV4O10
_chemical_formula_sum   'Rb1 Mg1 V4 O10'
_cell_volume   205.80370703
_cell_formula_units_Z   1
loop_
 _symmetry_equiv_pos_site_id
 _symmetry_equiv_pos_as_xyz
  1  'x, y, z'
loop_
 _atom_site_type_symbol
 _atom_site_label
 _atom_site_symmetry_multiplicity
 _atom_site_fract_x
 _atom_site_fract_y
 _atom_site_fract_z
 _atom_site_occupancy
  Rb  Rb0  1  0.50000000  0.00000000  0.50000000  1
  Mg  Mg0  1  0.00000000  0.50000000  0.50000000  1
  V  V0  1  0.21954500  0.42930700  0.85152300  1
  V  V1  1  0.91180000  0.82125700  0.85081400  1
  V  V2  1  0.08820000  0.17874300  0.14918600  1
  V  V3  1  0.78045500  0.57069300  0.14847700  1
  O  O0  1  0.06241700  0.12364000  0.89977800  1
  O  O1  1  0.16125500  0.35021800  0.65554000  1
  O  O2  1  0.38041300  0.75260000  0.86843900  1
  O  O3  1  0.75282400  0.50013100  0.89712000  1
  O  O4  1  0.89591300  0.74653000  0.65328900  1
  O  O5  1  0.10408700  0.25347000  0.34671100  1
  O  O6  1  0.24717600  0.49986900  0.10288000  1
  O  O7  1  0.61958700  0.24740000  0.13156100  1
  O  O8  1  0.83874500  0.64978200  0.34446000  1
  O  O9  1  0.93758300  0.87636000  0.10022200  1
loop_
_geom_bond_atom_site_label_1
_geom_bond_atom_site_label_2
_geom_bond_distance
_geom_bond_site_symmetry_2
Mg0 O5 2.007411 1_555
Mg0 O4 2.007411 1_455
Mg0 O1 2.028794 1_555
Mg0 O8 2.028794 1_455
O0 V1 1.820801 1_445
O0 V0 2.011957 1_555
O0 V2 2.195443 1_556
O1 V0 1.730024 1_555
O1 Rb0 2.995872 1_455
O1 Rb0 3.000969 1_555
O2 V1 1.959997 1_555
O2 V0 1.961680 1_555
O2 V1 1.969165 1_455
O3 V0 1.975864 1_655
O3 V0 1.980953 1_555
O3 V1 2.097654 1_555
O3 V3 2.209606 1_556
O4 V1 1.740177 1_555
O4 Rb0 2.926489 1_665
O4 Rb0 3.013743 1_565
O5 V2 1.740177 1_555
O5 Rb0 2.926489 1_455
O5 Rb0 3.013743 1_555
O6 V3 1.975864 1_455
O6 V3 1.980953 1_555
O6 V2 2.097654 1_555
O6 V0 2.209606 1_554
O7 V2 1.959997 1_555
O7 V3 1.961680 1_555
O7 V2 1.969165 1_655
O8 V3 1.730024 1_555
O8 Rb0 2.995872 1_665
O8 Rb0 3.000969 1_565
O9 V2 1.820801 1_665
O9 V3 2.011957 1_555
O9 V1 2.195443 1_554
