# generated using pymatgen
data_Na18Ca4Nb20Si27(SO16)9
_symmetry_space_group_name_H-M   'P 1'
_cell_length_a   18.07141062
_cell_length_b   9.03764556
_cell_length_c   22.90884956
_cell_angle_alpha   90.09537851
_cell_angle_beta   90.15363462
_cell_angle_gamma   120.06364768
_symmetry_Int_Tables_number   1
_chemical_formula_structural   Na18Ca4Nb20Si27(SO16)9
_chemical_formula_sum   'Na18 Ca4 Nb20 Si27 S9 O144'
_cell_volume   3238.15916702
_cell_formula_units_Z   1
loop_
 _symmetry_equiv_pos_site_id
 _symmetry_equiv_pos_as_xyz
  1  'x, y, z'
loop_
 _atom_site_type_symbol
 _atom_site_label
 _atom_site_symmetry_multiplicity
 _atom_site_fract_x
 _atom_site_fract_y
 _atom_site_fract_z
 _atom_site_occupancy
  Na  Na0  1  0.31377253  0.01481819  0.24046497  1
  Na  Na1  1  0.81470899  0.01398605  0.25288710  1
  Na  Na2  1  0.99435729  0.61586426  0.24054591  1
  Na  Na3  1  0.31564644  0.61493490  0.75530327  1
  Na  Na4  1  0.81404355  0.61232584  0.74470137  1
  Na  Na5  1  0.49363806  0.37298291  0.74243061  1
  Na  Na6  1  0.99380170  0.99593166  0.49490233  1
  Na  Na7  1  0.50097893  0.00147968  0.49971175  1
  Na  Na8  1  0.00082231  0.00153571  0.00219306  1
  Na  Na9  1  0.49272216  0.98710450  0.99758329  1
  Na  Na10  1  0.32351642  0.31632762  0.82826101  1
  Na  Na11  1  0.83267274  0.33012905  0.82555040  1
  Na  Na12  1  0.33488185  0.33883332  0.32202118  1
  Na  Na13  1  0.82492495  0.33049488  0.32217602  1
  Na  Na14  1  0.16498193  0.66494040  0.15770723  1
  Na  Na15  1  0.64946238  0.64690597  0.16922515  1
  Na  Na16  1  0.16046231  0.66618148  0.67510987  1
  Na  Na17  1  0.66159590  0.66132460  0.66077570  1
  Ca  Ca0  1  0.33163912  0.32609148  0.68698108  1
  Ca  Ca1  1  0.83294042  0.33655933  0.68531330  1
  Ca  Ca2  1  0.33749356  0.33522329  0.18401477  1
  Ca  Ca3  1  0.83139657  0.33634431  0.18591559  1
  Nb  Nb0  1  0.99885773  0.00197655  0.35772160  1
  Nb  Nb1  1  0.50646646  0.01076539  0.35890545  1
  Nb  Nb2  1  0.00731738  0.00178347  0.86081034  1
  Nb  Nb3  1  0.49890122  0.99552794  0.85849390  1
  Nb  Nb4  1  0.00247676  0.99015464  0.64776545  1
  Nb  Nb5  1  0.50161107  0.01596530  0.65111401  1
  Nb  Nb6  1  0.00222360  0.98906171  0.15052709  1
  Nb  Nb7  1  0.50337975  0.00649499  0.14254417  1
  Nb  Nb8  1  0.34136796  0.33949487  0.97870527  1
  Nb  Nb9  1  0.84063616  0.35121929  0.97460624  1
  Nb  Nb10  1  0.34144041  0.33264343  0.47414268  1
  Nb  Nb11  1  0.83343994  0.34408714  0.47515696  1
  Nb  Nb12  1  0.16740491  0.67494239  0.01664218  1
  Nb  Nb13  1  0.66380584  0.67003850  0.01477900  1
  Nb  Nb14  1  0.16748928  0.66524952  0.51324788  1
  Nb  Nb15  1  0.66693255  0.65922575  0.51672488  1
  Nb  Nb16  1  0.16212913  0.65814772  0.31408962  1
  Nb  Nb17  1  0.66378347  0.66403328  0.31012843  1
  Nb  Nb18  1  0.16482076  0.66571127  0.81287427  1
  Nb  Nb19  1  0.66160283  0.66516969  0.81534434  1
  Si  Si0  1  0.14480323  0.99837430  0.25651333  1
  Si  Si1  1  0.63944162  0.99014525  0.25114276  1
  Si  Si2  1  0.85312476  0.71459572  0.25386246  1
  Si  Si3  1  0.00621175  0.28700953  0.25032630  1
  Si  Si4  1  0.50272203  0.28791480  0.25219092  1
  Si  Si5  1  0.13951522  0.29096879  0.75201224  1
  Si  Si6  1  0.64467673  0.29216242  0.75680127  1
  Si  Si7  1  0.00321875  0.71158457  0.75508635  1
  Si  Si8  1  0.50698871  0.72580320  0.74984608  1
  Si  Si9  1  0.35289990  0.99224220  0.75459086  1
  Si  Si10  1  0.48268192  0.33174187  0.58601714  1
  Si  Si11  1  0.83345054  0.63378187  0.58550201  1
  Si  Si12  1  0.48443433  0.63175077  0.08467791  1
  Si  Si13  1  0.98304920  0.63319631  0.08611391  1
  Si  Si14  1  0.33192762  0.03586506  0.08583114  1
  Si  Si15  1  0.30913056  0.65944368  0.91543127  1
  Si  Si16  1  0.81087164  0.67135846  0.91503399  1
  Si  Si17  1  0.02479320  0.38030383  0.91663234  1
  Si  Si18  1  0.52066525  0.37201664  0.91634989  1
  Si  Si19  1  0.17300464  0.96191442  0.91580344  1
  Si  Si20  1  0.66939528  0.96455625  0.91628486  1
  Si  Si21  1  0.31204178  0.95370753  0.41351970  1
  Si  Si22  1  0.80916699  0.95584755  0.41553379  1
  Si  Si23  1  0.16890595  0.37385553  0.41646183  1
  Si  Si24  1  0.66887450  0.38409593  0.41419302  1
  Si  Si25  1  0.02095007  0.66864316  0.41620338  1
  Si  Si26  1  0.52608563  0.67155525  0.41629737  1
  S  S0  1  0.35670812  0.72273888  0.25196839  1
  S  S1  1  0.85744302  0.99109504  0.75155990  1
  S  S2  1  0.98528408  0.33581292  0.58077513  1
  S  S3  1  0.18312439  0.03102522  0.58057206  1
  S  S4  1  0.68419458  0.03640772  0.58080813  1
  S  S5  1  0.33221479  0.63131241  0.58138250  1
  S  S6  1  0.83420912  0.03484446  0.08131456  1
  S  S7  1  0.18287534  0.33152312  0.08150092  1
  S  S8  1  0.68538092  0.33755310  0.07997614  1
  O  O0  1  0.08864956  0.99710108  0.31195010  1
  O  O1  1  0.58632507  0.99690834  0.30867562  1
  O  O2  1  0.40582804  0.80864489  0.30553605  1
  O  O3  1  0.91109511  0.82360560  0.31025072  1
  O  O4  1  0.49777512  0.16841189  0.30884908  1
  O  O5  1  0.00122413  0.17651799  0.30829769  1
  O  O6  1  0.08513852  0.17182513  0.80759497  1
  O  O7  1  0.58925174  0.18078013  0.81169974  1
  O  O8  1  0.50146992  0.82685150  0.80729801  1
  O  O9  1  0.99440778  0.82184748  0.80845526  1
  O  O10  1  0.41173540  0.99967844  0.80980734  1
  O  O11  1  0.90592765  0.00483031  0.80464034  1
  O  O12  1  0.40476654  0.97623094  0.69416084  1
  O  O13  1  0.90102685  0.97283405  0.69724416  1
  O  O14  1  0.08237886  0.18779175  0.69164087  1
  O  O15  1  0.58426152  0.20068050  0.69573187  1
  O  O16  1  0.00891558  0.82853350  0.69378408  1
  O  O17  1  0.51622821  0.84037671  0.69015806  1
  O  O18  1  0.39789602  0.82348066  0.19812888  1
  O  O19  1  0.90495197  0.83401840  0.19432939  1
  O  O20  1  0.01535661  0.19151652  0.19120600  1
  O  O21  1  0.50866247  0.18417156  0.19358924  1
  O  O22  1  0.08398644  0.96808192  0.19605489  1
  O  O23  1  0.58367510  0.97937843  0.19201813  1
  O  O24  1  0.45364822  0.36473905  0.64755821  1
  O  O25  1  0.95200542  0.36380516  0.63509238  1
  O  O26  1  0.23000348  0.09681036  0.63507472  1
  O  O27  1  0.73121645  0.10350532  0.63541448  1
  O  O28  1  0.31656463  0.54150242  0.63701046  1
  O  O29  1  0.81670642  0.54400096  0.64742443  1
  O  O30  1  0.45503860  0.52891827  0.14350191  1
  O  O31  1  0.95370421  0.54218851  0.14762130  1
  O  O32  1  0.30865266  0.08112059  0.14759628  1
  O  O33  1  0.81944403  0.09497206  0.13736930  1
  O  O34  1  0.22947651  0.35760288  0.13617484  1
  O  O35  1  0.73138315  0.36254434  0.13453072  1
  O  O36  1  0.22725598  0.31081438  0.03020802  1
  O  O37  1  0.72905609  0.31423690  0.02884982  1
  O  O38  1  0.42073620  0.52904412  0.02760384  1
  O  O39  1  0.91426661  0.51740718  0.03133305  1
  O  O40  1  0.34333169  0.17135855  0.03216992  1
  O  O41  1  0.84041232  0.14830948  0.03195071  1
  O  O42  1  0.22528353  0.13803801  0.52926807  1
  O  O43  1  0.73178283  0.14894998  0.53031405  1
  O  O44  1  0.33786564  0.53099601  0.53172727  1
  O  O45  1  0.84436447  0.51902734  0.53124747  1
  O  O46  1  0.41404273  0.31126051  0.53121963  1
  O  O47  1  0.93079312  0.31631085  0.52948217  1
  O  O48  1  0.25962405  0.68703894  0.96953944  1
  O  O49  1  0.76313945  0.69218029  0.97146357  1
  O  O50  1  0.08276088  0.46701256  0.97341969  1
  O  O51  1  0.58271023  0.47717313  0.97130753  1
  O  O52  1  0.15477871  0.83800546  0.97166328  1
  O  O53  1  0.65701502  0.83971077  0.97163334  1
  O  O54  1  0.26118186  0.83476039  0.47085731  1
  O  O55  1  0.75997798  0.83075806  0.47025296  1
  O  O56  1  0.15704064  0.47576452  0.47316452  1
  O  O57  1  0.65494589  0.47084965  0.47192440  1
  O  O58  1  0.08202805  0.68450910  0.47225217  1
  O  O59  1  0.58329417  0.69720233  0.47364496  1
  O  O60  1  0.06607793  0.63523288  0.35876475  1
  O  O61  1  0.56865057  0.63539732  0.35937420  1
  O  O62  1  0.25178138  0.86486278  0.35642197  1
  O  O63  1  0.75199224  0.87477875  0.35599450  1
  O  O64  1  0.18276271  0.50001747  0.36057283  1
  O  O65  1  0.68443547  0.50309334  0.35803073  1
  O  O66  1  0.06789508  0.50116081  0.85920578  1
  O  O67  1  0.56665550  0.49536248  0.85802883  1
  O  O68  1  0.18330530  0.86505562  0.85859717  1
  O  O69  1  0.68323836  0.86703212  0.85939552  1
  O  O70  1  0.25181980  0.63315648  0.85548904  1
  O  O71  1  0.75225386  0.64028217  0.85595780  1
  O  O72  1  0.01086151  0.83459137  0.41423168  1
  O  O73  1  0.50861138  0.83029177  0.41015081  1
  O  O74  1  0.40557361  0.97338762  0.41034977  1
  O  O75  1  0.90518841  0.98122637  0.41130947  1
  O  O76  1  0.08368968  0.18955008  0.41314906  1
  O  O77  1  0.58547079  0.19123717  0.41101440  1
  O  O78  1  0.00821290  0.18660826  0.90910379  1
  O  O79  1  0.51125533  0.18591229  0.91334539  1
  O  O80  1  0.08620813  0.97967112  0.91054710  1
  O  O81  1  0.58418355  0.97836792  0.91157797  1
  O  O82  1  0.40484234  0.82806492  0.91021131  1
  O  O83  1  0.90577544  0.83729768  0.90854171  1
  O  O84  1  0.48946985  0.15311370  0.58668100  1
  O  O85  1  0.99485746  0.18059045  0.58364463  1
  O  O86  1  0.09522127  0.01428673  0.58482229  1
  O  O87  1  0.59817108  0.02386132  0.58258597  1
  O  O88  1  0.41086454  0.80266330  0.58219260  1
  O  O89  1  0.92268838  0.82839804  0.58877145  1
  O  O90  1  0.49331131  0.82449511  0.08859163  1
  O  O91  1  0.98938268  0.82494434  0.08734862  1
  O  O92  1  0.42166285  0.02507678  0.09011633  1
  O  O93  1  0.91383088  0.02373112  0.08260980  1
  O  O94  1  0.09545596  0.17172079  0.08440879  1
  O  O95  1  0.59783886  0.17896084  0.08270491  1
  O  O96  1  0.34977277  0.16426243  0.75360703  1
  O  O97  1  0.84592977  0.13859936  0.74621354  1
  O  O98  1  0.23413149  0.32106510  0.75142963  1
  O  O99  1  0.73764626  0.31532354  0.75474700  1
  O  O100  1  0.42259340  0.54081596  0.74964923  1
  O  O101  1  0.91849516  0.52996766  0.75365379  1
  O  O102  1  0.34251431  0.54952310  0.24963072  1
  O  O103  1  0.85047138  0.53661550  0.25346810  1
  O  O104  1  0.41760968  0.29821120  0.25538562  1
  O  O105  1  0.92230508  0.30436874  0.25084213  1
  O  O106  1  0.23742758  0.16023039  0.25532267  1
  O  O107  1  0.73470861  0.14790917  0.25190883  1
  O  O108  1  0.31790607  0.49030702  0.92706331  1
  O  O109  1  0.82085184  0.49935170  0.92510131  1
  O  O110  1  0.42820785  0.36043657  0.92339031  1
  O  O111  1  0.92879233  0.36263348  0.92598517  1
  O  O112  1  0.25477564  0.14954048  0.92565079  1
  O  O113  1  0.75452184  0.15009656  0.92840958  1
  O  O114  1  0.32028861  0.14214286  0.42577831  1
  O  O115  1  0.82012614  0.14582507  0.43137812  1
  O  O116  1  0.25405542  0.35966771  0.42959724  1
  O  O117  1  0.75264370  0.35956324  0.42523506  1
  O  O118  1  0.42941833  0.49612053  0.42635631  1
  O  O119  1  0.92818004  0.49419750  0.42640607  1
  O  O120  1  0.16930672  0.48053202  0.07378771  1
  O  O121  1  0.67243285  0.48649698  0.07195016  1
  O  O122  1  0.07698517  0.65890362  0.07006454  1
  O  O123  1  0.58229395  0.66453089  0.07016358  1
  O  O124  1  0.25493587  0.84010940  0.06922153  1
  O  O125  1  0.75980939  0.85800401  0.07187695  1
  O  O126  1  0.16820381  0.85271400  0.57272080  1
  O  O127  1  0.67140212  0.86137610  0.57278221  1
  O  O128  1  0.25646034  0.65869803  0.57206822  1
  O  O129  1  0.75465298  0.66882168  0.57036382  1
  O  O130  1  0.07410996  0.48976179  0.57304077  1
  O  O131  1  0.57700675  0.49469373  0.57003285  1
  O  O132  1  0.14745829  0.81520540  0.25821098  1
  O  O133  1  0.64343464  0.81157432  0.25532532  1
  O  O134  1  0.27203519  0.71990726  0.25475933  1
  O  O135  1  0.76323007  0.71679282  0.25436762  1
  O  O136  1  0.09348861  0.47973675  0.25584557  1
  O  O137  1  0.59217200  0.47161232  0.25661855  1
  O  O138  1  0.14238991  0.47548811  0.75502720  1
  O  O139  1  0.64919882  0.48171032  0.75699432  1
  O  O140  1  0.09353572  0.71466655  0.75562127  1
  O  O141  1  0.59403376  0.70680270  0.75475106  1
  O  O142  1  0.26316625  0.80939069  0.75394676  1
  O  O143  1  0.77330756  0.82632818  0.75222183  1
loop_
_geom_bond_atom_site_label_1
_geom_bond_atom_site_label_2
_geom_bond_distance
_geom_bond_site_symmetry_2
Na0 O32 2.225461 1_555
Na0 O104 2.318651 1_555
Na0 O106 2.358822 1_555
Na0 O134 2.402085 1_545
Na0 O132 2.651324 1_545
Na0 O62 2.941965 1_545
Na0 O18 2.979639 1_545
Na1 O107 2.304054 1_555
Na1 O105 2.357647 1_555
Na1 O135 2.361729 1_545
Na1 O63 2.653745 1_545
Na1 O133 2.694054 1_545
Na1 O33 2.737019 1_555
Na2 O31 2.238668 1_555
Na2 O103 2.345352 1_555
Na2 O105 2.451026 1_555
Na2 O132 2.462078 1_655
Na2 O136 2.655552 1_655
Na2 O22 2.940924 1_655
Na2 O60 2.966048 1_655
Na3 O98 2.304398 1_555
Na3 O100 2.344978 1_555
Na3 O142 2.378844 1_555
Na3 O70 2.613132 1_555
Na3 O138 2.727234 1_555
Na3 O28 2.791029 1_555
Na4 O29 2.318536 1_555
Na4 O99 2.335547 1_555
Na4 O101 2.359063 1_555
Na4 O143 2.395487 1_555
Na4 O139 2.613308 1_555
Na4 O71 2.846514 1_555
Na5 O24 2.277859 1_555
Na5 O96 2.339785 1_555
Na5 O100 2.434722 1_555
Na5 O139 2.491168 1_555
Na5 O141 2.642640 1_555
Na5 O67 2.913210 1_555
Na5 O15 2.968236 1_555
Na6 O75 2.453324 1_555
Na6 O72 2.465981 1_655
Na6 O76 2.527374 1_665
Na6 O89 2.577698 1_555
Na6 O85 2.622050 1_565
Na6 O86 2.702609 1_665
Na7 O84 2.483852 1_555
Na7 O87 2.520959 1_555
Na7 O88 2.558713 1_545
Na7 O74 2.601678 1_545
Na7 O77 2.608825 1_555
Na7 O73 2.612860 1_545
Na8 O91 2.465259 1_445
Na8 O94 2.485044 1_555
Na8 O93 2.497151 1_455
Na8 O80 2.673842 1_544
Na8 O78 2.674495 1_554
Na8 O83 2.677988 1_444
Na9 O82 2.506142 1_555
Na9 O79 2.544933 1_565
Na9 O90 2.555857 1_556
Na9 O92 2.591171 1_566
Na9 O81 2.601503 1_555
Na9 O95 2.662034 1_566
Na10 O96 2.385091 1_555
Na10 O98 2.400704 1_555
Na10 O112 2.634959 1_555
Na10 O100 2.637257 1_555
Na10 O110 2.776147 1_555
Na10 O108 2.784763 1_555
Na11 O99 2.313433 1_555
Na11 O101 2.365848 1_555
Na11 O97 2.600846 1_555
Na11 O111 2.804010 1_555
Na11 O109 2.811419 1_555
Na11 O113 2.814743 1_555
Na12 O106 2.273977 1_555
Na12 O104 2.293569 1_555
Na12 O102 2.478629 1_555
Na12 O118 2.861117 1_555
Na12 O114 2.902952 1_555
Na12 O116 2.921600 1_555
Na13 O107 2.292129 1_555
Na13 O103 2.304965 1_555
Na13 O105 2.500726 1_555
Na13 O117 2.776271 1_555
Na13 O119 2.927561 1_555
Na13 O115 2.986895 1_555
Na14 O122 2.541380 1_555
Na14 O120 2.569119 1_555
Na14 O124 2.589956 1_555
Na14 O136 2.717873 1_555
Na14 O132 2.769497 1_555
Na14 O134 2.818354 1_555
Na15 O137 2.443024 1_555
Na15 O133 2.504203 1_555
Na15 O123 2.613239 1_555
Na15 O135 2.665274 1_555
Na15 O121 2.799497 1_555
Na15 O125 2.969192 1_555
Na16 O140 2.365790 1_555
Na16 O138 2.424559 1_555
Na16 O142 2.439099 1_555
Na16 O130 2.814261 1_555
Na16 O126 2.853434 1_555
Na16 O128 2.953884 1_555
Na17 O131 2.567519 1_555
Na17 O141 2.609294 1_555
Na17 O129 2.650962 1_555
Na17 O127 2.656474 1_555
Na17 O139 2.682202 1_555
Na17 O143 2.763810 1_555
Ca0 O24 2.244827 1_555
Ca0 O96 2.249681 1_555
Ca0 O98 2.284933 1_555
Ca0 O26 2.290881 1_555
Ca0 O100 2.304544 1_555
Ca0 O28 2.389954 1_555
Ca1 O29 2.215718 1_555
Ca1 O101 2.273120 1_555
Ca1 O99 2.284115 1_555
Ca1 O27 2.285549 1_555
Ca1 O25 2.344645 1_555
Ca1 O97 2.372706 1_555
Ca2 O30 2.174476 1_555
Ca2 O32 2.243578 1_555
Ca2 O104 2.314240 1_555
Ca2 O34 2.331792 1_555
Ca2 O106 2.366199 1_555
Ca2 O102 2.415031 1_555
Ca3 O31 2.238718 1_555
Ca3 O35 2.264229 1_555
Ca3 O103 2.269903 1_555
Ca3 O107 2.297880 1_555
Ca3 O105 2.336404 1_555
Ca3 O33 2.358117 1_555
Nb0 O5 1.926332 1_655
Nb0 O3 1.928742 1_545
Nb0 O0 1.953227 1_645
Nb0 O75 2.025210 1_545
Nb0 O76 2.053016 1_655
Nb0 O72 2.084530 1_645
Nb1 O4 1.896911 1_555
Nb1 O1 1.900533 1_545
Nb1 O77 1.942925 1_555
Nb1 O73 2.027199 1_545
Nb1 O74 2.055026 1_545
Nb1 O2 2.188906 1_545
Nb2 O80 1.910034 1_545
Nb2 O6 1.917219 1_555
Nb2 O9 1.936333 1_445
Nb2 O78 1.995271 1_555
Nb2 O83 2.013919 1_445
Nb2 O11 2.247615 1_455
Nb3 O8 1.940839 1_555
Nb3 O10 1.943353 1_555
Nb3 O7 1.973487 1_565
Nb3 O82 2.005695 1_555
Nb3 O81 2.026870 1_555
Nb3 O79 2.048370 1_565
Nb4 O16 1.852910 1_555
Nb4 O14 1.920373 1_565
Nb4 O89 1.978313 1_455
Nb4 O13 2.096347 1_455
Nb4 O86 2.140941 1_565
Nb4 O85 2.320269 1_465
Nb5 O12 1.882848 1_545
Nb5 O15 1.884259 1_555
Nb5 O17 1.952319 1_545
Nb5 O84 2.010015 1_555
Nb5 O87 2.324847 1_555
Nb5 O88 2.388944 1_545
Nb6 O22 1.892111 1_555
Nb6 O19 1.899113 1_455
Nb6 O20 1.957214 1_565
Nb6 O91 1.998711 1_455
Nb6 O94 2.256871 1_565
Nb6 O93 2.358053 1_465
Nb7 O21 1.947987 1_555
Nb7 O23 1.948995 1_545
Nb7 O92 1.972599 1_555
Nb7 O90 1.989593 1_545
Nb7 O95 2.139267 1_555
Nb7 O18 2.202734 1_545
Nb8 O38 1.941628 1_556
Nb8 O110 1.954037 1_555
Nb8 O40 1.967351 1_556
Nb8 O108 2.004696 1_555
Nb8 O112 2.040694 1_555
Nb8 O36 2.278227 1_556
Nb9 O111 1.906447 1_555
Nb9 O109 1.920616 1_555
Nb9 O39 1.922775 1_556
Nb9 O113 1.999098 1_555
Nb9 O37 2.249753 1_556
Nb9 O41 2.255959 1_556
Nb10 O118 1.889511 1_555
Nb10 O114 1.915697 1_555
Nb10 O46 1.927218 1_555
Nb10 O116 1.993348 1_555
Nb10 O44 2.250917 1_555
Nb10 O42 2.327452 1_555
Nb11 O117 1.911961 1_555
Nb11 O119 1.925400 1_555
Nb11 O115 1.958354 1_555
Nb11 O45 1.966971 1_555
Nb11 O43 2.203529 1_555
Nb11 O47 2.266898 1_555
Nb12 O52 1.904292 1_554
Nb12 O48 1.944520 1_554
Nb12 O124 1.949176 1_555
Nb12 O50 1.989292 1_554
Nb12 O122 1.990680 1_555
Nb12 O120 2.206815 1_555
Nb13 O53 1.880532 1_554
Nb13 O51 1.898617 1_554
Nb13 O123 1.928452 1_555
Nb13 O49 1.974184 1_554
Nb13 O125 2.152738 1_555
Nb13 O121 2.180938 1_555
Nb14 O56 1.865842 1_555
Nb14 O58 1.886695 1_555
Nb14 O54 1.889898 1_555
Nb14 O128 2.118593 1_555
Nb14 O130 2.139500 1_555
Nb14 O126 2.167302 1_555
Nb15 O57 1.903206 1_555
Nb15 O55 1.940978 1_555
Nb15 O129 1.970254 1_555
Nb15 O59 1.972106 1_555
Nb15 O131 1.984685 1_555
Nb15 O127 2.199385 1_555
Nb16 O60 1.937357 1_555
Nb16 O64 1.962715 1_555
Nb16 O136 1.974574 1_555
Nb16 O62 2.002130 1_555
Nb16 O132 2.026092 1_555
Nb16 O134 2.238311 1_555
Nb17 O61 1.964923 1_555
Nb17 O137 1.982735 1_555
Nb17 O133 1.995958 1_555
Nb17 O65 2.001542 1_555
Nb17 O63 2.053081 1_555
Nb17 O135 2.060252 1_555
Nb18 O66 1.952327 1_555
Nb18 O68 1.960460 1_555
Nb18 O70 1.991889 1_555
Nb18 O140 2.034574 1_555
Nb18 O138 2.041410 1_555
Nb18 O142 2.091320 1_555
Nb19 O67 1.905561 1_555
Nb19 O69 1.943362 1_555
Nb19 O71 1.990383 1_555
Nb19 O141 2.003109 1_555
Nb19 O139 2.050569 1_555
Nb19 O143 2.316099 1_555
O0 Si0 1.624206 1_555
O1 Si1 1.651539 1_555
O2 S0 1.482286 1_555
O3 Si2 1.640497 1_555
O4 Si4 1.663650 1_555
O5 Si3 1.638264 1_555
O6 Si5 1.642435 1_555
O7 Si6 1.612147 1_555
O8 Si8 1.632231 1_555
O9 Si7 1.633758 1_655
O10 Si9 1.629723 1_555
O11 S1 1.465130 1_545
O12 Si9 1.719935 1_555
O13 S1 1.526664 1_555
O14 Si5 1.694644 1_555
O15 Si6 1.707748 1_555
O16 Si7 1.731087 1_555
O17 Si8 1.674078 1_555
O18 S0 1.494632 1_555
O19 Si2 1.703255 1_555
O20 Si3 1.657312 1_555
O21 Si4 1.670430 1_555
O22 Si0 1.700081 1_555
O23 Si1 1.659423 1_555
O24 Si10 1.584675 1_555
O25 S2 1.459270 1_555
O26 S3 1.455120 1_555
O27 S4 1.459526 1_555
O28 S5 1.462259 1_555
O29 Si11 1.588215 1_555
O30 Si12 1.573300 1_555
O31 Si13 1.585571 1_555
O32 Si14 1.587438 1_555
O33 S6 1.469804 1_555
O34 S7 1.458784 1_555
O35 S8 1.452389 1_555
O36 S7 1.487868 1_555
O37 S8 1.486588 1_555
O38 Si12 1.677369 1_555
O39 Si13 1.702668 1_555
O40 Si14 1.675326 1_555
O41 S6 1.494108 1_555
O42 S3 1.472248 1_555
O43 S4 1.498354 1_555
O44 S5 1.488742 1_555
O45 Si11 1.691534 1_555
O46 Si10 1.705755 1_555
O47 S2 1.483488 1_555
O48 Si15 1.620978 1_555
O49 Si16 1.618160 1_555
O50 Si17 1.603342 1_555
O51 Si18 1.632883 1_555
O52 Si19 1.624072 1_555
O53 Si20 1.638367 1_555
O54 Si21 1.657410 1_555
O55 Si22 1.625872 1_555
O56 Si23 1.666437 1_555
O57 Si24 1.619667 1_555
O58 Si25 1.649473 1_555
O59 Si26 1.612496 1_555
O60 Si25 1.654955 1_555
O61 Si26 1.629358 1_555
O62 Si21 1.629227 1_555
O63 Si22 1.641780 1_555
O64 Si23 1.650027 1_555
O65 Si24 1.610775 1_555
O66 Si17 1.639619 1_555
O67 Si18 1.673664 1_555
O68 Si19 1.636818 1_555
O69 Si20 1.660355 1_555
O70 Si15 1.661189 1_555
O71 Si16 1.650931 1_555
O72 Si25 1.599613 1_555
O73 Si26 1.622334 1_555
O74 Si21 1.610389 1_555
O75 Si22 1.635618 1_555
O76 Si23 1.606457 1_555
O77 Si24 1.637650 1_555
O78 Si17 1.630076 1_555
O79 Si18 1.604861 1_555
O80 Si19 1.658858 1_555
O81 Si20 1.609419 1_555
O82 Si15 1.639859 1_555
O83 Si16 1.624103 1_555
O84 Si10 1.679279 1_555
O85 S2 1.498546 1_555
O86 S3 1.521812 1_555
O87 S4 1.501644 1_555
O88 S5 1.487661 1_555
O89 Si11 1.690236 1_555
O90 Si12 1.669611 1_555
O91 Si13 1.678723 1_555
O92 Si14 1.675249 1_555
O93 S6 1.491950 1_555
O94 S7 1.516872 1_555
O95 S8 1.513269 1_555
O96 Si9 1.583918 1_545
O97 S1 1.453867 1_545
O98 Si5 1.591197 1_555
O99 Si6 1.586454 1_555
O100 Si8 1.601994 1_555
O101 Si7 1.587783 1_655
O102 S0 1.454876 1_555
O103 Si2 1.585054 1_555
O104 Si4 1.588632 1_555
O105 Si3 1.600747 1_655
O106 Si0 1.577804 1_545
O107 Si1 1.592963 1_545
O108 Si15 1.636086 1_555
O109 Si16 1.668587 1_555
O110 Si18 1.629405 1_555
O111 Si17 1.675025 1_655
O112 Si19 1.611300 1_545
O113 Si20 1.633131 1_545
O114 Si21 1.656870 1_545
O115 Si22 1.666055 1_545
O116 Si23 1.634057 1_555
O117 Si24 1.655066 1_555
O118 Si26 1.687294 1_555
O119 Si25 1.644982 1_655
O120 S7 1.495436 1_555
O121 S8 1.488866 1_555
O122 Si13 1.636866 1_455
O123 Si12 1.674617 1_555
O124 Si14 1.655069 1_565
O125 S6 1.501031 1_565
O126 S3 1.505140 1_565
O127 S4 1.490631 1_565
O128 S5 1.522829 1_555
O129 Si11 1.642501 1_555
O130 S2 1.519398 1_455
O131 Si10 1.642715 1_555
O132 Si0 1.680476 1_555
O133 Si1 1.654114 1_555
O134 S0 1.519022 1_555
O135 Si2 1.634633 1_555
O136 Si3 1.668288 1_555
O137 Si4 1.639902 1_555
O138 Si5 1.643540 1_555
O139 Si6 1.673621 1_555
O140 Si7 1.618394 1_555
O141 Si8 1.669216 1_555
O142 Si9 1.635727 1_555
O143 S1 1.503715 1_555
