# generated using pymatgen
data_Ba2MgMn2O6
_symmetry_space_group_name_H-M   'P 1'
_cell_length_a   6.49679755
_cell_length_b   5.62013595
_cell_length_c   5.45428592
_cell_angle_alpha   90.03398727
_cell_angle_beta   70.87001394
_cell_angle_gamma   115.65909200
_symmetry_Int_Tables_number   1
_chemical_formula_structural   Ba2MgMn2O6
_chemical_formula_sum   'Ba2 Mg1 Mn2 O6'
_cell_volume   167.24832533
_cell_formula_units_Z   1
loop_
 _symmetry_equiv_pos_site_id
 _symmetry_equiv_pos_as_xyz
  1  'x, y, z'
loop_
 _atom_site_type_symbol
 _atom_site_label
 _atom_site_symmetry_multiplicity
 _atom_site_fract_x
 _atom_site_fract_y
 _atom_site_fract_z
 _atom_site_occupancy
  Ba  Ba0  1  0.58532700  0.29271300  0.19057200  1
  Ba  Ba1  1  0.41466700  0.70729200  0.80935100  1
  Mg  Mg0  1  0.00002900  0.50004400  0.49997500  1
  Mn  Mn0  1  0.00003100  0.00002100  0.50003200  1
  Mn  Mn1  1  0.99997700  0.00004600  0.99992400  1
  O  O0  1  0.86385400  0.68951800  0.76727000  1
  O  O1  1  0.13622700  0.82566300  0.23304200  1
  O  O2  1  0.69441900  0.84708100  0.29721700  1
  O  O3  1  0.30564300  0.15291400  0.70264200  1
  O  O4  1  0.13606900  0.31024200  0.23292800  1
  O  O5  1  0.86375700  0.17446600  0.76704800  1
loop_
_geom_bond_atom_site_label_1
_geom_bond_atom_site_label_2
_geom_bond_distance
_geom_bond_site_symmetry_2
Ba0 O3 2.675753 1_555
Ba0 O5 2.711176 1_554
Ba0 O0 2.711341 1_554
Ba0 O1 2.895138 1_545
Ba0 O4 2.896404 1_555
Ba0 O2 2.983868 1_555
Ba0 O2 2.987047 1_545
Ba1 O2 2.676132 1_555
Ba1 O1 2.712157 1_556
Ba1 O4 2.713041 1_556
Ba1 O5 2.895655 1_565
Ba1 O0 2.896968 1_555
Ba1 O3 2.984082 1_555
Ba1 O3 2.986796 1_565
Mg0 O1 2.002025 1_555
Mg0 O5 2.002211 1_455
Mg0 O0 2.002696 1_455
Mg0 O4 2.002861 1_555
Mn0 O4 1.941114 1_555
Mn0 O1 1.941258 1_545
Mn0 O5 1.941903 1_455
Mn0 O0 1.942503 1_445
Mn0 O3 2.421001 1_555
Mn0 O2 2.421812 1_445
Mn1 O2 1.929534 1_546
Mn1 O3 1.929897 1_655
Mn1 O0 2.198725 1_545
Mn1 O4 2.198874 1_656
Mn1 O5 2.201593 1_555
Mn1 O1 2.202553 1_646
