# generated using pymatgen
data_MgTiCo3O8
_symmetry_space_group_name_H-M   'P 1'
_cell_length_a   5.96317617
_cell_length_b   5.82514268
_cell_length_c   5.82320921
_cell_angle_alpha   59.99602324
_cell_angle_beta   60.77268877
_cell_angle_gamma   88.38046998
_symmetry_Int_Tables_number   1
_chemical_formula_structural   MgTiCo3O8
_chemical_formula_sum   'Mg1 Ti1 Co3 O8'
_cell_volume   146.49794767
_cell_formula_units_Z   1
loop_
 _symmetry_equiv_pos_site_id
 _symmetry_equiv_pos_as_xyz
  1  'x, y, z'
loop_
 _atom_site_type_symbol
 _atom_site_label
 _atom_site_symmetry_multiplicity
 _atom_site_fract_x
 _atom_site_fract_y
 _atom_site_fract_z
 _atom_site_occupancy
  Mg  Mg0  1  0.50000000  0.50000000  0.50000000  1
  Ti  Ti0  1  0.00000000  0.00000000  0.00000000  1
  Co  Co0  1  0.00000000  0.00000000  0.50000000  1
  Co  Co1  1  0.00000000  0.50000000  0.00000000  1
  Co  Co2  1  0.00000000  0.50000000  0.50000000  1
  O  O0  1  0.21068200  0.25234000  0.00245400  1
  O  O1  1  0.21094700  0.25216800  0.53444600  1
  O  O2  1  0.19474200  0.71072900  0.04736800  1
  O  O3  1  0.20280000  0.70428900  0.54635400  1
  O  O4  1  0.79720000  0.29571100  0.45364600  1
  O  O5  1  0.80525800  0.28927100  0.95263200  1
  O  O6  1  0.78905300  0.74783200  0.46555400  1
  O  O7  1  0.78931800  0.74766000  0.99754600  1
loop_
_geom_bond_atom_site_label_1
_geom_bond_atom_site_label_2
_geom_bond_distance
_geom_bond_site_symmetry_2
Mg0 O3 2.089202 1_555
Mg0 O4 2.089202 1_555
Mg0 O0 2.146670 1_556
Mg0 O7 2.146670 1_554
Mg0 O6 2.146820 1_555
Mg0 O1 2.146820 1_555
Co0 O4 2.058776 1_455
Co0 O3 2.058776 1_545
Co0 O7 2.103302 1_445
Co0 O0 2.103302 1_555
Co0 O1 2.103763 1_555
Co0 O6 2.103763 1_445
Co1 O0 1.885284 1_555
Co1 O7 1.885284 1_454
Co1 O2 1.914027 1_555
Co1 O5 1.914027 1_454
Co1 O4 1.916938 1_455
Co1 O3 1.916938 1_554
Co2 O6 1.887027 1_455
Co2 O1 1.887027 1_555
Co2 O5 1.912667 1_455
Co2 O2 1.912667 1_555
Co2 O3 1.916470 1_555
Co2 O4 1.916470 1_455
O0 Ti0 1.970319 1_555
O1 Ti0 1.970058 1_556
O2 Ti0 2.000347 1_565
O5 Ti0 2.000347 1_656
O6 Ti0 1.970058 1_665
O7 Ti0 1.970319 1_666
