# generated using pymatgen
data_TaAlSi(SO6)2
_symmetry_space_group_name_H-M   'P 1'
_cell_length_a   8.62958999
_cell_length_b   8.64886087
_cell_length_c   22.32393104
_cell_angle_alpha   89.54111427
_cell_angle_beta   90.00000000
_cell_angle_gamma   119.92632105
_symmetry_Int_Tables_number   1
_chemical_formula_structural   TaAlSi(SO6)2
_chemical_formula_sum   'Ta6 Al6 Si6 S12 O72'
_cell_volume   1443.95543700
_cell_formula_units_Z   6
loop_
 _symmetry_equiv_pos_site_id
 _symmetry_equiv_pos_as_xyz
  1  'x, y, z'
loop_
 _atom_site_type_symbol
 _atom_site_label
 _atom_site_symmetry_multiplicity
 _atom_site_fract_x
 _atom_site_fract_y
 _atom_site_fract_z
 _atom_site_occupancy
  Ta  Ta0  1  0.00750809  0.01810899  0.64181498  1
  Ta  Ta1  1  0.01060090  0.01810899  0.14181498  1
  Ta  Ta2  1  0.65194196  0.32559836  0.97478717  1
  Ta  Ta3  1  0.67365740  0.32559836  0.47478717  1
  Ta  Ta4  1  0.33550819  0.66971102  0.30851798  1
  Ta  Ta5  1  0.33420183  0.66971102  0.80851798  1
  Al  Al0  1  0.98342382  0.01118738  0.35630240  1
  Al  Al1  1  0.02776356  0.01118738  0.85630240  1
  Al  Al2  1  0.67337086  0.34166017  0.68794386  1
  Al  Al3  1  0.66829032  0.34166017  0.18794386  1
  Al  Al4  1  0.32610434  0.66522230  0.02333685  1
  Al  Al5  1  0.33911696  0.66522230  0.52333685  1
  Si  Si0  1  0.98076392  0.28353648  0.25165447  1
  Si  Si1  1  0.30277256  0.28353648  0.75165447  1
  Si  Si2  1  0.96358957  0.35819682  0.58643604  1
  Si  Si3  1  0.39460825  0.35819682  0.08643604  1
  Si  Si4  1  0.31545431  0.93612972  0.92007760  1
  Si  Si5  1  0.62067441  0.93612972  0.42007760  1
  S  S0  1  0.28722851  0.00867711  0.25164850  1
  S  S1  1  0.72125483  0.71004968  0.25101634  1
  S  S2  1  0.98879485  0.71004968  0.75101634  1
  S  S3  1  0.72144860  0.00867711  0.75164850  1
  S  S4  1  0.38508985  0.04189420  0.58409201  1
  S  S5  1  0.66076298  0.61629429  0.58411820  1
  S  S6  1  0.95553231  0.61629429  0.08411820  1
  S  S7  1  0.65680536  0.04189420  0.08409201  1
  S  S8  1  0.62799526  0.68025736  0.91646476  1
  S  S9  1  0.04978994  0.37503079  0.91774177  1
  S  S10  1  0.32523985  0.37503079  0.41774177  1
  S  S11  1  0.05226111  0.68025736  0.41646476  1
  O  O0  1  0.20140687  0.02746531  0.30490678  1
  O  O1  1  0.82961378  0.79105204  0.30411889  1
  O  O2  1  0.96674902  0.16007546  0.30703528  1
  O  O3  1  0.19332643  0.16007546  0.80703528  1
  O  O4  1  0.96143826  0.79105204  0.80411889  1
  O  O5  1  0.82605844  0.02746531  0.80490678  1
  O  O6  1  0.79643238  0.96748103  0.69696124  1
  O  O7  1  0.16687709  0.19358306  0.69183368  1
  O  O8  1  0.02698207  0.82240932  0.69638986  1
  O  O9  1  0.79542725  0.82240932  0.19638986  1
  O  O10  1  0.02670598  0.19358306  0.19183368  1
  O  O11  1  0.17104865  0.96748103  0.19696124  1
  O  O12  1  0.85657413  0.36826903  0.64305809  1
  O  O13  1  0.49239947  0.12532312  0.63670495  1
  O  O14  1  0.63171053  0.50497358  0.63735029  1
  O  O15  1  0.87326405  0.50497358  0.13735029  1
  O  O16  1  0.63292464  0.12532312  0.13670495  1
  O  O17  1  0.51169590  0.36826903  0.14305809  1
  O  O18  1  0.47912998  0.31011875  0.02654017  1
  O  O19  1  0.84462598  0.53863922  0.02965728  1
  O  O20  1  0.70308354  0.16072524  0.02954376  1
  O  O21  1  0.45764270  0.16072524  0.52954376  1
  O  O22  1  0.69401424  0.53863922  0.52965728  1
  O  O23  1  0.83098977  0.31011875  0.52654017  1
  O  O24  1  0.54490110  0.70124173  0.96977538  1
  O  O25  1  0.16129921  0.45377521  0.97027585  1
  O  O26  1  0.30523947  0.81924697  0.97692176  1
  O  O27  1  0.51400650  0.81924697  0.47692176  1
  O  O28  1  0.29247500  0.45377521  0.47027585  1
  O  O29  1  0.15633963  0.70124173  0.46977538  1
  O  O30  1  0.12470162  0.63324162  0.36251291  1
  O  O31  1  0.49301963  0.85457271  0.35994972  1
  O  O32  1  0.36069185  0.49089498  0.36309582  1
  O  O33  1  0.13020214  0.49089498  0.86309582  1
  O  O34  1  0.36155207  0.85457271  0.85994972  1
  O  O35  1  0.50853900  0.63324162  0.86251291  1
  O  O36  1  0.03429386  0.83590979  0.40380506  1
  O  O37  1  0.81468224  0.96394859  0.40887656  1
  O  O38  1  0.17630760  0.19561650  0.40681206  1
  O  O39  1  0.01930890  0.19561650  0.90681206  1
  O  O40  1  0.14926635  0.96394859  0.90887656  1
  O  O41  1  0.80161593  0.83590979  0.90380506  1
  O  O42  1  0.97039415  0.16809882  0.59265008  1
  O  O43  1  0.19980251  0.01938573  0.59096725  1
  O  O44  1  0.82454953  0.79515425  0.59296159  1
  O  O45  1  0.97060473  0.79515425  0.09296159  1
  O  O46  1  0.81958322  0.01938573  0.09096725  1
  O  O47  1  0.19770467  0.16809882  0.09265008  1
  O  O48  1  0.69706819  0.16098985  0.74137028  1
  O  O49  1  0.49187221  0.30753197  0.73425376  1
  O  O50  1  0.83695223  0.53151530  0.74257586  1
  O  O51  1  0.69456407  0.53151530  0.24257586  1
  O  O52  1  0.81566076  0.30753197  0.23425376  1
  O  O53  1  0.46392266  0.16098985  0.24137028  1
  O  O54  1  0.65174732  0.51809638  0.92395700  1
  O  O55  1  0.87324172  0.36584170  0.92569470  1
  O  O56  1  0.50231195  0.13765154  0.92690021  1
  O  O57  1  0.63534058  0.13765154  0.42690021  1
  O  O58  1  0.49260098  0.36584170  0.42569470  1
  O  O59  1  0.86635006  0.51809638  0.42395700  1
  O  O60  1  0.36063111  0.51701499  0.06919574  1
  O  O61  1  0.13356359  0.63853103  0.07552079  1
  O  O62  1  0.50342461  0.86613276  0.07424564  1
  O  O63  1  0.36270714  0.86613276  0.57424564  1
  O  O64  1  0.50496644  0.63853103  0.57552079  1
  O  O65  1  0.15638288  0.51701499  0.56919574  1
  O  O66  1  0.30311998  0.84215874  0.25750702  1
  O  O67  1  0.53761726  0.69228688  0.25856573  1
  O  O68  1  0.16422637  0.47949213  0.26155599  1
  O  O69  1  0.31526476  0.47949213  0.76155599  1
  O  O70  1  0.15466862  0.69228688  0.75856573  1
  O  O71  1  0.53903777  0.84215874  0.75750702  1
loop_
_geom_bond_atom_site_label_1
_geom_bond_atom_site_label_2
_geom_bond_distance
_geom_bond_site_symmetry_2
Al0 O2 1.746639 1_555
Al0 O37 1.750299 1_545
Al0 O38 1.991488 1_655
Al0 O36 2.062430 1_645
Al0 O1 2.063449 1_545
Al0 O0 2.146616 1_655
Al1 O3 1.746639 1_555
Al1 O40 1.750299 1_545
Al1 O39 1.991488 1_555
Al1 O41 2.062430 1_445
Al1 O4 2.063449 1_445
Al1 O5 2.146616 1_455
Al2 O49 1.772824 1_555
Al2 O12 1.785991 1_555
Al2 O14 1.970051 1_555
Al2 O50 1.973754 1_555
Al2 O48 2.048170 1_555
Al2 O13 2.089728 1_555
Al3 O52 1.772824 1_555
Al3 O17 1.785991 1_555
Al3 O15 1.970051 1_555
Al3 O51 1.973754 1_555
Al3 O53 2.048170 1_555
Al3 O16 2.089728 1_555
Al4 O26 1.760076 1_554
Al4 O60 1.771995 1_555
Al4 O61 1.945282 1_555
Al4 O62 2.007769 1_555
Al4 O25 2.051779 1_554
Al4 O24 2.121065 1_554
Al5 O27 1.760076 1_555
Al5 O65 1.771995 1_555
Al5 O64 1.945282 1_555
Al5 O63 2.007769 1_555
Al5 O28 2.051779 1_555
Al5 O29 2.121065 1_555
O0 S0 1.453148 1_555
O1 S1 1.459512 1_555
O2 Si0 1.591634 1_555
O3 Si1 1.591634 1_555
O4 S2 1.459512 1_555
O5 S3 1.453148 1_555
O6 S3 1.507682 1_565
O6 Ta0 2.054435 1_665
O7 Si1 1.694179 1_555
O7 Ta0 1.840135 1_555
O8 S2 1.483770 1_455
O8 Ta0 2.151316 1_565
O9 S1 1.483770 1_555
O9 Ta1 2.151316 1_665
O10 Si0 1.694179 1_455
O10 Ta1 1.840135 1_555
O11 S0 1.507682 1_565
O11 Ta1 2.054435 1_565
O12 Si2 1.593812 1_555
O13 S4 1.450719 1_555
O14 S5 1.463843 1_555
O15 S6 1.463843 1_555
O16 S7 1.450719 1_555
O17 Si3 1.593812 1_555
O18 Si3 1.674606 1_555
O18 Ta2 1.837114 1_554
O19 S6 1.488931 1_555
O19 Ta2 2.153950 1_554
O20 S7 1.506339 1_555
O20 Ta2 2.079030 1_554
O21 S4 1.506339 1_555
O21 Ta3 2.079030 1_555
O22 S5 1.488931 1_555
O22 Ta3 2.153950 1_555
O23 Si2 1.674606 1_555
O23 Ta3 1.837114 1_555
O24 S8 1.448027 1_555
O25 S9 1.457425 1_555
O26 Si4 1.590773 1_555
O27 Si5 1.590773 1_555
O28 S10 1.457425 1_555
O29 S11 1.448027 1_555
O30 S11 1.506067 1_555
O30 Ta4 2.069592 1_555
O31 Si5 1.659123 1_555
O31 Ta4 1.892923 1_555
O32 S10 1.503496 1_555
O32 Ta4 2.056384 1_555
O33 S9 1.503496 1_555
O33 Ta5 2.056384 1_555
O34 Si4 1.659123 1_555
O34 Ta5 1.892923 1_555
O35 S8 1.506067 1_555
O35 Ta5 2.069592 1_555
O36 S11 1.455466 1_555
O37 Si5 1.587610 1_555
O38 S10 1.461296 1_555
O39 S9 1.461299 1_555
O40 Si4 1.587601 1_555
O41 S8 1.455471 1_555
O42 Si2 1.678849 1_555
O42 Ta0 1.838962 1_655
O43 S4 1.518898 1_555
O43 Ta0 2.005946 1_555
O44 S5 1.501007 1_555
O44 Ta0 2.096785 1_665
O45 S6 1.501010 1_555
O45 Ta1 2.096785 1_665
O46 S7 1.518889 1_555
O46 Ta1 2.005946 1_655
O47 Si3 1.678854 1_555
O47 Ta1 1.838962 1_555
O48 S3 1.450508 1_555
O49 Si1 1.586728 1_555
O50 S2 1.456930 1_555
O51 S1 1.456933 1_555
O52 Si0 1.586720 1_555
O53 S0 1.450513 1_555
O54 S8 1.523184 1_555
O54 Ta2 2.007983 1_555
O55 S9 1.495984 1_655
O55 Ta2 2.073632 1_555
O56 Si4 1.691512 1_545
O56 Ta2 1.840115 1_555
O57 Si5 1.691505 1_545
O57 Ta3 1.840115 1_555
O58 S10 1.496001 1_555
O58 Ta3 2.073632 1_555
O59 S11 1.523174 1_655
O59 Ta3 2.007983 1_555
O60 Si3 1.585638 1_555
O61 S6 1.462447 1_455
O62 S7 1.452186 1_565
O63 S4 1.452180 1_565
O64 S5 1.462464 1_555
O65 Si2 1.585628 1_455
O66 S0 1.517932 1_565
O66 Ta4 1.997032 1_555
O67 S1 1.523156 1_555
O67 Ta4 1.995072 1_555
O68 Si0 1.660270 1_455
O68 Ta4 1.895199 1_555
O69 Si1 1.660274 1_555
O69 Ta5 1.895199 1_555
O70 S2 1.523147 1_455
O70 Ta5 1.995072 1_555
O71 S3 1.517937 1_565
O71 Ta5 1.997032 1_555
