# generated using pymatgen
data_MgFe8(OF)8
_symmetry_space_group_name_H-M   'P 1'
_cell_length_a   9.60800587
_cell_length_b   9.79326838
_cell_length_c   3.08319028
_cell_angle_alpha   89.71442442
_cell_angle_beta   90.25145722
_cell_angle_gamma   90.09102735
_symmetry_Int_Tables_number   1
_chemical_formula_structural   MgFe8(OF)8
_chemical_formula_sum   'Mg1 Fe8 O8 F8'
_cell_volume   290.10227446
_cell_formula_units_Z   1
loop_
 _symmetry_equiv_pos_site_id
 _symmetry_equiv_pos_as_xyz
  1  'x, y, z'
loop_
 _atom_site_type_symbol
 _atom_site_label
 _atom_site_symmetry_multiplicity
 _atom_site_fract_x
 _atom_site_fract_y
 _atom_site_fract_z
 _atom_site_occupancy
  Mg  Mg0  1  0.75280600  0.49821800  0.03511000  1
  Fe  Fe0  1  0.02517800  0.99835800  0.00121700  1
  Fe  Fe1  1  0.02913000  0.49720100  0.98155600  1
  Fe  Fe2  1  0.22539000  0.24595500  0.49657600  1
  Fe  Fe3  1  0.22348300  0.74681300  0.49530600  1
  Fe  Fe4  1  0.48860700  0.50229900  0.00337500  1
  Fe  Fe5  1  0.49312300  0.00017500  0.00723900  1
  Fe  Fe6  1  0.75952400  0.25353200  0.52386400  1
  Fe  Fe7  1  0.74787000  0.74747700  0.52468600  1
  O  O0  1  0.11250400  0.40797700  0.48831000  1
  O  O1  1  0.10090200  0.90529300  0.50242300  1
  O  O2  1  0.14581600  0.15320100  0.99783200  1
  O  O3  1  0.14490500  0.65748800  0.99622300  1
  O  O4  1  0.62777600  0.41267800  0.52104500  1
  O  O5  1  0.64672100  0.67023500  0.02308700  1
  O  O6  1  0.86118300  0.32801600  0.02136500  1
  O  O7  1  0.88003700  0.58203000  0.53277000  1
  F  F0  1  0.35007700  0.33780000  0.99666600  1
  F  F1  1  0.34673400  0.84560700  0.99790000  1
  F  F2  1  0.39274700  0.10688300  0.50340400  1
  F  F3  1  0.38597000  0.60867500  0.49795700  1
  F  F4  1  0.61011500  0.90977600  0.51198300  1
  F  F5  1  0.65172900  0.14919100  0.01871900  1
  F  F6  1  0.85199300  0.85173400  0.01753700  1
  F  F7  1  0.89568200  0.08338800  0.51218300  1
loop_
_geom_bond_atom_site_label_1
_geom_bond_atom_site_label_2
_geom_bond_distance
_geom_bond_site_symmetry_2
Mg0 O6 1.967490 1_555
Mg0 O5 1.970453 1_555
Mg0 O4 2.095148 1_555
Mg0 O7 2.124918 1_555
Mg0 O7 2.137200 1_554
Mg0 O4 2.156453 1_554
Fe0 O2 1.907221 1_564
Fe0 O1 1.930337 1_555
Fe0 O1 1.936743 1_554
Fe1 O3 1.923067 1_555
Fe1 O0 1.934973 1_555
Fe1 O0 1.955503 1_556
Fe1 O7 2.152138 1_455
Fe1 O6 2.314159 1_456
Fe1 O7 2.381110 1_456
Fe2 O0 1.923420 1_555
Fe2 O2 1.943103 1_554
Fe2 O2 1.947383 1_555
Fe3 O3 1.924621 1_554
Fe3 O3 1.927472 1_555
Fe3 O1 1.950075 1_555
Fe4 O4 2.191795 1_554
Fe4 O5 2.237998 1_555
Fe4 O4 2.253164 1_555
Fe6 O6 1.958230 1_556
Fe6 O6 1.971342 1_555
Fe6 O4 2.009368 1_555
Fe7 O5 1.969065 1_556
Fe7 O5 1.975997 1_555
Fe7 O7 2.060168 1_555
F0 Fe4 2.088187 1_556
F0 Fe2 2.148437 1_555
F0 Fe2 2.149150 1_556
F1 Fe5 2.064890 1_566
F1 Fe3 2.165142 1_556
F1 Fe3 2.175970 1_555
F2 Fe5 2.096294 1_555
F2 Fe5 2.099795 1_556
F2 Fe2 2.108871 1_555
F3 Fe3 2.067355 1_555
F3 Fe4 2.101271 1_555
F3 Fe4 2.111786 1_556
F4 Fe7 2.070083 1_555
F4 Fe5 2.100144 1_566
F4 Fe5 2.107883 1_565
F5 Fe6 2.107046 1_554
F5 Fe5 2.108595 1_555
F5 Fe6 2.130924 1_555
F6 Fe7 2.085959 1_554
F6 Fe7 2.117271 1_555
F6 Fe0 2.196728 1_655
F7 Fe0 2.118768 1_646
F7 Fe6 2.120632 1_555
F7 Fe0 2.181039 1_645
