# generated using pymatgen
data_PuTcB2
_symmetry_space_group_name_H-M   'P 1'
_cell_length_a   5.32565850
_cell_length_b   5.89194230
_cell_length_c   6.44335849
_cell_angle_alpha   90.00086472
_cell_angle_beta   90.00028643
_cell_angle_gamma   90.26463509
_symmetry_Int_Tables_number   1
_chemical_formula_structural   PuTcB2
_chemical_formula_sum   'Pu4 Tc4 B8'
_cell_volume   202.18059144
_cell_formula_units_Z   4
loop_
 _symmetry_equiv_pos_site_id
 _symmetry_equiv_pos_as_xyz
  1  'x, y, z'
loop_
 _atom_site_type_symbol
 _atom_site_label
 _atom_site_symmetry_multiplicity
 _atom_site_fract_x
 _atom_site_fract_y
 _atom_site_fract_z
 _atom_site_occupancy
  Pu  Pu0  1  0.24483875  0.00369344  0.34251119  1
  Pu  Pu1  1  0.24483878  0.50369918  0.15745454  1
  Pu  Pu2  1  0.75516667  -0.00369572  0.65750454  1
  Pu  Pu3  1  0.75516441  0.49629448  0.84253618  1
  Tc  Tc0  1  0.25059095  0.18410219  0.81140475  1
  Tc  Tc1  1  0.25059906  0.68408218  0.68864423  1
  Tc  Tc2  1  0.74940656  0.81589455  0.18858044  1
  Tc  Tc3  1  0.74939827  0.31591198  0.31137314  1
  B  B0  1  0.07990961  0.37188093  0.53736988  1
  B  B1  1  0.41677679  0.87265371  0.96377055  1
  B  B2  1  0.58323502  0.62734561  0.46378651  1
  B  B3  1  0.92007627  0.12813170  0.03734882  1
  B  B4  1  0.92007744  0.62812302  0.46264599  1
  B  B5  1  0.58323747  0.12735009  0.03620840  1
  B  B6  1  0.41677636  0.37266031  0.53623034  1
  B  B7  1  0.07990759  0.87187235  0.96263047  1
loop_
_geom_bond_atom_site_label_1
_geom_bond_atom_site_label_2
_geom_bond_distance
_geom_bond_site_symmetry_2
Pu0 Tc1 2.919219 1_545
Pu1 Tc0 2.918711 1_554
Pu2 Tc3 2.919198 1_555
Pu3 Tc2 2.918696 1_556
B0 B6 1.794037 1_555
B0 B4 1.802124 1_455
B0 Tc1 2.268162 1_555
B0 Tc0 2.275388 1_555
B0 Tc3 2.306961 1_455
B0 Pu0 2.659223 1_555
B0 Pu1 2.713091 1_555
B0 Pu3 2.721484 1_455
B0 Pu2 2.907195 1_455
B1 B7 1.794050 1_555
B1 B5 1.800947 1_566
B1 Tc0 2.264850 1_565
B1 Tc1 2.269606 1_555
B1 Tc2 2.313797 1_556
B1 Pu1 2.665199 1_556
B1 Pu0 2.719640 1_566
B1 Pu2 2.767797 1_565
B1 Pu3 2.968506 1_555
B2 B4 1.793907 1_555
B2 B6 1.800911 1_555
B2 Tc3 2.264845 1_555
B2 Tc2 2.269963 1_555
B2 Tc1 2.314000 1_555
B2 Pu2 2.665275 1_565
B2 Pu3 2.719709 1_555
B2 Pu1 2.768087 1_555
B2 Pu0 2.968566 1_565
B3 B5 1.793888 1_555
B3 B7 1.802188 1_644
B3 Tc2 2.268201 1_545
B3 Tc3 2.275314 1_555
B3 Tc0 2.306779 1_654
B3 Pu3 2.658960 1_554
B3 Pu2 2.712630 1_554
B3 Pu0 2.721567 1_655
B3 Pu1 2.907144 1_655
B4 Tc3 2.268183 1_555
B4 Tc2 2.275498 1_555
B4 Tc1 2.307001 1_655
B4 Pu2 2.659160 1_565
B4 Pu3 2.712934 1_555
B4 Pu1 2.721672 1_655
B4 Pu0 2.907226 1_665
B5 Tc2 2.264866 1_545
B5 Tc3 2.269737 1_555
B5 Tc0 2.313834 1_554
B5 Pu3 2.665095 1_554
B5 Pu2 2.719422 1_554
B5 Pu0 2.768006 1_555
B5 Pu1 2.968517 1_555
B6 Tc1 2.264819 1_555
B6 Tc0 2.269859 1_555
B6 Tc3 2.313951 1_555
B6 Pu0 2.665329 1_555
B6 Pu1 2.719854 1_555
B6 Pu3 2.767920 1_555
B6 Pu2 2.968581 1_555
B7 Tc0 2.268178 1_565
B7 Tc1 2.275181 1_555
B7 Tc2 2.306753 1_456
B7 Pu1 2.659079 1_556
B7 Pu0 2.712869 1_566
B7 Pu2 2.721314 1_465
B7 Pu3 2.907110 1_455
