# generated using pymatgen
data_NaMgFeO2
_symmetry_space_group_name_H-M   'P 1'
_cell_length_a   3.18680098
_cell_length_b   3.18680098
_cell_length_c   8.17023258
_cell_angle_alpha   80.35488077
_cell_angle_beta   80.35488077
_cell_angle_gamma   60.08283831
_symmetry_Int_Tables_number   1
_chemical_formula_structural   NaMgFeO2
_chemical_formula_sum   'Na1 Mg1 Fe1 O2'
_cell_volume   70.55800493
_cell_formula_units_Z   1
loop_
 _symmetry_equiv_pos_site_id
 _symmetry_equiv_pos_as_xyz
  1  'x, y, z'
loop_
 _atom_site_type_symbol
 _atom_site_label
 _atom_site_symmetry_multiplicity
 _atom_site_fract_x
 _atom_site_fract_y
 _atom_site_fract_z
 _atom_site_occupancy
  Na  Na0  1  0.53111572  0.53111572  0.41282071  1
  Mg  Mg0  1  0.10694956  0.10694956  0.71921527  1
  Fe  Fe0  1  0.95343310  0.95343310  0.09960649  1
  O  O0  1  0.25468721  0.25468721  0.21408863  1
  O  O1  1  0.79964742  0.79964742  0.62569790  1
loop_
_geom_bond_atom_site_label_1
_geom_bond_atom_site_label_2
_geom_bond_distance
_geom_bond_site_symmetry_2
Na0 O0 2.433327 1_555
Na0 O0 2.434739 1_655
Na0 O0 2.434739 1_565
Na0 O1 2.493516 1_555
Na0 O1 2.518229 1_455
Na0 O1 2.518229 1_545
Mg0 O1 1.986201 1_455
Mg0 O1 1.986201 1_545
Mg0 O1 1.989974 1_445
Fe0 O0 2.055621 1_655
Fe0 O0 2.055621 1_565
Fe0 O0 2.058974 1_665
