# generated using pymatgen
data_KPHNO2
_symmetry_space_group_name_H-M   'P 1'
_cell_length_a   8.19564146
_cell_length_b   8.19564146
_cell_length_c   8.19564131
_cell_angle_alpha   103.79679051
_cell_angle_beta   103.79679051
_cell_angle_gamma   103.79679829
_symmetry_Int_Tables_number   1
_chemical_formula_structural   KPHNO2
_chemical_formula_sum   'K6 P6 H6 N6 O12'
_cell_volume   493.06675907
_cell_formula_units_Z   6
loop_
 _symmetry_equiv_pos_site_id
 _symmetry_equiv_pos_as_xyz
  1  'x, y, z'
loop_
 _atom_site_type_symbol
 _atom_site_label
 _atom_site_symmetry_multiplicity
 _atom_site_fract_x
 _atom_site_fract_y
 _atom_site_fract_z
 _atom_site_occupancy
  K  K0  1  0.31473100  0.12829900  0.82688000  1
  K  K1  1  0.12829900  0.82688000  0.31473100  1
  K  K2  1  0.82688000  0.31473100  0.12829900  1
  K  K3  1  0.68526900  0.87170100  0.17312000  1
  K  K4  1  0.87170100  0.17312000  0.68526900  1
  K  K5  1  0.17312000  0.68526900  0.87170100  1
  P  P0  1  0.55243900  0.81994400  0.72138500  1
  P  P1  1  0.81994400  0.72138500  0.55243900  1
  P  P2  1  0.72138500  0.55243900  0.81994400  1
  P  P3  1  0.44756100  0.18005600  0.27861500  1
  P  P4  1  0.18005600  0.27861500  0.44756100  1
  P  P5  1  0.27861500  0.44756100  0.18005600  1
  H  H0  1  0.45838100  0.26186500  0.56853800  1
  H  H1  1  0.26186500  0.56853800  0.45838100  1
  H  H2  1  0.56853800  0.45838100  0.26186500  1
  H  H3  1  0.54161900  0.73813500  0.43146200  1
  H  H4  1  0.73813500  0.43146200  0.54161900  1
  H  H5  1  0.43146200  0.54161900  0.73813500  1
  N  N0  1  0.35900200  0.20558200  0.44774800  1
  N  N1  1  0.20558200  0.44774800  0.35900200  1
  N  N2  1  0.44774800  0.35900200  0.20558200  1
  N  N3  1  0.64099800  0.79441800  0.55225200  1
  N  N4  1  0.79441800  0.55225200  0.64099800  1
  N  N5  1  0.55225200  0.64099800  0.79441800  1
  O  O0  1  0.35914900  0.80164300  0.64068900  1
  O  O1  1  0.64068900  0.35914900  0.80164300  1
  O  O2  1  0.80164300  0.64068900  0.35914900  1
  O  O3  1  0.64085100  0.19835700  0.35931100  1
  O  O4  1  0.35931100  0.64085100  0.19835700  1
  O  O5  1  0.19835700  0.35931100  0.64085100  1
  O  O6  1  0.87076200  0.66856700  0.98483800  1
  O  O7  1  0.98483800  0.87076200  0.66856700  1
  O  O8  1  0.66856700  0.98483800  0.87076200  1
  O  O9  1  0.12923800  0.33143300  0.01516200  1
  O  O10  1  0.01516200  0.12923800  0.33143300  1
  O  O11  1  0.33143300  0.01516200  0.12923800  1
loop_
_geom_bond_atom_site_label_1
_geom_bond_atom_site_label_2
_geom_bond_distance
_geom_bond_site_symmetry_2
K0 O7 2.783376 1_445
K0 O11 2.830852 1_556
K0 O5 2.891915 1_555
K0 O0 2.899918 1_545
K0 O9 2.926530 1_556
K0 O1 2.966207 1_555
K0 N2 3.000087 1_556
K0 O8 3.354358 1_545
K1 O6 2.783376 1_454
K1 O10 2.830852 1_565
K1 O4 2.891915 1_555
K1 O2 2.899918 1_455
K1 O11 2.926529 1_565
K1 O0 2.966207 1_555
K1 N0 3.000087 1_565
K1 O7 3.354358 1_455
K2 O8 2.783376 1_544
K2 O9 2.830852 1_655
K2 O3 2.891915 1_555
K2 O1 2.899918 1_554
K2 O10 2.926530 1_655
K2 O2 2.966207 1_555
K2 N1 3.000087 1_655
K2 O6 3.354358 1_554
K3 O10 2.783376 1_665
K3 O8 2.830852 1_554
K3 O2 2.891915 1_555
K3 O3 2.899918 1_565
K3 O6 2.926530 1_554
K3 O4 2.966207 1_555
K3 N5 3.000087 1_554
K3 O11 3.354358 1_565
K4 O9 2.783376 1_656
K4 O7 2.830852 1_545
K4 O1 2.891915 1_555
K4 O5 2.899918 1_655
K4 O8 2.926529 1_545
K4 O3 2.966207 1_555
K4 N3 3.000087 1_545
K4 O10 3.354358 1_655
K5 O11 2.783376 1_566
K5 O6 2.830852 1_455
K5 O0 2.891915 1_555
K5 O4 2.899918 1_556
K5 O7 2.926530 1_455
K5 O5 2.966207 1_555
K5 N4 3.000087 1_455
K5 O9 3.354358 1_556
H0 N0 1.036625 1_555
H0 K0 2.957509 1_555
H1 N1 1.036625 1_555
H1 K1 2.957509 1_555
H2 N2 1.036625 1_555
H2 K2 2.957509 1_555
H3 N3 1.036625 1_555
H3 K3 2.957509 1_555
H4 N4 1.036625 1_555
H4 K4 2.957509 1_555
H5 N5 1.036625 1_555
H5 K5 2.957509 1_555
N0 P3 1.704679 1_555
N0 P4 1.710896 1_555
N1 P4 1.704679 1_555
N1 P5 1.710896 1_555
N2 P5 1.704679 1_555
N2 P3 1.710896 1_555
N3 P0 1.704679 1_555
N3 P1 1.710896 1_555
N4 P1 1.704679 1_555
N4 P2 1.710896 1_555
N5 P2 1.704679 1_555
N5 P0 1.710896 1_555
O0 P0 1.519551 1_555
O1 P2 1.519551 1_555
O2 P1 1.519551 1_555
O3 P3 1.519551 1_555
O4 P5 1.519551 1_555
O5 P4 1.519551 1_555
O6 P2 1.507512 1_555
O7 P1 1.507512 1_555
O8 P0 1.507512 1_555
O9 P5 1.507512 1_555
O10 P4 1.507512 1_555
O11 P3 1.507512 1_555
