# generated using pymatgen
data_Na4Mg3GeP2(SO6)4
_symmetry_space_group_name_H-M   'P 1'
_cell_length_a   8.74152609
_cell_length_b   8.70992113
_cell_length_c   22.16238821
_cell_angle_alpha   90.56059010
_cell_angle_beta   89.97280857
_cell_angle_gamma   119.96698827
_symmetry_Int_Tables_number   1
_chemical_formula_structural   Na4Mg3GeP2(SO6)4
_chemical_formula_sum   'Na12 Mg9 Ge3 P6 S12 O72'
_cell_volume   1461.72818011
_cell_formula_units_Z   3
loop_
 _symmetry_equiv_pos_site_id
 _symmetry_equiv_pos_as_xyz
  1  'x, y, z'
loop_
 _atom_site_type_symbol
 _atom_site_label
 _atom_site_symmetry_multiplicity
 _atom_site_fract_x
 _atom_site_fract_y
 _atom_site_fract_z
 _atom_site_occupancy
  Na  Na0  1  0.63487132  0.99839183  0.25423128  1
  Na  Na1  1  0.36303685  0.36271696  0.25079516  1
  Na  Na2  1  0.30603917  0.33851837  0.59020700  1
  Na  Na3  1  0.66654129  0.95816930  0.58275574  1
  Na  Na4  1  0.97506359  0.67552852  0.91370907  1
  Na  Na5  1  0.32632352  0.29853594  0.91127549  1
  Na  Na6  1  0.98834857  0.98289875  0.49695561  1
  Na  Na7  1  0.99036589  0.00155737  0.99734711  1
  Na  Na8  1  0.66062212  0.32408590  0.82680888  1
  Na  Na9  1  0.67664696  0.33758802  0.33736977  1
  Na  Na10  1  0.32236025  0.66588148  0.16217090  1
  Na  Na11  1  0.32936596  0.66261573  0.67123572  1
  Mg  Mg0  1  0.99407118  0.99748086  0.35534034  1
  Mg  Mg1  1  0.99862526  0.00427120  0.84973876  1
  Mg  Mg2  1  0.99987632  0.99286656  0.65423983  1
  Mg  Mg3  1  0.99959057  0.99757653  0.14523143  1
  Mg  Mg4  1  0.66147672  0.34004304  0.68914244  1
  Mg  Mg5  1  0.67327780  0.33912776  0.18253948  1
  Mg  Mg6  1  0.33533735  0.66787552  0.01738297  1
  Mg  Mg7  1  0.33812311  0.67115978  0.51503849  1
  Mg  Mg8  1  0.33226107  0.67556718  0.32258120  1
  Ge  Ge0  1  0.66774575  0.32812381  0.97772001  1
  Ge  Ge1  1  0.67185293  0.33755016  0.48155436  1
  Ge  Ge2  1  0.33270687  0.65818024  0.81819806  1
  P  P0  1  0.29543437  0.30034420  0.75230424  1
  P  P1  1  0.66943151  0.62158433  0.58212476  1
  P  P2  1  0.62495195  0.66877226  0.91947335  1
  P  P3  1  0.04089993  0.37512294  0.91894240  1
  P  P4  1  0.33767224  0.95403808  0.91780145  1
  P  P5  1  0.63274666  0.97204889  0.41932315  1
  S  S0  1  0.28892603  0.99651462  0.24951238  1
  S  S1  1  0.70882113  0.70646346  0.24977059  1
  S  S2  1  0.00171266  0.29482272  0.24989434  1
  S  S3  1  0.00697718  0.70483914  0.75263361  1
  S  S4  1  0.69918080  0.99533866  0.75071066  1
  S  S5  1  0.95656263  0.33705571  0.58339240  1
  S  S6  1  0.37674691  0.04330663  0.58281417  1
  S  S7  1  0.95741983  0.62291498  0.08216496  1
  S  S8  1  0.66590015  0.04303265  0.08322586  1
  S  S9  1  0.37611236  0.33367863  0.08314430  1
  S  S10  1  0.33669574  0.37012198  0.41743184  1
  S  S11  1  0.03569432  0.66305016  0.41852057  1
  O  O0  1  0.21010771  0.02924758  0.30331930  1
  O  O1  1  0.81460273  0.78791708  0.30413188  1
  O  O2  1  0.97113093  0.18274596  0.30312629  1
  O  O3  1  0.20836764  0.19252961  0.80859259  1
  O  O4  1  0.98067847  0.78423783  0.80786346  1
  O  O5  1  0.80776480  0.01804475  0.80366767  1
  O  O6  1  0.77126205  0.96327245  0.69387401  1
  O  O7  1  0.18716955  0.22542156  0.69307090  1
  O  O8  1  0.03485316  0.81241312  0.69857590  1
  O  O9  1  0.78705875  0.81698300  0.19589709  1
  O  O10  1  0.03216096  0.21369717  0.19536917  1
  O  O11  1  0.18498063  0.97407918  0.19466342  1
  O  O12  1  0.87279553  0.35973719  0.63640633  1
  O  O13  1  0.49176378  0.12362958  0.63527820  1
  O  O14  1  0.63338522  0.50009420  0.63483055  1
  O  O15  1  0.87157854  0.51403967  0.13502807  1
  O  O16  1  0.64351601  0.12509685  0.13877596  1
  O  O17  1  0.48188427  0.35616070  0.13806937  1
  O  O18  1  0.46093479  0.30396636  0.02669926  1
  O  O19  1  0.84460476  0.54001620  0.02467180  1
  O  O20  1  0.69697454  0.16050961  0.02818838  1
  O  O21  1  0.45740176  0.16019466  0.52708832  1
  O  O22  1  0.70025232  0.53385522  0.52226403  1
  O  O23  1  0.83937233  0.29687975  0.52687889  1
  O  O24  1  0.54389822  0.69469034  0.97528048  1
  O  O25  1  0.15515065  0.45764204  0.97395816  1
  O  O26  1  0.30250102  0.84235088  0.97303342  1
  O  O27  1  0.54558540  0.86279716  0.47536316  1
  O  O28  1  0.31119857  0.45210965  0.47185978  1
  O  O29  1  0.13989024  0.68438834  0.47262679  1
  O  O30  1  0.10879819  0.62864397  0.36347849  1
  O  O31  1  0.52370494  0.89896571  0.36036061  1
  O  O32  1  0.36464851  0.47621658  0.36219562  1
  O  O33  1  0.11876539  0.50183197  0.86221059  1
  O  O34  1  0.37372882  0.87125453  0.85966546  1
  O  O35  1  0.49940285  0.61937642  0.86207904  1
  O  O36  1  0.01436995  0.81932572  0.41211815  1
  O  O37  1  0.81824916  0.99719298  0.41299244  1
  O  O38  1  0.18375883  0.19093630  0.41086576  1
  O  O39  1  0.01614690  0.19122873  0.90950693  1
  O  O40  1  0.17995210  0.98424475  0.90907050  1
  O  O41  1  0.81244182  0.81970047  0.90920923  1
  O  O42  1  0.97526546  0.17540003  0.58606956  1
  O  O43  1  0.20218746  0.03126362  0.58783258  1
  O  O44  1  0.83197676  0.80943897  0.58605280  1
  O  O45  1  0.97149261  0.79893942  0.08614290  1
  O  O46  1  0.82666996  0.02778406  0.08655311  1
  O  O47  1  0.20035787  0.17242026  0.08631350  1
  O  O48  1  0.67949135  0.15305085  0.74442720  1
  O  O49  1  0.48102287  0.32505416  0.74720662  1
  O  O50  1  0.85408556  0.52507504  0.74582718  1
  O  O51  1  0.68212173  0.52386865  0.24348615  1
  O  O52  1  0.84015180  0.31092941  0.24346829  1
  O  O53  1  0.47201483  0.15909483  0.24445311  1
  O  O54  1  0.63975672  0.48907645  0.92438126  1
  O  O55  1  0.85213919  0.36406971  0.92456640  1
  O  O56  1  0.50792658  0.14941765  0.92403964  1
  O  O57  1  0.64651492  0.16438024  0.42662585  1
  O  O58  1  0.50424356  0.35735251  0.42285586  1
  O  O59  1  0.85182581  0.49641640  0.42330538  1
  O  O60  1  0.36123801  0.49389029  0.07799730  1
  O  O61  1  0.13225521  0.63905044  0.07670774  1
  O  O62  1  0.50633097  0.86874701  0.07698028  1
  O  O63  1  0.35662014  0.86551597  0.57460613  1
  O  O64  1  0.50095972  0.63960238  0.57470038  1
  O  O65  1  0.13409230  0.49331044  0.57500962  1
  O  O66  1  0.31431745  0.84003813  0.25467834  1
  O  O67  1  0.52623068  0.68509752  0.25536410  1
  O  O68  1  0.16283243  0.47293390  0.25705929  1
  O  O69  1  0.30939654  0.49312084  0.75915880  1
  O  O70  1  0.17564674  0.69363089  0.75820026  1
  O  O71  1  0.51702519  0.82970321  0.75697081  1
loop_
_geom_bond_atom_site_label_1
_geom_bond_atom_site_label_2
_geom_bond_distance
_geom_bond_site_symmetry_2
Na0 O67 2.400238 1_555
Na0 O52 2.412380 1_565
Na0 O66 2.427678 1_555
Na0 O53 2.455548 1_565
Na0 O31 2.534469 1_555
Na0 O2 2.765246 1_565
Na0 O16 2.782564 1_565
Na0 O9 2.827744 1_555
Na1 O68 2.383107 1_555
Na1 O53 2.399067 1_555
Na1 O51 2.422673 1_555
Na1 O67 2.433640 1_555
Na1 O32 2.647887 1_555
Na1 O17 2.716242 1_555
Na1 O0 2.786390 1_555
Na1 O10 2.789463 1_555
Na2 O64 2.334879 1_555
Na2 O43 2.357753 1_555
Na2 O65 2.494841 1_555
Na2 O7 2.503257 1_555
Na2 O42 2.506246 1_455
Na2 O14 2.664437 1_555
Na2 O28 2.804703 1_555
Na2 O21 2.851080 1_555
Na3 O44 2.376622 1_555
Na3 O42 2.401001 1_565
Na3 O64 2.409198 1_555
Na3 O63 2.415994 1_555
Na3 O27 2.561060 1_555
Na3 O6 2.619913 1_555
Na3 O13 2.816238 1_565
Na3 O23 2.852453 1_565
Na4 O41 2.322398 1_555
Na4 O40 2.375430 1_655
Na4 O55 2.381630 1_555
Na4 O4 2.529545 1_555
Na4 O54 2.556587 1_555
Na4 O33 2.651946 1_655
Na4 O19 2.729608 1_556
Na4 O26 2.800718 1_655
Na5 O40 2.373081 1_545
Na5 O39 2.386333 1_555
Na5 O54 2.407145 1_555
Na5 O3 2.470733 1_555
Na5 O56 2.520803 1_555
Na5 O35 2.668586 1_555
Na5 O18 2.806327 1_556
Na5 O25 2.849762 1_555
Na6 O37 2.425124 1_555
Na6 O36 2.426441 1_655
Na6 O44 2.458218 1_555
Na6 O38 2.610351 1_665
Na6 O42 2.617517 1_565
Na6 O43 2.632180 1_665
Na7 O41 2.494946 1_545
Na7 O39 2.502074 1_655
Na7 O46 2.514644 1_556
Na7 O47 2.586294 1_656
Na7 O45 2.605995 1_546
Na7 O40 2.614895 1_645
Na8 O49 2.365026 1_555
Na8 O48 2.402465 1_555
Na8 O50 2.499352 1_555
Na8 O56 2.602379 1_555
Na8 O54 2.641060 1_555
Na8 O55 2.650319 1_555
Na9 O59 2.391840 1_555
Na9 O57 2.432950 1_555
Na9 O58 2.477982 1_555
Na9 O52 2.597483 1_555
Na9 O51 2.636742 1_555
Na9 O53 2.649519 1_555
Na10 O61 2.451544 1_555
Na10 O60 2.508575 1_555
Na10 O62 2.548854 1_555
Na10 O66 2.560217 1_555
Na10 O68 2.629926 1_555
Na10 O67 2.677423 1_555
Na11 O69 2.409440 1_555
Na11 O70 2.437878 1_555
Na11 O71 2.446058 1_555
Na11 O65 2.657742 1_555
Na11 O64 2.675134 1_555
Na11 O63 2.723799 1_555
Mg0 O37 1.997277 1_555
Mg0 O1 2.044833 1_555
Mg0 O38 2.067161 1_665
Mg0 O36 2.082354 1_655
Mg0 O2 2.084028 1_565
Mg0 O0 2.110528 1_665
Mg1 O3 1.976395 1_655
Mg1 O5 2.011092 1_555
Mg1 O39 2.034330 1_655
Mg1 O4 2.055175 1_545
Mg1 O41 2.096661 1_545
Mg1 O40 2.134152 1_645
Mg2 O8 2.009953 1_655
Mg2 O7 2.044064 1_665
Mg2 O6 2.078441 1_555
Mg2 O44 2.145374 1_555
Mg2 O43 2.195859 1_665
Mg2 O42 2.290302 1_565
Mg3 O11 2.050806 1_655
Mg3 O10 2.069573 1_665
Mg3 O9 2.073602 1_555
Mg3 O45 2.073637 1_555
Mg3 O46 2.109781 1_565
Mg3 O47 2.114467 1_665
Mg4 O14 1.956418 1_555
Mg4 O49 1.989210 1_555
Mg4 O50 2.064455 1_555
Mg4 O13 2.083994 1_555
Mg4 O48 2.115205 1_555
Mg4 O12 2.119687 1_555
Mg5 O15 1.956012 1_555
Mg5 O16 1.990970 1_555
Mg5 O17 2.011194 1_555
Mg5 O51 2.062247 1_555
Mg5 O52 2.092340 1_555
Mg5 O53 2.172726 1_555
Mg6 O26 1.955280 1_554
Mg6 O24 1.956098 1_554
Mg6 O25 1.961068 1_554
Mg6 O62 2.093785 1_555
Mg6 O61 2.121831 1_555
Mg6 O60 2.129598 1_555
Mg7 O27 1.962474 1_555
Mg7 O29 2.025511 1_555
Mg7 O28 2.031537 1_555
Mg7 O64 2.061513 1_555
Mg7 O63 2.077898 1_555
Mg7 O65 2.150604 1_555
Mg8 O31 2.001041 1_555
Mg8 O30 2.003090 1_555
Mg8 O32 2.094503 1_555
Mg8 O66 2.146699 1_555
Mg8 O68 2.181214 1_555
Mg8 O67 2.227221 1_555
Ge0 O56 1.892839 1_555
Ge0 O55 1.893450 1_555
Ge0 O54 1.948818 1_555
Ge0 O20 1.962782 1_556
Ge0 O19 1.998143 1_556
Ge0 O18 2.028170 1_556
Ge1 O22 1.828946 1_555
Ge1 O57 1.853789 1_555
Ge1 O23 1.950762 1_555
Ge1 O59 1.978521 1_555
Ge1 O21 2.013610 1_555
Ge1 O58 2.031610 1_555
Ge2 O69 1.868476 1_555
Ge2 O35 1.919152 1_555
Ge2 O34 1.928601 1_555
Ge2 O33 1.945118 1_555
Ge2 O70 2.044915 1_555
Ge2 O71 2.074158 1_555
O0 S0 1.472015 1_545
O1 S1 1.462473 1_555
O2 S2 1.475713 1_655
O3 P0 1.524905 1_555
O4 S3 1.473544 1_655
O5 S4 1.458259 1_545
O6 S4 1.493280 1_555
O7 P0 1.553151 1_555
O8 S3 1.471799 1_555
O9 S1 1.477819 1_555
O10 S2 1.483659 1_555
O11 S0 1.469856 1_555
O12 S5 1.447344 1_555
O13 S6 1.461080 1_555
O14 P1 1.508037 1_555
O15 S7 1.464566 1_555
O16 S8 1.478893 1_555
O17 S9 1.480042 1_555
O18 S9 1.538225 1_555
O19 S7 1.545729 1_555
O20 S8 1.534606 1_555
O21 S6 1.538036 1_555
O22 P1 1.613060 1_555
O23 S5 1.541138 1_555
O24 P2 1.495391 1_555
O25 P3 1.505850 1_555
O26 P4 1.504444 1_555
O27 P5 1.525274 1_555
O28 S10 1.468525 1_555
O29 S11 1.459320 1_555
O30 S11 1.472978 1_555
O31 P5 1.549233 1_555
O32 S10 1.486097 1_555
O33 P3 1.593116 1_555
O34 P4 1.577267 1_555
O35 P2 1.589487 1_555
O36 S11 1.471355 1_555
O37 P5 1.530609 1_555
O38 S10 1.468188 1_555
O39 P3 1.517651 1_555
O40 P4 1.539851 1_555
O41 P2 1.522869 1_555
O42 S5 1.498115 1_555
O43 S6 1.480527 1_555
O44 P1 1.542223 1_555
O45 S7 1.477305 1_555
O46 S8 1.478144 1_555
O47 S9 1.477899 1_555
O48 S4 1.475100 1_545
O49 P0 1.530529 1_555
O50 S3 1.471586 1_655
O51 S1 1.492676 1_555
O52 S2 1.494334 1_655
O53 S0 1.522547 1_545
O54 P2 1.638270 1_555
O55 P3 1.608986 1_655
O56 P4 1.611046 1_545
O57 P5 1.624881 1_545
O58 S10 1.528105 1_555
O59 S11 1.540618 1_655
O60 S9 1.470216 1_555
O61 S7 1.468247 1_455
O62 S8 1.466271 1_565
O63 S6 1.477962 1_565
O64 P1 1.565942 1_555
O65 S5 1.479798 1_455
O66 S0 1.491693 1_555
O67 S1 1.516946 1_555
O68 S2 1.492702 1_555
O69 P0 1.627129 1_555
O70 S3 1.530652 1_555
O71 S4 1.531285 1_555
