# generated using pymatgen
data_MgV4O5F7
_symmetry_space_group_name_H-M   'P 1'
_cell_length_a   5.22680456
_cell_length_b   5.47580594
_cell_length_c   9.02030275
_cell_angle_alpha   73.48147028
_cell_angle_beta   89.89076549
_cell_angle_gamma   60.89074458
_symmetry_Int_Tables_number   1
_chemical_formula_structural   MgV4O5F7
_chemical_formula_sum   'Mg1 V4 O5 F7'
_cell_volume   213.36502091
_cell_formula_units_Z   1
loop_
 _symmetry_equiv_pos_site_id
 _symmetry_equiv_pos_as_xyz
  1  'x, y, z'
loop_
 _atom_site_type_symbol
 _atom_site_label
 _atom_site_symmetry_multiplicity
 _atom_site_fract_x
 _atom_site_fract_y
 _atom_site_fract_z
 _atom_site_occupancy
  Mg  Mg0  1  0.69915000  0.60613700  0.89828100  1
  V  V0  1  0.72966100  0.47057300  0.26237400  1
  V  V1  1  0.45673800  0.01899800  0.49989600  1
  V  V2  1  0.24879100  0.53829600  0.73787300  1
  V  V3  1  0.04273300  0.93574900  0.00097100  1
  O  O0  1  0.43866200  0.74897200  0.06176500  1
  O  O1  1  0.43923800  0.75877000  0.69001400  1
  O  O2  1  0.58504700  0.25687300  0.33012600  1
  O  O3  1  0.98806800  0.76017600  0.87686100  1
  O  O4  1  0.09350200  0.24333300  0.41738000  1
  F  F0  1  0.90185400  0.77457700  0.56540600  1
  F  F1  1  0.93876700  0.73078000  0.17595900  1
  F  F2  1  0.96156100  0.26439700  0.10986400  1
  F  F3  1  0.53065600  0.74803000  0.37608900  1
  F  F4  1  0.59182300  0.27448200  0.92868800  1
  F  F5  1  0.47047300  0.24825000  0.63137600  1
  F  F6  1  0.05827800  0.27160900  0.82993400  1
loop_
_geom_bond_atom_site_label_1
_geom_bond_atom_site_label_2
_geom_bond_distance
_geom_bond_site_symmetry_2
Mg0 O1 2.021262 1_555
Mg0 O3 2.043229 1_555
Mg0 O0 2.062104 1_556
O0 V3 1.804287 1_555
O0 V0 2.024284 1_555
O1 V2 1.872430 1_555
O1 V1 1.927807 1_565
O2 V0 1.663221 1_555
O2 V1 2.050185 1_555
O3 V3 1.771937 1_656
O3 V2 2.038084 1_655
O4 V1 1.698195 1_555
O4 V0 1.959158 1_455
F0 V2 1.991472 1_655
F0 V1 2.019691 1_565
F1 V3 1.905050 1_655
F1 V0 2.170872 1_555
F2 V0 2.044918 1_555
F2 Mg0 2.123058 1_554
F2 V3 2.155028 1_645
F3 V0 1.945998 1_555
F3 V1 1.995220 1_565
F4 V2 2.083728 1_555
F4 Mg0 2.096533 1_555
F4 V3 2.117782 1_646
F5 V2 1.964874 1_555
F5 V1 1.980462 1_555
F6 V3 2.073785 1_546
F6 V2 2.129740 1_555
F6 Mg0 2.133400 1_455
