# generated using pymatgen
data_Na4MgZrSi2SO12
_symmetry_space_group_name_H-M   'P 1'
_cell_length_a   9.23174949
_cell_length_b   9.21782314
_cell_length_c   22.54211336
_cell_angle_alpha   90.01598100
_cell_angle_beta   90.00000000
_cell_angle_gamma   120.04998971
_symmetry_Int_Tables_number   1
_chemical_formula_structural   Na4MgZrSi2SO12
_chemical_formula_sum   'Na24 Mg6 Zr6 Si12 S6 O72'
_cell_volume   1660.42259085
_cell_formula_units_Z   6
loop_
 _symmetry_equiv_pos_site_id
 _symmetry_equiv_pos_as_xyz
  1  'x, y, z'
loop_
 _atom_site_type_symbol
 _atom_site_label
 _atom_site_symmetry_multiplicity
 _atom_site_fract_x
 _atom_site_fract_y
 _atom_site_fract_z
 _atom_site_occupancy
  Na  Na0  1  0.64267282  0.02403886  0.25424446  1
  Na  Na1  1  0.36005557  0.34925196  0.24432248  1
  Na  Na2  1  0.99311206  0.62024450  0.24251876  1
  Na  Na3  1  0.62713244  0.62024450  0.74251876  1
  Na  Na4  1  0.98919639  0.34925196  0.74432248  1
  Na  Na5  1  0.38136604  0.02403886  0.75424446  1
  Na  Na6  1  0.30933982  0.35737186  0.58757746  1
  Na  Na7  1  0.02672257  0.68258496  0.57765548  1
  Na  Na8  1  0.65977906  0.95357750  0.57585176  1
  Na  Na9  1  0.29379944  0.95357750  0.07585176  1
  Na  Na10  1  0.65586339  0.68258496  0.07765548  1
  Na  Na11  1  0.04803304  0.35737186  0.08757746  1
  Na  Na12  1  0.97600582  0.69070586  0.92091146  1
  Na  Na13  1  0.69338857  0.01591896  0.91098948  1
  Na  Na14  1  0.32644506  0.28691150  0.90918576  1
  Na  Na15  1  0.96046544  0.28691150  0.40918576  1
  Na  Na16  1  0.32252939  0.01591896  0.41098948  1
  Na  Na17  1  0.71469904  0.69070586  0.42091146  1
  Na  Na18  1  0.98010440  0.98499762  0.49410865  1
  Na  Na19  1  0.00489322  0.98499762  0.99410865  1
  Na  Na20  1  0.64677140  0.31833062  0.82744165  1
  Na  Na21  1  0.67156022  0.31833062  0.32744165  1
  Na  Na22  1  0.31343740  0.65166462  0.16077565  1
  Na  Na23  1  0.33822622  0.65166462  0.66077565  1
  Mg  Mg0  1  0.00000311  0.00279601  0.35009662  1
  Mg  Mg1  1  0.00279289  0.00279601  0.85009662  1
  Mg  Mg2  1  0.66667011  0.33612901  0.68342962  1
  Mg  Mg3  1  0.66945989  0.33612901  0.18342962  1
  Mg  Mg4  1  0.33333611  0.66946301  0.01676362  1
  Mg  Mg5  1  0.33612589  0.66946301  0.51676362  1
  Zr  Zr0  1  0.98761942  0.00630919  0.64890843  1
  Zr  Zr1  1  0.01868977  0.00630919  0.14890843  1
  Zr  Zr2  1  0.65428642  0.33964219  0.98224143  1
  Zr  Zr3  1  0.68535677  0.33964219  0.48224143  1
  Zr  Zr4  1  0.32095242  0.67297619  0.31557543  1
  Zr  Zr5  1  0.35202277  0.67297619  0.81557543  1
  Si  Si0  1  0.30223328  0.00778276  0.25363160  1
  Si  Si1  1  0.99699897  0.29334860  0.25254595  1
  Si  Si2  1  0.29634963  0.29334860  0.75254595  1
  Si  Si3  1  0.70554948  0.00778276  0.75363160  1
  Si  Si4  1  0.96890028  0.34111576  0.58696460  1
  Si  Si5  1  0.66366597  0.62668160  0.58587895  1
  Si  Si6  1  0.96301663  0.62668160  0.08587895  1
  Si  Si7  1  0.37221648  0.34111576  0.08696460  1
  Si  Si8  1  0.63556628  0.67444976  0.92029860  1
  Si  Si9  1  0.33033197  0.96001560  0.91921295  1
  Si  Si10  1  0.62968263  0.96001560  0.41921295  1
  Si  Si11  1  0.03888248  0.67444976  0.42029860  1
  S  S0  1  0.70668843  0.70611781  0.25116815  1
  S  S1  1  0.99942938  0.70611781  0.75116815  1
  S  S2  1  0.37335543  0.03945081  0.58450115  1
  S  S3  1  0.66609638  0.03945081  0.08450115  1
  S  S4  1  0.04002143  0.37278481  0.91783515  1
  S  S5  1  0.33276238  0.37278481  0.41783515  1
  O  O0  1  0.21046165  0.03073659  0.31042334  1
  O  O1  1  0.81051153  0.78795615  0.30383839  1
  O  O2  1  0.96835723  0.17767875  0.30985098  1
  O  O3  1  0.20932153  0.17767875  0.80985098  1
  O  O4  1  0.97744462  0.78795615  0.80383839  1
  O  O5  1  0.82027494  0.03073659  0.81042334  1
  O  O6  1  0.78727049  0.96594221  0.69383900  1
  O  O7  1  0.17784924  0.20204342  0.69252903  1
  O  O8  1  0.02942467  0.81217438  0.69695008  1
  O  O9  1  0.78274971  0.81217438  0.19695008  1
  O  O10  1  0.02419418  0.20204342  0.19252903  1
  O  O11  1  0.17867172  0.96594221  0.19383900  1
  O  O12  1  0.87712865  0.36406959  0.64375634  1
  O  O13  1  0.47717853  0.12128915  0.63717139  1
  O  O14  1  0.63502423  0.51101175  0.64318398  1
  O  O15  1  0.87598853  0.51101175  0.14318398  1
  O  O16  1  0.64411162  0.12128915  0.13717139  1
  O  O17  1  0.48694194  0.36406959  0.14375634  1
  O  O18  1  0.45393749  0.29927521  0.02717200  1
  O  O19  1  0.84451624  0.53537642  0.02586203  1
  O  O20  1  0.69609167  0.14550738  0.03028308  1
  O  O21  1  0.44941671  0.14550738  0.53028308  1
  O  O22  1  0.69086118  0.53537642  0.52586203  1
  O  O23  1  0.84533872  0.29927521  0.52717200  1
  O  O24  1  0.54379465  0.69740359  0.97709034  1
  O  O25  1  0.14384453  0.45462315  0.97050539  1
  O  O26  1  0.30169023  0.84434575  0.97651798  1
  O  O27  1  0.54265453  0.84434575  0.47651798  1
  O  O28  1  0.31077762  0.45462315  0.47050539  1
  O  O29  1  0.15360794  0.69740359  0.47709034  1
  O  O30  1  0.12060349  0.63260921  0.36050600  1
  O  O31  1  0.51118224  0.86871042  0.35919603  1
  O  O32  1  0.36275767  0.47884138  0.36361708  1
  O  O33  1  0.11608271  0.47884138  0.86361708  1
  O  O34  1  0.35752718  0.86871042  0.85919603  1
  O  O35  1  0.51200472  0.63260921  0.86050600  1
  O  O36  1  0.01631454  0.83698451  0.41162818  1
  O  O37  1  0.81823398  0.98881413  0.41259328  1
  O  O38  1  0.18301020  0.20540914  0.41192257  1
  O  O39  1  0.02239893  0.20540914  0.91192257  1
  O  O40  1  0.17058015  0.98881413  0.91259328  1
  O  O41  1  0.82066997  0.83698451  0.91162818  1
  O  O42  1  0.98359308  0.16632535  0.58734426  1
  O  O43  1  0.20268573  0.02031516  0.58945935  1
  O  O44  1  0.84470399  0.81073292  0.58807644  1
  O  O45  1  0.96602893  0.81073292  0.08807644  1
  O  O46  1  0.81762943  0.02031516  0.08945935  1
  O  O47  1  0.18273227  0.16632535  0.08734426  1
  O  O48  1  0.68298154  0.17031751  0.74496118  1
  O  O49  1  0.48490098  0.32214713  0.74592628  1
  O  O50  1  0.84967720  0.53874214  0.74525557  1
  O  O51  1  0.68906593  0.53874214  0.24525557  1
  O  O52  1  0.83724715  0.32214713  0.24592628  1
  O  O53  1  0.48733697  0.17031751  0.24496118  1
  O  O54  1  0.65026008  0.49965835  0.92067726  1
  O  O55  1  0.86935273  0.35364816  0.92279235  1
  O  O56  1  0.51137099  0.14406592  0.92140944  1
  O  O57  1  0.63269593  0.14406592  0.42140944  1
  O  O58  1  0.48429643  0.35364816  0.42279235  1
  O  O59  1  0.84939927  0.49965835  0.42067726  1
  O  O60  1  0.34964754  0.50365151  0.07829518  1
  O  O61  1  0.15156698  0.65548113  0.07926028  1
  O  O62  1  0.51634320  0.87207614  0.07858957  1
  O  O63  1  0.35573193  0.87207614  0.57858957  1
  O  O64  1  0.50391315  0.65548113  0.57926028  1
  O  O65  1  0.15400297  0.50365151  0.57829518  1
  O  O66  1  0.31692608  0.83299235  0.25401126  1
  O  O67  1  0.53601873  0.68698216  0.25612635  1
  O  O68  1  0.17803699  0.47739992  0.25474344  1
  O  O69  1  0.29936193  0.47739992  0.75474344  1
  O  O70  1  0.15096243  0.68698216  0.75612635  1
  O  O71  1  0.51606527  0.83299235  0.75401126  1
loop_
_geom_bond_atom_site_label_1
_geom_bond_atom_site_label_2
_geom_bond_distance
_geom_bond_site_symmetry_2
Na0 O53 2.419708 1_555
Na0 O52 2.422723 1_555
Na0 O66 2.615489 1_545
Na0 O31 2.716971 1_545
Na0 O67 2.749656 1_545
Na0 O16 2.785298 1_555
Na0 O2 2.889861 1_555
Na1 O53 2.458129 1_555
Na1 O68 2.502369 1_555
Na1 O17 2.523866 1_555
Na1 O51 2.638841 1_555
Na1 O67 2.708509 1_555
Na1 O10 2.933175 1_555
Na1 O32 2.937250 1_555
Na1 O0 2.947761 1_555
Na2 O52 2.380569 1_555
Na2 O15 2.470915 1_555
Na2 O51 2.516920 1_555
Na2 O68 2.641139 1_655
Na2 O66 2.641541 1_655
Na2 O30 2.887496 1_655
Na2 O11 2.971183 1_655
Na3 O49 2.380569 1_555
Na3 O14 2.470917 1_555
Na3 O50 2.516929 1_555
Na3 O69 2.641148 1_555
Na3 O71 2.641548 1_555
Na3 O35 2.887500 1_555
Na3 O6 2.971183 1_555
Na4 O48 2.458121 1_555
Na4 O69 2.502360 1_655
Na4 O12 2.523862 1_555
Na4 O50 2.638833 1_555
Na4 O70 2.708510 1_655
Na4 O7 2.933175 1_655
Na4 O33 2.937248 1_655
Na4 O5 2.947761 1_555
Na5 O48 2.419716 1_555
Na5 O49 2.422721 1_555
Na5 O71 2.615482 1_545
Na5 O34 2.716969 1_545
Na5 O70 2.749658 1_545
Na5 O13 2.785299 1_555
Na5 O3 2.889861 1_555
Na6 O65 2.419722 1_555
Na6 O64 2.422727 1_555
Na6 O42 2.615489 1_455
Na6 O7 2.716971 1_555
Na6 O43 2.749656 1_555
Na6 O28 2.785281 1_555
Na6 O14 2.889861 1_555
Na7 O65 2.458113 1_555
Na7 O44 2.502369 1_455
Na7 O29 2.523840 1_555
Na7 O63 2.638834 1_555
Na7 O43 2.708509 1_565
Na7 O22 2.933175 1_455
Na7 O8 2.937250 1_555
Na7 O12 2.947761 1_455
Na8 O64 2.380562 1_555
Na8 O27 2.470895 1_555
Na8 O63 2.516932 1_555
Na8 O44 2.641139 1_555
Na8 O42 2.641541 1_565
Na8 O6 2.887496 1_555
Na8 O23 2.971183 1_565
Na9 O61 2.380562 1_555
Na9 O26 2.470890 1_554
Na9 O62 2.516914 1_555
Na9 O45 2.641148 1_455
Na9 O47 2.641548 1_565
Na9 O11 2.887500 1_555
Na9 O18 2.971183 1_565
Na10 O60 2.458128 1_555
Na10 O45 2.502360 1_555
Na10 O24 2.523848 1_554
Na10 O62 2.638849 1_555
Na10 O46 2.708510 1_565
Na10 O19 2.933175 1_555
Na10 O9 2.937248 1_555
Na10 O17 2.947761 1_555
Na11 O60 2.419705 1_555
Na11 O61 2.422730 1_555
Na11 O47 2.615482 1_555
Na11 O10 2.716969 1_555
Na11 O46 2.749658 1_455
Na11 O25 2.785278 1_554
Na11 O15 2.889861 1_455
Na12 O41 2.419708 1_555
Na12 O40 2.422723 1_655
Na12 O54 2.615483 1_555
Na12 O19 2.716952 1_556
Na12 O55 2.749667 1_555
Na12 O4 2.785298 1_555
Na12 O26 2.889861 1_655
Na13 O41 2.458129 1_545
Na13 O56 2.502351 1_555
Na13 O5 2.523866 1_555
Na13 O39 2.638841 1_655
Na13 O55 2.708500 1_555
Na13 O34 2.933175 1_545
Na13 O20 2.937224 1_556
Na13 O24 2.947761 1_545
Na14 O40 2.380569 1_545
Na14 O3 2.470915 1_555
Na14 O39 2.516920 1_555
Na14 O56 2.641153 1_555
Na14 O54 2.641545 1_555
Na14 O18 2.887481 1_556
Na14 O35 2.971183 1_555
Na15 O37 2.380569 1_545
Na15 O2 2.470917 1_555
Na15 O38 2.516929 1_655
Na15 O57 2.641136 1_555
Na15 O59 2.641531 1_555
Na15 O23 2.887474 1_555
Na15 O30 2.971183 1_655
Na16 O36 2.458121 1_545
Na16 O57 2.502367 1_555
Na16 O0 2.523862 1_555
Na16 O38 2.638833 1_555
Na16 O58 2.708499 1_555
Na16 O31 2.933175 1_545
Na16 O21 2.937227 1_555
Na16 O29 2.947761 1_545
Na17 O36 2.419716 1_655
Na17 O37 2.422721 1_555
Na17 O59 2.615498 1_555
Na17 O22 2.716956 1_555
Na17 O58 2.749663 1_555
Na17 O1 2.785299 1_555
Na17 O27 2.889861 1_555
Na18 O37 2.379813 1_555
Na18 O36 2.426008 1_655
Na18 O44 2.573065 1_555
Na18 O42 2.675100 1_565
Na18 O38 2.694355 1_665
Na18 O43 2.877125 1_665
Na19 O40 2.379813 1_555
Na19 O41 2.426008 1_455
Na19 O45 2.573065 1_456
Na19 O47 2.675100 1_566
Na19 O39 2.694355 1_565
Na19 O46 2.877125 1_466
Na20 O49 2.379813 1_555
Na20 O48 2.426008 1_555
Na20 O56 2.573065 1_555
Na20 O54 2.675100 1_555
Na20 O50 2.694355 1_555
Na20 O55 2.877125 1_555
Na21 O52 2.379813 1_555
Na21 O53 2.426008 1_555
Na21 O57 2.573065 1_555
Na21 O59 2.675100 1_555
Na21 O51 2.694355 1_555
Na21 O58 2.877125 1_555
Na22 O61 2.379813 1_555
Na22 O60 2.426008 1_555
Na22 O68 2.573065 1_555
Na22 O66 2.675100 1_555
Na22 O62 2.694355 1_555
Na22 O67 2.877125 1_555
Na23 O64 2.379813 1_555
Na23 O65 2.426008 1_555
Na23 O69 2.573065 1_555
Na23 O71 2.675100 1_555
Na23 O63 2.694355 1_555
Na23 O70 2.877125 1_555
Mg0 O2 1.994880 1_455
Mg0 O0 2.034694 1_555
Mg0 O36 2.124698 1_545
Mg0 O1 2.144444 1_445
Mg0 O37 2.144923 1_445
Mg0 O38 2.263459 1_555
Mg1 O3 1.994880 1_555
Mg1 O5 2.034694 1_455
Mg1 O41 2.124698 1_445
Mg1 O4 2.144444 1_445
Mg1 O40 2.144923 1_545
Mg1 O39 2.263459 1_555
Mg2 O14 1.994880 1_555
Mg2 O12 2.034694 1_555
Mg2 O48 2.124698 1_555
Mg2 O13 2.144444 1_555
Mg2 O49 2.144923 1_555
Mg2 O50 2.263459 1_555
Mg3 O15 1.994880 1_555
Mg3 O17 2.034694 1_555
Mg3 O53 2.124698 1_555
Mg3 O16 2.144444 1_555
Mg3 O52 2.144923 1_555
Mg3 O51 2.263459 1_555
Mg4 O26 1.994880 1_554
Mg4 O24 2.034694 1_554
Mg4 O60 2.124698 1_555
Mg4 O25 2.144444 1_554
Mg4 O61 2.144923 1_555
Mg4 O62 2.263459 1_555
Mg5 O27 1.994880 1_555
Mg5 O29 2.034694 1_555
Mg5 O65 2.124698 1_555
Mg5 O28 2.144444 1_555
Mg5 O64 2.144923 1_555
Mg5 O63 2.263459 1_555
O0 Si0 1.606500 1_555
O1 S0 1.474036 1_555
O2 Si1 1.610544 1_555
O3 Si2 1.610544 1_555
O4 S1 1.474036 1_555
O5 Si3 1.606500 1_555
O6 Si3 1.680991 1_565
O6 Zr0 1.973866 1_565
O7 Si2 1.677118 1_555
O7 Zr0 2.032719 1_455
O8 S1 1.501898 1_455
O8 Zr0 2.284035 1_465
O9 S0 1.501898 1_555
O9 Zr1 2.284035 1_665
O10 Si1 1.677118 1_455
O10 Zr1 2.032719 1_555
O11 Si0 1.680991 1_565
O11 Zr1 1.973866 1_565
O12 Si4 1.606500 1_555
O13 S2 1.474036 1_555
O14 Si5 1.610544 1_555
O15 Si6 1.610544 1_555
O16 S3 1.474036 1_555
O17 Si7 1.606500 1_555
O18 Si7 1.680991 1_555
O18 Zr2 1.973866 1_554
O19 Si6 1.677118 1_555
O19 Zr2 2.032719 1_554
O20 S3 1.501898 1_555
O20 Zr2 2.284035 1_554
O21 S2 1.501898 1_555
O21 Zr3 2.284035 1_555
O22 Si5 1.677118 1_555
O22 Zr3 2.032719 1_555
O23 Si4 1.680991 1_555
O23 Zr3 1.973866 1_555
O24 Si8 1.606500 1_555
O25 S4 1.474036 1_555
O26 Si9 1.610544 1_555
O27 Si10 1.610544 1_555
O28 S5 1.474036 1_555
O29 Si11 1.606500 1_555
O30 Si11 1.680991 1_555
O30 Zr4 1.973866 1_555
O31 Si10 1.677118 1_555
O31 Zr4 2.032719 1_555
O32 S5 1.501898 1_555
O32 Zr4 2.284035 1_555
O33 S4 1.501898 1_555
O33 Zr5 2.284035 1_555
O34 Si9 1.677118 1_555
O34 Zr5 2.032719 1_555
O35 Si8 1.680991 1_555
O35 Zr5 1.973866 1_555
O36 Si11 1.624511 1_555
O37 Si10 1.630913 1_555
O38 S5 1.474137 1_555
O39 S4 1.474141 1_555
O40 Si9 1.630904 1_555
O41 Si8 1.624516 1_555
O42 Si4 1.683234 1_555
O42 Zr0 2.039365 1_555
O43 S2 1.499244 1_555
O43 Zr0 2.344761 1_455
O44 Si5 1.683510 1_555
O44 Zr0 2.118412 1_565
O45 Si6 1.683514 1_555
O45 Zr1 2.118412 1_665
O46 S3 1.499235 1_555
O46 Zr1 2.344761 1_655
O47 Si7 1.683239 1_555
O47 Zr1 2.039365 1_555
O48 Si3 1.624511 1_555
O49 Si2 1.630913 1_555
O50 S1 1.474137 1_555
O51 S0 1.474141 1_555
O52 Si1 1.630904 1_555
O53 Si0 1.624516 1_555
O54 Si8 1.683248 1_555
O54 Zr2 2.039365 1_555
O55 S4 1.499230 1_655
O55 Zr2 2.344761 1_555
O56 Si9 1.683509 1_545
O56 Zr2 2.118412 1_555
O57 Si10 1.683500 1_545
O57 Zr3 2.118412 1_555
O58 S5 1.499248 1_555
O58 Zr3 2.344761 1_555
O59 Si11 1.683237 1_655
O59 Zr3 2.039365 1_555
O60 Si7 1.624523 1_555
O61 Si6 1.630899 1_455
O62 S3 1.474133 1_565
O63 S2 1.474126 1_565
O64 Si5 1.630917 1_555
O65 Si4 1.624512 1_455
O66 Si0 1.683234 1_565
O66 Zr4 2.039365 1_555
O67 S0 1.499244 1_555
O67 Zr4 2.344761 1_555
O68 Si1 1.683510 1_455
O68 Zr4 2.118412 1_555
O69 Si2 1.683514 1_555
O69 Zr5 2.118412 1_555
O70 S1 1.499235 1_455
O70 Zr5 2.344761 1_555
O71 Si3 1.683239 1_565
O71 Zr5 2.039365 1_555
