# generated using pymatgen
data_Ca2Cu6P5
_symmetry_space_group_name_H-M   'P 1'
_cell_length_a   3.99181369
_cell_length_b   3.99181437
_cell_length_c   12.52685511
_cell_angle_alpha   99.16802437
_cell_angle_beta   99.16802285
_cell_angle_gamma   89.99999443
_symmetry_Int_Tables_number   1
_chemical_formula_structural   Ca2Cu6P5
_chemical_formula_sum   'Ca2 Cu6 P5'
_cell_volume   194.47683028
_cell_formula_units_Z   1
loop_
 _symmetry_equiv_pos_site_id
 _symmetry_equiv_pos_as_xyz
  1  'x, y, z'
loop_
 _atom_site_type_symbol
 _atom_site_label
 _atom_site_symmetry_multiplicity
 _atom_site_fract_x
 _atom_site_fract_y
 _atom_site_fract_z
 _atom_site_occupancy
  Ca  Ca0  1  0.64898221  0.64898221  0.29796443  1
  Ca  Ca1  1  0.35101879  0.35101879  0.70203557  1
  Cu  Cu0  1  0.25000000  0.75000000  0.50000000  1
  Cu  Cu1  1  0.44664370  0.94664370  0.89328640  1
  Cu  Cu2  1  0.94664370  0.44664370  0.89328640  1
  Cu  Cu3  1  0.55335630  0.05335630  0.10671360  1
  Cu  Cu4  1  0.05335630  0.55335630  0.10671360  1
  Cu  Cu5  1  0.75000000  0.25000000  0.50000000  1
  P  P0  1  0.80238450  0.80238450  0.60476799  1
  P  P1  1  0.50000000  0.50000000  0.00000000  1
  P  P2  1  0.19761550  0.19761550  0.39523101  1
  P  P3  1  0.89446199  0.89446199  0.78892399  1
  P  P4  1  0.10553801  0.10553801  0.21107601  1
loop_
_geom_bond_atom_site_label_1
_geom_bond_atom_site_label_2
_geom_bond_distance
_geom_bond_site_symmetry_2
Ca0 P4 3.015267 1_565
Ca0 P4 3.015267 1_655
Ca0 P4 3.015268 1_555
Ca0 P4 3.015268 1_665
Ca0 P2 3.062110 1_655
Ca0 P2 3.062110 1_565
Ca0 P2 3.062110 1_555
Ca0 P2 3.062110 1_665
Ca0 Cu4 3.071146 1_655
Ca0 Cu3 3.071146 1_565
Ca0 Cu4 3.071149 1_555
Ca0 Cu3 3.071149 1_555
Ca0 Cu0 3.172339 1_555
Ca0 Cu0 3.172339 1_655
Ca0 Cu5 3.172340 1_555
Ca0 Cu5 3.172340 1_565
Ca1 P3 3.015262 1_555
Ca1 P3 3.015267 1_545
Ca1 P3 3.015267 1_455
Ca1 P3 3.015273 1_445
Ca1 P0 3.062113 1_555
Ca1 P0 3.062115 1_455
Ca1 P0 3.062115 1_545
Ca1 P0 3.062118 1_445
Ca1 Cu2 3.071146 1_555
Ca1 Cu1 3.071146 1_555
Ca1 Cu2 3.071149 1_455
Ca1 Cu1 3.071149 1_545
Ca1 Cu5 3.172337 1_555
Ca1 Cu0 3.172337 1_555
Ca1 Cu5 3.172342 1_455
Ca1 Cu0 3.172342 1_545
Cu0 P0 2.370361 1_455
Cu0 P0 2.370365 1_555
Cu0 P2 2.370370 1_565
Cu0 P2 2.370370 1_555
Cu1 P3 2.367695 1_555
Cu1 P3 2.367698 1_455
Cu1 P1 2.383255 1_566
Cu1 P1 2.383258 1_556
Cu2 P3 2.367695 1_555
Cu2 P3 2.367699 1_545
Cu2 P1 2.383255 1_656
Cu2 P1 2.383258 1_556
Cu3 P4 2.367695 1_555
Cu3 P4 2.367698 1_655
Cu3 P1 2.383255 1_545
Cu3 P1 2.383258 1_555
Cu4 P4 2.367695 1_555
Cu4 P4 2.367699 1_565
Cu4 P1 2.383255 1_455
Cu4 P1 2.383258 1_555
Cu5 P0 2.370362 1_545
Cu5 P0 2.370365 1_555
Cu5 P2 2.370370 1_655
Cu5 P2 2.370370 1_555
P0 P3 2.247570 1_555
P2 P4 2.247557 1_555
