# generated using pymatgen
data_MgV2Pb3O8
_symmetry_space_group_name_H-M   'P 1'
_cell_length_a   5.98995795
_cell_length_b   5.90283502
_cell_length_c   8.58446105
_cell_angle_alpha   70.72779162
_cell_angle_beta   67.38253239
_cell_angle_gamma   66.54302590
_symmetry_Int_Tables_number   1
_chemical_formula_structural   MgV2Pb3O8
_chemical_formula_sum   'Mg1 V2 Pb3 O8'
_cell_volume   251.35353246
_cell_formula_units_Z   1
loop_
 _symmetry_equiv_pos_site_id
 _symmetry_equiv_pos_as_xyz
  1  'x, y, z'
loop_
 _atom_site_type_symbol
 _atom_site_label
 _atom_site_symmetry_multiplicity
 _atom_site_fract_x
 _atom_site_fract_y
 _atom_site_fract_z
 _atom_site_occupancy
  Mg  Mg0  1  0.96712463  0.00473243  0.76128932  1
  V  V0  1  0.64878601  0.65616703  0.17714233  1
  V  V1  1  0.33240264  0.36451414  0.80071087  1
  Pb  Pb0  1  0.26473923  0.32915297  0.30699237  1
  Pb  Pb1  1  0.66686444  0.72080685  0.61080317  1
  Pb  Pb2  1  0.01954357  0.01028271  0.10213159  1
  O  O0  1  0.75070974  0.80593567  0.96078942  1
  O  O1  1  0.25247044  0.32373884  0.03237734  1
  O  O2  1  0.76376928  0.72078703  0.31925986  1
  O  O3  1  0.20138512  0.20198301  0.73492257  1
  O  O4  1  0.68246267  0.31064872  0.23117730  1
  O  O5  1  0.26313719  0.70867090  0.69225518  1
  O  O6  1  0.29275542  0.72692905  0.25556992  1
  O  O7  1  0.68607861  0.30258866  0.69791175  1
loop_
_geom_bond_atom_site_label_1
_geom_bond_atom_site_label_2
_geom_bond_distance
_geom_bond_site_symmetry_2
Mg0 O7 1.984417 1_555
Mg0 O5 1.989405 1_645
Mg0 O0 2.041399 1_545
Mg0 O3 2.063581 1_655
O0 V0 1.754264 1_556
O1 V1 1.812628 1_554
O1 Pb0 2.397648 1_555
O1 Pb2 2.531797 1_555
O2 V0 1.808567 1_555
O2 Pb1 2.341669 1_555
O2 Pb2 2.554785 1_665
O3 V1 1.775744 1_555
O4 V0 1.880291 1_555
O4 Pb2 2.274567 1_655
O4 Pb0 2.296311 1_555
O5 V1 1.882422 1_555
O5 Pb1 2.268596 1_555
O6 V0 1.883582 1_555
O6 Pb2 2.288073 1_565
O6 Pb0 2.304057 1_555
O7 V1 1.886509 1_555
O7 Pb1 2.299605 1_555
