# generated using pymatgen
data_CeCoC2
_symmetry_space_group_name_H-M   'P 1'
_cell_length_a   3.76888923
_cell_length_b   3.76935164
_cell_length_c   7.35627916
_cell_angle_alpha   82.01546295
_cell_angle_beta   82.01253962
_cell_angle_gamma   90.13797525
_symmetry_Int_Tables_number   1
_chemical_formula_structural   CeCoC2
_chemical_formula_sum   'Ce2 Co2 C4'
_cell_volume   102.46301801
_cell_formula_units_Z   2
loop_
 _symmetry_equiv_pos_site_id
 _symmetry_equiv_pos_as_xyz
  1  'x, y, z'
loop_
 _atom_site_type_symbol
 _atom_site_label
 _atom_site_symmetry_multiplicity
 _atom_site_fract_x
 _atom_site_fract_y
 _atom_site_fract_z
 _atom_site_occupancy
  Ce  Ce0  1  0.06833817  0.93086255  0.00054458  1
  Ce  Ce1  1  0.93087194  0.06833954  0.50055681  1
  Co  Co0  1  0.37354501  0.51403399  0.69525924  1
  Co  Co1  1  0.51401182  0.37353937  0.19521499  1
  C  C0  1  0.44210336  0.59452869  0.42738055  1
  C  C1  1  0.59459204  0.44210216  0.92734809  1
  C  C2  1  0.48971974  0.85385667  0.27376385  1
  C  C3  1  0.85381591  0.48973604  0.77373088  1
loop_
_geom_bond_atom_site_label_1
_geom_bond_atom_site_label_2
_geom_bond_distance
_geom_bond_site_symmetry_2
C0 C2 1.378635 1_555
C0 Co0 1.932372 1_555
C0 Co1 1.987921 1_555
C0 Ce1 2.680913 1_465
C0 Ce1 2.707916 1_455
C0 Ce1 2.720227 1_565
C0 Ce1 2.759270 1_555
C1 C3 1.378301 1_555
C1 Co1 1.932289 1_556
C1 Co0 1.987526 1_555
C1 Ce0 2.680842 1_646
C1 Ce0 2.708098 1_546
C1 Ce0 2.720105 1_656
C1 Ce0 2.759397 1_556
C2 Co1 1.961991 1_565
C2 Co1 1.974044 1_555
C2 Ce1 2.698070 1_465
C2 Ce1 2.709348 1_565
C2 Ce0 2.715379 1_555
C2 Ce0 2.737937 1_655
C3 Co0 1.961816 1_655
C3 Co0 1.973457 1_555
C3 Ce0 2.698511 1_646
C3 Ce0 2.709528 1_656
C3 Ce1 2.715214 1_555
C3 Ce1 2.737952 1_565
