# generated using pymatgen
data_TbSnPd
_symmetry_space_group_name_H-M   'P 1'
_cell_length_a   4.62176208
_cell_length_b   7.23120608
_cell_length_c   7.95722684
_cell_angle_alpha   90.00000000
_cell_angle_beta   90.00000000
_cell_angle_gamma   90.00000000
_symmetry_Int_Tables_number   1
_chemical_formula_structural   TbSnPd
_chemical_formula_sum   'Tb4 Sn4 Pd4'
_cell_volume   265.93779432
_cell_formula_units_Z   4
loop_
 _symmetry_equiv_pos_site_id
 _symmetry_equiv_pos_as_xyz
  1  'x, y, z'
loop_
 _atom_site_type_symbol
 _atom_site_label
 _atom_site_symmetry_multiplicity
 _atom_site_fract_x
 _atom_site_fract_y
 _atom_site_fract_z
 _atom_site_occupancy
  Tb  Tb0  1  0.75000000  0.00892312  0.79327404  1
  Tb  Tb1  1  0.25000000  0.99107688  0.20672596  1
  Tb  Tb2  1  0.75000000  0.50892312  0.70672596  1
  Tb  Tb3  1  0.25000000  0.49107688  0.29327404  1
  Sn  Sn0  1  0.75000000  0.19455292  0.41241686  1
  Sn  Sn1  1  0.25000000  0.80544708  0.58758314  1
  Sn  Sn2  1  0.75000000  0.69455292  0.08758314  1
  Sn  Sn3  1  0.25000000  0.30544708  0.91241686  1
  Pd  Pd0  1  0.75000000  0.79594769  0.41622284  1
  Pd  Pd1  1  0.25000000  0.20405231  0.58377716  1
  Pd  Pd2  1  0.75000000  0.29594769  0.08377716  1
  Pd  Pd3  1  0.25000000  0.70405231  0.91622284  1
loop_
_geom_bond_atom_site_label_1
_geom_bond_atom_site_label_2
_geom_bond_distance
_geom_bond_site_symmetry_2
Sn0 Tb1 3.191239 1_645
Sn0 Tb1 3.191239 1_545
Sn0 Tb2 3.263771 1_555
Sn0 Tb3 3.291909 1_555
Sn0 Tb3 3.291909 1_655
Sn0 Tb0 3.314541 1_555
Sn1 Tb0 3.191239 1_565
Sn1 Tb0 3.191239 1_465
Sn1 Tb3 3.263771 1_555
Sn1 Tb2 3.291909 1_455
Sn1 Tb2 3.291909 1_555
Sn1 Tb1 3.314541 1_555
Sn2 Tb3 3.191239 1_655
Sn2 Tb3 3.191239 1_555
Sn2 Tb0 3.263771 1_564
Sn2 Tb1 3.291909 1_555
Sn2 Tb1 3.291909 1_655
Sn2 Tb2 3.314541 1_554
Sn3 Tb2 3.191239 1_455
Sn3 Tb2 3.191239 1_555
Sn3 Tb1 3.263771 1_546
Sn3 Tb0 3.291909 1_555
Sn3 Tb0 3.291909 1_455
Sn3 Tb3 3.314541 1_556
Pd0 Sn1 2.684058 1_655
Pd0 Sn1 2.684058 1_555
Pd0 Sn2 2.715904 1_555
Pd0 Sn0 2.882556 1_565
Pd0 Tb2 3.106659 1_555
Pd0 Tb1 3.179636 1_555
Pd0 Tb1 3.179636 1_655
Pd0 Tb3 3.340283 1_655
Pd0 Tb3 3.340283 1_555
Pd0 Tb0 3.372463 1_565
Pd1 Sn0 2.684058 1_555
Pd1 Sn0 2.684058 1_455
Pd1 Sn3 2.715904 1_555
Pd1 Sn1 2.882556 1_545
Pd1 Tb3 3.106659 1_555
Pd1 Tb0 3.179636 1_555
Pd1 Tb0 3.179636 1_455
Pd1 Tb2 3.340283 1_455
Pd1 Tb2 3.340283 1_555
Pd1 Tb1 3.372463 1_545
Pd2 Sn3 2.684058 1_554
Pd2 Sn3 2.684058 1_654
Pd2 Sn0 2.715904 1_555
Pd2 Sn2 2.882556 1_555
Pd2 Tb0 3.106659 1_554
Pd2 Tb3 3.179636 1_655
Pd2 Tb3 3.179636 1_555
Pd2 Tb1 3.340283 1_545
Pd2 Tb1 3.340283 1_645
Pd2 Tb2 3.372463 1_554
Pd3 Sn2 2.684058 1_556
Pd3 Sn2 2.684058 1_456
Pd3 Sn1 2.715904 1_555
Pd3 Sn3 2.882556 1_555
Pd3 Tb1 3.106659 1_556
Pd3 Tb2 3.179636 1_455
Pd3 Tb2 3.179636 1_555
Pd3 Tb0 3.340283 1_565
Pd3 Tb0 3.340283 1_465
Pd3 Tb3 3.372463 1_556
