# generated using pymatgen
data_NdCl3
_symmetry_space_group_name_H-M   'P 1'
_cell_length_a   7.47477076
_cell_length_b   7.47476896
_cell_length_c   4.24927627
_cell_angle_alpha   90.00000000
_cell_angle_beta   90.00000000
_cell_angle_gamma   119.99999822
_symmetry_Int_Tables_number   1
_chemical_formula_structural   NdCl3
_chemical_formula_sum   'Nd2 Cl6'
_cell_volume   205.60859203
_cell_formula_units_Z   2
loop_
 _symmetry_equiv_pos_site_id
 _symmetry_equiv_pos_as_xyz
  1  'x, y, z'
loop_
 _atom_site_type_symbol
 _atom_site_label
 _atom_site_symmetry_multiplicity
 _atom_site_fract_x
 _atom_site_fract_y
 _atom_site_fract_z
 _atom_site_occupancy
  Nd  Nd0  1  0.66666700  0.33333300  0.75000000  1
  Nd  Nd1  1  0.33333300  0.66666700  0.25000000  1
  Cl  Cl0  1  0.61047738  0.69664535  0.75000000  1
  Cl  Cl1  1  0.91383203  0.61047738  0.25000000  1
  Cl  Cl2  1  0.38952262  0.30335465  0.25000000  1
  Cl  Cl3  1  0.08616797  0.38952262  0.75000000  1
  Cl  Cl4  1  0.30335465  0.91383203  0.75000000  1
  Cl  Cl5  1  0.69664535  0.08616797  0.25000000  1
loop_
_geom_bond_atom_site_label_1
_geom_bond_atom_site_label_2
_geom_bond_distance
_geom_bond_site_symmetry_2
Cl0 Nd1 2.896823 1_555
Cl0 Nd1 2.896823 1_556
Cl0 Nd0 2.948202 1_555
Cl1 Nd0 2.896821 1_555
Cl1 Nd0 2.896821 1_554
Cl1 Nd1 2.948195 1_655
Cl2 Nd0 2.896823 1_554
Cl2 Nd0 2.896823 1_555
Cl2 Nd1 2.948202 1_555
Cl3 Nd1 2.896821 1_556
Cl3 Nd1 2.896821 1_555
Cl3 Nd0 2.948195 1_455
Cl4 Nd1 2.896818 1_556
Cl4 Nd1 2.896818 1_555
Cl4 Nd0 2.948198 1_565
Cl5 Nd0 2.896818 1_554
Cl5 Nd0 2.896818 1_555
Cl5 Nd1 2.948198 1_545
