# generated using pymatgen
data_Th2Ta2O9
_symmetry_space_group_name_H-M   'P 1'
_cell_length_a   9.78327549
_cell_length_b   9.78327549
_cell_length_c   7.47353100
_cell_angle_alpha   90.00000000
_cell_angle_beta   90.00000000
_cell_angle_gamma   106.66450570
_symmetry_Int_Tables_number   1
_chemical_formula_structural   Th2Ta2O9
_chemical_formula_sum   'Th8 Ta8 O36'
_cell_volume   685.26738899
_cell_formula_units_Z   4
loop_
 _symmetry_equiv_pos_site_id
 _symmetry_equiv_pos_as_xyz
  1  'x, y, z'
loop_
 _atom_site_type_symbol
 _atom_site_label
 _atom_site_symmetry_multiplicity
 _atom_site_fract_x
 _atom_site_fract_y
 _atom_site_fract_z
 _atom_site_occupancy
  Th  Th0  1  0.79332600  0.20667400  0.75000000  1
  Th  Th1  1  0.20667400  0.79332600  0.25000000  1
  Th  Th2  1  0.23857800  0.76142200  0.75000000  1
  Th  Th3  1  0.76142200  0.23857800  0.25000000  1
  Th  Th4  1  0.13445300  0.38988300  0.48738200  1
  Th  Th5  1  0.86554800  0.61011700  0.98738200  1
  Th  Th6  1  0.38988300  0.13445300  0.51261800  1
  Th  Th7  1  0.61011700  0.86554800  0.01261800  1
  Ta  Ta0  1  0.99130500  0.99130500  0.50000000  1
  Ta  Ta1  1  0.00869500  0.00869500  0.00000000  1
  Ta  Ta2  1  0.49460300  0.50539700  0.75000000  1
  Ta  Ta3  1  0.50539700  0.49460300  0.25000000  1
  Ta  Ta4  1  0.60034500  0.85458200  0.50143300  1
  Ta  Ta5  1  0.39965500  0.14541800  0.00143300  1
  Ta  Ta6  1  0.85458200  0.60034500  0.49856700  1
  Ta  Ta7  1  0.14541800  0.39965500  0.99856700  1
  O  O0  1  0.17618800  0.17618800  0.50000000  1
  O  O1  1  0.82381200  0.82381200  0.00000000  1
  O  O2  1  0.81779700  0.81779700  0.50000000  1
  O  O3  1  0.18220300  0.18220300  0.00000000  1
  O  O4  1  0.43107200  0.43107200  0.50000000  1
  O  O5  1  0.56892800  0.56892800  0.00000000  1
  O  O6  1  0.97306000  0.02694000  0.75000000  1
  O  O7  1  0.02694000  0.97306000  0.25000000  1
  O  O8  1  0.29240900  0.49087100  0.80143100  1
  O  O9  1  0.70759100  0.50912900  0.30143100  1
  O  O10  1  0.49087100  0.29240900  0.19856900  1
  O  O11  1  0.50912900  0.70759100  0.69856900  1
  O  O12  1  0.37113300  0.79176700  0.02013300  1
  O  O13  1  0.62886700  0.20823300  0.52013300  1
  O  O14  1  0.79176700  0.37113300  0.97986700  1
  O  O15  1  0.20823300  0.62886700  0.47986700  1
  O  O16  1  0.10115300  0.85252700  0.96893700  1
  O  O17  1  0.89884700  0.14747300  0.46893700  1
  O  O18  1  0.85252700  0.10115300  0.03106300  1
  O  O19  1  0.14747300  0.89884700  0.53106300  1
  O  O20  1  0.66967700  0.96649200  0.71703600  1
  O  O21  1  0.33032300  0.03350800  0.21703600  1
  O  O22  1  0.96649200  0.66967700  0.28296400  1
  O  O23  1  0.03350800  0.33032300  0.78296400  1
  O  O24  1  0.65749700  0.97805400  0.29651800  1
  O  O25  1  0.34250300  0.02194600  0.79651800  1
  O  O26  1  0.97805400  0.65749700  0.70348200  1
  O  O27  1  0.02194600  0.34250300  0.20348200  1
  O  O28  1  0.58313500  0.10703200  0.99979800  1
  O  O29  1  0.41686500  0.89296800  0.49979800  1
  O  O30  1  0.10703200  0.58313500  0.00020200  1
  O  O31  1  0.89296800  0.41686500  0.50020200  1
  O  O32  1  0.54354600  0.69712700  0.32099600  1
  O  O33  1  0.45645400  0.30287300  0.82099600  1
  O  O34  1  0.69712700  0.54354600  0.67900400  1
  O  O35  1  0.30287300  0.45645400  0.17900400  1
loop_
_geom_bond_atom_site_label_1
_geom_bond_atom_site_label_2
_geom_bond_distance
_geom_bond_site_symmetry_2
O0 Ta0 2.160289 1_445
O0 Th4 2.244092 1_555
O0 Th6 2.244092 1_555
O1 Ta1 2.160289 1_665
O1 Th5 2.244096 1_554
O1 Th7 2.244096 1_555
O2 Ta0 2.027377 1_555
O2 Ta4 2.257106 1_555
O2 Ta6 2.257106 1_555
O3 Ta1 2.027377 1_555
O3 Ta7 2.257106 1_554
O3 Ta5 2.257106 1_555
O4 Ta2 2.036344 1_555
O4 Ta3 2.036344 1_555
O4 Th6 2.814544 1_555
O4 Th4 2.814544 1_555
O5 Ta3 2.036344 1_555
O5 Ta2 2.036344 1_554
O5 Th5 2.814554 1_554
O5 Th7 2.814554 1_555
O6 Ta1 1.918318 1_656
O6 Ta0 1.918318 1_545
O6 Th0 2.820847 1_555
O7 Ta1 1.918318 1_565
O7 Ta0 1.918318 1_455
O7 Th1 2.820847 1_555
O8 Ta2 1.979815 1_555
O8 Ta7 2.073393 1_555
O8 Th4 2.827928 1_555
O8 Th2 2.868889 1_555
O9 Ta3 1.979815 1_555
O9 Ta6 2.073393 1_555
O9 Th5 2.827932 1_554
O9 Th3 2.868889 1_555
O10 Ta3 1.979815 1_555
O10 Ta5 2.073393 1_555
O10 Th6 2.827928 1_555
O10 Th3 2.868889 1_555
O11 Ta2 1.979815 1_555
O11 Ta4 2.073393 1_555
O11 Th7 2.827932 1_556
O11 Th2 2.868889 1_555
O12 Th7 2.241141 1_555
O12 Th1 2.356748 1_555
O12 Th2 2.371670 1_554
O13 Th6 2.241141 1_555
O13 Th0 2.356748 1_555
O13 Th3 2.371670 1_555
O14 Th5 2.241141 1_555
O14 Th0 2.356748 1_555
O14 Th3 2.371670 1_556
O15 Th4 2.241141 1_555
O15 Th1 2.356748 1_555
O15 Th2 2.371670 1_555
O16 Ta1 1.999747 1_566
O16 Th2 2.442653 1_555
O16 Th1 2.481197 1_556
O16 Th5 2.796624 1_455
O17 Ta0 1.999747 1_545
O17 Th3 2.442653 1_555
O17 Th0 2.481197 1_555
O17 Th4 2.796630 1_655
O18 Ta1 1.999747 1_655
O18 Th3 2.442653 1_555
O18 Th0 2.481197 1_554
O18 Th7 2.796624 1_545
O19 Ta0 1.999747 1_455
O19 Th2 2.442653 1_555
O19 Th1 2.481197 1_555
O19 Th6 2.796630 1_565
O20 Ta4 1.956831 1_555
O20 Th0 2.327055 1_565
O20 Th7 2.421701 1_556
O21 Ta5 1.956831 1_555
O21 Th1 2.327055 1_545
O21 Th6 2.421704 1_555
O22 Ta6 1.956831 1_555
O22 Th1 2.327055 1_655
O22 Th5 2.421701 1_554
O23 Ta7 1.956831 1_555
O23 Th0 2.327055 1_455
O23 Th4 2.421704 1_555
O24 Ta4 1.931251 1_555
O24 Th7 2.373920 1_555
O24 Th3 2.482862 1_565
O25 Ta5 1.931251 1_556
O25 Th6 2.373924 1_555
O25 Th2 2.482862 1_545
O26 Ta6 1.931251 1_555
O26 Th5 2.373920 1_555
O26 Th2 2.482862 1_655
O27 Ta7 1.931251 1_554
O27 Th4 2.373924 1_555
O27 Th3 2.482862 1_455
O28 Ta5 1.936481 1_556
O28 Th7 2.453154 1_546
O28 Th3 2.628240 1_556
O28 Th0 2.741241 1_555
O29 Ta4 1.936481 1_555
O29 Th6 2.453164 1_565
O29 Th2 2.628240 1_555
O29 Th1 2.741241 1_555
O30 Ta7 1.936481 1_554
O30 Th5 2.453154 1_454
O30 Th2 2.628240 1_554
O30 Th1 2.741241 1_555
O31 Ta6 1.936481 1_555
O31 Th4 2.453164 1_655
O31 Th3 2.628240 1_555
O31 Th0 2.741241 1_555
O32 Ta3 1.980516 1_555
O32 Ta4 2.002302 1_555
O32 Th7 2.799135 1_555
O33 Ta2 1.980516 1_555
O33 Ta5 2.002302 1_556
O33 Th6 2.799130 1_555
O34 Ta2 1.980516 1_555
O34 Ta6 2.002302 1_555
O34 Th5 2.799135 1_555
O35 Ta3 1.980516 1_555
O35 Ta7 2.002302 1_554
O35 Th4 2.799130 1_555
