# generated using pymatgen
data_MgMnGe
_symmetry_space_group_name_H-M   'P 1'
_cell_length_a   4.01163634
_cell_length_b   4.01163634
_cell_length_c   6.53539268
_cell_angle_alpha   90.00000000
_cell_angle_beta   90.00000000
_cell_angle_gamma   90.00000000
_symmetry_Int_Tables_number   1
_chemical_formula_structural   MgMnGe
_chemical_formula_sum   'Mg2 Mn2 Ge2'
_cell_volume   105.17555221
_cell_formula_units_Z   2
loop_
 _symmetry_equiv_pos_site_id
 _symmetry_equiv_pos_as_xyz
  1  'x, y, z'
loop_
 _atom_site_type_symbol
 _atom_site_label
 _atom_site_symmetry_multiplicity
 _atom_site_fract_x
 _atom_site_fract_y
 _atom_site_fract_z
 _atom_site_occupancy
  Mg  Mg0  1  -0.00000000  0.50000000  0.16393610  1
  Mg  Mg1  1  0.50000000  0.00000000  0.83606390  1
  Mn  Mn0  1  0.00000000  0.00000000  0.50000000  1
  Mn  Mn1  1  0.50000000  0.50000000  0.50000000  1
  Ge  Ge0  1  0.50000000  -0.00000000  0.25449314  1
  Ge  Ge1  1  0.00000000  0.50000000  0.74550686  1
loop_
_geom_bond_atom_site_label_1
_geom_bond_atom_site_label_2
_geom_bond_distance
_geom_bond_site_symmetry_2
Mg0 Mn0 2.974405 1_565
Mg0 Mn0 2.974405 1_555
Mg0 Mn1 2.974405 1_455
Mg0 Mn1 2.974405 1_555
Mg1 Mn0 2.974405 1_655
Mg1 Mn1 2.974405 1_545
Mg1 Mn1 2.974405 1_555
Mg1 Mn0 2.974405 1_555
Ge0 Mn1 2.568594 1_555
Ge0 Mn0 2.568594 1_655
Ge0 Mn1 2.568594 1_545
Ge0 Mn0 2.568594 1_555
Ge0 Mg1 2.734599 1_554
Ge0 Mg0 2.897735 1_555
Ge0 Mg0 2.897735 1_545
Ge0 Mg0 2.897735 1_655
Ge0 Mg0 2.897735 1_645
Ge1 Mn1 2.568594 1_455
Ge1 Mn1 2.568594 1_555
Ge1 Mn0 2.568594 1_565
Ge1 Mn0 2.568594 1_555
Ge1 Mg0 2.734599 1_556
Ge1 Mg1 2.897735 1_455
Ge1 Mg1 2.897735 1_465
Ge1 Mg1 2.897735 1_565
Ge1 Mg1 2.897735 1_555
