# generated using pymatgen
data_Na3Hf3GaSi3(SO8)3
_symmetry_space_group_name_H-M   'P 1'
_cell_length_a   8.87951159
_cell_length_b   8.96508151
_cell_length_c   22.96227142
_cell_angle_alpha   89.99532596
_cell_angle_beta   89.99719854
_cell_angle_gamma   120.09484394
_symmetry_Int_Tables_number   1
_chemical_formula_structural   Na3Hf3GaSi3(SO8)3
_chemical_formula_sum   'Na9 Hf9 Ga3 Si9 S9 O72'
_cell_volume   1581.51363707
_cell_formula_units_Z   3
loop_
 _symmetry_equiv_pos_site_id
 _symmetry_equiv_pos_as_xyz
  1  'x, y, z'
loop_
 _atom_site_type_symbol
 _atom_site_label
 _atom_site_symmetry_multiplicity
 _atom_site_fract_x
 _atom_site_fract_y
 _atom_site_fract_z
 _atom_site_occupancy
  Na  Na0  1  0.35594940  0.35772605  0.24167880  1
  Na  Na1  1  0.64108253  0.62699543  0.75337595  1
  Na  Na2  1  0.97196139  0.29354939  0.41678432  1
  Na  Na3  1  0.99341176  0.00598983  0.49452607  1
  Na  Na4  1  0.99564941  0.98092322  0.00346923  1
  Na  Na5  1  0.66277597  0.34030322  0.82914454  1
  Na  Na6  1  0.66442842  0.31692938  0.32707367  1
  Na  Na7  1  0.29903231  0.65210865  0.16364038  1
  Na  Na8  1  0.28869423  0.64304225  0.66608314  1
  Hf  Hf0  1  0.00768275  0.99306317  0.85081211  1
  Hf  Hf1  1  0.01162196  0.01477077  0.64568839  1
  Hf  Hf2  1  0.00775193  0.00793028  0.14542802  1
  Hf  Hf3  1  0.66548756  0.35319237  0.98073930  1
  Hf  Hf4  1  0.66156046  0.31956332  0.47829052  1
  Hf  Hf5  1  0.34238525  0.65589222  0.02582838  1
  Hf  Hf6  1  0.32866313  0.65101899  0.51815678  1
  Hf  Hf7  1  0.33540222  0.66497156  0.31391207  1
  Hf  Hf8  1  0.32730670  0.65324173  0.81115439  1
  Ga  Ga0  1  0.98703206  0.02786980  0.35199374  1
  Ga  Ga1  1  0.68774313  0.35173080  0.68894193  1
  Ga  Ga2  1  0.69841578  0.35068847  0.17857394  1
  Si  Si0  1  0.98356043  0.29447056  0.24971807  1
  Si  Si1  1  0.30529815  0.28954633  0.74800243  1
  Si  Si2  1  0.00207610  0.70810027  0.74625778  1
  Si  Si3  1  0.95293016  0.33591981  0.58555145  1
  Si  Si4  1  0.96187529  0.63047127  0.08431415  1
  Si  Si5  1  0.38981494  0.33413628  0.09091422  1
  Si  Si6  1  0.63288790  0.67544004  0.91468566  1
  Si  Si7  1  0.62597413  0.95090669  0.41646027  1
  Si  Si8  1  0.33221348  0.36615730  0.41283955  1
  S  S0  1  0.28354604  0.99822537  0.25299454  1
  S  S1  1  0.71592331  0.71356248  0.25318730  1
  S  S2  1  0.71081412  0.00491785  0.75039086  1
  S  S3  1  0.37853295  0.04100871  0.58489356  1
  S  S4  1  0.66616591  0.62289031  0.58466678  1
  S  S5  1  0.66588048  0.04794383  0.08338526  1
  S  S6  1  0.04136023  0.37191273  0.91751278  1
  S  S7  1  0.33764154  0.95396335  0.91727537  1
  S  S8  1  0.04346316  0.67393990  0.41666243  1
  O  O0  1  0.19183995  0.01568814  0.30410734  1
  O  O1  1  0.82110199  0.80018836  0.30533119  1
  O  O2  1  0.96022027  0.19369089  0.31198168  1
  O  O3  1  0.20970025  0.17685705  0.80617833  1
  O  O4  1  0.96366549  0.79726290  0.80338959  1
  O  O5  1  0.81925589  0.02721306  0.80278452  1
  O  O6  1  0.78980055  0.97280948  0.69830664  1
  O  O7  1  0.17702519  0.20595166  0.69219610  1
  O  O8  1  0.01634516  0.82366054  0.68995939  1
  O  O9  1  0.79815771  0.81181034  0.19945981  1
  O  O10  1  0.02379014  0.19438745  0.19746308  1
  O  O11  1  0.18020603  0.97314250  0.19857983  1
  O  O12  1  0.85110640  0.35217126  0.64159090  1
  O  O13  1  0.47866283  0.12399692  0.63757451  1
  O  O14  1  0.63923007  0.52597127  0.63964417  1
  O  O15  1  0.89145561  0.51262928  0.14198524  1
  O  O16  1  0.63749441  0.12376031  0.13606288  1
  O  O17  1  0.49767922  0.34926447  0.15052280  1
  O  O18  1  0.47477735  0.30723565  0.03162659  1
  O  O19  1  0.84426699  0.53453823  0.02634492  1
  O  O20  1  0.69155620  0.15004496  0.03017812  1
  O  O21  1  0.46057855  0.14760394  0.53157816  1
  O  O22  1  0.68213906  0.53216222  0.53356577  1
  O  O23  1  0.84973722  0.32068642  0.52460081  1
  O  O24  1  0.52555713  0.68666586  0.97030301  1
  O  O25  1  0.14527441  0.45980869  0.96964466  1
  O  O26  1  0.31273047  0.85120227  0.96963717  1
  O  O27  1  0.52494261  0.83817117  0.47391199  1
  O  O28  1  0.28760952  0.45689729  0.46829923  1
  O  O29  1  0.14978998  0.69563197  0.46950663  1
  O  O30  1  0.12322636  0.63662501  0.36519980  1
  O  O31  1  0.50363550  0.86496849  0.35950092  1
  O  O32  1  0.35446509  0.48237058  0.35468866  1
  O  O33  1  0.12195498  0.48005743  0.86441239  1
  O  O34  1  0.34846277  0.86613284  0.86400573  1
  O  O35  1  0.52175718  0.65652812  0.85531559  1
  O  O36  1  0.02462966  0.82298090  0.40882676  1
  O  O37  1  0.81855116  0.97009741  0.41169364  1
  O  O38  1  0.15952879  0.17526659  0.40732922  1
  O  O39  1  0.03277212  0.20457838  0.91116549  1
  O  O40  1  0.18357835  0.97968406  0.91198117  1
  O  O41  1  0.82558165  0.84927100  0.91205334  1
  O  O42  1  0.96891358  0.16062916  0.58901979  1
  O  O43  1  0.20085886  0.02280335  0.58670000  1
  O  O44  1  0.82281763  0.79703359  0.58743335  1
  O  O45  1  0.96672487  0.81400788  0.09089161  1
  O  O46  1  0.82019274  0.02512683  0.08986364  1
  O  O47  1  0.19160712  0.16810257  0.09251046  1
  O  O48  1  0.68764247  0.15366898  0.74539200  1
  O  O49  1  0.49757758  0.31254991  0.73835688  1
  O  O50  1  0.82786701  0.51749517  0.74539800  1
  O  O51  1  0.68366373  0.53547836  0.25060596  1
  O  O52  1  0.80591364  0.30436706  0.24067907  1
  O  O53  1  0.45475763  0.15580274  0.24854214  1
  O  O54  1  0.64618333  0.49825437  0.91857739  1
  O  O55  1  0.86362700  0.34595099  0.92182417  1
  O  O56  1  0.49813858  0.12611957  0.92062628  1
  O  O57  1  0.66296112  0.15180246  0.42206630  1
  O  O58  1  0.50893387  0.35987004  0.42319083  1
  O  O59  1  0.87073474  0.51144161  0.42330622  1
  O  O60  1  0.37136895  0.50803360  0.08356555  1
  O  O61  1  0.15797588  0.66128111  0.07405232  1
  O  O62  1  0.50961285  0.87269270  0.07730979  1
  O  O63  1  0.35901188  0.86876300  0.57779400  1
  O  O64  1  0.50933724  0.64304402  0.57795971  1
  O  O65  1  0.14783086  0.50951710  0.58069784  1
  O  O66  1  0.30346323  0.84313287  0.25646163  1
  O  O67  1  0.53753636  0.69902421  0.25541926  1
  O  O68  1  0.16571283  0.48620521  0.25365939  1
  O  O69  1  0.33527344  0.48750135  0.75535215  1
  O  O70  1  0.17608555  0.69336357  0.75505473  1
  O  O71  1  0.53787148  0.84362425  0.75686063  1
loop_
_geom_bond_atom_site_label_1
_geom_bond_atom_site_label_2
_geom_bond_distance
_geom_bond_site_symmetry_2
Na0 O53 2.380007 1_555
Na0 O17 2.462994 1_555
Na0 O68 2.491398 1_555
Na0 O51 2.529600 1_555
Na0 O67 2.667218 1_555
Na0 O10 2.746518 1_555
Na0 O32 2.828063 1_555
Na1 O50 2.319675 1_555
Na1 O69 2.352441 1_555
Na1 O49 2.467253 1_555
Na1 O71 2.530419 1_555
Na1 O35 2.636878 1_555
Na1 O4 2.733011 1_555
Na1 O14 2.761546 1_555
Na1 O6 2.974532 1_555
Na2 O57 2.379306 1_555
Na2 O38 2.390967 1_655
Na2 O37 2.513288 1_545
Na2 O59 2.531223 1_555
Na2 O2 2.551543 1_555
Na2 O28 2.698859 1_655
Na2 O23 2.762394 1_555
Na2 O30 2.919470 1_655
Na3 O37 2.373050 1_545
Na3 O38 2.498410 1_655
Na3 O42 2.642002 1_555
Na3 O36 2.664154 1_645
Na3 O44 2.740136 1_545
Na3 O43 2.759971 1_655
Na4 O45 2.439048 1_555
Na4 O41 2.508595 1_554
Na4 O47 2.663943 1_665
Na4 O46 2.671858 1_565
Na4 O40 2.686307 1_654
Na4 O39 2.820945 1_664
Na5 O50 2.456469 1_555
Na5 O49 2.488764 1_555
Na5 O54 2.540426 1_555
Na5 O48 2.630173 1_555
Na5 O56 2.724106 1_555
Na5 O55 2.760811 1_555
Na6 O52 2.380806 1_555
Na6 O53 2.471491 1_555
Na6 O51 2.571955 1_555
Na6 O57 2.632422 1_555
Na6 O58 2.731047 1_555
Na6 O59 2.842003 1_555
Na7 O61 2.431237 1_555
Na7 O68 2.473808 1_555
Na7 O60 2.508789 1_555
Na7 O66 2.722170 1_555
Na7 O62 2.761781 1_555
Na7 O67 2.865416 1_555
Na8 O65 2.310977 1_555
Na8 O70 2.414433 1_555
Na8 O69 2.625888 1_555
Na8 O63 2.706831 1_555
Na8 O64 2.816498 1_555
Na8 O71 2.912906 1_555
Hf0 O4 1.931874 1_455
Hf0 O3 2.004630 1_565
Hf0 O41 2.040332 1_455
Hf0 O40 2.148191 1_555
Hf0 O5 2.150158 1_465
Hf0 O39 2.267770 1_565
Hf1 O7 1.926429 1_555
Hf1 O8 2.010573 1_545
Hf1 O42 2.010977 1_455
Hf1 O43 2.131150 1_555
Hf1 O6 2.176589 1_445
Hf1 O44 2.264753 1_445
Hf2 O47 1.962702 1_555
Hf2 O10 2.000949 1_555
Hf2 O45 2.022040 1_445
Hf2 O11 2.100196 1_545
Hf2 O46 2.164021 1_455
Hf2 O9 2.193667 1_445
Hf3 O19 1.916257 1_556
Hf3 O18 1.924265 1_556
Hf3 O54 1.995333 1_555
Hf3 O55 2.245908 1_555
Hf3 O20 2.254259 1_556
Hf3 O56 2.285732 1_555
Hf4 O23 1.976403 1_555
Hf4 O57 1.986954 1_555
Hf4 O58 2.014762 1_555
Hf4 O21 2.073421 1_555
Hf4 O59 2.190477 1_555
Hf4 O22 2.219961 1_555
Hf5 O24 1.974048 1_554
Hf5 O60 1.980634 1_555
Hf5 O61 1.997242 1_555
Hf5 O62 2.118076 1_555
Hf5 O25 2.175540 1_554
Hf5 O26 2.293928 1_554
Hf6 O28 1.958671 1_555
Hf6 O27 1.987917 1_555
Hf6 O65 2.050997 1_555
Hf6 O29 2.137245 1_555
Hf6 O64 2.140052 1_555
Hf6 O63 2.287241 1_555
Hf7 O31 1.963807 1_555
Hf7 O32 1.965423 1_555
Hf7 O68 2.081306 1_555
Hf7 O30 2.126175 1_555
Hf7 O67 2.137492 1_555
Hf7 O66 2.196774 1_555
Hf8 O35 1.989860 1_555
Hf8 O69 1.990074 1_555
Hf8 O70 2.018979 1_555
Hf8 O33 2.095545 1_555
Hf8 O71 2.182274 1_555
Hf8 O34 2.188976 1_555
Ga0 O2 1.861593 1_555
Ga0 O37 1.899524 1_545
Ga0 O38 1.917649 1_655
Ga0 O1 2.114189 1_545
Ga0 O0 2.174233 1_655
Ga0 O36 2.408975 1_645
Ga1 O12 1.811218 1_555
Ga1 O50 1.892950 1_555
Ga1 O49 1.914965 1_555
Ga1 O14 2.140478 1_555
Ga1 O48 2.197982 1_555
Ga1 O13 2.281591 1_555
Ga2 O15 1.804368 1_555
Ga2 O52 1.874789 1_555
Ga2 O17 1.889298 1_555
Ga2 O16 2.069081 1_555
Ga2 O51 2.390712 1_555
Ga2 O53 2.554040 1_555
O0 S0 1.480838 1_545
O1 S1 1.477114 1_555
O2 Si0 1.647822 1_555
O3 Si1 1.632587 1_555
O4 Si2 1.658267 1_655
O5 S2 1.490530 1_555
O6 S2 1.485785 1_565
O7 Si1 1.626441 1_555
O8 Si2 1.621315 1_555
O9 S1 1.478432 1_555
O10 Si0 1.641336 1_455
O11 S0 1.499003 1_555
O12 Si3 1.620669 1_555
O13 S3 1.464314 1_555
O14 S4 1.482301 1_555
O15 Si4 1.611821 1_555
O16 S5 1.469887 1_555
O17 Si5 1.636796 1_555
O18 Si5 1.631896 1_555
O19 Si4 1.643682 1_555
O20 S5 1.474120 1_555
O21 S3 1.498092 1_555
O22 S4 1.474586 1_555
O23 Si3 1.640641 1_555
O24 Si6 1.626500 1_555
O25 S6 1.475257 1_555
O26 S7 1.462435 1_555
O27 Si7 1.630033 1_555
O28 Si8 1.662414 1_555
O29 S8 1.489166 1_555
O30 S8 1.499183 1_555
O31 Si7 1.626425 1_555
O32 Si8 1.643405 1_555
O33 S6 1.497575 1_555
O34 S7 1.483733 1_555
O35 Si6 1.641154 1_555
O36 S8 1.438656 1_555
O37 Si7 1.634192 1_555
O38 Si8 1.632279 1_555
O39 S6 1.470668 1_555
O40 S7 1.501916 1_555
O41 Si6 1.638828 1_555
O42 Si3 1.649162 1_555
O43 S3 1.503040 1_555
O44 S4 1.482713 1_555
O45 Si4 1.631275 1_555
O46 S5 1.490830 1_555
O47 Si5 1.639292 1_555
O48 S2 1.452259 1_555
O49 Si1 1.628945 1_555
O50 Si2 1.631670 1_655
O51 S1 1.475087 1_555
O52 Si0 1.636942 1_555
O53 S0 1.470890 1_545
O54 Si6 1.653255 1_555
O55 S6 1.478596 1_655
O56 S7 1.487676 1_545
O57 Si7 1.665845 1_545
O58 Si8 1.615787 1_555
O59 S8 1.502366 1_655
O60 Si5 1.655849 1_555
O61 Si4 1.637520 1_455
O62 S5 1.492330 1_565
O63 S3 1.474034 1_565
O64 S4 1.499313 1_555
O65 Si3 1.651796 1_455
O66 S0 1.489116 1_555
O67 S1 1.523674 1_555
O68 Si0 1.670563 1_455
O69 Si1 1.665883 1_555
O70 Si2 1.628004 1_555
O71 S2 1.498080 1_565
