# generated using pymatgen
data_K6MgCu(SiO4)2
_symmetry_space_group_name_H-M   'P 1'
_cell_length_a   6.43507229
_cell_length_b   7.47740569
_cell_length_c   7.38811400
_cell_angle_alpha   83.09795904
_cell_angle_beta   84.61076432
_cell_angle_gamma   74.73637296
_symmetry_Int_Tables_number   1
_chemical_formula_structural   K6MgCu(SiO4)2
_chemical_formula_sum   'K6 Mg1 Cu1 Si2 O8'
_cell_volume   339.75219799
_cell_formula_units_Z   1
loop_
 _symmetry_equiv_pos_site_id
 _symmetry_equiv_pos_as_xyz
  1  'x, y, z'
loop_
 _atom_site_type_symbol
 _atom_site_label
 _atom_site_symmetry_multiplicity
 _atom_site_fract_x
 _atom_site_fract_y
 _atom_site_fract_z
 _atom_site_occupancy
  K  K0  1  0.63028800  0.85960200  0.16518800  1
  K  K1  1  0.78954400  0.35365700  0.96837800  1
  K  K2  1  0.29905200  0.83636500  0.58731800  1
  K  K3  1  0.82740000  0.11167600  0.46106700  1
  K  K4  1  0.17729100  0.71081500  0.01526000  1
  K  K5  1  0.34094200  0.19856000  0.82273100  1
  Mg  Mg0  1  0.40760700  0.43299400  0.38718600  1
  Cu  Cu0  1  0.97905600  0.53410900  0.48660300  1
  Si  Si0  1  0.77512600  0.76729600  0.73312500  1
  Si  Si1  1  0.22052100  0.23542900  0.25680200  1
  O  O0  1  0.56989900  0.72087200  0.86403700  1
  O  O1  1  0.84494200  0.94554000  0.80147100  1
  O  O2  1  0.17796600  0.06032900  0.17049200  1
  O  O3  1  0.99372200  0.57861100  0.73824300  1
  O  O4  1  0.40921000  0.33205000  0.14201300  1
  O  O5  1  0.99406400  0.41034700  0.27234600  1
  O  O6  1  0.72232200  0.80207300  0.51343300  1
  O  O7  1  0.32021600  0.18967600  0.46430900  1
loop_
_geom_bond_atom_site_label_1
_geom_bond_atom_site_label_2
_geom_bond_distance
_geom_bond_site_symmetry_2
K0 O6 2.653594 1_555
K0 O0 2.665863 1_554
K0 O2 2.901564 1_565
K0 O1 2.982783 1_554
K1 O4 2.688964 1_556
K1 O3 2.739204 1_555
K1 O0 2.789990 1_555
K1 O5 2.834243 1_556
K1 O2 3.211773 1_656
K1 O1 3.348039 1_545
K2 O6 2.677552 1_555
K2 O7 2.722680 1_565
K2 O0 2.723187 1_555
K2 O3 3.143926 1_455
K3 O6 2.554616 1_545
K3 O1 2.666367 1_545
K3 O5 2.883345 1_555
K3 O2 2.945788 1_655
K4 O0 2.680771 1_554
K4 O3 2.848963 1_454
K4 O1 2.853271 1_454
K4 O4 2.919777 1_555
K4 O2 2.978723 1_565
K4 O5 3.161345 1_455
K5 O7 2.673523 1_555
K5 O4 2.783007 1_556
K5 O2 2.862843 1_556
K5 O3 3.154414 1_455
K5 O1 3.296648 1_545
Mg0 O4 2.042515 1_555
Mg0 O7 2.044617 1_555
Cu0 O5 1.909916 1_555
Cu0 O3 1.942740 1_555
Cu0 O6 2.252656 1_555
O0 Si0 1.649493 1_555
O1 Si0 1.659162 1_555
O2 Si1 1.618056 1_555
O3 Si0 1.709666 1_555
O4 Si1 1.684263 1_555
O5 Si1 1.687784 1_655
O6 Si0 1.665293 1_555
O7 Si1 1.679912 1_555
