# generated using pymatgen
data_Dy(NiGe)2
_symmetry_space_group_name_H-M   'P 1'
_cell_length_a   4.03567998
_cell_length_b   4.03567943
_cell_length_c   5.62201150
_cell_angle_alpha   111.03374606
_cell_angle_beta   111.03372435
_cell_angle_gamma   90.00000377
_symmetry_Int_Tables_number   1
_chemical_formula_structural   Dy(NiGe)2
_chemical_formula_sum   'Dy1 Ni2 Ge2'
_cell_volume   78.89170117
_cell_formula_units_Z   1
loop_
 _symmetry_equiv_pos_site_id
 _symmetry_equiv_pos_as_xyz
  1  'x, y, z'
loop_
 _atom_site_type_symbol
 _atom_site_label
 _atom_site_symmetry_multiplicity
 _atom_site_fract_x
 _atom_site_fract_y
 _atom_site_fract_z
 _atom_site_occupancy
  Dy  Dy0  1  0.00000000  0.00000000  0.00000000  1
  Ni  Ni0  1  0.75000000  0.25000000  0.50000000  1
  Ni  Ni1  1  0.25000000  0.75000000  0.50000000  1
  Ge  Ge0  1  0.62882472  0.62882472  0.25764845  1
  Ge  Ge1  1  0.37117528  0.37117528  0.74235155  1
loop_
_geom_bond_atom_site_label_1
_geom_bond_atom_site_label_2
_geom_bond_distance
_geom_bond_site_symmetry_2
Dy0 Ge0 3.114630 1_445
Dy0 Ge1 3.114630 1_554
Dy0 Ge1 3.114633 1_544
Dy0 Ge0 3.114633 1_455
Dy0 Ge0 3.114633 1_545
Dy0 Ge1 3.114633 1_454
Dy0 Ge1 3.114636 1_444
Dy0 Ge0 3.114636 1_555
Dy0 Ni1 3.152394 1_544
Dy0 Ni0 3.152394 1_455
Dy0 Ni1 3.152395 1_555
Dy0 Ni0 3.152395 1_444
Dy0 Ni0 3.152395 1_454
Dy0 Ni1 3.152395 1_545
Dy0 Ni0 3.152396 1_555
Dy0 Ni1 3.152396 1_444
Ge0 Ni0 2.334479 1_565
Ge0 Ni1 2.334479 1_655
Ge0 Ni1 2.334482 1_555
Ge0 Ni0 2.334482 1_555
Ge0 Ge1 2.496063 1_554
Ge1 Ni1 2.334479 1_545
Ge1 Ni0 2.334479 1_455
Ge1 Ni0 2.334482 1_555
Ge1 Ni1 2.334482 1_555
