# generated using pymatgen
data_Na10Zn4Si5Ge4S7O48
_symmetry_space_group_name_H-M   'P 1'
_cell_length_a   17.65813342
_cell_length_b   8.83634588
_cell_length_c   22.00591884
_cell_angle_alpha   89.46273564
_cell_angle_beta   89.91492092
_cell_angle_gamma   119.86351575
_symmetry_Int_Tables_number   1
_chemical_formula_structural   Na10Zn4Si5Ge4S7O48
_chemical_formula_sum   'Na30 Zn12 Si15 Ge12 S21 O144'
_cell_volume   2977.51018678
_cell_formula_units_Z   3
loop_
 _symmetry_equiv_pos_site_id
 _symmetry_equiv_pos_as_xyz
  1  'x, y, z'
loop_
 _atom_site_type_symbol
 _atom_site_label
 _atom_site_symmetry_multiplicity
 _atom_site_fract_x
 _atom_site_fract_y
 _atom_site_fract_z
 _atom_site_occupancy
  Na  Na0  1  0.32318130  0.01935774  0.25146776  1
  Na  Na1  1  0.68138590  0.35314138  0.25416744  1
  Na  Na2  1  0.99772540  0.63260623  0.24357877  1
  Na  Na3  1  0.49765611  0.63021887  0.24203651  1
  Na  Na4  1  0.32074460  0.62363522  0.75354716  1
  Na  Na5  1  0.82078673  0.62340030  0.75265763  1
  Na  Na6  1  0.99672612  0.36477874  0.74236121  1
  Na  Na7  1  0.49685855  0.36463395  0.74236940  1
  Na  Na8  1  0.18094642  0.01042548  0.75312643  1
  Na  Na9  1  0.68157883  0.01086667  0.75254339  1
  Na  Na10  1  0.33365753  0.96650532  0.57642140  1
  Na  Na11  1  0.83333657  0.96592790  0.57547755  1
  Na  Na12  1  0.33352374  0.70118108  0.07657942  1
  Na  Na13  1  0.83206639  0.69895870  0.07546932  1
  Na  Na14  1  0.48283464  0.67792595  0.91260642  1
  Na  Na15  1  0.98304466  0.67842873  0.91191961  1
  Na  Na16  1  0.48580813  0.29052620  0.41073510  1
  Na  Na17  1  0.16480577  0.02949176  0.41036406  1
  Na  Na18  1  0.99015393  -0.00001085  0.49600860  1
  Na  Na19  1  0.50124538  0.99370536  0.49622932  1
  Na  Na20  1  0.99880151  0.00586717  0.99491495  1
  Na  Na21  1  0.49806668  0.00472084  0.99632889  1
  Na  Na22  1  0.32725238  0.33469725  0.83214384  1
  Na  Na23  1  0.82754008  0.33538445  0.83150895  1
  Na  Na24  1  0.32856798  0.33216945  0.32718999  1
  Na  Na25  1  0.82470782  0.30277949  0.33299002  1
  Na  Na26  1  0.15703738  0.65996738  0.16134274  1
  Na  Na27  1  0.65815474  0.67669098  0.16200540  1
  Na  Na28  1  0.15378938  0.64209285  0.66071893  1
  Na  Na29  1  0.65548161  0.64375785  0.65979505  1
  Zn  Zn0  1  0.99532561  0.00304312  0.35248121  1
  Zn  Zn1  1  0.50172851  0.00581288  0.34978415  1
  Zn  Zn2  1  0.99883921  0.99238995  0.85061365  1
  Zn  Zn3  1  0.49850931  0.99229693  0.85077423  1
  Zn  Zn4  1  0.34051313  0.34997701  0.68433665  1
  Zn  Zn5  1  0.84065940  0.35136382  0.68335962  1
  Zn  Zn6  1  0.33733332  0.33037670  0.18541244  1
  Zn  Zn7  1  0.83544098  0.32283028  0.18349909  1
  Zn  Zn8  1  0.16431427  0.66961766  0.01790689  1
  Zn  Zn9  1  0.66360271  0.66885795  0.01769714  1
  Zn  Zn10  1  0.16289348  0.65429069  0.51830776  1
  Zn  Zn11  1  0.66707746  0.65995488  0.51687678  1
  Si  Si0  1  0.14563416  0.00249518  0.25561445  1
  Si  Si1  1  0.65056355  0.00495392  0.25289584  1
  Si  Si2  1  0.50341856  0.29342834  0.25215837  1
  Si  Si3  1  0.14630551  0.29131066  0.75287688  1
  Si  Si4  1  0.64685865  0.29221706  0.75330537  1
  Si  Si5  1  0.00266533  0.71340431  0.75233931  1
  Si  Si6  1  0.50291525  0.71385454  0.75239781  1
  Si  Si7  1  0.48519465  0.33221942  0.58683838  1
  Si  Si8  1  0.98325364  0.33131565  0.58707438  1
  Si  Si9  1  0.48349761  0.63542433  0.08690722  1
  Si  Si10  1  0.98202603  0.62542635  0.08662574  1
  Si  Si11  1  0.31021757  0.66907167  0.92056520  1
  Si  Si12  1  0.81031434  0.66989924  0.92039414  1
  Si  Si13  1  0.31430034  0.95657386  0.42247105  1
  Si  Si14  1  0.81142315  0.95295228  0.41921331  1
  Ge  Ge0  1  0.01370429  0.02478480  0.65050915  1
  Ge  Ge1  1  0.51711256  0.02853686  0.65042372  1
  Ge  Ge2  1  0.00810403  0.98643464  0.14756711  1
  Ge  Ge3  1  0.51534492  0.00466354  0.15085982  1
  Ge  Ge4  1  0.33282262  0.35681222  0.98481552  1
  Ge  Ge5  1  0.83287287  0.35522387  0.98287070  1
  Ge  Ge6  1  0.34085771  0.32334597  0.48432407  1
  Ge  Ge7  1  0.83611887  0.30474024  0.48154985  1
  Ge  Ge8  1  0.17031634  0.68620978  0.31876472  1
  Ge  Ge9  1  0.66819169  0.68606832  0.31235805  1
  Ge  Ge10  1  0.16323635  0.64624141  0.81427416  1
  Ge  Ge11  1  0.66317017  0.64591804  0.81427657  1
  S  S0  1  0.34907490  0.70677748  0.25161048  1
  S  S1  1  0.85334946  0.71415399  0.24956632  1
  S  S2  1  0.00441658  0.29238067  0.24968118  1
  S  S3  1  0.35198916  0.99335309  0.75005471  1
  S  S4  1  0.85201528  0.99357793  0.75035457  1
  S  S5  1  0.18548941  0.04563801  0.58414000  1
  S  S6  1  0.68597427  0.04544584  0.58470829  1
  S  S7  1  0.33603360  0.62382891  0.58211003  1
  S  S8  1  0.83636951  0.62497305  0.58228171  1
  S  S9  1  0.33578006  0.04925955  0.08265369  1
  S  S10  1  0.83738235  0.04893583  0.08303114  1
  S  S11  1  0.18457215  0.32372548  0.08584162  1
  S  S12  1  0.68500576  0.32610833  0.08425243  1
  S  S13  1  0.01757395  0.37056292  0.91816716  1
  S  S14  1  0.51746814  0.37024096  0.91805848  1
  S  S15  1  0.17267775  0.96821203  0.91775887  1
  S  S16  1  0.67285735  0.96874081  0.91779926  1
  S  S17  1  0.17043661  0.38176642  0.41692489  1
  S  S18  1  0.67339617  0.37711802  0.41777476  1
  S  S19  1  0.01648046  0.65659141  0.41765277  1
  S  S20  1  0.51794052  0.66454000  0.41793270  1
  O  O0  1  0.10087895  0.01791481  0.31603638  1
  O  O1  1  0.60551469  0.03754180  0.30963600  1
  O  O2  1  0.40313648  0.78471180  0.30469528  1
  O  O3  1  0.90862910  0.79423008  0.30153934  1
  O  O4  1  0.47917709  0.17671597  0.31231506  1
  O  O5  1  0.99169253  0.19077210  0.30439728  1
  O  O6  1  0.10281240  0.17041150  0.81033870  1
  O  O7  1  0.60250443  0.16999142  0.81027434  1
  O  O8  1  0.47925189  0.78073849  0.81223658  1
  O  O9  1  0.97939941  0.78076001  0.81230796  1
  O  O10  1  0.40608026  0.02672552  0.80336363  1
  O  O11  1  0.90613382  0.02663754  0.80361728  1
  O  O12  1  0.39079193  0.96047895  0.69393659  1
  O  O13  1  0.89087187  0.96029749  0.69416801  1
  O  O14  1  0.08179240  0.21768440  0.69164779  1
  O  O15  1  0.58246877  0.22046787  0.69185581  1
  O  O16  1  0.02344971  0.85175974  0.69152595  1
  O  O17  1  0.52320918  0.85170677  0.69129692  1
  O  O18  1  0.38627597  0.81913910  0.19497883  1
  O  O19  1  0.89135918  0.82175055  0.19109939  1
  O  O20  1  0.01659932  0.21032647  0.19278788  1
  O  O21  1  0.52255455  0.19411734  0.19164235  1
  O  O22  1  0.07817762  0.94956316  0.19519147  1
  O  O23  1  0.58423668  0.94879343  0.19163859  1
  O  O24  1  0.43786748  0.34581135  0.64628382  1
  O  O25  1  0.93906789  0.34635579  0.64800001  1
  O  O26  1  0.23744137  0.12733771  0.63805420  1
  O  O27  1  0.73591295  0.12371633  0.63980839  1
  O  O28  1  0.32216964  0.52461189  0.63854565  1
  O  O29  1  0.82268766  0.52772525  0.63959069  1
  O  O30  1  0.43685502  0.52752800  0.14676387  1
  O  O31  1  0.93638242  0.52229532  0.14799373  1
  O  O32  1  0.32279970  0.12088756  0.13873018  1
  O  O33  1  0.82338303  0.12185413  0.13779205  1
  O  O34  1  0.23802321  0.34620509  0.13852619  1
  O  O35  1  0.73651091  0.35010010  0.13884440  1
  O  O36  1  0.22192956  0.28901730  0.02821486  1
  O  O37  1  0.72609956  0.29399227  0.02828563  1
  O  O38  1  0.41506656  0.54605150  0.02533838  1
  O  O39  1  0.91403604  0.53890699  0.02572415  1
  O  O40  1  0.34624490  0.16323284  0.02675089  1
  O  O41  1  0.84907151  0.15901097  0.02655159  1
  O  O42  1  0.22632045  0.15578021  0.52634051  1
  O  O43  1  0.72666155  0.15852243  0.52856243  1
  O  O44  1  0.34675499  0.53152961  0.52645741  1
  O  O45  1  0.84661210  0.53402946  0.52796162  1
  O  O46  1  0.41712494  0.28418364  0.52535541  1
  O  O47  1  0.91259963  0.28151063  0.52794484  1
  O  O48  1  0.26635085  0.68196411  0.98179803  1
  O  O49  1  0.76624029  0.68229755  0.98163207  1
  O  O50  1  0.07050736  0.45507082  0.97061721  1
  O  O51  1  0.57075796  0.45474229  0.97040547  1
  O  O52  1  0.15635074  0.85336392  0.97001539  1
  O  O53  1  0.65713795  0.85465497  0.97004119  1
  O  O54  1  0.26508479  0.85033958  0.48192506  1
  O  O55  1  0.77025604  0.85417201  0.48209270  1
  O  O56  1  0.15757691  0.45791841  0.47084670  1
  O  O57  1  0.65613977  0.45836576  0.46926680  1
  O  O58  1  0.07288152  0.68437491  0.46917704  1
  O  O59  1  0.56963302  0.68412566  0.47119932  1
  O  O60  1  0.05517937  0.62437186  0.35892652  1
  O  O61  1  0.55375521  0.62242032  0.36085459  1
  O  O62  1  0.24936989  0.87535762  0.35990024  1
  O  O63  1  0.74533655  0.85709766  0.35877072  1
  O  O64  1  0.18285834  0.49273340  0.35926544  1
  O  O65  1  0.68471400  0.47886450  0.35918925  1
  O  O66  1  0.05500805  0.48718896  0.85991240  1
  O  O67  1  0.55513638  0.48745182  0.85972469  1
  O  O68  1  0.18450941  0.88950390  0.85975704  1
  O  O69  1  0.68508801  0.89122111  0.85984586  1
  O  O70  1  0.24862754  0.63618333  0.85690074  1
  O  O71  1  0.74853683  0.63666976  0.85698588  1
  O  O72  1  0.00851723  0.81316033  0.41101605  1
  O  O73  1  0.50493838  0.81269293  0.40989393  1
  O  O74  1  0.41197159  0.99111410  0.41623876  1
  O  O75  1  0.90859243  0.98426684  0.41059447  1
  O  O76  1  0.09595630  0.20391524  0.41151016  1
  O  O77  1  0.59681427  0.20057996  0.41415761  1
  O  O78  1  0.00705660  0.19889269  0.91017188  1
  O  O79  1  0.50719383  0.19869561  0.91001496  1
  O  O80  1  0.09580989  0.99101900  0.91386718  1
  O  O81  1  0.59621763  0.99193398  0.91391797  1
  O  O82  1  0.40902614  0.83030491  0.91459305  1
  O  O83  1  0.90916226  0.83096874  0.91472655  1
  O  O84  1  0.48420743  0.13476183  0.59105513  1
  O  O85  1  0.98381593  0.13564362  0.59100258  1
  O  O86  1  0.09702496  0.03181594  0.58554381  1
  O  O87  1  0.59694220  0.03177288  0.58611736  1
  O  O88  1  0.41699980  0.79751599  0.58317133  1
  O  O89  1  0.91739383  0.80129577  0.58445534  1
  O  O90  1  0.48384105  0.83303536  0.09157899  1
  O  O91  1  0.98327570  0.82355385  0.08887280  1
  O  O92  1  0.41695181  0.03611584  0.08379628  1
  O  O93  1  0.92031612  0.03610511  0.08619563  1
  O  O94  1  0.09415279  0.16182968  0.08924526  1
  O  O95  1  0.59684343  0.16311958  0.08604081  1
  O  O96  1  0.33630695  0.14164364  0.74350062  1
  O  O97  1  0.83641451  0.14167159  0.74370033  1
  O  O98  1  0.24266686  0.31658331  0.74301839  1
  O  O99  1  0.74286570  0.31660851  0.74326671  1
  O  O100  1  0.42297487  0.51770680  0.74540391  1
  O  O101  1  0.92263842  0.51745587  0.74566290  1
  O  O102  1  0.33617722  0.53150023  0.24462363  1
  O  O103  1  0.84185510  0.53734039  0.24437056  1
  O  O104  1  0.42315974  0.32965184  0.24525153  1
  O  O105  1  0.92921532  0.32177112  0.24500522  1
  O  O106  1  0.24315145  0.15874924  0.24486245  1
  O  O107  1  0.74446637  0.17800342  0.24320089  1
  O  O108  1  0.32038496  0.48233236  0.92288429  1
  O  O109  1  0.82076445  0.48372418  0.92230288  1
  O  O110  1  0.42942049  0.36189970  0.92157608  1
  O  O111  1  0.92920260  0.36211753  0.92150436  1
  O  O112  1  0.25573761  0.14181234  0.92309957  1
  O  O113  1  0.75641413  0.14336550  0.92334315  1
  O  O114  1  0.31873637  0.16008129  0.42399660  1
  O  O115  1  0.81770012  0.15389078  0.42169946  1
  O  O116  1  0.25264138  0.36795652  0.41954864  1
  O  O117  1  0.75684142  0.37030307  0.42365073  1
  O  O118  1  0.42778517  0.49382963  0.42252064  1
  O  O119  1  0.92793102  0.49652518  0.42204581  1
  O  O120  1  0.17549688  0.47872647  0.07912227  1
  O  O121  1  0.67575955  0.48064111  0.07766248  1
  O  O122  1  0.07760485  0.65351879  0.07731027  1
  O  O123  1  0.57856563  0.66002231  0.07656392  1
  O  O124  1  0.26035964  0.87100937  0.07797854  1
  O  O125  1  0.76327008  0.87007976  0.07814575  1
  O  O126  1  0.17667474  0.87244060  0.57889495  1
  O  O127  1  0.67632661  0.87190754  0.57892889  1
  O  O128  1  0.26053506  0.65113592  0.57703530  1
  O  O129  1  0.76061680  0.65311774  0.57830890  1
  O  O130  1  0.07790625  0.49727476  0.57714628  1
  O  O131  1  0.57915369  0.49853485  0.57597194  1
  O  O132  1  0.15085653  0.80991730  0.25836038  1
  O  O133  1  0.65194661  0.81638308  0.25578143  1
  O  O134  1  0.25998397  0.69790881  0.25696050  1
  O  O135  1  0.76393265  0.69383015  0.25328028  1
  O  O136  1  0.08603609  0.47224845  0.25314695  1
  O  O137  1  0.59725714  0.49000893  0.25970371  1
  O  O138  1  0.15400222  0.48969502  0.75626019  1
  O  O139  1  0.65410690  0.49002725  0.75641850  1
  O  O140  1  0.09685385  0.70432930  0.75987772  1
  O  O141  1  0.59698390  0.70481811  0.75994816  1
  O  O142  1  0.26355215  0.82923515  0.75449744  1
  O  O143  1  0.76370838  0.82926699  0.75459859  1
loop_
_geom_bond_atom_site_label_1
_geom_bond_atom_site_label_2
_geom_bond_distance
_geom_bond_site_symmetry_2
Na0 O106 2.294778 1_555
Na0 O104 2.413493 1_555
Na0 O134 2.482839 1_545
Na0 O32 2.631367 1_555
Na0 O132 2.663192 1_545
Na0 O62 2.700708 1_545
Na0 O4 2.746930 1_555
Na0 O18 2.813674 1_545
Na1 O107 2.327421 1_555
Na1 O137 2.340053 1_555
Na1 O103 2.474570 1_555
Na1 O65 2.561709 1_555
Na1 O135 2.610873 1_555
Na1 O1 2.696758 1_555
Na1 O35 2.721876 1_555
Na1 O21 2.802993 1_555
Na2 O31 2.354067 1_555
Na2 O132 2.380200 1_655
Na2 O105 2.387002 1_555
Na2 O103 2.444732 1_555
Na2 O136 2.584528 1_655
Na2 O22 2.640709 1_655
Na2 O60 2.748709 1_655
Na2 O3 2.899569 1_555
Na3 O104 2.303518 1_555
Na3 O30 2.333199 1_555
Na3 O133 2.401839 1_555
Na3 O102 2.533036 1_555
Na3 O137 2.634846 1_555
Na3 O23 2.672493 1_555
Na3 O61 2.809805 1_555
Na3 O2 2.974585 1_555
Na4 O98 2.367174 1_555
Na4 O100 2.419067 1_555
Na4 O142 2.479674 1_555
Na4 O138 2.569310 1_555
Na4 O70 2.635066 1_555
Na4 O28 2.689618 1_555
Na4 O8 2.757553 1_555
Na4 O12 2.892339 1_555
Na5 O99 2.362559 1_555
Na5 O101 2.411091 1_555
Na5 O143 2.480741 1_555
Na5 O139 2.569355 1_555
Na5 O29 2.640865 1_555
Na5 O71 2.656616 1_555
Na5 O9 2.769076 1_555
Na5 O13 2.881818 1_555
Na6 O25 2.285287 1_555
Na6 O101 2.301332 1_555
Na6 O138 2.445570 1_655
Na6 O97 2.518303 1_555
Na6 O140 2.649094 1_655
Na6 O14 2.675402 1_655
Na6 O66 2.805810 1_655
Na6 O11 2.908930 1_555
Na7 O100 2.301071 1_555
Na7 O24 2.329001 1_555
Na7 O139 2.445086 1_555
Na7 O96 2.521180 1_555
Na7 O141 2.653795 1_555
Na7 O15 2.661420 1_555
Na7 O67 2.802571 1_555
Na7 O10 2.904910 1_555
Na8 O140 2.352631 1_545
Na8 O98 2.368071 1_555
Na8 O96 2.396098 1_555
Na8 O68 2.583043 1_545
Na8 O142 2.648961 1_545
Na8 O26 2.718812 1_555
Na8 O6 2.730905 1_555
Na8 O16 2.775163 1_545
Na9 O141 2.353600 1_545
Na9 O99 2.364116 1_555
Na9 O97 2.386681 1_555
Na9 O69 2.591548 1_545
Na9 O143 2.645126 1_545
Na9 O27 2.657668 1_555
Na9 O7 2.743019 1_555
Na9 O17 2.782972 1_545
Na10 O84 2.335981 1_565
Na10 O54 2.377772 1_555
Na10 O128 2.418479 1_555
Na10 O126 2.466190 1_555
Na10 O88 2.569562 1_555
Na10 O46 2.670336 1_565
Na10 O12 2.786917 1_555
Na11 O55 2.321303 1_555
Na11 O85 2.338849 1_565
Na11 O129 2.398926 1_555
Na11 O127 2.467201 1_555
Na11 O89 2.550350 1_555
Na11 O47 2.623627 1_565
Na11 O13 2.812904 1_555
Na12 O90 2.332781 1_555
Na12 O48 2.366336 1_554
Na12 O124 2.419412 1_555
Na12 O120 2.487704 1_555
Na12 O92 2.573363 1_565
Na12 O38 2.685818 1_555
Na12 O18 2.798914 1_555
Na13 O49 2.340790 1_554
Na13 O91 2.347195 1_555
Na13 O125 2.365675 1_555
Na13 O121 2.457077 1_555
Na13 O93 2.598145 1_565
Na13 O39 2.712287 1_555
Na13 O19 2.770662 1_555
Na14 O82 2.293931 1_555
Na14 O8 2.393296 1_555
Na14 O110 2.468365 1_555
Na14 O81 2.485470 1_555
Na14 O108 2.514021 1_555
Na14 O38 2.737222 1_556
Na14 O67 2.826537 1_555
Na14 O53 2.961647 1_555
Na15 O83 2.296791 1_555
Na15 O9 2.376565 1_555
Na15 O111 2.470339 1_555
Na15 O80 2.474151 1_655
Na15 O109 2.510899 1_555
Na15 O39 2.777346 1_556
Na15 O66 2.819693 1_655
Na15 O52 2.954115 1_655
Na16 O74 2.296220 1_545
Na16 O4 2.374910 1_555
Na16 O77 2.455691 1_555
Na16 O118 2.487016 1_555
Na16 O114 2.592673 1_555
Na16 O61 2.770713 1_555
Na16 O46 2.785097 1_555
Na16 O57 2.917209 1_555
Na17 O0 2.342962 1_555
Na17 O114 2.386441 1_555
Na17 O76 2.391839 1_555
Na17 O72 2.452811 1_545
Na17 O116 2.604609 1_555
Na17 O62 2.714186 1_545
Na17 O42 2.791640 1_555
Na17 O58 2.932546 1_545
Na18 O75 2.332419 1_545
Na18 O85 2.449322 1_555
Na18 O89 2.490706 1_545
Na18 O76 2.601790 1_655
Na18 O72 2.630199 1_645
Na18 O86 2.648660 1_655
Na19 O74 2.357366 1_555
Na19 O88 2.497982 1_555
Na19 O77 2.511625 1_565
Na19 O73 2.516484 1_555
Na19 O87 2.517490 1_565
Na19 O84 2.533552 1_565
Na20 O83 2.372988 1_545
Na20 O78 2.469829 1_655
Na20 O80 2.520249 1_645
Na20 O93 2.529355 1_556
Na20 O91 2.538017 1_546
Na20 O94 2.607000 1_656
Na21 O82 2.393698 1_545
Na21 O92 2.496186 1_556
Na21 O79 2.496915 1_555
Na21 O90 2.513442 1_546
Na21 O81 2.548535 1_545
Na21 O95 2.555307 1_556
Na22 O98 2.424805 1_555
Na22 O108 2.430960 1_555
Na22 O112 2.508186 1_555
Na22 O100 2.515167 1_555
Na22 O110 2.602552 1_555
Na22 O96 2.659672 1_555
Na23 O99 2.408637 1_555
Na23 O109 2.434968 1_555
Na23 O101 2.494021 1_555
Na23 O113 2.519187 1_555
Na23 O111 2.607215 1_555
Na23 O97 2.648886 1_555
Na24 O106 2.379885 1_555
Na24 O104 2.463846 1_555
Na24 O102 2.474934 1_555
Na24 O116 2.540574 1_555
Na24 O114 2.560461 1_555
Na24 O118 2.661902 1_555
Na25 O115 2.312144 1_555
Na25 O107 2.370828 1_555
Na25 O117 2.549465 1_555
Na25 O105 2.618662 1_555
Na25 O119 2.657034 1_555
Na25 O103 2.736450 1_555
Na26 O122 2.306575 1_555
Na26 O136 2.502649 1_555
Na26 O120 2.552888 1_555
Na26 O132 2.553821 1_555
Na26 O124 2.590241 1_555
Na26 O134 2.694826 1_555
Na27 O123 2.310616 1_555
Na27 O133 2.444606 1_555
Na27 O125 2.557905 1_555
Na27 O137 2.580663 1_555
Na27 O121 2.671614 1_555
Na27 O135 2.698393 1_555
Na28 O130 2.271370 1_555
Na28 O138 2.487130 1_555
Na28 O140 2.577071 1_555
Na28 O126 2.580398 1_555
Na28 O128 2.605289 1_555
Na28 O142 2.762967 1_555
Na29 O131 2.279301 1_555
Na29 O139 2.505958 1_555
Na29 O129 2.550158 1_555
Na29 O127 2.560918 1_555
Na29 O141 2.605022 1_555
Na29 O143 2.765484 1_555
Ge0 O14 1.778140 1_555
Ge0 O16 1.848914 1_545
Ge0 O85 1.856280 1_455
Ge0 O86 2.028157 1_555
Ge0 O13 2.169093 1_445
Ge0 O89 2.370992 1_445
Ge1 O15 1.767036 1_555
Ge1 O17 1.844874 1_545
Ge1 O84 1.856850 1_555
Ge1 O87 1.985863 1_555
Ge1 O12 2.213825 1_545
Ge1 O88 2.439915 1_545
Ge2 O22 1.770453 1_555
Ge2 O91 1.827606 1_455
Ge2 O94 1.992403 1_565
Ge2 O19 2.065325 1_455
Ge2 O20 2.160694 1_565
Ge2 O93 2.256609 1_465
Ge3 O23 1.766891 1_545
Ge3 O21 1.854845 1_555
Ge3 O90 1.873583 1_545
Ge3 O95 2.003974 1_555
Ge3 O18 2.251042 1_545
Ge3 O92 2.398897 1_555
Ge4 O38 1.820404 1_556
Ge4 O108 1.830554 1_555
Ge4 O36 1.980123 1_556
Ge4 O40 2.051463 1_556
Ge4 O110 2.182577 1_555
Ge4 O112 2.187498 1_555
Ge5 O39 1.814905 1_556
Ge5 O109 1.823663 1_555
Ge5 O37 1.953123 1_556
Ge5 O41 2.115496 1_556
Ge5 O113 2.139528 1_555
Ge5 O111 2.146907 1_555
Ge6 O46 1.791817 1_555
Ge6 O114 1.863473 1_555
Ge6 O44 2.023877 1_555
Ge6 O42 2.030840 1_555
Ge6 O118 2.031704 1_555
Ge6 O116 2.285036 1_555
Ge7 O47 1.784546 1_555
Ge7 O115 1.794343 1_555
Ge7 O43 1.989337 1_555
Ge7 O119 2.104975 1_555
Ge7 O117 2.172057 1_555
Ge7 O45 2.201807 1_555
Ge8 O62 1.808368 1_555
Ge8 O132 1.851509 1_555
Ge8 O60 2.022980 1_555
Ge8 O64 2.028614 1_555
Ge8 O134 2.048279 1_555
Ge8 O136 2.264930 1_555
Ge9 O63 1.779232 1_555
Ge9 O133 1.805951 1_555
Ge9 O137 1.947772 1_555
Ge9 O61 2.095032 1_555
Ge9 O135 2.104600 1_555
Ge9 O65 2.235385 1_555
Ge10 O70 1.815907 1_555
Ge10 O138 1.838219 1_555
Ge10 O140 1.913697 1_555
Ge10 O66 1.982225 1_555
Ge10 O142 2.140927 1_555
Ge10 O68 2.236247 1_555
Ge11 O71 1.813218 1_555
Ge11 O139 1.832532 1_555
Ge11 O141 1.914256 1_555
Ge11 O67 1.976883 1_555
Ge11 O143 2.142442 1_555
Ge11 O69 2.249504 1_555
O0 Si0 1.587005 1_555
O0 Zn0 1.970829 1_455
O1 Si1 1.583246 1_555
O1 Zn1 1.922680 1_555
O2 S0 1.453928 1_555
O2 Zn1 2.118171 1_565
O3 S1 1.446458 1_555
O3 Zn0 2.058087 1_565
O4 Si2 1.591341 1_555
O4 Zn1 1.922377 1_555
O5 S2 1.443760 1_655
O5 Zn0 1.987150 1_555
O6 Si3 1.576318 1_555
O6 Zn2 1.929681 1_445
O7 Si4 1.575063 1_555
O7 Zn3 1.931155 1_545
O8 Si6 1.586432 1_555
O8 Zn3 1.930550 1_555
O9 Si5 1.587818 1_655
O9 Zn2 1.927843 1_555
O10 S3 1.450784 1_545
O10 Zn3 2.082899 1_545
O11 S4 1.450556 1_545
O11 Zn2 2.081691 1_545
O12 S3 1.510412 1_555
O13 S4 1.513698 1_555
O14 Si3 1.679110 1_555
O15 Si4 1.681097 1_555
O16 Si5 1.715017 1_555
O17 Si6 1.718502 1_555
O18 S0 1.515004 1_555
O19 S1 1.532584 1_555
O20 S2 1.520206 1_555
O21 Si2 1.724414 1_555
O22 Si0 1.693269 1_565
O23 Si1 1.695163 1_565
O24 Si7 1.588632 1_555
O24 Zn4 1.928000 1_555
O25 Si8 1.589804 1_555
O25 Zn5 1.923611 1_555
O26 S5 1.459495 1_555
O26 Zn4 2.167371 1_555
O27 S6 1.462092 1_555
O27 Zn5 2.173055 1_555
O28 S7 1.461457 1_555
O28 Zn4 1.992780 1_555
O29 S8 1.469448 1_555
O29 Zn5 1.980471 1_555
O30 Si9 1.585427 1_555
O30 Zn6 1.940489 1_555
O31 Si10 1.595633 1_555
O31 Zn7 1.932744 1_555
O32 S9 1.460894 1_555
O32 Zn6 2.027600 1_555
O33 S10 1.449397 1_555
O33 Zn7 1.966823 1_555
O34 S11 1.447517 1_555
O34 Zn6 2.099112 1_555
O35 S12 1.459913 1_555
O35 Zn7 2.120212 1_555
O36 S11 1.530901 1_555
O37 S12 1.527386 1_555
O38 Si9 1.730347 1_555
O39 Si10 1.712284 1_555
O40 S9 1.533800 1_555
O41 S10 1.519890 1_555
O42 S5 1.536267 1_555
O43 S6 1.516713 1_555
O44 S7 1.540356 1_555
O45 S8 1.506490 1_555
O46 Si7 1.721344 1_555
O47 Si8 1.706491 1_555
O48 Si11 1.586305 1_555
O48 Zn8 1.920434 1_556
O49 Si12 1.586910 1_555
O49 Zn9 1.925706 1_556
O50 S13 1.444911 1_555
O50 Zn8 2.082224 1_556
O51 S14 1.445549 1_555
O51 Zn9 2.074486 1_556
O52 S15 1.456421 1_555
O52 Zn8 1.990583 1_556
O53 S16 1.453829 1_555
O53 Zn9 1.990713 1_556
O54 Si13 1.584098 1_555
O54 Zn10 1.937750 1_555
O55 Si14 1.596077 1_555
O55 Zn11 1.925617 1_555
O56 S17 1.441780 1_555
O56 Zn10 1.995658 1_555
O57 S18 1.457517 1_555
O57 Zn11 2.000258 1_555
O58 S19 1.450114 1_555
O58 Zn10 2.046074 1_555
O59 S20 1.444580 1_555
O59 Zn11 2.093766 1_555
O60 S19 1.554398 1_555
O61 S20 1.535242 1_555
O62 Si13 1.711528 1_555
O63 Si14 1.699933 1_555
O64 S17 1.543116 1_555
O65 S18 1.519516 1_555
O66 S13 1.560986 1_555
O67 S14 1.565074 1_555
O68 S15 1.522194 1_555
O69 S16 1.518283 1_555
O70 Si11 1.710978 1_555
O71 Si12 1.707766 1_555
O72 S19 1.464642 1_555
O72 Zn0 2.208694 1_465
O73 S20 1.446698 1_555
O73 Zn1 2.172373 1_565
O74 Si13 1.600256 1_555
O74 Zn1 2.109988 1_565
O75 Si14 1.606809 1_555
O75 Zn0 1.935389 1_565
O76 S17 1.469462 1_555
O76 Zn0 2.214617 1_455
O77 S18 1.473203 1_555
O77 Zn1 2.227757 1_555
O78 S13 1.446061 1_555
O78 Zn2 2.202314 1_445
O79 S14 1.446807 1_555
O79 Zn3 2.194527 1_545
O80 S15 1.470635 1_555
O80 Zn2 2.212949 1_455
O81 S16 1.468666 1_555
O81 Zn3 2.218150 1_555
O82 Si11 1.616040 1_555
O82 Zn3 2.054571 1_555
O83 Si12 1.615525 1_555
O83 Zn2 2.058855 1_555
O84 Si7 1.737792 1_555
O85 Si8 1.735338 1_555
O86 S5 1.505279 1_555
O87 S6 1.515852 1_555
O88 S7 1.488514 1_555
O89 S8 1.502817 1_555
O90 Si9 1.747141 1_555
O91 Si10 1.741010 1_555
O92 S9 1.494800 1_555
O93 S10 1.525725 1_555
O94 S11 1.524583 1_555
O95 S12 1.505079 1_555
O96 S3 1.473916 1_545
O96 Zn4 2.215433 1_555
O97 S4 1.471502 1_545
O97 Zn5 2.239943 1_555
O98 Si3 1.616113 1_555
O98 Zn4 2.053869 1_555
O99 Si4 1.613514 1_555
O99 Zn5 2.066830 1_555
O100 Si6 1.609194 1_555
O100 Zn4 2.004196 1_555
O101 Si5 1.607856 1_655
O101 Zn5 2.014229 1_555
O102 S0 1.458633 1_555
O102 Zn6 2.221739 1_555
O103 S1 1.477475 1_555
O103 Zn7 2.287861 1_555
O104 Si2 1.607966 1_555
O104 Zn6 2.011547 1_555
O105 S2 1.478085 1_655
O105 Zn7 2.143790 1_555
O106 Si0 1.597647 1_555
O106 Zn6 2.054723 1_555
O107 Si1 1.612755 1_555
O107 Zn7 1.964511 1_555
O108 Si11 1.746746 1_555
O109 Si12 1.744488 1_555
O110 S14 1.521219 1_555
O111 S13 1.526310 1_655
O112 S15 1.510432 1_545
O113 S16 1.519741 1_545
O114 Si13 1.761212 1_545
O115 Si14 1.724456 1_545
O116 S17 1.517181 1_555
O117 S18 1.510065 1_555
O118 S20 1.557297 1_555
O119 S19 1.499770 1_655
O120 S11 1.462299 1_555
O120 Zn8 2.233558 1_555
O121 S12 1.459683 1_555
O121 Zn9 2.206514 1_555
O122 Si10 1.591513 1_455
O122 Zn8 1.961398 1_555
O123 Si9 1.597413 1_555
O123 Zn9 1.953092 1_555
O124 S9 1.476330 1_565
O124 Zn8 2.199054 1_555
O125 S10 1.471679 1_565
O125 Zn9 2.227858 1_555
O126 S5 1.464892 1_565
O126 Zn10 2.265983 1_555
O127 S6 1.462947 1_565
O127 Zn11 2.267821 1_555
O128 S7 1.472519 1_555
O128 Zn10 2.167376 1_555
O129 S8 1.479878 1_555
O129 Zn11 2.159605 1_555
O130 Si8 1.594928 1_455
O130 Zn10 1.934070 1_555
O131 Si7 1.591762 1_555
O131 Zn11 1.972301 1_555
O132 Si0 1.749929 1_565
O133 Si1 1.679183 1_565
O134 S0 1.539934 1_555
O135 S1 1.499639 1_555
O136 S2 1.526597 1_555
O137 Si2 1.711844 1_555
O138 Si3 1.691807 1_555
O139 Si4 1.689904 1_555
O140 Si5 1.712762 1_555
O141 Si6 1.710502 1_555
O142 S3 1.514231 1_555
O143 S4 1.513488 1_555
