# generated using pymatgen
data_CsLaMgNb2O7
_symmetry_space_group_name_H-M   'P 1'
_cell_length_a   3.93728300
_cell_length_b   5.10899900
_cell_length_c   11.24064600
_cell_angle_alpha   90.00000000
_cell_angle_beta   90.00000000
_cell_angle_gamma   90.00000000
_symmetry_Int_Tables_number   1
_chemical_formula_structural   CsLaMgNb2O7
_chemical_formula_sum   'Cs1 La1 Mg1 Nb2 O7'
_cell_volume   226.11205665
_cell_formula_units_Z   1
loop_
 _symmetry_equiv_pos_site_id
 _symmetry_equiv_pos_as_xyz
  1  'x, y, z'
loop_
 _atom_site_type_symbol
 _atom_site_label
 _atom_site_symmetry_multiplicity
 _atom_site_fract_x
 _atom_site_fract_y
 _atom_site_fract_z
 _atom_site_occupancy
  Cs  Cs0  1  0.00000000  0.00000000  0.50009600  1
  La  La0  1  0.00000000  0.00000000  0.99925100  1
  Mg  Mg0  1  0.00000000  0.50000000  0.00032200  1
  Nb  Nb0  1  0.50000000  0.50000000  0.20465600  1
  Nb  Nb1  1  0.50000000  0.50000000  0.79553000  1
  O  O0  1  0.50000000  0.50000000  0.63693800  1
  O  O1  1  0.00000000  0.50000000  0.16938000  1
  O  O2  1  0.50000000  0.00000000  0.13654000  1
  O  O3  1  0.00000000  0.50000000  0.83111000  1
  O  O4  1  0.50000000  0.00000000  0.86292600  1
  O  O5  1  0.50000000  0.50000000  0.36322400  1
  O  O6  1  0.50000000  0.50000000  0.00002600  1
loop_
_geom_bond_atom_site_label_1
_geom_bond_atom_site_label_2
_geom_bond_distance
_geom_bond_site_symmetry_2
Cs0 O0 3.573101 1_445
Cs0 O0 3.573101 1_545
Cs0 O0 3.573101 1_455
Cs0 O0 3.573101 1_555
Cs0 O5 3.573247 1_545
Cs0 O5 3.573247 1_445
Cs0 O5 3.573247 1_455
Cs0 O5 3.573247 1_555
La0 O4 2.494743 1_455
La0 O4 2.494743 1_555
La0 O2 2.501413 1_556
La0 O2 2.501413 1_456
Mg0 O1 1.900321 1_555
Mg0 O3 1.902052 1_554
Mg0 O6 1.968644 1_555
Mg0 O6 1.968644 1_455
Nb0 O5 1.782407 1_555
Nb0 O1 2.008179 1_655
Nb0 O1 2.008179 1_555
Nb0 O6 2.300173 1_555
Nb0 O2 2.666780 1_555
Nb0 O2 2.666780 1_565
Nb1 O0 1.782677 1_555
Nb1 O3 2.008856 1_555
Nb1 O3 2.008856 1_655
Nb1 O6 2.298667 1_556
Nb1 O4 2.664467 1_555
Nb1 O4 2.664467 1_565
