# generated using pymatgen
data_CsBe2F5
_symmetry_space_group_name_H-M   'P 1'
_cell_length_a   7.88590443
_cell_length_b   7.88590443
_cell_length_c   7.88590443
_cell_angle_alpha   90.00000000
_cell_angle_beta   90.00000000
_cell_angle_gamma   90.00000000
_symmetry_Int_Tables_number   1
_chemical_formula_structural   CsBe2F5
_chemical_formula_sum   'Cs4 Be8 F20'
_cell_volume   490.40459247
_cell_formula_units_Z   4
loop_
 _symmetry_equiv_pos_site_id
 _symmetry_equiv_pos_as_xyz
  1  'x, y, z'
loop_
 _atom_site_type_symbol
 _atom_site_label
 _atom_site_symmetry_multiplicity
 _atom_site_fract_x
 _atom_site_fract_y
 _atom_site_fract_z
 _atom_site_occupancy
  Cs  Cs0  1  0.87500000  0.12500000  0.62500000  1
  Cs  Cs1  1  0.12500000  0.62500000  0.87500000  1
  Cs  Cs2  1  0.62500000  0.87500000  0.12500000  1
  Cs  Cs3  1  0.37500000  0.37500000  0.37500000  1
  Be  Be0  1  0.10398673  0.10398673  0.10398673  1
  Be  Be1  1  0.64601327  0.64601327  0.64601327  1
  Be  Be2  1  0.89601327  0.60398673  0.39601327  1
  Be  Be3  1  0.60398673  0.39601327  0.89601327  1
  Be  Be4  1  0.39601327  0.89601327  0.60398673  1
  Be  Be5  1  0.35398673  0.14601327  0.85398673  1
  Be  Be6  1  0.85398673  0.35398673  0.14601327  1
  Be  Be7  1  0.14601327  0.85398673  0.35398673  1
  F  F0  1  0.62500000  0.45834718  0.70834718  1
  F  F1  1  0.79165282  0.37500000  0.95834718  1
  F  F2  1  0.70834718  0.62500000  0.45834718  1
  F  F3  1  0.54165282  0.20834718  0.87500000  1
  F  F4  1  0.99483278  0.99483278  0.99483278  1
  F  F5  1  0.24483278  0.25516722  0.74483278  1
  F  F6  1  0.74483278  0.24483278  0.25516722  1
  F  F7  1  0.25516722  0.74483278  0.24483278  1
  F  F8  1  0.50516722  0.00516722  0.49483278  1
  F  F9  1  0.49483278  0.50516722  0.00516722  1
  F  F10  1  0.00516722  0.49483278  0.50516722  1
  F  F11  1  0.75516722  0.75516722  0.75516722  1
  F  F12  1  0.12500000  0.04165282  0.29165282  1
  F  F13  1  0.37500000  0.95834718  0.79165282  1
  F  F14  1  0.87500000  0.54165282  0.20834718  1
  F  F15  1  0.04165282  0.29165282  0.12500000  1
  F  F16  1  0.95834718  0.79165282  0.37500000  1
  F  F17  1  0.20834718  0.87500000  0.54165282  1
  F  F18  1  0.29165282  0.12500000  0.04165282  1
  F  F19  1  0.45834718  0.70834718  0.62500000  1
loop_
_geom_bond_atom_site_label_1
_geom_bond_atom_site_label_2
_geom_bond_distance
_geom_bond_site_symmetry_2
Cs0 F10 3.233025 1_655
Cs0 F8 3.233025 1_555
Cs0 F4 3.233025 1_545
Cs0 F11 3.233025 1_545
Cs0 F5 3.233025 1_655
Cs0 F6 3.233025 1_555
Cs0 F1 3.350972 1_555
Cs0 F3 3.350972 1_555
Cs0 F16 3.350972 1_545
Cs0 F0 3.350972 1_555
Cs0 F12 3.350972 1_655
Cs0 F17 3.350972 1_645
Cs1 F4 3.233025 1_455
Cs1 F11 3.233025 1_455
Cs1 F10 3.233025 1_555
Cs1 F9 3.233025 1_556
Cs1 F7 3.233025 1_556
Cs1 F5 3.233025 1_555
Cs1 F17 3.350972 1_555
Cs1 F1 3.350972 1_455
Cs1 F13 3.350972 1_555
Cs1 F19 3.350972 1_555
Cs1 F15 3.350972 1_556
Cs1 F14 3.350972 1_456
Cs2 F9 3.233025 1_555
Cs2 F4 3.233025 1_554
Cs2 F11 3.233025 1_554
Cs2 F6 3.233025 1_565
Cs2 F8 3.233025 1_565
Cs2 F7 3.233025 1_555
Cs2 F14 3.350972 1_555
Cs2 F13 3.350972 1_554
Cs2 F16 3.350972 1_555
Cs2 F18 3.350972 1_565
Cs2 F2 3.350972 1_555
Cs2 F3 3.350972 1_564
Cs3 F5 3.233025 1_555
Cs3 F6 3.233025 1_555
Cs3 F7 3.233025 1_555
Cs3 F10 3.233025 1_555
Cs3 F8 3.233025 1_555
Cs3 F9 3.233025 1_555
Cs3 F2 3.350972 1_555
Cs3 F0 3.350972 1_555
Cs3 F19 3.350972 1_555
Cs3 F12 3.350972 1_555
Cs3 F18 3.350972 1_555
Cs3 F15 3.350972 1_555
Be0 F4 1.490911 1_444
Be0 F18 1.568198 1_555
Be0 F15 1.568198 1_555
Be0 F12 1.568198 1_555
Be1 F11 1.490911 1_555
Be1 F2 1.568198 1_555
Be1 F0 1.568198 1_555
Be1 F19 1.568198 1_555
Be2 F10 1.490911 1_655
Be2 F14 1.568198 1_555
Be2 F16 1.568198 1_555
Be2 F2 1.568198 1_555
Be3 F9 1.490911 1_556
Be3 F3 1.568198 1_555
Be3 F1 1.568198 1_555
Be3 F0 1.568198 1_555
Be4 F8 1.490911 1_565
Be4 F17 1.568198 1_555
Be4 F13 1.568198 1_555
Be4 F19 1.568198 1_555
Be5 F5 1.490911 1_555
Be5 F18 1.568198 1_556
Be5 F3 1.568198 1_555
Be5 F13 1.568198 1_545
Be6 F6 1.490911 1_555
Be6 F15 1.568198 1_655
Be6 F14 1.568198 1_555
Be6 F1 1.568198 1_554
Be7 F7 1.490911 1_555
Be7 F12 1.568198 1_565
Be7 F17 1.568198 1_555
Be7 F16 1.568198 1_455
