# generated using pymatgen
data_MgTe4MoW3(SeS)2
_symmetry_space_group_name_H-M   'P 1'
_cell_length_a   3.39551789
_cell_length_b   3.39556358
_cell_length_c   44.67333584
_cell_angle_alpha   90.22856609
_cell_angle_beta   89.77774486
_cell_angle_gamma   119.98800572
_symmetry_Int_Tables_number   1
_chemical_formula_structural   MgTe4MoW3(SeS)2
_chemical_formula_sum   'Mg1 Te4 Mo1 W3 Se2 S2'
_cell_volume   446.11301956
_cell_formula_units_Z   1
loop_
 _symmetry_equiv_pos_site_id
 _symmetry_equiv_pos_as_xyz
  1  'x, y, z'
loop_
 _atom_site_type_symbol
 _atom_site_label
 _atom_site_symmetry_multiplicity
 _atom_site_fract_x
 _atom_site_fract_y
 _atom_site_fract_z
 _atom_site_occupancy
  Mg  Mg0  1  0.66654000  0.33328600  0.37172000  1
  Te  Te0  1  0.33193700  0.66829800  0.69992700  1
  Te  Te1  1  0.66781900  0.33188700  0.05199600  1
  Te  Te2  1  0.66518300  0.33483700  0.13598800  1
  Te  Te3  1  0.33471900  0.66527300  0.61543000  1
  Mo  Mo0  1  0.33310900  0.66675800  0.09398300  1
  W  W0  1  0.33333900  0.66663100  0.47448400  1
  W  W1  1  0.66481100  0.33529600  0.27383800  1
  W  W2  1  0.66670100  0.33341600  0.65768400  1
  Se  Se0  1  0.66781100  0.33206000  0.43730800  1
  Se  Se1  1  0.66567700  0.33439600  0.51145200  1
  S  S0  1  0.33044300  0.66977700  0.30752800  1
  S  S1  1  0.33262200  0.66737600  0.24025800  1
loop_
_geom_bond_atom_site_label_1
_geom_bond_atom_site_label_2
_geom_bond_distance
_geom_bond_site_symmetry_2
Mg0 Se0 2.930077 1_555
Te0 W2 2.721160 1_555
Te0 W2 2.721199 1_455
Te0 W2 2.721227 1_565
Te3 W2 2.721515 1_455
Te3 W2 2.721540 1_565
Te3 W2 2.721554 1_555
Mo0 Te1 2.713141 1_555
Mo0 Te1 2.713313 1_565
Mo0 Te1 2.713378 1_455
Mo0 Te2 2.713634 1_455
Mo0 Te2 2.713720 1_565
Mo0 Te2 2.714145 1_555
Se0 W0 2.568794 1_555
Se0 W0 2.569683 1_655
Se0 W0 2.569723 1_545
Se1 W0 2.562975 1_655
Se1 W0 2.562985 1_545
Se1 W0 2.564253 1_555
S0 W1 2.471079 1_555
S0 W1 2.471854 1_565
S0 W1 2.471869 1_455
S1 W1 2.468237 1_555
S1 W1 2.468775 1_455
S1 W1 2.468823 1_565
