# generated using pymatgen
data_YbMnSi
_symmetry_space_group_name_H-M   'P 1'
_cell_length_a   4.24373900
_cell_length_b   7.14072000
_cell_length_c   7.19798500
_cell_angle_alpha   90.00000000
_cell_angle_beta   90.00000000
_cell_angle_gamma   90.00000000
_symmetry_Int_Tables_number   1
_chemical_formula_structural   YbMnSi
_chemical_formula_sum   'Yb4 Mn4 Si4'
_cell_volume   218.12307280
_cell_formula_units_Z   4
loop_
 _symmetry_equiv_pos_site_id
 _symmetry_equiv_pos_as_xyz
  1  'x, y, z'
loop_
 _atom_site_type_symbol
 _atom_site_label
 _atom_site_symmetry_multiplicity
 _atom_site_fract_x
 _atom_site_fract_y
 _atom_site_fract_z
 _atom_site_occupancy
  Yb  Yb0  1  0.75000000  0.17743000  0.49987100  1
  Yb  Yb1  1  0.25000000  0.82257000  0.50012900  1
  Yb  Yb2  1  0.75000000  0.32257000  0.99987100  1
  Yb  Yb3  1  0.25000000  0.67743000  0.00012900  1
  Mn  Mn0  1  0.25000000  0.06156200  0.13234600  1
  Mn  Mn1  1  0.75000000  0.93843800  0.86765400  1
  Mn  Mn2  1  0.25000000  0.43843800  0.63234600  1
  Mn  Mn3  1  0.75000000  0.56156200  0.36765400  1
  Si  Si0  1  0.75000000  0.88901400  0.19850600  1
  Si  Si1  1  0.25000000  0.11098600  0.80149400  1
  Si  Si2  1  0.75000000  0.61098600  0.69850600  1
  Si  Si3  1  0.25000000  0.38901400  0.30149400  1
loop_
_geom_bond_atom_site_label_1
_geom_bond_atom_site_label_2
_geom_bond_distance
_geom_bond_site_symmetry_2
Mn0 Si1 2.407477 1_554
Mn0 Si0 2.499445 1_445
Mn0 Si0 2.499445 1_545
Mn0 Si3 2.636237 1_555
Mn0 Yb3 2.903388 1_545
Mn0 Yb2 2.980820 1_554
Mn0 Yb2 2.980820 1_454
Mn0 Yb1 3.149695 1_545
Mn1 Si0 2.407477 1_556
Mn1 Si1 2.499445 1_665
Mn1 Si1 2.499445 1_565
Mn1 Si2 2.636237 1_555
Mn1 Yb2 2.903388 1_565
Mn1 Yb3 2.980820 1_656
Mn1 Yb3 2.980820 1_556
Mn1 Yb0 3.149695 1_565
Mn2 Si3 2.407477 1_555
Mn2 Si2 2.499445 1_555
Mn2 Si2 2.499445 1_455
Mn2 Si1 2.636237 1_555
Mn2 Yb1 2.903388 1_555
Mn2 Yb0 2.980820 1_555
Mn2 Yb0 2.980820 1_455
Mn2 Yb3 3.149695 1_556
Mn3 Si2 2.407477 1_555
Mn3 Si3 2.499445 1_555
Mn3 Si3 2.499445 1_655
Mn3 Si0 2.636237 1_555
Mn3 Yb0 2.903388 1_555
Mn3 Yb1 2.980820 1_655
Mn3 Yb1 2.980820 1_555
Mn3 Yb2 3.149695 1_554
Si0 Yb3 2.970518 1_555
Si0 Yb3 2.970518 1_655
Si0 Yb0 2.991162 1_565
Si0 Yb1 3.072624 1_555
Si0 Yb1 3.072624 1_655
Si1 Yb2 2.970518 1_455
Si1 Yb2 2.970518 1_555
Si1 Yb1 2.991162 1_545
Si1 Yb0 3.072624 1_555
Si1 Yb0 3.072624 1_455
Si2 Yb1 2.970518 1_555
Si2 Yb1 2.970518 1_655
Si2 Yb2 2.991162 1_555
Si2 Yb3 3.072624 1_656
Si2 Yb3 3.072624 1_556
Si3 Yb0 2.970518 1_555
Si3 Yb0 2.970518 1_455
Si3 Yb3 2.991162 1_555
Si3 Yb2 3.072624 1_554
Si3 Yb2 3.072624 1_454
