# generated using pymatgen
data_Na7Zr2Si5Ge2PO24
_symmetry_space_group_name_H-M   'P 1'
_cell_length_a   9.00267252
_cell_length_b   8.98115329
_cell_length_c   22.22402615
_cell_angle_alpha   90.02440860
_cell_angle_beta   89.82942509
_cell_angle_gamma   120.06972898
_symmetry_Int_Tables_number   1
_chemical_formula_structural   Na7Zr2Si5Ge2PO24
_chemical_formula_sum   'Na21 Zr6 Si15 Ge6 P3 O72'
_cell_volume   1555.06697809
_cell_formula_units_Z   3
loop_
 _symmetry_equiv_pos_site_id
 _symmetry_equiv_pos_as_xyz
  1  'x, y, z'
loop_
 _atom_site_type_symbol
 _atom_site_label
 _atom_site_symmetry_multiplicity
 _atom_site_fract_x
 _atom_site_fract_y
 _atom_site_fract_z
 _atom_site_occupancy
  Na  Na0  1  0.63215498  0.00004591  0.25134360  1
  Na  Na1  1  0.36919725  0.36911982  0.24913668  1
  Na  Na2  1  0.00018466  0.62926507  0.25051672  1
  Na  Na3  1  0.63038266  0.62843467  0.74705682  1
  Na  Na4  1  0.99883036  0.36961909  0.74831597  1
  Na  Na5  1  0.37305798  0.00275503  0.74850990  1
  Na  Na6  1  0.29518291  0.33203366  0.58543488  1
  Na  Na7  1  0.03671288  0.70553563  0.58504799  1
  Na  Na8  1  0.66989808  0.96377237  0.58516258  1
  Na  Na9  1  0.29739155  0.97091200  0.08330260  1
  Na  Na10  1  0.03136056  0.33371420  0.08673866  1
  Na  Na11  1  0.97171846  0.66933097  0.91552190  1
  Na  Na12  1  0.32834429  0.29889140  0.91610552  1
  Na  Na13  1  0.33210254  0.03032125  0.41695180  1
  Na  Na14  1  0.69751831  0.66719664  0.41823348  1
  Na  Na15  1  0.99787980  0.00681338  0.49868293  1
  Na  Na16  1  0.98595733  0.99254633  0.99977329  1
  Na  Na17  1  0.66719760  0.32100936  0.83221520  1
  Na  Na18  1  0.67733162  0.33166214  0.33791338  1
  Na  Na19  1  0.34029421  0.66373568  0.16576151  1
  Na  Na20  1  0.33428491  0.66623144  0.66599432  1
  Zr  Zr0  1  0.66775680  0.33733987  0.18828027  1
  Zr  Zr1  1  0.66561489  0.33041287  0.98231107  1
  Zr  Zr2  1  0.32995699  0.66216493  0.01682728  1
  Zr  Zr3  1  0.33490389  0.67069771  0.51894252  1
  Zr  Zr4  1  0.32988823  0.66880736  0.31526479  1
  Zr  Zr5  1  0.33252188  0.67011428  0.81137951  1
  Si  Si0  1  0.27705610  0.99978875  0.25137251  1
  Si  Si1  1  0.72291361  0.72466734  0.25040367  1
  Si  Si2  1  0.00113263  0.27496500  0.25028477  1
  Si  Si3  1  0.28733623  0.27878319  0.74657053  1
  Si  Si4  1  0.99209925  0.71568682  0.74720513  1
  Si  Si5  1  0.72486390  0.00758984  0.74705877  1
  Si  Si6  1  0.94708904  0.32649048  0.58666006  1
  Si  Si7  1  0.38365038  0.05759962  0.58535554  1
  Si  Si8  1  0.67303942  0.61714358  0.58559975  1
  Si  Si9  1  0.96090018  0.64071306  0.08489738  1
  Si  Si10  1  0.36088353  0.32773213  0.08617649  1
  Si  Si11  1  0.03102298  0.35591968  0.91307703  1
  Si  Si12  1  0.32650735  0.96652334  0.91365029  1
  Si  Si13  1  0.64347642  0.97771772  0.41705092  1
  Si  Si14  1  0.02560553  0.66350964  0.41721339  1
  Ge  Ge0  1  0.99251505  0.99502207  0.35212512  1
  Ge  Ge1  1  0.00377000  0.00602572  0.84894034  1
  Ge  Ge2  1  0.00015065  0.00036308  0.64632618  1
  Ge  Ge3  1  0.00217985  0.99651287  0.14890888  1
  Ge  Ge4  1  0.66796491  0.33346187  0.68656883  1
  Ge  Ge5  1  0.67909195  0.33204342  0.48449096  1
  P  P0  1  0.67345796  0.03509232  0.08624447  1
  P  P1  1  0.63646936  0.67753034  0.91369668  1
  P  P2  1  0.33021220  0.36301969  0.41694826  1
  O  O0  1  0.19285697  0.03257217  0.31178191  1
  O  O1  1  0.83681850  0.79953028  0.31176946  1
  O  O2  1  0.96539435  0.15247804  0.30869168  1
  O  O3  1  0.20567821  0.16064102  0.80758045  1
  O  O4  1  0.95852559  0.79980544  0.80815403  1
  O  O5  1  0.84885920  0.04405874  0.80563048  1
  O  O6  1  0.80357995  0.96481955  0.68688826  1
  O  O7  1  0.16209966  0.19639126  0.68779435  1
  O  O8  1  0.03437206  0.83937604  0.68774742  1
  O  O9  1  0.80907490  0.84741816  0.19192961  1
  O  O10  1  0.03506423  0.19656958  0.18822948  1
  O  O11  1  0.16318929  0.96528244  0.19023076  1
  O  O12  1  0.86686292  0.37033985  0.64612704  1
  O  O13  1  0.50681805  0.13730153  0.64497159  1
  O  O14  1  0.63242812  0.49451626  0.64532396  1
  O  O15  1  0.87982933  0.51189398  0.14274501  1
  O  O16  1  0.63903115  0.11516621  0.14265572  1
  O  O17  1  0.47939002  0.35348781  0.14480081  1
  O  O18  1  0.44765859  0.29157056  0.02710805  1
  O  O19  1  0.84829175  0.54858535  0.02475814  1
  O  O20  1  0.70292985  0.15585901  0.03183512  1
  O  O21  1  0.46843509  0.17708798  0.52464757  1
  O  O22  1  0.70590903  0.53091138  0.52509439  1
  O  O23  1  0.82339023  0.28706443  0.52796944  1
  O  O24  1  0.54640390  0.69923531  0.96923489  1
  O  O25  1  0.15478895  0.44472511  0.97242161  1
  O  O26  1  0.29412626  0.84542866  0.97308873  1
  O  O27  1  0.55357957  0.84677252  0.47472497  1
  O  O28  1  0.30506787  0.45108820  0.47309872  1
  O  O29  1  0.15481621  0.70401922  0.47460265  1
  O  O30  1  0.11294770  0.63169429  0.35752249  1
  O  O31  1  0.51464699  0.88716942  0.35899944  1
  O  O32  1  0.36308161  0.48105509  0.36124844  1
  O  O33  1  0.12468363  0.48412619  0.85589548  1
  O  O34  1  0.35937999  0.87787214  0.85513452  1
  O  O35  1  0.52158017  0.64083122  0.85766595  1
  O  O36  1  0.01787240  0.84328349  0.41054383  1
  O  O37  1  0.82684561  0.98188081  0.40953132  1
  O  O38  1  0.17068226  0.18224411  0.41127614  1
  O  O39  1  0.02487621  0.17177255  0.90669315  1
  O  O40  1  0.14630742  0.97124061  0.90730141  1
  O  O41  1  0.81720498  0.83579035  0.90821715  1
  O  O42  1  0.96907150  0.15436113  0.59023967  1
  O  O43  1  0.18837991  0.03332456  0.58942561  1
  O  O44  1  0.84601753  0.81184284  0.58925795  1
  O  O45  1  0.98090822  0.83060196  0.09140185  1
  O  O46  1  0.83952423  0.02718564  0.09059620  1
  O  O47  1  0.17043098  0.15287835  0.09076899  1
  O  O48  1  0.70049721  0.17883758  0.74345231  1
  O  O49  1  0.48104303  0.29968177  0.74287679  1
  O  O50  1  0.81979821  0.52042540  0.74392064  1
  O  O51  1  0.69982265  0.53126453  0.24744357  1
  O  O52  1  0.83164416  0.29844564  0.24740877  1
  O  O53  1  0.47164799  0.16686716  0.24908612  1
  O  O54  1  0.65087208  0.51296387  0.92049840  1
  O  O55  1  0.85026652  0.35323905  0.92002503  1
  O  O56  1  0.48997855  0.16021018  0.91890838  1
  O  O57  1  0.64144608  0.15859042  0.42616924  1
  O  O58  1  0.49577804  0.35135690  0.42224638  1
  O  O59  1  0.83300202  0.49481143  0.42576978  1
  O  O60  1  0.33795611  0.49569409  0.08109105  1
  O  O61  1  0.15254339  0.65984293  0.07926752  1
  O  O62  1  0.50920105  0.86064791  0.07808490  1
  O  O63  1  0.36142439  0.86374538  0.58012803  1
  O  O64  1  0.50180884  0.63831385  0.58030909  1
  O  O65  1  0.13951940  0.49651879  0.58024335  1
  O  O66  1  0.29978340  0.82906982  0.25361958  1
  O  O67  1  0.52899029  0.69770504  0.25440930  1
  O  O68  1  0.17167081  0.46817900  0.25404159  1
  O  O69  1  0.31202409  0.47268554  0.75116881  1
  O  O70  1  0.16305770  0.69294879  0.75083753  1
  O  O71  1  0.53216574  0.83645243  0.75141980  1
loop_
_geom_bond_atom_site_label_1
_geom_bond_atom_site_label_2
_geom_bond_distance
_geom_bond_site_symmetry_2
Na0 O52 2.364604 1_555
Na0 O67 2.390191 1_545
Na0 O53 2.550544 1_555
Na0 O66 2.590114 1_545
Na0 O31 2.604497 1_545
Na0 O16 2.616192 1_555
Na0 O9 2.886732 1_545
Na0 O2 2.899026 1_555
Na1 O68 2.355796 1_555
Na1 O53 2.414359 1_555
Na1 O17 2.550704 1_555
Na1 O67 2.557047 1_555
Na1 O51 2.576316 1_555
Na1 O32 2.697060 1_555
Na2 O66 2.377076 1_555
Na2 O51 2.389000 1_455
Na2 O52 2.572447 1_455
Na2 O30 2.584286 1_555
Na2 O68 2.592616 1_555
Na2 O15 2.624982 1_455
Na2 O1 2.931652 1_455
Na2 O11 2.934216 1_555
Na3 O50 2.347468 1_555
Na3 O71 2.436452 1_555
Na3 O69 2.482021 1_555
Na3 O49 2.560557 1_555
Na3 O14 2.564817 1_555
Na3 O35 2.666309 1_555
Na3 O4 2.899202 1_555
Na3 O6 2.935462 1_555
Na4 O48 2.356052 1_555
Na4 O69 2.489266 1_655
Na4 O70 2.513864 1_655
Na4 O12 2.567679 1_555
Na4 O50 2.574962 1_555
Na4 O33 2.627525 1_655
Na4 O5 2.833991 1_555
Na4 O7 2.944168 1_655
Na5 O49 2.339635 1_555
Na5 O70 2.459039 1_545
Na5 O71 2.536000 1_545
Na5 O48 2.555350 1_555
Na5 O13 2.594751 1_555
Na5 O34 2.598152 1_545
Na5 O3 2.851778 1_555
Na5 O8 2.968649 1_545
Na6 O43 2.354632 1_555
Na6 O64 2.431298 1_555
Na6 O65 2.497040 1_555
Na6 O42 2.545712 1_455
Na6 O7 2.572532 1_555
Na6 O28 2.699931 1_555
Na6 O21 2.890547 1_555
Na6 O14 2.949828 1_555
Na7 O44 2.347156 1_455
Na7 O65 2.476341 1_555
Na7 O63 2.532238 1_555
Na7 O43 2.552040 1_565
Na7 O8 2.584073 1_555
Na7 O29 2.674769 1_555
Na7 O22 2.906114 1_455
Na7 O12 2.936268 1_455
Na8 O42 2.361895 1_565
Na8 O63 2.456312 1_555
Na8 O64 2.532511 1_555
Na8 O44 2.559904 1_555
Na8 O6 2.562096 1_555
Na8 O27 2.671159 1_555
Na8 O23 2.815601 1_565
Na8 O13 2.937804 1_565
Na9 O61 2.421423 1_555
Na9 O47 2.423901 1_565
Na9 O45 2.477389 1_455
Na9 O62 2.553652 1_555
Na9 O11 2.651641 1_555
Na9 O26 2.689866 1_554
Na9 O18 2.787895 1_565
Na9 O16 2.984583 1_565
Na10 O60 2.392677 1_555
Na10 O46 2.409089 1_455
Na10 O47 2.500353 1_555
Na10 O61 2.567885 1_555
Na10 O10 2.578691 1_555
Na10 O25 2.749270 1_554
Na10 O20 2.840713 1_455
Na10 O15 2.854282 1_455
Na11 O40 2.363035 1_655
Na11 O55 2.480677 1_555
Na11 O54 2.502193 1_555
Na11 O41 2.506367 1_555
Na11 O19 2.661377 1_556
Na11 O4 2.687840 1_555
Na11 O26 2.825418 1_655
Na11 O33 2.949882 1_655
Na12 O56 2.342958 1_555
Na12 O39 2.385095 1_555
Na12 O54 2.558160 1_555
Na12 O40 2.559711 1_545
Na12 O3 2.686549 1_555
Na12 O18 2.707492 1_556
Na12 O25 2.785837 1_555
Na12 O35 2.963189 1_555
Na13 O57 2.431675 1_555
Na13 O38 2.444931 1_555
Na13 O36 2.466765 1_545
Na13 O58 2.498317 1_555
Na13 O0 2.660399 1_555
Na13 O21 2.714034 1_555
Na13 O29 2.842710 1_545
Na13 O31 2.848813 1_545
Na14 O59 2.409676 1_555
Na14 O37 2.466206 1_555
Na14 O58 2.487854 1_555
Na14 O36 2.504918 1_655
Na14 O1 2.659812 1_555
Na14 O22 2.690749 1_555
Na14 O27 2.817697 1_555
Na14 O32 2.905276 1_555
Na15 O37 2.453338 1_545
Na15 O38 2.490855 1_655
Na15 O36 2.507331 1_645
Na15 O42 2.510477 1_555
Na15 O44 2.564151 1_545
Na15 O43 2.583772 1_655
Na16 O45 2.489969 1_556
Na16 O41 2.510556 1_555
Na16 O46 2.510661 1_566
Na16 O39 2.535011 1_665
Na16 O47 2.557796 1_666
Na16 O40 2.569586 1_655
Na17 O48 2.447367 1_555
Na17 O56 2.453211 1_555
Na17 O55 2.479710 1_555
Na17 O50 2.542978 1_555
Na17 O49 2.546594 1_555
Na17 O54 2.663170 1_555
Na18 O57 2.421398 1_555
Na18 O59 2.424757 1_555
Na18 O52 2.542192 1_555
Na18 O58 2.546892 1_555
Na18 O53 2.605630 1_555
Na18 O51 2.633260 1_555
Na19 O60 2.405202 1_555
Na19 O67 2.521960 1_555
Na19 O61 2.552115 1_555
Na19 O62 2.554806 1_555
Na19 O68 2.559642 1_555
Na19 O66 2.585804 1_555
Na20 O69 2.509248 1_555
Na20 O64 2.514976 1_555
Na20 O70 2.518355 1_555
Na20 O65 2.523630 1_555
Na20 O71 2.530518 1_555
Na20 O63 2.532548 1_555
Ge0 O2 1.827485 1_565
Ge0 O1 1.841651 1_555
Ge0 O0 1.884599 1_665
Ge0 O37 1.917932 1_555
Ge0 O36 1.977350 1_655
Ge0 O38 2.106215 1_665
Ge1 O5 1.863789 1_455
Ge1 O3 1.881211 1_555
Ge1 O39 1.901519 1_555
Ge1 O4 1.913786 1_445
Ge1 O40 1.959207 1_545
Ge1 O41 2.075868 1_445
Ge2 O6 1.863025 1_445
Ge2 O8 1.866014 1_545
Ge2 O7 1.873218 1_555
Ge2 O42 1.983991 1_455
Ge2 O43 2.010761 1_555
Ge2 O44 2.013701 1_445
Ge3 O9 1.840601 1_455
Ge3 O11 1.854368 1_555
Ge3 O10 1.883272 1_565
Ge3 O45 1.898486 1_455
Ge3 O47 1.947894 1_565
Ge3 O46 2.077372 1_465
Ge4 O14 1.871202 1_555
Ge4 O13 1.873075 1_555
Ge4 O12 1.876208 1_555
Ge4 O49 1.991481 1_555
Ge4 O50 2.005248 1_555
Ge4 O48 2.005918 1_555
Ge5 O23 1.821574 1_555
Ge5 O22 1.905360 1_555
Ge5 O21 1.917283 1_555
Ge5 O57 1.921832 1_555
Ge5 O59 1.928994 1_555
Ge5 O58 2.228873 1_555
O0 Si0 1.637362 1_545
O1 Si1 1.637122 1_555
O2 Si2 1.625615 1_655
O3 Si3 1.648732 1_555
O4 Si4 1.649963 1_555
O5 Si5 1.640030 1_555
O6 Si5 1.644578 1_565
O7 Si3 1.642225 1_555
O8 Si4 1.643028 1_455
O9 Si1 1.626072 1_555
O10 Si2 1.644144 1_555
O11 Si0 1.637939 1_555
O12 Si6 1.643855 1_555
O13 Si7 1.646159 1_555
O14 Si8 1.644146 1_555
O15 Si9 1.635082 1_555
O15 Zr0 2.029126 1_555
O16 P0 1.550886 1_555
O16 Zr0 2.135240 1_555
O17 Si10 1.627854 1_555
O17 Zr0 2.021591 1_555
O18 Si10 1.639154 1_555
O18 Zr1 2.065370 1_554
O19 Si9 1.632553 1_555
O19 Zr1 2.052405 1_554
O20 P0 1.555565 1_555
O20 Zr1 2.076852 1_554
O21 Si7 1.651902 1_555
O22 Si8 1.649820 1_555
O23 Si6 1.637052 1_555
O24 P1 1.539847 1_555
O24 Zr2 2.089141 1_556
O25 Si11 1.653589 1_555
O25 Zr2 2.048405 1_556
O26 Si12 1.641325 1_555
O26 Zr2 2.072017 1_556
O27 Si13 1.649926 1_555
O27 Zr3 2.052339 1_555
O28 P2 1.552734 1_555
O28 Zr3 2.114082 1_555
O29 Si14 1.642111 1_555
O29 Zr3 2.045749 1_555
O30 Si14 1.636566 1_555
O30 Zr4 2.035792 1_555
O31 Si13 1.653418 1_555
O31 Zr4 2.072811 1_555
O32 P2 1.558293 1_555
O32 Zr4 2.117849 1_555
O33 Si11 1.635137 1_555
O33 Zr5 2.031824 1_555
O34 Si12 1.626541 1_555
O34 Zr5 2.008330 1_555
O35 P1 1.547488 1_555
O35 Zr5 2.117419 1_555
O36 Si14 1.657281 1_555
O37 Si13 1.640432 1_555
O38 P2 1.542323 1_555
O39 Si11 1.632959 1_555
O40 Si12 1.650376 1_555
O41 P1 1.537515 1_555
O42 Si6 1.655942 1_555
O43 Si7 1.661662 1_555
O44 Si8 1.661684 1_555
O45 Si9 1.629083 1_555
O46 P0 1.535186 1_555
O47 Si10 1.648390 1_555
O48 Si5 1.660813 1_555
O49 Si3 1.659590 1_555
O50 Si4 1.661750 1_555
O51 Si1 1.644014 1_555
O51 Zr0 2.083754 1_555
O52 Si2 1.643113 1_655
O52 Zr0 2.134033 1_555
O53 Si0 1.639656 1_545
O53 Zr0 2.136830 1_555
O54 P1 1.554506 1_555
O54 Zr1 2.194044 1_555
O55 Si11 1.622266 1_655
O55 Zr1 2.089648 1_555
O56 Si12 1.625080 1_545
O56 Zr1 2.100382 1_555
O57 Si13 1.646109 1_545
O58 P2 1.550497 1_555
O59 Si14 1.644356 1_655
O60 Si10 1.625802 1_555
O60 Zr2 2.095374 1_555
O61 Si9 1.650310 1_455
O61 Zr2 2.104889 1_555
O62 P0 1.534233 1_565
O62 Zr2 2.182527 1_555
O63 Si7 1.653964 1_565
O63 Zr3 2.120651 1_555
O64 Si8 1.649579 1_555
O64 Zr3 2.157043 1_555
O65 Si6 1.643497 1_455
O65 Zr3 2.151108 1_555
O66 Si0 1.646124 1_555
O66 Zr4 2.101638 1_555
O67 Si1 1.640099 1_555
O67 Zr4 2.151523 1_555
O68 Si2 1.645045 1_555
O68 Zr4 2.136446 1_555
O69 Si3 1.644586 1_555
O69 Zr5 2.154112 1_555
O70 Si4 1.653092 1_455
O70 Zr5 2.122718 1_555
O71 Si5 1.645729 1_565
O71 Zr5 2.129452 1_555
