# generated using pymatgen
data_Na7Ca2Zn2P3(SO8)3
_symmetry_space_group_name_H-M   'P 1'
_cell_length_a   9.25091531
_cell_length_b   9.28457357
_cell_length_c   22.37150311
_cell_angle_alpha   89.83896059
_cell_angle_beta   89.65762920
_cell_angle_gamma   120.12614850
_symmetry_Int_Tables_number   1
_chemical_formula_structural   Na7Ca2Zn2P3(SO8)3
_chemical_formula_sum   'Na21 Ca6 Zn6 P9 S9 O72'
_cell_volume   1661.88684734
_cell_formula_units_Z   3
loop_
 _symmetry_equiv_pos_site_id
 _symmetry_equiv_pos_as_xyz
  1  'x, y, z'
loop_
 _atom_site_type_symbol
 _atom_site_label
 _atom_site_symmetry_multiplicity
 _atom_site_fract_x
 _atom_site_fract_y
 _atom_site_fract_z
 _atom_site_occupancy
  Na  Na0  1  0.63472461  0.00734315  0.25565193  1
  Na  Na1  1  0.36274385  0.36404902  0.24701464  1
  Na  Na2  1  0.00640726  0.62966263  0.25039400  1
  Na  Na3  1  0.64350082  0.65196185  0.74061654  1
  Na  Na4  1  0.98782021  0.34908179  0.76007658  1
  Na  Na5  1  0.02149631  0.69450669  0.57246625  1
  Na  Na6  1  0.67042940  0.95992418  0.58119586  1
  Na  Na7  1  0.29425072  0.96802621  0.08276755  1
  Na  Na8  1  0.03885106  0.32676510  0.08601832  1
  Na  Na9  1  0.97899914  0.65794591  0.92280810  1
  Na  Na10  1  0.68813404  0.03569851  0.91193151  1
  Na  Na11  1  0.32978591  0.30003201  0.92804258  1
  Na  Na12  1  0.96362579  0.30239104  0.40576779  1
  Na  Na13  1  0.33140404  0.02357476  0.41111110  1
  Na  Na14  1  0.70454392  0.67750946  0.42011716  1
  Na  Na15  1  0.99600046  0.99512775  0.49266878  1
  Na  Na16  1  -0.00024389  -0.00118049  0.00554938  1
  Na  Na17  1  0.64600533  0.29704374  0.83646735  1
  Na  Na18  1  0.67248984  0.32792280  0.33276037  1
  Na  Na19  1  0.34390266  0.65490879  0.17109353  1
  Na  Na20  1  0.35462556  0.67619312  0.66654963  1
  Ca  Ca0  1  0.00519082  0.00397978  0.84875978  1
  Ca  Ca1  1  0.00647237  0.00455085  0.64838159  1
  Ca  Ca2  1  0.65307092  0.32552498  0.68114551  1
  Ca  Ca3  1  0.33688456  0.66382363  0.01967365  1
  Ca  Ca4  1  0.33924233  0.66295166  0.51078363  1
  Ca  Ca5  1  0.33225428  0.67939759  0.82168826  1
  Zn  Zn0  1  0.99737861  0.00093531  0.34175187  1
  Zn  Zn1  1  0.02777613  0.02261214  0.15959148  1
  Zn  Zn2  1  0.65514038  0.32625966  0.18135046  1
  Zn  Zn3  1  0.65680948  0.32607500  0.99006803  1
  Zn  Zn4  1  0.67198891  0.34532273  0.48299489  1
  Zn  Zn5  1  0.32247253  0.68492160  0.32187098  1
  P  P0  1  0.30077372  0.99868877  0.25080146  1
  P  P1  1  0.00182640  0.30459427  0.24913918  1
  P  P2  1  0.69016259  0.99815890  0.74911568  1
  P  P3  1  0.67024730  0.63837455  0.58089332  1
  P  P4  1  0.36463952  0.32568262  0.08823996  1
  P  P5  1  0.01314141  0.35621704  0.92042495  1
  P  P6  1  0.33934197  0.98279832  0.92609541  1
  P  P7  1  0.64392852  0.97694779  0.41288047  1
  P  P8  1  0.02155617  0.66664078  0.41539306  1
  S  S0  1  0.70817087  0.70737031  0.24953785  1
  S  S1  1  0.31019887  0.31623235  0.75334314  1
  S  S2  1  -0.00049128  0.68711856  0.74900531  1
  S  S3  1  0.96333818  0.33268234  0.58001841  1
  S  S4  1  0.36564601  0.03031754  0.57497412  1
  S  S5  1  0.95604240  0.62948344  0.08614520  1
  S  S6  1  0.67404978  0.04096449  0.08716546  1
  S  S7  1  0.64057279  0.65860185  0.91520913  1
  S  S8  1  0.33193038  0.35976233  0.41009236  1
  O  O0  1  0.21160582  0.02046169  0.30620909  1
  O  O1  1  0.79674883  0.77787174  0.30702672  1
  O  O2  1  0.97347117  0.19157180  0.30467753  1
  O  O3  1  0.23317099  0.23301787  0.81072806  1
  O  O4  1  0.00123927  0.77712099  0.80369024  1
  O  O5  1  0.78937728  0.00461043  0.80586544  1
  O  O6  1  0.78598003  0.99373847  0.69211248  1
  O  O7  1  0.21158710  0.21465274  0.70237468  1
  O  O8  1  0.00858395  0.78289377  0.69469501  1
  O  O9  1  0.80130041  0.81842240  0.19900158  1
  O  O10  1  0.02613506  0.22288556  0.19197382  1
  O  O11  1  0.19430875  0.96870726  0.19364194  1
  O  O12  1  0.88121198  0.33950035  0.63580352  1
  O  O13  1  0.46015025  0.11734968  0.62823062  1
  O  O14  1  0.67030570  0.55368262  0.64002173  1
  O  O15  1  0.86650491  0.52867832  0.14009131  1
  O  O16  1  0.66167385  0.12732855  0.14161491  1
  O  O17  1  0.46269392  0.33516543  0.14567919  1
  O  O18  1  0.45435955  0.31569602  0.03074234  1
  O  O19  1  0.86726784  0.54651071  0.03022746  1
  O  O20  1  0.68977061  0.13977902  0.03219768  1
  O  O21  1  0.45310499  0.12114042  0.51910594  1
  O  O22  1  0.67271333  0.53740859  0.52523018  1
  O  O23  1  0.86055145  0.31979866  0.52670694  1
  O  O24  1  0.55081966  0.68173915  0.96581289  1
  O  O25  1  0.12723023  0.44708137  0.97400224  1
  O  O26  1  0.31956759  0.88466704  0.98451984  1
  O  O27  1  0.57002803  0.87312036  0.47039118  1
  O  O28  1  0.30961365  0.43808479  0.46333701  1
  O  O29  1  0.12502059  0.69103472  0.47207058  1
  O  O30  1  0.10715721  0.63564344  0.36019874  1
  O  O31  1  0.52821743  0.88519696  0.35831802  1
  O  O32  1  0.35191789  0.46183708  0.35580819  1
  O  O33  1  0.09368316  0.45502691  0.86163743  1
  O  O34  1  0.36721553  0.89410676  0.87308107  1
  O  O35  1  0.55227180  0.64286774  0.85907111  1
  O  O36  1  0.00606878  0.82477902  0.40846009  1
  O  O37  1  0.82147641  0.99781453  0.40629712  1
  O  O38  1  0.18177507  0.18948325  0.40731135  1
  O  O39  1  0.98887633  0.17884929  0.91936722  1
  O  O40  1  0.17974644  0.99602927  0.92002863  1
  O  O41  1  0.81312085  0.80348587  0.91488796  1
  O  O42  1  0.98233405  0.18392043  0.57908047  1
  O  O43  1  0.19456392  0.00653095  0.57562298  1
  O  O44  1  0.83409165  0.81211453  0.57550300  1
  O  O45  1  0.98034740  0.80011584  0.08774945  1
  O  O46  1  0.82666275  0.02598746  0.08914859  1
  O  O47  1  0.18867875  0.16019006  0.08835270  1
  O  O48  1  0.67937219  0.15870742  0.75049957  1
  O  O49  1  0.48385513  0.34902921  0.75208703  1
  O  O50  1  0.84118716  0.52372768  0.75050816  1
  O  O51  1  0.69121119  0.53833003  0.24510665  1
  O  O52  1  0.84439771  0.32520172  0.24532378  1
  O  O53  1  0.47746614  0.15801819  0.24765977  1
  O  O54  1  0.65132863  0.50387749  0.92264341  1
  O  O55  1  0.83931826  0.34553347  0.92588398  1
  O  O56  1  0.49536384  0.16102315  0.92626087  1
  O  O57  1  0.65799475  0.15143143  0.41632817  1
  O  O58  1  0.48480689  0.34340402  0.41429528  1
  O  O59  1  0.84419271  0.50820254  0.41855470  1
  O  O60  1  0.33333948  0.47357502  0.08812913  1
  O  O61  1  0.12506748  0.64345486  0.08712900  1
  O  O62  1  0.51992476  0.87636955  0.08618931  1
  O  O63  1  0.34895337  0.86162143  0.57717105  1
  O  O64  1  0.51979436  0.66762067  0.58159935  1
  O  O65  1  0.12810348  0.48897693  0.57743783  1
  O  O66  1  0.32203581  0.84256141  0.25527020  1
  O  O67  1  0.53711837  0.68658003  0.25113364  1
  O  O68  1  0.16257693  0.47887797  0.25411209  1
  O  O69  1  0.31455137  0.47883631  0.74933591  1
  O  O70  1  0.14110926  0.65441642  0.74733107  1
  O  O71  1  0.52004052  0.83547793  0.74803425  1
loop_
_geom_bond_atom_site_label_1
_geom_bond_atom_site_label_2
_geom_bond_distance
_geom_bond_site_symmetry_2
Na0 O53 2.479934 1_555
Na0 O66 2.503231 1_545
Na0 O31 2.523658 1_545
Na0 O52 2.601894 1_555
Na0 O67 2.645435 1_545
Na0 O16 2.740316 1_555
Na0 O2 2.935962 1_555
Na1 O17 2.508692 1_555
Na1 O68 2.563184 1_555
Na1 O67 2.594684 1_555
Na1 O53 2.612214 1_555
Na1 O32 2.618947 1_555
Na1 O51 2.629797 1_555
Na2 O52 2.449672 1_455
Na2 O68 2.466795 1_555
Na2 O66 2.579943 1_555
Na2 O51 2.599602 1_455
Na2 O30 2.623417 1_555
Na2 O15 2.734305 1_455
Na3 O49 2.445292 1_555
Na3 O71 2.487551 1_555
Na3 O14 2.488106 1_555
Na3 O69 2.638786 1_555
Na3 O50 2.645738 1_555
Na3 O35 2.764490 1_555
Na3 O6 2.957928 1_555
Na4 O70 2.466598 1_655
Na4 O33 2.482161 1_655
Na4 O48 2.501763 1_555
Na4 O50 2.593194 1_555
Na4 O69 2.641864 1_655
Na4 O12 2.942111 1_555
Na4 O5 2.951907 1_555
Na5 O29 2.443038 1_555
Na5 O44 2.470186 1_455
Na5 O43 2.511491 1_565
Na5 O65 2.552581 1_555
Na5 O63 2.623290 1_555
Na5 O8 2.876107 1_555
Na6 O64 2.347490 1_555
Na6 O44 2.505236 1_555
Na6 O42 2.574321 1_565
Na6 O27 2.635210 1_555
Na6 O63 2.639032 1_555
Na6 O6 2.664137 1_555
Na7 O26 2.381218 1_554
Na7 O47 2.429315 1_565
Na7 O45 2.515199 1_455
Na7 O61 2.608139 1_555
Na7 O62 2.621723 1_555
Na7 O11 2.643087 1_555
Na8 O60 2.357177 1_555
Na8 O46 2.480177 1_455
Na8 O10 2.536277 1_555
Na8 O47 2.543217 1_555
Na8 O61 2.632271 1_555
Na8 O25 2.690574 1_554
Na9 O41 2.509081 1_555
Na9 O55 2.514648 1_555
Na9 O19 2.607052 1_556
Na9 O54 2.623408 1_555
Na9 O40 2.729780 1_655
Na9 O4 2.848931 1_655
Na9 O33 2.924279 1_655
Na10 O39 2.414421 1_555
Na10 O55 2.510066 1_555
Na10 O56 2.591342 1_555
Na10 O5 2.615268 1_555
Na10 O34 2.723399 1_545
Na10 O20 2.858923 1_556
Na10 O41 2.914113 1_545
Na11 O56 2.449002 1_555
Na11 O40 2.449205 1_545
Na11 O18 2.548182 1_556
Na11 O54 2.605356 1_555
Na11 O3 2.748266 1_555
Na11 O39 2.774210 1_455
Na11 O25 2.997556 1_555
Na12 O37 2.448058 1_545
Na12 O57 2.454896 1_555
Na12 O2 2.507231 1_555
Na12 O59 2.659434 1_555
Na12 O38 2.701300 1_655
Na12 O30 2.866689 1_655
Na12 O23 2.895150 1_555
Na13 O38 2.537136 1_555
Na13 O58 2.570811 1_555
Na13 O0 2.595360 1_555
Na13 O36 2.625796 1_545
Na13 O21 2.635576 1_555
Na13 O57 2.637356 1_555
Na13 O31 2.948130 1_545
Na13 O29 3.010916 1_545
Na14 O36 2.424667 1_655
Na14 O59 2.485849 1_555
Na14 O37 2.621337 1_555
Na14 O22 2.626498 1_555
Na14 O1 2.675796 1_555
Na14 O58 2.728989 1_555
Na14 O27 2.894016 1_555
Na15 O44 2.441134 1_555
Na15 O36 2.494332 1_655
Na15 O37 2.533444 1_555
Na15 O43 2.583804 1_665
Na15 O38 2.585468 1_665
Na15 O42 2.657854 1_565
Na16 O47 2.481243 1_555
Na16 O40 2.537537 1_544
Na16 O45 2.542044 1_445
Na16 O46 2.549080 1_455
Na16 O39 2.583485 1_454
Na16 O41 2.702433 1_444
Na17 O56 2.399568 1_555
Na17 O48 2.418370 1_555
Na17 O55 2.577198 1_555
Na17 O49 2.608071 1_555
Na17 O54 2.708134 1_555
Na17 O50 2.740251 1_555
Na18 O57 2.440805 1_555
Na18 O52 2.521789 1_555
Na18 O59 2.528688 1_555
Na18 O53 2.563016 1_555
Na18 O58 2.564471 1_555
Na18 O51 2.706734 1_555
Na19 O67 2.449748 1_555
Na19 O68 2.475486 1_555
Na19 O60 2.478618 1_555
Na19 O66 2.643937 1_555
Na19 O62 2.658455 1_555
Na19 O61 2.732856 1_555
Na20 O71 2.372477 1_555
Na20 O64 2.457844 1_555
Na20 O69 2.493182 1_555
Na20 O70 2.600530 1_555
Na20 O63 2.652821 1_555
Na20 O65 2.792849 1_555
Ca0 O5 2.222924 1_455
Ca0 O3 2.271649 1_555
Ca0 O40 2.303231 1_545
Ca0 O4 2.321527 1_545
Ca0 O39 2.326258 1_455
Ca0 O41 2.333198 1_445
Ca1 O6 2.213110 1_445
Ca1 O7 2.278127 1_555
Ca1 O8 2.310373 1_545
Ca1 O44 2.362386 1_445
Ca1 O42 2.364295 1_455
Ca1 O43 2.368828 1_555
Ca2 O13 2.213084 1_555
Ca2 O14 2.237739 1_555
Ca2 O12 2.280094 1_555
Ca2 O48 2.287943 1_555
Ca2 O49 2.309125 1_555
Ca2 O50 2.378337 1_555
Ca3 O25 2.229929 1_554
Ca3 O24 2.244171 1_554
Ca3 O26 2.273899 1_554
Ca3 O60 2.322187 1_555
Ca3 O62 2.380796 1_555
Ca3 O61 2.396623 1_555
Ca4 O27 2.228787 1_555
Ca4 O28 2.236558 1_555
Ca4 O64 2.293660 1_555
Ca4 O29 2.298546 1_555
Ca4 O65 2.330749 1_555
Ca4 O63 2.338145 1_555
Ca5 O34 2.184170 1_555
Ca5 O71 2.293092 1_555
Ca5 O33 2.315190 1_555
Ca5 O70 2.360797 1_555
Ca5 O35 2.380935 1_555
Ca5 O69 2.414185 1_555
O0 P0 1.553823 1_545
O0 Zn0 2.052400 1_455
O1 S0 1.494296 1_555
O1 Zn0 2.122559 1_565
O2 P1 1.557623 1_655
O2 Zn0 2.063140 1_555
O3 S1 1.477719 1_555
O4 S2 1.479108 1_555
O5 P2 1.554666 1_545
O6 P2 1.561072 1_555
O7 S1 1.475352 1_555
O8 S2 1.480467 1_555
O9 S0 1.474334 1_555
O9 Zn1 2.177699 1_665
O10 P1 1.560409 1_555
O10 Zn1 2.004592 1_555
O11 P0 1.557095 1_555
O11 Zn1 1.997499 1_565
O12 S3 1.475161 1_555
O13 S4 1.464750 1_555
O14 P3 1.537100 1_555
O15 S5 1.490661 1_555
O15 Zn2 2.118298 1_555
O16 S6 1.495279 1_555
O16 Zn2 2.079878 1_555
O17 P4 1.554412 1_555
O17 Zn2 1.994377 1_555
O18 P4 1.554746 1_555
O18 Zn3 2.035392 1_554
O19 S5 1.488437 1_555
O19 Zn3 2.194963 1_554
O20 S6 1.494203 1_555
O20 Zn3 2.120560 1_554
O21 S4 1.491627 1_555
O21 Zn4 2.196685 1_555
O22 P3 1.567696 1_555
O22 Zn4 2.017675 1_555
O23 S3 1.497023 1_555
O23 Zn4 2.118808 1_555
O24 S7 1.478625 1_555
O25 P5 1.545740 1_555
O26 P6 1.547606 1_555
O27 P7 1.540445 1_555
O28 S8 1.463874 1_555
O29 P8 1.540666 1_555
O30 P8 1.566422 1_555
O30 Zn5 1.993653 1_555
O31 P7 1.570858 1_555
O31 Zn5 2.054149 1_555
O32 S8 1.490677 1_555
O32 Zn5 2.345349 1_555
O33 P5 1.556214 1_555
O34 P6 1.538240 1_555
O35 S7 1.469483 1_555
O36 P8 1.552571 1_555
O36 Zn0 2.242384 1_465
O37 P7 1.560286 1_555
O37 Zn0 2.158291 1_565
O38 S8 1.493316 1_555
O38 Zn0 2.274263 1_455
O39 P5 1.546628 1_655
O40 P6 1.548432 1_555
O41 S7 1.483888 1_555
O42 S3 1.477420 1_555
O43 S4 1.484137 1_555
O44 P3 1.567299 1_555
O45 S5 1.484769 1_555
O45 Zn1 2.482008 1_665
O46 S6 1.487378 1_555
O46 Zn1 2.457472 1_655
O47 P4 1.581104 1_555
O47 Zn1 2.106850 1_555
O48 P2 1.543525 1_545
O49 S1 1.477382 1_555
O50 S2 1.488752 1_655
O51 S0 1.500518 1_555
O51 Zn2 2.320470 1_555
O52 P1 1.563963 1_655
O52 Zn2 2.271742 1_555
O53 P0 1.560736 1_545
O53 Zn2 2.173192 1_555
O54 S7 1.497857 1_555
O54 Zn3 2.252544 1_555
O55 P5 1.564598 1_655
O55 Zn3 2.146721 1_555
O56 P6 1.556940 1_545
O56 Zn3 2.087328 1_555
O57 P7 1.560935 1_545
O57 Zn4 2.294626 1_555
O58 S8 1.499709 1_555
O58 Zn4 2.315571 1_555
O59 P8 1.560857 1_655
O59 Zn4 2.108324 1_555
O60 P4 1.538960 1_555
O61 S5 1.503028 1_455
O62 S6 1.477198 1_565
O63 S4 1.495378 1_565
O64 P3 1.546060 1_555
O65 S3 1.486801 1_455
O66 P0 1.560635 1_555
O66 Zn5 2.087085 1_555
O67 S0 1.495050 1_555
O67 Zn5 2.525678 1_555
O68 P1 1.558751 1_555
O68 Zn5 2.312597 1_555
O69 S1 1.492332 1_555
O70 S2 1.486016 1_555
O71 P2 1.540546 1_555
