# generated using pymatgen
data_Na6Y4Nb4Si7S5O48
_symmetry_space_group_name_H-M   'P 1'
_cell_length_a   18.26396618
_cell_length_b   9.09286407
_cell_length_c   23.35621141
_cell_angle_alpha   90.17632297
_cell_angle_beta   89.67020867
_cell_angle_gamma   119.89267411
_symmetry_Int_Tables_number   1
_chemical_formula_structural   Na6Y4Nb4Si7S5O48
_chemical_formula_sum   'Na18 Y12 Nb12 Si21 S15 O144'
_cell_volume   3362.71672761
_cell_formula_units_Z   3
loop_
 _symmetry_equiv_pos_site_id
 _symmetry_equiv_pos_as_xyz
  1  'x, y, z'
loop_
 _atom_site_type_symbol
 _atom_site_label
 _atom_site_symmetry_multiplicity
 _atom_site_fract_x
 _atom_site_fract_y
 _atom_site_fract_z
 _atom_site_occupancy
  Na  Na0  1  0.00181989  0.61466785  0.25537451  1
  Na  Na1  1  0.49901472  0.63589843  0.26235879  1
  Na  Na2  1  0.99855678  0.36629333  0.75355550  1
  Na  Na3  1  0.50231412  0.38933029  0.75099487  1
  Na  Na4  1  0.33130647  0.98217417  0.57592213  1
  Na  Na5  1  0.82994741  0.67804097  0.07916377  1
  Na  Na6  1  0.00139997  0.97654533  0.50262688  1
  Na  Na7  1  0.50215778  0.01558554  0.49516463  1
  Na  Na8  1  0.99557067  0.98527654  0.99711695  1
  Na  Na9  1  0.50319941  0.02822963  0.00567140  1
  Na  Na10  1  0.32577725  0.35850647  0.82639367  1
  Na  Na11  1  0.83124072  0.33237561  0.83631070  1
  Na  Na12  1  0.33265710  0.33278945  0.33907509  1
  Na  Na13  1  0.82321914  0.29334329  0.32879868  1
  Na  Na14  1  0.17198362  0.65347813  0.17668029  1
  Na  Na15  1  0.66656662  0.66540603  0.16884013  1
  Na  Na16  1  0.16575228  0.66969168  0.66207049  1
  Na  Na17  1  0.67190480  0.69117888  0.66730882  1
  Y  Y0  1  0.50601810  0.99596476  0.64234345  1
  Y  Y1  1  0.00479358  0.01320333  0.14436127  1
  Y  Y2  1  0.33520693  0.34603422  0.68752705  1
  Y  Y3  1  0.82504534  0.32996125  0.68520177  1
  Y  Y4  1  0.32604403  0.32205283  0.18783132  1
  Y  Y5  1  0.83524422  0.32597536  0.18882170  1
  Y  Y6  1  0.66630239  0.64889414  0.01083397  1
  Y  Y7  1  0.16375546  0.68129542  0.51043468  1
  Y  Y8  1  0.17331095  0.66812879  0.31644640  1
  Y  Y9  1  0.66797183  0.68085957  0.32061291  1
  Y  Y10  1  0.16622300  0.64708760  0.81742074  1
  Y  Y11  1  0.67279482  0.67695117  0.81527569  1
  Nb  Nb0  1  0.99132778  0.00856783  0.35770635  1
  Nb  Nb1  1  0.50162438  0.98203924  0.35955313  1
  Nb  Nb2  1  0.99485709  0.01667715  0.85442406  1
  Nb  Nb3  1  0.49234946  0.97534652  0.85738151  1
  Nb  Nb4  1  0.99939464  0.00158632  0.64290755  1
  Nb  Nb5  1  0.50000806  0.00197006  0.14590033  1
  Nb  Nb6  1  0.34194220  0.32865269  0.97846908  1
  Nb  Nb7  1  0.83453074  0.34915639  0.98345659  1
  Nb  Nb8  1  0.33530852  0.31895834  0.48397989  1
  Nb  Nb9  1  0.83521894  0.35543472  0.47487464  1
  Nb  Nb10  1  0.16771257  0.66671499  0.01825135  1
  Nb  Nb11  1  0.66585625  0.65068429  0.51441656  1
  Si  Si0  1  0.64250381  0.99967888  0.24972902  1
  Si  Si1  1  0.35861388  0.71761360  0.24998191  1
  Si  Si2  1  0.00242179  0.29979477  0.25096038  1
  Si  Si3  1  0.14236861  0.28001244  0.74922093  1
  Si  Si4  1  0.50241173  0.70514579  0.75044365  1
  Si  Si5  1  0.85548821  0.00119766  0.74717215  1
  Si  Si6  1  0.48494835  0.34037045  0.58613756  1
  Si  Si7  1  0.18672210  0.04110937  0.58618770  1
  Si  Si8  1  0.83093320  0.62863899  0.58377990  1
  Si  Si9  1  0.98398596  0.63083379  0.08477756  1
  Si  Si10  1  0.33242061  0.03497083  0.08378134  1
  Si  Si11  1  0.68618850  0.33045862  0.08590451  1
  Si  Si12  1  0.31137314  0.65389032  0.91904182  1
  Si  Si13  1  0.82167720  0.67091342  0.91742613  1
  Si  Si14  1  0.01569595  0.37337042  0.91767013  1
  Si  Si15  1  0.51832006  0.36136188  0.91014042  1
  Si  Si16  1  0.31939915  0.96823263  0.41743718  1
  Si  Si17  1  0.81065819  0.96835599  0.42031138  1
  Si  Si18  1  0.66492719  0.36905986  0.41327446  1
  Si  Si19  1  0.01711768  0.67334077  0.40988618  1
  Si  Si20  1  0.51543870  0.65481193  0.41841935  1
  S  S0  1  0.14204798  0.00085031  0.25384860  1
  S  S1  1  0.85662952  0.71742275  0.25135667  1
  S  S2  1  0.50104046  0.28289115  0.24874186  1
  S  S3  1  0.64156284  0.28078758  0.75453820  1
  S  S4  1  0.00120994  0.72192518  0.74909524  1
  S  S5  1  0.35737583  0.99751898  0.75218599  1
  S  S6  1  0.97949851  0.32950622  0.58409711  1
  S  S7  1  0.69099190  0.03757580  0.57755419  1
  S  S8  1  0.32972750  0.62591217  0.57986028  1
  S  S9  1  0.47798338  0.62745079  0.08259286  1
  S  S10  1  0.83075695  0.03566937  0.07975944  1
  S  S11  1  0.19005782  0.34131718  0.07789590  1
  S  S12  1  0.16820472  0.96510302  0.91978209  1
  S  S13  1  0.66630400  0.97692219  0.91709176  1
  S  S14  1  0.16654093  0.35518637  0.41728816  1
  O  O0  1  0.09335492  0.00758413  0.30368287  1
  O  O1  1  0.58877261  0.00098353  0.30721615  1
  O  O2  1  0.41670148  0.81897688  0.30661536  1
  O  O3  1  0.90808670  0.81945599  0.30197373  1
  O  O4  1  0.49459536  0.18509979  0.29939787  1
  O  O5  1  0.00014520  0.17972635  0.30802080  1
  O  O6  1  0.08830475  0.16905521  0.80726847  1
  O  O7  1  0.59307203  0.17698625  0.80459262  1
  O  O8  1  0.49988979  0.81962946  0.80850841  1
  O  O9  1  0.99468321  0.80872604  0.80098161  1
  O  O10  1  0.40871804  0.99774661  0.80304281  1
  O  O11  1  0.91262473  0.01456594  0.80707231  1
  O  O12  1  0.39588639  0.98452199  0.69835581  1
  O  O13  1  0.91165378  0.99326990  0.69230141  1
  O  O14  1  0.08326043  0.17049421  0.69333972  1
  O  O15  1  0.59691448  0.20360456  0.70041315  1
  O  O16  1  0.00498345  0.81368195  0.69536997  1
  O  O17  1  0.50367103  0.81078448  0.69489416  1
  O  O18  1  0.41120558  0.83237820  0.19158362  1
  O  O19  1  0.89749359  0.80592606  0.19716533  1
  O  O20  1  0.00452031  0.19970083  0.19422241  1
  O  O21  1  0.50399390  0.19630528  0.19366716  1
  O  O22  1  0.09812650  0.99082996  0.19938881  1
  O  O23  1  0.58348713  0.99741018  0.19295773  1
  O  O24  1  0.45041882  0.36443982  0.64705684  1
  O  O25  1  0.94148255  0.34621478  0.63860778  1
  O  O26  1  0.24830420  0.12873958  0.63948881  1
  O  O27  1  0.73352929  0.10680016  0.63338969  1
  O  O28  1  0.32527118  0.53819330  0.63372544  1
  O  O29  1  0.81440663  0.51854050  0.64099339  1
  O  O30  1  0.43824776  0.52974316  0.13518812  1
  O  O31  1  0.95322181  0.53696801  0.14536404  1
  O  O32  1  0.31257125  0.11167428  0.13947459  1
  O  O33  1  0.82670697  0.11528491  0.13321779  1
  O  O34  1  0.23378086  0.36230973  0.13249182  1
  O  O35  1  0.75010002  0.36976700  0.13798114  1
  O  O36  1  0.23905358  0.32948557  0.02924428  1
  O  O37  1  0.73625713  0.31084461  0.02730154  1
  O  O38  1  0.42470704  0.53280449  0.03124086  1
  O  O39  1  0.91430965  0.50871002  0.03347758  1
  O  O40  1  0.34341445  0.16534485  0.02889315  1
  O  O41  1  0.83613069  0.13812927  0.02886883  1
  O  O42  1  0.23575376  0.16049264  0.52825006  1
  O  O43  1  0.74087819  0.15099258  0.53062471  1
  O  O44  1  0.33531649  0.53336671  0.52942417  1
  O  O45  1  0.84493551  0.52494402  0.52960674  1
  O  O46  1  0.41437057  0.32040693  0.53482579  1
  O  O47  1  0.92759024  0.31415120  0.53421354  1
  O  O48  1  0.26334742  0.69098986  0.97171908  1
  O  O49  1  0.79044295  0.71356011  0.97710397  1
  O  O50  1  0.08581541  0.48562170  0.96777356  1
  O  O51  1  0.57169953  0.43500129  0.96762200  1
  O  O52  1  0.15781505  0.85572056  0.97000597  1
  O  O53  1  0.64888566  0.87065275  0.96832146  1
  O  O54  1  0.28687042  0.86500226  0.47730578  1
  O  O55  1  0.76302102  0.83204007  0.47167827  1
  O  O56  1  0.14944111  0.42767257  0.46847933  1
  O  O57  1  0.65298779  0.46521922  0.47024878  1
  O  O58  1  0.07236007  0.71323904  0.46695714  1
  O  O59  1  0.58401194  0.68319742  0.46867588  1
  O  O60  1  0.05171394  0.62986545  0.35313416  1
  O  O61  1  0.54269364  0.61398888  0.35702404  1
  O  O62  1  0.25719123  0.88926523  0.36435568  1
  O  O63  1  0.76062100  0.90949349  0.36109567  1
  O  O64  1  0.17943002  0.45723912  0.36559896  1
  O  O65  1  0.68834758  0.48702953  0.35834669  1
  O  O66  1  0.04459580  0.47216740  0.85711095  1
  O  O67  1  0.55072864  0.47311467  0.85344975  1
  O  O68  1  0.18566144  0.89758117  0.86729837  1
  O  O69  1  0.67913192  0.90027993  0.86546873  1
  O  O70  1  0.25926824  0.61655624  0.86095459  1
  O  O71  1  0.76077727  0.63355524  0.86411368  1
  O  O72  1  0.00004444  0.83434251  0.39967841  1
  O  O73  1  0.50838031  0.83065063  0.41412065  1
  O  O74  1  0.41441736  0.99833142  0.40388617  1
  O  O75  1  0.90791104  0.99125827  0.41012339  1
  O  O76  1  0.09007265  0.17921619  0.40961020  1
  O  O77  1  0.58248892  0.18109997  0.40756992  1
  O  O78  1  0.01014691  0.18336170  0.91217587  1
  O  O79  1  0.49949854  0.16552656  0.90107575  1
  O  O80  1  0.09265039  0.98309576  0.91536728  1
  O  O81  1  0.59028003  0.00131504  0.90956668  1
  O  O82  1  0.40802851  0.82234221  0.91008952  1
  O  O83  1  0.91984454  0.82840058  0.90420647  1
  O  O84  1  0.48308760  0.15962321  0.58024489  1
  O  O85  1  0.98449625  0.16713082  0.58681496  1
  O  O86  1  0.09184015  0.02468329  0.59192213  1
  O  O87  1  0.60633773  0.02483197  0.57756694  1
  O  O88  1  0.40621311  0.79996202  0.57981722  1
  O  O89  1  0.91880277  0.81614144  0.59101364  1
  O  O90  1  0.48042689  0.79489302  0.08407628  1
  O  O91  1  0.98329297  0.80834074  0.07867930  1
  O  O92  1  0.41838617  0.02075358  0.08906607  1
  O  O93  1  0.90717596  0.01396207  0.07915290  1
  O  O94  1  0.10532760  0.18826056  0.07746785  1
  O  O95  1  0.59178777  0.15690610  0.09072068  1
  O  O96  1  0.35774525  0.16083496  0.75540760  1
  O  O97  1  0.85810125  0.18278582  0.74866143  1
  O  O98  1  0.23389209  0.29895380  0.75093883  1
  O  O99  1  0.72640129  0.29368962  0.75504277  1
  O  O100  1  0.41772188  0.52093048  0.75724768  1
  O  O101  1  0.92615991  0.54686331  0.74724528  1
  O  O102  1  0.35925435  0.53784626  0.24758801  1
  O  O103  1  0.85649105  0.55427388  0.25424039  1
  O  O104  1  0.42535156  0.30589624  0.24526428  1
  O  O105  1  0.91780162  0.31511856  0.25742322  1
  O  O106  1  0.22679911  0.15779987  0.25449922  1
  O  O107  1  0.73370002  0.16619160  0.24943284  1
  O  O108  1  0.32781331  0.49683489  0.93521079  1
  O  O109  1  0.83288489  0.49965177  0.92743592  1
  O  O110  1  0.42045603  0.33433965  0.92685090  1
  O  O111  1  0.91990051  0.32904001  0.93500611  1
  O  O112  1  0.24332183  0.14004580  0.93036242  1
  O  O113  1  0.74116925  0.14853880  0.92375346  1
  O  O114  1  0.33266175  0.16396900  0.42823440  1
  O  O115  1  0.83194507  0.16003880  0.43745457  1
  O  O116  1  0.24109017  0.33266850  0.42386704  1
  O  O117  1  0.74486144  0.33886809  0.43148498  1
  O  O118  1  0.41905788  0.50560957  0.43556782  1
  O  O119  1  0.92047180  0.50864844  0.42522707  1
  O  O120  1  0.17960132  0.49499383  0.07203313  1
  O  O121  1  0.67730480  0.49953562  0.07846110  1
  O  O122  1  0.07696409  0.65323979  0.06558447  1
  O  O123  1  0.56347811  0.65405427  0.07586722  1
  O  O124  1  0.25057209  0.84927124  0.06640061  1
  O  O125  1  0.75464240  0.86381558  0.07700475  1
  O  O126  1  0.17694443  0.85348540  0.57944074  1
  O  O127  1  0.68018957  0.86527651  0.57210215  1
  O  O128  1  0.25384732  0.64582333  0.57737720  1
  O  O129  1  0.75054148  0.65521099  0.56967954  1
  O  O130  1  0.06670387  0.47348094  0.57925847  1
  O  O131  1  0.57702545  0.50625412  0.57057628  1
  O  O132  1  0.15011555  0.84750371  0.25540418  1
  O  O133  1  0.63952412  0.81713903  0.24649686  1
  O  O134  1  0.26694799  0.69915979  0.24900956  1
  O  O135  1  0.77133886  0.69532366  0.25388575  1
  O  O136  1  0.08524459  0.48702041  0.25128002  1
  O  O137  1  0.57779723  0.45440010  0.24776046  1
  O  O138  1  0.13967303  0.45825710  0.74882207  1
  O  O139  1  0.64971730  0.45023196  0.75701589  1
  O  O140  1  0.07865020  0.70590209  0.75096881  1
  O  O141  1  0.58518275  0.68361171  0.75119274  1
  O  O142  1  0.27072743  0.85142544  0.75721225  1
  O  O143  1  0.76540070  0.83432679  0.74831475  1
loop_
_geom_bond_atom_site_label_1
_geom_bond_atom_site_label_2
_geom_bond_distance
_geom_bond_site_symmetry_2
Na0 O136 2.332010 1_555
Na0 O105 2.368495 1_455
Na0 O103 2.428028 1_455
Na0 O60 2.441193 1_555
Na0 O132 2.470325 1_555
Na0 O31 2.697955 1_455
Na1 O102 2.273631 1_555
Na1 O133 2.283897 1_555
Na1 O61 2.397111 1_555
Na1 O104 2.635968 1_555
Na1 O137 2.695937 1_555
Na1 O2 2.926754 1_555
Na2 O97 2.261330 1_555
Na2 O138 2.281062 1_655
Na2 O101 2.575577 1_555
Na2 O66 2.585725 1_655
Na2 O140 2.678977 1_655
Na2 O25 2.857846 1_555
Na3 O141 2.326838 1_555
Na3 O100 2.383133 1_555
Na3 O96 2.414368 1_555
Na3 O139 2.468213 1_555
Na3 O67 2.535785 1_555
Na3 O24 2.579166 1_555
Na4 O84 2.417060 1_565
Na4 O126 2.456404 1_555
Na4 O54 2.498710 1_555
Na4 O88 2.624260 1_555
Na4 O128 2.654000 1_555
Na4 O46 2.834140 1_565
Na4 O26 2.872998 1_565
Na5 O121 2.428368 1_555
Na5 O91 2.437214 1_555
Na5 O49 2.562003 1_554
Na5 O93 2.650476 1_565
Na5 O125 2.657958 1_555
Na5 O35 2.792369 1_555
Na5 O39 2.866870 1_555
Na5 O19 3.009910 1_555
Na6 O89 2.540524 1_455
Na6 O86 2.565759 1_565
Na6 O72 2.720981 1_555
Na6 O85 2.733167 1_465
Na6 O76 2.783537 1_565
Na6 O75 2.805924 1_455
Na7 O84 2.493219 1_555
Na7 O77 2.527194 1_555
Na7 O73 2.567503 1_545
Na7 O74 2.631413 1_545
Na7 O87 2.685758 1_555
Na7 O88 2.717237 1_545
Na8 O91 2.433520 1_556
Na8 O83 2.589539 1_555
Na8 O93 2.593595 1_566
Na8 O80 2.604927 1_655
Na8 O78 2.605549 1_665
Na8 O94 2.698355 1_666
Na9 O92 2.461521 1_555
Na9 O95 2.463428 1_555
Na9 O90 2.676489 1_545
Na9 O79 2.763323 1_554
Na9 O81 2.823347 1_554
Na9 O82 2.878416 1_544
Na10 O100 2.262912 1_555
Na10 O98 2.310359 1_555
Na10 O96 2.708678 1_555
Na10 O108 2.824490 1_555
Na10 O110 2.995365 1_555
Na10 O112 3.019332 1_555
Na11 O99 2.599870 1_555
Na11 O109 2.603751 1_555
Na11 O113 2.629254 1_555
Na11 O97 2.630223 1_555
Na11 O101 2.783848 1_555
Na11 O111 2.833560 1_555
Na12 O116 2.584367 1_555
Na12 O114 2.590890 1_555
Na12 O106 2.670233 1_555
Na12 O102 2.718120 1_555
Na12 O118 2.754300 1_555
Na12 O104 2.844882 1_555
Na13 O105 2.330308 1_555
Na13 O107 2.362953 1_555
Na13 O103 2.758107 1_555
Na13 O115 2.855022 1_555
Na13 O117 2.918301 1_555
Na13 O119 2.934781 1_555
Na14 O134 2.312129 1_555
Na14 O136 2.330424 1_555
Na14 O132 2.706808 1_555
Na14 O120 2.871277 1_555
Na15 O133 2.467941 1_555
Na15 O137 2.567925 1_555
Na15 O121 2.653237 1_555
Na15 O135 2.683808 1_555
Na15 O125 2.744916 1_555
Na15 O123 2.850083 1_555
Na16 O126 2.496821 1_555
Na16 O128 2.618700 1_555
Na16 O130 2.645500 1_555
Na16 O138 2.669944 1_555
Na16 O140 2.725829 1_555
Na16 O142 2.865839 1_555
Na17 O143 2.448748 1_555
Na17 O141 2.491670 1_555
Na17 O127 2.693076 1_555
Na17 O129 2.791975 1_555
Na17 O131 2.837616 1_555
Na17 O139 2.913369 1_555
Nb0 O5 1.885179 1_655
Nb0 O75 1.893518 1_545
Nb0 O72 1.938764 1_645
Nb0 O76 2.086650 1_655
Nb0 O3 2.089475 1_545
Nb0 O0 2.248108 1_655
Nb1 O73 1.927788 1_555
Nb1 O1 1.939832 1_565
Nb1 O74 1.961174 1_555
Nb1 O2 1.962496 1_555
Nb1 O77 2.014253 1_565
Nb1 O4 2.377817 1_565
Nb2 O11 1.862642 1_555
Nb2 O6 1.917386 1_655
Nb2 O78 1.940222 1_655
Nb2 O83 1.953418 1_545
Nb2 O9 2.261189 1_545
Nb2 O80 2.425902 1_645
Nb3 O8 1.873335 1_555
Nb3 O82 1.917260 1_555
Nb3 O79 1.953090 1_565
Nb3 O10 2.078293 1_555
Nb3 O81 2.083937 1_565
Nb3 O7 2.211745 1_565
Nb4 O14 1.938363 1_655
Nb4 O13 1.939870 1_545
Nb4 O86 1.984411 1_655
Nb4 O89 2.003246 1_545
Nb4 O85 2.116785 1_555
Nb4 O16 2.149250 1_645
Nb5 O23 1.901807 1_545
Nb5 O18 1.908986 1_545
Nb5 O95 2.021883 1_555
Nb5 O21 2.057444 1_555
Nb5 O92 2.071597 1_555
Nb5 O90 2.253081 1_545
Nb6 O110 1.849056 1_555
Nb6 O40 1.908847 1_556
Nb6 O108 1.957519 1_555
Nb6 O112 2.092933 1_555
Nb6 O38 2.111995 1_556
Nb6 O36 2.219493 1_556
Nb7 O39 1.869471 1_556
Nb7 O109 1.907349 1_555
Nb7 O37 1.936332 1_556
Nb7 O111 2.001945 1_555
Nb7 O41 2.208296 1_556
Nb7 O113 2.256316 1_555
Nb8 O46 1.869833 1_555
Nb8 O114 1.898735 1_555
Nb8 O42 1.956401 1_555
Nb8 O118 1.975594 1_555
Nb8 O44 2.216856 1_555
Nb8 O116 2.278300 1_555
Nb9 O119 1.880665 1_555
Nb9 O117 1.882466 1_555
Nb9 O45 1.938855 1_555
Nb9 O115 1.951738 1_555
Nb9 O43 2.217318 1_555
Nb9 O47 2.359932 1_555
Nb10 O122 1.939478 1_555
Nb10 O124 1.953083 1_555
Nb10 O48 1.968779 1_554
Nb10 O50 1.972841 1_554
Nb10 O120 2.101493 1_555
Nb10 O52 2.140079 1_554
Nb11 O57 1.886905 1_555
Nb11 O59 1.980902 1_555
Nb11 O55 1.984398 1_555
Nb11 O131 1.984881 1_555
Nb11 O129 2.004777 1_555
Nb11 O127 2.273748 1_555
O0 S0 1.480315 1_555
O1 Si0 1.662020 1_545
O2 Si1 1.660928 1_555
O3 S1 1.509503 1_555
O4 S2 1.450821 1_555
O5 Si2 1.712566 1_555
O6 Si3 1.682571 1_555
O7 S3 1.484464 1_555
O8 Si4 1.721441 1_555
O9 S4 1.480544 1_655
O10 S5 1.516939 1_555
O11 Si5 1.717670 1_555
O12 S5 1.470088 1_555
O12 Y0 2.351626 1_555
O13 Si5 1.660695 1_565
O14 Si3 1.672498 1_555
O15 S3 1.480395 1_555
O15 Y0 2.246372 1_545
O16 S4 1.491162 1_555
O17 Si4 1.609913 1_555
O17 Y0 2.069717 1_555
O18 Si1 1.693095 1_555
O19 S1 1.484378 1_555
O19 Y1 2.284449 1_665
O20 Si2 1.616385 1_555
O20 Y1 2.056254 1_555
O21 S2 1.520767 1_555
O22 S0 1.485899 1_565
O22 Y1 2.229679 1_565
O23 Si0 1.707204 1_555
O24 Si6 1.611033 1_555
O24 Y2 2.230761 1_555
O25 S6 1.489929 1_555
O25 Y3 2.321567 1_555
O26 Si7 1.602018 1_555
O26 Y2 2.136108 1_555
O27 S7 1.489850 1_555
O27 Y3 2.236790 1_555
O28 S8 1.471695 1_555
O28 Y2 2.235427 1_555
O29 Si8 1.606673 1_555
O29 Y3 2.095109 1_555
O30 S9 1.476083 1_555
O30 Y4 2.324986 1_555
O31 Si9 1.602148 1_555
O31 Y5 2.284773 1_555
O32 Si10 1.597160 1_555
O32 Y4 2.125143 1_555
O33 S10 1.461254 1_555
O33 Y5 2.251757 1_555
O34 S11 1.469161 1_555
O34 Y4 2.299336 1_555
O35 Si11 1.602347 1_555
O35 Y5 2.151324 1_555
O36 S11 1.478872 1_555
O37 Si11 1.699452 1_555
O38 S9 1.516039 1_555
O39 Si9 1.699699 1_555
O40 Si10 1.690641 1_555
O41 S10 1.484837 1_555
O42 Si7 1.684526 1_555
O43 S7 1.467651 1_555
O44 S8 1.477957 1_555
O45 Si8 1.668726 1_555
O46 Si6 1.707056 1_555
O47 S6 1.468165 1_555
O48 Si12 1.636114 1_555
O49 Si13 1.620688 1_555
O49 Y6 2.181850 1_556
O50 Si14 1.660816 1_555
O51 Si15 1.600039 1_555
O51 Y6 2.108337 1_556
O52 S12 1.489214 1_555
O53 S13 1.470695 1_555
O53 Y6 2.410052 1_556
O54 Si16 1.622331 1_555
O54 Y7 2.165442 1_555
O55 Si17 1.629394 1_555
O56 S14 1.468851 1_555
O56 Y7 2.394794 1_555
O57 Si18 1.662041 1_555
O58 Si19 1.604379 1_555
O58 Y7 2.099171 1_555
O59 Si20 1.644943 1_555
O60 Si19 1.596439 1_555
O60 Y8 2.235443 1_555
O61 Si20 1.616944 1_555
O61 Y9 2.218622 1_555
O62 Si16 1.594078 1_555
O62 Y8 2.139554 1_555
O63 Si17 1.599041 1_555
O63 Y9 2.139912 1_555
O64 S14 1.469654 1_555
O64 Y8 2.288281 1_555
O65 Si18 1.588793 1_555
O65 Y9 2.165319 1_555
O66 Si14 1.616429 1_555
O66 Y10 2.188007 1_555
O67 Si15 1.592435 1_555
O67 Y11 2.251470 1_555
O68 S12 1.472151 1_555
O68 Y10 2.419403 1_555
O69 S13 1.465823 1_555
O69 Y11 2.294363 1_555
O70 Si12 1.597346 1_555
O70 Y10 2.119121 1_555
O71 Si13 1.593658 1_555
O71 Y11 2.166766 1_555
O72 Si19 1.659909 1_555
O73 Si20 1.670238 1_555
O74 Si16 1.645454 1_555
O75 Si17 1.697558 1_555
O76 S14 1.522041 1_555
O77 Si18 1.625331 1_555
O78 Si14 1.684049 1_555
O79 Si15 1.649932 1_555
O80 S12 1.472533 1_555
O81 S13 1.522510 1_545
O82 Si12 1.675927 1_555
O83 Si13 1.672651 1_555
O84 Si6 1.632241 1_555
O84 Y0 2.266057 1_545
O85 S6 1.525537 1_555
O86 Si7 1.668150 1_555
O87 S7 1.491755 1_555
O87 Y0 2.281690 1_545
O88 S8 1.500816 1_555
O88 Y0 2.325559 1_555
O89 Si8 1.668817 1_555
O90 S9 1.501084 1_555
O91 Si9 1.627081 1_555
O91 Y1 2.288628 1_665
O92 Si10 1.643690 1_555
O93 S10 1.503838 1_555
O93 Y1 2.354124 1_655
O94 S11 1.478228 1_555
O94 Y1 2.327068 1_555
O95 Si11 1.662080 1_555
O96 S5 1.483339 1_545
O96 Y2 2.496750 1_555
O97 Si5 1.628166 1_555
O97 Y3 2.275977 1_555
O98 Si3 1.593494 1_555
O98 Y2 2.232396 1_555
O99 S3 1.494598 1_555
O99 Y3 2.322228 1_555
O100 Si4 1.624759 1_555
O100 Y2 2.252868 1_555
O101 S4 1.496667 1_655
O101 Y3 2.404780 1_555
O102 Si1 1.641240 1_555
O102 Y4 2.229932 1_555
O103 S1 1.483968 1_555
O103 Y5 2.445166 1_555
O104 S2 1.500318 1_555
O104 Y4 2.324969 1_555
O105 Si2 1.625608 1_655
O105 Y5 2.242256 1_555
O106 S0 1.493705 1_555
O106 Y4 2.285649 1_555
O107 Si0 1.597805 1_545
O107 Y5 2.202530 1_555
O108 Si12 1.644454 1_555
O109 Si13 1.685864 1_555
O110 Si15 1.721121 1_555
O111 Si14 1.636287 1_655
O112 S12 1.516538 1_545
O113 S13 1.484287 1_545
O114 Si16 1.690620 1_545
O115 Si17 1.634442 1_545
O116 S14 1.483197 1_555
O117 Si18 1.671820 1_555
O118 Si20 1.647562 1_555
O119 Si19 1.687584 1_655
O120 S11 1.508415 1_555
O121 Si11 1.634238 1_555
O121 Y6 2.160682 1_555
O122 Si9 1.665269 1_455
O123 S9 1.463661 1_555
O123 Y6 2.427078 1_555
O124 Si10 1.654516 1_565
O125 S10 1.487840 1_565
O125 Y6 2.382884 1_555
O126 Si7 1.631652 1_565
O126 Y7 2.172578 1_555
O127 S7 1.483454 1_565
O128 S8 1.485891 1_555
O128 Y7 2.412015 1_555
O129 Si8 1.637779 1_555
O130 S6 1.477797 1_455
O130 Y7 2.438005 1_555
O131 Si6 1.644174 1_555
O132 S0 1.473916 1_565
O132 Y8 2.362708 1_555
O133 Si0 1.634892 1_555
O133 Y9 2.338247 1_555
O134 Si1 1.597486 1_555
O134 Y8 2.230680 1_555
O135 S1 1.468826 1_555
O135 Y9 2.393791 1_555
O136 Si2 1.618540 1_555
O136 Y8 2.233428 1_555
O137 S2 1.489485 1_555
O137 Y9 2.545243 1_555
O138 Si3 1.645900 1_555
O138 Y10 2.216403 1_555
O139 S3 1.473168 1_555
O139 Y11 2.324301 1_555
O140 S4 1.493226 1_555
O140 Y10 2.477770 1_555
O141 Si4 1.618436 1_555
O141 Y11 2.220150 1_555
O142 S5 1.478606 1_555
O142 Y10 2.350130 1_555
O143 Si5 1.587924 1_565
O143 Y11 2.219286 1_555
