# generated using pymatgen
data_LaIn5Ir
_symmetry_space_group_name_H-M   'P 1'
_cell_length_a   4.71967170
_cell_length_b   4.71967170
_cell_length_c   7.63000199
_cell_angle_alpha   90.00000000
_cell_angle_beta   90.00000000
_cell_angle_gamma   90.00000000
_symmetry_Int_Tables_number   1
_chemical_formula_structural   LaIn5Ir
_chemical_formula_sum   'La1 In5 Ir1'
_cell_volume   169.96059062
_cell_formula_units_Z   1
loop_
 _symmetry_equiv_pos_site_id
 _symmetry_equiv_pos_as_xyz
  1  'x, y, z'
loop_
 _atom_site_type_symbol
 _atom_site_label
 _atom_site_symmetry_multiplicity
 _atom_site_fract_x
 _atom_site_fract_y
 _atom_site_fract_z
 _atom_site_occupancy
  La  La0  1  -0.00000000  0.00000000  0.00000000  1
  In  In0  1  0.50000000  0.00000000  0.69287113  1
  In  In1  1  -0.00000000  0.50000000  0.69287113  1
  In  In2  1  0.50000000  0.50000000  0.00000000  1
  In  In3  1  0.00000000  0.50000000  0.30712887  1
  In  In4  1  0.50000000  -0.00000000  0.30712887  1
  Ir  Ir0  1  0.00000000  -0.00000000  0.50000000  1
loop_
_geom_bond_atom_site_label_1
_geom_bond_atom_site_label_2
_geom_bond_distance
_geom_bond_site_symmetry_2
In0 Ir0 2.781088 1_555
In0 Ir0 2.781088 1_655
In0 In4 2.943214 1_555
In0 La0 3.325706 1_656
In0 La0 3.325706 1_556
In0 In2 3.325706 1_556
In0 In2 3.325706 1_546
In0 In1 3.337312 1_645
In0 In1 3.337312 1_655
In0 In1 3.337312 1_555
In0 In1 3.337312 1_545
In1 Ir0 2.781088 1_555
In1 Ir0 2.781088 1_565
In1 In3 2.943214 1_555
In1 La0 3.325706 1_556
In1 In2 3.325706 1_456
In1 In2 3.325706 1_556
In1 La0 3.325706 1_566
In2 In3 3.325706 1_655
In2 In4 3.325706 1_555
In2 In4 3.325706 1_565
In2 In3 3.325706 1_555
In2 La0 3.337312 1_565
In2 La0 3.337312 1_655
In2 La0 3.337312 1_665
In2 La0 3.337312 1_555
In3 Ir0 2.781088 1_555
In3 Ir0 2.781088 1_565
In3 La0 3.325706 1_565
In3 La0 3.325706 1_555
In3 In4 3.337312 1_455
In3 In4 3.337312 1_555
In3 In4 3.337312 1_565
In3 In4 3.337312 1_465
In4 Ir0 2.781088 1_555
In4 Ir0 2.781088 1_655
In4 La0 3.325706 1_555
In4 La0 3.325706 1_655
