# generated using pymatgen
data_NaSc2Ta2P5SO24
_symmetry_space_group_name_H-M   'P 1'
_cell_length_a   8.79689674
_cell_length_b   8.79646644
_cell_length_c   22.81357792
_cell_angle_alpha   89.91216706
_cell_angle_beta   90.00998666
_cell_angle_gamma   119.95109608
_symmetry_Int_Tables_number   1
_chemical_formula_structural   NaSc2Ta2P5SO24
_chemical_formula_sum   'Na3 Sc6 Ta6 P15 S3 O72'
_cell_volume   1529.58977288
_cell_formula_units_Z   3
loop_
 _symmetry_equiv_pos_site_id
 _symmetry_equiv_pos_as_xyz
  1  'x, y, z'
loop_
 _atom_site_type_symbol
 _atom_site_label
 _atom_site_symmetry_multiplicity
 _atom_site_fract_x
 _atom_site_fract_y
 _atom_site_fract_z
 _atom_site_occupancy
  Na  Na0  1  0.00003670  0.99970475  0.00324073  1
  Na  Na1  1  0.66659313  0.33299369  0.83272477  1
  Na  Na2  1  0.66695797  0.33178295  0.33715292  1
  Sc  Sc0  1  0.99428129  0.99400880  0.64529023  1
  Sc  Sc1  1  0.00695301  0.00520261  0.14702887  1
  Sc  Sc2  1  0.66451999  0.33952937  0.68705973  1
  Sc  Sc3  1  0.66675324  0.33423261  0.97941161  1
  Sc  Sc4  1  0.66935059  0.34091741  0.47987650  1
  Sc  Sc5  1  0.32729075  0.66700014  0.31204806  1
  Ta  Ta0  1  0.00658526  0.00852807  0.35883978  1
  Ta  Ta1  1  0.00012455  0.00039647  0.85332770  1
  Ta  Ta2  1  0.66617756  0.32740061  0.18669385  1
  Ta  Ta3  1  0.33230226  0.66608264  0.02485075  1
  Ta  Ta4  1  0.33850061  0.66774860  0.52075419  1
  Ta  Ta5  1  0.33377930  0.66656064  0.80928111  1
  P  P0  1  0.28697756  0.99916130  0.24997239  1
  P  P1  1  0.00175322  0.28834796  0.24985950  1
  P  P2  1  0.28840259  0.28670463  0.74930171  1
  P  P3  1  0.99833061  0.71077248  0.74984275  1
  P  P4  1  0.71241442  0.00321932  0.74966226  1
  P  P5  1  0.66838242  0.62381874  0.58308168  1
  P  P6  1  0.95270786  0.62312284  0.08264877  1
  P  P7  1  0.66978029  0.04480705  0.08192439  1
  P  P8  1  0.37830141  0.33123442  0.08249269  1
  P  P9  1  0.61887562  0.66663384  0.91639600  1
  P  P10  1  0.04752819  0.38124211  0.91629097  1
  P  P11  1  0.33388852  0.95249894  0.91623596  1
  P  P12  1  0.62020436  0.95622661  0.41538601  1
  P  P13  1  0.33837150  0.38377661  0.41587840  1
  P  P14  1  0.04502127  0.66517017  0.41632046  1
  S  S0  1  0.71180246  0.71174547  0.24996096  1
  S  S1  1  0.95830332  0.33432081  0.58280316  1
  S  S2  1  0.37624369  0.04242858  0.58274718  1
  O  O0  1  0.19859371  0.03279919  0.30496217  1
  O  O1  1  0.82493421  0.79064962  0.30302369  1
  O  O2  1  0.96562168  0.16595527  0.30507292  1
  O  O3  1  0.19424154  0.17069917  0.80549198  1
  O  O4  1  0.97578109  0.80498899  0.80557423  1
  O  O5  1  0.82887962  0.02388178  0.80554677  1
  O  O6  1  0.78893598  0.96420855  0.69649511  1
  O  O7  1  0.17412896  0.21021420  0.69600124  1
  O  O8  1  0.03761761  0.82572169  0.69642937  1
  O  O9  1  0.79036796  0.81439063  0.19724275  1
  O  O10  1  0.02157535  0.20229089  0.19564217  1
  O  O11  1  0.17915593  0.97476519  0.19578499  1
  O  O12  1  0.88389263  0.36886455  0.63553766  1
  O  O13  1  0.48581785  0.11441028  0.63550426  1
  O  O14  1  0.62810467  0.50763251  0.63766901  1
  O  O15  1  0.86556169  0.50222609  0.13811202  1
  O  O16  1  0.63567650  0.13224708  0.13778266  1
  O  O17  1  0.49755614  0.36383971  0.13799357  1
  O  O18  1  0.46155133  0.30504858  0.02826540  1
  O  O19  1  0.84397692  0.53870309  0.02836239  1
  O  O20  1  0.69555523  0.15637888  0.02835652  1
  O  O21  1  0.45688277  0.14820629  0.53026655  1
  O  O22  1  0.69269300  0.53847388  0.52865402  1
  O  O23  1  0.85086767  0.30614953  0.53045001  1
  O  O24  1  0.53248234  0.69794452  0.97123237  1
  O  O25  1  0.16533549  0.46739983  0.97116317  1
  O  O26  1  0.30225379  0.83461580  0.97119321  1
  O  O27  1  0.53311748  0.83663425  0.47121543  1
  O  O28  1  0.30257306  0.46655397  0.47137664  1
  O  O29  1  0.16315953  0.69732216  0.47149891  1
  O  O30  1  0.12648987  0.63762339  0.36211450  1
  O  O31  1  0.51090988  0.87160668  0.36170078  1
  O  O32  1  0.36338202  0.49045022  0.36150762  1
  O  O33  1  0.14064182  0.49556467  0.86181997  1
  O  O34  1  0.35487167  0.85931732  0.86180742  1
  O  O35  1  0.50459830  0.64522161  0.86189082  1
  O  O36  1  0.02713893  0.83302736  0.40576341  1
  O  O37  1  0.80438449  0.96947961  0.40614501  1
  O  O38  1  0.16727501  0.19750509  0.40790319  1
  O  O39  1  0.03183390  0.19634254  0.90810710  1
  O  O40  1  0.16460011  0.96820096  0.90803428  1
  O  O41  1  0.80375483  0.83542634  0.90808686  1
  O  O42  1  0.98362463  0.18346979  0.59056258  1
  O  O43  1  0.20120688  0.01955414  0.59056953  1
  O  O44  1  0.82352638  0.80709527  0.59134116  1
  O  O45  1  0.97955473  0.80540893  0.09093133  1
  O  O46  1  0.82398180  0.01691974  0.09115671  1
  O  O47  1  0.19477875  0.17608866  0.08988886  1
  O  O48  1  0.68909959  0.16272821  0.74620191  1
  O  O49  1  0.47144534  0.30872824  0.74717709  1
  O  O50  1  0.83882410  0.52727637  0.74682525  1
  O  O51  1  0.69593264  0.53136687  0.24286380  1
  O  O52  1  0.82977645  0.30516938  0.24165160  1
  O  O53  1  0.47423051  0.17212386  0.24165882  1
  O  O54  1  0.64126309  0.50769921  0.92105710  1
  O  O55  1  0.86630162  0.35875436  0.92108840  1
  O  O56  1  0.49250989  0.13362373  0.92110070  1
  O  O57  1  0.64813989  0.13897622  0.42539927  1
  O  O58  1  0.49013608  0.34992933  0.42436765  1
  O  O59  1  0.86139427  0.50812487  0.42410726  1
  O  O60  1  0.36315668  0.50086226  0.07348557  1
  O  O61  1  0.13719596  0.63703778  0.07345149  1
  O  O62  1  0.49871440  0.86199596  0.07355060  1
  O  O63  1  0.35716679  0.86262882  0.57280268  1
  O  O64  1  0.49962444  0.64213248  0.57093630  1
  O  O65  1  0.13660746  0.49583959  0.57265754  1
  O  O66  1  0.31702253  0.84721864  0.25931926  1
  O  O67  1  0.53741476  0.68717919  0.25823826  1
  O  O68  1  0.15588007  0.46848611  0.25934818  1
  O  O69  1  0.30711229  0.46973793  0.76321888  1
  O  O70  1  0.16322868  0.69296263  0.76327606  1
  O  O71  1  0.53021525  0.83724417  0.76326398  1
loop_
_geom_bond_atom_site_label_1
_geom_bond_atom_site_label_2
_geom_bond_distance
_geom_bond_site_symmetry_2
Na0 O47 2.569791 1_565
Na0 O45 2.576401 1_455
Na0 O46 2.584658 1_465
Na0 O39 2.699281 1_564
Na0 O40 2.700664 1_554
Na0 O41 2.701635 1_454
Na1 O49 2.536879 1_555
Na1 O50 2.542012 1_555
Na1 O48 2.546363 1_555
Na1 O56 2.606584 1_555
Na1 O55 2.608490 1_555
Na1 O54 2.612259 1_555
Na2 O59 2.574095 1_555
Na2 O58 2.579499 1_555
Na2 O57 2.581902 1_555
Na2 O52 2.681529 1_555
Na2 O53 2.687656 1_555
Na2 O51 2.704831 1_555
O0 P0 1.580211 1_545
O0 Ta0 2.012260 1_555
O1 S0 1.500014 1_555
O1 Ta0 2.190173 1_665
O2 P1 1.581475 1_655
O2 Ta0 2.011227 1_655
O3 P2 1.588409 1_555
O3 Ta1 1.947412 1_555
O4 P3 1.584372 1_555
O4 Ta1 1.955868 1_665
O5 P4 1.588223 1_555
O5 Ta1 1.951844 1_655
O6 P4 1.508083 1_565
O6 Sc0 2.055088 1_555
O7 P2 1.506171 1_555
O7 Sc0 2.111899 1_445
O8 P3 1.508030 1_455
O8 Sc0 2.062979 1_455
O9 S0 1.453697 1_555
O9 Sc1 2.135718 1_665
O10 P1 1.506022 1_555
O10 Sc1 2.008816 1_555
O11 P0 1.507006 1_555
O11 Sc1 2.001790 1_565
O12 S1 1.472473 1_555
O12 Sc2 2.162152 1_555
O13 S2 1.473482 1_555
O13 Sc2 2.161971 1_555
O14 P5 1.534796 1_555
O14 Sc2 2.006640 1_555
O15 P6 1.581717 1_555
O15 Ta2 1.992951 1_555
O16 P7 1.593448 1_555
O16 Ta2 1.951886 1_555
O17 P8 1.576774 1_555
O17 Ta2 2.002632 1_555
O18 P8 1.513100 1_555
O18 Sc3 2.025762 1_554
O19 P6 1.514364 1_555
O19 Sc3 2.029359 1_554
O20 P7 1.510733 1_555
O20 Sc3 2.036902 1_554
O21 S2 1.462959 1_555
O21 Sc4 2.125936 1_555
O22 P5 1.521313 1_555
O22 Sc4 1.987447 1_555
O23 S1 1.465531 1_555
O23 Sc4 2.111951 1_555
O24 P9 1.558487 1_555
O24 Ta3 2.045168 1_556
O25 P10 1.560019 1_555
O25 Ta3 2.038305 1_556
O26 P11 1.559697 1_555
O26 Ta3 2.037586 1_556
O27 P12 1.583451 1_555
O27 Ta4 1.967534 1_555
O28 P13 1.569824 1_555
O28 Ta4 1.987085 1_555
O29 P14 1.565822 1_555
O29 Ta4 2.026991 1_555
O30 P14 1.508715 1_555
O30 Sc5 2.008893 1_555
O31 P12 1.505408 1_555
O31 Sc5 2.057742 1_555
O32 P13 1.502618 1_555
O32 Sc5 2.067044 1_555
O33 P10 1.549357 1_555
O33 Ta5 2.007275 1_555
O34 P11 1.549855 1_555
O34 Ta5 2.009321 1_555
O35 P9 1.550316 1_555
O35 Ta5 2.003527 1_555
O36 P14 1.579171 1_555
O36 Ta0 1.958446 1_565
O37 P12 1.579420 1_555
O37 Ta0 1.958579 1_665
O38 P13 1.587939 1_555
O38 Ta0 1.916557 1_555
O39 P10 1.573532 1_555
O39 Ta1 2.033938 1_555
O40 P11 1.573866 1_555
O40 Ta1 2.034388 1_565
O41 P9 1.572763 1_555
O41 Ta1 2.035352 1_665
O42 S1 1.461565 1_555
O42 Sc0 2.120076 1_545
O43 S2 1.460779 1_555
O43 Sc0 2.124603 1_445
O44 P5 1.516936 1_555
O44 Sc0 2.003481 1_555
O45 P6 1.511750 1_555
O45 Sc1 2.090096 1_665
O46 P7 1.508850 1_555
O46 Sc1 2.095380 1_655
O47 P8 1.515498 1_555
O47 Sc1 2.050277 1_555
O48 P4 1.517904 1_555
O48 Sc2 2.148298 1_555
O49 P2 1.523537 1_555
O49 Sc2 2.092685 1_555
O50 P3 1.522421 1_555
O50 Sc2 2.101248 1_555
O51 S0 1.530654 1_555
O51 Ta2 2.113689 1_555
O52 P1 1.602826 1_655
O52 Ta2 1.990237 1_555
O53 P0 1.600294 1_545
O53 Ta2 1.995429 1_555
O54 P9 1.509681 1_555
O54 Sc3 2.118075 1_555
O55 P10 1.509233 1_655
O55 Sc3 2.126080 1_555
O56 P11 1.509452 1_545
O56 Sc3 2.130432 1_555
O57 P12 1.517708 1_545
O57 Sc4 2.100151 1_555
O58 P13 1.518280 1_555
O58 Sc4 2.054064 1_555
O59 P14 1.523295 1_655
O59 Sc4 2.037155 1_555
O60 P8 1.576058 1_555
O60 Ta3 1.950851 1_555
O61 P6 1.579421 1_455
O61 Ta3 1.949959 1_555
O62 P7 1.572103 1_565
O62 Ta3 1.957939 1_555
O63 S2 1.522221 1_565
O63 Ta4 2.025016 1_555
O64 P5 1.595345 1_555
O64 Ta4 1.920407 1_555
O65 S1 1.518670 1_455
O65 Ta4 2.038780 1_555
O66 P0 1.501184 1_555
O66 Sc5 2.026188 1_555
O67 S0 1.450754 1_555
O67 Sc5 2.151215 1_555
O68 P1 1.500580 1_555
O68 Sc5 2.035942 1_555
O69 P2 1.567511 1_555
O69 Ta5 1.938247 1_555
O70 P3 1.565022 1_455
O70 Ta5 1.937279 1_555
O71 P4 1.568115 1_565
O71 Ta5 1.935868 1_555
