# generated using pymatgen
data_AlCu
_symmetry_space_group_name_H-M   'P 1'
_cell_length_a   4.05572184
_cell_length_b   6.31517560
_cell_length_c   6.32456864
_cell_angle_alpha   65.48687748
_cell_angle_beta   71.36152755
_cell_angle_gamma   71.43809003
_symmetry_Int_Tables_number   1
_chemical_formula_structural   AlCu
_chemical_formula_sum   'Al5 Cu5'
_cell_volume   136.37894604
_cell_formula_units_Z   5
loop_
 _symmetry_equiv_pos_site_id
 _symmetry_equiv_pos_as_xyz
  1  'x, y, z'
loop_
 _atom_site_type_symbol
 _atom_site_label
 _atom_site_symmetry_multiplicity
 _atom_site_fract_x
 _atom_site_fract_y
 _atom_site_fract_z
 _atom_site_occupancy
  Al  Al0  1  0.50000000  0.50000000  0.50000000  1
  Al  Al1  1  0.84514971  0.46048356  0.84957741  1
  Al  Al2  1  0.15485029  0.53951644  0.15042259  1
  Al  Al3  1  0.62316791  0.99377092  0.76059171  1
  Al  Al4  1  0.37683209  0.00622908  0.23940829  1
  Cu  Cu0  1  0.00000000  0.00000000  -0.00000000  1
  Cu  Cu1  1  0.73969721  0.24150696  0.27583163  1
  Cu  Cu2  1  0.26030279  0.75849304  0.72416837  1
  Cu  Cu3  1  0.89095358  0.77254544  0.44562536  1
  Cu  Cu4  1  0.10904642  0.22745456  0.55437464  1
loop_
_geom_bond_atom_site_label_1
_geom_bond_atom_site_label_2
_geom_bond_distance
_geom_bond_site_symmetry_2
Al0 Cu2 2.376789 1_555
Al0 Cu1 2.376789 1_555
Al0 Cu3 2.548061 1_555
Al0 Cu4 2.548061 1_555
Al0 Cu3 2.554849 1_455
Al0 Cu4 2.554849 1_655
Al1 Cu1 2.430845 1_556
Al1 Cu3 2.489411 1_555
Al1 Cu0 2.584493 1_656
Al1 Cu4 2.607081 1_655
Al1 Cu2 2.630411 1_555
Al1 Cu2 2.632699 1_655
Al2 Cu2 2.430845 1_554
Al2 Cu4 2.489411 1_555
Al2 Cu0 2.584493 1_565
Al2 Cu3 2.607081 1_455
Al2 Cu1 2.630411 1_555
Al2 Cu1 2.632699 1_455
Al3 Cu0 2.489349 1_666
Al3 Cu0 2.494387 1_566
Al3 Cu2 2.513850 1_555
Al3 Cu4 2.524603 1_665
Al3 Cu2 2.529256 1_655
Al3 Cu4 2.531542 1_565
Al3 Cu3 2.657067 1_555
Al3 Cu1 2.763167 1_565
Al4 Cu0 2.489349 1_555
Al4 Cu0 2.494387 1_655
Al4 Cu1 2.513850 1_555
Al4 Cu3 2.524603 1_445
Al4 Cu1 2.529256 1_455
Al4 Cu3 2.531542 1_545
Al4 Cu4 2.657067 1_555
Al4 Cu2 2.763167 1_545
Cu0 Cu4 2.539796 1_554
Cu0 Cu3 2.539796 1_445
Cu0 Cu2 2.547449 1_544
Cu0 Cu1 2.547449 1_455
Cu1 Cu4 2.605389 1_555
Cu1 Cu4 2.612986 1_655
Cu1 Cu3 2.631690 1_545
Cu2 Cu3 2.605389 1_555
Cu2 Cu3 2.612986 1_455
Cu2 Cu4 2.631690 1_565
