# generated using pymatgen
data_Na2In4Ga4SiS11O48
_symmetry_space_group_name_H-M   'P 1'
_cell_length_a   17.35202149
_cell_length_b   8.68455188
_cell_length_c   22.78649082
_cell_angle_alpha   89.96514728
_cell_angle_beta   90.05403000
_cell_angle_gamma   120.10957242
_symmetry_Int_Tables_number   1
_chemical_formula_structural   Na2In4Ga4SiS11O48
_chemical_formula_sum   'Na6 In12 Ga12 Si3 S33 O144'
_cell_volume   2970.46744693
_cell_formula_units_Z   3
loop_
 _symmetry_equiv_pos_site_id
 _symmetry_equiv_pos_as_xyz
  1  'x, y, z'
loop_
 _atom_site_type_symbol
 _atom_site_label
 _atom_site_symmetry_multiplicity
 _atom_site_fract_x
 _atom_site_fract_y
 _atom_site_fract_z
 _atom_site_occupancy
  Na  Na0  1  0.00235807  0.98330342  0.49589350  1
  Na  Na1  1  0.50286671  0.02257240  0.99760689  1
  Na  Na2  1  0.34181185  0.33409318  0.83604502  1
  Na  Na3  1  0.84156820  0.35503410  0.83044026  1
  Na  Na4  1  0.33173047  0.33113770  0.33380108  1
  Na  Na5  1  0.84231286  0.34698740  0.33338043  1
  In  In0  1  -0.00019604  0.99243191  0.85326913  1
  In  In1  1  0.49947716  0.00696727  0.85398475  1
  In  In2  1  0.99971995  0.99340021  0.65206507  1
  In  In3  1  0.49986760  0.00072148  0.64280848  1
  In  In4  1  0.33711940  0.33946916  0.68288852  1
  In  In5  1  0.83717706  0.34636454  0.68272106  1
  In  In6  1  0.33899781  0.33709109  0.98442014  1
  In  In7  1  0.83981288  0.34229124  0.47794317  1
  In  In8  1  0.66294040  0.65686649  0.02214457  1
  In  In9  1  0.16227713  0.67103295  0.51393381  1
  In  In10  1  0.15807198  0.66541087  0.81263936  1
  In  In11  1  0.66604510  0.66040483  0.81825860  1
  Ga  Ga0  1  0.00226229  0.99263437  0.34888886  1
  Ga  Ga1  1  0.50060164  0.00003858  0.35212340  1
  Ga  Ga2  1  0.99841266  0.99837054  0.14724499  1
  Ga  Ga3  1  0.50031959  0.00177199  0.15398587  1
  Ga  Ga4  1  0.32756428  0.32812195  0.18184187  1
  Ga  Ga5  1  0.83933813  0.33690848  0.18360281  1
  Ga  Ga6  1  0.83494939  0.33663680  0.98590751  1
  Ga  Ga7  1  0.33451268  0.33438759  0.48127146  1
  Ga  Ga8  1  0.16358977  0.66222525  0.02008773  1
  Ga  Ga9  1  0.66543022  0.66919377  0.51591504  1
  Ga  Ga10  1  0.16381549  0.66440838  0.31521750  1
  Ga  Ga11  1  0.66382115  0.66235839  0.31288979  1
  Si  Si0  1  0.99764940  0.69965698  0.74987341  1
  Si  Si1  1  0.51652908  0.36890291  0.91858475  1
  Si  Si2  1  0.02066457  0.67300990  0.41013409  1
  S  S0  1  0.14742913  0.00430615  0.24699171  1
  S  S1  1  0.64576184  0.00108151  0.25210206  1
  S  S2  1  0.35356741  0.70868189  0.25228951  1
  S  S3  1  0.85301143  0.70659655  0.24813375  1
  S  S4  1  0.99998349  0.28415057  0.24997543  1
  S  S5  1  0.49926099  0.29052778  0.25028121  1
  S  S6  1  0.15363459  0.30033658  0.75131448  1
  S  S7  1  0.64698750  0.29403176  0.74769691  1
  S  S8  1  0.50044562  0.70833538  0.75056572  1
  S  S9  1  0.35271262  0.00195749  0.74786947  1
  S  S10  1  0.84745697  0.99810654  0.75236925  1
  S  S11  1  0.48300918  0.34341121  0.57684161  1
  S  S12  1  0.98416121  0.32552667  0.58246729  1
  S  S13  1  0.18935289  0.04700888  0.57882500  1
  S  S14  1  0.68793095  0.03339178  0.57911743  1
  S  S15  1  0.33253872  0.62394817  0.57812448  1
  S  S16  1  0.82620208  0.63422320  0.57821989  1
  S  S17  1  0.47778956  0.63545770  0.09139856  1
  S  S18  1  0.97959615  0.62734750  0.08472676  1
  S  S19  1  0.33307475  0.03062931  0.08793601  1
  S  S20  1  0.83740398  0.05008194  0.08625275  1
  S  S21  1  0.18368181  0.33208326  0.08548279  1
  S  S22  1  0.68922375  0.32291442  0.08824529  1
  S  S23  1  0.30525433  0.66287800  0.91990409  1
  S  S24  1  0.81783254  0.66000219  0.92241204  1
  S  S25  1  0.01646457  0.37068964  0.92339230  1
  S  S26  1  0.16540611  0.95411469  0.92265917  1
  S  S27  1  0.67507359  0.97677651  0.92078529  1
  S  S28  1  0.31897402  0.96801967  0.41278988  1
  S  S29  1  0.80738510  0.94431319  0.41305481  1
  S  S30  1  0.17042626  0.37190166  0.41322591  1
  S  S31  1  0.65994378  0.37500558  0.41247257  1
  S  S32  1  0.52145921  0.66786879  0.41453573  1
  O  O0  1  0.11017137  0.04493527  0.29938513  1
  O  O1  1  0.60551837  0.03816094  0.30407496  1
  O  O2  1  0.41346636  0.78761941  0.30416598  1
  O  O3  1  0.91051168  0.78499672  0.30038342  1
  O  O4  1  0.48154950  0.17431435  0.30195935  1
  O  O5  1  0.98120790  0.16854028  0.30281732  1
  O  O6  1  0.11058266  0.19568130  0.80461448  1
  O  O7  1  0.60694827  0.18868846  0.80123139  1
  O  O8  1  0.48671677  0.78886153  0.80395543  1
  O  O9  1  0.98142107  0.77983890  0.80957122  1
  O  O10  1  0.40798125  0.03349205  0.80051097  1
  O  O11  1  0.90439151  0.03538712  0.80494175  1
  O  O12  1  0.39459558  0.98856941  0.69321778  1
  O  O13  1  0.88836316  0.98130112  0.69806236  1
  O  O14  1  0.10192023  0.22391465  0.69725124  1
  O  O15  1  0.59272401  0.21274565  0.69448662  1
  O  O16  1  0.01021312  0.80164441  0.68810797  1
  O  O17  1  0.50416775  0.80437499  0.69641215  1
  O  O18  1  0.39297488  0.82099911  0.19948412  1
  O  O19  1  0.89288811  0.81736065  0.19508876  1
  O  O20  1  0.01115641  0.20033915  0.19676585  1
  O  O21  1  0.51680388  0.21325657  0.19705893  1
  O  O22  1  0.09114773  0.97348563  0.19446693  1
  O  O23  1  0.58939605  0.96717052  0.19912350  1
  O  O24  1  0.44852397  0.37898264  0.63114689  1
  O  O25  1  0.94103733  0.34439411  0.63476406  1
  O  O26  1  0.23775192  0.13061317  0.63326554  1
  O  O27  1  0.74194243  0.11010346  0.63234948  1
  O  O28  1  0.31786487  0.52225707  0.63285983  1
  O  O29  1  0.81240358  0.52982703  0.63176430  1
  O  O30  1  0.43207031  0.51500718  0.14227120  1
  O  O31  1  0.94167558  0.51153729  0.13776402  1
  O  O32  1  0.31706393  0.11648524  0.13982253  1
  O  O33  1  0.82089300  0.12935654  0.13967094  1
  O  O34  1  0.24328335  0.37206846  0.13811953  1
  O  O35  1  0.74390625  0.34354167  0.14118366  1
  O  O36  1  0.22182771  0.29170983  0.03413336  1
  O  O37  1  0.72769185  0.29206866  0.03437018  1
  O  O38  1  0.42508653  0.56824762  0.03707427  1
  O  O39  1  0.92017641  0.54855750  0.03330719  1
  O  O40  1  0.35426096  0.14204591  0.03514242  1
  O  O41  1  0.85424514  0.16463880  0.03399020  1
  O  O42  1  0.23516295  0.15623896  0.52539741  1
  O  O43  1  0.72886934  0.14759774  0.52693346  1
  O  O44  1  0.34694005  0.53496586  0.52653382  1
  O  O45  1  0.84245297  0.55239128  0.52620800  1
  O  O46  1  0.42314495  0.31041004  0.52568020  1
  O  O47  1  0.93034911  0.29650944  0.52843622  1
  O  O48  1  0.26375706  0.68845869  0.97356731  1
  O  O49  1  0.77438933  0.68110448  0.97474890  1
  O  O50  1  0.07328064  0.45730278  0.97589380  1
  O  O51  1  0.56879863  0.44641180  0.98031813  1
  O  O52  1  0.15723071  0.84655640  0.97603748  1
  O  O53  1  0.66449214  0.87296321  0.97438635  1
  O  O54  1  0.28444215  0.86246781  0.46641129  1
  O  O55  1  0.76818218  0.83524912  0.46652975  1
  O  O56  1  0.15678643  0.44346640  0.46792795  1
  O  O57  1  0.64667884  0.45600986  0.46555293  1
  O  O58  1  0.07235414  0.71121931  0.47219594  1
  O  O59  1  0.57706754  0.70037556  0.46709874  1
  O  O60  1  0.06865706  0.63970796  0.35430017  1
  O  O61  1  0.55941302  0.62947276  0.36170230  1
  O  O62  1  0.26082275  0.88650028  0.36086069  1
  O  O63  1  0.75265241  0.85865729  0.35975716  1
  O  O64  1  0.19061940  0.49141287  0.36182908  1
  O  O65  1  0.67665494  0.48858388  0.35936056  1
  O  O66  1  0.05157530  0.47733865  0.87002290  1
  O  O67  1  0.55803939  0.48029218  0.85910301  1
  O  O68  1  0.18202738  0.88071001  0.86937283  1
  O  O69  1  0.69234300  0.90470200  0.86738620  1
  O  O70  1  0.25699796  0.65014537  0.86585710  1
  O  O71  1  0.76567725  0.62723562  0.86809282  1
  O  O72  1  0.00994452  0.85048784  0.40340797  1
  O  O73  1  0.51324338  0.82818414  0.40546605  1
  O  O74  1  0.40846634  0.98948833  0.40300419  1
  O  O75  1  0.89769554  0.97008134  0.40695832  1
  O  O76  1  0.08871707  0.19769187  0.40351608  1
  O  O77  1  0.57768541  0.19969101  0.40436966  1
  O  O78  1  0.00739971  0.19401364  0.91727620  1
  O  O79  1  0.50585528  0.17171875  0.91757318  1
  O  O80  1  0.08410842  0.96495977  0.91969164  1
  O  O81  1  0.59313653  0.98791598  0.91538719  1
  O  O82  1  0.39680021  0.81667399  0.91817748  1
  O  O83  1  0.90566654  0.81925934  0.91892662  1
  O  O84  1  0.49146062  0.18390891  0.58228074  1
  O  O85  1  0.99283205  0.16424267  0.58700005  1
  O  O86  1  0.10082526  0.03158399  0.57930790  1
  O  O87  1  0.59812961  0.01089447  0.58485457  1
  O  O88  1  0.41401642  0.79975622  0.58214962  1
  O  O89  1  0.90373737  0.81609011  0.58229001  1
  O  O90  1  0.48571116  0.81337701  0.10019896  1
  O  O91  1  0.98811058  0.80405623  0.09478458  1
  O  O92  1  0.41369316  0.01254955  0.09810705  1
  O  O93  1  0.91828672  0.03501649  0.09444189  1
  O  O94  1  0.09518896  0.17405339  0.09651553  1
  O  O95  1  0.59847392  0.16083607  0.09462786  1
  O  O96  1  0.34332505  0.16341835  0.74487721  1
  O  O97  1  0.82970490  0.14662004  0.74754890  1
  O  O98  1  0.24119208  0.30693010  0.74813148  1
  O  O99  1  0.73243003  0.29884123  0.74257232  1
  O  O100  1  0.42010883  0.52628275  0.74828408  1
  O  O101  1  0.90751135  0.50417254  0.74887689  1
  O  O102  1  0.34366815  0.52848700  0.24418565  1
  O  O103  1  0.84390849  0.52540188  0.24066876  1
  O  O104  1  0.41899391  0.30919326  0.24216200  1
  O  O105  1  0.91899536  0.30607005  0.24354691  1
  O  O106  1  0.23818046  0.17086802  0.23974056  1
  O  O107  1  0.73567946  0.15992550  0.24450422  1
  O  O108  1  0.30749816  0.49565661  0.92454705  1
  O  O109  1  0.82670022  0.49712647  0.92919560  1
  O  O110  1  0.41923496  0.35514295  0.91887845  1
  O  O111  1  0.92706469  0.35344932  0.93210430  1
  O  O112  1  0.24368331  0.13432554  0.92777917  1
  O  O113  1  0.75369705  0.16014131  0.92770345  1
  O  O114  1  0.32909313  0.14983320  0.41979029  1
  O  O115  1  0.81067219  0.11722047  0.41749307  1
  O  O116  1  0.24990752  0.34611444  0.41944876  1
  O  O117  1  0.73746733  0.34990406  0.41734337  1
  O  O118  1  0.43106048  0.50768627  0.42217441  1
  O  O119  1  0.92181962  0.49310731  0.41222849  1
  O  O120  1  0.17465999  0.49097977  0.07628159  1
  O  O121  1  0.68278709  0.48430407  0.08476475  1
  O  O122  1  0.06792358  0.64625197  0.07501662  1
  O  O123  1  0.56658348  0.65651174  0.08726989  1
  O  O124  1  0.25369255  0.85364188  0.07956702  1
  O  O125  1  0.75830771  0.87331255  0.07904177  1
  O  O126  1  0.18466455  0.87410686  0.57586017  1
  O  O127  1  0.67856747  0.85556568  0.57011175  1
  O  O128  1  0.25383447  0.64175601  0.56985187  1
  O  O129  1  0.74378555  0.64320745  0.56981966  1
  O  O130  1  0.07278307  0.48381817  0.57776181  1
  O  O131  1  0.57068217  0.50244118  0.56686359  1
  O  O132  1  0.16022441  0.85103219  0.25503385  1
  O  O133  1  0.65297127  0.83955003  0.26108640  1
  O  O134  1  0.26524596  0.69190571  0.26178106  1
  O  O135  1  0.76403578  0.68658184  0.25702492  1
  O  O136  1  0.08109135  0.45863161  0.25685908  1
  O  O137  1  0.57926109  0.46858856  0.25866522  1
  O  O138  1  0.17013890  0.48157785  0.75650562  1
  O  O139  1  0.65968142  0.47323742  0.75199492  1
  O  O140  1  0.08603205  0.68244264  0.75026404  1
  O  O141  1  0.58183309  0.69908523  0.75376095  1
  O  O142  1  0.26716137  0.84125377  0.75338598  1
  O  O143  1  0.76236528  0.82960775  0.75874897  1
loop_
_geom_bond_atom_site_label_1
_geom_bond_atom_site_label_2
_geom_bond_distance
_geom_bond_site_symmetry_2
Na0 O72 2.438197 1_555
Na0 O86 2.446210 1_565
Na0 O89 2.534267 1_455
Na0 O85 2.659236 1_465
Na0 O75 2.683715 1_455
Na0 O76 2.710136 1_565
Na1 O79 2.221747 1_555
Na1 O81 2.556031 1_545
Na1 O82 2.560529 1_545
Na1 O95 2.660678 1_556
Na1 O92 2.741799 1_556
Na1 O90 2.882308 1_546
Na2 O110 2.269382 1_555
Na2 O100 2.521237 1_555
Na2 O96 2.560502 1_555
Na2 O98 2.587998 1_555
Na2 O108 2.689610 1_555
Na2 O112 2.704988 1_555
Na3 O101 2.226022 1_555
Na3 O97 2.552566 1_555
Na3 O99 2.626809 1_555
Na3 O109 2.641405 1_555
Na3 O113 2.741180 1_555
Na3 O111 2.753456 1_555
Na4 O116 2.456079 1_555
Na4 O114 2.498927 1_555
Na4 O118 2.592762 1_555
Na4 O102 2.605863 1_555
Na4 O106 2.626083 1_555
Na4 O104 2.642988 1_555
Na5 O119 2.232322 1_555
Na5 O105 2.562683 1_555
Na5 O103 2.611056 1_555
Na5 O115 2.618164 1_555
Na5 O117 2.650226 1_555
Na5 O107 2.673051 1_555
In0 O9 1.978056 1_455
In0 O6 2.153422 1_565
In0 O83 2.169210 1_455
In0 O11 2.169922 1_465
In0 O80 2.198455 1_555
In0 O78 2.231724 1_565
In1 O79 2.000560 1_555
In1 O10 2.102688 1_555
In1 O7 2.112427 1_555
In1 O8 2.125507 1_545
In1 O81 2.211651 1_545
In1 O82 2.256730 1_545
In2 O16 1.945049 1_655
In2 O85 2.142111 1_565
In2 O13 2.154813 1_555
In2 O14 2.156350 1_665
In2 O89 2.257825 1_555
In2 O86 2.314629 1_665
In3 O15 2.096587 1_555
In3 O12 2.116057 1_545
In3 O87 2.124111 1_555
In3 O17 2.128397 1_545
In3 O88 2.136869 1_545
In3 O84 2.164319 1_555
In4 O26 2.098211 1_555
In4 O28 2.111947 1_555
In4 O96 2.122884 1_555
In4 O100 2.140378 1_555
In4 O24 2.140778 1_555
In4 O98 2.143105 1_555
In5 O101 1.990241 1_555
In5 O25 2.115891 1_555
In5 O99 2.141312 1_555
In5 O29 2.180724 1_555
In5 O27 2.203542 1_555
In5 O97 2.231517 1_555
In6 O110 1.994516 1_555
In6 O112 2.139795 1_555
In6 O38 2.166063 1_556
In6 O40 2.173097 1_556
In6 O36 2.184501 1_556
In6 O108 2.192685 1_555
In7 O119 2.028371 1_555
In7 O45 2.111721 1_555
In7 O43 2.132376 1_555
In7 O47 2.138360 1_555
In7 O115 2.232483 1_555
In7 O117 2.275528 1_555
In8 O51 1.980151 1_554
In8 O49 2.132075 1_554
In8 O53 2.157286 1_554
In8 O125 2.197887 1_555
In8 O121 2.216932 1_555
In8 O123 2.235452 1_555
In9 O58 2.001039 1_555
In9 O126 2.137053 1_555
In9 O128 2.147841 1_555
In9 O130 2.153719 1_555
In9 O56 2.197104 1_555
In9 O54 2.212788 1_555
In10 O140 1.945896 1_555
In10 O68 2.135932 1_555
In10 O138 2.137085 1_555
In10 O70 2.158445 1_555
In10 O66 2.183125 1_555
In10 O142 2.200055 1_555
In11 O67 1.971182 1_555
In11 O143 2.080680 1_555
In11 O139 2.181001 1_555
In11 O71 2.203818 1_555
In11 O141 2.212663 1_555
In11 O69 2.234548 1_555
Ga0 O72 1.802204 1_555
Ga0 O5 2.031406 1_465
Ga0 O3 2.031424 1_455
Ga0 O0 2.033427 1_565
Ga0 O76 2.071251 1_565
Ga0 O75 2.174645 1_455
Ga1 O74 1.940345 1_545
Ga1 O77 1.971143 1_555
Ga1 O1 2.005292 1_555
Ga1 O73 2.019603 1_545
Ga1 O2 2.020955 1_545
Ga1 O4 2.050800 1_555
Ga2 O94 1.978615 1_665
Ga2 O93 1.980495 1_565
Ga2 O91 2.002015 1_555
Ga2 O20 2.002880 1_665
Ga2 O19 2.031306 1_555
Ga2 O22 2.034509 1_655
Ga3 O90 1.956794 1_545
Ga3 O21 1.973064 1_555
Ga3 O23 1.999964 1_545
Ga3 O92 2.006702 1_555
Ga3 O18 2.019092 1_545
Ga3 O95 2.068819 1_555
Ga4 O30 1.945246 1_555
Ga4 O34 1.958000 1_555
Ga4 O106 1.971731 1_555
Ga4 O32 1.998476 1_555
Ga4 O102 2.153710 1_555
Ga4 O104 2.165745 1_555
Ga5 O35 1.942253 1_555
Ga5 O33 1.943273 1_555
Ga5 O31 1.960586 1_555
Ga5 O105 2.053136 1_555
Ga5 O103 2.061311 1_555
Ga5 O107 2.179871 1_555
Ga6 O109 1.957215 1_555
Ga6 O111 1.961766 1_555
Ga6 O113 1.981650 1_555
Ga6 O39 2.002358 1_556
Ga6 O41 2.010682 1_556
Ga6 O37 2.028229 1_556
Ga7 O42 1.924038 1_555
Ga7 O46 1.936686 1_555
Ga7 O44 1.941506 1_555
Ga7 O116 2.072688 1_555
Ga7 O118 2.087383 1_555
Ga7 O114 2.095618 1_555
Ga8 O52 1.938406 1_554
Ga8 O48 1.949994 1_554
Ga8 O50 1.959103 1_554
Ga8 O122 2.028327 1_555
Ga8 O120 2.042561 1_555
Ga8 O124 2.106153 1_555
Ga9 O129 1.926808 1_555
Ga9 O131 1.939258 1_555
Ga9 O127 1.956659 1_555
Ga9 O55 1.986715 1_555
Ga9 O59 2.018559 1_555
Ga9 O57 2.061066 1_555
Ga10 O60 1.792403 1_555
Ga10 O134 2.054101 1_555
Ga10 O64 2.073592 1_555
Ga10 O62 2.092128 1_555
Ga10 O136 2.109030 1_555
Ga10 O132 2.147050 1_555
Ga11 O65 1.945050 1_555
Ga11 O63 1.945594 1_555
Ga11 O137 2.008287 1_555
Ga11 O133 2.021106 1_555
Ga11 O61 2.021192 1_555
Ga11 O135 2.079755 1_555
O0 S0 1.482769 1_555
O1 S1 1.490463 1_555
O2 S2 1.493771 1_555
O3 S3 1.481127 1_555
O4 S5 1.479104 1_555
O5 S4 1.495024 1_555
O6 S6 1.475922 1_555
O7 S7 1.473178 1_555
O8 S8 1.481410 1_555
O9 Si0 1.616548 1_555
O10 S9 1.472508 1_555
O11 S10 1.480952 1_545
O12 S9 1.476203 1_565
O13 S10 1.470460 1_555
O14 S6 1.471293 1_555
O15 S7 1.478854 1_555
O16 Si0 1.618077 1_455
O17 S8 1.472196 1_555
O18 S2 1.482486 1_555
O19 S3 1.482376 1_555
O20 S4 1.476661 1_455
O21 S5 1.490097 1_555
O22 S0 1.481137 1_565
O23 S1 1.486562 1_565
O24 S11 1.473789 1_555
O25 S12 1.460058 1_555
O26 S13 1.469245 1_555
O27 S14 1.471696 1_555
O28 S15 1.474447 1_555
O29 S16 1.466063 1_555
O30 S17 1.494996 1_555
O31 S18 1.497033 1_555
O32 S19 1.496837 1_555
O33 S20 1.495743 1_555
O34 S21 1.505520 1_555
O35 S22 1.488317 1_555
O36 S21 1.471374 1_555
O37 S22 1.485169 1_555
O38 S17 1.473940 1_555
O39 S18 1.481535 1_555
O40 S19 1.470065 1_555
O41 S20 1.483540 1_555
O42 S13 1.502575 1_555
O43 S14 1.481735 1_555
O44 S15 1.495659 1_555
O45 S16 1.480512 1_555
O46 S11 1.489854 1_555
O47 S12 1.487722 1_555
O48 S23 1.491831 1_555
O49 S24 1.471272 1_555
O50 S25 1.491236 1_555
O51 Si1 1.625022 1_555
O52 S26 1.496011 1_555
O53 S27 1.473537 1_555
O54 S28 1.463270 1_555
O55 S29 1.482682 1_555
O56 S30 1.464600 1_555
O57 S31 1.474727 1_555
O58 Si2 1.616794 1_555
O59 S32 1.473173 1_555
O60 Si2 1.624770 1_555
O61 S32 1.488816 1_555
O62 S28 1.483771 1_555
O63 S29 1.490089 1_555
O64 S30 1.485272 1_555
O65 S31 1.494636 1_555
O66 S25 1.463490 1_555
O67 Si1 1.610225 1_555
O68 S26 1.466269 1_555
O69 S27 1.466949 1_555
O70 S23 1.461298 1_555
O71 S24 1.473752 1_555
O72 Si2 1.649564 1_555
O73 S32 1.483299 1_555
O74 S28 1.485266 1_555
O75 S29 1.474316 1_555
O76 S30 1.481817 1_555
O77 S31 1.486264 1_555
O78 S25 1.468494 1_555
O79 Si1 1.627625 1_555
O80 S26 1.461703 1_555
O81 S27 1.477696 1_555
O82 S23 1.476551 1_555
O83 S24 1.458511 1_555
O84 S11 1.469432 1_555
O85 S12 1.485409 1_555
O86 S13 1.473548 1_555
O87 S14 1.475892 1_555
O88 S15 1.473967 1_555
O89 S16 1.476903 1_555
O90 S17 1.494599 1_555
O91 S18 1.484029 1_555
O92 S19 1.501661 1_555
O93 S20 1.485060 1_555
O94 S21 1.480043 1_555
O95 S22 1.502806 1_555
O96 S9 1.492120 1_555
O97 S10 1.472698 1_545
O98 S6 1.493227 1_555
O99 S7 1.466859 1_555
O100 S8 1.494771 1_555
O101 Si0 1.632447 1_555
O102 S2 1.497714 1_555
O103 S3 1.510291 1_555
O104 S5 1.492108 1_555
O105 S4 1.516761 1_555
O106 S0 1.521266 1_555
O107 S1 1.485965 1_555
O108 S23 1.475891 1_555
O109 S24 1.505473 1_555
O110 Si1 1.631600 1_555
O111 S25 1.495250 1_655
O112 S26 1.474793 1_545
O113 S27 1.497380 1_545
O114 S28 1.507152 1_545
O115 S29 1.477360 1_545
O116 S30 1.510570 1_555
O117 S31 1.470810 1_555
O118 S32 1.495626 1_555
O119 Si2 1.642112 1_655
O120 S21 1.479541 1_555
O121 S22 1.462924 1_555
O122 S18 1.474141 1_455
O123 S17 1.460755 1_555
O124 S19 1.473737 1_565
O125 S20 1.467430 1_565
O126 S13 1.464058 1_565
O127 S14 1.483937 1_565
O128 S15 1.461476 1_555
O129 S16 1.483007 1_555
O130 S12 1.464643 1_455
O131 S11 1.471647 1_555
O132 S0 1.466591 1_565
O133 S1 1.483632 1_565
O134 S2 1.480977 1_555
O135 S3 1.478583 1_555
O136 S4 1.470257 1_455
O137 S5 1.483546 1_555
O138 S6 1.456497 1_555
O139 S7 1.461660 1_555
O140 Si0 1.613821 1_455
O141 S8 1.455951 1_555
O142 S9 1.445263 1_565
O143 S10 1.474766 1_555
