# generated using pymatgen
data_Na4YSi2SnPO12
_symmetry_space_group_name_H-M   'P 1'
_cell_length_a   9.34672243
_cell_length_b   9.34672208
_cell_length_c   22.84674772
_cell_angle_alpha   90.71045797
_cell_angle_beta   89.28954204
_cell_angle_gamma   120.12781047
_symmetry_Int_Tables_number   1
_chemical_formula_structural   Na4YSi2SnPO12
_chemical_formula_sum   'Na24 Y6 Si12 Sn6 P6 O72'
_cell_volume   1726.10996511
_cell_formula_units_Z   6
loop_
 _symmetry_equiv_pos_site_id
 _symmetry_equiv_pos_as_xyz
  1  'x, y, z'
loop_
 _atom_site_type_symbol
 _atom_site_label
 _atom_site_symmetry_multiplicity
 _atom_site_fract_x
 _atom_site_fract_y
 _atom_site_fract_z
 _atom_site_occupancy
  Na  Na0  1  0.64178672  0.00464645  0.25175234  1
  Na  Na1  1  0.36833507  0.36866208  0.24545574  1
  Na  Na2  1  0.99159730  0.62629260  0.25053118  1
  Na  Na3  1  0.63133792  0.63166493  0.74545574  1
  Na  Na4  1  0.99535355  0.35821328  0.75175234  1
  Na  Na5  1  0.37370740  0.00840270  0.75053118  1
  Na  Na6  1  0.30845372  0.33797945  0.58508534  1
  Na  Na7  1  0.03500207  0.70199508  0.57878874  1
  Na  Na8  1  0.65826430  0.95962560  0.58386418  1
  Na  Na9  1  0.29800492  0.96499793  0.07878874  1
  Na  Na10  1  0.66202055  0.69154628  0.08508534  1
  Na  Na11  1  0.04037440  0.34173570  0.08386418  1
  Na  Na12  1  0.97511972  0.67131345  0.91841934  1
  Na  Na13  1  0.70166807  0.03532908  0.91212274  1
  Na  Na14  1  0.32493030  0.29295960  0.91719818  1
  Na  Na15  1  0.96467092  0.29833193  0.41212274  1
  Na  Na16  1  0.32868655  0.02488028  0.41841934  1
  Na  Na17  1  0.70704040  0.67506970  0.41719818  1
  Na  Na18  1  0.99425379  0.99058063  0.49954165  1
  Na  Na19  1  0.00941937  0.00574621  0.99954165  1
  Na  Na20  1  0.66092079  0.32391363  0.83287465  1
  Na  Na21  1  0.67608637  0.33907921  0.33287465  1
  Na  Na22  1  0.32758679  0.65724763  0.16620865  1
  Na  Na23  1  0.34275237  0.67241321  0.66620865  1
  Y  Y0  1  0.99607693  0.99717289  0.35021918  1
  Y  Y1  1  0.00282711  0.00392307  0.85021918  1
  Y  Y2  1  0.66274393  0.33050589  0.68355218  1
  Y  Y3  1  0.66949411  0.33725607  0.18355218  1
  Y  Y4  1  0.32940993  0.66383989  0.01688618  1
  Y  Y5  1  0.33616011  0.67059007  0.51688618  1
  Si  Si0  1  0.69733172  0.70517083  0.25066948  1
  Si  Si1  1  0.00696693  0.30142573  0.25128746  1
  Si  Si2  1  0.29482917  0.30266828  0.75066948  1
  Si  Si3  1  0.69857427  0.99303307  0.75128746  1
  Si  Si4  1  0.36399872  0.03850383  0.58400248  1
  Si  Si5  1  0.67363393  0.63475873  0.58462046  1
  Si  Si6  1  0.96149617  0.63600128  0.08400248  1
  Si  Si7  1  0.36524127  0.32636607  0.08462046  1
  Si  Si8  1  0.03066472  0.37183783  0.91733648  1
  Si  Si9  1  0.34029993  0.96809273  0.91795446  1
  Si  Si10  1  0.62816217  0.96933528  0.41733648  1
  Si  Si11  1  0.03190727  0.65970007  0.41795446  1
  Sn  Sn0  1  0.99896799  0.00027368  0.64992136  1
  Sn  Sn1  1  -0.00027368  0.00103201  0.14992136  1
  Sn  Sn2  1  0.66563499  0.33360668  0.98325436  1
  Sn  Sn3  1  0.66639332  0.33436501  0.48325436  1
  Sn  Sn4  1  0.33230099  0.66694068  0.31658836  1
  Sn  Sn5  1  0.33305932  0.66769901  0.81658836  1
  P  P0  1  0.29312632  0.99212164  0.24986729  1
  P  P1  1  0.00787836  0.70687368  0.74986729  1
  P  P2  1  0.95979332  0.32545464  0.58320029  1
  P  P3  1  0.67454536  0.04020668  0.08320029  1
  P  P4  1  0.62645932  0.65878864  0.91653429  1
  P  P5  1  0.34121136  0.37354068  0.41653429  1
  O  O0  1  0.21911060  0.02226401  0.30478141  1
  O  O1  1  0.80986478  0.78141808  0.30788269  1
  O  O2  1  0.97987662  0.19412817  0.30907723  1
  O  O3  1  0.21858192  0.19013522  0.80788269  1
  O  O4  1  0.97773599  0.78088940  0.80478141  1
  O  O5  1  0.80587183  0.02012338  0.80907723  1
  O  O6  1  0.78621845  0.95934588  0.69204365  1
  O  O7  1  0.17296560  0.21417010  0.69214031  1
  O  O8  1  0.03602573  0.81894387  0.69457661  1
  O  O9  1  0.78582990  0.82703440  0.19214031  1
  O  O10  1  0.04065412  0.21378155  0.19204365  1
  O  O11  1  0.18105613  0.96397427  0.19457661  1
  O  O12  1  0.88577760  0.35559701  0.63811441  1
  O  O13  1  0.47653178  0.11475108  0.64121569  1
  O  O14  1  0.64654362  0.52746117  0.64241023  1
  O  O15  1  0.88524892  0.52346822  0.14121569  1
  O  O16  1  0.64440299  0.11422240  0.13811441  1
  O  O17  1  0.47253883  0.35345638  0.14241023  1
  O  O18  1  0.45288545  0.29267888  0.02537665  1
  O  O19  1  0.83963260  0.54750310  0.02547331  1
  O  O20  1  0.70269273  0.15227687  0.02790961  1
  O  O21  1  0.45249690  0.16036740  0.52547331  1
  O  O22  1  0.70732112  0.54711455  0.52537665  1
  O  O23  1  0.84772313  0.29730727  0.52790961  1
  O  O24  1  0.55244360  0.68893101  0.97144841  1
  O  O25  1  0.14319778  0.44808508  0.97454969  1
  O  O26  1  0.31320962  0.86079517  0.97574423  1
  O  O27  1  0.55191492  0.85680222  0.47454969  1
  O  O28  1  0.31106899  0.44755640  0.47144841  1
  O  O29  1  0.13920483  0.68679038  0.47574423  1
  O  O30  1  0.11955145  0.62601288  0.35871065  1
  O  O31  1  0.50629860  0.88083710  0.35880731  1
  O  O32  1  0.36935873  0.48561087  0.36124361  1
  O  O33  1  0.11916290  0.49370140  0.85880731  1
  O  O34  1  0.37398712  0.88044855  0.85871065  1
  O  O35  1  0.51438913  0.63064127  0.86124361  1
  O  O36  1  0.01302048  0.82430004  0.41380365  1
  O  O37  1  0.81604730  0.99944419  0.41322089  1
  O  O38  1  0.19310803  0.19756329  0.41037731  1
  O  O39  1  0.00055581  0.18395270  0.91322089  1
  O  O40  1  0.17569996  0.98697952  0.91380365  1
  O  O41  1  0.80243671  0.80689197  0.91037731  1
  O  O42  1  0.96778885  0.16033451  0.58663813  1
  O  O43  1  0.18076934  0.03130076  0.58861968  1
  O  O44  1  0.84696119  0.82064031  0.58759277  1
  O  O45  1  0.96869924  0.81923066  0.08861968  1
  O  O46  1  0.83966549  0.03221115  0.08663813  1
  O  O47  1  0.17935969  0.15303881  0.08759277  1
  O  O48  1  0.67968748  0.15763304  0.74713665  1
  O  O49  1  0.48271430  0.33277719  0.74655389  1
  O  O50  1  0.85977503  0.53089629  0.74371031  1
  O  O51  1  0.66722281  0.51728570  0.24655389  1
  O  O52  1  0.84236696  0.32031252  0.24713665  1
  O  O53  1  0.46910371  0.14022497  0.24371031  1
  O  O54  1  0.63445585  0.49366751  0.91997113  1
  O  O55  1  0.84743634  0.36463376  0.92195268  1
  O  O56  1  0.51362819  0.15397331  0.92092577  1
  O  O57  1  0.63536624  0.15256366  0.42195268  1
  O  O58  1  0.50633249  0.36554415  0.41997113  1
  O  O59  1  0.84602669  0.48637181  0.42092577  1
  O  O60  1  0.34635348  0.49096704  0.08047065  1
  O  O61  1  0.14938030  0.66611119  0.07988789  1
  O  O62  1  0.52644103  0.86423029  0.07704431  1
  O  O63  1  0.33388881  0.85061970  0.57988789  1
  O  O64  1  0.50903296  0.65364652  0.58047065  1
  O  O65  1  0.13576971  0.47355897  0.57704431  1
  O  O66  1  0.30112185  0.82700151  0.25330513  1
  O  O67  1  0.51410234  0.69796776  0.25528668  1
  O  O68  1  0.18029419  0.48730731  0.25425977  1
  O  O69  1  0.30203224  0.48589766  0.75528668  1
  O  O70  1  0.17299849  0.69887815  0.75330513  1
  O  O71  1  0.51269269  0.81970581  0.75425977  1
loop_
_geom_bond_atom_site_label_1
_geom_bond_atom_site_label_2
_geom_bond_distance
_geom_bond_site_symmetry_2
Na0 O67 2.493295 1_545
Na0 O53 2.512168 1_555
Na0 O52 2.584772 1_555
Na0 O31 2.728977 1_545
Na0 O66 2.754641 1_545
Na0 O16 2.798091 1_555
Na0 O9 2.926690 1_545
Na0 O2 3.043785 1_555
Na1 O51 2.416571 1_555
Na1 O68 2.510283 1_555
Na1 O17 2.566148 1_555
Na1 O67 2.676022 1_555
Na1 O53 2.731888 1_555
Na1 O32 2.848046 1_555
Na1 O10 2.926291 1_555
Na2 O52 2.474540 1_555
Na2 O66 2.538966 1_655
Na2 O68 2.666814 1_655
Na2 O51 2.672446 1_555
Na2 O15 2.681841 1_555
Na2 O30 2.759613 1_655
Na3 O49 2.416571 1_555
Na3 O71 2.510283 1_555
Na3 O14 2.566148 1_555
Na3 O69 2.676022 1_555
Na3 O50 2.731889 1_555
Na3 O35 2.848046 1_555
Na3 O6 2.926291 1_555
Na4 O69 2.493295 1_655
Na4 O50 2.512168 1_555
Na4 O48 2.584772 1_555
Na4 O33 2.728977 1_655
Na4 O70 2.754641 1_655
Na4 O12 2.798091 1_555
Na4 O7 2.926690 1_655
Na4 O5 3.043785 1_555
Na5 O48 2.474540 1_555
Na5 O70 2.538966 1_545
Na5 O71 2.666813 1_545
Na5 O49 2.672446 1_555
Na5 O13 2.681841 1_555
Na5 O34 2.759613 1_545
Na6 O43 2.493295 1_555
Na6 O65 2.512182 1_555
Na6 O64 2.584777 1_555
Na6 O7 2.728977 1_555
Na6 O42 2.754641 1_455
Na6 O28 2.798074 1_555
Na6 O21 2.926690 1_555
Na6 O14 3.043785 1_555
Na7 O63 2.416563 1_555
Na7 O44 2.510283 1_455
Na7 O29 2.566121 1_555
Na7 O43 2.676022 1_565
Na7 O65 2.731873 1_555
Na7 O8 2.848046 1_555
Na7 O22 2.926291 1_455
Na8 O64 2.474531 1_555
Na8 O42 2.538966 1_565
Na8 O44 2.666814 1_555
Na8 O63 2.672456 1_555
Na8 O27 2.681820 1_555
Na8 O6 2.759613 1_555
Na9 O61 2.416563 1_555
Na9 O47 2.510283 1_565
Na9 O26 2.566121 1_554
Na9 O45 2.676022 1_455
Na9 O62 2.731873 1_555
Na9 O11 2.848046 1_555
Na9 O18 2.926291 1_565
Na10 O45 2.493295 1_555
Na10 O62 2.512182 1_555
Na10 O60 2.584777 1_555
Na10 O9 2.728977 1_555
Na10 O46 2.754641 1_565
Na10 O24 2.798074 1_554
Na10 O19 2.926690 1_555
Na10 O17 3.043785 1_555
Na11 O60 2.474531 1_555
Na11 O46 2.538966 1_455
Na11 O47 2.666813 1_555
Na11 O61 2.672456 1_555
Na11 O25 2.681820 1_554
Na11 O10 2.759613 1_555
Na12 O55 2.493304 1_555
Na12 O41 2.512168 1_555
Na12 O40 2.584772 1_655
Na12 O19 2.728956 1_556
Na12 O54 2.754633 1_555
Na12 O4 2.798091 1_555
Na12 O33 2.926690 1_655
Na12 O26 3.043785 1_655
Na13 O39 2.416571 1_655
Na13 O56 2.510266 1_555
Na13 O5 2.566148 1_555
Na13 O55 2.676011 1_555
Na13 O41 2.731888 1_545
Na13 O20 2.848020 1_556
Na13 O34 2.926291 1_545
Na14 O40 2.474540 1_545
Na14 O54 2.538971 1_555
Na14 O56 2.666829 1_555
Na14 O39 2.672446 1_555
Na14 O3 2.681841 1_555
Na14 O18 2.759599 1_556
Na15 O37 2.416571 1_545
Na15 O59 2.510266 1_555
Na15 O2 2.566148 1_555
Na15 O57 2.676011 1_555
Na15 O38 2.731889 1_655
Na15 O23 2.848020 1_555
Na15 O30 2.926291 1_655
Na16 O57 2.493304 1_555
Na16 O38 2.512168 1_555
Na16 O36 2.584772 1_545
Na16 O21 2.728956 1_555
Na16 O58 2.754633 1_555
Na16 O0 2.798091 1_555
Na16 O31 2.926690 1_545
Na16 O29 3.043785 1_545
Na17 O36 2.474540 1_655
Na17 O58 2.538971 1_555
Na17 O59 2.666829 1_555
Na17 O37 2.672446 1_555
Na17 O1 2.681841 1_555
Na17 O22 2.759599 1_555
Na18 O44 2.506097 1_555
Na18 O36 2.544193 1_655
Na18 O43 2.593935 1_665
Na18 O42 2.615663 1_565
Na18 O37 2.625767 1_555
Na18 O38 2.782319 1_665
Na19 O47 2.506097 1_556
Na19 O40 2.544193 1_545
Na19 O45 2.593935 1_446
Na19 O46 2.615663 1_456
Na19 O39 2.625767 1_555
Na19 O41 2.782319 1_445
Na20 O56 2.506097 1_555
Na20 O48 2.544193 1_555
Na20 O55 2.593935 1_555
Na20 O54 2.615663 1_555
Na20 O49 2.625767 1_555
Na20 O50 2.782319 1_555
Na21 O59 2.506097 1_555
Na21 O52 2.544193 1_555
Na21 O57 2.593935 1_555
Na21 O58 2.615663 1_555
Na21 O51 2.625767 1_555
Na21 O53 2.782319 1_555
Na22 O68 2.506097 1_555
Na22 O60 2.544193 1_555
Na22 O67 2.593935 1_555
Na22 O66 2.615663 1_555
Na22 O61 2.625767 1_555
Na22 O62 2.782319 1_555
Na23 O71 2.506097 1_555
Na23 O64 2.544193 1_555
Na23 O69 2.593935 1_555
Na23 O70 2.615663 1_555
Na23 O63 2.625767 1_555
Na23 O65 2.782319 1_555
O0 P0 1.515710 1_545
O0 Y0 2.222601 1_445
O1 Si0 1.606648 1_555
O1 Y0 2.121670 1_555
O2 Si1 1.607086 1_655
O2 Y0 2.149786 1_545
O3 Si2 1.606648 1_555
O3 Y1 2.121670 1_555
O4 P1 1.515710 1_655
O4 Y1 2.222601 1_665
O5 Si3 1.607087 1_545
O5 Y1 2.149786 1_655
O6 Si3 1.680210 1_555
O6 Sn0 2.055406 1_565
O7 Si2 1.683517 1_555
O7 Sn0 2.073487 1_455
O8 P1 1.584324 1_555
O8 Sn0 2.162005 1_465
O9 Si0 1.683517 1_555
O9 Sn1 2.073487 1_665
O10 Si1 1.680210 1_555
O10 Sn1 2.055406 1_555
O11 P0 1.584324 1_555
O11 Sn1 2.162005 1_565
O12 P2 1.515710 1_555
O12 Y2 2.222601 1_555
O13 Si4 1.606648 1_555
O13 Y2 2.121670 1_555
O14 Si5 1.607086 1_555
O14 Y2 2.149786 1_555
O15 Si6 1.606648 1_555
O15 Y3 2.121670 1_555
O16 P3 1.515710 1_555
O16 Y3 2.222601 1_555
O17 Si7 1.607087 1_555
O17 Y3 2.149786 1_555
O18 Si7 1.680210 1_555
O18 Sn2 2.055406 1_554
O19 Si6 1.683517 1_555
O19 Sn2 2.073487 1_554
O20 P3 1.584324 1_555
O20 Sn2 2.162005 1_554
O21 Si4 1.683517 1_555
O21 Sn3 2.073487 1_555
O22 Si5 1.680210 1_555
O22 Sn3 2.055406 1_555
O23 P2 1.584324 1_555
O23 Sn3 2.162005 1_555
O24 P4 1.515710 1_555
O24 Y4 2.222601 1_556
O25 Si8 1.606648 1_555
O25 Y4 2.121670 1_556
O26 Si9 1.607086 1_555
O26 Y4 2.149786 1_556
O27 Si10 1.606648 1_555
O27 Y5 2.121670 1_555
O28 P5 1.515710 1_555
O28 Y5 2.222601 1_555
O29 Si11 1.607087 1_555
O29 Y5 2.149786 1_555
O30 Si11 1.680210 1_555
O30 Sn4 2.055406 1_555
O31 Si10 1.683517 1_555
O31 Sn4 2.073487 1_555
O32 P5 1.584324 1_555
O32 Sn4 2.162005 1_555
O33 Si8 1.683517 1_555
O33 Sn5 2.073487 1_555
O34 Si9 1.680210 1_555
O34 Sn5 2.055406 1_555
O35 P4 1.584324 1_555
O35 Sn5 2.162005 1_555
O36 Si11 1.638204 1_555
O36 Y0 2.250999 1_455
O37 Si10 1.634751 1_555
O37 Y0 2.208790 1_555
O38 P5 1.534550 1_555
O38 Y0 2.307578 1_445
O39 Si8 1.634751 1_555
O39 Y1 2.208789 1_555
O40 Si9 1.638204 1_555
O40 Y1 2.250999 1_565
O41 P4 1.534550 1_555
O41 Y1 2.307578 1_665
O42 P2 1.585106 1_555
O42 Sn0 2.217028 1_555
O43 Si4 1.681841 1_555
O43 Sn0 2.095097 1_455
O44 Si5 1.679866 1_555
O44 Sn0 2.112245 1_565
O45 Si6 1.681841 1_555
O45 Sn1 2.095097 1_665
O46 P3 1.585106 1_555
O46 Sn1 2.217028 1_655
O47 Si7 1.679866 1_555
O47 Sn1 2.112245 1_555
O48 Si3 1.638204 1_545
O48 Y2 2.250999 1_555
O49 Si2 1.634751 1_555
O49 Y2 2.208790 1_555
O50 P1 1.534550 1_655
O50 Y2 2.307578 1_555
O51 Si0 1.634751 1_555
O51 Y3 2.208789 1_555
O52 Si1 1.638204 1_655
O52 Y3 2.250999 1_555
O53 P0 1.534550 1_545
O53 Y3 2.307578 1_555
O54 P4 1.585119 1_555
O54 Sn2 2.217028 1_555
O55 Si8 1.681826 1_655
O55 Sn2 2.095097 1_555
O56 Si9 1.679864 1_545
O56 Sn2 2.112245 1_555
O57 Si10 1.681826 1_545
O57 Sn3 2.095097 1_555
O58 P5 1.585119 1_555
O58 Sn3 2.217028 1_555
O59 Si11 1.679864 1_655
O59 Sn3 2.112245 1_555
O60 Si7 1.638218 1_555
O60 Y4 2.250999 1_555
O61 Si6 1.634737 1_455
O61 Y4 2.208790 1_555
O62 P3 1.534546 1_565
O62 Y4 2.307578 1_555
O63 Si4 1.634737 1_565
O63 Y5 2.208789 1_555
O64 Si5 1.638218 1_555
O64 Y5 2.250999 1_555
O65 P2 1.534546 1_455
O65 Y5 2.307578 1_555
O66 P0 1.585106 1_555
O66 Sn4 2.217028 1_555
O67 Si0 1.681841 1_555
O67 Sn4 2.095097 1_555
O68 Si1 1.679866 1_555
O68 Sn4 2.112245 1_555
O69 Si2 1.681841 1_555
O69 Sn5 2.095097 1_555
O70 P1 1.585106 1_555
O70 Sn5 2.217028 1_555
O71 Si3 1.679866 1_555
O71 Sn5 2.112245 1_555
