# generated using pymatgen
data_Na2Nb3AlSi4(SO12)2
_symmetry_space_group_name_H-M   'P 1'
_cell_length_a   8.79027498
_cell_length_b   8.80312022
_cell_length_c   22.76900707
_cell_angle_alpha   89.60740383
_cell_angle_beta   90.67158487
_cell_angle_gamma   119.83667590
_symmetry_Int_Tables_number   1
_chemical_formula_structural   Na2Nb3AlSi4(SO12)2
_chemical_formula_sum   'Na6 Nb9 Al3 Si12 S6 O72'
_cell_volume   1528.25588802
_cell_formula_units_Z   3
loop_
 _symmetry_equiv_pos_site_id
 _symmetry_equiv_pos_as_xyz
  1  'x, y, z'
loop_
 _atom_site_type_symbol
 _atom_site_label
 _atom_site_symmetry_multiplicity
 _atom_site_fract_x
 _atom_site_fract_y
 _atom_site_fract_z
 _atom_site_occupancy
  Na  Na0  1  0.99013216  0.98695493  0.49925276  1
  Na  Na1  1  0.00136966  0.99458196  0.99857393  1
  Na  Na2  1  0.66024981  0.32558263  0.83111696  1
  Na  Na3  1  0.66960744  0.32397630  0.32479187  1
  Na  Na4  1  0.32538086  0.65816217  0.16364073  1
  Na  Na5  1  0.34347109  0.66477388  0.66566637  1
  Nb  Nb0  1  0.99834327  0.00182980  0.35298447  1
  Nb  Nb1  1  0.00500585  0.01725346  0.85648525  1
  Nb  Nb2  1  0.98467041  0.99568125  0.64737760  1
  Nb  Nb3  1  0.02165185  0.01132243  0.14240663  1
  Nb  Nb4  1  0.66207754  0.34358638  0.97642213  1
  Nb  Nb5  1  0.67883365  0.34549663  0.47731339  1
  Nb  Nb6  1  0.32189755  0.65738123  0.02198227  1
  Nb  Nb7  1  0.32015927  0.67670867  0.31024559  1
  Nb  Nb8  1  0.34252483  0.66623456  0.81222000  1
  Al  Al0  1  0.64601649  0.33339078  0.68975288  1
  Al  Al1  1  0.67167978  0.33328599  0.18658354  1
  Al  Al2  1  0.35704958  0.68770107  0.51948836  1
  Si  Si0  1  0.30418105  0.02086729  0.24888646  1
  Si  Si1  1  0.98977399  0.28949560  0.24736375  1
  Si  Si2  1  0.29520976  0.29083859  0.74816115  1
  Si  Si3  1  0.70504277  0.01529950  0.74863244  1
  Si  Si4  1  0.65104195  0.61241098  0.58629788  1
  Si  Si5  1  0.94495637  0.61193593  0.08842934  1
  Si  Si6  1  0.39728109  0.34298334  0.08759983  1
  Si  Si7  1  0.62387535  0.67413793  0.91866266  1
  Si  Si8  1  0.04311533  0.38414994  0.91542219  1
  Si  Si9  1  0.33463514  0.95222312  0.91623516  1
  Si  Si10  1  0.61765275  0.94977796  0.41924252  1
  Si  Si11  1  0.06191445  0.67566674  0.42269736  1
  S  S0  1  0.70985229  0.70746727  0.24903529  1
  S  S1  1  0.99320417  0.70472984  0.74891615  1
  S  S2  1  0.95847827  0.34074733  0.58496498  1
  S  S3  1  0.38146881  0.04387196  0.58415135  1
  S  S4  1  0.66529299  0.04801780  0.08561725  1
  S  S5  1  0.33179441  0.38266890  0.41894169  1
  O  O0  1  0.19577400  0.02847613  0.30670577  1
  O  O1  1  0.81988359  0.79342810  0.30387379  1
  O  O2  1  0.96967709  0.16673590  0.30648225  1
  O  O3  1  0.19704436  0.16672409  0.80555711  1
  O  O4  1  0.96777763  0.78527672  0.80147993  1
  O  O5  1  0.83084788  0.03211677  0.80501787  1
  O  O6  1  0.79956721  0.97067565  0.69194037  1
  O  O7  1  0.16490545  0.18654444  0.69124689  1
  O  O8  1  0.02213759  0.81990169  0.69547662  1
  O  O9  1  0.78740002  0.81841113  0.19753296  1
  O  O10  1  0.02202380  0.18864385  0.19280718  1
  O  O11  1  0.16904129  0.96916547  0.19251921  1
  O  O12  1  0.87349127  0.35907415  0.63576515  1
  O  O13  1  0.48920551  0.12477145  0.63676025  1
  O  O14  1  0.64052232  0.49226149  0.64077597  1
  O  O15  1  0.85837211  0.49245251  0.14435317  1
  O  O16  1  0.64123899  0.12774252  0.13810887  1
  O  O17  1  0.50823392  0.35883321  0.14457656  1
  O  O18  1  0.46969801  0.30264199  0.02673800  1
  O  O19  1  0.83301237  0.52454418  0.02714850  1
  O  O20  1  0.69443106  0.15074142  0.03123518  1
  O  O21  1  0.46230873  0.15184790  0.53053787  1
  O  O22  1  0.68679245  0.52039711  0.52712927  1
  O  O23  1  0.84657314  0.30559953  0.52969165  1
  O  O24  1  0.53297950  0.70091185  0.97588744  1
  O  O25  1  0.16491876  0.46628751  0.97451218  1
  O  O26  1  0.30334459  0.83213619  0.97468287  1
  O  O27  1  0.53572063  0.83162226  0.47580011  1
  O  O28  1  0.30679719  0.46067238  0.47115981  1
  O  O29  1  0.17688682  0.68819222  0.47868546  1
  O  O30  1  0.13494181  0.63547975  0.36087922  1
  O  O31  1  0.49937900  0.85768853  0.35955534  1
  O  O32  1  0.36226532  0.48438373  0.36445155  1
  O  O33  1  0.13376123  0.50124099  0.85739196  1
  O  O34  1  0.36288183  0.86117974  0.85803435  1
  O  O35  1  0.50234766  0.63529736  0.85892307  1
  O  O36  1  0.02948705  0.84078532  0.41059941  1
  O  O37  1  0.81610729  0.97957545  0.40809944  1
  O  O38  1  0.17529327  0.20299249  0.41272954  1
  O  O39  1  0.02929344  0.19163228  0.91089158  1
  O  O40  1  0.15986872  0.96981605  0.90733290  1
  O  O41  1  0.81695885  0.83925778  0.90802437  1
  O  O42  1  0.97393654  0.17569993  0.58802845  1
  O  O43  1  0.20312846  0.02627808  0.58873100  1
  O  O44  1  0.83510692  0.80972363  0.59101361  1
  O  O45  1  0.96231482  0.80875615  0.09234270  1
  O  O46  1  0.82249776  0.02440995  0.09120734  1
  O  O47  1  0.19226507  0.16908884  0.08984100  1
  O  O48  1  0.69903579  0.18967103  0.73422267  1
  O  O49  1  0.48563376  0.31174272  0.74222240  1
  O  O50  1  0.83987104  0.53215370  0.73994806  1
  O  O51  1  0.69672756  0.53610941  0.24589491  1
  O  O52  1  0.82301702  0.31366715  0.24136455  1
  O  O53  1  0.49277080  0.18569828  0.24112579  1
  O  O54  1  0.63862351  0.49677989  0.92176105  1
  O  O55  1  0.84927597  0.35401217  0.92410890  1
  O  O56  1  0.50691756  0.14326982  0.92426131  1
  O  O57  1  0.63682197  0.14542056  0.42710895  1
  O  O58  1  0.48842882  0.35605712  0.42477825  1
  O  O59  1  0.86047915  0.49999316  0.42666491  1
  O  O60  1  0.36652727  0.51111409  0.07940985  1
  O  O61  1  0.14674926  0.64700186  0.07870428  1
  O  O62  1  0.50845658  0.87079585  0.08021384  1
  O  O63  1  0.36006524  0.86597268  0.57749353  1
  O  O64  1  0.48169556  0.63648316  0.57442554  1
  O  O65  1  0.13356213  0.49301290  0.57607647  1
  O  O66  1  0.31268792  0.83590031  0.25577910  1
  O  O67  1  0.53393383  0.68971068  0.25759926  1
  O  O68  1  0.17552867  0.47585740  0.25871027  1
  O  O69  1  0.30112833  0.47893738  0.75391214  1
  O  O70  1  0.15553443  0.69397884  0.75230685  1
  O  O71  1  0.51519349  0.83534983  0.75407985  1
loop_
_geom_bond_atom_site_label_1
_geom_bond_atom_site_label_2
_geom_bond_distance
_geom_bond_site_symmetry_2
Na0 O36 2.518896 1_655
Na0 O37 2.545663 1_555
Na0 O44 2.561807 1_555
Na0 O43 2.655440 1_665
Na0 O38 2.662855 1_665
Na0 O42 2.674872 1_565
Na1 O41 2.550055 1_455
Na1 O39 2.568152 1_565
Na1 O40 2.584736 1_555
Na1 O45 2.600514 1_456
Na1 O47 2.625067 1_566
Na1 O46 2.736044 1_466
Na2 O49 2.492397 1_555
Na2 O56 2.599639 1_555
Na2 O55 2.611058 1_555
Na2 O48 2.621963 1_555
Na2 O54 2.627525 1_555
Na2 O50 2.697581 1_555
Na3 O53 2.367822 1_555
Na3 O52 2.370491 1_555
Na3 O51 2.508444 1_555
Na3 O57 2.737858 1_555
Na3 O59 2.822660 1_555
Na3 O58 2.887972 1_555
Na4 O61 2.448101 1_555
Na4 O60 2.449660 1_555
Na4 O62 2.593715 1_555
Na4 O68 2.629076 1_555
Na4 O66 2.661943 1_555
Na4 O67 2.724750 1_555
Na5 O69 2.493710 1_555
Na5 O64 2.494302 1_555
Na5 O71 2.510104 1_555
Na5 O63 2.624860 1_555
Na5 O65 2.651379 1_555
Na5 O70 2.681947 1_555
Nb0 O2 1.904901 1_555
Nb0 O0 1.952334 1_655
Nb0 O37 1.977566 1_545
Nb0 O36 2.039118 1_645
Nb0 O1 2.049441 1_545
Nb0 O38 2.156016 1_655
Nb1 O39 1.905351 1_555
Nb1 O3 1.933997 1_555
Nb1 O5 1.972101 1_455
Nb1 O40 1.972300 1_545
Nb1 O41 2.001914 1_445
Nb1 O4 2.281744 1_445
Nb2 O6 1.845181 1_555
Nb2 O7 1.915182 1_665
Nb2 O44 1.975582 1_555
Nb2 O8 2.043959 1_655
Nb2 O42 2.112529 1_565
Nb2 O43 2.254712 1_665
Nb3 O11 1.885783 1_545
Nb3 O47 1.886073 1_555
Nb3 O10 1.942415 1_555
Nb3 O45 1.959517 1_445
Nb3 O46 2.141948 1_455
Nb3 O9 2.291560 1_445
Nb4 O54 1.912536 1_555
Nb4 O19 1.931867 1_556
Nb4 O18 1.932710 1_556
Nb4 O56 1.994455 1_555
Nb4 O55 2.007266 1_555
Nb4 O20 2.227895 1_556
Nb5 O22 1.891272 1_555
Nb5 O59 1.894711 1_555
Nb5 O57 1.978812 1_555
Nb5 O23 2.046479 1_555
Nb5 O58 2.084982 1_555
Nb5 O21 2.189626 1_555
Nb6 O25 1.892706 1_554
Nb6 O26 1.943170 1_554
Nb6 O61 1.987893 1_555
Nb6 O60 1.997278 1_555
Nb6 O24 2.005930 1_554
Nb6 O62 2.212301 1_555
Nb7 O30 1.887294 1_555
Nb7 O66 1.889976 1_555
Nb7 O31 1.940668 1_555
Nb7 O68 1.968788 1_555
Nb7 O67 2.195007 1_555
Nb7 O32 2.260737 1_555
Nb8 O35 1.876271 1_555
Nb8 O34 1.944183 1_555
Nb8 O33 1.976511 1_555
Nb8 O69 2.008773 1_555
Nb8 O71 2.011008 1_555
Nb8 O70 2.228154 1_555
Al0 O49 1.794480 1_555
Al0 O14 1.801789 1_555
Al0 O48 1.844242 1_555
Al0 O13 2.049645 1_555
Al0 O50 2.070359 1_555
Al0 O12 2.272529 1_555
Al1 O15 1.819733 1_555
Al1 O17 1.820975 1_555
Al1 O52 1.882037 1_555
Al1 O53 1.921986 1_555
Al1 O16 2.025458 1_555
Al1 O51 2.166807 1_555
Al2 O27 1.760883 1_555
Al2 O29 1.828510 1_555
Al2 O64 1.849369 1_555
Al2 O63 2.047936 1_555
Al2 O28 2.130848 1_555
Al2 O65 2.266179 1_555
O0 Si0 1.655243 1_555
O1 S0 1.524307 1_555
O2 Si1 1.675300 1_555
O3 Si2 1.647708 1_555
O4 S1 1.469937 1_555
O5 Si3 1.643018 1_555
O6 Si3 1.693459 1_565
O7 Si2 1.664120 1_555
O8 S1 1.518848 1_455
O9 S0 1.460899 1_555
O10 Si1 1.638729 1_455
O11 Si0 1.643091 1_565
O12 S2 1.436925 1_555
O13 S3 1.467273 1_555
O14 Si4 1.597895 1_555
O15 Si5 1.585799 1_555
O16 S4 1.459729 1_555
O17 Si6 1.578321 1_555
O18 Si6 1.644397 1_555
O19 Si5 1.654164 1_555
O20 S4 1.475860 1_555
O21 S3 1.493637 1_555
O22 Si4 1.687608 1_555
O23 S2 1.523379 1_555
O24 Si7 1.614818 1_555
O25 Si8 1.639683 1_555
O26 Si9 1.632234 1_555
O27 Si10 1.586469 1_555
O28 S5 1.449437 1_555
O29 Si11 1.587289 1_555
O30 Si11 1.665044 1_555
O31 Si10 1.651765 1_555
O32 S5 1.471978 1_555
O33 Si8 1.622326 1_555
O34 Si9 1.637184 1_555
O35 Si7 1.648370 1_555
O36 Si11 1.635517 1_555
O37 Si10 1.652418 1_555
O38 S5 1.499218 1_555
O39 Si8 1.641588 1_555
O40 Si9 1.629152 1_555
O41 Si7 1.613115 1_555
O42 S2 1.526166 1_555
O43 S3 1.501476 1_555
O44 Si4 1.687731 1_555
O45 Si5 1.664922 1_555
O46 S4 1.500081 1_555
O47 Si6 1.688104 1_555
O48 Si3 1.593752 1_555
O49 Si2 1.597647 1_555
O50 S1 1.458297 1_555
O51 S0 1.456728 1_555
O52 Si1 1.586788 1_555
O53 Si0 1.579446 1_555
O54 Si7 1.630686 1_555
O55 Si8 1.603168 1_655
O56 Si9 1.618231 1_545
O57 Si10 1.655723 1_545
O58 S5 1.511465 1_555
O59 Si11 1.676929 1_655
O60 Si6 1.640625 1_555
O61 Si5 1.659566 1_455
O62 S4 1.485990 1_565
O63 S3 1.490082 1_565
O64 Si4 1.624065 1_555
O65 S2 1.468717 1_455
O66 Si0 1.672997 1_565
O67 S0 1.489915 1_555
O68 Si1 1.659739 1_455
O69 Si2 1.636705 1_555
O70 S1 1.477409 1_455
O71 Si3 1.637499 1_565
