# generated using pymatgen
data_P(HO)3
_symmetry_space_group_name_H-M   'P 1'
_cell_length_a   6.97045300
_cell_length_b   7.34201200
_cell_length_c   12.25209100
_cell_angle_alpha   90.00000000
_cell_angle_beta   90.00000000
_cell_angle_gamma   90.00000000
_symmetry_Int_Tables_number   1
_chemical_formula_structural   P(HO)3
_chemical_formula_sum   'P8 H24 O24'
_cell_volume   627.02709367
_cell_formula_units_Z   8
loop_
 _symmetry_equiv_pos_site_id
 _symmetry_equiv_pos_as_xyz
  1  'x, y, z'
loop_
 _atom_site_type_symbol
 _atom_site_label
 _atom_site_symmetry_multiplicity
 _atom_site_fract_x
 _atom_site_fract_y
 _atom_site_fract_z
 _atom_site_occupancy
  P  P0  1  0.46699800  0.03753500  0.38009400  1
  P  P1  1  0.96699800  0.46246500  0.88009400  1
  P  P2  1  0.96699800  0.96246500  0.61990600  1
  P  P3  1  0.46699800  0.53753500  0.11990600  1
  P  P4  1  0.99520800  0.50277300  0.37109900  1
  P  P5  1  0.49520800  0.49722700  0.62890100  1
  P  P6  1  0.49520800  0.99722700  0.87109900  1
  P  P7  1  0.99520800  0.00277300  0.12890100  1
  H  H0  1  0.65865600  0.45908500  0.25861500  1
  H  H1  1  0.15865600  0.54091500  0.74138500  1
  H  H2  1  0.15865600  0.04091500  0.75861500  1
  H  H3  1  0.65865600  0.95908500  0.24138500  1
  H  H4  1  0.55948800  0.70220300  0.09501900  1
  H  H5  1  0.05948800  0.29779700  0.90498100  1
  H  H6  1  0.05948800  0.79779700  0.59501900  1
  H  H7  1  0.55948800  0.20220300  0.40498100  1
  H  H8  1  0.16555700  0.07461500  0.44105200  1
  H  H9  1  0.66555700  0.92538500  0.55894800  1
  H  H10  1  0.66555700  0.42538500  0.94105200  1
  H  H11  1  0.16555700  0.57461500  0.05894800  1
  H  H12  1  0.98158800  0.31062900  0.51196800  1
  H  H13  1  0.48158800  0.68937100  0.48803200  1
  H  H14  1  0.48158800  0.18937100  0.01196800  1
  H  H15  1  0.93635600  0.78474900  0.30858900  1
  H  H16  1  0.18803000  0.96820000  0.15422400  1
  H  H17  1  0.68803000  0.03180000  0.84577600  1
  H  H18  1  0.68803000  0.53180000  0.65422400  1
  H  H19  1  0.18803000  0.46820000  0.34577600  1
  H  H20  1  0.93635600  0.28474900  0.19141100  1
  H  H21  1  0.43635600  0.71525100  0.80858900  1
  H  H22  1  0.43635600  0.21525100  0.69141100  1
  H  H23  1  0.98158800  0.81062900  0.98803200  1
  O  O0  1  0.86851100  0.40789100  0.28733900  1
  O  O1  1  0.36851100  0.59210900  0.71266100  1
  O  O2  1  0.36851100  0.09210900  0.78733900  1
  O  O3  1  0.86851100  0.90789100  0.21266100  1
  O  O4  1  0.96497800  0.21327800  0.12144500  1
  O  O5  1  0.45998600  0.55595400  0.50766200  1
  O  O6  1  0.45998600  0.05595400  0.99233800  1
  O  O7  1  0.95998600  0.94404600  0.00766200  1
  O  O8  1  0.24692200  0.07483100  0.37097000  1
  O  O9  1  0.74692200  0.92516900  0.62903000  1
  O  O10  1  0.74692200  0.42516900  0.87097000  1
  O  O11  1  0.24692200  0.57483100  0.12903000  1
  O  O12  1  0.51785400  0.98605900  0.25977000  1
  O  O13  1  0.01785400  0.01394100  0.74023000  1
  O  O14  1  0.01785400  0.51394100  0.75977000  1
  O  O15  1  0.51785400  0.48605900  0.24023000  1
  O  O16  1  0.52296900  0.89762500  0.46563500  1
  O  O17  1  0.02296900  0.10237500  0.53436500  1
  O  O18  1  0.02296900  0.60237500  0.96563500  1
  O  O19  1  0.52296900  0.39762500  0.03436500  1
  O  O20  1  0.96497800  0.71327800  0.37855500  1
  O  O21  1  0.46497800  0.28672200  0.62144500  1
  O  O22  1  0.46497800  0.78672200  0.87855500  1
  O  O23  1  0.95998600  0.44404600  0.49233800  1
loop_
_geom_bond_atom_site_label_1
_geom_bond_atom_site_label_2
_geom_bond_distance
_geom_bond_site_symmetry_2
H0 O15 1.026261 1_555
H0 O0 1.550764 1_555
H1 O14 1.026261 1_555
H1 O1 1.550764 1_555
H2 O13 1.026261 1_555
H2 O2 1.550764 1_555
H3 O12 1.026261 1_555
H3 O3 1.550764 1_555
H4 P3 1.403666 1_555
H5 P1 1.403666 1_455
H6 P2 1.403666 1_455
H7 P0 1.403666 1_555
H8 O8 1.029050 1_555
H8 O17 1.528552 1_555
H9 O9 1.029050 1_555
H9 O16 1.528552 1_555
H10 O10 1.029050 1_555
H10 O19 1.528552 1_556
H11 O11 1.029050 1_555
H11 O18 1.528552 1_554
H12 O23 1.019821 1_555
H12 O17 1.579985 1_655
H13 O5 1.019821 1_555
H13 O16 1.579985 1_555
H14 O6 1.019821 1_554
H14 O19 1.579985 1_555
H15 O20 1.024695 1_555
H15 O3 1.556417 1_555
H16 P7 1.402563 1_465
H17 P6 1.402563 1_545
H18 P5 1.402563 1_555
H19 P4 1.402563 1_455
H20 O4 1.024695 1_555
H20 O0 1.556417 1_555
H21 O22 1.024695 1_555
H21 O1 1.556417 1_555
H22 O21 1.024695 1_555
H22 O2 1.556417 1_555
H23 O7 1.019821 1_556
H23 O18 1.579985 1_655
O0 P4 1.522620 1_555
O1 P5 1.522620 1_555
O2 P6 1.522620 1_545
O3 P7 1.522620 1_565
O4 P7 1.562501 1_555
O5 P5 1.566108 1_555
O6 P6 1.566108 1_545
O7 P7 1.566108 1_565
O8 P0 1.562282 1_555
O9 P2 1.562282 1_555
O10 P1 1.562282 1_555
O11 P3 1.562282 1_555
O12 P0 1.562634 1_565
O13 P2 1.562634 1_445
O14 P1 1.562634 1_455
O15 P3 1.562634 1_555
O16 P0 1.518491 1_565
O17 P2 1.518491 1_445
O18 P1 1.518491 1_455
O19 P3 1.518491 1_555
O20 P4 1.562501 1_555
O21 P5 1.562501 1_555
O22 P6 1.562501 1_555
O23 P4 1.566108 1_555
