# generated using pymatgen
data_Eu2MgV2O8
_symmetry_space_group_name_H-M   'P 1'
_cell_length_a   6.25401860
_cell_length_b   6.25401876
_cell_length_c   6.49216138
_cell_angle_alpha   105.87058652
_cell_angle_beta   105.87060331
_cell_angle_gamma   116.99758242
_symmetry_Int_Tables_number   1
_chemical_formula_structural   Eu2MgV2O8
_chemical_formula_sum   'Eu2 Mg1 V2 O8'
_cell_volume   192.79403388
_cell_formula_units_Z   1
loop_
 _symmetry_equiv_pos_site_id
 _symmetry_equiv_pos_as_xyz
  1  'x, y, z'
loop_
 _atom_site_type_symbol
 _atom_site_label
 _atom_site_symmetry_multiplicity
 _atom_site_fract_x
 _atom_site_fract_y
 _atom_site_fract_z
 _atom_site_occupancy
  Eu  Eu0  1  0.15467700  0.84532300  0.25000000  1
  Eu  Eu1  1  0.87591300  0.12408700  0.75000000  1
  Mg  Mg0  1  0.86431100  0.13568900  0.25000000  1
  V  V0  1  0.37682300  0.62317700  0.75000000  1
  V  V1  1  0.60631400  0.39368600  0.25000000  1
  O  O0  1  0.78729000  0.74672500  0.41094400  1
  O  O1  1  0.37356900  0.79914400  0.58728600  1
  O  O2  1  0.72547600  0.80334700  0.95529400  1
  O  O3  1  0.80216100  0.35273500  0.09329900  1
  O  O4  1  0.64726500  0.19783900  0.40670100  1
  O  O5  1  0.19665300  0.27452400  0.54470600  1
  O  O6  1  0.20085600  0.62643100  0.91271400  1
  O  O7  1  0.25327500  0.21271000  0.08905600  1
loop_
_geom_bond_atom_site_label_1
_geom_bond_atom_site_label_2
_geom_bond_distance
_geom_bond_site_symmetry_2
Eu0 O1 2.411977 1_555
Eu0 O6 2.411977 1_554
Eu0 O4 2.505751 1_565
Eu0 O3 2.505752 1_455
Eu0 O7 2.670259 1_565
Eu0 O0 2.670259 1_455
Eu0 O2 2.685388 1_454
Eu0 O5 2.685389 1_565
Eu1 O7 2.454818 1_656
Eu1 O0 2.454818 1_545
Eu1 O1 2.515960 1_545
Eu1 O6 2.515960 1_655
Eu1 O4 2.577377 1_555
Eu1 O3 2.577378 1_556
Eu1 O2 2.668300 1_545
Eu1 O5 2.668300 1_655
Mg0 O5 2.003130 1_655
Mg0 O2 2.003130 1_544
Mg0 O3 2.011621 1_555
Mg0 O4 2.011621 1_555
O0 V1 1.752217 1_555
O1 V0 1.723898 1_555
O2 V0 1.777359 1_555
O3 V1 1.850558 1_555
O4 V1 1.850558 1_555
O5 V0 1.777360 1_555
O6 V0 1.723898 1_555
O7 V1 1.752216 1_555
