# generated using pymatgen
data_MgHg2(BiO3)4
_symmetry_space_group_name_H-M   'P 1'
_cell_length_a   5.23181947
_cell_length_b   5.25552386
_cell_length_c   10.68919334
_cell_angle_alpha   90.00000000
_cell_angle_beta   90.00000000
_cell_angle_gamma   87.33850584
_symmetry_Int_Tables_number   1
_chemical_formula_structural   MgHg2(BiO3)4
_chemical_formula_sum   'Mg1 Hg2 Bi4 O12'
_cell_volume   293.59250937
_cell_formula_units_Z   1
loop_
 _symmetry_equiv_pos_site_id
 _symmetry_equiv_pos_as_xyz
  1  'x, y, z'
loop_
 _atom_site_type_symbol
 _atom_site_label
 _atom_site_symmetry_multiplicity
 _atom_site_fract_x
 _atom_site_fract_y
 _atom_site_fract_z
 _atom_site_occupancy
  Mg  Mg0  1  0.73156705  0.74507356  0.50000000  1
  Hg  Hg0  1  0.02477983  0.02533889  0.00000000  1
  Hg  Hg1  1  0.36642661  0.36818386  0.50000000  1
  Bi  Bi0  1  0.01440170  0.01346263  0.31471524  1
  Bi  Bi1  1  0.01440170  0.01346263  0.68528476  1
  Bi  Bi2  1  0.52352195  0.52328118  0.16023995  1
  Bi  Bi3  1  0.52352195  0.52328118  0.83976005  1
  O  O0  1  0.21419878  0.80928530  0.83154721  1
  O  O1  1  0.21419878  0.80928530  0.16845279  1
  O  O2  1  0.15383686  0.79807184  0.50000000  1
  O  O3  1  0.34158319  0.34152726  0.00000000  1
  O  O4  1  0.30783737  0.30742823  0.30685526  1
  O  O5  1  0.30783737  0.30742823  0.69314474  1
  O  O6  1  0.71494223  0.71619687  0.31779343  1
  O  O7  1  0.71494223  0.71619687  0.68220657  1
  O  O8  1  0.70354095  0.70272146  0.00000000  1
  O  O9  1  0.79546711  0.15005109  0.50000000  1
  O  O10  1  0.81024716  0.21486181  0.16876888  1
  O  O11  1  0.81024716  0.21486181  0.83123112  1
loop_
_geom_bond_atom_site_label_1
_geom_bond_atom_site_label_2
_geom_bond_distance
_geom_bond_site_symmetry_2
Mg0 O7 1.955794 1_555
Mg0 O6 1.955794 1_555
Mg0 O9 2.169747 1_565
Mg0 O2 2.239524 1_655
Hg0 O10 2.324323 1_455
Hg0 O11 2.324323 1_454
Hg0 O1 2.325756 1_545
Hg0 O0 2.325756 1_544
Hg0 O3 2.400900 1_555
Hg0 O8 2.442146 1_445
Hg1 O4 2.113627 1_555
Hg1 O5 2.113627 1_555
Hg1 O2 2.471450 1_555
Hg1 O9 2.472603 1_555
Bi0 O1 2.141086 1_545
Bi0 O10 2.142412 1_455
Bi0 O4 2.229579 1_555
Bi0 O6 2.263569 1_445
Bi0 O2 2.378958 1_545
Bi0 O9 2.381910 1_455
Bi1 O0 2.141086 1_545
Bi1 O11 2.142412 1_455
Bi1 O5 2.229579 1_555
Bi1 O7 2.263569 1_445
Bi1 O2 2.378958 1_545
Bi1 O9 2.381910 1_455
Bi2 O1 2.158723 1_555
Bi2 O10 2.158730 1_555
Bi2 O8 2.189219 1_555
Bi2 O3 2.199258 1_555
Bi2 O6 2.227431 1_555
Bi2 O4 2.266108 1_555
Bi3 O0 2.158723 1_555
Bi3 O11 2.158730 1_555
Bi3 O8 2.189219 1_556
Bi3 O3 2.199258 1_556
Bi3 O7 2.227431 1_555
Bi3 O5 2.266108 1_555
