# generated using pymatgen
data_Rb4PbO3
_symmetry_space_group_name_H-M   'P 1'
_cell_length_a   6.81432257
_cell_length_b   11.91988299
_cell_length_c   19.74349593
_cell_angle_alpha   90.00000000
_cell_angle_beta   90.00000000
_cell_angle_gamma   90.00000000
_symmetry_Int_Tables_number   1
_chemical_formula_structural   Rb4PbO3
_chemical_formula_sum   'Rb32 Pb8 O24'
_cell_volume   1603.68377277
_cell_formula_units_Z   8
loop_
 _symmetry_equiv_pos_site_id
 _symmetry_equiv_pos_as_xyz
  1  'x, y, z'
loop_
 _atom_site_type_symbol
 _atom_site_label
 _atom_site_symmetry_multiplicity
 _atom_site_fract_x
 _atom_site_fract_y
 _atom_site_fract_z
 _atom_site_occupancy
  Rb  Rb0  1  0.95324570  0.38206247  0.20169445  1
  Rb  Rb1  1  0.45324570  0.11793753  0.79830555  1
  Rb  Rb2  1  0.04675430  0.88206247  0.29830555  1
  Rb  Rb3  1  0.54675430  0.61793753  0.70169445  1
  Rb  Rb4  1  0.04675430  0.61793753  0.79830555  1
  Rb  Rb5  1  0.54675430  0.88206247  0.20169445  1
  Rb  Rb6  1  0.95324570  0.11793753  0.70169445  1
  Rb  Rb7  1  0.45324570  0.38206247  0.29830555  1
  Rb  Rb8  1  0.77005699  0.18904642  0.94379035  1
  Rb  Rb9  1  0.27005699  0.31095358  0.05620965  1
  Rb  Rb10  1  0.22994301  0.68904642  0.55620965  1
  Rb  Rb11  1  0.72994301  0.81095358  0.44379035  1
  Rb  Rb12  1  0.22994301  0.81095358  0.05620965  1
  Rb  Rb13  1  0.72994301  0.68904642  0.94379035  1
  Rb  Rb14  1  0.77005699  0.31095358  0.44379035  1
  Rb  Rb15  1  0.27005699  0.18904642  0.55620965  1
  Rb  Rb16  1  0.75132784  0.05747033  0.53517557  1
  Rb  Rb17  1  0.25132784  0.44252967  0.46482443  1
  Rb  Rb18  1  0.24867216  0.55747033  0.96482443  1
  Rb  Rb19  1  0.74867216  0.94252967  0.03517557  1
  Rb  Rb20  1  0.24867216  0.94252967  0.46482443  1
  Rb  Rb21  1  0.74867216  0.55747033  0.53517557  1
  Rb  Rb22  1  0.75132784  0.44252967  0.03517557  1
  Rb  Rb23  1  0.25132784  0.05747033  0.96482443  1
  Rb  Rb24  1  0.62681846  0.17200249  0.15274114  1
  Rb  Rb25  1  0.12681846  0.32799751  0.84725886  1
  Rb  Rb26  1  0.37318154  0.67200249  0.34725886  1
  Rb  Rb27  1  0.87318154  0.82799751  0.65274114  1
  Rb  Rb28  1  0.37318154  0.82799751  0.84725886  1
  Rb  Rb29  1  0.87318154  0.67200249  0.15274114  1
  Rb  Rb30  1  0.62681846  0.32799751  0.65274114  1
  Rb  Rb31  1  0.12681846  0.17200249  0.34725886  1
  Pb  Pb0  1  0.61136017  0.06504057  0.34742726  1
  Pb  Pb1  1  0.11136017  0.43495943  0.65257274  1
  Pb  Pb2  1  0.38863983  0.56504057  0.15257274  1
  Pb  Pb3  1  0.88863983  0.93495943  0.84742726  1
  Pb  Pb4  1  0.38863983  0.93495943  0.65257274  1
  Pb  Pb5  1  0.88863983  0.56504057  0.34742726  1
  Pb  Pb6  1  0.61136017  0.43495943  0.84742726  1
  Pb  Pb7  1  0.11136017  0.06504057  0.15257274  1
  O  O0  1  0.95633333  0.35495456  0.56814873  1
  O  O1  1  0.45633333  0.14504544  0.43185127  1
  O  O2  1  0.04366667  0.85495456  0.93185127  1
  O  O3  1  0.54366667  0.64504544  0.06814873  1
  O  O4  1  0.04366667  0.64504544  0.43185127  1
  O  O5  1  0.54366667  0.85495456  0.56814873  1
  O  O6  1  0.95633333  0.14504544  0.06814873  1
  O  O7  1  0.45633333  0.35495456  0.93185127  1
  O  O8  1  0.53669762  0.40149564  0.15760448  1
  O  O9  1  0.03669762  0.09850436  0.84239552  1
  O  O10  1  0.46330238  0.90149564  0.34239552  1
  O  O11  1  0.96330238  0.59850436  0.65760448  1
  O  O12  1  0.46330238  0.59850436  0.84239552  1
  O  O13  1  0.96330238  0.90149564  0.15760448  1
  O  O14  1  0.53669762  0.09850436  0.65760448  1
  O  O15  1  0.03669762  0.40149564  0.34239552  1
  O  O16  1  0.87800428  0.48426542  0.90035183  1
  O  O17  1  0.37800428  0.01573458  0.09964817  1
  O  O18  1  0.12199572  0.98426542  0.59964817  1
  O  O19  1  0.62199572  0.51573458  0.40035183  1
  O  O20  1  0.12199572  0.51573458  0.09964817  1
  O  O21  1  0.62199572  0.98426542  0.90035183  1
  O  O22  1  0.87800428  0.01573458  0.40035183  1
  O  O23  1  0.37800428  0.48426542  0.59964817  1
loop_
_geom_bond_atom_site_label_1
_geom_bond_atom_site_label_2
_geom_bond_distance
_geom_bond_site_symmetry_2
O0 Pb1 2.191743 1_655
O0 Rb14 2.813303 1_555
O0 Rb30 2.816836 1_555
O0 Rb21 2.872883 1_555
O0 Rb15 2.921770 1_655
O0 Rb17 3.048291 1_655
O1 Pb0 2.191743 1_555
O1 Rb15 2.813303 1_555
O1 Rb31 2.816836 1_555
O1 Rb20 2.872883 1_545
O1 Rb14 2.921770 1_555
O1 Rb16 3.048291 1_555
O2 Pb3 2.191743 1_455
O2 Rb12 2.813303 1_556
O2 Rb28 2.816836 1_555
O2 Rb23 2.872883 1_565
O2 Rb13 2.921770 1_455
O2 Rb19 3.048291 1_456
O3 Pb2 2.191743 1_555
O3 Rb13 2.813303 1_554
O3 Rb29 2.816836 1_555
O3 Rb22 2.872883 1_555
O3 Rb12 2.921770 1_555
O3 Rb18 3.048291 1_554
O4 Pb5 2.191743 1_455
O4 Rb10 2.813303 1_555
O4 Rb26 2.816836 1_555
O4 Rb17 2.872883 1_555
O4 Rb11 2.921770 1_455
O4 Rb21 3.048291 1_455
O5 Pb4 2.191743 1_555
O5 Rb11 2.813303 1_555
O5 Rb27 2.816836 1_555
O5 Rb16 2.872883 1_565
O5 Rb10 2.921770 1_555
O5 Rb20 3.048291 1_555
O6 Pb7 2.191743 1_655
O6 Rb8 2.813303 1_554
O6 Rb24 2.816836 1_555
O6 Rb19 2.872883 1_545
O6 Rb9 2.921770 1_655
O6 Rb23 3.048291 1_654
O7 Pb6 2.191743 1_555
O7 Rb9 2.813303 1_556
O7 Rb25 2.816836 1_555
O7 Rb18 2.872883 1_555
O7 Rb8 2.921770 1_555
O7 Rb22 3.048291 1_556
O8 Pb2 2.197289 1_555
O8 Rb24 2.805260 1_555
O8 Rb7 2.844985 1_555
O8 Rb22 2.867238 1_555
O8 Rb9 2.910969 1_555
O8 Rb0 2.977995 1_555
O9 Pb3 2.197289 1_445
O9 Rb25 2.805260 1_555
O9 Rb6 2.844985 1_455
O9 Rb23 2.867238 1_555
O9 Rb8 2.910969 1_455
O9 Rb1 2.977995 1_555
O10 Pb0 2.197289 1_565
O10 Rb26 2.805260 1_555
O10 Rb5 2.844985 1_555
O10 Rb20 2.867238 1_555
O10 Rb11 2.910969 1_555
O10 Rb2 2.977995 1_555
O11 Pb1 2.197289 1_655
O11 Rb27 2.805260 1_555
O11 Rb4 2.844985 1_655
O11 Rb21 2.867238 1_555
O11 Rb10 2.910969 1_655
O11 Rb3 2.977995 1_555
O12 Pb6 2.197289 1_555
O12 Rb28 2.805260 1_555
O12 Rb3 2.844985 1_555
O12 Rb18 2.867238 1_555
O12 Rb13 2.910969 1_555
O12 Rb4 2.977995 1_555
O13 Pb7 2.197289 1_665
O13 Rb29 2.805260 1_555
O13 Rb2 2.844985 1_655
O13 Rb19 2.867238 1_555
O13 Rb12 2.910969 1_655
O13 Rb5 2.977995 1_555
O14 Pb4 2.197289 1_545
O14 Rb30 2.805260 1_555
O14 Rb1 2.844985 1_555
O14 Rb16 2.867238 1_555
O14 Rb15 2.910969 1_555
O14 Rb6 2.977995 1_555
O15 Pb5 2.197289 1_455
O15 Rb31 2.805260 1_555
O15 Rb0 2.844985 1_455
O15 Rb17 2.867238 1_555
O15 Rb14 2.910969 1_455
O15 Rb7 2.977995 1_555
O16 Pb6 2.176867 1_555
O16 Rb25 2.728216 1_655
O16 Rb13 2.777012 1_555
O16 Rb4 2.814305 1_655
O16 Rb22 2.842235 1_556
O16 Rb18 2.960009 1_655
O17 Pb7 2.176867 1_555
O17 Rb24 2.728216 1_555
O17 Rb12 2.777012 1_545
O17 Rb5 2.814305 1_545
O17 Rb23 2.842235 1_554
O17 Rb19 2.960009 1_545
O18 Pb4 2.176867 1_555
O18 Rb27 2.728216 1_455
O18 Rb15 2.777012 1_565
O18 Rb6 2.814305 1_465
O18 Rb20 2.842235 1_555
O18 Rb16 2.960009 1_465
O19 Pb5 2.176867 1_555
O19 Rb26 2.728216 1_555
O19 Rb14 2.777012 1_555
O19 Rb7 2.814305 1_555
O19 Rb21 2.842235 1_555
O19 Rb17 2.960009 1_555
O20 Pb2 2.176867 1_555
O20 Rb29 2.728216 1_455
O20 Rb9 2.777012 1_555
O20 Rb0 2.814305 1_455
O20 Rb18 2.842235 1_554
O20 Rb22 2.960009 1_455
O21 Pb3 2.176867 1_555
O21 Rb28 2.728216 1_555
O21 Rb8 2.777012 1_565
O21 Rb1 2.814305 1_565
O21 Rb19 2.842235 1_556
O21 Rb23 2.960009 1_565
O22 Pb0 2.176867 1_555
O22 Rb31 2.728216 1_655
O22 Rb11 2.777012 1_545
O22 Rb2 2.814305 1_645
O22 Rb16 2.842235 1_555
O22 Rb20 2.960009 1_645
O23 Pb1 2.176867 1_555
O23 Rb30 2.728216 1_555
O23 Rb10 2.777012 1_555
O23 Rb3 2.814305 1_555
O23 Rb17 2.842235 1_555
O23 Rb21 2.960009 1_555
