# generated using pymatgen
data_Na8TaGa3Si5SO24
_symmetry_space_group_name_H-M   'P 1'
_cell_length_a   9.02795141
_cell_length_b   9.01619132
_cell_length_c   21.98773579
_cell_angle_alpha   89.55740075
_cell_angle_beta   90.04684178
_cell_angle_gamma   120.05410803
_symmetry_Int_Tables_number   1
_chemical_formula_structural   Na8TaGa3Si5SO24
_chemical_formula_sum   'Na24 Ta3 Ga9 Si15 S3 O72'
_cell_volume   1549.06901954
_cell_formula_units_Z   3
loop_
 _symmetry_equiv_pos_site_id
 _symmetry_equiv_pos_as_xyz
  1  'x, y, z'
loop_
 _atom_site_type_symbol
 _atom_site_label
 _atom_site_symmetry_multiplicity
 _atom_site_fract_x
 _atom_site_fract_y
 _atom_site_fract_z
 _atom_site_occupancy
  Na  Na0  1  0.61986214  0.99861223  0.25078954  1
  Na  Na1  1  0.37043577  0.36679709  0.25499783  1
  Na  Na2  1  0.00653685  0.63350428  0.24754613  1
  Na  Na3  1  0.63568567  0.62036404  0.74496374  1
  Na  Na4  1  0.99509078  0.36374621  0.73611749  1
  Na  Na5  1  0.35892097  0.00681023  0.73997594  1
  Na  Na6  1  0.29496230  0.34172414  0.58106385  1
  Na  Na7  1  0.04433568  0.70668295  0.58176645  1
  Na  Na8  1  0.66509450  0.95929230  0.57812810  1
  Na  Na9  1  0.29525079  0.95109405  0.08289212  1
  Na  Na10  1  0.65975094  0.70269925  0.08093503  1
  Na  Na11  1  0.04186042  0.33616112  0.08133326  1
  Na  Na12  1  0.96865228  0.67541077  0.91477287  1
  Na  Na13  1  0.70519551  0.02518496  0.91843922  1
  Na  Na14  1  0.32175832  0.29262295  0.91351739  1
  Na  Na15  1  0.97716931  0.30298800  0.41938026  1
  Na  Na16  1  0.32929686  0.02845425  0.41749647  1
  Na  Na17  1  0.70145380  0.67968173  0.41921135  1
  Na  Na18  1  0.00071785  0.00223246  0.50137121  1
  Na  Na19  1  0.99872508  0.99800889  0.99960105  1
  Na  Na20  1  0.66474618  0.34055193  0.82816698  1
  Na  Na21  1  0.65918009  0.32612992  0.33191905  1
  Na  Na22  1  0.33255256  0.67302722  0.16381364  1
  Na  Na23  1  0.32876996  0.66087913  0.65699517  1
  Ta  Ta0  1  0.66652491  0.33151754  0.98070601  1
  Ta  Ta1  1  0.66852554  0.33706287  0.48034449  1
  Ta  Ta2  1  0.32352453  0.65783260  0.81400071  1
  Ga  Ga0  1  0.02045357  0.00903993  0.35828279  1
  Ga  Ga1  1  0.01327579  0.99377984  0.85479404  1
  Ga  Ga2  1  0.02022729  0.00701897  0.64162096  1
  Ga  Ga3  1  0.01153479  0.99130460  0.14018771  1
  Ga  Ga4  1  0.66286445  0.34635129  0.67976745  1
  Ga  Ga5  1  0.64398682  0.31429607  0.17634815  1
  Ga  Ga6  1  0.33388233  0.66345896  0.02080039  1
  Ga  Ga7  1  0.33775516  0.67106771  0.51754185  1
  Ga  Ga8  1  0.33148215  0.68708932  0.32560174  1
  Si  Si0  1  0.29153126  0.99918148  0.24958944  1
  Si  Si1  1  0.28837465  0.28497982  0.74920024  1
  Si  Si2  1  0.99652999  0.71096980  0.74901381  1
  Si  Si3  1  0.95818162  0.33253398  0.58704440  1
  Si  Si4  1  0.37937406  0.04178974  0.58615738  1
  Si  Si5  1  0.66689151  0.63381579  0.58492516  1
  Si  Si6  1  0.95443971  0.61802645  0.08835919  1
  Si  Si7  1  0.66797612  0.03379572  0.08672679  1
  Si  Si8  1  0.37138399  0.33588850  0.08527507  1
  Si  Si9  1  0.62739920  0.67115503  0.91843114  1
  Si  Si10  1  0.03993877  0.36787571  0.92019803  1
  Si  Si11  1  0.33265634  0.95268894  0.91959841  1
  Si  Si12  1  0.63225202  0.96161088  0.41517112  1
  Si  Si13  1  0.33485445  0.38734636  0.41496200  1
  Si  Si14  1  0.04512088  0.66908629  0.41657432  1
  S  S0  1  0.71152954  0.71140810  0.24945664  1
  S  S1  1  0.00021191  0.28855388  0.24911127  1
  S  S2  1  0.70711975  0.99589430  0.75206704  1
  O  O0  1  0.20567507  0.03505048  0.30946133  1
  O  O1  1  0.81039484  0.79909571  0.30478552  1
  O  O2  1  0.98231431  0.18659345  0.30514514  1
  O  O3  1  0.20169873  0.17545683  0.81147313  1
  O  O4  1  0.96729979  0.79138291  0.81123503  1
  O  O5  1  0.80443497  0.00915155  0.80786237  1
  O  O6  1  0.78415864  0.97320606  0.69654615  1
  O  O7  1  0.16428524  0.20934604  0.69013757  1
  O  O8  1  0.03968834  0.83624200  0.69000986  1
  O  O9  1  0.79487227  0.81331576  0.19322367  1
  O  O10  1  0.01101620  0.20097833  0.19360484  1
  O  O11  1  0.17077107  0.96323897  0.18912756  1
  O  O12  1  0.86494360  0.36085787  0.64589508  1
  O  O13  1  0.49673342  0.12943542  0.64626384  1
  O  O14  1  0.62771195  0.51558735  0.64571527  1
  O  O15  1  0.85892987  0.49570978  0.14762202  1
  O  O16  1  0.62996782  0.11645802  0.14614967  1
  O  O17  1  0.48927516  0.37369326  0.14561347  1
  O  O18  1  0.47086799  0.30511249  0.02648400  1
  O  O19  1  0.83361348  0.52321733  0.02699999  1
  O  O20  1  0.69743693  0.16297918  0.02674535  1
  O  O21  1  0.47575835  0.16470941  0.52558161  1
  O  O22  1  0.69417955  0.53213320  0.52652118  1
  O  O23  1  0.83584143  0.30968498  0.52664965  1
  O  O24  1  0.54182550  0.70326070  0.97745317  1
  O  O25  1  0.16108053  0.45420736  0.97808148  1
  O  O26  1  0.29923248  0.83345895  0.97874470  1
  O  O27  1  0.54907112  0.83839845  0.47416720  1
  O  O28  1  0.29804061  0.46560226  0.47542633  1
  O  O29  1  0.16901727  0.70933038  0.47486111  1
  O  O30  1  0.11395009  0.62208909  0.35468229  1
  O  O31  1  0.51253072  0.89040598  0.35430929  1
  O  O32  1  0.37021831  0.50694100  0.35328932  1
  O  O33  1  0.13355620  0.49538074  0.85960850  1
  O  O34  1  0.36251918  0.86204779  0.85853374  1
  O  O35  1  0.50205103  0.63875793  0.85827968  1
  O  O36  1  0.01490396  0.83350366  0.41104519  1
  O  O37  1  0.82480221  0.98868440  0.40645627  1
  O  O38  1  0.16866617  0.19230295  0.41192329  1
  O  O39  1  0.01042234  0.17717507  0.91006811  1
  O  O40  1  0.16783454  0.97996174  0.91495302  1
  O  O41  1  0.81853393  0.83682412  0.91158422  1
  O  O42  1  0.96586823  0.15471770  0.58842139  1
  O  O43  1  0.19486863  0.03513657  0.58436551  1
  O  O44  1  0.84323856  0.81898321  0.58827407  1
  O  O45  1  0.96306724  0.80418322  0.08627676  1
  O  O46  1  0.84452161  0.02488336  0.09058594  1
  O  O47  1  0.18558786  0.15958276  0.08629374  1
  O  O48  1  0.68417185  0.14753294  0.75082971  1
  O  O49  1  0.48117145  0.30796509  0.74655651  1
  O  O50  1  0.83234786  0.51438654  0.74600922  1
  O  O51  1  0.69852427  0.53878455  0.24949401  1
  O  O52  1  0.84585919  0.31003274  0.24927861  1
  O  O53  1  0.48670624  0.17619462  0.24537872  1
  O  O54  1  0.63904938  0.49264487  0.92138902  1
  O  O55  1  0.85381337  0.36236069  0.92123314  1
  O  O56  1  0.50918682  0.14340701  0.92178215  1
  O  O57  1  0.65030875  0.15410699  0.42216730  1
  O  O58  1  0.50695987  0.36387371  0.42073901  1
  O  O59  1  0.85188292  0.49769095  0.42255291  1
  O  O60  1  0.35329977  0.50517808  0.07931819  1
  O  O61  1  0.14286740  0.63812259  0.08274178  1
  O  O62  1  0.49659502  0.84787948  0.08003532  1
  O  O63  1  0.35890841  0.85306192  0.57977554  1
  O  O64  1  0.49540291  0.64838556  0.57785344  1
  O  O65  1  0.14555789  0.50331576  0.58026728  1
  O  O66  1  0.31051232  0.82334182  0.25478440  1
  O  O67  1  0.53586190  0.68936508  0.24969428  1
  O  O68  1  0.15901482  0.46084385  0.24958525  1
  O  O69  1  0.31431275  0.48447089  0.75547205  1
  O  O70  1  0.17554106  0.69411372  0.75505228  1
  O  O71  1  0.52905873  0.83540416  0.75442038  1
loop_
_geom_bond_atom_site_label_1
_geom_bond_atom_site_label_2
_geom_bond_distance
_geom_bond_site_symmetry_2
Na0 O66 2.425354 1_555
Na0 O53 2.438759 1_565
Na0 O31 2.468617 1_555
Na0 O67 2.496598 1_555
Na0 O16 2.509264 1_565
Na0 O52 2.511633 1_565
Na1 O53 2.431596 1_555
Na1 O68 2.448568 1_555
Na1 O32 2.512389 1_555
Na1 O67 2.519304 1_555
Na1 O51 2.567024 1_555
Na1 O17 2.621945 1_555
Na1 O0 2.843309 1_555
Na2 O66 2.405135 1_555
Na2 O51 2.466691 1_455
Na2 O52 2.524354 1_455
Na2 O68 2.542765 1_555
Na2 O15 2.554539 1_455
Na2 O30 2.567621 1_555
Na2 O11 2.866299 1_555
Na3 O14 2.371351 1_555
Na3 O50 2.400963 1_555
Na3 O49 2.437964 1_555
Na3 O69 2.531490 1_555
Na3 O71 2.570014 1_555
Na3 O35 2.811156 1_555
Na3 O6 2.954568 1_555
Na3 O4 2.977830 1_555
Na4 O12 2.298470 1_555
Na4 O50 2.460597 1_555
Na4 O48 2.508936 1_555
Na4 O69 2.556261 1_655
Na4 O70 2.618641 1_655
Na4 O7 2.728993 1_655
Na4 O33 2.983659 1_655
Na5 O13 2.367960 1_555
Na5 O49 2.369780 1_555
Na5 O70 2.471972 1_545
Na5 O48 2.561398 1_555
Na5 O71 2.686593 1_545
Na5 O8 2.731225 1_545
Na5 O34 2.913740 1_545
Na6 O64 2.431048 1_555
Na6 O65 2.431093 1_555
Na6 O43 2.440893 1_555
Na6 O28 2.563643 1_555
Na6 O42 2.583623 1_455
Na6 O7 2.667984 1_555
Na7 O65 2.424370 1_555
Na7 O63 2.460511 1_555
Na7 O44 2.487085 1_455
Na7 O43 2.567373 1_565
Na7 O29 2.601824 1_555
Na7 O8 2.668899 1_555
Na8 O42 2.396236 1_565
Na8 O64 2.429749 1_555
Na8 O63 2.430514 1_555
Na8 O44 2.503920 1_555
Na8 O27 2.530104 1_555
Na8 O6 2.795720 1_555
Na9 O62 2.422711 1_555
Na9 O61 2.442744 1_555
Na9 O47 2.526990 1_565
Na9 O26 2.538897 1_554
Na9 O45 2.602631 1_455
Na9 O11 2.619682 1_555
Na10 O62 2.411265 1_555
Na10 O45 2.416798 1_555
Na10 O60 2.427500 1_555
Na10 O24 2.512339 1_554
Na10 O46 2.534024 1_565
Na10 O9 2.719025 1_555
Na10 O17 2.925078 1_555
Na10 O19 3.010928 1_555
Na11 O61 2.399850 1_555
Na11 O60 2.436622 1_555
Na11 O46 2.464872 1_455
Na11 O25 2.502923 1_554
Na11 O47 2.509284 1_555
Na11 O10 2.696620 1_555
Na12 O40 2.414100 1_655
Na12 O41 2.435877 1_555
Na12 O55 2.474803 1_555
Na12 O4 2.500438 1_555
Na12 O54 2.583908 1_555
Na12 O19 2.781248 1_556
Na12 O26 2.946259 1_655
Na12 O33 2.962456 1_655
Na13 O41 2.387188 1_545
Na13 O39 2.391564 1_655
Na13 O56 2.482661 1_555
Na13 O5 2.621773 1_555
Na13 O55 2.638756 1_555
Na13 O20 2.711578 1_556
Na13 O24 2.817931 1_545
Na13 O34 2.989088 1_545
Na14 O40 2.440043 1_545
Na14 O39 2.461668 1_555
Na14 O3 2.492154 1_555
Na14 O54 2.513419 1_555
Na14 O56 2.642370 1_555
Na14 O18 2.800266 1_556
Na14 O25 2.897262 1_555
Na14 O35 2.953077 1_555
Na15 O38 2.396402 1_655
Na15 O37 2.472003 1_545
Na15 O59 2.521263 1_555
Na15 O57 2.558279 1_555
Na15 O23 2.697944 1_555
Na15 O2 2.739016 1_555
Na15 O28 2.797804 1_655
Na15 O30 2.864817 1_655
Na16 O36 2.484318 1_545
Na16 O57 2.530924 1_555
Na16 O38 2.538330 1_555
Na16 O58 2.620705 1_555
Na16 O0 2.636632 1_555
Na16 O21 2.705266 1_555
Na16 O29 2.782115 1_545
Na16 O31 2.882490 1_545
Na17 O37 2.441631 1_555
Na17 O36 2.455498 1_655
Na17 O58 2.486488 1_555
Na17 O59 2.602345 1_555
Na17 O22 2.684320 1_555
Na17 O1 2.712587 1_555
Na17 O27 2.720627 1_555
Na18 O43 2.443901 1_555
Na18 O44 2.450525 1_445
Na18 O42 2.475398 1_455
Na18 O38 2.540486 1_555
Na18 O36 2.552926 1_545
Na18 O37 2.587816 1_445
Na19 O40 2.465687 1_655
Na19 O41 2.484755 1_555
Na19 O45 2.485109 1_556
Na19 O47 2.485498 1_666
Na19 O39 2.505292 1_665
Na19 O46 2.519701 1_566
Na20 O49 2.359769 1_555
Na20 O50 2.365295 1_555
Na20 O48 2.510558 1_555
Na20 O54 2.549229 1_555
Na20 O55 2.608422 1_555
Na20 O56 2.610856 1_555
Na21 O53 2.408166 1_555
Na21 O57 2.485547 1_555
Na21 O58 2.510265 1_555
Na21 O51 2.520344 1_555
Na21 O52 2.533229 1_555
Na21 O59 2.595607 1_555
Na22 O61 2.381821 1_555
Na22 O62 2.385994 1_555
Na22 O60 2.470815 1_555
Na22 O66 2.487959 1_555
Na22 O68 2.572567 1_555
Na22 O67 2.585383 1_555
Na23 O65 2.297622 1_555
Na23 O63 2.332887 1_555
Na23 O64 2.341138 1_555
Na23 O69 2.640946 1_555
Na23 O70 2.661212 1_555
Na23 O71 2.744137 1_555
Ga0 O0 1.899935 1_555
Ga0 O38 1.929938 1_555
Ga0 O36 1.935341 1_545
Ga0 O37 1.987692 1_445
Ga0 O2 2.137511 1_455
Ga0 O1 2.235672 1_445
Ga1 O3 1.916165 1_565
Ga1 O4 1.920246 1_455
Ga1 O40 1.969968 1_555
Ga1 O41 2.033978 1_455
Ga1 O39 2.070183 1_565
Ga1 O5 2.212502 1_465
Ga2 O43 1.932081 1_555
Ga2 O8 1.943988 1_545
Ga2 O7 1.951572 1_555
Ga2 O42 2.003018 1_455
Ga2 O44 2.029174 1_445
Ga2 O6 2.332648 1_445
Ga3 O11 1.909511 1_555
Ga3 O45 1.932249 1_455
Ga3 O47 1.939748 1_565
Ga3 O46 2.000999 1_465
Ga3 O9 2.142876 1_455
Ga3 O10 2.235293 1_565
Ga4 O14 1.859185 1_555
Ga4 O12 1.913584 1_555
Ga4 O13 1.923407 1_555
Ga4 O49 2.096301 1_555
Ga4 O50 2.113395 1_555
Ga4 O48 2.448140 1_555
Ga5 O16 1.852213 1_555
Ga5 O17 1.853760 1_555
Ga5 O15 1.909638 1_555
Ga5 O53 2.018363 1_555
Ga5 O52 2.441077 1_555
Ga5 O51 2.444709 1_555
Ga6 O26 1.939112 1_554
Ga6 O24 1.970864 1_554
Ga6 O60 1.986124 1_555
Ga6 O25 1.988058 1_554
Ga6 O62 2.050073 1_555
Ga6 O61 2.117866 1_555
Ga7 O28 1.943852 1_555
Ga7 O29 1.959433 1_555
Ga7 O27 1.980669 1_555
Ga7 O64 2.027379 1_555
Ga7 O63 2.078906 1_555
Ga7 O65 2.131554 1_555
Ga8 O31 1.856192 1_555
Ga8 O30 1.858101 1_555
Ga8 O32 1.919487 1_555
Ga8 O66 2.042673 1_555
Ga8 O67 2.481367 1_555
Ga8 O68 2.499236 1_555
O0 Si0 1.642479 1_545
O1 S0 1.485931 1_555
O2 S1 1.491048 1_655
O3 Si1 1.633750 1_555
O4 Si2 1.635406 1_555
O5 S2 1.478695 1_545
O6 S2 1.470926 1_555
O7 Si1 1.628696 1_555
O8 Si2 1.627290 1_455
O9 S0 1.493531 1_555
O10 S1 1.488197 1_555
O11 Si0 1.646620 1_555
O12 Si3 1.634127 1_555
O13 Si4 1.633674 1_555
O14 Si5 1.627606 1_555
O15 Si6 1.638546 1_555
O16 Si7 1.628584 1_555
O17 Si8 1.628006 1_555
O18 Si8 1.676824 1_555
O18 Ta0 1.941114 1_554
O19 Si6 1.679950 1_555
O19 Ta0 1.926690 1_554
O20 Si7 1.683239 1_555
O20 Ta0 1.952505 1_554
O21 Si4 1.665111 1_555
O21 Ta1 1.924308 1_555
O22 Si5 1.671892 1_555
O22 Ta1 1.948605 1_555
O23 Si3 1.673223 1_555
O23 Ta1 1.935536 1_555
O24 Si9 1.611291 1_555
O25 Si10 1.606909 1_555
O26 Si11 1.609998 1_555
O27 Si12 1.620023 1_555
O28 Si13 1.620458 1_555
O29 Si14 1.619745 1_555
O30 Si14 1.640626 1_555
O31 Si12 1.639227 1_555
O32 Si13 1.654322 1_555
O33 Si10 1.678011 1_555
O33 Ta2 1.885815 1_555
O34 Si11 1.667803 1_555
O34 Ta2 1.962381 1_555
O35 Si9 1.669614 1_555
O35 Ta2 1.961535 1_555
O36 Si14 1.639812 1_555
O37 Si12 1.641008 1_555
O38 Si13 1.645264 1_555
O39 Si10 1.619824 1_555
O40 Si11 1.628161 1_555
O41 Si9 1.626845 1_555
O42 Si3 1.639130 1_555
O43 Si4 1.636940 1_555
O44 Si5 1.633010 1_555
O45 Si6 1.641081 1_555
O46 Si7 1.637667 1_555
O47 Si8 1.633919 1_555
O48 S2 1.481901 1_545
O49 Si1 1.647590 1_555
O50 Si2 1.647145 1_555
O51 S0 1.501043 1_555
O52 S1 1.499883 1_655
O53 Si0 1.685735 1_545
O54 Si9 1.665429 1_555
O54 Ta0 2.050420 1_555
O55 Si10 1.656158 1_655
O55 Ta0 2.042861 1_555
O56 Si11 1.659902 1_545
O56 Ta0 2.047111 1_555
O57 Si12 1.668285 1_545
O57 Ta1 2.035915 1_555
O58 Si13 1.674431 1_555
O58 Ta1 2.061252 1_555
O59 Si14 1.657013 1_655
O59 Ta1 2.006495 1_555
O60 Si8 1.618650 1_555
O61 Si6 1.622698 1_455
O62 Si7 1.622046 1_565
O63 Si4 1.624201 1_565
O64 Si5 1.625216 1_555
O65 Si3 1.625616 1_455
O66 Si0 1.680835 1_555
O67 S0 1.496314 1_555
O68 S1 1.496022 1_555
O69 Si1 1.700264 1_555
O69 Ta2 2.001730 1_555
O70 Si2 1.702312 1_455
O70 Ta2 2.000053 1_555
O71 S2 1.532881 1_555
O71 Ta2 2.172204 1_555
