# generated using pymatgen
data_Na6Ta4Nb4Si11SO48
_symmetry_space_group_name_H-M   'P 1'
_cell_length_a   17.89769231
_cell_length_b   8.94592154
_cell_length_c   22.87857279
_cell_angle_alpha   90.08316852
_cell_angle_beta   89.98157466
_cell_angle_gamma   120.10375956
_symmetry_Int_Tables_number   1
_chemical_formula_structural   Na6Ta4Nb4Si11SO48
_chemical_formula_sum   'Na18 Ta12 Nb12 Si33 S3 O144'
_cell_volume   3169.02854265
_cell_formula_units_Z   3
loop_
 _symmetry_equiv_pos_site_id
 _symmetry_equiv_pos_as_xyz
  1  'x, y, z'
loop_
 _atom_site_type_symbol
 _atom_site_label
 _atom_site_symmetry_multiplicity
 _atom_site_fract_x
 _atom_site_fract_y
 _atom_site_fract_z
 _atom_site_occupancy
  Na  Na0  1  0.68250877  0.99948898  0.75029941  1
  Na  Na1  1  0.01612543  0.69645097  0.58269032  1
  Na  Na2  1  0.51652430  0.69998144  0.58323720  1
  Na  Na3  1  0.83240655  0.69548514  0.08236875  1
  Na  Na4  1  0.34955536  0.03205619  0.91711390  1
  Na  Na5  1  0.48416393  0.30389203  0.41718411  1
  Na  Na6  1  0.00101611  0.00628492  0.49886100  1
  Na  Na7  1  0.50099721  0.00012199  0.50137885  1
  Na  Na8  1  0.00392873  0.00678890  0.99896907  1
  Na  Na9  1  0.50335327  0.99961067  0.99956666  1
  Na  Na10  1  0.33474408  0.33935625  0.83377001  1
  Na  Na11  1  0.83618887  0.33944410  0.83490196  1
  Na  Na12  1  0.33209391  0.33587903  0.33258097  1
  Na  Na13  1  0.83529965  0.33641684  0.33403812  1
  Na  Na14  1  0.16742332  0.66544643  0.16535275  1
  Na  Na15  1  0.66395892  0.66346604  0.16606531  1
  Na  Na16  1  0.16984966  0.66963562  0.66740973  1
  Na  Na17  1  0.66862537  0.66057084  0.66728016  1
  Ta  Ta0  1  0.99309060  0.99058060  0.85764715  1
  Ta  Ta1  1  0.50176937  0.99859287  0.85434918  1
  Ta  Ta2  1  0.49959676  0.00435806  0.64676250  1
  Ta  Ta3  1  0.49428848  0.00305905  0.14255978  1
  Ta  Ta4  1  0.83552885  0.33827001  0.68821274  1
  Ta  Ta5  1  0.33324017  0.33835950  0.97958212  1
  Ta  Ta6  1  0.83259462  0.33150851  0.97755486  1
  Ta  Ta7  1  0.83459773  0.33208497  0.47836149  1
  Ta  Ta8  1  0.16669714  0.66459503  0.02111852  1
  Ta  Ta9  1  0.66374100  0.66547197  0.02029618  1
  Ta  Ta10  1  0.16788983  0.66527197  0.52051668  1
  Ta  Ta11  1  0.66589777  0.66222018  0.81328730  1
  Nb  Nb0  1  0.99301952  0.99500608  0.35728804  1
  Nb  Nb1  1  0.49313109  0.99175924  0.35549992  1
  Nb  Nb2  1  0.99475332  0.99121410  0.64417599  1
  Nb  Nb3  1  0.99808414  0.00926644  0.14338315  1
  Nb  Nb4  1  0.33750293  0.33242304  0.68595595  1
  Nb  Nb5  1  0.33828104  0.34164111  0.18505898  1
  Nb  Nb6  1  0.83872180  0.34305338  0.18529822  1
  Nb  Nb7  1  0.33030955  0.33442820  0.47932955  1
  Nb  Nb8  1  0.66925189  0.67009928  0.52096561  1
  Nb  Nb9  1  0.16640592  0.65720170  0.31414118  1
  Nb  Nb10  1  0.66796256  0.65745857  0.31374381  1
  Nb  Nb11  1  0.16693784  0.67531983  0.81506956  1
  Si  Si0  1  0.35413594  0.70900305  0.24872747  1
  Si  Si1  1  0.85557687  0.71095130  0.24938839  1
  Si  Si2  1  0.99919444  0.28941258  0.25088571  1
  Si  Si3  1  0.49926558  0.28832991  0.24978341  1
  Si  Si4  1  0.64431649  0.29177818  0.75010261  1
  Si  Si5  1  0.00113759  0.71264665  0.75041835  1
  Si  Si6  1  0.49794784  0.70868303  0.74988187  1
  Si  Si7  1  0.35514132  0.99777336  0.75089260  1
  Si  Si8  1  0.85588083  0.00047228  0.75088474  1
  Si  Si9  1  0.47810593  0.32924739  0.58144923  1
  Si  Si10  1  0.97717835  0.33107070  0.58322160  1
  Si  Si11  1  0.18946771  0.04504658  0.58386333  1
  Si  Si12  1  0.69037073  0.04961464  0.58368780  1
  Si  Si13  1  0.33147023  0.62157590  0.58451597  1
  Si  Si14  1  0.82972784  0.61425291  0.58293018  1
  Si  Si15  1  0.47930808  0.62585857  0.08246203  1
  Si  Si16  1  0.98042913  0.62357025  0.08141111  1
  Si  Si17  1  0.33032876  0.04513973  0.08242100  1
  Si  Si18  1  0.83046508  0.04729421  0.08281160  1
  Si  Si19  1  0.19044673  0.33512915  0.08346109  1
  Si  Si20  1  0.68816035  0.32959569  0.08294878  1
  Si  Si21  1  0.31017761  0.66314303  0.91639693  1
  Si  Si22  1  0.80792103  0.66169711  0.91778714  1
  Si  Si23  1  0.02275333  0.37902195  0.91670878  1
  Si  Si24  1  0.52244245  0.37837821  0.91665730  1
  Si  Si25  1  0.16481947  0.95669974  0.91857236  1
  Si  Si26  1  0.66674644  0.95459017  0.91614417  1
  Si  Si27  1  0.30728128  0.95322076  0.41650481  1
  Si  Si28  1  0.80831308  0.95564469  0.41610752  1
  Si  Si29  1  0.16580533  0.37537154  0.41740003  1
  Si  Si30  1  0.66865838  0.37565068  0.41785219  1
  Si  Si31  1  0.02298473  0.66654216  0.41691505  1
  Si  Si32  1  0.52359183  0.67005640  0.41658313  1
  S  S0  1  0.14382552  -0.00000621  0.25011874  1
  S  S1  1  0.64348320  -0.00005656  0.24972904  1
  S  S2  1  0.14357713  0.28695252  0.75030308  1
  O  O0  1  0.10432915  0.02732244  0.30294848  1
  O  O1  1  0.60352742  0.02681700  0.30296487  1
  O  O2  1  0.41667096  0.80402377  0.30643886  1
  O  O3  1  0.91726524  0.80442781  0.30635639  1
  O  O4  1  0.48735681  0.17002635  0.30822610  1
  O  O5  1  0.98735185  0.16561131  0.30683850  1
  O  O6  1  0.10359727  0.18007423  0.80296910  1
  O  O7  1  0.59890667  0.16354976  0.80615247  1
  O  O8  1  0.48496647  0.80463535  0.80656349  1
  O  O9  1  0.98779860  0.81116062  0.80619448  1
  O  O10  1  0.41500784  0.03029146  0.80887411  1
  O  O11  1  0.91829362  0.03111542  0.80670976  1
  O  O12  1  0.40257458  0.97144841  0.69341040  1
  O  O13  1  0.90425467  0.97349860  0.69368749  1
  O  O14  1  0.09031177  0.20668038  0.69703268  1
  O  O15  1  0.58356264  0.19618999  0.69285455  1
  O  O16  1  0.01522204  0.83120325  0.69151845  1
  O  O17  1  0.51662812  0.83147860  0.69182191  1
  O  O18  1  0.40457499  0.83429847  0.19339529  1
  O  O19  1  0.90218532  0.83031400  0.19158455  1
  O  O20  1  0.01483843  0.19594127  0.19351120  1
  O  O21  1  0.51512260  0.19421062  0.19375118  1
  O  O22  1  0.09027984  0.97276393  0.19710098  1
  O  O23  1  0.58993795  0.97262050  0.19703944  1
  O  O24  1  0.43320622  0.36750960  0.63872192  1
  O  O25  1  0.93230893  0.36830047  0.63974471  1
  O  O26  1  0.25015946  0.13701310  0.64083153  1
  O  O27  1  0.74904388  0.13511903  0.64230393  1
  O  O28  1  0.31812578  0.49805899  0.64087667  1
  O  O29  1  0.81864674  0.50006233  0.64092523  1
  O  O30  1  0.43348176  0.50183714  0.14012744  1
  O  O31  1  0.93347971  0.50212976  0.14006130  1
  O  O32  1  0.31863316  0.13854213  0.14044574  1
  O  O33  1  0.81788864  0.13732109  0.14120352  1
  O  O34  1  0.25064619  0.36275041  0.14101629  1
  O  O35  1  0.75187905  0.36721535  0.14007165  1
  O  O36  1  0.23528677  0.30197831  0.02637245  1
  O  O37  1  0.73540090  0.30273374  0.02631216  1
  O  O38  1  0.41677356  0.53159336  0.02646504  1
  O  O39  1  0.91422349  0.53337070  0.02708500  1
  O  O40  1  0.34866605  0.16450740  0.02437557  1
  O  O41  1  0.84904780  0.16895351  0.02624404  1
  O  O42  1  0.23504551  0.16711027  0.52648714  1
  O  O43  1  0.73633263  0.16991368  0.52662366  1
  O  O44  1  0.35072157  0.53212112  0.52750181  1
  O  O45  1  0.85195227  0.53250450  0.52670129  1
  O  O46  1  0.41869974  0.30266405  0.52402988  1
  O  O47  1  0.91682312  0.30148682  0.52622509  1
  O  O48  1  0.26594827  0.70228450  0.97259250  1
  O  O49  1  0.76686590  0.69752623  0.97612661  1
  O  O50  1  0.08418817  0.47037526  0.97354121  1
  O  O51  1  0.58375487  0.47013879  0.97362601  1
  O  O52  1  0.15069105  0.83230279  0.97398120  1
  O  O53  1  0.65201508  0.83178619  0.97321714  1
  O  O54  1  0.26461387  0.83217361  0.47373927  1
  O  O55  1  0.76480934  0.83240512  0.47344312  1
  O  O56  1  0.15095700  0.46913830  0.47378307  1
  O  O57  1  0.64788758  0.46687468  0.47284559  1
  O  O58  1  0.08205518  0.69695267  0.47550603  1
  O  O59  1  0.58124493  0.69785395  0.47547111  1
  O  O60  1  0.06982485  0.63741772  0.35975864  1
  O  O61  1  0.56885777  0.63338147  0.36028208  1
  O  O62  1  0.24958393  0.86311925  0.35871890  1
  O  O63  1  0.74902757  0.86239707  0.35880131  1
  O  O64  1  0.18243967  0.49880986  0.35978784  1
  O  O65  1  0.68227176  0.49820896  0.35998226  1
  O  O66  1  0.06907766  0.50130388  0.85908814  1
  O  O67  1  0.56862964  0.50086962  0.85970968  1
  O  O68  1  0.18434655  0.86837384  0.86077513  1
  O  O69  1  0.68136189  0.86652378  0.85744661  1
  O  O70  1  0.24946399  0.63605214  0.85902236  1
  O  O71  1  0.74946592  0.63798428  0.85991849  1
  O  O72  1  0.01404422  0.83865171  0.40762072  1
  O  O73  1  0.51402916  0.84062797  0.40789550  1
  O  O74  1  0.40574891  0.97886567  0.40957932  1
  O  O75  1  0.90429660  0.97374006  0.40986799  1
  O  O76  1  0.08201927  0.18544162  0.40759464  1
  O  O77  1  0.58048786  0.18973545  0.40759930  1
  O  O78  1  0.01390547  0.18906284  0.90679116  1
  O  O79  1  0.50949270  0.18472042  0.90890316  1
  O  O80  1  0.08173291  0.97951911  0.90711463  1
  O  O81  1  0.58099623  0.97425419  0.90867762  1
  O  O82  1  0.40435529  0.83982387  0.90863965  1
  O  O83  1  0.90450277  0.83532532  0.90933505  1
  O  O84  1  0.48752129  0.16007785  0.59034935  1
  O  O85  1  0.98973417  0.16433501  0.59272823  1
  O  O86  1  0.09276614  0.02041996  0.59164522  1
  O  O87  1  0.59204782  0.01802091  0.59088787  1
  O  O88  1  0.42023247  0.80852283  0.59140994  1
  O  O89  1  0.91859748  0.80661084  0.59059215  1
  O  O90  1  0.48926462  0.81460378  0.09347564  1
  O  O91  1  0.98580407  0.81020740  0.09264290  1
  O  O92  1  0.41718282  0.02599122  0.09100204  1
  O  O93  1  0.91610534  0.02106226  0.09060512  1
  O  O94  1  0.09497125  0.16142585  0.09250000  1
  O  O95  1  0.59352536  0.15983507  0.09285286  1
  O  O96  1  0.34387145  0.16855151  0.74200790  1
  O  O97  1  0.84341610  0.16817267  0.74230453  1
  O  O98  1  0.23063171  0.30524313  0.74417962  1
  O  O99  1  0.73789562  0.30210972  0.74222631  1
  O  O100  1  0.41212885  0.51809455  0.74295475  1
  O  O101  1  0.91483243  0.52278891  0.74224596  1
  O  O102  1  0.34373584  0.51749495  0.24313767  1
  O  O103  1  0.84335306  0.51756978  0.24293299  1
  O  O104  1  0.41281170  0.30506147  0.24316446  1
  O  O105  1  0.91266749  0.30502618  0.24300691  1
  O  O106  1  0.23108657  0.15569446  0.24410998  1
  O  O107  1  0.73057882  0.15578825  0.24420424  1
  O  O108  1  0.32093982  0.49443483  0.92401603  1
  O  O109  1  0.82106713  0.49591607  0.92423333  1
  O  O110  1  0.42553194  0.35163850  0.92425687  1
  O  O111  1  0.92758089  0.35847754  0.92491207  1
  O  O112  1  0.25392592  0.14293110  0.92439973  1
  O  O113  1  0.75180055  0.14524833  0.92436510  1
  O  O114  1  0.32502667  0.14967497  0.42334431  1
  O  O115  1  0.82092131  0.14647866  0.42402815  1
  O  O116  1  0.25237284  0.35966534  0.42417858  1
  O  O117  1  0.75353565  0.35887471  0.42438952  1
  O  O118  1  0.42925818  0.49462992  0.42360736  1
  O  O119  1  0.92760654  0.49666360  0.42475070  1
  O  O120  1  0.17930743  0.50309863  0.07525279  1
  O  O121  1  0.68215192  0.50593893  0.07584678  1
  O  O122  1  0.07432774  0.64198951  0.07604268  1
  O  O123  1  0.57352823  0.64207826  0.07586208  1
  O  O124  1  0.24772902  0.85288268  0.07542183  1
  O  O125  1  0.74992897  0.85016674  0.07641727  1
  O  O126  1  0.17539523  0.85101905  0.57590829  1
  O  O127  1  0.67629185  0.85332620  0.57608228  1
  O  O128  1  0.24707943  0.64193090  0.57588027  1
  O  O129  1  0.74741050  0.64168906  0.57624520  1
  O  O130  1  0.07116075  0.50736351  0.57574746  1
  O  O131  1  0.57115307  0.50736365  0.57636011  1
  O  O132  1  0.15286000  0.84389084  0.25566361  1
  O  O133  1  0.65242631  0.84384053  0.25599395  1
  O  O134  1  0.26030360  0.69515923  0.25722773  1
  O  O135  1  0.76056371  0.69498560  0.25711938  1
  O  O136  1  0.08458923  0.48189056  0.25700635  1
  O  O137  1  0.58449786  0.48173962  0.25739607  1
  O  O138  1  0.15283110  0.46097232  0.75555613  1
  O  O139  1  0.65444662  0.48129496  0.75713831  1
  O  O140  1  0.08555935  0.68890229  0.75724434  1
  O  O141  1  0.58607576  0.69698751  0.75738459  1
  O  O142  1  0.25962605  0.82501928  0.75720755  1
  O  O143  1  0.75918382  0.83286605  0.75704282  1
loop_
_geom_bond_atom_site_label_1
_geom_bond_atom_site_label_2
_geom_bond_distance
_geom_bond_site_symmetry_2
Na0 O141 2.375752 1_555
Na0 O99 2.378044 1_565
Na0 O143 2.486297 1_555
Na0 O97 2.499061 1_565
Na0 O69 2.721856 1_555
Na0 O27 2.748167 1_565
Na0 O7 2.867417 1_565
Na0 O17 2.895460 1_555
Na1 O130 2.351040 1_555
Na1 O89 2.403242 1_455
Na1 O126 2.471466 1_555
Na1 O86 2.516672 1_565
Na1 O58 2.720047 1_555
Na1 O16 2.768308 1_555
Na1 O45 2.845978 1_455
Na1 O25 2.857327 1_455
Na2 O88 2.371890 1_555
Na2 O131 2.374678 1_555
Na2 O87 2.468501 1_565
Na2 O127 2.480047 1_555
Na2 O59 2.727845 1_555
Na2 O17 2.746766 1_555
Na2 O44 2.865956 1_555
Na2 O24 2.870881 1_555
Na3 O121 2.356826 1_555
Na3 O91 2.412327 1_555
Na3 O125 2.482367 1_555
Na3 O93 2.526763 1_565
Na3 O49 2.703317 1_554
Na3 O19 2.782126 1_555
Na3 O39 2.823314 1_555
Na3 O35 2.865025 1_555
Na4 O112 2.375564 1_555
Na4 O82 2.376501 1_545
Na4 O110 2.479595 1_555
Na4 O79 2.484591 1_555
Na4 O40 2.727045 1_556
Na4 O10 2.742541 1_555
Na4 O48 2.852137 1_545
Na4 O68 2.863956 1_545
Na5 O118 2.362210 1_555
Na5 O77 2.414190 1_555
Na5 O114 2.468596 1_555
Na5 O74 2.521819 1_545
Na5 O46 2.708081 1_555
Na5 O4 2.776933 1_555
Na5 O57 2.836413 1_555
Na5 O61 2.865067 1_555
Na6 O76 2.589862 1_555
Na6 O75 2.592630 1_445
Na6 O85 2.632329 1_455
Na6 O72 2.646144 1_545
Na6 O86 2.647989 1_555
Na6 O89 2.671485 1_445
Na7 O84 2.566431 1_555
Na7 O87 2.571829 1_555
Na7 O88 2.606342 1_545
Na7 O73 2.643709 1_545
Na7 O74 2.651269 1_545
Na7 O77 2.663176 1_555
Na8 O80 2.598521 1_545
Na8 O78 2.618375 1_555
Na8 O94 2.623023 1_556
Na8 O83 2.641951 1_445
Na8 O93 2.660964 1_456
Na8 O91 2.688703 1_446
Na9 O81 2.572831 1_555
Na9 O79 2.623766 1_565
Na9 O95 2.624303 1_566
Na9 O82 2.638812 1_555
Na9 O90 2.647678 1_556
Na9 O92 2.678046 1_566
Na10 O100 2.564794 1_555
Na10 O108 2.565906 1_555
Na10 O110 2.600101 1_555
Na10 O112 2.634061 1_555
Na10 O96 2.647597 1_555
Na10 O98 2.682678 1_555
Na11 O109 2.565352 1_555
Na11 O111 2.582057 1_555
Na11 O101 2.618664 1_555
Na11 O113 2.620080 1_555
Na11 O97 2.653592 1_555
Na11 O99 2.667014 1_555
Na12 O102 2.557422 1_555
Na12 O104 2.596926 1_555
Na12 O116 2.602708 1_555
Na12 O118 2.625718 1_555
Na12 O114 2.627031 1_555
Na12 O106 2.651995 1_555
Na13 O119 2.590255 1_555
Na13 O105 2.592350 1_555
Na13 O117 2.597419 1_555
Na13 O115 2.600659 1_555
Na13 O103 2.601324 1_555
Na13 O107 2.702376 1_555
Na14 O122 2.577882 1_555
Na14 O124 2.588671 1_555
Na14 O120 2.589338 1_555
Na14 O134 2.609537 1_555
Na14 O136 2.618638 1_555
Na14 O132 2.700529 1_555
Na15 O123 2.570108 1_555
Na15 O137 2.592344 1_555
Na15 O125 2.606480 1_555
Na15 O121 2.608400 1_555
Na15 O135 2.630624 1_555
Na15 O133 2.683954 1_555
Na16 O142 2.547170 1_555
Na16 O128 2.587931 1_555
Na16 O140 2.605304 1_555
Na16 O126 2.621718 1_555
Na16 O130 2.654511 1_555
Na16 O138 2.661653 1_555
Na17 O139 2.542425 1_555
Na17 O129 2.567236 1_555
Na17 O143 2.589799 1_555
Na17 O131 2.616165 1_555
Na17 O141 2.649062 1_555
Na17 O127 2.668070 1_555
Nb0 O75 1.923857 1_555
Nb0 O3 1.944014 1_555
Nb0 O5 1.957637 1_565
Nb0 O72 1.989230 1_655
Nb0 O76 2.009376 1_665
Nb0 O0 2.240460 1_665
Nb1 O2 1.908718 1_555
Nb1 O74 1.951470 1_555
Nb1 O4 1.973354 1_565
Nb1 O73 1.979156 1_555
Nb1 O77 2.054095 1_565
Nb1 O1 2.196562 1_565
Nb2 O13 1.916656 1_555
Nb2 O89 1.955802 1_555
Nb2 O16 1.971600 1_655
Nb2 O85 1.984186 1_565
Nb2 O86 2.032161 1_665
Nb2 O14 2.188707 1_665
Nb3 O20 1.919988 1_655
Nb3 O93 1.943901 1_555
Nb3 O94 1.962278 1_655
Nb3 O19 1.993106 1_545
Nb3 O91 2.041713 1_545
Nb3 O22 2.209714 1_645
Nb4 O24 1.913298 1_555
Nb4 O26 1.954474 1_555
Nb4 O28 1.974779 1_555
Nb4 O96 1.994940 1_555
Nb4 O100 2.003193 1_555
Nb4 O98 2.241631 1_555
Nb5 O30 1.888745 1_555
Nb5 O34 1.951858 1_555
Nb5 O32 1.954620 1_555
Nb5 O102 2.022363 1_555
Nb5 O104 2.023353 1_555
Nb5 O106 2.253116 1_555
Nb6 O31 1.885377 1_555
Nb6 O33 1.962274 1_555
Nb6 O35 1.967705 1_555
Nb6 O103 2.011775 1_555
Nb6 O105 2.016061 1_555
Nb6 O107 2.263002 1_555
Nb7 O42 1.937768 1_555
Nb7 O44 1.955082 1_555
Nb7 O116 1.976519 1_555
Nb7 O46 2.020423 1_555
Nb7 O114 2.053880 1_555
Nb7 O118 2.067190 1_555
Nb8 O55 1.930717 1_555
Nb8 O57 1.990121 1_555
Nb8 O129 1.994900 1_555
Nb8 O59 2.005029 1_555
Nb8 O127 2.019816 1_555
Nb8 O131 2.061087 1_555
Nb9 O64 1.895558 1_555
Nb9 O60 1.949621 1_555
Nb9 O62 1.973408 1_555
Nb9 O136 2.001027 1_555
Nb9 O134 2.015552 1_555
Nb9 O132 2.247405 1_555
Nb10 O65 1.893358 1_555
Nb10 O63 1.963688 1_555
Nb10 O61 1.985554 1_555
Nb10 O135 1.994876 1_555
Nb10 O137 2.001067 1_555
Nb10 O133 2.252727 1_555
Nb11 O68 1.904832 1_555
Nb11 O66 1.942571 1_555
Nb11 O70 1.959251 1_555
Nb11 O140 2.016327 1_555
Nb11 O142 2.018176 1_555
Nb11 O138 2.258669 1_555
O0 S0 1.480644 1_555
O1 S1 1.491195 1_555
O2 Si0 1.661898 1_555
O3 Si1 1.639692 1_555
O4 Si3 1.652556 1_555
O5 Si2 1.636669 1_555
O6 S2 1.481390 1_555
O6 Ta0 2.234189 1_445
O7 Si4 1.639876 1_555
O7 Ta1 1.961112 1_545
O8 Si6 1.633741 1_555
O8 Ta1 1.941032 1_555
O9 Si5 1.633908 1_655
O9 Ta0 1.952701 1_555
O10 Si7 1.636916 1_545
O10 Ta1 2.004434 1_545
O11 Si8 1.626928 1_555
O11 Ta0 1.941876 1_545
O12 Si7 1.644574 1_555
O12 Ta2 1.930776 1_565
O13 Si8 1.651708 1_565
O14 S2 1.490414 1_555
O15 Si4 1.641328 1_555
O15 Ta2 1.929810 1_555
O16 Si5 1.655303 1_555
O17 Si6 1.648790 1_555
O17 Ta2 2.006306 1_565
O18 Si0 1.631632 1_555
O18 Ta3 1.944807 1_565
O19 Si1 1.641601 1_555
O20 Si2 1.652901 1_455
O21 Si3 1.633764 1_555
O21 Ta3 1.946725 1_555
O22 S0 1.488210 1_565
O23 S1 1.481959 1_565
O23 Ta3 2.242386 1_565
O24 Si9 1.659463 1_555
O25 Si10 1.641492 1_555
O25 Ta4 1.958297 1_555
O26 Si11 1.629982 1_555
O27 Si12 1.636588 1_555
O27 Ta4 1.993885 1_555
O28 Si13 1.637040 1_555
O29 Si14 1.626015 1_555
O29 Ta4 1.949386 1_555
O30 Si15 1.653765 1_555
O31 Si16 1.665718 1_555
O32 Si17 1.635961 1_555
O33 Si18 1.631722 1_555
O34 Si19 1.639735 1_555
O35 Si20 1.654223 1_555
O36 Si19 1.635505 1_555
O36 Ta5 1.937220 1_554
O37 Si20 1.629056 1_555
O37 Ta6 1.971548 1_554
O38 Si15 1.629752 1_555
O38 Ta5 1.943464 1_554
O39 Si16 1.624463 1_555
O39 Ta6 2.007029 1_554
O40 Si17 1.632137 1_555
O40 Ta5 1.995210 1_554
O41 Si18 1.615781 1_555
O41 Ta6 1.968951 1_554
O42 Si11 1.640394 1_555
O43 Si12 1.629309 1_555
O43 Ta7 1.964923 1_555
O44 Si13 1.653442 1_555
O45 Si14 1.623793 1_555
O45 Ta7 1.992495 1_555
O46 Si9 1.630676 1_555
O47 Si10 1.628021 1_555
O47 Ta7 1.961072 1_555
O48 Si21 1.636550 1_555
O48 Ta8 1.975025 1_556
O49 Si22 1.630499 1_555
O49 Ta9 1.994676 1_556
O50 Si23 1.632157 1_555
O50 Ta8 1.950921 1_556
O51 Si24 1.634312 1_555
O51 Ta9 1.931101 1_556
O52 Si25 1.622027 1_555
O52 Ta8 1.982934 1_556
O53 Si26 1.641580 1_555
O53 Ta9 1.932839 1_556
O54 Si27 1.626151 1_555
O54 Ta10 1.944757 1_555
O55 Si28 1.638557 1_555
O56 Si29 1.630497 1_555
O56 Ta10 1.942933 1_555
O57 Si30 1.639582 1_555
O58 Si31 1.643152 1_555
O58 Ta10 1.984800 1_555
O59 Si32 1.638363 1_555
O60 Si31 1.642578 1_555
O61 Si32 1.639484 1_555
O62 Si27 1.620717 1_555
O63 Si28 1.628035 1_555
O64 Si29 1.649114 1_555
O65 Si30 1.658436 1_555
O66 Si23 1.647908 1_555
O67 Si24 1.635967 1_555
O67 Ta11 1.929947 1_555
O68 Si25 1.663942 1_555
O69 Si26 1.641940 1_555
O69 Ta11 1.981192 1_555
O70 Si21 1.642672 1_555
O71 Si22 1.633968 1_555
O71 Ta11 1.936294 1_555
O72 Si31 1.639984 1_555
O73 Si32 1.630985 1_555
O74 Si27 1.666715 1_555
O75 Si28 1.648834 1_555
O76 Si29 1.621476 1_555
O77 Si30 1.636378 1_555
O78 Si23 1.641139 1_555
O78 Ta0 1.971455 1_445
O79 Si24 1.637959 1_555
O79 Ta1 2.027954 1_545
O80 Si25 1.620696 1_555
O80 Ta0 1.991623 1_455
O81 Si26 1.639087 1_555
O81 Ta1 1.978544 1_555
O82 Si21 1.642847 1_555
O82 Ta1 2.029658 1_555
O83 Si22 1.656903 1_555
O83 Ta0 1.906793 1_555
O84 Si9 1.617687 1_555
O84 Ta2 1.990104 1_555
O85 Si10 1.630922 1_555
O86 Si11 1.641068 1_555
O87 Si12 1.644619 1_555
O87 Ta2 2.045284 1_555
O88 Si13 1.637016 1_555
O88 Ta2 2.046714 1_565
O89 Si14 1.665979 1_555
O90 Si15 1.625804 1_555
O90 Ta3 1.988452 1_565
O91 Si16 1.643362 1_555
O92 Si17 1.658834 1_555
O92 Ta3 1.903588 1_555
O93 Si18 1.672525 1_555
O94 Si19 1.647567 1_555
O95 Si20 1.626936 1_555
O95 Ta3 1.979744 1_555
O96 Si7 1.651100 1_545
O97 Si8 1.635734 1_555
O97 Ta4 2.021880 1_555
O98 S2 1.489358 1_555
O99 Si4 1.640338 1_555
O99 Ta4 2.029262 1_555
O100 Si6 1.632069 1_555
O101 Si5 1.634988 1_655
O101 Ta4 1.978001 1_555
O102 Si0 1.632666 1_555
O103 Si1 1.637713 1_555
O104 Si3 1.634654 1_555
O105 Si2 1.633250 1_555
O106 S0 1.488754 1_555
O107 S1 1.486576 1_555
O108 Si21 1.624109 1_555
O108 Ta5 1.981856 1_555
O109 Si22 1.620889 1_555
O109 Ta6 2.000931 1_555
O110 Si24 1.636940 1_555
O110 Ta5 2.036417 1_555
O111 Si23 1.629820 1_655
O111 Ta6 1.996740 1_555
O112 Si25 1.634308 1_545
O112 Ta5 2.042228 1_555
O113 Si26 1.629880 1_545
O113 Ta6 1.981547 1_555
O114 Si27 1.628909 1_545
O115 Si28 1.615835 1_545
O115 Ta7 1.987115 1_555
O116 Si29 1.631840 1_555
O117 Si30 1.606701 1_555
O117 Ta7 2.009444 1_555
O118 Si32 1.637639 1_555
O119 Si31 1.629088 1_655
O119 Ta7 1.997123 1_555
O120 Si19 1.623055 1_555
O120 Ta8 2.001145 1_555
O121 Si20 1.642428 1_555
O121 Ta9 2.058618 1_555
O122 Si16 1.608939 1_455
O122 Ta8 2.004247 1_555
O123 Si15 1.625419 1_555
O123 Ta9 1.981754 1_555
O124 Si17 1.618027 1_565
O124 Ta8 2.007142 1_555
O125 Si18 1.630479 1_565
O125 Ta9 2.048528 1_555
O126 Si11 1.634005 1_565
O126 Ta10 2.038457 1_555
O127 Si12 1.653034 1_565
O128 Si13 1.621634 1_555
O128 Ta10 1.988855 1_555
O129 Si14 1.617780 1_555
O130 Si10 1.638698 1_455
O130 Ta10 2.034672 1_555
O131 Si9 1.632293 1_555
O132 S0 1.489782 1_565
O133 S1 1.490353 1_565
O134 Si0 1.632393 1_555
O135 Si1 1.643069 1_555
O136 Si2 1.637051 1_455
O137 Si3 1.643983 1_555
O138 S2 1.485336 1_555
O139 Si4 1.619891 1_555
O139 Ta11 1.993309 1_555
O140 Si5 1.635450 1_555
O141 Si6 1.641345 1_555
O141 Ta11 2.054643 1_555
O142 Si7 1.637662 1_555
O143 Si8 1.631129 1_565
O143 Ta11 2.054608 1_555
