# generated using pymatgen
data_MgTi4Cd2O10
_symmetry_space_group_name_H-M   'P 1'
_cell_length_a   5.69130854
_cell_length_b   5.69130854
_cell_length_c   12.07118896
_cell_angle_alpha   98.98003982
_cell_angle_beta   98.98003982
_cell_angle_gamma   36.97614766
_symmetry_Int_Tables_number   1
_chemical_formula_structural   MgTi4Cd2O10
_chemical_formula_sum   'Mg1 Ti4 Cd2 O10'
_cell_volume   231.97119572
_cell_formula_units_Z   1
loop_
 _symmetry_equiv_pos_site_id
 _symmetry_equiv_pos_as_xyz
  1  'x, y, z'
loop_
 _atom_site_type_symbol
 _atom_site_label
 _atom_site_symmetry_multiplicity
 _atom_site_fract_x
 _atom_site_fract_y
 _atom_site_fract_z
 _atom_site_occupancy
  Mg  Mg0  1  0.50000000  0.50000000  0.00000000  1
  Ti  Ti0  1  0.12801584  0.12801584  0.54371167  1
  Ti  Ti1  1  0.17246872  0.17246872  0.89974650  1
  Ti  Ti2  1  0.82753128  0.82753128  0.10025350  1
  Ti  Ti3  1  0.87198416  0.87198416  0.45628833  1
  Cd  Cd0  1  0.14700487  0.14700487  0.26636029  1
  Cd  Cd1  1  0.85299513  0.85299513  0.73363971  1
  O  O0  1  0.00355003  0.00355003  0.11047349  1
  O  O1  1  0.02763830  0.02763830  0.39829731  1
  O  O2  1  0.32338460  0.32338460  0.03241864  1
  O  O3  1  0.30379774  0.30379774  0.43652700  1
  O  O4  1  0.76352837  0.76352837  0.23025882  1
  O  O5  1  0.23647163  0.23647163  0.76974118  1
  O  O6  1  0.69620226  0.69620226  0.56347300  1
  O  O7  1  0.97236170  0.97236170  0.60170269  1
  O  O8  1  0.67661540  0.67661540  0.96758136  1
  O  O9  1  0.99644997  0.99644997  0.88952651  1
loop_
_geom_bond_atom_site_label_1
_geom_bond_atom_site_label_2
_geom_bond_distance
_geom_bond_site_symmetry_2
Mg0 O8 2.008439 1_554
Mg0 O2 2.008439 1_555
Mg0 O9 2.240565 1_544
Mg0 O9 2.240565 1_454
Mg0 O0 2.240565 1_565
Mg0 O0 2.240565 1_655
Cd0 O1 2.207367 1_555
Cd0 O0 2.231575 1_555
Cd0 O4 2.282494 1_545
Cd0 O4 2.282494 1_455
Cd0 O3 2.437178 1_555
Cd1 O7 2.207367 1_555
Cd1 O9 2.231575 1_555
Cd1 O5 2.282494 1_565
Cd1 O5 2.282494 1_655
Cd1 O6 2.437178 1_555
O0 Ti2 1.883780 1_445
O1 Ti0 1.905055 1_555
O1 Ti3 1.923710 1_445
O2 Ti2 1.979290 1_455
O2 Ti2 1.979290 1_545
O2 Ti1 2.088099 1_554
O3 Ti3 1.948862 1_455
O3 Ti3 1.948862 1_545
O3 Ti0 2.466389 1_555
O4 Ti2 1.815776 1_555
O4 Ti3 2.786335 1_555
O5 Ti1 1.815776 1_555
O5 Ti0 2.786335 1_555
O6 Ti0 1.948862 1_655
O6 Ti0 1.948862 1_565
O6 Ti3 2.466389 1_555
O7 Ti3 1.905055 1_555
O7 Ti0 1.923710 1_665
O8 Ti1 1.979290 1_565
O8 Ti1 1.979290 1_655
O8 Ti2 2.088099 1_556
O9 Ti1 1.883780 1_665
