# generated using pymatgen
data_MgNb2(GaO4)2
_symmetry_space_group_name_H-M   'P 1'
_cell_length_a   3.82390000
_cell_length_b   7.09639922
_cell_length_c   6.89475239
_cell_angle_alpha   109.98584635
_cell_angle_beta   90.00375172
_cell_angle_gamma   105.62517430
_symmetry_Int_Tables_number   1
_chemical_formula_structural   MgNb2(GaO4)2
_chemical_formula_sum   'Mg1 Nb2 Ga2 O8'
_cell_volume   168.45068090
_cell_formula_units_Z   1
loop_
 _symmetry_equiv_pos_site_id
 _symmetry_equiv_pos_as_xyz
  1  'x, y, z'
loop_
 _atom_site_type_symbol
 _atom_site_label
 _atom_site_symmetry_multiplicity
 _atom_site_fract_x
 _atom_site_fract_y
 _atom_site_fract_z
 _atom_site_occupancy
  Mg  Mg0  1  0.30411200  0.61265800  0.48909600  1
  Nb  Nb0  1  0.08951500  0.18303800  0.17596200  1
  Nb  Nb1  1  0.90999000  0.82423100  0.84285100  1
  Ga  Ga0  1  0.17808400  0.36069800  0.77504500  1
  Ga  Ga1  1  0.79921800  0.60275400  0.18048900  1
  O  O0  1  0.84896500  0.70233200  0.49132500  1
  O  O1  1  0.15913300  0.32252400  0.49773700  1
  O  O2  1  0.93511300  0.87439400  0.15208700  1
  O  O3  1  0.05998500  0.12438800  0.85303600  1
  O  O4  1  0.25807700  0.52037600  0.17526100  1
  O  O5  1  0.74061600  0.48561200  0.86499700  1
  O  O6  1  0.37375700  0.75178300  0.80250100  1
  O  O7  1  0.62055600  0.24521200  0.16961200  1
loop_
_geom_bond_atom_site_label_1
_geom_bond_atom_site_label_2
_geom_bond_distance
_geom_bond_site_symmetry_2
Mg0 O1 2.004738 1_555
Mg0 O0 2.006054 1_455
Mg0 O0 2.006269 1_555
Mg0 O4 2.027597 1_555
Mg0 O6 2.028520 1_555
Nb0 O7 1.962319 1_555
Nb0 O7 1.962586 1_455
Nb0 O2 2.056660 1_445
Nb0 O1 2.080742 1_555
Nb0 O3 2.117653 1_554
Nb0 O4 2.307137 1_555
Nb1 O6 1.969795 1_655
Nb1 O6 1.969909 1_555
Nb1 O3 2.027457 1_665
Nb1 O2 2.035818 1_556
Nb1 O0 2.266056 1_555
Nb1 O5 2.372664 1_555
Ga0 O1 1.835651 1_555
Ga0 O3 1.874499 1_555
Ga0 O5 2.095691 1_455
Ga0 O5 2.096273 1_555
Ga1 O2 1.934612 1_555
Ga1 O4 1.989691 1_555
Ga1 O4 1.989956 1_655
Ga1 O0 2.005211 1_555
Ga1 O5 2.033822 1_554
Ga1 O7 2.417894 1_555
