# generated using pymatgen
data_UIr
_symmetry_space_group_name_H-M   'P 1'
_cell_length_a   10.56015400
_cell_length_b   5.59436600
_cell_length_c   5.64073474
_cell_angle_alpha   80.61943196
_cell_angle_beta   90.00000000
_cell_angle_gamma   90.00000000
_symmetry_Int_Tables_number   1
_chemical_formula_structural   UIr
_chemical_formula_sum   'U8 Ir8'
_cell_volume   328.78350405
_cell_formula_units_Z   8
loop_
 _symmetry_equiv_pos_site_id
 _symmetry_equiv_pos_as_xyz
  1  'x, y, z'
loop_
 _atom_site_type_symbol
 _atom_site_label
 _atom_site_symmetry_multiplicity
 _atom_site_fract_x
 _atom_site_fract_y
 _atom_site_fract_z
 _atom_site_occupancy
  U  U0  1  0.86124900  0.34824900  0.86262600  1
  U  U1  1  0.36124900  0.15175100  0.13737400  1
  U  U2  1  0.86699800  0.91247000  0.39421100  1
  U  U3  1  0.36699800  0.58753000  0.60578900  1
  U  U4  1  0.13875100  0.65175100  0.13737400  1
  U  U5  1  0.63875100  0.84824900  0.86262600  1
  U  U6  1  0.13300200  0.08753000  0.60578900  1
  U  U7  1  0.63300200  0.41247000  0.39421100  1
  Ir  Ir0  1  0.60018200  0.33877600  0.90885800  1
  Ir  Ir1  1  0.10018200  0.16122400  0.09114200  1
  Ir  Ir2  1  0.60363900  0.91214200  0.35675100  1
  Ir  Ir3  1  0.10363900  0.58785800  0.64324900  1
  Ir  Ir4  1  0.39981800  0.66122400  0.09114200  1
  Ir  Ir5  1  0.89981800  0.83877600  0.90885800  1
  Ir  Ir6  1  0.39636100  0.08785800  0.64324900  1
  Ir  Ir7  1  0.89636100  0.41214200  0.35675100  1
loop_
_geom_bond_atom_site_label_1
_geom_bond_atom_site_label_2
_geom_bond_distance
_geom_bond_site_symmetry_2
Ir0 U0 2.768908 1_555
Ir0 U5 2.828029 1_545
Ir0 U5 2.848705 1_555
Ir0 U7 2.855396 1_556
Ir0 U7 2.885703 1_555
Ir0 U1 2.946689 1_556
Ir0 Ir4 3.064769 1_556
Ir0 Ir6 3.087631 1_555
Ir0 Ir2 3.180432 1_546
Ir0 U3 3.185482 1_555
Ir1 U1 2.768908 1_555
Ir1 U4 2.828029 1_555
Ir1 U4 2.848705 1_545
Ir1 U6 2.855396 1_554
Ir1 U6 2.885703 1_555
Ir1 U0 2.946689 1_454
Ir1 Ir5 3.064769 1_444
Ir1 Ir7 3.087631 1_455
Ir1 Ir3 3.180432 1_554
Ir1 U2 3.185482 1_445
Ir2 U7 2.786076 1_555
Ir2 U2 2.789150 1_555
Ir2 U5 2.841700 1_555
Ir2 U7 2.857988 1_565
Ir2 U5 2.891134 1_554
Ir2 Ir6 2.981118 1_565
Ir2 U1 3.056031 1_565
Ir2 Ir4 3.087631 1_555
Ir2 U3 3.268704 1_555
Ir3 U6 2.786076 1_565
Ir3 U3 2.789150 1_555
Ir3 U4 2.841700 1_555
Ir3 U6 2.857988 1_555
Ir3 U4 2.891134 1_556
Ir3 Ir7 2.981118 1_455
Ir3 U0 3.056031 1_455
Ir3 Ir5 3.087631 1_455
Ir3 U2 3.268704 1_455
Ir4 U4 2.768908 1_555
Ir4 U1 2.828029 1_565
Ir4 U1 2.848705 1_555
Ir4 U3 2.855396 1_554
Ir4 U3 2.885703 1_555
Ir4 U5 2.946689 1_554
Ir4 Ir6 3.180432 1_564
Ir4 U7 3.185482 1_555
Ir5 U5 2.768908 1_555
Ir5 U0 2.828029 1_555
Ir5 U0 2.848705 1_565
Ir5 U2 2.855396 1_556
Ir5 U2 2.885703 1_555
Ir5 U4 2.946689 1_656
Ir5 Ir7 3.180432 1_556
Ir5 U6 3.185482 1_665
Ir6 U3 2.786076 1_555
Ir6 U6 2.789150 1_555
Ir6 U1 2.841700 1_555
Ir6 U3 2.857988 1_545
Ir6 U1 2.891134 1_556
Ir6 U5 3.056031 1_545
Ir6 U7 3.268704 1_555
Ir7 U2 2.786076 1_545
Ir7 U7 2.789150 1_555
Ir7 U0 2.841700 1_555
Ir7 U2 2.857988 1_555
Ir7 U0 2.891134 1_554
Ir7 U4 3.056031 1_655
Ir7 U6 3.268704 1_655
