# generated using pymatgen
data_Rb3NaMg(WO4)2
_symmetry_space_group_name_H-M   'P 1'
_cell_length_a   7.19381107
_cell_length_b   6.25282433
_cell_length_c   8.07769411
_cell_angle_alpha   90.00000249
_cell_angle_beta   98.59995789
_cell_angle_gamma   115.75966145
_symmetry_Int_Tables_number   1
_chemical_formula_structural   Rb3NaMg(WO4)2
_chemical_formula_sum   'Rb3 Na1 Mg1 W2 O8'
_cell_volume   322.69809288
_cell_formula_units_Z   1
loop_
 _symmetry_equiv_pos_site_id
 _symmetry_equiv_pos_as_xyz
  1  'x, y, z'
loop_
 _atom_site_type_symbol
 _atom_site_label
 _atom_site_symmetry_multiplicity
 _atom_site_fract_x
 _atom_site_fract_y
 _atom_site_fract_z
 _atom_site_occupancy
  Rb  Rb0  1  -0.00000000  -0.00000000  0.50000000  1
  Rb  Rb1  1  0.45940578  0.72970239  0.83856882  1
  Rb  Rb2  1  0.54059422  0.27029761  0.16143118  1
  Na  Na0  1  -0.00000000  -0.00000000  -0.00000000  1
  Mg  Mg0  1  -0.00000000  0.50000000  -0.00000000  1
  W  W0  1  0.35083045  0.67541523  0.28715599  1
  W  W1  1  0.64916955  0.32458477  0.71284401  1
  O  O0  1  0.18040274  0.80085742  0.14371276  1
  O  O1  1  0.18040274  0.37954432  0.14371276  1
  O  O2  1  0.61769296  0.80884548  0.23715399  1
  O  O3  1  0.81959726  0.19914258  0.85628724  1
  O  O4  1  0.81959726  0.62045568  0.85628724  1
  O  O5  1  0.38230704  0.19115452  0.76284601  1
  O  O6  1  0.31019611  0.65509806  0.50466950  1
  O  O7  1  0.68980389  0.34490194  0.49533050  1
loop_
_geom_bond_atom_site_label_1
_geom_bond_atom_site_label_2
_geom_bond_distance
_geom_bond_site_symmetry_2
Na0 O4 2.352961 1_444
Na0 O1 2.352961 1_555
Na0 O0 2.352965 1_545
Na0 O3 2.352965 1_454
Mg0 O3 1.999546 1_454
Mg0 O0 1.999546 1_555
Mg0 O1 1.999550 1_555
Mg0 O4 1.999550 1_454
O0 W0 1.967726 1_555
O0 Rb2 2.937481 1_565
O1 W0 1.967731 1_555
O1 Rb2 2.937472 1_555
O2 W0 1.839677 1_555
O2 Rb0 2.982752 1_665
O2 Rb2 3.208830 1_555
O2 Rb2 3.208848 1_565
O2 Rb1 3.212696 1_554
O3 W1 1.967726 1_555
O3 Rb1 2.937481 1_545
O4 W1 1.967731 1_555
O4 Rb1 2.937472 1_555
O5 W1 1.839677 1_555
O5 Rb0 2.982752 1_555
O5 Rb1 3.208830 1_555
O5 Rb1 3.208848 1_545
O5 Rb2 3.212696 1_556
O6 W0 1.819337 1_555
O6 Rb1 2.709846 1_555
O7 W1 1.819337 1_555
O7 Rb2 2.709846 1_555
