# generated using pymatgen
data_Pr2Au
_symmetry_space_group_name_H-M   'P 1'
_cell_length_a   5.13435636
_cell_length_b   7.37021731
_cell_length_c   9.37854642
_cell_angle_alpha   90.00000000
_cell_angle_beta   90.00000000
_cell_angle_gamma   90.00000000
_symmetry_Int_Tables_number   1
_chemical_formula_structural   Pr2Au
_chemical_formula_sum   'Pr8 Au4'
_cell_volume   354.89659610
_cell_formula_units_Z   4
loop_
 _symmetry_equiv_pos_site_id
 _symmetry_equiv_pos_as_xyz
  1  'x, y, z'
loop_
 _atom_site_type_symbol
 _atom_site_label
 _atom_site_symmetry_multiplicity
 _atom_site_fract_x
 _atom_site_fract_y
 _atom_site_fract_z
 _atom_site_occupancy
  Pr  Pr0  1  0.25000000  0.99682647  0.67264369  1
  Pr  Pr1  1  0.75000000  0.00317353  0.32735631  1
  Pr  Pr2  1  0.25000000  0.49682647  0.82735631  1
  Pr  Pr3  1  0.75000000  0.50317353  0.17264369  1
  Pr  Pr4  1  0.75000000  0.14841714  0.91030552  1
  Pr  Pr5  1  0.25000000  0.85158286  0.08969448  1
  Pr  Pr6  1  0.75000000  0.64841714  0.58969448  1
  Pr  Pr7  1  0.25000000  0.35158286  0.41030552  1
  Au  Au0  1  0.25000000  0.75834403  0.40661633  1
  Au  Au1  1  0.75000000  0.24165597  0.59338367  1
  Au  Au2  1  0.25000000  0.25834403  0.09338367  1
  Au  Au3  1  0.75000000  0.74165597  0.90661633  1
loop_
_geom_bond_atom_site_label_1
_geom_bond_atom_site_label_2
_geom_bond_distance
_geom_bond_site_symmetry_2
Au0 Pr7 2.998118 1_555
Au0 Pr5 3.050672 1_555
Au0 Pr0 3.051913 1_555
Au0 Pr6 3.192948 1_555
Au0 Pr6 3.192948 1_455
Au0 Pr1 3.224747 1_565
Au0 Pr1 3.224747 1_465
Au1 Pr6 2.998118 1_555
Au1 Pr4 3.050672 1_555
Au1 Pr1 3.051913 1_555
Au1 Pr7 3.192948 1_655
Au1 Pr7 3.192948 1_555
Au1 Pr0 3.224747 1_645
Au1 Pr0 3.224747 1_545
Au2 Pr5 2.998118 1_545
Au2 Pr7 3.050672 1_555
Au2 Pr2 3.051913 1_554
Au2 Pr4 3.192948 1_554
Au2 Pr4 3.192948 1_454
Au2 Pr3 3.224747 1_455
Au2 Pr3 3.224747 1_555
Au3 Pr4 2.998118 1_565
Au3 Pr6 3.050672 1_555
Au3 Pr3 3.051913 1_556
Au3 Pr5 3.192948 1_556
Au3 Pr5 3.192948 1_656
Au3 Pr2 3.224747 1_555
Au3 Pr2 3.224747 1_655
