# generated using pymatgen
data_Ce7O12
_symmetry_space_group_name_H-M   'P 1'
_cell_length_a   6.77007792
_cell_length_b   6.77007663
_cell_length_c   6.77007785
_cell_angle_alpha   99.58696262
_cell_angle_beta   99.58696985
_cell_angle_gamma   99.58697652
_symmetry_Int_Tables_number   1
_chemical_formula_structural   Ce7O12
_chemical_formula_sum   'Ce7 O12'
_cell_volume   295.60798679
_cell_formula_units_Z   1
loop_
 _symmetry_equiv_pos_site_id
 _symmetry_equiv_pos_as_xyz
  1  'x, y, z'
loop_
 _atom_site_type_symbol
 _atom_site_label
 _atom_site_symmetry_multiplicity
 _atom_site_fract_x
 _atom_site_fract_y
 _atom_site_fract_z
 _atom_site_occupancy
  Ce  Ce0  1  0.70047182  0.86171430  0.39895070  1
  Ce  Ce1  1  0.86171430  0.39895070  0.70047182  1
  Ce  Ce2  1  0.39895070  0.70047182  0.86171430  1
  Ce  Ce3  1  0.29952818  0.13828570  0.60104930  1
  Ce  Ce4  1  0.13828570  0.60104930  0.29952818  1
  Ce  Ce5  1  0.60104930  0.29952818  0.13828570  1
  Ce  Ce6  1  0.00000000  0.00000000  -0.00000000  1
  O  O0  1  0.93118332  0.06870015  0.68041473  1
  O  O1  1  0.06870015  0.68041473  0.93118332  1
  O  O2  1  0.68041473  0.93118332  0.06870015  1
  O  O3  1  0.06881668  0.93129985  0.31958527  1
  O  O4  1  0.93129985  0.31958527  0.06881668  1
  O  O5  1  0.31958527  0.06881668  0.93129985  1
  O  O6  1  0.82280801  0.56744017  0.41729941  1
  O  O7  1  0.58270059  0.17719199  0.43255983  1
  O  O8  1  0.43255983  0.58270059  0.17719199  1
  O  O9  1  0.17719199  0.43255983  0.58270059  1
  O  O10  1  0.41729941  0.82280801  0.56744017  1
  O  O11  1  0.56744017  0.41729941  0.82280801  1
loop_
_geom_bond_atom_site_label_1
_geom_bond_atom_site_label_2
_geom_bond_distance
_geom_bond_site_symmetry_2
Ce0 O6 2.295268 1_555
Ce0 O0 2.329058 1_565
Ce0 O2 2.347111 1_555
Ce0 O10 2.388744 1_555
Ce0 O7 2.390596 1_565
Ce0 O8 2.473671 1_555
Ce0 O3 2.620802 1_655
Ce1 O11 2.295269 1_555
Ce1 O1 2.329058 1_655
Ce1 O0 2.347111 1_555
Ce1 O6 2.388744 1_555
Ce1 O9 2.390597 1_655
Ce1 O7 2.473671 1_555
Ce1 O4 2.620802 1_556
Ce2 O10 2.295268 1_555
Ce2 O2 2.329058 1_556
Ce2 O1 2.347111 1_555
Ce2 O11 2.388744 1_555
Ce2 O8 2.390596 1_556
Ce2 O9 2.473671 1_555
Ce2 O5 2.620802 1_565
Ce3 O9 2.295268 1_555
Ce3 O3 2.329058 1_545
Ce3 O5 2.347111 1_555
Ce3 O7 2.388744 1_555
Ce3 O10 2.390596 1_545
Ce3 O11 2.473671 1_555
Ce3 O0 2.620802 1_455
Ce4 O8 2.295269 1_555
Ce4 O4 2.329058 1_455
Ce4 O3 2.347111 1_555
Ce4 O9 2.388744 1_555
Ce4 O6 2.390597 1_455
Ce4 O10 2.473671 1_555
Ce4 O1 2.620802 1_554
Ce5 O7 2.295268 1_555
Ce5 O5 2.329058 1_554
Ce5 O4 2.347111 1_555
Ce5 O8 2.388744 1_555
Ce5 O11 2.390596 1_554
Ce5 O6 2.473671 1_555
Ce5 O2 2.620802 1_545
Ce6 O4 2.277329 1_455
Ce6 O1 2.277329 1_544
Ce6 O3 2.277329 1_545
Ce6 O0 2.277329 1_454
Ce6 O5 2.277329 1_554
Ce6 O2 2.277329 1_445
