# generated using pymatgen
data_MgMn6(O2F)4
_symmetry_space_group_name_H-M   'P 1'
_cell_length_a   4.75249885
_cell_length_b   4.35217403
_cell_length_c   10.66772859
_cell_angle_alpha   88.02378173
_cell_angle_beta   98.26968645
_cell_angle_gamma   89.42420895
_symmetry_Int_Tables_number   1
_chemical_formula_structural   MgMn6(O2F)4
_chemical_formula_sum   'Mg1 Mn6 O8 F4'
_cell_volume   218.19882413
_cell_formula_units_Z   1
loop_
 _symmetry_equiv_pos_site_id
 _symmetry_equiv_pos_as_xyz
  1  'x, y, z'
loop_
 _atom_site_type_symbol
 _atom_site_label
 _atom_site_symmetry_multiplicity
 _atom_site_fract_x
 _atom_site_fract_y
 _atom_site_fract_z
 _atom_site_occupancy
  Mg  Mg0  1  0.79014543  0.71099422  0.48829399  1
  Mn  Mn0  1  0.00516137  0.02070355  0.00368916  1
  Mn  Mn1  1  0.06532718  0.95099461  0.29539097  1
  Mn  Mn2  1  0.95939552  0.09210884  0.70432174  1
  Mn  Mn3  1  0.43111471  0.54894711  0.85773804  1
  Mn  Mn4  1  0.57676852  0.48222669  0.14639549  1
  Mn  Mn5  1  0.33658623  0.29095723  0.51861218  1
  O  O0  1  0.22468073  0.80073694  0.46584180  1
  O  O1  1  0.14404156  0.85878231  0.85273732  1
  O  O2  1  0.31829308  0.30960121  0.01219884  1
  O  O3  1  0.25222990  0.37475162  0.70023845  1
  O  O4  1  0.69221659  0.70685361  0.00248935  1
  O  O5  1  0.77094066  0.67395770  0.29802791  1
  O  O6  1  0.86264367  0.18451367  0.15103837  1
  O  O7  1  0.79314932  0.23308817  0.53168765  1
  F  F0  1  0.26583161  0.76749025  0.15579907  1
  F  F1  1  0.36377175  0.26557089  0.30940837  1
  F  F2  1  0.69921163  0.75226757  0.66738763  1
  F  F3  1  0.74015755  0.25323284  0.84584667  1
loop_
_geom_bond_atom_site_label_1
_geom_bond_atom_site_label_2
_geom_bond_distance
_geom_bond_site_symmetry_2
Mg0 O5 2.030663 1_555
Mg0 O7 2.114639 1_555
Mg0 O0 2.150981 1_655
Mg0 O7 2.334283 1_565
Mg0 O0 2.686851 1_555
Mn0 O2 1.952014 1_555
Mn0 O6 1.952354 1_455
Mn0 O1 1.974848 1_544
Mn0 O4 2.028413 1_445
Mn1 O5 1.858715 1_455
Mn1 O6 1.943649 1_465
Mn1 O0 1.954327 1_555
Mn2 O3 1.870838 1_655
Mn2 O1 1.944091 1_645
Mn2 O7 1.971294 1_555
Mn3 O1 1.902541 1_555
Mn3 O3 1.952017 1_555
Mn3 O4 1.983853 1_556
Mn3 O2 2.057825 1_556
Mn4 O6 1.862250 1_555
Mn4 O2 1.926053 1_555
Mn4 O4 1.939852 1_555
Mn4 O5 1.960506 1_555
Mn5 O3 2.077745 1_555
Mn5 O7 2.165760 1_555
Mn5 O0 2.274024 1_545
Mn5 O0 2.307851 1_555
Mn5 O7 2.620577 1_455
F0 Mn4 1.936353 1_555
F0 Mn1 2.058706 1_555
F0 Mn0 2.157124 1_565
F1 Mn1 1.975005 1_545
F1 Mn5 2.260349 1_555
F1 Mn4 2.313072 1_555
F2 Mn2 1.951567 1_565
F2 Mg0 2.031932 1_555
F3 Mn3 1.963792 1_555
F3 Mn2 2.089866 1_555
F3 Mn0 2.166194 1_656
