# generated using pymatgen
data_Ag2S
_symmetry_space_group_name_H-M   'P 1'
_cell_length_a   7.40202060
_cell_length_b   4.21557378
_cell_length_c   8.46712491
_cell_angle_alpha   68.34401786
_cell_angle_beta   90.00000000
_cell_angle_gamma   90.00000000
_symmetry_Int_Tables_number   1
_chemical_formula_structural   Ag2S
_chemical_formula_sum   'Ag8 S4'
_cell_volume   245.55753361
_cell_formula_units_Z   4
loop_
 _symmetry_equiv_pos_site_id
 _symmetry_equiv_pos_as_xyz
  1  'x, y, z'
loop_
 _atom_site_type_symbol
 _atom_site_label
 _atom_site_symmetry_multiplicity
 _atom_site_fract_x
 _atom_site_fract_y
 _atom_site_fract_z
 _atom_site_occupancy
  Ag  Ag0  1  0.49653242  0.50038924  0.75015880  1
  Ag  Ag1  1  0.50346758  0.49961076  0.24984120  1
  Ag  Ag2  1  0.75223362  0.88960776  0.44353902  1
  Ag  Ag3  1  -0.00346758  0.49961076  0.74984120  1
  Ag  Ag4  1  0.00346758  0.50038924  0.25015880  1
  Ag  Ag5  1  0.24776638  0.11039224  0.55646098  1
  Ag  Ag6  1  0.74776638  0.88960776  0.94353902  1
  Ag  Ag7  1  0.25223362  0.11039224  0.05646098  1
  S  S0  1  0.75368500  0.27847079  0.13878722  1
  S  S1  1  0.25368500  0.72152921  0.36121278  1
  S  S2  1  0.24631500  0.72152921  0.86121278  1
  S  S3  1  0.74631500  0.27847079  0.63878722  1
loop_
_geom_bond_atom_site_label_1
_geom_bond_atom_site_label_2
_geom_bond_distance
_geom_bond_site_symmetry_2
Ag0 S2 2.414651 1_555
Ag0 S3 2.415358 1_555
Ag1 S0 2.414651 1_555
Ag1 S1 2.415358 1_555
Ag2 S0 2.494733 1_565
Ag2 S3 2.495746 1_555
Ag2 S3 2.724407 1_565
Ag3 S3 2.414651 1_455
Ag3 S2 2.415358 1_555
Ag4 S1 2.414651 1_555
Ag4 S0 2.415358 1_455
Ag5 S2 2.494733 1_545
Ag5 S1 2.495746 1_555
Ag5 S1 2.724407 1_545
Ag6 S3 2.494733 1_565
Ag6 S0 2.495746 1_556
Ag6 S0 2.724407 1_566
Ag7 S1 2.494733 1_545
Ag7 S2 2.495746 1_554
Ag7 S2 2.724407 1_544
