# generated using pymatgen
data_K3Cu2F7
_symmetry_space_group_name_H-M   'P 1'
_cell_length_a   4.00723019
_cell_length_b   4.00722997
_cell_length_c   10.85991675
_cell_angle_alpha   100.63177818
_cell_angle_beta   100.63177597
_cell_angle_gamma   90.00000408
_symmetry_Int_Tables_number   1
_chemical_formula_structural   K3Cu2F7
_chemical_formula_sum   'K3 Cu2 F7'
_cell_volume   168.34679707
_cell_formula_units_Z   1
loop_
 _symmetry_equiv_pos_site_id
 _symmetry_equiv_pos_as_xyz
  1  'x, y, z'
loop_
 _atom_site_type_symbol
 _atom_site_label
 _atom_site_symmetry_multiplicity
 _atom_site_fract_x
 _atom_site_fract_y
 _atom_site_fract_z
 _atom_site_occupancy
  K  K0  1  0.31567614  0.31567614  0.63135328  1
  K  K1  1  0.68432386  0.68432386  0.36864672  1
  K  K2  1  0.50000000  0.50000000  -0.00000000  1
  Cu  Cu0  1  0.09563828  0.09563828  0.19127656  1
  Cu  Cu1  1  0.90436172  0.90436172  0.80872344  1
  F  F0  1  0.40559294  0.90559294  0.81118687  1
  F  F1  1  0.90559294  0.40559294  0.81118687  1
  F  F2  1  0.59440706  0.09440706  0.18881313  1
  F  F3  1  0.09440706  0.59440706  0.18881313  1
  F  F4  1  0.00000000  0.00000000  -0.00000000  1
  F  F5  1  0.19117197  0.19117197  0.38234293  1
  F  F6  1  0.80882803  0.80882803  0.61765707  1
loop_
_geom_bond_atom_site_label_1
_geom_bond_atom_site_label_2
_geom_bond_distance
_geom_bond_site_symmetry_2
Cu0 F5 2.003090 1_555
Cu0 F3 2.003779 1_545
Cu0 F2 2.003780 1_455
Cu0 F3 2.003783 1_555
Cu0 F2 2.003784 1_555
Cu0 F4 2.005294 1_555
Cu1 F6 2.003090 1_555
Cu1 F1 2.003779 1_565
Cu1 F0 2.003780 1_655
Cu1 F1 2.003783 1_555
Cu1 F0 2.003784 1_555
Cu1 F4 2.005294 1_666
F0 K0 2.751170 1_555
F0 K0 2.751170 1_565
F0 K2 2.816516 1_556
F0 K2 2.816518 1_566
F1 K0 2.751170 1_555
F1 K0 2.751170 1_655
F1 K2 2.816516 1_556
F1 K2 2.816518 1_656
F2 K1 2.751170 1_555
F2 K1 2.751170 1_545
F2 K2 2.816516 1_555
F2 K2 2.816518 1_545
F3 K1 2.751170 1_555
F3 K1 2.751170 1_455
F3 K2 2.816516 1_555
F3 K2 2.816518 1_455
F4 K2 2.833539 1_445
F4 K2 2.833539 1_555
F4 K2 2.833540 1_545
F4 K2 2.833540 1_455
F5 K0 2.610560 1_555
F5 K1 2.837175 1_555
F5 K1 2.837175 1_445
F5 K1 2.837175 1_545
F5 K1 2.837175 1_455
F6 K1 2.610560 1_555
F6 K0 2.837175 1_555
F6 K0 2.837175 1_665
F6 K0 2.837175 1_565
F6 K0 2.837175 1_655
