# generated using pymatgen
data_Ce(CrB3)2
_symmetry_space_group_name_H-M   'P 1'
_cell_length_a   3.06182629
_cell_length_b   5.49543166
_cell_length_c   5.49543128
_cell_angle_alpha   72.74394835
_cell_angle_beta   73.82458368
_cell_angle_gamma   73.82457335
_symmetry_Int_Tables_number   1
_chemical_formula_structural   Ce(CrB3)2
_chemical_formula_sum   'Ce1 Cr2 B6'
_cell_volume   82.85082119
_cell_formula_units_Z   1
loop_
 _symmetry_equiv_pos_site_id
 _symmetry_equiv_pos_as_xyz
  1  'x, y, z'
loop_
 _atom_site_type_symbol
 _atom_site_label
 _atom_site_symmetry_multiplicity
 _atom_site_fract_x
 _atom_site_fract_y
 _atom_site_fract_z
 _atom_site_occupancy
  Ce  Ce0  1  -0.00000000  -0.00000000  0.00000000  1
  Cr  Cr0  1  0.84543961  0.65456039  0.65456039  1
  Cr  Cr1  1  0.15456039  0.34544061  0.34544061  1
  B  B0  1  0.69654465  0.54018664  0.06672406  1
  B  B1  1  0.30345535  0.45981336  0.93327594  1
  B  B2  1  0.30345535  0.93327594  0.45981336  1
  B  B3  1  0.50000000  0.35800804  0.64199296  1
  B  B4  1  0.50000000  0.64199296  0.35800804  1
  B  B5  1  0.69654465  0.06672406  0.54018664  1
loop_
_geom_bond_atom_site_label_1
_geom_bond_atom_site_label_2
_geom_bond_distance
_geom_bond_site_symmetry_2
B0 B4 1.744856 1_555
B0 B1 1.778092 1_554
B0 B1 1.778092 1_654
B0 Cr0 2.114923 1_554
B0 Cr1 2.201364 1_555
B0 Cr1 2.201368 1_655
B0 Ce0 2.819819 1_565
B0 Ce0 2.819819 1_665
B0 Ce0 2.954540 1_655
B1 B3 1.744848 1_555
B1 Cr1 2.114927 1_556
B1 Cr0 2.201365 1_455
B1 Cr0 2.201365 1_555
B1 Ce0 2.819819 1_656
B1 Ce0 2.819819 1_556
B1 Ce0 2.954540 1_566
B2 B4 1.744848 1_555
B2 B5 1.778092 1_565
B2 B5 1.778092 1_465
B2 Cr1 2.114927 1_565
B2 Cr0 2.201365 1_555
B2 Cr0 2.201365 1_455
B2 Ce0 2.819819 1_565
B2 Ce0 2.819820 1_665
B2 Ce0 2.954540 1_566
B3 B5 1.744856 1_555
B3 B4 1.850973 1_555
B3 Cr1 2.201624 1_555
B3 Cr0 2.201625 1_555
B3 Cr0 2.201627 1_455
B3 Cr1 2.201627 1_655
B3 Ce0 2.790814 1_656
B3 Ce0 2.790816 1_556
B4 Cr0 2.201624 1_555
B4 Cr1 2.201625 1_555
B4 Cr1 2.201627 1_655
B4 Cr0 2.201627 1_455
B4 Ce0 2.790814 1_665
B4 Ce0 2.790815 1_565
B5 Cr0 2.114923 1_545
B5 Cr1 2.201364 1_555
B5 Cr1 2.201368 1_655
B5 Ce0 2.819819 1_656
B5 Ce0 2.819820 1_556
B5 Ce0 2.954540 1_655
