# generated using pymatgen
data_MgV2Zn2(SiO5)2
_symmetry_space_group_name_H-M   'P 1'
_cell_length_a   5.60484848
_cell_length_b   7.57291384
_cell_length_c   8.14491720
_cell_angle_alpha   90.29472162
_cell_angle_beta   43.09978278
_cell_angle_gamma   109.50222259
_symmetry_Int_Tables_number   1
_chemical_formula_structural   MgV2Zn2(SiO5)2
_chemical_formula_sum   'Mg1 V2 Zn2 Si2 O10'
_cell_volume   206.81774873
_cell_formula_units_Z   1
loop_
 _symmetry_equiv_pos_site_id
 _symmetry_equiv_pos_as_xyz
  1  'x, y, z'
loop_
 _atom_site_type_symbol
 _atom_site_label
 _atom_site_symmetry_multiplicity
 _atom_site_fract_x
 _atom_site_fract_y
 _atom_site_fract_z
 _atom_site_occupancy
  Mg  Mg0  1  0.00926300  0.63237000  0.65274000  1
  V  V0  1  0.52427900  0.49314500  0.50476300  1
  V  V1  1  0.53028400  0.01528600  0.48633000  1
  Zn  Zn0  1  0.44281400  0.27771400  0.22636100  1
  Zn  Zn1  1  0.43124900  0.79132900  0.84405200  1
  Si  Si0  1  0.50786900  0.23932100  0.86489000  1
  Si  Si1  1  0.48750800  0.73885700  0.14696100  1
  O  O0  1  0.54277600  0.07201000  0.73386200  1
  O  O1  1  0.55344500  0.43435800  0.73702300  1
  O  O2  1  0.41409600  0.88401300  0.31047600  1
  O  O3  1  0.46824400  0.55526600  0.27246000  1
  O  O4  1  0.11716500  0.65014100  0.19459600  1
  O  O5  1  0.86777400  0.83340500  0.82613900  1
  O  O6  1  0.87242800  0.35407700  0.82337100  1
  O  O7  1  0.12094500  0.14440100  0.18548800  1
  O  O8  1  0.45679400  0.73725800  0.60221200  1
  O  O9  1  0.48594400  0.24461200  0.43409500  1
loop_
_geom_bond_atom_site_label_1
_geom_bond_atom_site_label_2
_geom_bond_distance
_geom_bond_site_symmetry_2
Mg0 O5 2.022304 1_455
Mg0 O1 2.034293 1_455
Mg0 O8 2.063407 1_555
Mg0 O6 2.087006 1_455
Mg0 O2 2.117027 1_555
Mg0 O3 2.429156 1_555
O0 Si0 1.621505 1_555
O0 Zn1 2.006865 1_545
O0 V1 2.105077 1_555
O1 Si0 1.645246 1_555
O1 V0 2.076643 1_555
O2 Si1 1.624217 1_555
O2 V1 2.092631 1_565
O3 Si1 1.656114 1_555
O3 Zn0 2.109310 1_555
O3 V0 2.208064 1_555
O4 Si1 1.675109 1_555
O4 Zn1 1.956745 1_554
O4 V0 1.992944 1_455
O5 Si1 1.658510 1_556
O5 V1 2.227523 1_665
O5 Zn1 2.251135 1_555
O6 Si0 1.689083 1_555
O6 Zn0 2.110474 1_556
O6 V0 2.192078 1_655
O7 Si0 1.657453 1_554
O7 V1 1.984237 1_455
O7 Zn0 2.010496 1_555
O8 Zn1 1.920195 1_555
O8 V0 2.050343 1_555
O8 V1 2.089791 1_565
O9 Zn0 1.904253 1_555
O9 V1 1.925864 1_555
O9 V0 1.954298 1_555
