# generated using pymatgen
data_Na3CaTi3P5SO24
_symmetry_space_group_name_H-M   'P 1'
_cell_length_a   8.82545612
_cell_length_b   8.77146527
_cell_length_c   22.53892489
_cell_angle_alpha   89.98730558
_cell_angle_beta   90.29528798
_cell_angle_gamma   119.91743523
_symmetry_Int_Tables_number   1
_chemical_formula_structural   Na3CaTi3P5SO24
_chemical_formula_sum   'Na9 Ca3 Ti9 P15 S3 O72'
_cell_volume   1512.26010787
_cell_formula_units_Z   3
loop_
 _symmetry_equiv_pos_site_id
 _symmetry_equiv_pos_as_xyz
  1  'x, y, z'
loop_
 _atom_site_type_symbol
 _atom_site_label
 _atom_site_symmetry_multiplicity
 _atom_site_fract_x
 _atom_site_fract_y
 _atom_site_fract_z
 _atom_site_occupancy
  Na  Na0  1  0.99134606  0.37062159  0.74688053  1
  Na  Na1  1  0.31972438  0.97850991  0.08389408  1
  Na  Na2  1  0.32461682  0.03789427  0.41346318  1
  Na  Na3  1  0.98586833  0.00061377  0.49989659  1
  Na  Na4  1  0.98662533  0.00195958  0.99762693  1
  Na  Na5  1  0.65185596  0.33310524  0.83267794  1
  Na  Na6  1  0.66935996  0.33631882  0.32752462  1
  Na  Na7  1  0.33401016  0.65281955  0.16754951  1
  Na  Na8  1  0.34605887  0.67335417  0.66547600  1
  Ca  Ca0  1  0.99007164  0.00036854  0.35872610  1
  Ca  Ca1  1  0.65877777  0.33693311  0.68658200  1
  Ca  Ca2  1  0.66606978  0.33248891  0.17805562  1
  Ti  Ti0  1  0.00236477  0.99881828  0.85648037  1
  Ti  Ti1  1  0.98951732  0.99518474  0.64921716  1
  Ti  Ti2  1  0.00502868  0.99711330  0.14710293  1
  Ti  Ti3  1  0.67179931  0.33428007  0.98079967  1
  Ti  Ti4  1  0.68516617  0.34917979  0.48155871  1
  Ti  Ti5  1  0.33456750  0.66217211  0.01426397  1
  Ti  Ti6  1  0.33379314  0.65919492  0.51956633  1
  Ti  Ti7  1  0.33192191  0.67238884  0.31616498  1
  Ti  Ti8  1  0.33881640  0.67190910  0.81492372  1
  P  P0  1  0.29217725  0.98988068  0.25372550  1
  P  P1  1  0.27649474  0.28511528  0.75419148  1
  P  P2  1  0.01357242  0.72485319  0.75360503  1
  P  P3  1  0.71111941  0.98557526  0.75402313  1
  P  P4  1  0.96753330  0.33287269  0.58465049  1
  P  P5  1  0.66967770  0.63555500  0.58231760  1
  P  P6  1  0.96903267  0.63178983  0.08020944  1
  P  P7  1  0.66792637  0.03073822  0.07932423  1
  P  P8  1  0.36700379  0.33562293  0.08017728  1
  P  P9  1  0.62140183  0.66384065  0.91605018  1
  P  P10  1  0.04189720  0.37898167  0.91459980  1
  P  P11  1  0.33735740  0.95895448  0.91693818  1
  P  P12  1  0.61075686  0.95774559  0.42131811  1
  P  P13  1  0.35069751  0.39055084  0.41848805  1
  P  P14  1  0.04525092  0.65320931  0.41937957  1
  S  S0  1  0.69825086  0.71128858  0.24963339  1
  S  S1  1  0.01415126  0.30219185  0.24941327  1
  S  S2  1  0.36317695  0.03127715  0.57999311  1
  O  O0  1  0.21034474  0.00390029  0.31046917  1
  O  O1  1  0.79271559  0.79051531  0.30385253  1
  O  O2  1  0.99526997  0.20680413  0.30366334  1
  O  O3  1  0.17498632  0.17757468  0.80934615  1
  O  O4  1  0.00197553  0.82284889  0.80870644  1
  O  O5  1  0.82397099  0.99871620  0.80814305  1
  O  O6  1  0.79970520  0.96753650  0.69530190  1
  O  O7  1  0.16308642  0.19485849  0.69699303  1
  O  O8  1  0.02460912  0.83006306  0.69591882  1
  O  O9  1  0.79614916  0.82166601  0.19588964  1
  O  O10  1  0.02261041  0.20074768  0.19593789  1
  O  O11  1  0.17142863  0.97628490  0.19607535  1
  O  O12  1  0.90999401  0.37164635  0.64305613  1
  O  O13  1  0.46687801  0.09912777  0.63382725  1
  O  O14  1  0.62219569  0.53163230  0.63859515  1
  O  O15  1  0.91465451  0.53179102  0.13740525  1
  O  O16  1  0.60603476  0.08287729  0.13418933  1
  O  O17  1  0.46579051  0.38112671  0.13796145  1
  O  O18  1  0.46518624  0.29865122  0.02915086  1
  O  O19  1  0.83922328  0.53181002  0.02783993  1
  O  O20  1  0.69653306  0.16232932  0.02701396  1
  O  O21  1  0.45249254  0.14358497  0.52710551  1
  O  O22  1  0.69501975  0.53169650  0.52897227  1
  O  O23  1  0.83724876  0.31130867  0.53190889  1
  O  O24  1  0.53050253  0.69088547  0.96971103  1
  O  O25  1  0.16181944  0.47400697  0.96791590  1
  O  O26  1  0.31007619  0.84780314  0.97256319  1
  O  O27  1  0.50528303  0.84642041  0.47372213  1
  O  O28  1  0.33717878  0.48801465  0.47303892  1
  O  O29  1  0.15675115  0.66472667  0.47269306  1
  O  O30  1  0.13348040  0.63462077  0.36131084  1
  O  O31  1  0.49846523  0.86786715  0.36283891  1
  O  O32  1  0.36432251  0.49783445  0.36133510  1
  O  O33  1  0.12650747  0.49027650  0.85789174  1
  O  O34  1  0.36107728  0.86197483  0.86248995  1
  O  O35  1  0.50292683  0.63769762  0.86072876  1
  O  O36  1  0.03161047  0.81866429  0.42024718  1
  O  O37  1  0.78914947  0.97560603  0.42253489  1
  O  O38  1  0.19348324  0.20566298  0.42008274  1
  O  O39  1  0.02186082  0.19348000  0.91063126  1
  O  O40  1  0.17274786  0.97812184  0.90990498  1
  O  O41  1  0.80480786  0.82841579  0.91044730  1
  O  O42  1  0.98005965  0.16192818  0.58758980  1
  O  O43  1  0.18803066  0.01730571  0.58473991  1
  O  O44  1  0.84082848  0.81718222  0.58726251  1
  O  O45  1  0.98613764  0.81956479  0.08700977  1
  O  O46  1  0.83474206  0.01791843  0.08807830  1
  O  O47  1  0.18479779  0.16057908  0.08703933  1
  O  O48  1  0.70166462  0.15359260  0.75213553  1
  O  O49  1  0.45417430  0.30075483  0.75438862  1
  O  O50  1  0.85655228  0.53960465  0.75369814  1
  O  O51  1  0.67036956  0.53275731  0.24401832  1
  O  O52  1  0.86842385  0.33630386  0.24331419  1
  O  O53  1  0.47655892  0.14118974  0.24621118  1
  O  O54  1  0.63641665  0.49683383  0.92427798  1
  O  O55  1  0.85986411  0.36240694  0.92385786  1
  O  O56  1  0.50325028  0.14194884  0.92323373  1
  O  O57  1  0.61811454  0.13892695  0.42554207  1
  O  O58  1  0.52001637  0.37718814  0.42387651  1
  O  O59  1  0.86389949  0.48204293  0.42419582  1
  O  O60  1  0.33139661  0.48645903  0.06498708  1
  O  O61  1  0.15731830  0.67161670  0.06585204  1
  O  O62  1  0.51115237  0.84644078  0.06364188  1
  O  O63  1  0.33214105  0.84868718  0.57151632  1
  O  O64  1  0.51909942  0.67286653  0.56839832  1
  O  O65  1  0.15270175  0.48750285  0.57048583  1
  O  O66  1  0.29252559  0.80929082  0.25519600  1
  O  O67  1  0.52557644  0.70648123  0.25079449  1
  O  O68  1  0.18453229  0.47297529  0.25087206  1
  O  O69  1  0.28361437  0.46713793  0.75807149  1
  O  O70  1  0.18524902  0.71468167  0.75747347  1
  O  O71  1  0.53049915  0.81668132  0.75836148  1
loop_
_geom_bond_atom_site_label_1
_geom_bond_atom_site_label_2
_geom_bond_distance
_geom_bond_site_symmetry_2
Na0 O69 2.291024 1_655
Na0 O48 2.307020 1_555
Na0 O50 2.323073 1_555
Na0 O12 2.445546 1_555
Na0 O70 2.633967 1_655
Na0 O33 2.739781 1_655
Na0 O7 2.878833 1_655
Na1 O61 2.368937 1_555
Na1 O47 2.423083 1_565
Na1 O16 2.484240 1_565
Na1 O62 2.522886 1_555
Na1 O45 2.554197 1_455
Na1 O18 2.734001 1_565
Na1 O26 2.742237 1_554
Na1 O11 2.848670 1_555
Na2 O38 2.286455 1_555
Na2 O57 2.296074 1_555
Na2 O36 2.334924 1_545
Na2 O0 2.484146 1_555
Na2 O58 2.600546 1_555
Na2 O21 2.760682 1_555
Na2 O31 2.860334 1_545
Na3 O37 2.385724 1_545
Na3 O42 2.446627 1_555
Na3 O44 2.464739 1_545
Na3 O43 2.562402 1_655
Na3 O38 2.563893 1_655
Na3 O36 2.565983 1_645
Na4 O46 2.487577 1_556
Na4 O39 2.499447 1_655
Na4 O41 2.507049 1_545
Na4 O47 2.567789 1_656
Na4 O45 2.570988 1_546
Na4 O40 2.650910 1_645
Na5 O49 2.390102 1_555
Na5 O50 2.545766 1_555
Na5 O56 2.555345 1_555
Na5 O54 2.557911 1_555
Na5 O48 2.582237 1_555
Na5 O55 2.673990 1_555
Na6 O53 2.499561 1_555
Na6 O51 2.548504 1_555
Na6 O52 2.592972 1_555
Na6 O58 2.661391 1_555
Na6 O59 2.665074 1_555
Na6 O57 2.703784 1_555
Na7 O68 2.388320 1_555
Na7 O67 2.402937 1_555
Na7 O66 2.535760 1_555
Na7 O60 2.727811 1_555
Na7 O61 2.816432 1_555
Na7 O62 2.863696 1_555
Na8 O71 2.556912 1_555
Na8 O69 2.635706 1_555
Na8 O70 2.643662 1_555
Na8 O63 2.655086 1_555
Na8 O64 2.675942 1_555
Na8 O65 2.709666 1_555
Ca0 O1 2.175395 1_545
Ca0 O2 2.176658 1_555
Ca0 O37 2.214011 1_545
Ca0 O0 2.219200 1_655
Ca0 O38 2.264672 1_655
Ca0 O36 2.274634 1_645
Ca1 O14 2.176276 1_555
Ca1 O13 2.256004 1_555
Ca1 O49 2.270161 1_555
Ca1 O12 2.306414 1_555
Ca1 O50 2.318197 1_555
Ca1 O48 2.347941 1_555
Ca2 O17 2.204192 1_555
Ca2 O16 2.211422 1_555
Ca2 O15 2.214262 1_555
Ca2 O53 2.280041 1_555
Ca2 O51 2.287289 1_555
Ca2 O52 2.295038 1_555
O0 P0 1.506844 1_545
O1 S0 1.443372 1_555
O2 S1 1.444119 1_655
O3 P1 1.551044 1_555
O3 Ti0 1.881810 1_545
O4 P2 1.543129 1_555
O4 Ti0 1.880766 1_555
O5 P3 1.538241 1_555
O5 Ti0 1.909612 1_655
O6 P3 1.588113 1_555
O6 Ti1 1.885873 1_555
O7 P1 1.577114 1_555
O7 Ti1 1.970072 1_445
O8 P2 1.569306 1_555
O8 Ti1 1.935210 1_455
O9 S0 1.525457 1_555
O9 Ti2 2.041087 1_655
O10 S1 1.522400 1_555
O10 Ti2 2.036823 1_545
O11 P0 1.642332 1_555
O11 Ti2 1.912905 1_555
O12 P4 1.511891 1_555
O13 S2 1.452450 1_555
O14 P5 1.496461 1_555
O15 P6 1.499174 1_555
O16 P7 1.514295 1_555
O17 P8 1.502349 1_555
O18 P8 1.571440 1_555
O18 Ti3 2.015484 1_554
O19 P6 1.568157 1_555
O19 Ti3 1.933991 1_554
O20 P7 1.580472 1_555
O20 Ti3 1.932056 1_554
O21 S2 1.499099 1_555
O21 Ti4 2.202199 1_555
O22 P5 1.591245 1_555
O22 Ti4 1.890373 1_555
O23 P4 1.593748 1_555
O23 Ti4 1.904883 1_555
O24 P9 1.537072 1_555
O24 Ti5 1.909279 1_556
O25 P10 1.538282 1_555
O25 Ti5 1.901063 1_556
O26 P11 1.532569 1_555
O26 Ti5 1.982328 1_556
O27 P12 1.522894 1_555
O27 Ti6 1.895076 1_555
O28 P13 1.536400 1_555
O28 Ti6 1.844153 1_555
O29 P14 1.520248 1_555
O29 Ti6 1.902212 1_555
O30 P14 1.575793 1_555
O30 Ti7 1.910967 1_555
O31 P12 1.596429 1_555
O31 Ti7 1.917798 1_555
O32 P13 1.564469 1_555
O32 Ti7 1.973717 1_555
O33 P10 1.557683 1_555
O33 Ti8 2.006804 1_555
O34 P11 1.566591 1_555
O34 Ti8 1.907692 1_555
O35 P9 1.564640 1_555
O35 Ti8 1.916142 1_555
O36 P14 1.515060 1_555
O37 P12 1.502512 1_555
O38 P13 1.520662 1_555
O39 P10 1.549093 1_555
O39 Ti0 2.034793 1_545
O40 P11 1.550851 1_555
O40 Ti0 1.999393 1_555
O41 P9 1.546310 1_555
O41 Ti0 2.043289 1_655
O42 P4 1.558891 1_555
O42 Ti1 2.048209 1_545
O43 S2 1.492828 1_555
O43 Ti1 2.214951 1_445
O44 P5 1.558850 1_555
O44 Ti1 2.011969 1_555
O45 P6 1.584597 1_555
O45 Ti2 2.006806 1_655
O46 P7 1.543098 1_555
O46 Ti2 2.077156 1_645
O47 P8 1.583291 1_555
O47 Ti2 2.039071 1_545
O48 P3 1.517676 1_545
O49 P1 1.504372 1_555
O50 P2 1.521375 1_655
O51 S0 1.464328 1_555
O52 S1 1.464420 1_655
O53 P0 1.512131 1_545
O54 P9 1.546326 1_555
O54 Ti3 2.047599 1_555
O55 P10 1.554369 1_655
O55 Ti3 2.018948 1_555
O56 P11 1.547221 1_545
O56 Ti3 2.054282 1_555
O57 P12 1.560764 1_545
O57 Ti4 2.061579 1_555
O58 P13 1.560226 1_555
O58 Ti4 2.052433 1_555
O59 P14 1.559584 1_655
O59 Ti4 1.924730 1_555
O60 P8 1.542680 1_555
O60 Ti5 1.907827 1_555
O61 P6 1.553855 1_455
O61 Ti5 1.988450 1_555
O62 P7 1.554566 1_565
O62 Ti5 1.936512 1_555
O63 S2 1.496195 1_565
O63 Ti6 2.039383 1_555
O64 P5 1.549537 1_555
O64 Ti6 1.919947 1_555
O65 P4 1.551247 1_455
O65 Ti6 1.938221 1_555
O66 P0 1.585912 1_555
O66 Ti7 1.965213 1_555
O67 S0 1.503708 1_555
O67 Ti7 2.167305 1_555
O68 S1 1.502934 1_555
O68 Ti7 2.151531 1_555
O69 P1 1.568655 1_555
O69 Ti8 2.056004 1_555
O70 P2 1.563534 1_555
O70 Ti8 2.035482 1_555
O71 P3 1.546348 1_555
O71 Ti8 1.994561 1_555
