# generated using pymatgen
data_LiMn6P7O24
_symmetry_space_group_name_H-M   'P 1'
_cell_length_a   27.15620700
_cell_length_b   5.46016200
_cell_length_c   6.64708436
_cell_angle_alpha   72.25327368
_cell_angle_beta   90.00000000
_cell_angle_gamma   90.00000000
_symmetry_Int_Tables_number   1
_chemical_formula_structural   LiMn6P7O24
_chemical_formula_sum   'Li2 Mn12 P14 O48'
_cell_volume   938.70956449
_cell_formula_units_Z   2
loop_
 _symmetry_equiv_pos_site_id
 _symmetry_equiv_pos_as_xyz
  1  'x, y, z'
loop_
 _atom_site_type_symbol
 _atom_site_label
 _atom_site_symmetry_multiplicity
 _atom_site_fract_x
 _atom_site_fract_y
 _atom_site_fract_z
 _atom_site_occupancy
  Li  Li0  1  0.75000000  0.89556400  0.45542300  1
  Li  Li1  1  0.25000000  0.10443600  0.54457700  1
  Mn  Mn0  1  0.45477900  0.81244100  0.68605200  1
  Mn  Mn1  1  0.04522100  0.81244100  0.68605200  1
  Mn  Mn2  1  0.31894100  0.87242400  0.28082100  1
  Mn  Mn3  1  0.18105900  0.87242400  0.28082100  1
  Mn  Mn4  1  0.90228400  0.79120500  0.08773200  1
  Mn  Mn5  1  0.59771600  0.79120500  0.08773200  1
  Mn  Mn6  1  0.40228400  0.20879500  0.91226800  1
  Mn  Mn7  1  0.09771600  0.20879500  0.91226800  1
  Mn  Mn8  1  0.81894100  0.12757600  0.71917900  1
  Mn  Mn9  1  0.68105900  0.12757600  0.71917900  1
  Mn  Mn10  1  0.95477900  0.18755900  0.31394800  1
  Mn  Mn11  1  0.54522100  0.18755900  0.31394800  1
  P  P0  1  0.66791100  0.24825400  0.18782000  1
  P  P1  1  0.83208900  0.24825400  0.18782000  1
  P  P2  1  0.10869900  0.31681800  0.38182600  1
  P  P3  1  0.39130100  0.31681800  0.38182600  1
  P  P4  1  0.25000000  0.47518500  0.09669200  1
  P  P5  1  0.52413200  0.29311300  0.79473900  1
  P  P6  1  0.97586800  0.29311300  0.79473900  1
  P  P7  1  0.02413200  0.70688700  0.20526100  1
  P  P8  1  0.47586800  0.70688700  0.20526100  1
  P  P9  1  0.75000000  0.52481500  0.90330800  1
  P  P10  1  0.60869900  0.68318200  0.61817400  1
  P  P11  1  0.89130100  0.68318200  0.61817400  1
  P  P12  1  0.33208900  0.75174600  0.81218000  1
  P  P13  1  0.16791100  0.75174600  0.81218000  1
  O  O0  1  0.59485600  0.85838800  0.39662400  1
  O  O1  1  0.83626400  0.06649100  0.05216400  1
  O  O2  1  0.54734500  0.13012300  0.00329000  1
  O  O3  1  0.95265500  0.13012300  0.00329000  1
  O  O4  1  0.97775500  0.14854000  0.63009000  1
  O  O5  1  0.37788500  0.15618200  0.23406200  1
  O  O6  1  0.69429300  0.12121600  0.39708000  1
  O  O7  1  0.80570700  0.12121600  0.39708000  1
  O  O8  1  0.25000000  0.19490300  0.23358800  1
  O  O9  1  0.09485600  0.14161200  0.60337600  1
  O  O10  1  0.40514400  0.14161200  0.60337600  1
  O  O11  1  0.52224500  0.14854000  0.63009000  1
  O  O12  1  0.33626400  0.93350900  0.94783600  1
  O  O13  1  0.16373600  0.93350900  0.94783600  1
  O  O14  1  0.45265500  0.86987700  0.99671000  1
  O  O15  1  0.04734500  0.86987700  0.99671000  1
  O  O16  1  0.87788500  0.84381800  0.76593800  1
  O  O17  1  0.62211500  0.84381800  0.76593800  1
  O  O18  1  0.30570700  0.87878400  0.60292000  1
  O  O19  1  0.19429300  0.87878400  0.60292000  1
  O  O20  1  0.75000000  0.80509700  0.76641200  1
  O  O21  1  0.90514400  0.85838800  0.39662400  1
  O  O22  1  0.66373600  0.06649100  0.05216400  1
  O  O23  1  0.47775500  0.85146000  0.36991000  1
  O  O24  1  0.02224500  0.85146000  0.36991000  1
  O  O25  1  0.37952600  0.61061800  0.79278600  1
  O  O26  1  0.12047400  0.61061800  0.79278600  1
  O  O27  1  0.29619200  0.51127300  0.94400400  1
  O  O28  1  0.20380800  0.51127300  0.94400400  1
  O  O29  1  0.94285900  0.54896600  0.71141300  1
  O  O30  1  0.55714100  0.54896600  0.71141300  1
  O  O31  1  0.25000000  0.67455700  0.21472500  1
  O  O32  1  0.47405300  0.41022200  0.82448700  1
  O  O33  1  0.02594700  0.41022200  0.82448700  1
  O  O34  1  0.85293900  0.48524400  0.61557800  1
  O  O35  1  0.64706100  0.48524400  0.61557800  1
  O  O36  1  0.35293900  0.51475600  0.38442200  1
  O  O37  1  0.14706100  0.51475600  0.38442200  1
  O  O38  1  0.97405300  0.58977800  0.17551300  1
  O  O39  1  0.52594700  0.58977800  0.17551300  1
  O  O40  1  0.75000000  0.32544300  0.78527500  1
  O  O41  1  0.44285900  0.45103400  0.28858700  1
  O  O42  1  0.05714100  0.45103400  0.28858700  1
  O  O43  1  0.79619200  0.48872700  0.05599600  1
  O  O44  1  0.70380800  0.48872700  0.05599600  1
  O  O45  1  0.87952600  0.38938200  0.20721400  1
  O  O46  1  0.62047400  0.38938200  0.20721400  1
  O  O47  1  0.12211500  0.15618200  0.23406200  1
loop_
_geom_bond_atom_site_label_1
_geom_bond_atom_site_label_2
_geom_bond_distance
_geom_bond_site_symmetry_2
Li0 O7 1.914603 1_565
Li0 O6 1.914603 1_565
Li0 O20 1.973501 1_555
Li1 O19 1.914603 1_545
Li1 O18 1.914603 1_545
Li1 O8 1.973501 1_555
Mn0 O23 2.139565 1_555
Mn0 O32 2.170699 1_555
Mn0 O10 2.178781 1_565
Mn0 O14 2.181872 1_555
Mn0 O25 2.327520 1_555
Mn0 O11 2.539031 1_565
Mn1 O24 2.139565 1_555
Mn1 O33 2.170699 1_555
Mn1 O9 2.178781 1_565
Mn1 O15 2.181872 1_555
Mn1 O26 2.327520 1_555
Mn1 O4 2.539031 1_465
Mn2 O36 2.078627 1_555
Mn2 O18 2.181663 1_555
Mn2 O5 2.183069 1_565
Mn2 O12 2.186676 1_554
Mn2 O31 2.270389 1_555
Mn2 O8 2.523287 1_565
Mn3 O37 2.078627 1_555
Mn3 O19 2.181663 1_555
Mn3 O47 2.183069 1_565
Mn3 O13 2.186676 1_554
Mn3 O31 2.270389 1_555
Mn3 O8 2.523287 1_565
Mn4 O16 2.173070 1_554
Mn4 O45 2.182697 1_555
Mn4 O21 2.194428 1_555
Mn4 O38 2.226512 1_555
Mn4 O3 2.231025 1_565
Mn4 O1 2.304974 1_565
Mn5 O17 2.173070 1_554
Mn5 O46 2.182697 1_555
Mn5 O0 2.194428 1_555
Mn5 O39 2.226512 1_555
Mn5 O2 2.231025 1_565
Mn5 O22 2.304974 1_565
Mn6 O5 2.173070 1_556
Mn6 O25 2.182697 1_555
Mn6 O10 2.194428 1_555
Mn6 O32 2.226512 1_555
Mn6 O14 2.231025 1_545
Mn6 O12 2.304974 1_545
Mn7 O47 2.173070 1_556
Mn7 O26 2.182697 1_555
Mn7 O9 2.194428 1_555
Mn7 O33 2.226512 1_555
Mn7 O15 2.231025 1_545
Mn7 O13 2.304974 1_545
Mn8 O34 2.078627 1_555
Mn8 O7 2.181663 1_555
Mn8 O16 2.183069 1_545
Mn8 O1 2.186676 1_556
Mn8 O40 2.270389 1_555
Mn8 O20 2.523287 1_545
Mn9 O35 2.078627 1_555
Mn9 O6 2.181663 1_555
Mn9 O17 2.183069 1_545
Mn9 O22 2.186676 1_556
Mn9 O40 2.270389 1_555
Mn9 O20 2.523287 1_545
Mn10 O4 2.139565 1_555
Mn10 O38 2.170699 1_555
Mn10 O21 2.178781 1_545
Mn10 O3 2.181872 1_555
Mn10 O45 2.327520 1_555
Mn10 O24 2.539031 1_645
Mn11 O11 2.139565 1_555
Mn11 O39 2.170699 1_555
Mn11 O0 2.178781 1_545
Mn11 O2 2.181872 1_555
Mn11 O46 2.327520 1_555
Mn11 O23 2.539031 1_545
O0 P10 1.538307 1_555
O1 P1 1.535081 1_555
O2 P5 1.535906 1_554
O3 P6 1.535906 1_554
O4 P6 1.533046 1_555
O5 P3 1.546587 1_555
O6 P0 1.530044 1_555
O7 P1 1.530044 1_555
O8 P4 1.523534 1_555
O9 P2 1.538307 1_555
O10 P3 1.538307 1_555
O11 P5 1.533046 1_555
O12 P12 1.535081 1_555
O13 P13 1.535081 1_555
O14 P8 1.535906 1_556
O15 P7 1.535906 1_556
O16 P11 1.546587 1_555
O17 P10 1.546587 1_555
O18 P12 1.530044 1_555
O19 P13 1.530044 1_555
O20 P9 1.523534 1_555
O21 P11 1.538307 1_555
O22 P0 1.535081 1_555
O23 P8 1.533046 1_555
O24 P7 1.533046 1_555
O25 P12 1.526583 1_555
O26 P13 1.526583 1_555
O27 P4 1.587612 1_556
O27 P12 1.655516 1_555
O28 P4 1.587612 1_556
O28 P13 1.655516 1_555
O29 P6 1.609414 1_555
O29 P11 1.613883 1_555
O30 P5 1.609414 1_555
O30 P10 1.613883 1_555
O31 P4 1.523577 1_555
O32 P5 1.540953 1_555
O33 P6 1.540953 1_455
O34 P11 1.504997 1_555
O35 P10 1.504997 1_555
O36 P3 1.504997 1_555
O37 P2 1.504997 1_555
O38 P7 1.540953 1_655
O39 P8 1.540953 1_555
O40 P9 1.523577 1_555
O41 P8 1.609414 1_555
O41 P3 1.613883 1_555
O42 P7 1.609414 1_555
O42 P2 1.613883 1_555
O43 P9 1.587612 1_554
O43 P1 1.655516 1_555
O44 P9 1.587612 1_554
O44 P0 1.655516 1_555
O45 P1 1.526583 1_555
O46 P0 1.526583 1_555
O47 P2 1.546587 1_555
