# generated using pymatgen
data_LiNi(PO3)3
_symmetry_space_group_name_H-M   'P 1'
_cell_length_a   5.08442000
_cell_length_b   11.99532600
_cell_length_c   13.01767300
_cell_angle_alpha   90.00000000
_cell_angle_beta   90.00000000
_cell_angle_gamma   90.00000000
_symmetry_Int_Tables_number   1
_chemical_formula_structural   LiNi(PO3)3
_chemical_formula_sum   'Li4 Ni4 P12 O36'
_cell_volume   793.93844394
_cell_formula_units_Z   4
loop_
 _symmetry_equiv_pos_site_id
 _symmetry_equiv_pos_as_xyz
  1  'x, y, z'
loop_
 _atom_site_type_symbol
 _atom_site_label
 _atom_site_symmetry_multiplicity
 _atom_site_fract_x
 _atom_site_fract_y
 _atom_site_fract_z
 _atom_site_occupancy
  Li  Li0  1  0.01705700  0.00036900  0.25000000  1
  Li  Li1  1  0.01705700  0.49963100  0.75000000  1
  Li  Li2  1  0.98294300  0.50036900  0.25000000  1
  Li  Li3  1  0.98294300  0.99963100  0.75000000  1
  Ni  Ni0  1  0.00000000  0.00000000  0.00000000  1
  Ni  Ni1  1  0.00000000  0.00000000  0.50000000  1
  Ni  Ni2  1  0.00000000  0.50000000  0.00000000  1
  Ni  Ni3  1  0.00000000  0.50000000  0.50000000  1
  P  P0  1  0.75789800  0.25000000  0.50000000  1
  P  P1  1  0.75789800  0.25000000  0.00000000  1
  P  P2  1  0.50133600  0.91564600  0.36478800  1
  P  P3  1  0.50133600  0.91564600  0.13521200  1
  P  P4  1  0.24210200  0.75000000  0.00000000  1
  P  P5  1  0.24210200  0.75000000  0.50000000  1
  P  P6  1  0.49866400  0.08435400  0.63521200  1
  P  P7  1  0.49866400  0.08435400  0.86478800  1
  P  P8  1  0.49866400  0.41564600  0.13521200  1
  P  P9  1  0.49866400  0.41564600  0.36478800  1
  P  P10  1  0.50133600  0.58435400  0.63521200  1
  P  P11  1  0.50133600  0.58435400  0.86478800  1
  O  O0  1  0.90422300  0.34374100  0.94996000  1
  O  O1  1  0.90422300  0.34374100  0.55004000  1
  O  O2  1  0.90422300  0.15625900  0.44996000  1
  O  O3  1  0.90422300  0.15625900  0.05004000  1
  O  O4  1  0.09577700  0.65625900  0.05004000  1
  O  O5  1  0.09577700  0.65625900  0.44996000  1
  O  O6  1  0.09577700  0.84374100  0.55004000  1
  O  O7  1  0.09577700  0.84374100  0.94996000  1
  O  O8  1  0.20948100  0.05597800  0.63361700  1
  O  O9  1  0.20948100  0.05597800  0.86638300  1
  O  O10  1  0.20948100  0.44402200  0.13361700  1
  O  O11  1  0.20948100  0.44402200  0.36638300  1
  O  O12  1  0.30576500  0.00374700  0.10367500  1
  O  O13  1  0.30576500  0.00374700  0.39632500  1
  O  O14  1  0.30576500  0.49625300  0.60367500  1
  O  O15  1  0.30576500  0.49625300  0.89632500  1
  O  O16  1  0.41964700  0.62154800  0.75000000  1
  O  O17  1  0.41964700  0.87845200  0.25000000  1
  O  O18  1  0.45619900  0.70087600  0.58042000  1
  O  O19  1  0.45619900  0.70087600  0.91958000  1
  O  O20  1  0.45619900  0.79912400  0.08042000  1
  O  O21  1  0.45619900  0.79912400  0.41958000  1
  O  O22  1  0.54380100  0.20087600  0.58042000  1
  O  O23  1  0.54380100  0.20087600  0.91958000  1
  O  O24  1  0.54380100  0.29912400  0.08042000  1
  O  O25  1  0.54380100  0.29912400  0.41958000  1
  O  O26  1  0.58035300  0.12154800  0.75000000  1
  O  O27  1  0.58035300  0.37845200  0.25000000  1
  O  O28  1  0.69423500  0.50374700  0.10367500  1
  O  O29  1  0.69423500  0.50374700  0.39632500  1
  O  O30  1  0.69423500  0.99625300  0.60367500  1
  O  O31  1  0.69423500  0.99625300  0.89632500  1
  O  O32  1  0.79051900  0.55597800  0.63361700  1
  O  O33  1  0.79051900  0.55597800  0.86638300  1
  O  O34  1  0.79051900  0.94402200  0.13361700  1
  O  O35  1  0.79051900  0.94402200  0.36638300  1
loop_
_geom_bond_atom_site_label_1
_geom_bond_atom_site_label_2
_geom_bond_distance
_geom_bond_site_symmetry_2
Li0 O34 2.019617 1_445
Li0 O35 2.019617 1_445
Li0 O12 2.405143 1_555
Li0 O13 2.405143 1_555
Li0 O17 2.515683 1_545
Li1 O32 2.019617 1_455
Li1 O33 2.019617 1_455
Li1 O14 2.405143 1_555
Li1 O15 2.405143 1_555
Li1 O16 2.515683 1_555
Li2 O10 2.019617 1_655
Li2 O11 2.019617 1_655
Li2 O28 2.405143 1_555
Li2 O29 2.405143 1_555
Li2 O27 2.515683 1_555
Li3 O8 2.019617 1_665
Li3 O9 2.019617 1_665
Li3 O31 2.405143 1_555
Li3 O30 2.405143 1_555
Li3 O26 2.515683 1_565
Ni0 O3 2.043223 1_455
Ni0 O7 2.043223 1_544
Ni0 O31 2.059213 1_444
Ni0 O12 2.059213 1_555
Ni0 O9 2.147264 1_554
Ni0 O34 2.147264 1_445
Ni1 O2 2.043223 1_455
Ni1 O6 2.043223 1_545
Ni1 O30 2.059213 1_445
Ni1 O13 2.059213 1_555
Ni1 O8 2.147264 1_555
Ni1 O35 2.147264 1_445
Ni2 O0 2.043223 1_454
Ni2 O4 2.043223 1_555
Ni2 O28 2.059213 1_455
Ni2 O15 2.059213 1_554
Ni2 O33 2.147264 1_454
Ni2 O10 2.147264 1_555
Ni3 O1 2.043223 1_455
Ni3 O5 2.043223 1_555
Ni3 O29 2.059213 1_455
Ni3 O14 2.059213 1_555
Ni3 O32 2.147264 1_455
Ni3 O11 2.147264 1_555
O0 P1 1.497407 1_556
O1 P0 1.497407 1_555
O2 P0 1.497407 1_555
O3 P1 1.497407 1_555
O4 P4 1.497407 1_555
O5 P5 1.497407 1_555
O6 P5 1.497407 1_555
O7 P4 1.497407 1_556
O8 P6 1.509355 1_555
O9 P7 1.509355 1_555
O10 P8 1.509355 1_555
O11 P9 1.509355 1_555
O12 P3 1.508022 1_545
O13 P2 1.508022 1_545
O14 P10 1.508022 1_555
O15 P11 1.508022 1_555
O16 P10 1.613819 1_555
O16 P11 1.613819 1_555
O17 P3 1.613819 1_555
O17 P2 1.613819 1_555
O18 P10 1.585886 1_555
O18 P5 1.621156 1_555
O19 P11 1.585886 1_555
O19 P4 1.621156 1_556
O20 P3 1.585886 1_555
O20 P4 1.621156 1_555
O21 P2 1.585886 1_555
O21 P5 1.621156 1_555
O22 P6 1.585886 1_555
O22 P0 1.621156 1_555
O23 P7 1.585886 1_555
O23 P1 1.621156 1_556
O24 P8 1.585886 1_555
O24 P1 1.621156 1_555
O25 P9 1.585886 1_555
O25 P0 1.621156 1_555
O26 P7 1.613819 1_555
O26 P6 1.613819 1_555
O27 P8 1.613819 1_555
O27 P9 1.613819 1_555
O28 P8 1.508022 1_555
O29 P9 1.508022 1_555
O30 P6 1.508022 1_565
O31 P7 1.508022 1_565
O32 P10 1.509355 1_555
O33 P11 1.509355 1_555
O34 P3 1.509355 1_555
O35 P2 1.509355 1_555
