# generated using pymatgen
data_Na7Zr2Ti2Si5PO24
_symmetry_space_group_name_H-M   'P 1'
_cell_length_a   9.09943540
_cell_length_b   9.08735465
_cell_length_c   22.47065887
_cell_angle_alpha   89.95238709
_cell_angle_beta   89.98265141
_cell_angle_gamma   120.07442216
_symmetry_Int_Tables_number   1
_chemical_formula_structural   Na7Zr2Ti2Si5PO24
_chemical_formula_sum   'Na21 Zr6 Ti6 Si15 P3 O72'
_cell_volume   1607.94757193
_cell_formula_units_Z   3
loop_
 _symmetry_equiv_pos_site_id
 _symmetry_equiv_pos_as_xyz
  1  'x, y, z'
loop_
 _atom_site_type_symbol
 _atom_site_label
 _atom_site_symmetry_multiplicity
 _atom_site_fract_x
 _atom_site_fract_y
 _atom_site_fract_z
 _atom_site_occupancy
  Na  Na0  1  0.63271110  0.00034974  0.25109917  1
  Na  Na1  1  0.36633247  0.36624406  0.24879114  1
  Na  Na2  1  0.00039335  0.63071392  0.25043927  1
  Na  Na3  1  0.63266893  0.62774415  0.74821102  1
  Na  Na4  1  0.99582447  0.36838506  0.74904612  1
  Na  Na5  1  0.37316343  0.00488842  0.74923358  1
  Na  Na6  1  0.29499018  0.32848143  0.58458233  1
  Na  Na7  1  0.03454123  0.70658008  0.58407400  1
  Na  Na8  1  0.67143083  0.96407004  0.58470069  1
  Na  Na9  1  0.29468888  0.97040032  0.08239979  1
  Na  Na10  1  0.03397571  0.33147704  0.08613049  1
  Na  Na11  1  0.97191952  0.67301580  0.91593148  1
  Na  Na12  1  0.32679381  0.29486551  0.91717274  1
  Na  Na13  1  0.33093106  0.03309676  0.41686488  1
  Na  Na14  1  0.70164805  0.66717694  0.41865613  1
  Na  Na15  1  0.99836771  0.00652715  0.49830346  1
  Na  Na16  1  0.98524135  0.99228934  0.99983017  1
  Na  Na17  1  0.66772192  0.32073316  0.83208454  1
  Na  Na18  1  0.67786492  0.33122878  0.33813262  1
  Na  Na19  1  0.34023780  0.66305319  0.16534560  1
  Na  Na20  1  0.33423855  0.66652025  0.66644851  1
  Zr  Zr0  1  0.66780848  0.33841205  0.18694792  1
  Zr  Zr1  1  0.66604643  0.33066521  0.98188774  1
  Zr  Zr2  1  0.33119713  0.66271566  0.01749446  1
  Zr  Zr3  1  0.33496917  0.67070807  0.51851810  1
  Zr  Zr4  1  0.32869376  0.66846086  0.31538830  1
  Zr  Zr5  1  0.33204780  0.67052865  0.81297778  1
  Ti  Ti0  1  0.99312417  0.99775788  0.35159710  1
  Ti  Ti1  1  0.00309282  0.00637117  0.84961567  1
  Ti  Ti2  1  0.99955336  0.99823799  0.64775836  1
  Ti  Ti3  1  0.00246905  0.99524369  0.14892227  1
  Ti  Ti4  1  0.66646343  0.33351618  0.68529985  1
  Ti  Ti5  1  0.67745354  0.33236169  0.48362624  1
  Si  Si0  1  0.28415595  -0.00001605  0.25148486  1
  Si  Si1  1  0.71576257  0.71716016  0.25043139  1
  Si  Si2  1  0.00051595  0.28193948  0.24908431  1
  Si  Si3  1  0.28921844  0.28476153  0.74794521  1
  Si  Si4  1  0.99492463  0.71187225  0.74918840  1
  Si  Si5  1  0.71777515  0.00433312  0.74816635  1
  Si  Si6  1  0.95297021  0.32926408  0.58586093  1
  Si  Si7  1  0.37998757  0.05115710  0.58382800  1
  Si  Si8  1  0.66987882  0.61997173  0.58409500  1
  Si  Si9  1  0.96214959  0.63601803  0.08378088  1
  Si  Si10  1  0.36502269  0.33080601  0.08496336  1
  Si  Si11  1  0.03343610  0.36233561  0.91452456  1
  Si  Si12  1  0.32958137  0.96573652  0.91511315  1
  Si  Si13  1  0.63727501  0.97178412  0.41672989  1
  Si  Si14  1  0.02922351  0.66478232  0.41699442  1
  P  P0  1  0.67058165  0.03754659  0.08561483  1
  P  P1  1  0.63250665  0.67284066  0.91482536  1
  P  P2  1  0.33195001  0.36665886  0.41688096  1
  O  O0  1  0.19327296  0.02713386  0.30961044  1
  O  O1  1  0.83310755  0.80412177  0.30974819  1
  O  O2  1  0.97313774  0.15702538  0.30579486  1
  O  O3  1  0.19832873  0.16463110  0.80691131  1
  O  O4  1  0.96807320  0.80299326  0.80773245  1
  O  O5  1  0.84390812  0.03284534  0.80460712  1
  O  O6  1  0.80769915  0.97326308  0.68951343  1
  O  O7  1  0.16512240  0.19265197  0.69033587  1
  O  O8  1  0.02626636  0.83460249  0.69083982  1
  O  O9  1  0.81295320  0.84145690  0.19396360  1
  O  O10  1  0.02888229  0.19525424  0.18965360  1
  O  O11  1  0.16692411  0.97259810  0.19222446  1
  O  O12  1  0.86203102  0.36199784  0.64359777  1
  O  O13  1  0.50226439  0.14146208  0.64233000  1
  O  O14  1  0.64000023  0.49815382  0.64271602  1
  O  O15  1  0.87830288  0.51104548  0.14175981  1
  O  O16  1  0.63882377  0.11811310  0.14164137  1
  O  O17  1  0.48156850  0.35409387  0.14357286  1
  O  O18  1  0.45223419  0.29570545  0.02678569  1
  O  O19  1  0.84868123  0.54442856  0.02466258  1
  O  O20  1  0.69915181  0.15662946  0.03166166  1
  O  O21  1  0.47092791  0.17070501  0.52536545  1
  O  O22  1  0.69833731  0.52858205  0.52592338  1
  O  O23  1  0.82733075  0.30087271  0.52865556  1
  O  O24  1  0.54238789  0.69445995  0.96919052  1
  O  O25  1  0.15623417  0.45028265  0.97306038  1
  O  O26  1  0.29932779  0.84537995  0.97355456  1
  O  O27  1  0.54917447  0.84503782  0.47475126  1
  O  O28  1  0.30765060  0.45397119  0.47265299  1
  O  O29  1  0.15590105  0.70039364  0.47433840  1
  O  O30  1  0.11716276  0.63483635  0.35785869  1
  O  O31  1  0.51219557  0.88079134  0.35874951  1
  O  O32  1  0.36138401  0.48285439  0.36173438  1
  O  O33  1  0.12660746  0.48643470  0.85695707  1
  O  O34  1  0.35870323  0.87606505  0.85652013  1
  O  O35  1  0.52019264  0.64001013  0.85882438  1
  O  O36  1  0.01822031  0.83917011  0.41089101  1
  O  O37  1  0.81969213  0.98002274  0.40939754  1
  O  O38  1  0.17587762  0.18798872  0.41121271  1
  O  O39  1  0.02501827  0.17954694  0.90786330  1
  O  O40  1  0.15408663  0.97451672  0.90899760  1
  O  O41  1  0.81209126  0.82708284  0.90946236  1
  O  O42  1  0.96881804  0.15807236  0.58929273  1
  O  O43  1  0.19063641  0.03057503  0.58948388  1
  O  O44  1  0.84012338  0.80909329  0.58959226  1
  O  O45  1  0.98592890  0.82534698  0.09053049  1
  O  O46  1  0.83383010  0.02816704  0.09029986  1
  O  O47  1  0.17659778  0.15953837  0.09006154  1
  O  O48  1  0.69815135  0.17373166  0.74391733  1
  O  O49  1  0.47692088  0.30092972  0.74356357  1
  O  O50  1  0.82523302  0.52260265  0.74397106  1
  O  O51  1  0.69991899  0.52929036  0.24728195  1
  O  O52  1  0.82985221  0.29939647  0.24704724  1
  O  O53  1  0.47410978  0.16751953  0.24753059  1
  O  O54  1  0.64594155  0.50935635  0.92104782  1
  O  O55  1  0.85342710  0.35871781  0.92026886  1
  O  O56  1  0.49127194  0.15855211  0.91920307  1
  O  O57  1  0.64018115  0.15186358  0.42491968  1
  O  O58  1  0.49466889  0.35413686  0.42186793  1
  O  O59  1  0.83824019  0.50070707  0.42456621  1
  O  O60  1  0.34083644  0.49655078  0.08094130  1
  O  O61  1  0.15246726  0.65632494  0.07904959  1
  O  O62  1  0.50809374  0.86496515  0.07804702  1
  O  O63  1  0.36254339  0.86155909  0.58014656  1
  O  O64  1  0.49791038  0.63614904  0.58044047  1
  O  O65  1  0.14084876  0.49957452  0.57994564  1
  O  O66  1  0.30089989  0.82804267  0.25335143  1
  O  O67  1  0.52653788  0.69555280  0.25430092  1
  O  O68  1  0.17163230  0.47014553  0.25407483  1
  O  O69  1  0.30925309  0.47397278  0.75228836  1
  O  O70  1  0.16682100  0.69443842  0.75151208  1
  O  O71  1  0.53021327  0.83217554  0.75214125  1
loop_
_geom_bond_atom_site_label_1
_geom_bond_atom_site_label_2
_geom_bond_distance
_geom_bond_site_symmetry_2
Na0 O52 2.392679 1_555
Na0 O67 2.434748 1_545
Na0 O53 2.567907 1_555
Na0 O66 2.613803 1_545
Na0 O31 2.652232 1_545
Na0 O16 2.670916 1_555
Na1 O68 2.391857 1_555
Na1 O53 2.449266 1_555
Na1 O67 2.593110 1_555
Na1 O17 2.610884 1_555
Na1 O51 2.627290 1_555
Na1 O32 2.760100 1_555
Na2 O66 2.404763 1_555
Na2 O51 2.409283 1_455
Na2 O52 2.607028 1_455
Na2 O68 2.615776 1_555
Na2 O30 2.630314 1_555
Na2 O15 2.678781 1_455
Na3 O50 2.381231 1_555
Na3 O71 2.462566 1_555
Na3 O69 2.549463 1_555
Na3 O49 2.573279 1_555
Na3 O14 2.663461 1_555
Na3 O35 2.711302 1_555
Na4 O48 2.382752 1_555
Na4 O69 2.513473 1_655
Na4 O50 2.562568 1_555
Na4 O70 2.565723 1_655
Na4 O12 2.651640 1_555
Na4 O33 2.678320 1_655
Na5 O49 2.366152 1_555
Na5 O70 2.485510 1_545
Na5 O48 2.562315 1_555
Na5 O71 2.599555 1_545
Na5 O34 2.653386 1_545
Na5 O13 2.687557 1_555
Na6 O43 2.380263 1_555
Na6 O64 2.461790 1_555
Na6 O65 2.565338 1_555
Na6 O42 2.571238 1_455
Na6 O7 2.664319 1_555
Na6 O28 2.739154 1_555
Na7 O44 2.380063 1_455
Na7 O65 2.511380 1_555
Na7 O43 2.551517 1_565
Na7 O63 2.585740 1_555
Na7 O8 2.684610 1_555
Na7 O29 2.713628 1_555
Na8 O42 2.379179 1_565
Na8 O63 2.480813 1_555
Na8 O44 2.553080 1_555
Na8 O64 2.582067 1_555
Na8 O6 2.643821 1_555
Na8 O27 2.704021 1_555
Na9 O45 2.439669 1_455
Na9 O47 2.447433 1_565
Na9 O61 2.474858 1_555
Na9 O62 2.561871 1_555
Na9 O26 2.706878 1_554
Na9 O11 2.732000 1_555
Na9 O18 2.846246 1_565
Na10 O60 2.421163 1_555
Na10 O46 2.427159 1_455
Na10 O47 2.483039 1_555
Na10 O61 2.590614 1_555
Na10 O10 2.623654 1_555
Na10 O25 2.765617 1_554
Na10 O20 2.908398 1_455
Na10 O15 2.924199 1_455
Na11 O40 2.392913 1_655
Na11 O41 2.477292 1_555
Na11 O55 2.498517 1_555
Na11 O54 2.569367 1_555
Na11 O19 2.696806 1_556
Na11 O4 2.710035 1_555
Na11 O26 2.886960 1_655
Na11 O33 3.001128 1_655
Na12 O56 2.373728 1_555
Na12 O39 2.408110 1_555
Na12 O40 2.528626 1_545
Na12 O54 2.562735 1_555
Na12 O18 2.713425 1_556
Na12 O3 2.743339 1_555
Na12 O25 2.859915 1_555
Na12 O35 3.018793 1_555
Na13 O38 2.445033 1_555
Na13 O57 2.464329 1_555
Na13 O36 2.489029 1_545
Na13 O58 2.527434 1_555
Na13 O0 2.704526 1_555
Na13 O21 2.746114 1_555
Na13 O29 2.917457 1_545
Na13 O31 2.937888 1_545
Na14 O59 2.394823 1_555
Na14 O37 2.493526 1_555
Na14 O36 2.501624 1_655
Na14 O58 2.504907 1_555
Na14 O22 2.711807 1_555
Na14 O1 2.733082 1_555
Na14 O27 2.894134 1_555
Na14 O32 2.972593 1_555
Na15 O37 2.510535 1_545
Na15 O38 2.545822 1_655
Na15 O36 2.546333 1_645
Na15 O42 2.554338 1_555
Na15 O44 2.627380 1_545
Na15 O43 2.631784 1_655
Na16 O45 2.541602 1_556
Na16 O41 2.548729 1_555
Na16 O46 2.566488 1_566
Na16 O39 2.583363 1_665
Na16 O40 2.607662 1_655
Na16 O47 2.609163 1_666
Na17 O48 2.482139 1_555
Na17 O56 2.490765 1_555
Na17 O55 2.513913 1_555
Na17 O49 2.587058 1_555
Na17 O50 2.587823 1_555
Na17 O54 2.705468 1_555
Na18 O57 2.451859 1_555
Na18 O59 2.455177 1_555
Na18 O52 2.566276 1_555
Na18 O58 2.590190 1_555
Na18 O53 2.653005 1_555
Na18 O51 2.660641 1_555
Na19 O60 2.428908 1_555
Na19 O67 2.541220 1_555
Na19 O61 2.565305 1_555
Na19 O68 2.588229 1_555
Na19 O62 2.594428 1_555
Na19 O66 2.613269 1_555
Na20 O70 2.534781 1_555
Na20 O69 2.535605 1_555
Na20 O64 2.537819 1_555
Na20 O71 2.543693 1_555
Na20 O63 2.550469 1_555
Na20 O65 2.551039 1_555
O0 Si0 1.629447 1_555
O0 Ti0 1.946684 1_445
O1 Si1 1.642599 1_555
O1 Ti0 1.880537 1_555
O2 Si2 1.639658 1_655
O2 Ti0 1.857020 1_545
O3 Si3 1.650282 1_555
O3 Ti1 1.892405 1_555
O4 Si4 1.637179 1_555
O4 Ti1 1.953415 1_665
O5 Si5 1.642042 1_555
O5 Ti1 1.878463 1_655
O6 Si5 1.648582 1_565
O6 Ti2 1.892378 1_555
O7 Si3 1.645262 1_555
O7 Ti2 1.908512 1_445
O8 Si4 1.650101 1_455
O8 Ti2 1.888774 1_455
O9 Si1 1.632100 1_555
O9 Ti3 1.879480 1_655
O10 Si2 1.635819 1_555
O10 Ti3 1.940126 1_545
O11 Si0 1.645730 1_565
O11 Ti3 1.880873 1_555
O12 Si6 1.644121 1_555
O12 Ti4 1.910202 1_555
O13 Si7 1.651391 1_555
O13 Ti4 1.897583 1_555
O14 Si8 1.652344 1_555
O14 Ti4 1.889664 1_555
O15 Si9 1.642475 1_555
O15 Zr0 2.036028 1_555
O16 P0 1.554945 1_555
O16 Zr0 2.141992 1_555
O17 Si10 1.637161 1_555
O17 Zr0 2.021146 1_555
O18 Si10 1.641425 1_555
O18 Zr1 2.069498 1_554
O19 Si9 1.632448 1_555
O19 Zr1 2.056140 1_554
O20 P0 1.556959 1_555
O20 Zr1 2.077897 1_554
O21 Si7 1.639124 1_555
O21 Ti5 1.949128 1_555
O22 Si8 1.637855 1_555
O22 Ti5 1.944815 1_555
O23 Si6 1.652804 1_555
O23 Ti5 1.832247 1_555
O24 P1 1.537746 1_555
O24 Zr2 2.096893 1_556
O25 Si11 1.650762 1_555
O25 Zr2 2.045018 1_556
O26 Si12 1.640786 1_555
O26 Zr2 2.072259 1_556
O27 Si13 1.655466 1_555
O27 Zr3 2.043903 1_555
O28 P2 1.557674 1_555
O28 Zr3 2.125084 1_555
O29 Si14 1.649708 1_555
O29 Zr3 2.038236 1_555
O30 Si14 1.642661 1_555
O30 Zr4 2.029278 1_555
O31 Si13 1.654091 1_555
O31 Zr4 2.058046 1_555
O32 P2 1.560906 1_555
O32 Zr4 2.125567 1_555
O33 Si11 1.643948 1_555
O33 Zr5 2.032653 1_555
O34 Si12 1.638822 1_555
O34 Zr5 2.013427 1_555
O35 P1 1.553322 1_555
O35 Zr5 2.132059 1_555
O36 Si14 1.642819 1_555
O36 Ti0 2.056962 1_455
O37 Si13 1.631949 1_555
O37 Ti0 1.986680 1_555
O38 P2 1.535817 1_555
O38 Ti0 2.161557 1_445
O39 Si11 1.631046 1_555
O39 Ti1 1.979493 1_555
O40 Si12 1.644131 1_555
O40 Ti1 2.037433 1_565
O41 P1 1.534105 1_555
O41 Ti1 2.154189 1_665
O42 Si6 1.634482 1_555
O42 Ti2 2.077990 1_545
O43 Si7 1.642153 1_555
O43 Ti2 2.076099 1_445
O44 Si8 1.643418 1_555
O44 Ti2 2.067129 1_555
O45 Si9 1.630116 1_555
O45 Ti3 1.974468 1_655
O46 P0 1.533605 1_555
O46 Ti3 2.154114 1_645
O47 Si10 1.643235 1_555
O47 Ti3 2.028175 1_545
O48 Si5 1.638894 1_555
O48 Ti4 2.084014 1_555
O49 Si3 1.642212 1_555
O49 Ti4 2.064596 1_555
O50 Si4 1.641624 1_555
O50 Ti4 2.072379 1_555
O51 Si1 1.641336 1_555
O51 Zr0 2.104369 1_555
O52 Si2 1.638852 1_655
O52 Zr0 2.155926 1_555
O53 Si0 1.635734 1_555
O53 Zr0 2.150163 1_555
O54 P1 1.556700 1_555
O54 Zr1 2.198519 1_555
O55 Si11 1.626842 1_655
O55 Zr1 2.109910 1_555
O56 Si12 1.630912 1_545
O56 Zr1 2.114607 1_555
O57 Si13 1.633907 1_545
O57 Ti5 1.997995 1_555
O58 P2 1.544919 1_555
O58 Ti5 2.249925 1_555
O59 Si14 1.635415 1_655
O59 Ti5 1.998583 1_555
O60 Si10 1.630092 1_555
O60 Zr2 2.109415 1_555
O61 Si9 1.650452 1_455
O61 Zr2 2.113149 1_555
O62 P0 1.533354 1_565
O62 Zr2 2.204706 1_555
O63 Si7 1.651278 1_565
O63 Zr3 2.134639 1_555
O64 Si8 1.645485 1_555
O64 Zr3 2.168005 1_555
O65 Si6 1.638089 1_455
O65 Zr3 2.164641 1_555
O66 Si0 1.644641 1_565
O66 Zr4 2.115343 1_555
O67 Si1 1.634586 1_555
O67 Zr4 2.177050 1_555
O68 Si2 1.641197 1_555
O68 Zr4 2.147662 1_555
O69 Si3 1.638696 1_555
O69 Zr5 2.173959 1_555
O70 Si4 1.650097 1_455
O70 Zr5 2.131534 1_555
O71 Si5 1.640717 1_565
O71 Zr5 2.149073 1_555
