# generated using pymatgen
data_Na2Zr4Ti4Si5S7O48
_symmetry_space_group_name_H-M   'P 1'
_cell_length_a   17.72956016
_cell_length_b   8.85701590
_cell_length_c   23.09433813
_cell_angle_alpha   89.83277805
_cell_angle_beta   90.49569051
_cell_angle_gamma   120.04507874
_symmetry_Int_Tables_number   1
_chemical_formula_structural   Na2Zr4Ti4Si5S7O48
_chemical_formula_sum   'Na6 Zr12 Ti12 Si15 S21 O144'
_cell_volume   3139.11518308
_cell_formula_units_Z   3
loop_
 _symmetry_equiv_pos_site_id
 _symmetry_equiv_pos_as_xyz
  1  'x, y, z'
loop_
 _atom_site_type_symbol
 _atom_site_label
 _atom_site_symmetry_multiplicity
 _atom_site_fract_x
 _atom_site_fract_y
 _atom_site_fract_z
 _atom_site_occupancy
  Na  Na0  1  0.99482307  0.00142784  0.49881487  1
  Na  Na1  1  0.49386975  0.98961851  0.99393076  1
  Na  Na2  1  0.34015597  0.34241749  0.83187783  1
  Na  Na3  1  0.83179540  0.34157678  0.82942226  1
  Na  Na4  1  0.33474497  0.32685055  0.33165178  1
  Na  Na5  1  0.83591791  0.33604089  0.33570809  1
  Zr  Zr0  1  0.99804056  0.98443739  0.35722521  1
  Zr  Zr1  1  0.49611187  0.00039759  0.85317769  1
  Zr  Zr2  1  0.00268313  -0.00032089  0.64803990  1
  Zr  Zr3  1  0.50103938  0.00474715  0.14736077  1
  Zr  Zr4  1  0.84181812  0.35093376  0.68983332  1
  Zr  Zr5  1  0.34248763  0.33250108  0.18947735  1
  Zr  Zr6  1  0.33663164  0.34941688  0.97547231  1
  Zr  Zr7  1  0.84206820  0.33004413  0.97846350  1
  Zr  Zr8  1  0.34165538  0.35366305  0.48124325  1
  Zr  Zr9  1  0.83572168  0.32211041  0.47700944  1
  Zr  Zr10  1  0.15903588  0.67129184  0.30796544  1
  Zr  Zr11  1  0.65549679  0.64534853  0.80488817  1
  Ti  Ti0  1  0.49920468  0.01103881  0.36076979  1
  Ti  Ti1  1  0.99881993  0.98832299  0.85951236  1
  Ti  Ti2  1  0.50071620  0.99178507  0.64900029  1
  Ti  Ti3  1  0.00058122  0.99335463  0.14388893  1
  Ti  Ti4  1  0.33897075  0.35550740  0.68419459  1
  Ti  Ti5  1  0.83148381  0.31946989  0.18252853  1
  Ti  Ti6  1  0.16578405  0.64762561  0.01368845  1
  Ti  Ti7  1  0.65990509  0.66286659  0.02656851  1
  Ti  Ti8  1  0.16081996  0.65994393  0.52937529  1
  Ti  Ti9  1  0.66445743  0.68615588  0.51630010  1
  Ti  Ti10  1  0.66005160  0.66847004  0.31372275  1
  Ti  Ti11  1  0.16218968  0.65276671  0.81194136  1
  Si  Si0  1  0.14253333  0.00993694  0.24818921  1
  Si  Si1  1  0.50631719  0.29239397  0.25476129  1
  Si  Si2  1  0.64255765  0.27471824  0.74767470  1
  Si  Si3  1  0.00607818  0.71939283  0.75502018  1
  Si  Si4  1  0.49542281  0.71217629  0.74937210  1
  Si  Si5  1  0.97979090  0.32897350  0.58323133  1
  Si  Si6  1  0.33486939  0.63621446  0.58458387  1
  Si  Si7  1  0.48017944  0.63032960  0.08275688  1
  Si  Si8  1  0.83416332  0.03407436  0.08389433  1
  Si  Si9  1  0.30776472  0.66881729  0.91397828  1
  Si  Si10  1  0.02606320  0.37433614  0.91221557  1
  Si  Si11  1  0.52622405  0.37856567  0.91989504  1
  Si  Si12  1  0.80571734  0.94529062  0.41441163  1
  Si  Si13  1  0.02584242  0.66601045  0.42065546  1
  Si  Si14  1  0.52441302  0.67544686  0.41307189  1
  S  S0  1  0.64844606  0.00583480  0.25184558  1
  S  S1  1  0.35837903  0.71514868  0.25370656  1
  S  S2  1  0.85377355  0.70356493  0.24659985  1
  S  S3  1  0.99464317  0.28107881  0.24678826  1
  S  S4  1  0.14714750  0.28901374  0.75274656  1
  S  S5  1  0.35165067  0.00115421  0.74710400  1
  S  S6  1  0.85975200  0.00185659  0.75376831  1
  S  S7  1  0.48031390  0.33488607  0.58541520  1
  S  S8  1  0.19202431  0.04477815  0.58334611  1
  S  S9  1  0.68524328  0.03849518  0.58345518  1
  S  S10  1  0.82742804  0.62252385  0.58088450  1
  S  S11  1  0.97828302  0.62238223  0.08602194  1
  S  S12  1  0.32705617  0.03222264  0.08119291  1
  S  S13  1  0.18442314  0.33213835  0.08411457  1
  S  S14  1  0.69287716  0.33981598  0.08344873  1
  S  S15  1  0.81220118  0.67218256  0.91709399  1
  S  S16  1  0.16322386  0.94285646  0.91590063  1
  S  S17  1  0.66725137  0.95027652  0.91860237  1
  S  S18  1  0.31167265  0.95248925  0.41685755  1
  S  S19  1  0.16727378  0.38309592  0.41783299  1
  S  S20  1  0.66343232  0.38387529  0.41594998  1
  O  O0  1  0.09710833  0.03392626  0.30548819  1
  O  O1  1  0.60924750  0.03753223  0.30260661  1
  O  O2  1  0.41398683  0.79997671  0.30478444  1
  O  O3  1  0.90971656  0.78021169  0.29996716  1
  O  O4  1  0.49225121  0.15886235  0.30904996  1
  O  O5  1  0.97643727  0.17910890  0.30048686  1
  O  O6  1  0.10501582  0.17860276  0.80317760  1
  O  O7  1  0.59872548  0.16295062  0.80613522  1
  O  O8  1  0.47258850  0.78180100  0.80732374  1
  O  O9  1  0.99171280  0.82425706  0.80909504  1
  O  O10  1  0.40756968  0.04216974  0.80079514  1
  O  O11  1  0.91601327  0.02972953  0.80483528  1
  O  O12  1  0.39407719  0.97389022  0.69697012  1
  O  O13  1  0.89956461  0.98036257  0.70000763  1
  O  O14  1  0.09325886  0.21299710  0.69888099  1
  O  O15  1  0.58052287  0.18220622  0.69107536  1
  O  O16  1  0.01560825  0.82778228  0.69562573  1
  O  O17  1  0.50562109  0.83080805  0.69285353  1
  O  O18  1  0.39763159  0.81755679  0.20004327  1
  O  O19  1  0.89734593  0.81637097  0.19593877  1
  O  O20  1  0.00602192  0.19610054  0.19631283  1
  O  O21  1  0.51568215  0.20253000  0.19576665  1
  O  O22  1  0.07946802  0.98377653  0.19201407  1
  O  O23  1  0.59506322  0.97676188  0.19849783  1
  O  O24  1  0.43579147  0.36448464  0.63538491  1
  O  O25  1  0.93587897  0.36130473  0.63927314  1
  O  O26  1  0.24344071  0.12958126  0.63535329  1
  O  O27  1  0.74243003  0.11703941  0.63397621  1
  O  O28  1  0.31849734  0.49617821  0.63911622  1
  O  O29  1  0.81708904  0.51944983  0.63411230  1
  O  O30  1  0.43657001  0.51045794  0.13965450  1
  O  O31  1  0.93269587  0.50702320  0.13664178  1
  O  O32  1  0.31687516  0.11413845  0.13468303  1
  O  O33  1  0.81911704  0.14454351  0.13978907  1
  O  O34  1  0.24126294  0.36555788  0.13510415  1
  O  O35  1  0.74600184  0.35635738  0.13641754  1
  O  O36  1  0.22052907  0.29409589  0.03257174  1
  O  O37  1  0.73235214  0.31066934  0.03194430  1
  O  O38  1  0.41662816  0.53895505  0.02713725  1
  O  O39  1  0.92286501  0.54887920  0.03331895  1
  O  O40  1  0.34254632  0.14512534  0.03086573  1
  O  O41  1  0.85530431  0.17012059  0.03049974  1
  O  O42  1  0.23089805  0.15099417  0.53065187  1
  O  O43  1  0.72440961  0.14788894  0.53121388  1
  O  O44  1  0.35319905  0.54160178  0.52929727  1
  O  O45  1  0.84281293  0.54019843  0.53020467  1
  O  O46  1  0.42367077  0.30204842  0.53214635  1
  O  O47  1  0.91794188  0.29616067  0.52644176  1
  O  O48  1  0.25744888  0.68567639  0.97349004  1
  O  O49  1  0.77544204  0.70074894  0.96915969  1
  O  O50  1  0.08285382  0.47043518  0.97207389  1
  O  O51  1  0.58879534  0.48871649  0.97567153  1
  O  O52  1  0.14854550  0.83578821  0.96901519  1
  O  O53  1  0.66137551  0.85078059  0.97106837  1
  O  O54  1  0.27470462  0.84970254  0.46826423  1
  O  O55  1  0.75770018  0.82800897  0.47363265  1
  O  O56  1  0.15993379  0.46892889  0.46953364  1
  O  O57  1  0.64840006  0.45856386  0.46844735  1
  O  O58  1  0.08902852  0.68811941  0.47502662  1
  O  O59  1  0.58268663  0.69599409  0.47207461  1
  O  O60  1  0.06728109  0.63767059  0.36113514  1
  O  O61  1  0.57051150  0.64213364  0.35731035  1
  O  O62  1  0.25890154  0.87216570  0.36340832  1
  O  O63  1  0.74896902  0.84149921  0.35778403  1
  O  O64  1  0.18120053  0.48374529  0.36398954  1
  O  O65  1  0.67792094  0.48905925  0.36355472  1
  O  O66  1  0.07168345  0.50052955  0.85699591  1
  O  O67  1  0.56691361  0.49529434  0.86181594  1
  O  O68  1  0.17842796  0.86766158  0.86414961  1
  O  O69  1  0.68289592  0.88095798  0.86561961  1
  O  O70  1  0.24946199  0.65754001  0.85821492  1
  O  O71  1  0.76023036  0.64500418  0.86439113  1
  O  O72  1  0.01850938  0.84351940  0.41611930  1
  O  O73  1  0.51618994  0.84756089  0.40017288  1
  O  O74  1  0.40052099  0.97245385  0.40754663  1
  O  O75  1  0.90337084  0.97346996  0.41145032  1
  O  O76  1  0.08628895  0.20906317  0.41259809  1
  O  O77  1  0.58519293  0.20462304  0.40813957  1
  O  O78  1  0.01655346  0.18475733  0.90084658  1
  O  O79  1  0.51922697  0.18923275  0.91716197  1
  O  O80  1  0.08493825  0.96381122  0.90880820  1
  O  O81  1  0.58756790  0.96407662  0.91486893  1
  O  O82  1  0.40349242  0.83753226  0.91522522  1
  O  O83  1  0.90161619  0.82941120  0.90841358  1
  O  O84  1  0.48729808  0.18036547  0.59449289  1
  O  O85  1  0.99383209  0.16185702  0.58897022  1
  O  O86  1  0.10251448  0.02228819  0.58810493  1
  O  O87  1  0.59782911  0.01505368  0.59088966  1
  O  O88  1  0.41644076  0.82525210  0.59822494  1
  O  O89  1  0.90700921  0.79953233  0.58809482  1
  O  O90  1  0.49451408  0.82576887  0.09023006  1
  O  O91  1  0.98488771  0.79508587  0.09539240  1
  O  O92  1  0.40675296  0.01428083  0.08893865  1
  O  O93  1  0.91804336  0.01777868  0.10288036  1
  O  O94  1  0.09531739  0.17973483  0.09424602  1
  O  O95  1  0.60475798  0.18334576  0.09026521  1
  O  O96  1  0.34114269  0.15695706  0.73772687  1
  O  O97  1  0.85080256  0.15901543  0.74751560  1
  O  O98  1  0.23362447  0.30351078  0.74435407  1
  O  O99  1  0.73824377  0.29276664  0.73984031  1
  O  O100  1  0.41195224  0.51047426  0.73657865  1
  O  O101  1  0.91773040  0.52684620  0.75069093  1
  O  O102  1  0.34900955  0.53990943  0.24742272  1
  O  O103  1  0.84597804  0.52825611  0.23829082  1
  O  O104  1  0.41794623  0.30842526  0.25061374  1
  O  O105  1  0.91909791  0.31331473  0.23779351  1
  O  O106  1  0.23840027  0.17865218  0.24045871  1
  O  O107  1  0.73694181  0.16632990  0.24227370  1
  O  O108  1  0.30779324  0.48452950  0.91847928  1
  O  O109  1  0.82450964  0.51683040  0.92359127  1
  O  O110  1  0.42672540  0.34962007  0.92483297  1
  O  O111  1  0.93011560  0.35729138  0.92058914  1
  O  O112  1  0.23969300  0.11923538  0.92380886  1
  O  O113  1  0.74372386  0.13414630  0.92553415  1
  O  O114  1  0.32292997  0.13054909  0.42111345  1
  O  O115  1  0.80774986  0.13153439  0.41814538  1
  O  O116  1  0.24262872  0.35158559  0.42349337  1
  O  O117  1  0.74009457  0.36000827  0.42220138  1
  O  O118  1  0.42860936  0.50158577  0.42005133  1
  O  O119  1  0.92601060  0.50075765  0.42327741  1
  O  O120  1  0.17489421  0.48880606  0.07408841  1
  O  O121  1  0.68622856  0.49705984  0.07833979  1
  O  O122  1  0.06379807  0.64072587  0.07816353  1
  O  O123  1  0.57572618  0.64822303  0.07192246  1
  O  O124  1  0.25009096  0.85971705  0.07330027  1
  O  O125  1  0.75055259  0.84857044  0.06986306  1
  O  O126  1  0.18372813  0.87134157  0.57676303  1
  O  O127  1  0.67684000  0.86227387  0.57303000  1
  O  O128  1  0.24871805  0.64872617  0.56892409  1
  O  O129  1  0.75032849  0.64015110  0.57243411  1
  O  O130  1  0.07502268  0.50298277  0.57259967  1
  O  O131  1  0.56542837  0.49253025  0.57525862  1
  O  O132  1  0.15168100  0.83551129  0.25493272  1
  O  O133  1  0.65938609  0.85239516  0.25862180  1
  O  O134  1  0.27160694  0.69560037  0.26012412  1
  O  O135  1  0.76882085  0.68721552  0.25520346  1
  O  O136  1  0.07429634  0.45452623  0.25337149  1
  O  O137  1  0.59164604  0.48142351  0.26599570  1
  O  O138  1  0.15699331  0.46453316  0.75901365  1
  O  O139  1  0.65646178  0.47008430  0.75456447  1
  O  O140  1  0.09157895  0.70227192  0.76615715  1
  O  O141  1  0.58269824  0.69943033  0.75366330  1
  O  O142  1  0.26656328  0.84583480  0.75704944  1
  O  O143  1  0.77424926  0.84740111  0.76038947  1
loop_
_geom_bond_atom_site_label_1
_geom_bond_atom_site_label_2
_geom_bond_distance
_geom_bond_site_symmetry_2
Na0 O75 2.511048 1_545
Na0 O85 2.529285 1_555
Na0 O72 2.529303 1_645
Na0 O76 2.650378 1_655
Na0 O89 2.668152 1_545
Na0 O86 2.740936 1_655
Na1 O82 2.342738 1_555
Na1 O79 2.381329 1_565
Na1 O81 2.564354 1_555
Na1 O90 2.655094 1_556
Na1 O92 2.765298 1_566
Na1 O95 2.885755 1_566
Na2 O108 2.582880 1_555
Na2 O100 2.609940 1_555
Na2 O110 2.610368 1_555
Na2 O98 2.656704 1_555
Na2 O96 2.734342 1_555
Na2 O112 2.846534 1_555
Na3 O101 2.418061 1_555
Na3 O99 2.538868 1_555
Na3 O97 2.623105 1_555
Na3 O111 2.680700 1_555
Na3 O109 2.716810 1_555
Na3 O113 2.811379 1_555
Na4 O104 2.448635 1_555
Na4 O118 2.590965 1_555
Na4 O106 2.604770 1_555
Na4 O102 2.630214 1_555
Na4 O114 2.637648 1_555
Na4 O116 2.763139 1_555
Na5 O115 2.499074 1_555
Na5 O119 2.529335 1_555
Na5 O107 2.703144 1_555
Na5 O117 2.709926 1_555
Na5 O103 2.769878 1_555
Na5 O105 2.772427 1_555
O0 Si0 1.623658 1_555
O0 Zr0 1.991761 1_445
O1 S0 1.465424 1_555
O1 Ti0 2.291478 1_555
O2 S1 1.473526 1_555
O2 Ti0 2.145016 1_565
O3 S2 1.507685 1_555
O3 Zr0 2.148109 1_555
O4 Si1 1.653565 1_555
O4 Ti0 1.818249 1_555
O5 S3 1.471825 1_555
O5 Zr0 2.340086 1_545
O6 S4 1.465496 1_555
O6 Ti1 2.220364 1_445
O7 Si2 1.626861 1_555
O7 Zr1 1.991272 1_555
O8 Si4 1.612313 1_555
O8 Zr1 2.059038 1_565
O9 Si3 1.654151 1_655
O9 Ti1 1.818566 1_555
O10 S5 1.507679 1_555
O10 Zr1 2.147274 1_555
O11 S6 1.477014 1_555
O11 Ti1 2.094935 1_545
O12 S5 1.470793 1_565
O12 Ti2 2.135922 1_555
O13 S6 1.492338 1_565
O13 Zr2 2.129716 1_665
O14 S4 1.501276 1_555
O14 Zr2 2.114056 1_555
O15 Si2 1.633579 1_555
O15 Ti2 1.840348 1_545
O16 Si3 1.632652 1_555
O16 Zr2 1.978246 1_565
O17 Si4 1.626730 1_555
O17 Ti2 1.783337 1_555
O18 S1 1.489699 1_555
O18 Zr3 2.138545 1_565
O19 S2 1.483179 1_555
O19 Ti3 2.099108 1_655
O20 S3 1.458518 1_455
O20 Ti3 2.130006 1_545
O21 Si1 1.630918 1_555
O21 Zr3 1.984137 1_555
O22 Si0 1.644436 1_565
O22 Ti3 1.813828 1_555
O23 S0 1.489166 1_565
O23 Zr3 2.147794 1_565
O24 S7 1.499440 1_555
O24 Ti4 2.029759 1_555
O25 Si5 1.614325 1_555
O25 Zr4 2.008136 1_555
O26 S8 1.462332 1_555
O26 Ti4 2.175178 1_555
O27 S9 1.466703 1_555
O27 Zr4 2.319813 1_555
O28 Si6 1.686820 1_555
O28 Ti4 1.790708 1_555
O29 S10 1.485899 1_555
O29 Zr4 2.170298 1_555
O30 Si7 1.624525 1_555
O30 Zr5 1.995126 1_555
O31 S11 1.498758 1_555
O31 Ti5 2.034751 1_555
O32 S12 1.491716 1_555
O32 Zr5 2.161703 1_555
O33 Si8 1.723217 1_555
O33 Ti5 1.757199 1_555
O34 S13 1.473988 1_555
O34 Zr5 2.316982 1_555
O35 S14 1.499313 1_555
O35 Ti5 2.000886 1_555
O36 S13 1.473686 1_555
O36 Zr6 2.291159 1_554
O37 S14 1.472549 1_555
O37 Zr7 2.246080 1_554
O38 Si7 1.625533 1_555
O38 Zr6 1.962552 1_554
O39 S11 1.487967 1_555
O39 Zr7 2.148562 1_554
O40 S12 1.466288 1_555
O40 Zr6 2.257363 1_554
O41 Si8 1.630969 1_555
O41 Zr7 1.955405 1_554
O42 S8 1.483086 1_555
O42 Zr8 2.208473 1_555
O43 S9 1.486776 1_555
O43 Zr9 2.196572 1_555
O44 Si6 1.650512 1_555
O44 Zr8 1.926140 1_555
O45 S10 1.478383 1_555
O45 Zr9 2.241462 1_555
O46 S7 1.514850 1_555
O46 Zr8 2.082857 1_555
O47 Si5 1.632543 1_555
O47 Zr9 1.945824 1_555
O48 Si9 1.691991 1_555
O48 Ti6 1.758535 1_556
O49 S15 1.454316 1_555
O49 Ti7 2.328638 1_556
O50 Si10 1.665492 1_555
O50 Ti6 1.795033 1_556
O51 Si11 1.655471 1_555
O51 Ti7 1.840632 1_556
O52 S16 1.491066 1_555
O52 Ti6 2.104706 1_556
O53 S17 1.469555 1_555
O53 Ti7 2.087653 1_556
O54 S18 1.441349 1_555
O54 Ti8 2.351750 1_555
O55 Si12 1.673508 1_555
O55 Ti9 1.795418 1_555
O56 S19 1.458611 1_555
O56 Ti8 2.181536 1_555
O57 S20 1.471512 1_555
O57 Ti9 2.190583 1_555
O58 Si13 1.620943 1_555
O58 Ti8 1.883179 1_555
O59 Si14 1.657141 1_555
O59 Ti9 1.803588 1_555
O60 Si13 1.642072 1_555
O60 Zr10 1.946841 1_555
O61 Si14 1.635641 1_555
O61 Ti10 1.800932 1_555
O62 S18 1.491238 1_555
O62 Zr10 2.181610 1_555
O63 Si12 1.620408 1_555
O63 Ti10 1.852403 1_555
O64 S19 1.476592 1_555
O64 Zr10 2.284736 1_555
O65 S20 1.468754 1_555
O65 Ti10 2.106417 1_555
O66 Si10 1.622964 1_555
O66 Ti11 1.824750 1_555
O67 Si11 1.627939 1_555
O67 Zr11 1.974024 1_555
O68 S16 1.461032 1_555
O68 Ti11 2.148946 1_555
O69 S17 1.460089 1_555
O69 Zr11 2.355430 1_555
O70 Si9 1.615945 1_555
O70 Ti11 1.855829 1_555
O71 S15 1.465805 1_555
O71 Zr11 2.301713 1_555
O72 Si13 1.644133 1_555
O72 Zr0 1.993621 1_455
O73 Si14 1.628800 1_555
O73 Ti0 1.854575 1_565
O74 S18 1.511822 1_555
O74 Ti0 1.943391 1_565
O75 Si12 1.622897 1_555
O75 Zr0 2.065737 1_555
O76 S19 1.494667 1_555
O76 Zr0 2.214649 1_445
O77 S20 1.506442 1_555
O77 Ti0 1.955852 1_555
O78 Si10 1.623290 1_555
O78 Ti1 1.869174 1_445
O79 Si11 1.619759 1_555
O79 Zr1 2.113378 1_555
O80 S16 1.497190 1_555
O80 Ti1 1.993706 1_455
O81 S17 1.479523 1_555
O81 Zr1 2.289580 1_565
O82 Si9 1.604402 1_555
O82 Zr1 2.118332 1_565
O83 S15 1.511894 1_555
O83 Ti1 1.954974 1_555
O84 S7 1.449103 1_555
O84 Ti2 2.193492 1_545
O85 Si5 1.624086 1_555
O85 Zr2 2.039474 1_655
O86 S8 1.502190 1_555
O86 Zr2 2.185092 1_555
O87 S9 1.468569 1_555
O87 Ti2 2.119207 1_545
O88 Si6 1.601434 1_555
O88 Ti2 1.885753 1_555
O89 S10 1.502928 1_555
O89 Zr2 2.213355 1_665
O90 Si7 1.628258 1_555
O90 Zr3 2.023120 1_565
O91 S11 1.490795 1_555
O91 Ti3 1.983029 1_655
O92 S12 1.508010 1_555
O92 Zr3 2.173389 1_555
O93 Si8 1.621112 1_555
O93 Ti3 1.837653 1_645
O94 S13 1.497252 1_555
O94 Ti3 2.026428 1_545
O95 S14 1.490335 1_555
O95 Zr3 2.177014 1_555
O96 S5 1.496950 1_555
O96 Ti4 2.162578 1_555
O97 S6 1.484308 1_555
O97 Zr4 2.223421 1_555
O98 S4 1.487486 1_555
O98 Ti4 2.193323 1_555
O99 Si2 1.633981 1_555
O99 Zr4 2.014235 1_555
O100 Si4 1.678393 1_555
O100 Ti4 1.796079 1_555
O101 Si3 1.641717 1_655
O101 Zr4 2.023493 1_555
O102 S1 1.483367 1_555
O102 Zr5 2.231094 1_555
O103 S2 1.501076 1_555
O103 Ti5 2.162497 1_555
O104 Si1 1.644452 1_555
O104 Zr5 2.019904 1_555
O105 S3 1.515385 1_555
O105 Ti5 2.023598 1_555
O106 Si0 1.616828 1_555
O106 Zr5 2.039303 1_555
O107 S0 1.517260 1_555
O107 Ti5 2.074990 1_555
O108 Si9 1.635496 1_555
O108 Zr6 2.004440 1_555
O109 S15 1.504093 1_555
O109 Zr7 2.221799 1_555
O110 Si11 1.655627 1_555
O110 Zr6 1.987099 1_555
O111 Si10 1.643874 1_655
O111 Zr7 1.984563 1_555
O112 S16 1.479333 1_545
O112 Zr6 2.236928 1_555
O113 S17 1.517487 1_545
O113 Zr7 2.119177 1_555
O114 S18 1.490652 1_545
O114 Zr8 2.301031 1_555
O115 Si12 1.634334 1_545
O115 Zr9 2.026476 1_555
O116 S19 1.500013 1_555
O116 Zr8 2.188342 1_555
O117 S20 1.482248 1_555
O117 Zr9 2.262638 1_555
O118 Si14 1.632934 1_555
O118 Zr8 2.023520 1_555
O119 Si13 1.638880 1_655
O119 Zr9 2.023002 1_555
O120 S13 1.496599 1_555
O120 Ti6 2.040270 1_555
O121 S14 1.459676 1_555
O121 Ti7 2.114328 1_555
O122 S11 1.454631 1_455
O122 Ti6 2.329325 1_555
O123 Si7 1.641838 1_555
O123 Ti7 1.781503 1_555
O124 S12 1.462624 1_565
O124 Ti6 2.196832 1_555
O125 Si8 1.599329 1_565
O125 Ti7 1.903346 1_555
O126 S8 1.476201 1_565
O126 Ti8 2.027590 1_555
O127 S9 1.511609 1_565
O127 Ti9 1.965177 1_555
O128 Si6 1.623516 1_555
O128 Ti8 1.844605 1_555
O129 S10 1.462840 1_555
O129 Ti9 2.179095 1_555
O130 Si5 1.638771 1_455
O130 Ti8 1.773028 1_555
O131 S7 1.475158 1_555
O131 Ti9 2.211396 1_555
O132 Si0 1.638994 1_565
O132 Zr10 1.951754 1_555
O133 S0 1.473509 1_565
O133 Ti10 2.068832 1_555
O134 S1 1.468258 1_555
O134 Zr10 2.203840 1_555
O135 S2 1.454516 1_555
O135 Ti10 2.301313 1_555
O136 S3 1.484139 1_455
O136 Zr10 2.150772 1_555
O137 Si1 1.618183 1_555
O137 Ti10 1.845516 1_555
O138 S4 1.482319 1_555
O138 Ti11 2.034265 1_555
O139 Si2 1.629117 1_555
O139 Zr11 1.948883 1_555
O140 Si3 1.615637 1_555
O140 Ti11 1.844331 1_555
O141 Si4 1.609060 1_555
O141 Zr11 1.970831 1_555
O142 S5 1.465270 1_565
O142 Ti11 2.194259 1_555
O143 S6 1.455690 1_565
O143 Zr11 2.223796 1_555
