# generated using pymatgen
data_Na10Ti8Si9(SO16)3
_symmetry_space_group_name_H-M   'P 1'
_cell_length_a   17.74588357
_cell_length_b   8.88825142
_cell_length_c   22.30716797
_cell_angle_alpha   90.04711850
_cell_angle_beta   89.94418167
_cell_angle_gamma   119.94271427
_symmetry_Int_Tables_number   1
_chemical_formula_structural   Na10Ti8Si9(SO16)3
_chemical_formula_sum   'Na30 Ti24 Si27 S9 O144'
_cell_volume   3048.87202889
_cell_formula_units_Z   3
loop_
 _symmetry_equiv_pos_site_id
 _symmetry_equiv_pos_as_xyz
  1  'x, y, z'
loop_
 _atom_site_type_symbol
 _atom_site_label
 _atom_site_symmetry_multiplicity
 _atom_site_fract_x
 _atom_site_fract_y
 _atom_site_fract_z
 _atom_site_occupancy
  Na  Na0  1  0.31798128  0.99916068  0.24987241  1
  Na  Na1  1  0.81802501  0.99984127  0.24991064  1
  Na  Na2  1  0.18377671  0.99425874  0.74865846  1
  Na  Na3  1  0.68376362  0.99969246  0.74816193  1
  Na  Na4  1  0.01809380  0.70181951  0.58133620  1
  Na  Na5  1  0.51801673  0.70221804  0.58124762  1
  Na  Na6  1  0.01815746  0.33473996  0.08118515  1
  Na  Na7  1  0.51637836  0.33091929  0.08189538  1
  Na  Na8  1  0.48306432  0.66481278  0.91575189  1
  Na  Na9  1  0.34960134  0.03295657  0.91629263  1
  Na  Na10  1  0.85169831  0.03807203  0.91516048  1
  Na  Na11  1  0.16460516  0.30252884  0.91777754  1
  Na  Na12  1  0.48375472  0.30255486  0.41628109  1
  Na  Na13  1  0.98381068  0.30274547  0.41630409  1
  Na  Na14  1  0.16561623  0.03023521  0.41704467  1
  Na  Na15  1  0.66563663  0.03041010  0.41702690  1
  Na  Na16  1  0.35032348  0.66664726  0.41650827  1
  Na  Na17  1  0.85039624  0.66656318  0.41649400  1
  Na  Na18  1  0.00166532  0.00500004  0.50162676  1
  Na  Na19  1  0.50167181  0.00487283  0.50160396  1
  Na  Na20  1  0.00285272  0.99352724  0.00135714  1
  Na  Na21  1  0.50492488  0.00504501  0.99989604  1
  Na  Na22  1  0.33916926  0.34075417  0.83152831  1
  Na  Na23  1  0.83997618  0.34548661  0.83276980  1
  Na  Na24  1  0.33692729  0.34386711  0.33132062  1
  Na  Na25  1  0.83684294  0.34361569  0.33122358  1
  Na  Na26  1  0.16930199  0.66412142  0.16613140  1
  Na  Na27  1  0.66958231  0.66389421  0.16772906  1
  Na  Na28  1  0.17217009  0.66747746  0.66711080  1
  Na  Na29  1  0.67269464  0.66612015  0.66555580  1
  Ti  Ti0  1  0.99227179  0.99339196  0.35313056  1
  Ti  Ti1  1  0.49234294  0.99325058  0.35308044  1
  Ti  Ti2  1  0.99609627  0.99246050  0.85180804  1
  Ti  Ti3  1  0.49415558  0.99547895  0.85497258  1
  Ti  Ti4  1  0.99344485  0.97751923  0.64653443  1
  Ti  Ti5  1  0.49376511  0.97941219  0.64636309  1
  Ti  Ti6  1  0.99480862  0.01106982  0.14639645  1
  Ti  Ti7  1  0.49450600  0.01181697  0.14658247  1
  Ti  Ti8  1  0.33268260  0.33270002  0.68646138  1
  Ti  Ti9  1  0.83248904  0.33424985  0.68682115  1
  Ti  Ti10  1  0.32947007  0.33510368  0.18681066  1
  Ti  Ti11  1  0.83102740  0.33905208  0.18618686  1
  Ti  Ti12  1  0.32576486  0.31469937  0.97839179  1
  Ti  Ti13  1  0.82865411  0.31509544  0.98076032  1
  Ti  Ti14  1  0.32722317  0.33565386  0.47969888  1
  Ti  Ti15  1  0.82732564  0.33550571  0.47973406  1
  Ti  Ti16  1  0.17409311  0.67230111  0.01803698  1
  Ti  Ti17  1  0.66689066  0.66683086  0.02063519  1
  Ti  Ti18  1  0.17471263  0.67864647  0.51862571  1
  Ti  Ti19  1  0.67466866  0.67876438  0.51846784  1
  Ti  Ti20  1  0.16463764  0.64966176  0.31453969  1
  Ti  Ti21  1  0.66470817  0.65005522  0.31467278  1
  Ti  Ti22  1  0.16569826  0.67174758  0.81597033  1
  Ti  Ti23  1  0.66146761  0.67679430  0.81187118  1
  Si  Si0  1  0.35437370  0.70585815  0.24899357  1
  Si  Si1  1  0.85440060  0.70621091  0.24901271  1
  Si  Si2  1  0.00080483  0.29645679  0.25036884  1
  Si  Si3  1  0.50088017  0.29684634  0.25059108  1
  Si  Si4  1  0.99758175  0.70196764  0.75035621  1
  Si  Si5  1  0.49512576  0.70466304  0.75068394  1
  Si  Si6  1  0.35469855  0.99885973  0.74964770  1
  Si  Si7  1  0.85521705  0.99950958  0.75004141  1
  Si  Si8  1  0.18775720  0.04426086  0.58443053  1
  Si  Si9  1  0.68794576  0.04452950  0.58457718  1
  Si  Si10  1  0.32877043  0.61816229  0.58391945  1
  Si  Si11  1  0.82874138  0.61821870  0.58367272  1
  Si  Si12  1  0.32830536  0.03891334  0.08427794  1
  Si  Si13  1  0.82879623  0.03859469  0.08492371  1
  Si  Si14  1  0.18750586  0.33204601  0.08353903  1
  Si  Si15  1  0.68831493  0.33152357  0.08298089  1
  Si  Si16  1  0.31075997  0.66328316  0.91514513  1
  Si  Si17  1  0.02132781  0.38215159  0.91737774  1
  Si  Si18  1  0.52471102  0.37807081  0.91702898  1
  Si  Si19  1  0.16084280  0.94703015  0.91750806  1
  Si  Si20  1  0.66527398  0.95768289  0.91739801  1
  Si  Si21  1  0.31020686  0.95763336  0.41446926  1
  Si  Si22  1  0.81023766  0.95770570  0.41446762  1
  Si  Si23  1  0.16443540  0.37614277  0.41813079  1
  Si  Si24  1  0.66447919  0.37611662  0.41814067  1
  Si  Si25  1  0.02324652  0.66639957  0.41731222  1
  Si  Si26  1  0.52320767  0.66636934  0.41730537  1
  S  S0  1  0.14285858  0.99865650  0.24960520  1
  S  S1  1  0.64319160  0.99930033  0.24954069  1
  S  S2  1  0.14295502  0.28944238  0.74891088  1
  S  S3  1  0.64302626  0.29024758  0.74988300  1
  S  S4  1  0.47769137  0.33064565  0.58333172  1
  S  S5  1  0.97760568  0.33048170  0.58342186  1
  S  S6  1  0.47714228  0.62431123  0.08319157  1
  S  S7  1  0.97678036  0.62344376  0.08314789  1
  S  S8  1  0.80952023  0.66240718  0.91607532  1
  O  O0  1  0.10517438  0.02748240  0.30526386  1
  O  O1  1  0.60503360  0.02717309  0.30523582  1
  O  O2  1  0.41488352  0.79894733  0.30961683  1
  O  O3  1  0.91487279  0.79888136  0.30963498  1
  O  O4  1  0.48418219  0.16608940  0.30849787  1
  O  O5  1  0.98415725  0.16592380  0.30843257  1
  O  O6  1  0.10537682  0.18107489  0.80481910  1
  O  O7  1  0.60458611  0.17799689  0.80371001  1
  O  O8  1  0.48626008  0.80359454  0.80970945  1
  O  O9  1  0.98637999  0.80993039  0.80716166  1
  O  O10  1  0.41604844  0.03077332  0.80943134  1
  O  O11  1  0.91522201  0.02921496  0.81046584  1
  O  O12  1  0.40741374  0.97611807  0.69250461  1
  O  O13  1  0.90649802  0.97487934  0.69279504  1
  O  O14  1  0.08981042  0.20566698  0.69593972  1
  O  O15  1  0.59069455  0.21115492  0.69544401  1
  O  O16  1  0.01737262  0.83176827  0.69140162  1
  O  O17  1  0.51879912  0.83334702  0.69140618  1
  O  O18  1  0.40605407  0.84045224  0.19311426  1
  O  O19  1  0.90581043  0.84030900  0.19310679  1
  O  O20  1  0.01540338  0.20145963  0.19082986  1
  O  O21  1  0.51555771  0.20254710  0.19084674  1
  O  O22  1  0.08939368  0.97548767  0.19597626  1
  O  O23  1  0.58937664  0.97548517  0.19590619  1
  O  O24  1  0.43597109  0.36132337  0.63667701  1
  O  O25  1  0.93578708  0.36138775  0.63673024  1
  O  O26  1  0.24929564  0.13651621  0.64326514  1
  O  O27  1  0.74926629  0.13635698  0.64350351  1
  O  O28  1  0.32096878  0.49557674  0.64096915  1
  O  O29  1  0.82078955  0.49553617  0.64076931  1
  O  O30  1  0.43747864  0.51040048  0.13643510  1
  O  O31  1  0.93608659  0.50939984  0.13734538  1
  O  O32  1  0.32080902  0.14036124  0.14333964  1
  O  O33  1  0.81874511  0.13631893  0.14361881  1
  O  O34  1  0.25236121  0.36273176  0.14062992  1
  O  O35  1  0.75205421  0.36416488  0.14100702  1
  O  O36  1  0.23577819  0.30582343  0.02395950  1
  O  O37  1  0.73934387  0.30785073  0.02522855  1
  O  O38  1  0.42587430  0.54752693  0.02787548  1
  O  O39  1  0.92273478  0.54283527  0.02913770  1
  O  O40  1  0.35161006  0.16828496  0.02493334  1
  O  O41  1  0.85137833  0.16623655  0.02519276  1
  O  O42  1  0.23617905  0.16608086  0.52460435  1
  O  O43  1  0.73621335  0.16596784  0.52464694  1
  O  O44  1  0.35159781  0.53583802  0.52433064  1
  O  O45  1  0.85152887  0.53581437  0.52419741  1
  O  O46  1  0.42508662  0.30334504  0.52801538  1
  O  O47  1  0.92498856  0.30332930  0.52801493  1
  O  O48  1  0.26813079  0.70596363  0.97374489  1
  O  O49  1  0.77141068  0.69841730  0.97043634  1
  O  O50  1  0.08377278  0.46394280  0.97668778  1
  O  O51  1  0.58333895  0.47005062  0.97718016  1
  O  O52  1  0.14932690  0.82783949  0.97547893  1
  O  O53  1  0.65120396  0.82584134  0.97334465  1
  O  O54  1  0.26772425  0.82891473  0.47292411  1
  O  O55  1  0.76773735  0.82895925  0.47291714  1
  O  O56  1  0.14620264  0.46854185  0.47487438  1
  O  O57  1  0.64625314  0.46867612  0.47488719  1
  O  O58  1  0.08390986  0.70357774  0.47719451  1
  O  O59  1  0.58392325  0.70356877  0.47719288  1
  O  O60  1  0.06973267  0.62995292  0.35972397  1
  O  O61  1  0.56970222  0.62985962  0.35974511  1
  O  O62  1  0.24912759  0.87315028  0.35589900  1
  O  O63  1  0.74913285  0.87300411  0.35590896  1
  O  O64  1  0.18743488  0.50448596  0.35946900  1
  O  O65  1  0.68738280  0.50455321  0.35948388  1
  O  O66  1  0.07006026  0.50399613  0.85858741  1
  O  O67  1  0.57316262  0.51029671  0.86003579  1
  O  O68  1  0.18573349  0.87247714  0.85751606  1
  O  O69  1  0.68614067  0.87135731  0.85779738  1
  O  O70  1  0.24670784  0.62674551  0.85827103  1
  O  O71  1  0.75709784  0.63740468  0.86220520  1
  O  O72  1  0.01350132  0.84021793  0.40928687  1
  O  O73  1  0.51352969  0.84019823  0.40933511  1
  O  O74  1  0.40732649  0.97516455  0.41066713  1
  O  O75  1  0.90728235  0.97512991  0.41069044  1
  O  O76  1  0.08117143  0.18227810  0.40895988  1
  O  O77  1  0.58117558  0.18234514  0.40899345  1
  O  O78  1  0.01017784  0.18519280  0.90925311  1
  O  O79  1  0.51089369  0.18356223  0.90961397  1
  O  O80  1  0.08073210  0.98598027  0.90881412  1
  O  O81  1  0.57848665  0.97089364  0.90944430  1
  O  O82  1  0.40696504  0.83892104  0.91067393  1
  O  O83  1  0.89784877  0.82637176  0.91149440  1
  O  O84  1  0.48789860  0.17575223  0.59021612  1
  O  O85  1  0.98780177  0.17586184  0.59033251  1
  O  O86  1  0.09081769  0.02494182  0.59061098  1
  O  O87  1  0.59091237  0.02508125  0.59056475  1
  O  O88  1  0.41919935  0.81024400  0.59012574  1
  O  O89  1  0.91899593  0.81007499  0.58983375  1
  O  O90  1  0.48888232  0.80045182  0.09056966  1
  O  O91  1  0.98697176  0.79838083  0.09064213  1
  O  O92  1  0.41926746  0.02730692  0.08986376  1
  O  O93  1  0.91937484  0.02703284  0.08954830  1
  O  O94  1  0.09142674  0.15669541  0.09077942  1
  O  O95  1  0.59163897  0.15875077  0.09047435  1
  O  O96  1  0.34153671  0.16911785  0.74278159  1
  O  O97  1  0.84053172  0.16714022  0.74328812  1
  O  O98  1  0.23092067  0.30223778  0.74499993  1
  O  O99  1  0.73149090  0.30381808  0.74467742  1
  O  O100  1  0.41187055  0.51289431  0.74213735  1
  O  O101  1  0.91119181  0.51349184  0.74221643  1
  O  O102  1  0.34560154  0.51533921  0.24222691  1
  O  O103  1  0.84538226  0.51523800  0.24246858  1
  O  O104  1  0.41056727  0.30170971  0.24320068  1
  O  O105  1  0.91048406  0.30135148  0.24296873  1
  O  O106  1  0.23280183  0.15729649  0.24498712  1
  O  O107  1  0.73282937  0.15733940  0.24496789  1
  O  O108  1  0.32351197  0.49494914  0.92397343  1
  O  O109  1  0.82210976  0.51135839  0.92354054  1
  O  O110  1  0.42812538  0.36177024  0.92355627  1
  O  O111  1  0.92357769  0.35755561  0.92425128  1
  O  O112  1  0.25073223  0.14305328  0.92321495  1
  O  O113  1  0.75479992  0.14697006  0.92339330  1
  O  O114  1  0.32382913  0.15180515  0.42433294  1
  O  O115  1  0.82378253  0.15172948  0.42428534  1
  O  O116  1  0.25290963  0.35918918  0.42323262  1
  O  O117  1  0.75292080  0.35919019  0.42325695  1
  O  O118  1  0.42645686  0.49304306  0.42386512  1
  O  O119  1  0.92644129  0.49302811  0.42385459  1
  O  O120  1  0.17296399  0.49928613  0.07781968  1
  O  O121  1  0.67454946  0.50079086  0.07589585  1
  O  O122  1  0.06303751  0.63491546  0.07869889  1
  O  O123  1  0.56506672  0.63664463  0.07853001  1
  O  O124  1  0.24345466  0.84821494  0.07786774  1
  O  O125  1  0.74507038  0.84681190  0.07463759  1
  O  O126  1  0.17353629  0.84727464  0.57748768  1
  O  O127  1  0.67349803  0.84716194  0.57763777  1
  O  O128  1  0.24335460  0.63770029  0.57738543  1
  O  O129  1  0.74328823  0.63772362  0.57742668  1
  O  O130  1  0.06365786  0.49149449  0.57886195  1
  O  O131  1  0.56372582  0.49150059  0.57893067  1
  O  O132  1  0.15524640  0.84591498  0.25422259  1
  O  O133  1  0.65517788  0.84574287  0.25414279  1
  O  O134  1  0.26183934  0.70283525  0.25586085  1
  O  O135  1  0.76173748  0.70282335  0.25575826  1
  O  O136  1  0.08757118  0.48646491  0.25615586  1
  O  O137  1  0.58768956  0.48691458  0.25605902  1
  O  O138  1  0.15357399  0.46493656  0.75490682  1
  O  O139  1  0.65526627  0.46667846  0.75715465  1
  O  O140  1  0.08739678  0.69426024  0.75629294  1
  O  O141  1  0.58630178  0.69449844  0.75660512  1
  O  O142  1  0.25820835  0.82718046  0.75566927  1
  O  O143  1  0.75861184  0.82497966  0.75761972  1
loop_
_geom_bond_atom_site_label_1
_geom_bond_atom_site_label_2
_geom_bond_distance
_geom_bond_site_symmetry_2
Na0 O134 2.308299 1_555
Na0 O104 2.354280 1_565
Na0 O132 2.505487 1_555
Na0 O106 2.528604 1_565
Na0 O62 2.640820 1_555
Na0 O32 2.677107 1_565
Na0 O18 2.868766 1_555
Na0 O4 2.871652 1_565
Na1 O135 2.313459 1_555
Na1 O105 2.347055 1_565
Na1 O133 2.506913 1_555
Na1 O107 2.524073 1_565
Na1 O63 2.641860 1_555
Na1 O33 2.661356 1_565
Na1 O5 2.869642 1_565
Na1 O19 2.870783 1_555
Na2 O140 2.347725 1_555
Na2 O98 2.431867 1_565
Na2 O96 2.434433 1_565
Na2 O142 2.435845 1_555
Na2 O26 2.647624 1_565
Na2 O68 2.666744 1_555
Na2 O16 2.860801 1_555
Na2 O6 2.926025 1_565
Na3 O141 2.387869 1_555
Na3 O99 2.396894 1_565
Na3 O97 2.415106 1_565
Na3 O143 2.506065 1_555
Na3 O27 2.620506 1_565
Na3 O69 2.708686 1_555
Na3 O17 2.835877 1_555
Na3 O7 2.870121 1_565
Na4 O130 2.379132 1_555
Na4 O126 2.393236 1_555
Na4 O89 2.396371 1_455
Na4 O86 2.501235 1_565
Na4 O58 2.595719 1_555
Na4 O16 2.715235 1_555
Na4 O45 2.861674 1_455
Na4 O25 2.899437 1_455
Na5 O131 2.384273 1_555
Na5 O88 2.390834 1_555
Na5 O127 2.393827 1_555
Na5 O87 2.499092 1_565
Na5 O59 2.595494 1_555
Na5 O17 2.715925 1_555
Na5 O44 2.857461 1_555
Na5 O24 2.903123 1_555
Na6 O122 2.373756 1_555
Na6 O120 2.383386 1_555
Na6 O93 2.408734 1_455
Na6 O94 2.509158 1_555
Na6 O50 2.602426 1_554
Na6 O20 2.708268 1_555
Na6 O41 2.853387 1_455
Na6 O31 2.889797 1_455
Na7 O92 2.375185 1_555
Na7 O123 2.406793 1_555
Na7 O121 2.438265 1_555
Na7 O95 2.490649 1_555
Na7 O51 2.632512 1_554
Na7 O21 2.682691 1_555
Na7 O40 2.835233 1_555
Na7 O30 2.865087 1_555
Na8 O110 2.369563 1_555
Na8 O81 2.385336 1_555
Na8 O108 2.462102 1_555
Na8 O82 2.513596 1_555
Na8 O8 2.656150 1_555
Na8 O38 2.704759 1_556
Na8 O67 2.858787 1_555
Na8 O53 2.888475 1_555
Na9 O112 2.402695 1_555
Na9 O82 2.403815 1_545
Na9 O79 2.486233 1_555
Na9 O110 2.538438 1_555
Na9 O10 2.662792 1_555
Na9 O40 2.697006 1_556
Na9 O48 2.826251 1_545
Na9 O68 2.841416 1_545
Na10 O113 2.363897 1_555
Na10 O83 2.399163 1_545
Na10 O78 2.442341 1_655
Na10 O111 2.472949 1_555
Na10 O11 2.610442 1_555
Na10 O41 2.706318 1_556
Na10 O69 2.850096 1_545
Na10 O49 2.893651 1_545
Na11 O78 2.404471 1_555
Na11 O80 2.447581 1_545
Na11 O108 2.466185 1_555
Na11 O112 2.554065 1_555
Na11 O36 2.678665 1_556
Na11 O6 2.736311 1_555
Na11 O50 2.809004 1_555
Na11 O70 2.828486 1_555
Na12 O118 2.376317 1_555
Na12 O77 2.449484 1_555
Na12 O114 2.466836 1_555
Na12 O74 2.526410 1_545
Na12 O4 2.693785 1_555
Na12 O46 2.701596 1_555
Na12 O61 2.820092 1_555
Na12 O57 2.821095 1_555
Na13 O119 2.375568 1_555
Na13 O76 2.450387 1_655
Na13 O115 2.468251 1_555
Na13 O75 2.528112 1_545
Na13 O5 2.696645 1_555
Na13 O47 2.701813 1_555
Na13 O56 2.819250 1_655
Na13 O60 2.819862 1_655
Na14 O72 2.370330 1_545
Na14 O114 2.459445 1_555
Na14 O76 2.475276 1_555
Na14 O116 2.538862 1_555
Na14 O42 2.697137 1_555
Na14 O0 2.710642 1_555
Na14 O62 2.839831 1_545
Na14 O58 2.851776 1_545
Na15 O73 2.370362 1_545
Na15 O115 2.458596 1_555
Na15 O77 2.474632 1_555
Na15 O117 2.537598 1_555
Na15 O43 2.697845 1_555
Na15 O1 2.711162 1_555
Na15 O63 2.841475 1_545
Na15 O59 2.853195 1_545
Na16 O116 2.400651 1_555
Na16 O74 2.406456 1_555
Na16 O118 2.513008 1_555
Na16 O73 2.516528 1_555
Na16 O2 2.652421 1_555
Na16 O44 2.677368 1_555
Na16 O64 2.810166 1_555
Na16 O54 2.813595 1_555
Na17 O117 2.400283 1_555
Na17 O75 2.407128 1_555
Na17 O119 2.511148 1_555
Na17 O72 2.515096 1_655
Na17 O3 2.651497 1_555
Na17 O45 2.674179 1_555
Na17 O65 2.811586 1_555
Na17 O55 2.815373 1_555
Na18 O86 2.490018 1_555
Na18 O89 2.547200 1_445
Na18 O76 2.554777 1_555
Na18 O75 2.559800 1_445
Na18 O85 2.578661 1_455
Na18 O72 2.594895 1_545
Na19 O87 2.489958 1_555
Na19 O88 2.550774 1_545
Na19 O77 2.554340 1_555
Na19 O74 2.559728 1_545
Na19 O84 2.576537 1_555
Na19 O73 2.593202 1_545
Na20 O80 2.502583 1_554
Na20 O94 2.505737 1_565
Na20 O91 2.563477 1_455
Na20 O93 2.566556 1_465
Na20 O78 2.631449 1_564
Na20 O83 2.633749 1_454
Na21 O95 2.493966 1_556
Na21 O81 2.501377 1_545
Na21 O79 2.534140 1_555
Na21 O82 2.569628 1_545
Na21 O92 2.582859 1_556
Na21 O90 2.639550 1_546
Na22 O100 2.451774 1_555
Na22 O96 2.511389 1_555
Na22 O110 2.540184 1_555
Na22 O108 2.565646 1_555
Na22 O98 2.623479 1_555
Na22 O112 2.642082 1_555
Na23 O101 2.454272 1_555
Na23 O111 2.494718 1_555
Na23 O97 2.551004 1_555
Na23 O113 2.611939 1_555
Na23 O109 2.614297 1_555
Na23 O99 2.645642 1_555
Na24 O102 2.463046 1_555
Na24 O104 2.488926 1_555
Na24 O118 2.538305 1_555
Na24 O116 2.577116 1_555
Na24 O106 2.610748 1_555
Na24 O114 2.623346 1_555
Na25 O103 2.458332 1_555
Na25 O105 2.491704 1_555
Na25 O119 2.540762 1_555
Na25 O117 2.579011 1_555
Na25 O107 2.607954 1_555
Na25 O115 2.623430 1_555
Na26 O120 2.474191 1_555
Na26 O124 2.477177 1_555
Na26 O134 2.502541 1_555
Na26 O136 2.518558 1_555
Na26 O132 2.632632 1_555
Na26 O122 2.635351 1_555
Na27 O135 2.467890 1_555
Na27 O137 2.487228 1_555
Na27 O121 2.535399 1_555
Na27 O125 2.564385 1_555
Na27 O133 2.607681 1_555
Na27 O123 2.648741 1_555
Na28 O128 2.449457 1_555
Na28 O142 2.467062 1_555
Na28 O126 2.553016 1_555
Na28 O138 2.568439 1_555
Na28 O140 2.574573 1_555
Na28 O130 2.650579 1_555
Na29 O129 2.409960 1_555
Na29 O143 2.527489 1_555
Na29 O127 2.533397 1_555
Na29 O139 2.621185 1_555
Na29 O131 2.624604 1_555
Na29 O141 2.630279 1_555
O0 S0 1.491072 1_545
O0 Ti0 2.153256 1_445
O1 S1 1.492911 1_545
O1 Ti1 2.150262 1_545
O2 Si0 1.667486 1_555
O2 Ti1 1.855295 1_555
O3 Si1 1.666558 1_555
O3 Ti0 1.856406 1_555
O4 Si3 1.662840 1_555
O4 Ti1 1.896029 1_545
O5 Si2 1.664502 1_655
O5 Ti0 1.894675 1_545
O6 S2 1.512281 1_555
O6 Ti2 2.103200 1_445
O7 S3 1.491131 1_555
O7 Ti3 2.145885 1_545
O8 Si5 1.633231 1_555
O8 Ti3 1.925303 1_555
O9 Si4 1.659517 1_555
O9 Ti2 1.836338 1_555
O10 Si6 1.654741 1_545
O10 Ti3 1.867889 1_545
O11 Si7 1.655891 1_545
O11 Ti2 1.867644 1_545
O12 Si6 1.651319 1_555
O12 Ti5 1.833213 1_555
O13 Si7 1.644070 1_555
O13 Ti4 1.845791 1_555
O14 S2 1.462822 1_555
O14 Ti4 2.188459 1_445
O15 S3 1.476626 1_555
O15 Ti5 2.205274 1_545
O16 Si4 1.667632 1_455
O16 Ti4 1.847257 1_455
O17 Si5 1.659810 1_555
O17 Ti5 1.863118 1_555
O18 Si0 1.652576 1_555
O18 Ti7 1.863855 1_565
O19 Si1 1.650130 1_555
O19 Ti6 1.868191 1_565
O20 Si2 1.661288 1_555
O20 Ti6 1.833090 1_455
O21 Si3 1.661905 1_555
O21 Ti7 1.831444 1_555
O22 S0 1.476656 1_555
O22 Ti6 2.162103 1_465
O23 S1 1.479285 1_555
O23 Ti7 2.167068 1_565
O24 S4 1.495935 1_555
O24 Ti8 2.046635 1_555
O25 S5 1.497175 1_555
O25 Ti9 2.054775 1_555
O26 Si8 1.641508 1_555
O26 Ti8 1.892877 1_555
O27 Si9 1.640904 1_555
O27 Ti9 1.901434 1_555
O28 Si10 1.636227 1_555
O28 Ti8 1.863352 1_555
O29 Si11 1.636919 1_555
O29 Ti9 1.858346 1_555
O30 S6 1.490007 1_555
O30 Ti10 2.093236 1_555
O31 S7 1.510041 1_555
O31 Ti11 2.033767 1_555
O32 Si12 1.638293 1_555
O32 Ti10 1.921459 1_555
O33 Si13 1.628783 1_555
O33 Ti11 1.949798 1_555
O34 Si14 1.646151 1_555
O34 Ti10 1.825530 1_555
O35 Si15 1.647328 1_555
O35 Ti11 1.828936 1_555
O36 Si14 1.658646 1_555
O36 Ti12 1.860307 1_554
O37 Si15 1.646658 1_555
O37 Ti13 1.842598 1_554
O38 S6 1.482258 1_555
O38 Ti12 2.233180 1_554
O39 S7 1.483111 1_555
O39 Ti13 2.162327 1_554
O40 Si12 1.665070 1_555
O40 Ti12 1.892295 1_554
O41 Si13 1.664532 1_555
O41 Ti13 1.852341 1_554
O42 Si8 1.662268 1_555
O42 Ti14 1.858460 1_555
O43 Si9 1.662277 1_555
O43 Ti15 1.858993 1_555
O44 Si10 1.661231 1_555
O44 Ti14 1.890457 1_555
O45 Si11 1.659280 1_555
O45 Ti15 1.890134 1_555
O46 S4 1.492847 1_555
O46 Ti14 2.182240 1_555
O47 S5 1.494837 1_555
O47 Ti15 2.178157 1_555
O48 Si16 1.645809 1_555
O48 Ti16 1.830136 1_556
O49 S8 1.498049 1_555
O49 Ti17 2.061476 1_556
O50 Si17 1.644379 1_555
O50 Ti16 1.971392 1_556
O51 Si18 1.644100 1_555
O51 Ti17 1.899574 1_556
O52 Si19 1.619252 1_555
O52 Ti16 1.901352 1_556
O53 Si20 1.644019 1_555
O53 Ti17 1.893042 1_556
O54 Si21 1.648367 1_555
O54 Ti18 1.829164 1_555
O55 Si22 1.648423 1_555
O55 Ti19 1.827654 1_555
O56 Si23 1.626083 1_555
O56 Ti18 1.936669 1_555
O57 Si24 1.626941 1_555
O57 Ti19 1.935003 1_555
O58 Si25 1.642994 1_555
O58 Ti18 1.964560 1_555
O59 Si26 1.643580 1_555
O59 Ti19 1.961437 1_555
O60 Si25 1.643096 1_555
O60 Ti20 1.893547 1_555
O61 Si26 1.642948 1_555
O61 Ti21 1.892216 1_555
O62 Si21 1.623082 1_555
O62 Ti20 2.017828 1_555
O63 Si22 1.623322 1_555
O63 Ti21 2.013340 1_555
O64 Si23 1.648300 1_555
O64 Ti20 1.832273 1_555
O65 Si24 1.648853 1_555
O65 Ti21 1.831949 1_555
O66 Si17 1.644934 1_555
O66 Ti22 1.865574 1_555
O67 Si18 1.651797 1_555
O67 Ti23 1.866643 1_555
O68 Si19 1.647635 1_555
O68 Ti22 1.879662 1_555
O69 Si20 1.665673 1_555
O69 Ti23 1.863849 1_555
O70 Si16 1.625023 1_555
O70 Ti22 1.922065 1_555
O71 S8 1.467729 1_555
O71 Ti23 2.204700 1_555
O72 Si25 1.648038 1_555
O72 Ti0 2.020012 1_455
O73 Si26 1.647314 1_555
O73 Ti1 2.020148 1_555
O74 Si21 1.653325 1_555
O74 Ti1 1.925263 1_555
O75 Si22 1.652378 1_555
O75 Ti0 1.924029 1_555
O76 Si23 1.628687 1_555
O76 Ti0 2.053004 1_445
O77 Si24 1.628387 1_555
O77 Ti1 2.054513 1_545
O78 Si17 1.670457 1_555
O78 Ti2 2.051525 1_445
O79 Si18 1.628743 1_555
O79 Ti3 1.967301 1_545
O80 Si19 1.634159 1_555
O80 Ti2 1.991586 1_455
O81 Si20 1.611932 1_555
O81 Ti3 2.023432 1_555
O82 Si16 1.643486 1_555
O82 Ti3 1.929782 1_555
O83 S8 1.520138 1_555
O83 Ti2 2.102644 1_555
O84 S4 1.483621 1_555
O84 Ti5 2.193217 1_545
O85 S5 1.481162 1_555
O85 Ti4 2.206763 1_545
O86 Si8 1.646980 1_555
O86 Ti4 1.997338 1_445
O87 Si9 1.647804 1_555
O87 Ti5 1.996041 1_545
O88 Si10 1.665592 1_555
O88 Ti5 1.897236 1_555
O89 Si11 1.663020 1_555
O89 Ti4 1.896724 1_555
O90 S6 1.481748 1_555
O90 Ti7 2.215804 1_565
O91 S7 1.482306 1_555
O91 Ti6 2.207700 1_565
O92 Si12 1.672862 1_555
O92 Ti7 1.894610 1_555
O93 Si13 1.664382 1_555
O93 Ti6 1.900900 1_555
O94 Si14 1.646017 1_555
O94 Ti6 1.984295 1_455
O95 Si15 1.642958 1_555
O95 Ti7 1.998638 1_555
O96 Si6 1.649660 1_545
O96 Ti8 1.987091 1_555
O97 Si7 1.642741 1_545
O97 Ti9 2.007041 1_555
O98 S2 1.509927 1_555
O98 Ti8 2.132487 1_555
O99 S3 1.517632 1_555
O99 Ti9 2.112651 1_555
O100 Si5 1.615720 1_555
O100 Ti8 1.958510 1_555
O101 Si4 1.620460 1_555
O101 Ti9 1.947985 1_555
O102 Si0 1.628198 1_555
O102 Ti10 1.927708 1_555
O103 Si1 1.629907 1_555
O103 Ti11 1.921616 1_555
O104 Si3 1.633194 1_555
O104 Ti10 2.042572 1_555
O105 Si2 1.633499 1_655
O105 Ti11 2.044676 1_555
O106 S0 1.516457 1_545
O106 Ti10 2.101724 1_555
O107 S1 1.511039 1_545
O107 Ti11 2.134014 1_555
O108 Si16 1.633144 1_555
O108 Ti12 2.027110 1_555
O109 S8 1.476474 1_555
O109 Ti13 2.211776 1_555
O110 Si18 1.652764 1_555
O110 Ti12 2.051528 1_555
O111 Si17 1.643571 1_655
O111 Ti13 1.982675 1_555
O112 Si19 1.679871 1_545
O112 Ti12 1.894117 1_555
O113 Si20 1.644461 1_545
O113 Ti13 1.906145 1_555
O114 Si21 1.633523 1_545
O114 Ti14 2.024310 1_555
O115 Si22 1.632615 1_545
O115 Ti15 2.023943 1_555
O116 Si23 1.654473 1_555
O116 Ti14 1.910116 1_555
O117 Si24 1.653784 1_555
O117 Ti15 1.912088 1_555
O118 Si26 1.643783 1_555
O118 Ti14 2.036832 1_555
O119 Si25 1.644473 1_655
O119 Ti15 2.036669 1_555
O120 Si14 1.635781 1_555
O120 Ti16 2.028851 1_555
O121 Si15 1.647874 1_555
O121 Ti17 1.979797 1_555
O122 S7 1.485676 1_455
O122 Ti16 2.273176 1_555
O123 S6 1.512056 1_555
O123 Ti17 2.125328 1_555
O124 Si12 1.616448 1_565
O124 Ti16 1.954393 1_555
O125 Si13 1.624081 1_565
O125 Ti17 1.928621 1_555
O126 Si8 1.646736 1_565
O126 Ti18 1.999723 1_555
O127 Si9 1.648557 1_565
O127 Ti19 2.002656 1_555
O128 Si10 1.616241 1_555
O128 Ti18 1.944427 1_555
O129 Si11 1.616155 1_555
O129 Ti19 1.947562 1_555
O130 S5 1.486170 1_455
O130 Ti18 2.276498 1_555
O131 S4 1.485129 1_555
O131 Ti19 2.278789 1_555
O132 S0 1.483317 1_555
O132 Ti20 2.274951 1_555
O133 S1 1.486171 1_555
O133 Ti21 2.274858 1_555
O134 Si0 1.635899 1_555
O134 Ti20 2.023591 1_555
O135 Si1 1.636357 1_555
O135 Ti21 2.025438 1_555
O136 Si2 1.625980 1_555
O136 Ti20 1.921102 1_555
O137 Si3 1.626060 1_555
O137 Ti21 1.924100 1_555
O138 S2 1.480799 1_555
O138 Ti22 2.209600 1_555
O139 S3 1.480623 1_555
O139 Ti23 2.186559 1_555
O140 Si4 1.634626 1_455
O140 Ti22 2.006144 1_555
O141 Si5 1.670297 1_555
O141 Ti23 1.880674 1_555
O142 Si6 1.634028 1_555
O142 Ti22 2.036613 1_555
O143 Si7 1.648954 1_555
O143 Ti23 1.975634 1_555
