# generated using pymatgen
data_MgCo2(MoO4)2
_symmetry_space_group_name_H-M   'P 1'
_cell_length_a   5.14817642
_cell_length_b   4.95843381
_cell_length_c   5.92986900
_cell_angle_alpha   90.00000000
_cell_angle_beta   90.00000000
_cell_angle_gamma   87.33535694
_symmetry_Int_Tables_number   1
_chemical_formula_structural   MgCo2(MoO4)2
_chemical_formula_sum   'Mg1 Co2 Mo2 O8'
_cell_volume   151.20745637
_cell_formula_units_Z   1
loop_
 _symmetry_equiv_pos_site_id
 _symmetry_equiv_pos_as_xyz
  1  'x, y, z'
loop_
 _atom_site_type_symbol
 _atom_site_label
 _atom_site_symmetry_multiplicity
 _atom_site_fract_x
 _atom_site_fract_y
 _atom_site_fract_z
 _atom_site_occupancy
  Mg  Mg0  1  0.50000000  0.25000000  0.08160700  1
  Co  Co0  1  0.50000000  0.25000000  0.63123500  1
  Co  Co1  1  0.50000000  0.75000000  0.39027700  1
  Mo  Mo0  1  0.00000000  0.25000000  0.18266300  1
  Mo  Mo1  1  0.00000000  0.75000000  0.82691700  1
  O  O0  1  0.71091800  0.40120500  0.36167700  1
  O  O1  1  0.28908200  0.09879500  0.36167700  1
  O  O2  1  0.25770800  0.59373000  0.62709100  1
  O  O3  1  0.74229200  0.90627000  0.62709100  1
  O  O4  1  0.78779900  0.95255600  0.10655500  1
  O  O5  1  0.21220100  0.54744400  0.10655500  1
  O  O6  1  0.22656800  0.05821800  0.90189900  1
  O  O7  1  0.77343200  0.44178200  0.90189900  1
loop_
_geom_bond_atom_site_label_1
_geom_bond_atom_site_label_2
_geom_bond_distance
_geom_bond_site_symmetry_2
Mg0 O6 2.036148 1_554
Mg0 O7 2.036148 1_554
Mg0 O5 2.046745 1_555
Mg0 O4 2.046745 1_545
Mg0 O1 2.138936 1_555
Mg0 O0 2.138936 1_555
Co0 O3 2.064872 1_545
Co0 O2 2.064872 1_555
Co0 O1 2.090905 1_555
Co0 O0 2.090905 1_555
Co0 O6 2.363542 1_555
Co0 O7 2.363542 1_555
Co1 O1 2.006065 1_565
Co1 O0 2.006065 1_555
Co1 O2 2.053818 1_555
Co1 O3 2.053818 1_555
Co1 O5 2.484541 1_555
Co1 O4 2.484541 1_555
Mo0 O4 1.929284 1_445
Mo0 O5 1.929284 1_555
Mo0 O0 1.949380 1_455
Mo0 O1 1.949380 1_555
Mo0 O6 2.221157 1_554
Mo0 O7 2.221157 1_454
Mo1 O2 1.915491 1_555
Mo1 O3 1.915491 1_455
Mo1 O7 2.014844 1_455
Mo1 O6 2.014844 1_565
Mo1 O4 2.202237 1_456
Mo1 O5 2.202237 1_556
