# generated using pymatgen
data_Cs3Sb2I9
_symmetry_space_group_name_H-M   'P 1'
_cell_length_a   8.47817917
_cell_length_b   8.47885322
_cell_length_c   21.34383249
_cell_angle_alpha   90.00095828
_cell_angle_beta   89.99740346
_cell_angle_gamma   119.98725427
_symmetry_Int_Tables_number   1
_chemical_formula_structural   Cs3Sb2I9
_chemical_formula_sum   'Cs6 Sb4 I18'
_cell_volume   1328.91898615
_cell_formula_units_Z   2
loop_
 _symmetry_equiv_pos_site_id
 _symmetry_equiv_pos_as_xyz
  1  'x, y, z'
loop_
 _atom_site_type_symbol
 _atom_site_label
 _atom_site_symmetry_multiplicity
 _atom_site_fract_x
 _atom_site_fract_y
 _atom_site_fract_z
 _atom_site_occupancy
  Cs  Cs0  1  0.66664387  0.33334361  0.07665019  1
  Cs  Cs1  1  0.33330725  0.66668515  0.57667481  1
  Cs  Cs2  1  0.33330426  0.66667894  0.92332704  1
  Cs  Cs3  1  0.66663966  0.33333833  0.42335498  1
  Cs  Cs4  1  0.99996976  0.00001947  0.25000275  1
  Cs  Cs5  1  -0.00003202  0.00002086  0.74999904  1
  Sb  Sb0  1  0.66662516  0.33338663  0.84338534  1
  Sb  Sb1  1  0.66665484  0.33332130  0.65656281  1
  Sb  Sb2  1  0.33331499  0.66667274  0.15661674  1
  Sb  Sb3  1  0.33340006  0.66663503  0.34340421  1
  I  I0  1  0.16699848  0.83298451  0.08297661  1
  I  I1  1  0.83287855  0.66597861  0.91702255  1
  I  I2  1  0.83297524  0.16707579  0.91703222  1
  I  I3  1  0.83296106  0.66597992  0.58294349  1
  I  I4  1  0.33406150  0.16703870  0.91704769  1
  I  I5  1  0.66602176  0.83285946  0.41702016  1
  I  I6  1  0.16715494  0.33407563  0.41703190  1
  I  I7  1  0.16700525  0.83293379  0.41701963  1
  I  I8  1  0.50372443  0.00741560  0.25000584  1
  I  I9  1  0.49632830  0.50379233  0.75000268  1
  I  I10  1  0.00740079  0.50370623  0.74997346  1
  I  I11  1  0.99262035  0.49626190  0.25000078  1
  I  I12  1  0.50371032  0.49628327  0.25001739  1
  I  I13  1  0.49627749  0.99259512  0.75000208  1
  I  I14  1  0.33389553  0.16702264  0.58296325  1
  I  I15  1  0.83302661  0.16693285  0.58296535  1
  I  I16  1  0.16714707  0.33408240  0.08299756  1
  I  I17  1  0.66598449  0.83287917  0.08299944  1
loop_
_geom_bond_atom_site_label_1
_geom_bond_atom_site_label_2
_geom_bond_distance
_geom_bond_site_symmetry_2
Cs0 I2 4.191588 1_554
Cs0 I4 4.191621 1_554
Cs0 I1 4.192297 1_554
Cs0 I16 4.240116 1_555
Cs0 I17 4.240449 1_555
Cs0 I0 4.242212 1_655
Cs0 I0 4.242243 1_545
Cs0 I16 4.242398 1_655
Cs0 I17 4.242740 1_545
Cs0 I12 4.406393 1_555
Cs0 I8 4.406765 1_555
Cs0 I11 4.406864 1_555
Cs1 I7 4.192168 1_555
Cs1 I6 4.192480 1_555
Cs1 I5 4.192921 1_555
Cs1 I3 4.241144 1_455
Cs1 I14 4.241187 1_555
Cs1 I3 4.241263 1_555
Cs1 I14 4.241919 1_565
Cs1 I15 4.242066 1_565
Cs1 I15 4.242337 1_455
Cs1 I10 4.405482 1_555
Cs1 I9 4.405995 1_555
Cs1 I13 4.406212 1_555
Cs2 I0 4.192188 1_556
Cs2 I16 4.192876 1_556
Cs2 I17 4.193252 1_556
Cs2 I1 4.240581 1_555
Cs2 I4 4.241392 1_565
Cs2 I4 4.241704 1_555
Cs2 I1 4.241875 1_455
Cs2 I2 4.241922 1_455
Cs2 I2 4.242490 1_565
Cs2 I9 4.405775 1_555
Cs2 I13 4.406168 1_555
Cs2 I10 4.406626 1_555
Cs3 I3 4.191673 1_555
Cs3 I14 4.192243 1_555
Cs3 I15 4.192425 1_555
Cs3 I6 4.240003 1_555
Cs3 I5 4.240146 1_555
Cs3 I7 4.242065 1_655
Cs3 I7 4.242404 1_545
Cs3 I6 4.242478 1_655
Cs3 I5 4.243024 1_545
Cs3 I12 4.406011 1_555
Cs3 I8 4.406655 1_555
Cs3 I11 4.406774 1_555
Cs4 I8 4.238948 1_555
Cs4 I11 4.239053 1_555
Cs4 I8 4.239927 1_655
Cs4 I12 4.240417 1_545
Cs4 I12 4.240444 1_655
Cs4 I11 4.240487 1_545
Cs4 I5 4.326733 1_545
Cs4 I17 4.326812 1_545
Cs4 I0 4.327168 1_645
Cs4 I16 4.327179 1_655
Cs4 I7 4.327389 1_645
Cs4 I6 4.327600 1_655
Cs5 I13 4.239260 1_445
Cs5 I10 4.239530 1_555
Cs5 I13 4.239620 1_545
Cs5 I9 4.239860 1_445
Cs5 I10 4.240026 1_545
Cs5 I9 4.240988 1_555
Cs5 I15 4.326571 1_455
Cs5 I14 4.326970 1_555
Cs5 I2 4.327225 1_455
Cs5 I1 4.327414 1_445
Cs5 I3 4.328000 1_445
Cs5 I4 4.328059 1_555
I0 Sb2 2.904319 1_555
I1 Sb0 2.904500 1_555
I2 Sb0 2.904598 1_555
I3 Sb1 2.904687 1_555
I4 Sb0 2.904387 1_555
I5 Sb3 2.904322 1_555
I6 Sb3 2.904171 1_555
I7 Sb3 2.904342 1_555
I8 Sb2 3.199228 1_545
I8 Sb3 3.199546 1_545
I9 Sb0 3.198501 1_555
I9 Sb1 3.199696 1_555
I10 Sb1 3.199432 1_455
I10 Sb0 3.199486 1_455
I11 Sb2 3.198651 1_655
I11 Sb3 3.199530 1_655
I12 Sb3 3.198212 1_555
I12 Sb2 3.199213 1_555
I13 Sb0 3.199430 1_565
I13 Sb1 3.199778 1_565
I14 Sb1 2.904983 1_555
I15 Sb1 2.904546 1_555
I16 Sb2 2.904282 1_555
I17 Sb2 2.904520 1_555
