# generated using pymatgen
data_MgSbS2NCl6
_symmetry_space_group_name_H-M   'P 1'
_cell_length_a   8.04670342
_cell_length_b   7.76073917
_cell_length_c   7.76073886
_cell_angle_alpha   68.77468600
_cell_angle_beta   58.70267492
_cell_angle_gamma   58.70267742
_symmetry_Int_Tables_number   1
_chemical_formula_structural   MgSbS2NCl6
_chemical_formula_sum   'Mg1 Sb1 S2 N1 Cl6'
_cell_volume   351.02843086
_cell_formula_units_Z   1
loop_
 _symmetry_equiv_pos_site_id
 _symmetry_equiv_pos_as_xyz
  1  'x, y, z'
loop_
 _atom_site_type_symbol
 _atom_site_label
 _atom_site_symmetry_multiplicity
 _atom_site_fract_x
 _atom_site_fract_y
 _atom_site_fract_z
 _atom_site_occupancy
  Mg  Mg0  1  0.14222700  0.34161400  0.34161400  1
  Sb  Sb0  1  0.99825600  0.98751000  0.98751000  1
  S  S0  1  0.45814700  0.67448700  0.33336100  1
  S  S1  1  0.45814700  0.33336100  0.67448700  1
  N  N0  1  0.45937700  0.50413500  0.50413500  1
  Cl  Cl0  1  0.94507400  0.82070800  0.82070800  1
  Cl  Cl1  1  0.98608700  0.70382000  0.31529800  1
  Cl  Cl2  1  0.51170700  0.20234500  0.20234500  1
  Cl  Cl3  1  0.98608700  0.31529800  0.70382000  1
  Cl  Cl4  1  0.02909200  0.21499200  0.21499200  1
  Cl  Cl5  1  0.38691000  0.82137300  0.82137300  1
loop_
_geom_bond_atom_site_label_1
_geom_bond_atom_site_label_2
_geom_bond_distance
_geom_bond_site_symmetry_2
N0 S1 1.495252 1_555
N0 S0 1.495252 1_555
Cl0 Sb0 2.428806 1_555
Cl1 Mg0 2.388198 1_655
Cl1 Sb0 2.690352 1_554
Cl2 Mg0 2.311783 1_555
Cl2 Sb0 3.055613 1_544
Cl3 Mg0 2.388198 1_655
Cl3 Sb0 2.690352 1_545
Cl4 Mg0 2.306120 1_555
Cl4 Sb0 3.076040 1_444
Cl5 Sb0 2.435225 1_455
