# generated using pymatgen
data_La2MgTiNiO6
_symmetry_space_group_name_H-M   'P 1'
_cell_length_a   6.42782403
_cell_length_b   5.52618588
_cell_length_c   5.58632490
_cell_angle_alpha   89.99846953
_cell_angle_beta   115.75691383
_cell_angle_gamma   115.45969363
_symmetry_Int_Tables_number   1
_chemical_formula_structural   La2MgTiNiO6
_chemical_formula_sum   'La2 Mg1 Ti1 Ni1 O6'
_cell_volume   157.04872147
_cell_formula_units_Z   1
loop_
 _symmetry_equiv_pos_site_id
 _symmetry_equiv_pos_as_xyz
  1  'x, y, z'
loop_
 _atom_site_type_symbol
 _atom_site_label
 _atom_site_symmetry_multiplicity
 _atom_site_fract_x
 _atom_site_fract_y
 _atom_site_fract_z
 _atom_site_occupancy
  La  La0  1  0.32898338  0.16449169  0.66449169  1
  La  La1  1  0.67101662  0.83550831  0.33550831  1
  Mg  Mg0  1  -0.00000000  0.50000000  0.00000000  1
  Ti  Ti0  1  -0.00000000  0.50000000  0.50000000  1
  Ni  Ni0  1  -0.00000000  -0.00000000  0.00000000  1
  O  O0  1  -0.00000000  0.24383437  0.25981511  1
  O  O1  1  -0.00000000  0.75616563  0.74018489  1
  O  O2  1  -0.00000000  0.75616519  0.25981387  1
  O  O3  1  0.00000000  0.24383481  0.74018613  1
  O  O4  1  0.60246381  0.30123191  0.30123191  1
  O  O5  1  0.39753619  0.69876809  0.69876809  1
loop_
_geom_bond_atom_site_label_1
_geom_bond_atom_site_label_2
_geom_bond_distance
_geom_bond_site_symmetry_2
La0 O0 2.533157 1_555
La0 O1 2.533157 1_545
La0 O3 2.533201 1_555
La0 O2 2.533201 1_545
La0 O5 2.785014 1_555
La0 O5 2.785015 1_545
La0 O4 3.120475 1_555
La0 O4 3.120475 1_556
La1 O1 2.533157 1_655
La1 O0 2.533157 1_665
La1 O2 2.533201 1_655
La1 O3 2.533201 1_665
La1 O4 2.785014 1_555
La1 O4 2.785015 1_565
La1 O5 3.120475 1_555
La1 O5 3.120475 1_554
Mg0 O1 2.027428 1_554
Mg0 O0 2.027428 1_555
Mg0 O3 2.027475 1_554
Mg0 O2 2.027475 1_555
Ni0 O2 1.980445 1_545
Ni0 O3 1.980445 1_554
Ni0 O1 1.980502 1_544
Ni0 O0 1.980502 1_555
O0 Ti0 1.950480 1_555
O1 Ti0 1.950480 1_555
O2 Ti0 1.950431 1_555
O3 Ti0 1.950431 1_555
O4 Ti0 2.022364 1_655
O5 Ti0 2.022364 1_555
