# generated using pymatgen
data_MgCu3TeS3Cl
_symmetry_space_group_name_H-M   'P 1'
_cell_length_a   5.68258028
_cell_length_b   5.88515948
_cell_length_c   5.68258037
_cell_angle_alpha   79.67530719
_cell_angle_beta   82.20831141
_cell_angle_gamma   79.67529656
_symmetry_Int_Tables_number   1
_chemical_formula_structural   MgCu3TeS3Cl
_chemical_formula_sum   'Mg1 Cu3 Te1 S3 Cl1'
_cell_volume   182.88370923
_cell_formula_units_Z   1
loop_
 _symmetry_equiv_pos_site_id
 _symmetry_equiv_pos_as_xyz
  1  'x, y, z'
loop_
 _atom_site_type_symbol
 _atom_site_label
 _atom_site_symmetry_multiplicity
 _atom_site_fract_x
 _atom_site_fract_y
 _atom_site_fract_z
 _atom_site_occupancy
  Mg  Mg0  1  0.02832317  0.04916862  0.02832317  1
  Cu  Cu0  1  0.64901136  0.65771996  0.18766573  1
  Cu  Cu1  1  0.68911380  0.14601489  0.68911380  1
  Cu  Cu2  1  0.18766573  0.65771996  0.64901136  1
  Te  Te0  1  0.31402969  0.39584330  0.31402969  1
  S  S0  1  0.48322468  0.00648188  0.01547593  1
  S  S1  1  0.01602806  0.50932011  0.01602806  1
  S  S2  1  0.01547593  0.00648188  0.48322468  1
  Cl  Cl0  1  0.62551059  0.56772840  0.62551059  1
loop_
_geom_bond_atom_site_label_1
_geom_bond_atom_site_label_2
_geom_bond_distance
_geom_bond_site_symmetry_2
Mg0 S0 2.544280 1_555
Mg0 S2 2.544281 1_555
Mg0 S1 2.684969 1_555
Cu0 S0 2.212403 1_565
Cu0 S1 2.272588 1_655
Cu0 Te0 2.607434 1_555
Cu1 S2 2.166287 1_655
Cu1 S0 2.166287 1_556
Cu1 Mg0 2.824155 1_656
Cu1 Te0 3.198908 1_555
Cu2 S2 2.212403 1_565
Cu2 S1 2.272588 1_556
Cu2 Te0 2.607434 1_555
S0 Te0 3.035618 1_555
S1 Te0 2.479540 1_555
S2 Te0 3.035619 1_555
Cl0 Cu1 2.411057 1_555
Cl0 Cu2 2.439637 1_555
Cl0 Cu0 2.439637 1_555
Cl0 Te0 3.069573 1_555
