# generated using pymatgen
data_Na6Nb3Al(SiO4)6
_symmetry_space_group_name_H-M   'P 1'
_cell_length_a   15.59749943
_cell_length_b   9.02477695
_cell_length_c   9.00611205
_cell_angle_alpha   90.45762742
_cell_angle_beta   124.76967236
_cell_angle_gamma   89.72979598
_symmetry_Int_Tables_number   1
_chemical_formula_structural   Na6Nb3Al(SiO4)6
_chemical_formula_sum   'Na12 Nb6 Al2 Si12 O48'
_cell_volume   1041.34994801
_cell_formula_units_Z   2
loop_
 _symmetry_equiv_pos_site_id
 _symmetry_equiv_pos_as_xyz
  1  'x, y, z'
loop_
 _atom_site_type_symbol
 _atom_site_label
 _atom_site_symmetry_multiplicity
 _atom_site_fract_x
 _atom_site_fract_y
 _atom_site_fract_z
 _atom_site_occupancy
  Na  Na0  1  0.24951301  0.74987294  0.99904177  1
  Na  Na1  1  0.74435687  0.74734627  0.48261904  1
  Na  Na2  1  0.74951301  0.24987294  0.99904177  1
  Na  Na3  1  0.24435687  0.24734627  0.48261904  1
  Na  Na4  1  0.50458299  0.10487188  0.76448258  1
  Na  Na5  1  0.49876560  0.87434298  0.23235726  1
  Na  Na6  1  0.00458299  0.60487188  0.76448258  1
  Na  Na7  1  0.99876560  0.37434298  0.23235726  1
  Na  Na8  1  0.80109387  0.93539228  0.21209878  1
  Na  Na9  1  0.18998456  0.06865230  0.80437853  1
  Na  Na10  1  0.30109387  0.43539228  0.21209878  1
  Na  Na11  1  0.68998456  0.56865230  0.80437853  1
  Nb  Nb0  1  0.10704789  0.75202696  0.56521966  1
  Nb  Nb1  1  0.89362871  0.75421705  0.92811114  1
  Nb  Nb2  1  0.89175269  0.24980732  0.43292955  1
  Nb  Nb3  1  0.60704789  0.25202696  0.56521966  1
  Nb  Nb4  1  0.39362871  0.25421705  0.92811114  1
  Nb  Nb5  1  0.39175269  0.74980732  0.43292955  1
  Al  Al0  1  0.10572690  0.24737510  0.06760077  1
  Al  Al1  1  0.60572690  0.74737510  0.06760077  1
  Si  Si0  1  0.00044659  0.96962484  0.75608841  1
  Si  Si1  1  0.00766874  0.04504376  0.25136393  1
  Si  Si2  1  0.50044659  0.46962484  0.75608841  1
  Si  Si3  1  0.50766874  0.54504376  0.25136393  1
  Si  Si4  1  0.36157900  0.88607128  0.76877648  1
  Si  Si5  1  0.64335007  0.89424406  0.75386982  1
  Si  Si6  1  0.64338775  0.10171491  0.23945963  1
  Si  Si7  1  0.35093797  0.10804962  0.25103651  1
  Si  Si8  1  0.86157900  0.38607128  0.76877648  1
  Si  Si9  1  0.14335007  0.39424406  0.75386982  1
  Si  Si10  1  0.14338775  0.60171491  0.23945963  1
  Si  Si11  1  0.85093797  0.60804962  0.25103651  1
  O  O0  1  0.14820533  0.57484857  0.73718785  1
  O  O1  1  0.84844171  0.56999143  0.75848460  1
  O  O2  1  0.85118007  0.42566534  0.25930844  1
  O  O3  1  0.15270023  0.42282346  0.24035337  1
  O  O4  1  0.64820533  0.07484857  0.73718785  1
  O  O5  1  0.34844171  0.06999143  0.75848460  1
  O  O6  1  0.35118007  0.92566534  0.25930844  1
  O  O7  1  0.65270023  0.92282346  0.24035337  1
  O  O8  1  0.43006578  0.56305161  0.56432015  1
  O  O9  1  0.57135901  0.58025549  0.92237929  1
  O  O10  1  0.57138877  0.43931737  0.43362536  1
  O  O11  1  0.43718119  0.42537752  0.08218545  1
  O  O12  1  0.93006578  0.06305161  0.56432015  1
  O  O13  1  0.07135901  0.08025549  0.92237929  1
  O  O14  1  0.07138877  0.93931737  0.43362536  1
  O  O15  1  0.93718119  0.92537752  0.08218545  1
  O  O16  1  0.25692067  0.82138605  0.74878261  1
  O  O17  1  0.74009337  0.81143707  0.76003135  1
  O  O18  1  0.74299088  0.17673987  0.25134475  1
  O  O19  1  0.25450480  0.19134192  0.23395174  1
  O  O20  1  0.75692067  0.32138605  0.74878261  1
  O  O21  1  0.24009337  0.31143707  0.76003135  1
  O  O22  1  0.24299088  0.67673987  0.25134475  1
  O  O23  1  0.75450480  0.69134192  0.23395174  1
  O  O24  1  0.35912791  0.84447899  0.58596564  1
  O  O25  1  0.64324469  0.86227505  0.92980334  1
  O  O26  1  0.63935721  0.15293901  0.41234136  1
  O  O27  1  0.35585263  0.14269406  0.07473746  1
  O  O28  1  0.85912791  0.34447899  0.58596564  1
  O  O29  1  0.14324469  0.36227505  0.92980334  1
  O  O30  1  0.13935721  0.65293901  0.41234136  1
  O  O31  1  0.85585263  0.64269406  0.07473746  1
  O  O32  1  0.46799849  0.83042850  0.94657920  1
  O  O33  1  0.53614203  0.82955413  0.56716032  1
  O  O34  1  0.53591935  0.16621376  0.05801485  1
  O  O35  1  0.46195683  0.17277489  0.43086366  1
  O  O36  1  0.96799849  0.33042850  0.94657920  1
  O  O37  1  0.03614203  0.32955413  0.56716032  1
  O  O38  1  0.03591935  0.66621376  0.05801485  1
  O  O39  1  0.96195683  0.67277489  0.43086366  1
  O  O40  1  0.08136629  0.85847959  0.74234642  1
  O  O41  1  0.91916950  0.85479001  0.75937100  1
  O  O42  1  0.91773585  0.14125198  0.25438894  1
  O  O43  1  0.08327416  0.15323073  0.23703900  1
  O  O44  1  0.58136629  0.35847959  0.74234642  1
  O  O45  1  0.41916950  0.35479001  0.75937100  1
  O  O46  1  0.41773585  0.64125198  0.25438894  1
  O  O47  1  0.58327416  0.65323073  0.23703900  1
loop_
_geom_bond_atom_site_label_1
_geom_bond_atom_site_label_2
_geom_bond_distance
_geom_bond_site_symmetry_2
Na0 O16 2.414690 1_555
Na0 O22 2.428457 1_556
Na0 O6 2.500146 1_556
Na0 O46 2.502738 1_556
Na0 O0 2.503436 1_555
Na0 O40 2.506033 1_555
Na1 O47 2.361751 1_555
Na1 O23 2.383579 1_555
Na1 O7 2.405922 1_555
Na1 O17 2.597510 1_555
Na1 O1 2.609360 1_555
Na1 O41 2.611935 1_555
Na2 O20 2.414690 1_555
Na2 O18 2.428457 1_556
Na2 O2 2.500146 1_556
Na2 O42 2.502738 1_556
Na2 O4 2.503436 1_555
Na2 O44 2.506033 1_555
Na3 O43 2.361751 1_555
Na3 O19 2.383579 1_555
Na3 O3 2.405922 1_555
Na3 O21 2.597510 1_555
Na3 O5 2.609360 1_555
Na3 O45 2.611935 1_555
Na4 O4 2.402789 1_555
Na4 O5 2.426965 1_555
Na4 O34 2.457511 1_556
Na4 O45 2.601427 1_555
Na4 O44 2.649133 1_555
Na4 O35 2.755429 1_555
Na4 O25 2.832393 1_545
Na5 O32 2.363964 1_554
Na5 O47 2.373678 1_555
Na5 O7 2.402830 1_555
Na5 O6 2.489562 1_555
Na5 O46 2.525785 1_555
Na5 O33 2.758161 1_555
Na6 O0 2.402789 1_555
Na6 O1 2.426965 1_455
Na6 O38 2.457511 1_556
Na6 O41 2.601427 1_455
Na6 O40 2.649133 1_555
Na6 O39 2.755429 1_455
Na6 O29 2.832393 1_555
Na7 O36 2.363964 1_554
Na7 O43 2.373678 1_655
Na7 O3 2.402830 1_655
Na7 O2 2.489562 1_555
Na7 O42 2.525785 1_555
Na7 O37 2.758161 1_655
Na8 O23 2.367052 1_555
Na8 O25 2.410408 1_554
Na8 O18 2.454552 1_565
Na8 O7 2.471750 1_555
Na8 O42 2.477260 1_565
Na8 O12 2.849889 1_565
Na8 O15 2.951559 1_555
Na9 O40 2.390378 1_545
Na9 O27 2.423619 1_556
Na9 O21 2.440770 1_555
Na9 O13 2.608242 1_555
Na9 O16 2.622368 1_545
Na9 O5 2.728547 1_555
Na9 O14 2.974350 1_545
Na10 O19 2.367052 1_555
Na10 O29 2.410408 1_554
Na10 O22 2.454552 1_555
Na10 O3 2.471750 1_555
Na10 O46 2.477260 1_555
Na10 O8 2.849889 1_555
Na10 O11 2.951559 1_555
Na11 O44 2.390378 1_555
Na11 O31 2.423619 1_556
Na11 O17 2.440770 1_555
Na11 O9 2.608242 1_555
Na11 O20 2.622368 1_555
Na11 O1 2.728547 1_555
Na11 O10 2.974350 1_555
Nb0 O30 1.927896 1_555
Nb0 O14 1.960154 1_555
Nb0 O39 1.993825 1_455
Nb0 O16 2.044242 1_555
Nb0 O0 2.064814 1_555
Nb0 O40 2.080592 1_555
Nb1 O15 1.916644 1_556
Nb1 O38 1.990449 1_656
Nb1 O41 2.001983 1_555
Nb1 O31 2.004551 1_556
Nb1 O17 2.039418 1_555
Nb1 O1 2.082593 1_555
Nb2 O28 1.914561 1_555
Nb2 O12 1.952909 1_555
Nb2 O37 1.986843 1_655
Nb2 O18 2.040195 1_555
Nb2 O2 2.065395 1_555
Nb2 O42 2.103308 1_555
Nb3 O26 1.927896 1_555
Nb3 O10 1.960154 1_555
Nb3 O35 1.993825 1_555
Nb3 O20 2.044242 1_555
Nb3 O4 2.064814 1_555
Nb3 O44 2.080592 1_555
Nb4 O11 1.916644 1_556
Nb4 O34 1.990449 1_556
Nb4 O45 2.001983 1_555
Nb4 O27 2.004551 1_556
Nb4 O21 2.039418 1_555
Nb4 O5 2.082593 1_555
Nb5 O24 1.914561 1_555
Nb5 O8 1.952909 1_555
Nb5 O33 1.986843 1_555
Nb5 O22 2.040195 1_555
Nb5 O6 2.065395 1_555
Nb5 O46 2.103308 1_555
Al0 O13 1.857176 1_554
Al0 O36 1.921445 1_454
Al0 O43 1.950942 1_555
Al0 O29 1.952539 1_554
Al0 O19 1.980157 1_555
Al0 O3 2.033708 1_555
Al1 O9 1.857176 1_554
Al1 O32 1.921445 1_554
Al1 O47 1.950942 1_555
Al1 O25 1.952539 1_554
Al1 O23 1.980157 1_555
Al1 O7 2.033708 1_555
O0 Si9 1.644075 1_555
O1 Si8 1.668301 1_555
O2 Si11 1.648146 1_555
O3 Si10 1.619966 1_555
O4 Si5 1.644075 1_545
O5 Si4 1.668301 1_545
O6 Si7 1.648146 1_565
O7 Si6 1.619966 1_565
O8 Si2 1.658594 1_555
O9 Si2 1.600106 1_555
O10 Si3 1.657700 1_555
O11 Si3 1.664592 1_555
O12 Si0 1.658594 1_645
O13 Si0 1.600106 1_545
O14 Si1 1.657700 1_565
O15 Si1 1.664592 1_665
O16 Si4 1.646213 1_555
O17 Si5 1.653186 1_555
O18 Si6 1.643942 1_555
O19 Si7 1.605710 1_555
O20 Si8 1.646213 1_555
O21 Si9 1.653186 1_555
O22 Si10 1.643942 1_555
O23 Si11 1.605710 1_555
O24 Si4 1.664786 1_555
O25 Si5 1.613718 1_555
O26 Si6 1.655824 1_555
O27 Si7 1.664818 1_555
O28 Si8 1.664786 1_555
O29 Si9 1.613718 1_555
O30 Si10 1.655824 1_555
O31 Si11 1.664818 1_555
O32 Si4 1.595294 1_555
O33 Si5 1.658626 1_555
O34 Si6 1.643394 1_555
O35 Si7 1.660856 1_555
O36 Si8 1.595294 1_555
O37 Si9 1.658626 1_555
O38 Si10 1.643394 1_555
O39 Si11 1.660856 1_555
O40 Si0 1.666942 1_555
O41 Si0 1.654585 1_655
O42 Si1 1.659512 1_655
O43 Si1 1.595922 1_555
O44 Si2 1.666942 1_555
O45 Si2 1.654585 1_555
O46 Si3 1.659512 1_555
O47 Si3 1.595922 1_555
