# generated using pymatgen
data_WO3
_symmetry_space_group_name_H-M   'P 1'
_cell_length_a   3.88256000
_cell_length_b   7.71855300
_cell_length_c   7.71855300
_cell_angle_alpha   89.99992577
_cell_angle_beta   90.00000000
_cell_angle_gamma   90.00000000
_symmetry_Int_Tables_number   1
_chemical_formula_structural   WO3
_chemical_formula_sum   'W4 O12'
_cell_volume   231.30762912
_cell_formula_units_Z   4
loop_
 _symmetry_equiv_pos_site_id
 _symmetry_equiv_pos_as_xyz
  1  'x, y, z'
loop_
 _atom_site_type_symbol
 _atom_site_label
 _atom_site_symmetry_multiplicity
 _atom_site_fract_x
 _atom_site_fract_y
 _atom_site_fract_z
 _atom_site_occupancy
  W  W0  1  0.03051600  0.23966800  0.26033200  1
  W  W1  1  0.03051600  0.76033200  0.73966800  1
  W  W2  1  0.96948800  0.26033200  0.76033200  1
  W  W3  1  0.96948800  0.73966800  0.23966800  1
  O  O0  1  0.50693300  0.24753200  0.25246800  1
  O  O1  1  0.49306400  0.74753200  0.24753200  1
  O  O2  1  0.50693300  0.75246800  0.74753200  1
  O  O3  1  0.49306400  0.25246800  0.75246800  1
  O  O4  1  0.00077500  0.75041700  0.49695900  1
  O  O5  1  0.99922400  0.74958200  0.99695900  1
  O  O6  1  0.99922400  0.49695900  0.24958200  1
  O  O7  1  0.00077500  0.24958300  0.50304100  1
  O  O8  1  0.99922400  0.50304100  0.75041800  1
  O  O9  1  0.00077500  0.99695900  0.25041700  1
  O  O10  1  0.00077500  0.00304100  0.74958300  1
  O  O11  1  0.99922400  0.25041800  0.00304100  1
loop_
_geom_bond_atom_site_label_1
_geom_bond_atom_site_label_2
_geom_bond_distance
_geom_bond_site_symmetry_2
O0 W0 1.851708 1_555
O0 W0 2.034654 1_655
O1 W3 1.851736 1_555
O1 W3 2.034627 1_455
O2 W1 1.851708 1_555
O2 W1 2.034654 1_655
O3 W2 1.851736 1_555
O3 W2 2.034627 1_455
O4 W1 1.878477 1_555
O4 W3 1.991355 1_455
O5 W3 1.878476 1_556
O5 W1 1.991356 1_655
O6 W3 1.878476 1_555
O6 W0 1.991356 1_655
O7 W0 1.878477 1_555
O7 W2 1.991355 1_455
O8 W2 1.878476 1_555
O8 W1 1.991356 1_655
O9 W0 1.878477 1_565
O9 W3 1.991355 1_455
O10 W1 1.878477 1_545
O10 W2 1.991355 1_455
O11 W2 1.878476 1_554
O11 W0 1.991356 1_655
