# generated using pymatgen
data_KNiCl3
_symmetry_space_group_name_H-M   'P 1'
_cell_length_a   11.80821896
_cell_length_b   11.80821937
_cell_length_c   5.92176056
_cell_angle_alpha   89.99999449
_cell_angle_beta   90.00004025
_cell_angle_gamma   119.99955083
_symmetry_Int_Tables_number   1
_chemical_formula_structural   KNiCl3
_chemical_formula_sum   'K6 Ni6 Cl18'
_cell_volume   715.07608007
_cell_formula_units_Z   6
loop_
 _symmetry_equiv_pos_site_id
 _symmetry_equiv_pos_as_xyz
  1  'x, y, z'
loop_
 _atom_site_type_symbol
 _atom_site_label
 _atom_site_symmetry_multiplicity
 _atom_site_fract_x
 _atom_site_fract_y
 _atom_site_fract_z
 _atom_site_occupancy
  K  K0  1  0.33463586  0.33463467  0.33004374  1
  K  K1  1  0.99999775  0.33463515  0.83005151  1
  K  K2  1  0.33463628  0.00000144  0.83004305  1
  K  K3  1  0.66536371  0.99999845  0.33004394  1
  K  K4  1  0.00000011  0.66536535  0.33004145  1
  K  K5  1  0.66536387  0.66536519  0.83004497  1
  Ni  Ni0  1  1.00000128  0.99999927  0.00841335  1
  Ni  Ni1  1  0.00000050  -0.00000018  0.50841243  1
  Ni  Ni2  1  0.33333538  0.66666740  0.13147000  1
  Ni  Ni3  1  0.66666486  0.33333322  0.63146833  1
  Ni  Ni4  1  0.33333404  0.66666586  0.63146790  1
  Ni  Ni5  1  0.66666526  0.33333428  0.13146803  1
  Cl  Cl0  1  0.49366545  0.66748818  0.38311207  1
  Cl  Cl1  1  0.33251221  0.82617654  0.38311172  1
  Cl  Cl2  1  0.17382347  0.50633487  0.38311140  1
  Cl  Cl3  1  0.82617800  0.49366649  0.88311136  1
  Cl  Cl4  1  0.50633309  0.33251166  0.88311149  1
  Cl  Cl5  1  0.66748757  0.17382172  0.88311173  1
  Cl  Cl6  1  0.49366629  0.82617767  0.88311132  1
  Cl  Cl7  1  0.66748821  0.49366584  0.38311213  1
  Cl  Cl8  1  0.82617700  0.33251149  0.38311222  1
  Cl  Cl9  1  0.17382354  0.66748802  0.88311216  1
  Cl  Cl10  1  0.33251255  0.50633484  0.88311230  1
  Cl  Cl11  1  0.50633334  0.17382191  0.38311137  1
  Cl  Cl12  1  0.15994462  0.00000060  0.25548079  1
  Cl  Cl13  1  0.15994521  0.15994525  0.75547958  1
  Cl  Cl14  1  1.00000008  0.84005524  0.75547964  1
  Cl  Cl15  1  -0.00000003  0.15994386  0.25548118  1
  Cl  Cl16  1  0.84005586  0.84005507  0.25548020  1
  Cl  Cl17  1  0.84005564  0.00000065  0.75547962  1
loop_
_geom_bond_atom_site_label_1
_geom_bond_atom_site_label_2
_geom_bond_distance
_geom_bond_site_symmetry_2
Cl0 Ni4 2.393533 1_555
Cl0 Ni2 2.405532 1_555
Cl0 K5 3.341655 1_555
Cl0 K3 3.415434 1_555
Cl0 K0 3.419439 1_555
Cl1 Ni4 2.393545 1_555
Cl1 Ni2 2.405541 1_555
Cl1 K2 3.341670 1_565
Cl1 K4 3.415453 1_555
Cl1 K3 3.419420 1_555
Cl2 Ni4 2.393548 1_555
Cl2 Ni2 2.405565 1_555
Cl2 K1 3.341720 1_455
Cl2 K0 3.415434 1_555
Cl2 K4 3.419421 1_555
Cl3 Ni5 2.393566 1_556
Cl3 Ni3 2.405578 1_555
Cl3 K4 3.341655 1_656
Cl3 K5 3.415435 1_555
Cl3 K1 3.419387 1_555
Cl4 Ni5 2.393539 1_556
Cl4 Ni3 2.405550 1_555
Cl4 K0 3.341646 1_556
Cl4 K2 3.415433 1_555
Cl4 K5 3.419438 1_555
Cl5 Ni5 2.393566 1_556
Cl5 Ni3 2.405567 1_555
Cl5 K3 3.341663 1_546
Cl5 K1 3.415428 1_555
Cl5 K2 3.419417 1_555
Cl6 Ni2 2.393556 1_556
Cl6 Ni4 2.405569 1_555
Cl6 K3 3.341657 1_556
Cl6 K5 3.415407 1_555
Cl6 K2 3.419419 1_565
Cl7 Ni3 2.393540 1_555
Cl7 Ni5 2.405544 1_555
Cl7 K5 3.341668 1_555
Cl7 K4 3.415452 1_655
Cl7 K0 3.419426 1_555
Cl8 Ni3 2.393559 1_555
Cl8 Ni5 2.405572 1_555
Cl8 K1 3.341678 1_555
Cl8 K3 3.415461 1_545
Cl8 K4 3.419445 1_655
Cl9 Ni2 2.393556 1_556
Cl9 Ni4 2.405559 1_555
Cl9 K4 3.341656 1_556
Cl9 K2 3.415466 1_565
Cl9 K1 3.419430 1_455
Cl10 Ni2 2.393547 1_556
Cl10 Ni4 2.405547 1_555
Cl10 K0 3.341663 1_556
Cl10 K1 3.415476 1_455
Cl10 K5 3.419416 1_555
Cl11 Ni3 2.393556 1_555
Cl11 Ni5 2.405571 1_555
Cl11 K2 3.341652 1_555
Cl11 K0 3.415410 1_555
Cl11 K3 3.419419 1_545
Cl12 Ni0 2.389045 1_445
Cl12 Ni1 2.410480 1_555
Cl12 K2 3.256101 1_554
Cl12 K0 3.451524 1_555
Cl12 K4 3.451533 1_545
Cl13 Ni1 2.389077 1_555
Cl13 Ni0 2.410509 1_446
Cl13 K0 3.256092 1_555
Cl13 K2 3.451508 1_555
Cl13 K1 3.451540 1_455
Cl14 Ni1 2.389061 1_665
Cl14 Ni0 2.410484 1_556
Cl14 K4 3.256093 1_655
Cl14 K2 3.451543 1_665
Cl14 K5 3.451547 1_555
Cl15 Ni0 2.389071 1_445
Cl15 Ni1 2.410483 1_555
Cl15 K1 3.256072 1_454
Cl15 K0 3.451541 1_555
Cl15 K3 3.451545 1_445
Cl16 Ni0 2.389075 1_555
Cl16 Ni1 2.410499 1_665
Cl16 K5 3.256094 1_554
Cl16 K4 3.451497 1_655
Cl16 K3 3.451516 1_555
Cl17 Ni1 2.389070 1_655
Cl17 Ni0 2.410510 1_546
Cl17 K3 3.256087 1_545
Cl17 K1 3.451534 1_555
Cl17 K5 3.451540 1_545
