# generated using pymatgen
data_FeSiO3
_symmetry_space_group_name_H-M   'P 1'
_cell_length_a   5.27496042
_cell_length_b   6.71071421
_cell_length_c   6.74986952
_cell_angle_alpha   81.73153466
_cell_angle_beta   73.97959142
_cell_angle_gamma   74.50215934
_symmetry_Int_Tables_number   1
_chemical_formula_structural   FeSiO3
_chemical_formula_sum   'Fe4 Si4 O12'
_cell_volume   220.67305670
_cell_formula_units_Z   4
loop_
 _symmetry_equiv_pos_site_id
 _symmetry_equiv_pos_as_xyz
  1  'x, y, z'
loop_
 _atom_site_type_symbol
 _atom_site_label
 _atom_site_symmetry_multiplicity
 _atom_site_fract_x
 _atom_site_fract_y
 _atom_site_fract_z
 _atom_site_occupancy
  Fe  Fe0  1  0.24598141  0.79563039  0.70952429  1
  Fe  Fe1  1  0.75400369  0.20437703  0.29047200  1
  Fe  Fe2  1  0.23261475  0.07708712  0.41320009  1
  Fe  Fe3  1  0.76740168  0.92288988  0.58681902  1
  Si  Si0  1  0.23623014  0.22368094  0.89518114  1
  Si  Si1  1  0.26736819  0.59290521  0.27474839  1
  Si  Si2  1  0.76376848  0.77631614  0.10482071  1
  Si  Si3  1  0.73262653  0.40709977  0.72524976  1
  O  O0  1  0.97898429  0.39263126  0.83186793  1
  O  O1  1  0.52392639  0.66450406  0.10929944  1
  O  O2  1  0.02101107  0.60738376  0.16813755  1
  O  O3  1  0.47607265  0.33549434  0.89068147  1
  O  O4  1  0.12797875  0.12858612  0.12795485  1
  O  O5  1  0.37412977  0.35741566  0.36080518  1
  O  O6  1  0.87203009  0.87141610  0.87205194  1
  O  O7  1  0.62587318  0.64259104  0.63918265  1
  O  O8  1  0.84918898  0.23890817  0.54952029  1
  O  O9  1  0.64053982  0.94722982  0.27794999  1
  O  O10  1  0.15080686  0.76108709  0.45048491  1
  O  O11  1  0.35946528  0.05276609  0.72204840  1
loop_
_geom_bond_atom_site_label_1
_geom_bond_atom_site_label_2
_geom_bond_distance
_geom_bond_site_symmetry_2
Fe0 O6 1.945027 1_455
Fe0 O7 1.952206 1_555
Fe0 O11 1.991225 1_565
Fe0 O10 2.006554 1_555
Fe1 O4 1.945105 1_655
Fe1 O5 1.952126 1_555
Fe1 O9 1.991237 1_545
Fe1 O8 2.006616 1_555
Fe2 O8 2.050142 1_455
Fe2 O9 2.089372 1_545
Fe2 O4 2.103421 1_555
Fe2 O5 2.152820 1_555
Fe2 O10 2.240989 1_545
Fe2 O11 2.331096 1_555
Fe3 O10 2.050047 1_655
Fe3 O11 2.089416 1_565
Fe3 O6 2.103328 1_555
Fe3 O7 2.152682 1_555
Fe3 O8 2.241057 1_565
Fe3 O9 2.331245 1_555
O0 Si3 1.626279 1_555
O0 Si0 1.633394 1_655
O1 Si2 1.626106 1_555
O1 Si1 1.633550 1_555
O2 Si1 1.626229 1_555
O2 Si2 1.633339 1_455
O3 Si0 1.626076 1_555
O3 Si3 1.633504 1_555
O4 Si0 1.616505 1_554
O5 Si1 1.610235 1_555
O6 Si2 1.616500 1_556
O7 Si3 1.610258 1_555
O8 Si3 1.634192 1_555
O9 Si2 1.634462 1_555
O10 Si1 1.634181 1_555
O11 Si0 1.634484 1_555
