# generated using pymatgen
data_Sr2MgZrVO6
_symmetry_space_group_name_H-M   'P 1'
_cell_length_a   6.24027870
_cell_length_b   5.87105197
_cell_length_c   5.81549997
_cell_angle_alpha   90.02305794
_cell_angle_beta   117.76042823
_cell_angle_gamma   118.04912010
_symmetry_Int_Tables_number   1
_chemical_formula_structural   Sr2MgZrVO6
_chemical_formula_sum   'Sr2 Mg1 Zr1 V1 O6'
_cell_volume   159.69198954
_cell_formula_units_Z   1
loop_
 _symmetry_equiv_pos_site_id
 _symmetry_equiv_pos_as_xyz
  1  'x, y, z'
loop_
 _atom_site_type_symbol
 _atom_site_label
 _atom_site_symmetry_multiplicity
 _atom_site_fract_x
 _atom_site_fract_y
 _atom_site_fract_z
 _atom_site_occupancy
  Sr  Sr0  1  0.63609700  0.81804900  0.31804900  1
  Sr  Sr1  1  0.36390300  0.18195100  0.68195100  1
  Mg  Mg0  1  0.00000000  0.50000000  0.00000000  1
  Zr  Zr0  1  0.00000000  0.50000000  0.50000000  1
  V  V0  1  0.00000000  0.00000000  0.00000000  1
  O  O0  1  0.00000000  0.74652800  0.24361000  1
  O  O1  1  0.00000000  0.25347200  0.75639000  1
  O  O2  1  0.46990200  0.73495200  0.73495200  1
  O  O3  1  0.53009800  0.26504800  0.26504800  1
  O  O4  1  0.00000000  0.25377100  0.24342700  1
  O  O5  1  0.00000000  0.74622900  0.75657300  1
loop_
_geom_bond_atom_site_label_1
_geom_bond_atom_site_label_2
_geom_bond_distance
_geom_bond_site_symmetry_2
Mg0 O5 2.023744 1_554
Mg0 O4 2.023744 1_555
Mg0 O0 2.024928 1_555
Mg0 O1 2.024928 1_554
Mg0 Sr1 2.975113 1_454
Mg0 Sr0 2.975113 1_555
O0 V0 2.055081 1_565
O0 Zr0 2.078420 1_555
O0 Sr1 2.707924 1_565
O0 Sr0 2.707931 1_455
O1 V0 2.055081 1_556
O1 Zr0 2.078420 1_555
O1 Sr0 2.707924 1_445
O1 Sr1 2.707931 1_555
O2 Zr0 2.197797 1_555
O2 V0 2.479342 1_666
O2 Sr1 2.977088 1_565
O2 Sr1 2.977105 1_555
O2 Sr0 3.009853 1_556
O2 Sr0 3.009859 1_555
O3 Zr0 2.197797 1_655
O3 V0 2.479342 1_555
O3 Sr0 2.977088 1_545
O3 Sr0 2.977105 1_555
O3 Sr1 3.009853 1_554
O3 Sr1 3.009859 1_555
O4 V0 2.054794 1_555
O4 Zr0 2.077126 1_555
O4 Sr1 2.710138 1_555
O4 Sr0 2.710139 1_445
O5 V0 2.054794 1_566
O5 Zr0 2.077126 1_555
O5 Sr0 2.710138 1_455
O5 Sr1 2.710139 1_565
