# generated using pymatgen
data_Na6Nb4Zn2Si3(PO6)6
_symmetry_space_group_name_H-M   'P 1'
_cell_length_a   8.94573352
_cell_length_b   8.94573323
_cell_length_c   22.65767203
_cell_angle_alpha   90.11084974
_cell_angle_beta   89.88915027
_cell_angle_gamma   120.46156593
_symmetry_Int_Tables_number   1
_chemical_formula_structural   Na6Nb4Zn2Si3(PO6)6
_chemical_formula_sum   'Na12 Nb8 Zn4 Si6 P12 O72'
_cell_volume   1562.92438732
_cell_formula_units_Z   2
loop_
 _symmetry_equiv_pos_site_id
 _symmetry_equiv_pos_as_xyz
  1  'x, y, z'
loop_
 _atom_site_type_symbol
 _atom_site_label
 _atom_site_symmetry_multiplicity
 _atom_site_fract_x
 _atom_site_fract_y
 _atom_site_fract_z
 _atom_site_occupancy
  Na  Na0  1  0.36919662  0.35666741  0.24610279  1
  Na  Na1  1  0.98470050  0.62698856  0.24444138  1
  Na  Na2  1  0.64333259  0.63080338  0.74610279  1
  Na  Na3  1  0.37301144  0.01529950  0.74444138  1
  Na  Na4  1  0.71005397  0.03183074  0.91373082  1
  Na  Na5  1  0.96816926  0.28994603  0.41373082  1
  Na  Na6  1  0.00323173  0.99398266  0.49381345  1
  Na  Na7  1  0.00601734  0.99676827  0.99381345  1
  Na  Na8  1  0.67655377  0.34197873  0.82856884  1
  Na  Na9  1  0.65802127  0.32344623  0.32856884  1
  Na  Na10  1  0.34013618  0.67969684  0.16343092  1
  Na  Na11  1  0.32030316  0.65986382  0.66343092  1
  Nb  Nb0  1  0.00409989  0.00578938  0.64322179  1
  Nb  Nb1  1  0.99421062  0.99590011  0.14322179  1
  Nb  Nb2  1  0.66972494  0.34213293  0.98159096  1
  Nb  Nb3  1  0.65786707  0.33027506  0.48159096  1
  Nb  Nb4  1  0.33886823  0.67145386  0.02193875  1
  Nb  Nb5  1  0.32854614  0.66113177  0.52193875  1
  Nb  Nb6  1  0.34044274  0.67009144  0.31326066  1
  Nb  Nb7  1  0.32990856  0.65955726  0.81326066  1
  Zn  Zn0  1  0.00669969  0.99978249  0.35238658  1
  Zn  Zn1  1  0.00021751  0.99330031  0.85238658  1
  Zn  Zn2  1  0.67597802  0.33061800  0.68021113  1
  Zn  Zn3  1  0.66938200  0.32402198  0.18021113  1
  Si  Si0  1  0.95073872  0.33220425  0.58442355  1
  Si  Si1  1  0.37767973  0.04114438  0.58754860  1
  Si  Si2  1  0.95885562  0.62232027  0.08754860  1
  Si  Si3  1  0.66779575  0.04926128  0.08442355  1
  Si  Si4  1  0.62834310  0.66543945  0.91636274  1
  Si  Si5  1  0.33456055  0.37165690  0.41636274  1
  P  P0  1  0.29147537  0.00359798  0.25105791  1
  P  P1  1  0.71258601  0.71274570  0.25199303  1
  P  P2  1  0.99496060  0.28724444  0.25299608  1
  P  P3  1  0.28725430  0.28741399  0.75199303  1
  P  P4  1  0.99640202  0.70852463  0.75105791  1
  P  P5  1  0.71275556  0.00503940  0.75299608  1
  P  P6  1  0.66522452  0.62337942  0.58550842  1
  P  P7  1  0.37662058  0.33477548  0.08550842  1
  P  P8  1  0.04366010  0.37679476  0.91818062  1
  P  P9  1  0.33026788  0.95553543  0.91690044  1
  P  P10  1  0.62320524  0.95633990  0.41818062  1
  P  P11  1  0.04446457  0.66973212  0.41690044  1
  O  O0  1  0.20949569  0.02959651  0.30562228  1
  O  O1  1  0.82407575  0.79502153  0.30572652  1
  O  O2  1  0.97772715  0.18958889  0.30953093  1
  O  O3  1  0.20497847  0.17592425  0.80572652  1
  O  O4  1  0.97040349  0.79050431  0.80562228  1
  O  O5  1  0.81041111  0.02227285  0.80953093  1
  O  O6  1  0.79718967  0.96778717  0.69828108  1
  O  O7  1  0.17233652  0.20012607  0.69538454  1
  O  O8  1  0.03281840  0.83028718  0.69570482  1
  O  O9  1  0.79987393  0.82766348  0.19538454  1
  O  O10  1  0.03221283  0.20281033  0.19828108  1
  O  O11  1  0.16971282  0.96718160  0.19570482  1
  O  O12  1  0.88664537  0.37972181  0.64230800  1
  O  O13  1  0.47891492  0.11166969  0.64796059  1
  O  O14  1  0.62762897  0.52104973  0.64251421  1
  O  O15  1  0.88833031  0.52108508  0.14796059  1
  O  O16  1  0.62027819  0.11335463  0.14230800  1
  O  O17  1  0.47895027  0.37237103  0.14251421  1
  O  O18  1  0.46775163  0.30604127  0.03064927  1
  O  O19  1  0.83133705  0.52891030  0.02836870  1
  O  O20  1  0.69520276  0.16240068  0.02292868  1
  O  O21  1  0.47108970  0.16866295  0.52836870  1
  O  O22  1  0.69395873  0.53224837  0.53064927  1
  O  O23  1  0.83759932  0.30479724  0.52292868  1
  O  O24  1  0.51886261  0.68484956  0.97087788  1
  O  O25  1  0.15537746  0.47330371  0.97120377  1
  O  O26  1  0.31369464  0.84039523  0.97051175  1
  O  O27  1  0.52669629  0.84462254  0.47120377  1
  O  O28  1  0.31515044  0.48113739  0.47087788  1
  O  O29  1  0.15960477  0.68630536  0.47051175  1
  O  O30  1  0.13378518  0.63913175  0.36071422  1
  O  O31  1  0.50531068  0.86681823  0.36196908  1
  O  O32  1  0.36290979  0.50033610  0.35750471  1
  O  O33  1  0.13318177  0.49468932  0.86196908  1
  O  O34  1  0.36086825  0.86621482  0.86071422  1
  O  O35  1  0.49966390  0.63709021  0.85750471  1
  O  O36  1  0.02483406  0.82567281  0.41320766  1
  O  O37  1  0.80230270  0.97987662  0.41292431  1
  O  O38  1  0.15760153  0.19070180  0.41395540  1
  O  O39  1  0.02012338  0.19769730  0.91292431  1
  O  O40  1  0.17432719  0.97516594  0.91320766  1
  O  O41  1  0.80929820  0.84239847  0.91395540  1
  O  O42  1  0.97244739  0.15834617  0.59117679  1
  O  O43  1  0.18196265  0.01985713  0.59080684  1
  O  O44  1  0.83089122  0.80591578  0.58987877  1
  O  O45  1  0.98014287  0.81803735  0.09080684  1
  O  O46  1  0.84165383  0.02755261  0.09117679  1
  O  O47  1  0.19408422  0.16910878  0.08987877  1
  O  O48  1  0.67387763  0.15167408  0.74759723  1
  O  O49  1  0.47234980  0.32223202  0.74507871  1
  O  O50  1  0.83601454  0.52883550  0.74406382  1
  O  O51  1  0.67776798  0.52765020  0.24507871  1
  O  O52  1  0.84832592  0.32612237  0.24759723  1
  O  O53  1  0.47116450  0.16398546  0.24406382  1
  O  O54  1  0.63326825  0.48458805  0.92219304  1
  O  O55  1  0.86085666  0.36160868  0.92209223  1
  O  O56  1  0.50575297  0.13069764  0.92208415  1
  O  O57  1  0.63839132  0.13914334  0.42209223  1
  O  O58  1  0.51541195  0.36673175  0.42219304  1
  O  O59  1  0.86930236  0.49424703  0.42208415  1
  O  O60  1  0.34994303  0.48977958  0.07258143  1
  O  O61  1  0.14896478  0.64782421  0.07243970  1
  O  O62  1  0.50447232  0.85003017  0.07267670  1
  O  O63  1  0.35217579  0.85103522  0.57243970  1
  O  O64  1  0.51022042  0.65005697  0.57258143  1
  O  O65  1  0.14996983  0.49552768  0.57267670  1
  O  O66  1  0.29938374  0.82969965  0.25647824  1
  O  O67  1  0.52702048  0.69800541  0.25562499  1
  O  O68  1  0.17273759  0.47692232  0.25637650  1
  O  O69  1  0.30199459  0.47297952  0.75562499  1
  O  O70  1  0.17030035  0.70061626  0.75647824  1
  O  O71  1  0.52307768  0.82726241  0.75637650  1
loop_
_geom_bond_atom_site_label_1
_geom_bond_atom_site_label_2
_geom_bond_distance
_geom_bond_site_symmetry_2
Na0 O53 2.323575 1_555
Na0 O51 2.383025 1_555
Na0 O68 2.492902 1_555
Na0 O17 2.518928 1_555
Na0 O67 2.644116 1_555
Na0 O10 2.820637 1_555
Na0 O32 2.843636 1_555
Na0 O0 2.861830 1_555
Na1 O52 2.325646 1_555
Na1 O15 2.364456 1_555
Na1 O51 2.419691 1_555
Na1 O66 2.472362 1_655
Na1 O68 2.645306 1_655
Na1 O11 2.849412 1_655
Na1 O1 2.902859 1_555
Na1 O30 2.931982 1_655
Na2 O50 2.323575 1_555
Na2 O49 2.383025 1_555
Na2 O71 2.492902 1_555
Na2 O14 2.518928 1_555
Na2 O69 2.644116 1_555
Na2 O6 2.820637 1_555
Na2 O35 2.843636 1_555
Na2 O4 2.861830 1_555
Na3 O48 2.325646 1_555
Na3 O13 2.364456 1_555
Na3 O49 2.419691 1_555
Na3 O70 2.472362 1_545
Na3 O71 2.645306 1_545
Na3 O8 2.849413 1_545
Na3 O3 2.902859 1_555
Na3 O34 2.931982 1_545
Na4 O41 2.277154 1_545
Na4 O39 2.392239 1_655
Na4 O56 2.407319 1_555
Na4 O5 2.540890 1_555
Na4 O55 2.553926 1_555
Na4 O20 2.765570 1_556
Na4 O34 2.951415 1_545
Na4 O24 2.976714 1_545
Na5 O38 2.277154 1_655
Na5 O37 2.392239 1_545
Na5 O59 2.407319 1_555
Na5 O2 2.540890 1_555
Na5 O57 2.553926 1_555
Na5 O23 2.765570 1_555
Na5 O30 2.951415 1_655
Na5 O28 2.976714 1_655
Na6 O38 2.411734 1_565
Na6 O36 2.433694 1_555
Na6 O37 2.527382 1_455
Na6 O43 2.660079 1_565
Na6 O44 2.704866 1_455
Na6 O42 2.738609 1_465
Na7 O41 2.411734 1_455
Na7 O40 2.433694 1_555
Na7 O39 2.527382 1_565
Na7 O45 2.660079 1_456
Na7 O47 2.704866 1_566
Na7 O46 2.738609 1_466
Na8 O50 2.465603 1_555
Na8 O48 2.492270 1_555
Na8 O49 2.575195 1_555
Na8 O54 2.600890 1_555
Na8 O55 2.637785 1_555
Na8 O56 2.733365 1_555
Na9 O53 2.465603 1_555
Na9 O52 2.492270 1_555
Na9 O51 2.575194 1_555
Na9 O58 2.600890 1_555
Na9 O57 2.637785 1_555
Na9 O59 2.733365 1_555
Na10 O62 2.537813 1_555
Na10 O61 2.602564 1_555
Na10 O66 2.619218 1_555
Na10 O67 2.630565 1_555
Na10 O68 2.686313 1_555
Na10 O60 2.695957 1_555
Na11 O65 2.537813 1_555
Na11 O63 2.602564 1_555
Na11 O70 2.619218 1_555
Na11 O69 2.630565 1_555
Na11 O71 2.686313 1_555
Na11 O64 2.695957 1_555
Nb0 O42 1.931982 1_455
Nb0 O43 1.936005 1_555
Nb0 O7 2.007561 1_555
Nb0 O44 2.061187 1_445
Nb0 O8 2.088616 1_545
Nb0 O6 2.110126 1_445
Nb1 O46 1.931983 1_565
Nb1 O45 1.936005 1_555
Nb1 O9 2.007561 1_555
Nb1 O47 2.061187 1_665
Nb1 O11 2.088616 1_655
Nb1 O10 2.110125 1_665
Nb2 O19 1.885495 1_556
Nb2 O20 1.972953 1_556
Nb2 O54 1.992819 1_555
Nb2 O18 2.001611 1_556
Nb2 O55 2.112143 1_555
Nb2 O56 2.175266 1_555
Nb3 O21 1.885495 1_555
Nb3 O23 1.972953 1_555
Nb3 O58 1.992819 1_555
Nb3 O22 2.001611 1_555
Nb3 O57 2.112143 1_555
Nb3 O59 2.175266 1_555
Nb4 O62 1.915256 1_555
Nb4 O24 1.934735 1_554
Nb4 O61 1.967047 1_555
Nb4 O26 2.011316 1_554
Nb4 O60 2.034370 1_555
Nb4 O25 2.051144 1_554
Nb5 O65 1.915256 1_555
Nb5 O28 1.934734 1_555
Nb5 O63 1.967047 1_555
Nb5 O29 2.011316 1_555
Nb5 O64 2.034370 1_555
Nb5 O27 2.051144 1_555
Nb6 O32 1.915090 1_555
Nb6 O31 1.964030 1_555
Nb6 O67 2.030703 1_555
Nb6 O30 2.030950 1_555
Nb6 O68 2.065990 1_555
Nb6 O66 2.090327 1_555
Nb7 O35 1.915090 1_555
Nb7 O33 1.964031 1_555
Nb7 O69 2.030703 1_555
Nb7 O34 2.030950 1_555
Nb7 O71 2.065990 1_555
Nb7 O70 2.090327 1_555
O0 P0 1.512838 1_555
O0 Zn0 1.997014 1_545
O1 P1 1.508519 1_555
O1 Zn0 2.026563 1_655
O2 P2 1.514855 1_555
O2 Zn0 2.084862 1_645
O3 P3 1.508519 1_555
O3 Zn1 2.026563 1_545
O4 P4 1.512838 1_555
O4 Zn1 1.997014 1_655
O5 P5 1.514855 1_555
O5 Zn1 2.084862 1_645
O6 P5 1.571132 1_565
O7 P3 1.580819 1_555
O8 P4 1.584130 1_455
O9 P1 1.580819 1_555
O10 P2 1.571132 1_455
O11 P0 1.584130 1_565
O12 Si0 1.572129 1_555
O12 Zn2 1.907340 1_555
O13 Si1 1.585538 1_555
O13 Zn2 1.994122 1_555
O14 P6 1.519904 1_555
O14 Zn2 2.138415 1_555
O15 Si2 1.585538 1_555
O15 Zn3 1.994122 1_555
O16 Si3 1.572129 1_555
O16 Zn3 1.907340 1_555
O17 P7 1.519904 1_555
O17 Zn3 2.138415 1_555
O18 P7 1.575753 1_555
O19 Si2 1.683034 1_555
O20 Si3 1.666851 1_555
O21 Si1 1.683034 1_555
O22 P6 1.575753 1_555
O23 Si0 1.666851 1_555
O24 Si4 1.637663 1_555
O25 P8 1.520943 1_555
O26 P9 1.551687 1_555
O27 P10 1.520943 1_555
O28 Si5 1.637663 1_555
O29 P11 1.551687 1_555
O30 P11 1.597042 1_555
O31 P10 1.587651 1_555
O32 Si5 1.696025 1_555
O33 P8 1.587651 1_555
O34 P9 1.597042 1_555
O35 Si4 1.696025 1_555
O36 P11 1.494245 1_555
O36 Zn0 2.148642 1_555
O37 P10 1.510877 1_555
O37 Zn0 2.217558 1_655
O38 Si5 1.590956 1_555
O38 Zn0 2.084641 1_545
O39 P8 1.510877 1_555
O39 Zn1 2.217558 1_545
O40 P9 1.494245 1_555
O40 Zn1 2.148642 1_555
O41 Si4 1.590956 1_555
O41 Zn1 2.084641 1_655
O42 Si0 1.669528 1_555
O43 Si1 1.663920 1_555
O44 P6 1.555262 1_555
O45 Si2 1.663920 1_555
O46 Si3 1.669528 1_555
O47 P7 1.555262 1_555
O48 P5 1.523147 1_555
O48 Zn2 2.207458 1_555
O49 P3 1.529557 1_555
O49 Zn2 2.309879 1_555
O50 P4 1.526126 1_555
O50 Zn2 2.170506 1_555
O51 P1 1.529557 1_555
O51 Zn3 2.309878 1_555
O52 P2 1.523147 1_555
O52 Zn3 2.207458 1_555
O53 P0 1.526126 1_555
O53 Zn3 2.170506 1_555
O54 Si4 1.646192 1_555
O55 P8 1.573146 1_655
O56 P9 1.561869 1_545
O57 P10 1.573146 1_545
O58 Si5 1.646192 1_555
O59 P11 1.561869 1_655
O60 P7 1.550109 1_555
O61 Si2 1.632834 1_455
O62 Si3 1.655724 1_565
O63 Si1 1.632834 1_565
O64 P6 1.550109 1_555
O65 Si0 1.655724 1_455
O66 P0 1.597651 1_565
O67 P1 1.599186 1_555
O68 P2 1.636495 1_455
O69 P3 1.599186 1_555
O70 P4 1.597651 1_455
O71 P5 1.636495 1_565
