# generated using pymatgen
data_CsSnF3
_symmetry_space_group_name_H-M   'P 1'
_cell_length_a   6.68576753
_cell_length_b   4.50611395
_cell_length_c   15.17194424
_cell_angle_alpha   72.75031268
_cell_angle_beta   90.00000000
_cell_angle_gamma   90.00000000
_symmetry_Int_Tables_number   1
_chemical_formula_structural   CsSnF3
_chemical_formula_sum   'Cs4 Sn4 F12'
_cell_volume   436.52372939
_cell_formula_units_Z   4
loop_
 _symmetry_equiv_pos_site_id
 _symmetry_equiv_pos_as_xyz
  1  'x, y, z'
loop_
 _atom_site_type_symbol
 _atom_site_label
 _atom_site_symmetry_multiplicity
 _atom_site_fract_x
 _atom_site_fract_y
 _atom_site_fract_z
 _atom_site_occupancy
  Cs  Cs0  1  0.97676190  0.10634854  0.64446633  1
  Cs  Cs1  1  0.52323810  0.10634854  0.14446633  1
  Cs  Cs2  1  0.02323810  0.89365146  0.35553367  1
  Cs  Cs3  1  0.47676190  0.89365146  0.85553367  1
  Sn  Sn0  1  0.02470154  0.63731636  0.11217431  1
  Sn  Sn1  1  0.47529846  0.63731636  0.61217431  1
  Sn  Sn2  1  0.97529846  0.36268364  0.88782569  1
  Sn  Sn3  1  0.52470154  0.36268364  0.38782569  1
  F  F0  1  0.19083673  0.51650389  0.23165915  1
  F  F1  1  0.30916327  0.51650389  0.73165915  1
  F  F2  1  0.80916327  0.48349611  0.76834085  1
  F  F3  1  0.69083673  0.48349611  0.26834085  1
  F  F4  1  0.06887697  0.11452976  0.13389721  1
  F  F5  1  0.43112303  0.11452976  0.63389721  1
  F  F6  1  0.93112303  0.88547024  0.86610279  1
  F  F7  1  0.56887697  0.88547024  0.36610279  1
  F  F8  1  0.29552494  0.70452887  0.04583379  1
  F  F9  1  0.20447506  0.70452887  0.54583379  1
  F  F10  1  0.70447506  0.29547113  0.95416621  1
  F  F11  1  0.79552494  0.29547113  0.45416621  1
loop_
_geom_bond_atom_site_label_1
_geom_bond_atom_site_label_2
_geom_bond_distance
_geom_bond_site_symmetry_2
Cs0 F11 3.011858 1_555
Cs0 F5 3.041629 1_655
Cs0 F9 3.070910 1_655
Cs0 F9 3.072874 1_645
Cs0 F2 3.088149 1_545
Cs0 F2 3.093585 1_555
Cs0 F6 3.225873 1_545
Cs0 F1 3.399237 1_655
Cs0 F1 3.415855 1_645
Cs0 F5 3.651243 1_555
Cs1 F10 3.011858 1_554
Cs1 F4 3.041629 1_555
Cs1 F8 3.070910 1_555
Cs1 F8 3.072874 1_545
Cs1 F3 3.088149 1_545
Cs1 F3 3.093585 1_555
Cs1 F7 3.225873 1_545
Cs1 F0 3.399237 1_555
Cs1 F0 3.415855 1_545
Cs1 F4 3.651243 1_655
Cs2 F9 3.011858 1_555
Cs2 F7 3.041629 1_455
Cs2 F11 3.070910 1_455
Cs2 F11 3.072874 1_465
Cs2 F0 3.088149 1_565
Cs2 F0 3.093585 1_555
Cs2 F4 3.225873 1_565
Cs2 F3 3.399237 1_455
Cs2 F3 3.415855 1_465
Cs2 F7 3.651243 1_555
Cs3 F8 3.011858 1_556
Cs3 F6 3.041629 1_555
Cs3 F10 3.070910 1_555
Cs3 F10 3.072874 1_565
Cs3 F1 3.088149 1_565
Cs3 F1 3.093585 1_555
Cs3 F5 3.225873 1_565
Cs3 F2 3.399237 1_555
Cs3 F2 3.415855 1_565
Cs3 F6 3.651243 1_455
F0 Sn0 2.056969 1_555
F1 Sn1 2.056969 1_555
F2 Sn2 2.056969 1_555
F3 Sn3 2.056969 1_555
F4 Sn0 2.289170 1_545
F4 Sn0 2.298887 1_555
F5 Sn1 2.289170 1_545
F5 Sn1 2.298887 1_555
F6 Sn2 2.289170 1_565
F6 Sn2 2.298887 1_555
F7 Sn3 2.289170 1_565
F7 Sn3 2.298887 1_555
F8 Sn0 2.050001 1_555
F9 Sn1 2.050001 1_555
F10 Sn2 2.050001 1_555
F11 Sn3 2.050001 1_555
