# generated using pymatgen
data_KCrCl3
_symmetry_space_group_name_H-M   'P 1'
_cell_length_a   6.94352017
_cell_length_b   6.94352017
_cell_length_c   6.94351954
_cell_angle_alpha   60.47624740
_cell_angle_beta   60.47624740
_cell_angle_gamma   60.47624008
_symmetry_Int_Tables_number   1
_chemical_formula_structural   KCrCl3
_chemical_formula_sum   'K2 Cr2 Cl6'
_cell_volume   239.26223514
_cell_formula_units_Z   2
loop_
 _symmetry_equiv_pos_site_id
 _symmetry_equiv_pos_as_xyz
  1  'x, y, z'
loop_
 _atom_site_type_symbol
 _atom_site_label
 _atom_site_symmetry_multiplicity
 _atom_site_fract_x
 _atom_site_fract_y
 _atom_site_fract_z
 _atom_site_occupancy
  K  K0  1  0.74308385  0.74308385  0.74308385  1
  K  K1  1  0.24308385  0.24308385  0.24308385  1
  Cr  Cr0  1  0.99477200  0.99477200  0.99477200  1
  Cr  Cr1  1  0.49477200  0.49477200  0.49477200  1
  Cl  Cl0  1  0.74421162  0.20539430  0.28403724  1
  Cl  Cl1  1  0.20539430  0.28403724  0.74421162  1
  Cl  Cl2  1  0.28403724  0.74421162  0.20539430  1
  Cl  Cl3  1  0.78403724  0.70539430  0.24421162  1
  Cl  Cl4  1  0.24421162  0.78403724  0.70539430  1
  Cl  Cl5  1  0.70539430  0.24421162  0.78403724  1
loop_
_geom_bond_atom_site_label_1
_geom_bond_atom_site_label_2
_geom_bond_distance
_geom_bond_site_symmetry_2
Cl0 Cr0 2.478541 1_544
Cl0 Cr1 2.479556 1_555
Cl0 K0 3.221825 1_545
Cl0 K1 3.463732 1_655
Cl0 K1 3.501610 1_555
Cl1 Cr0 2.478542 1_445
Cl1 Cr1 2.479557 1_555
Cl1 K0 3.221825 1_455
Cl1 K1 3.463732 1_556
Cl1 K1 3.501610 1_555
Cl2 Cr0 2.478541 1_454
Cl2 Cr1 2.479556 1_555
Cl2 K0 3.221825 1_554
Cl2 K1 3.463732 1_565
Cl2 K1 3.501610 1_555
Cl3 Cr1 2.478542 1_555
Cl3 Cr0 2.479557 1_554
Cl3 K1 3.221825 1_655
Cl3 K0 3.463732 1_555
Cl3 K0 3.501610 1_554
Cl4 Cr1 2.478541 1_555
Cl4 Cr0 2.479556 1_455
Cl4 K1 3.221825 1_565
Cl4 K0 3.463732 1_555
Cl4 K0 3.501610 1_455
Cl5 Cr1 2.478541 1_555
Cl5 Cr0 2.479556 1_545
Cl5 K1 3.221825 1_556
Cl5 K0 3.463732 1_555
Cl5 K0 3.501610 1_545
