# generated using pymatgen
data_KAuCl4
_symmetry_space_group_name_H-M   'P 1'
_cell_length_a   6.58688200
_cell_length_b   9.10042300
_cell_length_c   12.51330975
_cell_angle_alpha   83.43462487
_cell_angle_beta   90.00000000
_cell_angle_gamma   90.00000000
_symmetry_Int_Tables_number   1
_chemical_formula_structural   KAuCl4
_chemical_formula_sum   'K4 Au4 Cl16'
_cell_volume   745.17142615
_cell_formula_units_Z   4
loop_
 _symmetry_equiv_pos_site_id
 _symmetry_equiv_pos_as_xyz
  1  'x, y, z'
loop_
 _atom_site_type_symbol
 _atom_site_label
 _atom_site_symmetry_multiplicity
 _atom_site_fract_x
 _atom_site_fract_y
 _atom_site_fract_z
 _atom_site_occupancy
  K  K0  1  0.69854700  0.22911700  0.31327100  1
  K  K1  1  0.30145300  0.22911700  0.81327100  1
  K  K2  1  0.19993900  0.79918900  0.18079900  1
  K  K3  1  0.80006100  0.79918900  0.68079900  1
  Au  Au0  1  0.24897800  0.51186500  0.49364600  1
  Au  Au1  1  0.75102200  0.51186500  0.99364600  1
  Au  Au2  1  0.24736400  0.01271600  0.49853800  1
  Au  Au3  1  0.75263600  0.01271600  0.99853800  1
  Cl  Cl0  1  0.49959400  0.34837300  0.56339800  1
  Cl  Cl1  1  0.50040600  0.34837300  0.06339800  1
  Cl  Cl2  1  0.99765400  0.67460100  0.42387500  1
  Cl  Cl3  1  0.00234600  0.67460100  0.92387500  1
  Cl  Cl4  1  0.10142700  0.50717100  0.66248200  1
  Cl  Cl5  1  0.89857300  0.50717100  0.16248200  1
  Cl  Cl6  1  0.39708300  0.51722400  0.32478500  1
  Cl  Cl7  1  0.60291700  0.51722400  0.82478500  1
  Cl  Cl8  1  0.46087200  0.89226200  0.95116300  1
  Cl  Cl9  1  0.53912800  0.89226200  0.45116300  1
  Cl  Cl10  1  0.04513100  0.13260300  0.04560200  1
  Cl  Cl11  1  0.95486900  0.13260300  0.54560200  1
  Cl  Cl12  1  0.80284200  0.10386900  0.81919400  1
  Cl  Cl13  1  0.19715800  0.10386900  0.31919400  1
  Cl  Cl14  1  0.70230600  0.92171000  0.17794700  1
  Cl  Cl15  1  0.29769400  0.92171000  0.67794700  1
loop_
_geom_bond_atom_site_label_1
_geom_bond_atom_site_label_2
_geom_bond_distance
_geom_bond_site_symmetry_2
Au0 Cl4 2.321480 1_555
Au0 Cl6 2.322783 1_555
Au0 Cl2 2.323859 1_455
Au0 Cl0 2.324569 1_555
Au1 Cl5 2.321480 1_556
Au1 Cl7 2.322783 1_555
Au1 Cl3 2.323859 1_655
Au1 Cl1 2.324569 1_556
Au2 Cl9 2.322719 1_545
Au2 Cl11 2.322929 1_455
Au2 Cl13 2.325544 1_555
Au2 Cl15 2.326083 1_545
Au3 Cl8 2.322719 1_545
Au3 Cl10 2.322929 1_656
Au3 Cl12 2.325544 1_555
Au3 Cl14 2.326083 1_546
Cl0 K1 3.446986 1_555
Cl0 K0 3.669923 1_555
Cl1 K0 3.446986 1_555
Cl1 K1 3.669923 1_554
Cl2 K2 3.394717 1_655
Cl3 K3 3.394717 1_455
Cl4 K1 3.256895 1_555
Cl4 K3 3.345823 1_455
Cl5 K0 3.256895 1_555
Cl5 K2 3.345823 1_655
Cl6 K2 3.234143 1_555
Cl6 K0 3.305225 1_555
Cl7 K3 3.234143 1_555
Cl7 K1 3.305225 1_555
Cl8 K2 3.372231 1_556
Cl8 K1 3.502544 1_565
Cl9 K3 3.372231 1_555
Cl9 K0 3.502544 1_565
Cl10 K1 3.389703 1_554
Cl10 K2 3.454628 1_545
Cl11 K0 3.389703 1_555
Cl11 K3 3.454628 1_545
Cl12 K3 3.432985 1_545
Cl12 K1 3.474466 1_655
Cl12 K1 3.491768 1_555
Cl13 K2 3.432985 1_545
Cl13 K0 3.474466 1_455
Cl13 K0 3.491768 1_555
Cl14 K0 3.431839 1_565
Cl14 K2 3.461168 1_655
Cl14 K2 3.490713 1_555
Cl15 K1 3.431839 1_565
Cl15 K3 3.461168 1_455
Cl15 K3 3.490713 1_555
