# generated using pymatgen
data_Na6Ti4Al4Si5S7O48
_symmetry_space_group_name_H-M   'P 1'
_cell_length_a   17.23897786
_cell_length_b   8.62805254
_cell_length_c   22.15971305
_cell_angle_alpha   90.10318820
_cell_angle_beta   90.01100791
_cell_angle_gamma   120.16987973
_symmetry_Int_Tables_number   1
_chemical_formula_structural   Na6Ti4Al4Si5S7O48
_chemical_formula_sum   'Na18 Ti12 Al12 Si15 S21 O144'
_cell_volume   2849.52204052
_cell_formula_units_Z   3
loop_
 _symmetry_equiv_pos_site_id
 _symmetry_equiv_pos_as_xyz
  1  'x, y, z'
loop_
 _atom_site_type_symbol
 _atom_site_label
 _atom_site_symmetry_multiplicity
 _atom_site_fract_x
 _atom_site_fract_y
 _atom_site_fract_z
 _atom_site_occupancy
  Na  Na0  1  0.00095353  0.63434854  0.25335175  1
  Na  Na1  1  0.49762792  0.63674852  0.25013983  1
  Na  Na2  1  0.99792884  0.36202890  0.74892220  1
  Na  Na3  1  0.50214137  0.36338913  0.75202504  1
  Na  Na4  1  0.66453359  0.29961138  0.91645173  1
  Na  Na5  1  0.16542448  0.02676800  0.42301513  1
  Na  Na6  1  0.99969211  0.99728516  0.50294020  1
  Na  Na7  1  0.50115378  0.99445818  0.50127384  1
  Na  Na8  1  0.00236491  0.00599645  0.99701054  1
  Na  Na9  1  0.50031749  0.00272250  0.99995639  1
  Na  Na10  1  0.33143352  0.32898979  0.83510608  1
  Na  Na11  1  0.83014070  0.32878351  0.82667965  1
  Na  Na12  1  0.33623517  0.34048209  0.33030399  1
  Na  Na13  1  0.82948411  0.33233340  0.33738498  1
  Na  Na14  1  0.17665283  0.66549104  0.16693318  1
  Na  Na15  1  0.67141775  0.66409064  0.16452433  1
  Na  Na16  1  0.17238042  0.67969132  0.66577234  1
  Na  Na17  1  0.67540417  0.67890922  0.67099787  1
  Ti  Ti0  1  0.49721574  0.00999332  0.35033266  1
  Ti  Ti1  1  0.99718012  0.98453762  0.84961357  1
  Ti  Ti2  1  0.99917262  0.98502898  0.64888223  1
  Ti  Ti3  1  0.50742011  0.00170699  0.64209104  1
  Ti  Ti4  1  -0.00014900  0.01291904  0.13849113  1
  Ti  Ti5  1  0.49880140  0.01364013  0.14832891  1
  Ti  Ti6  1  0.32658952  0.31991687  0.97433008  1
  Ti  Ti7  1  0.82711071  0.33480316  0.47576087  1
  Ti  Ti8  1  0.16627392  0.66625551  0.01904653  1
  Ti  Ti9  1  0.66454277  0.64890331  0.02502827  1
  Ti  Ti10  1  0.16408632  0.67861947  0.52766498  1
  Ti  Ti11  1  0.66495965  0.66196796  0.52176021  1
  Al  Al0  1  0.99677107  0.99045004  0.35468547  1
  Al  Al1  1  0.50335201  0.01478715  0.85181329  1
  Al  Al2  1  0.32369462  0.33222999  0.68001108  1
  Al  Al3  1  0.82440338  0.31272011  0.69580836  1
  Al  Al4  1  0.33349824  0.34831604  0.18973997  1
  Al  Al5  1  0.82171386  0.31585652  0.17915943  1
  Al  Al6  1  0.82880820  0.31555825  0.98472332  1
  Al  Al7  1  0.33244363  0.34384609  0.48907306  1
  Al  Al8  1  0.17046652  0.66520210  0.31745801  1
  Al  Al9  1  0.66514797  0.64912995  0.31500720  1
  Al  Al10  1  0.16842294  0.68636383  0.81310524  1
  Al  Al11  1  0.66647899  0.65697743  0.81032442  1
  Si  Si0  1  0.34866337  0.70816622  0.25101917  1
  Si  Si1  1  0.49957972  0.30090638  0.24888708  1
  Si  Si2  1  0.64504606  0.28872125  0.75161159  1
  Si  Si3  1  0.00120684  0.69963032  0.74850732  1
  Si  Si4  1  0.85004727  0.99056795  0.75103348  1
  Si  Si5  1  0.18995582  0.05745243  0.58318545  1
  Si  Si6  1  0.69591349  0.05133590  0.58509258  1
  Si  Si7  1  0.33338953  0.62016137  0.58329618  1
  Si  Si8  1  0.82883504  0.04859943  0.08224665  1
  Si  Si9  1  0.19627808  0.34182720  0.08521405  1
  Si  Si10  1  0.68982936  0.32493672  0.08268645  1
  Si  Si11  1  0.52224203  0.37910520  0.91295206  1
  Si  Si12  1  0.16140261  0.94868029  0.91506140  1
  Si  Si13  1  0.66279497  0.37549781  0.41507000  1
  Si  Si14  1  0.02330589  0.66486108  0.41252327  1
  S  S0  1  0.14469837  0.00213618  0.25081976  1
  S  S1  1  0.65024856  0.00512246  0.25114252  1
  S  S2  1  0.85474123  0.71188661  0.25047689  1
  S  S3  1  0.99854723  0.28542275  0.25173685  1
  S  S4  1  0.15021296  0.29555586  0.75127186  1
  S  S5  1  0.49730659  0.71040509  0.75174320  1
  S  S6  1  0.35387489  0.99729554  0.75050528  1
  S  S7  1  0.47444502  0.33318708  0.58378563  1
  S  S8  1  0.97455789  0.32966560  0.58380389  1
  S  S9  1  0.83283887  0.61854086  0.58376059  1
  S  S10  1  0.47552442  0.62045412  0.08389358  1
  S  S11  1  0.97494180  0.61534375  0.08451276  1
  S  S12  1  0.33223165  0.04842221  0.08461322  1
  S  S13  1  0.31141021  0.67197740  0.91287441  1
  S  S14  1  0.81195215  0.66476171  0.91761937  1
  S  S15  1  0.01937763  0.37906789  0.91615788  1
  S  S16  1  0.66660517  0.95229548  0.91547472  1
  S  S17  1  0.31189957  0.95829348  0.41741817  1
  S  S18  1  0.81058448  0.95018588  0.41316517  1
  S  S19  1  0.16650922  0.37695283  0.41494750  1
  S  S20  1  0.51986511  0.66059424  0.41640320  1
  O  O0  1  0.10278757  0.03131802  0.30584437  1
  O  O1  1  0.60930437  0.03585912  0.30530293  1
  O  O2  1  0.41937125  0.80211031  0.30853845  1
  O  O3  1  0.91411909  0.79734434  0.30434214  1
  O  O4  1  0.48426584  0.17045599  0.30726568  1
  O  O5  1  0.98519987  0.17134787  0.30522202  1
  O  O6  1  0.10912296  0.18273722  0.80555520  1
  O  O7  1  0.59934851  0.16493808  0.81100303  1
  O  O8  1  0.48058310  0.79133523  0.80569658  1
  O  O9  1  0.98563821  0.79927004  0.80727603  1
  O  O10  1  0.41097608  0.02879147  0.80514599  1
  O  O11  1  0.92093209  0.03623719  0.80873733  1
  O  O12  1  0.39175198  0.96791550  0.69558655  1
  O  O13  1  0.90343921  0.96646032  0.69263908  1
  O  O14  1  0.09266823  0.22049274  0.69693256  1
  O  O15  1  0.57486270  0.19045611  0.69393818  1
  O  O16  1  0.02262849  0.83788521  0.69177532  1
  O  O17  1  0.51024635  0.81705235  0.69658108  1
  O  O18  1  0.40203654  0.83659667  0.19249212  1
  O  O19  1  0.89669569  0.81931266  0.19591506  1
  O  O20  1  0.01208152  0.20281159  0.19673524  1
  O  O21  1  0.52100972  0.20712641  0.19173294  1
  O  O22  1  0.08470468  0.96425859  0.19778091  1
  O  O23  1  0.59264583  0.96509441  0.19680059  1
  O  O24  1  0.43640307  0.36202969  0.63989455  1
  O  O25  1  0.93870678  0.36552125  0.63914774  1
  O  O26  1  0.25189766  0.13322464  0.64240618  1
  O  O27  1  0.75691268  0.14181757  0.64251150  1
  O  O28  1  0.31750251  0.50315918  0.64337303  1
  O  O29  1  0.81961126  0.51125641  0.63803065  1
  O  O30  1  0.43832927  0.51195472  0.13979806  1
  O  O31  1  0.93631148  0.51099796  0.14118946  1
  O  O32  1  0.31945601  0.12955224  0.13876628  1
  O  O33  1  0.81924961  0.13338858  0.14448211  1
  O  O34  1  0.25352410  0.36354289  0.14401120  1
  O  O35  1  0.75068107  0.37207681  0.14270387  1
  O  O36  1  0.23672650  0.30412025  0.02431035  1
  O  O37  1  0.73344055  0.30491164  0.02030216  1
  O  O38  1  0.42083755  0.53640787  0.02990544  1
  O  O39  1  0.92075520  0.53597826  0.02989950  1
  O  O40  1  0.34754737  0.15404350  0.02890976  1
  O  O41  1  0.85629026  0.17338868  0.02345676  1
  O  O42  1  0.23310473  0.16042570  0.51945894  1
  O  O43  1  0.73792705  0.16971211  0.52353796  1
  O  O44  1  0.35568993  0.54299141  0.52316950  1
  O  O45  1  0.84773929  0.54286833  0.52786599  1
  O  O46  1  0.42068808  0.30876760  0.52860814  1
  O  O47  1  0.92132936  0.30624455  0.52899098  1
  O  O48  1  0.27159744  0.70022519  0.96918074  1
  O  O49  1  0.77290365  0.69564563  0.97255084  1
  O  O50  1  0.07727984  0.46458394  0.97119151  1
  O  O51  1  0.58831061  0.47165053  0.97216635  1
  O  O52  1  0.15159677  0.82835893  0.97599487  1
  O  O53  1  0.65466355  0.84970112  0.97086254  1
  O  O54  1  0.27228445  0.84873010  0.47157152  1
  O  O55  1  0.77296465  0.84301321  0.46857906  1
  O  O56  1  0.15145448  0.45217411  0.46918384  1
  O  O57  1  0.65105925  0.47381718  0.47534461  1
  O  O58  1  0.09012205  0.70798800  0.47073306  1
  O  O59  1  0.57716554  0.69026098  0.47054633  1
  O  O60  1  0.07064332  0.64000057  0.35208465  1
  O  O61  1  0.56253784  0.63954532  0.36046689  1
  O  O62  1  0.25414568  0.87675562  0.36288605  1
  O  O63  1  0.75326163  0.86703230  0.35930370  1
  O  O64  1  0.18220804  0.48981972  0.36046452  1
  O  O65  1  0.68430092  0.50402916  0.35809459  1
  O  O66  1  0.06265535  0.48600614  0.86116415  1
  O  O67  1  0.56901815  0.50407736  0.85476223  1
  O  O68  1  0.18399761  0.86250781  0.85917804  1
  O  O69  1  0.68214043  0.87265449  0.86135776  1
  O  O70  1  0.25265797  0.63762523  0.85996940  1
  O  O71  1  0.75486205  0.63051811  0.86371809  1
  O  O72  1  0.01457735  0.84704359  0.40513452  1
  O  O73  1  0.51125449  0.82140099  0.41173307  1
  O  O74  1  0.40084416  0.97312995  0.41099680  1
  O  O75  1  0.90203750  0.97234352  0.40526669  1
  O  O76  1  0.08470504  0.19342441  0.40538480  1
  O  O77  1  0.57660234  0.17279808  0.41004309  1
  O  O78  1  0.01107711  0.20121444  0.91268654  1
  O  O79  1  0.51115451  0.17821277  0.90864640  1
  O  O80  1  0.07639901  0.98046507  0.91144567  1
  O  O81  1  0.58460846  0.97134865  0.90975799  1
  O  O82  1  0.40163238  0.83167819  0.90610055  1
  O  O83  1  0.90141209  0.82867161  0.91204305  1
  O  O84  1  0.48381197  0.17292857  0.58707117  1
  O  O85  1  0.98582236  0.17135318  0.58866589  1
  O  O86  1  0.08947506  0.03220170  0.58916940  1
  O  O87  1  0.59419871  0.02440747  0.58964581  1
  O  O88  1  0.41845287  0.82409908  0.59363982  1
  O  O89  1  0.91281313  0.80184857  0.58726899  1
  O  O90  1  0.48573272  0.80028121  0.08986229  1
  O  O91  1  0.98593006  0.79754687  0.09076171  1
  O  O92  1  0.41239654  0.02512396  0.08838494  1
  O  O93  1  0.91737509  0.01783570  0.09267588  1
  O  O94  1  0.09386020  0.16162158  0.09275803  1
  O  O95  1  0.58929677  0.14722682  0.09013590  1
  O  O96  1  0.34752931  0.16482689  0.74560660  1
  O  O97  1  0.85116872  0.17686322  0.74425913  1
  O  O98  1  0.23958369  0.31104002  0.74464560  1
  O  O99  1  0.74236990  0.31340174  0.74374118  1
  O  O100  1  0.41840722  0.52250584  0.74484117  1
  O  O101  1  0.91414535  0.50886928  0.73787648  1
  O  O102  1  0.34582328  0.51800334  0.24434460  1
  O  O103  1  0.84862026  0.53224819  0.24563828  1
  O  O104  1  0.41037780  0.31329751  0.23857826  1
  O  O105  1  0.91941709  0.31128570  0.24583715  1
  O  O106  1  0.23411458  0.15979084  0.24438616  1
  O  O107  1  0.74011630  0.16933908  0.24434270  1
  O  O108  1  0.32021242  0.51085970  0.92036219  1
  O  O109  1  0.82263182  0.50344828  0.92372088  1
  O  O110  1  0.42507109  0.36262276  0.92561323  1
  O  O111  1  0.93146749  0.37000469  0.92348253  1
  O  O112  1  0.25196435  0.14728658  0.92276104  1
  O  O113  1  0.74740432  0.14154264  0.92068155  1
  O  O114  1  0.32232531  0.14047695  0.42218643  1
  O  O115  1  0.82148111  0.13045407  0.41954834  1
  O  O116  1  0.24636058  0.35112727  0.41897828  1
  O  O117  1  0.75230805  0.35587043  0.42264301  1
  O  O118  1  0.43120009  0.49302518  0.42261074  1
  O  O119  1  0.92568243  0.48846627  0.42310539  1
  O  O120  1  0.17827207  0.51005049  0.07464333  1
  O  O121  1  0.67679202  0.50219407  0.07720105  1
  O  O122  1  0.06591073  0.63547339  0.07921578  1
  O  O123  1  0.56643928  0.64118031  0.07827076  1
  O  O124  1  0.25144508  0.86466411  0.07849081  1
  O  O125  1  0.74325150  0.84850182  0.07378220  1
  O  O126  1  0.17721522  0.85343429  0.57767370  1
  O  O127  1  0.67915282  0.84752749  0.57249981  1
  O  O128  1  0.24348374  0.63753583  0.57206091  1
  O  O129  1  0.75204394  0.63987459  0.57727429  1
  O  O130  1  0.06669610  0.49161935  0.57711373  1
  O  O131  1  0.56535125  0.49732803  0.57821582  1
  O  O132  1  0.15213269  0.83773188  0.25719048  1
  O  O133  1  0.65888081  0.84304326  0.25981410  1
  O  O134  1  0.25175299  0.69123081  0.26154138  1
  O  O135  1  0.76627176  0.69667349  0.25782949  1
  O  O136  1  0.07992771  0.46635449  0.25665527  1
  O  O137  1  0.58609653  0.50141422  0.25806912  1
  O  O138  1  0.15851432  0.47477944  0.76020593  1
  O  O139  1  0.64870331  0.48132068  0.75634114  1
  O  O140  1  0.08812969  0.67483158  0.75801341  1
  O  O141  1  0.57879475  0.69512247  0.75723712  1
  O  O142  1  0.26411859  0.83468046  0.75840170  1
  O  O143  1  0.75323699  0.81972078  0.76205629  1
loop_
_geom_bond_atom_site_label_1
_geom_bond_atom_site_label_2
_geom_bond_distance
_geom_bond_site_symmetry_2
Na0 O132 2.298108 1_555
Na0 O103 2.318519 1_455
Na0 O105 2.415206 1_455
Na0 O136 2.437953 1_555
Na0 O60 2.484409 1_555
Na0 O31 2.710987 1_455
Na0 O22 2.754254 1_555
Na0 O3 2.757948 1_455
Na1 O102 2.284535 1_555
Na1 O137 2.347528 1_555
Na1 O104 2.427843 1_555
Na1 O133 2.442679 1_555
Na1 O30 2.658247 1_555
Na1 O61 2.683546 1_555
Na1 O23 2.730294 1_555
Na1 O2 2.731109 1_555
Na2 O97 2.213715 1_555
Na2 O140 2.349930 1_655
Na2 O101 2.364627 1_555
Na2 O138 2.442233 1_655
Na2 O25 2.644018 1_555
Na2 O66 2.713915 1_655
Na2 O14 2.736105 1_655
Na2 O11 2.772010 1_555
Na3 O139 2.200821 1_555
Na3 O96 2.338517 1_555
Na3 O100 2.446704 1_555
Na3 O141 2.479700 1_555
Na3 O67 2.562822 1_555
Na3 O15 2.707136 1_555
Na3 O24 2.728369 1_555
Na3 O10 2.764510 1_555
Na4 O79 2.309488 1_555
Na4 O109 2.393332 1_555
Na4 O113 2.422498 1_555
Na4 O81 2.453194 1_545
Na4 O37 2.579359 1_556
Na4 O7 2.598063 1_555
Na4 O51 2.721897 1_555
Na4 O71 2.736030 1_555
Na5 O72 2.295251 1_545
Na5 O114 2.368898 1_555
Na5 O116 2.421365 1_555
Na5 O42 2.428254 1_555
Na5 O76 2.483859 1_555
Na5 O58 2.605856 1_545
Na5 O62 2.788234 1_545
Na5 O0 2.819762 1_555
Na6 O86 2.380266 1_665
Na6 O89 2.460192 1_555
Na6 O85 2.504458 1_565
Na6 O72 2.601547 1_655
Na6 O75 2.682881 1_555
Na6 O76 2.684510 1_665
Na7 O87 2.460667 1_565
Na7 O77 2.479321 1_565
Na7 O88 2.507613 1_555
Na7 O73 2.539220 1_555
Na7 O84 2.554923 1_565
Na7 O74 2.589144 1_555
Na8 O80 2.356815 1_545
Na8 O78 2.471522 1_555
Na8 O83 2.495343 1_445
Na8 O94 2.579196 1_556
Na8 O93 2.608055 1_456
Na8 O91 2.670663 1_446
Na9 O95 2.443021 1_556
Na9 O79 2.479625 1_555
Na9 O92 2.543359 1_556
Na9 O81 2.564052 1_545
Na9 O90 2.579654 1_546
Na9 O82 2.619507 1_545
Na10 O112 2.441475 1_555
Na10 O110 2.497642 1_555
Na10 O98 2.510109 1_555
Na10 O108 2.522615 1_555
Na10 O96 2.530165 1_555
Na10 O100 2.556114 1_555
Na11 O99 2.341172 1_555
Na11 O97 2.377932 1_555
Na11 O101 2.476751 1_555
Na11 O113 2.584681 1_555
Na11 O109 2.663947 1_555
Na11 O111 2.674066 1_555
Na12 O102 2.399557 1_555
Na12 O104 2.474025 1_555
Na12 O106 2.526654 1_555
Na12 O116 2.532523 1_555
Na12 O118 2.533706 1_555
Na12 O114 2.603452 1_555
Na13 O117 2.377369 1_555
Na13 O119 2.432539 1_555
Na13 O115 2.477494 1_555
Na13 O107 2.532356 1_555
Na13 O103 2.580386 1_555
Na13 O105 2.614376 1_555
Na14 O134 2.414331 1_555
Na14 O120 2.451476 1_555
Na14 O124 2.498526 1_555
Na14 O136 2.611395 1_555
Na14 O122 2.643819 1_555
Na14 O132 2.647358 1_555
Na15 O121 2.413430 1_555
Na15 O125 2.478013 1_555
Na15 O137 2.523304 1_555
Na15 O135 2.561729 1_555
Na15 O123 2.570056 1_555
Na15 O133 2.685769 1_555
Na16 O126 2.439344 1_555
Na16 O140 2.495903 1_555
Na16 O142 2.523057 1_555
Na16 O128 2.528531 1_555
Na16 O130 2.613019 1_555
Na16 O138 2.674084 1_555
Na17 O143 2.387389 1_555
Na17 O139 2.432696 1_555
Na17 O129 2.572591 1_555
Na17 O141 2.584527 1_555
Na17 O127 2.608041 1_555
Na17 O131 2.698230 1_555
Al0 O72 1.805983 1_655
Al0 O3 1.912391 1_555
Al0 O75 1.921637 1_555
Al0 O76 1.987711 1_665
Al0 O0 1.997571 1_665
Al0 O5 1.999079 1_565
Al1 O7 1.756330 1_555
Al1 O79 1.842641 1_555
Al1 O10 1.952743 1_555
Al1 O8 2.036552 1_545
Al1 O82 2.059408 1_545
Al1 O81 2.068848 1_545
Al2 O28 1.734378 1_555
Al2 O26 1.741518 1_555
Al2 O98 1.980556 1_555
Al2 O24 2.032461 1_555
Al2 O100 2.172854 1_555
Al2 O96 2.229741 1_555
Al3 O99 1.771174 1_555
Al3 O27 1.786515 1_555
Al3 O97 1.813177 1_555
Al3 O101 1.867806 1_555
Al3 O29 2.174969 1_555
Al3 O25 2.183464 1_555
Al4 O34 1.768290 1_555
Al4 O102 1.825830 1_555
Al4 O104 1.849903 1_555
Al4 O30 1.981381 1_555
Al4 O106 2.062597 1_555
Al4 O32 2.104791 1_555
Al5 O35 1.727846 1_555
Al5 O33 1.731839 1_555
Al5 O107 1.970583 1_555
Al5 O31 2.026826 1_555
Al5 O103 2.233952 1_555
Al5 O105 2.255579 1_555
Al6 O41 1.747451 1_556
Al6 O37 1.783780 1_556
Al6 O39 2.023375 1_556
Al6 O113 2.027638 1_555
Al6 O111 2.088520 1_555
Al6 O109 2.155938 1_555
Al7 O44 1.728270 1_555
Al7 O42 1.780670 1_555
Al7 O46 1.906971 1_555
Al7 O118 2.128246 1_555
Al7 O116 2.170715 1_555
Al7 O114 2.233630 1_555
Al8 O60 1.795100 1_555
Al8 O134 1.798550 1_555
Al8 O64 1.884671 1_555
Al8 O62 1.942233 1_555
Al8 O136 2.119983 1_555
Al8 O132 2.139928 1_555
Al9 O65 1.734267 1_555
Al9 O137 1.822426 1_555
Al9 O63 1.981881 1_555
Al9 O61 2.001144 1_555
Al9 O135 2.024007 1_555
Al9 O133 2.120332 1_555
Al10 O68 1.734457 1_555
Al10 O140 1.810170 1_555
Al10 O142 1.926911 1_555
Al10 O70 1.994681 1_555
Al10 O66 2.070338 1_555
Al10 O138 2.101134 1_555
Al11 O143 1.802155 1_555
Al11 O67 1.819437 1_555
Al11 O139 1.829868 1_555
Al11 O71 2.030618 1_555
Al11 O141 2.068304 1_555
Al11 O69 2.074115 1_555
O0 S0 1.501414 1_555
O1 S1 1.481988 1_555
O1 Ti0 2.085032 1_555
O2 Si0 1.664340 1_555
O2 Ti0 1.857394 1_565
O3 S2 1.501320 1_555
O4 Si1 1.648263 1_555
O4 Ti0 1.786827 1_555
O5 S3 1.484282 1_555
O6 S4 1.485850 1_555
O6 Ti1 2.071557 1_445
O7 Si2 1.628846 1_555
O8 S5 1.483105 1_555
O9 Si3 1.653816 1_655
O9 Ti1 1.774774 1_555
O10 S6 1.496128 1_545
O11 Si4 1.672480 1_545
O11 Ti1 1.826894 1_545
O12 S6 1.461927 1_555
O12 Ti3 2.210007 1_565
O13 Si4 1.660363 1_555
O13 Ti2 1.850655 1_555
O14 S4 1.484742 1_555
O14 Ti2 2.135233 1_445
O15 Si2 1.667472 1_555
O15 Ti3 1.847568 1_555
O16 Si3 1.643954 1_555
O16 Ti2 1.788556 1_455
O17 S5 1.479358 1_555
O17 Ti3 2.020801 1_565
O18 Si0 1.654502 1_555
O18 Ti5 1.875787 1_565
O19 S2 1.474660 1_555
O19 Ti4 2.143527 1_665
O20 S3 1.487327 1_455
O20 Ti4 2.009905 1_555
O21 Si1 1.640792 1_555
O21 Ti5 1.791721 1_555
O22 S0 1.488706 1_565
O22 Ti4 2.158879 1_565
O23 S1 1.486198 1_565
O23 Ti5 2.151380 1_565
O24 S7 1.483639 1_555
O25 S8 1.474058 1_555
O26 Si5 1.607636 1_555
O27 Si6 1.582712 1_555
O28 Si7 1.610437 1_555
O29 S9 1.465285 1_555
O30 S10 1.491086 1_555
O31 S11 1.494382 1_555
O32 S12 1.459647 1_555
O33 Si8 1.606992 1_555
O34 Si9 1.587262 1_555
O35 Si10 1.613490 1_555
O36 Si9 1.624900 1_555
O36 Ti6 1.853126 1_554
O37 Si10 1.623655 1_555
O38 S10 1.468059 1_555
O38 Ti6 2.141499 1_554
O39 S11 1.469609 1_555
O40 S12 1.478580 1_555
O40 Ti6 2.041413 1_554
O41 Si8 1.604229 1_555
O42 Si5 1.636313 1_555
O43 Si6 1.640178 1_555
O43 Ti7 1.821659 1_555
O44 Si7 1.618846 1_555
O45 S9 1.480608 1_555
O45 Ti7 2.008252 1_555
O46 S7 1.483446 1_555
O47 S8 1.473258 1_555
O47 Ti7 2.119624 1_555
O48 S13 1.501551 1_555
O48 Ti8 2.017587 1_556
O49 S14 1.478283 1_555
O49 Ti9 2.061499 1_556
O50 S15 1.511301 1_555
O50 Ti8 1.953324 1_556
O51 Si11 1.654732 1_555
O51 Ti9 1.846875 1_556
O52 Si12 1.660807 1_555
O52 Ti8 1.814044 1_556
O53 S16 1.467394 1_555
O53 Ti9 2.185231 1_556
O54 S17 1.468188 1_555
O54 Ti10 2.105741 1_555
O55 S18 1.478225 1_555
O55 Ti11 2.092766 1_555
O56 S19 1.449019 1_555
O56 Ti10 2.259920 1_555
O57 Si13 1.647145 1_555
O57 Ti11 1.831279 1_555
O58 Si14 1.641942 1_555
O58 Ti10 1.899188 1_555
O59 S20 1.491669 1_555
O59 Ti11 2.002467 1_555
O60 Si14 1.637376 1_555
O61 S20 1.498134 1_555
O62 S17 1.496298 1_555
O63 S18 1.483129 1_555
O64 S19 1.489520 1_555
O65 Si13 1.597905 1_555
O66 S15 1.485100 1_555
O67 Si11 1.614648 1_555
O68 Si12 1.589342 1_555
O69 S16 1.471101 1_555
O70 S13 1.478058 1_555
O71 S14 1.479385 1_555
O72 Si14 1.660997 1_555
O73 S20 1.471488 1_555
O73 Ti0 2.227385 1_565
O74 S17 1.480050 1_555
O74 Ti0 2.034615 1_565
O75 S18 1.499997 1_555
O76 S19 1.514998 1_555
O77 Si13 1.632833 1_555
O77 Ti0 1.912380 1_555
O78 S15 1.469706 1_555
O78 Ti1 2.246378 1_445
O79 Si11 1.648150 1_555
O80 Si12 1.622626 1_555
O80 Ti1 1.947133 1_455
O81 S16 1.508224 1_555
O82 S13 1.478838 1_555
O83 S14 1.483971 1_555
O83 Ti1 2.055230 1_555
O84 S7 1.472436 1_555
O84 Ti3 2.108364 1_555
O85 S8 1.477229 1_555
O85 Ti2 2.190307 1_545
O86 Si5 1.639021 1_555
O86 Ti2 1.925053 1_445
O87 Si6 1.652103 1_555
O87 Ti3 1.825904 1_555
O88 Si7 1.644365 1_555
O88 Ti3 1.866656 1_565
O89 S9 1.488638 1_555
O89 Ti2 2.050579 1_555
O90 S10 1.476686 1_555
O90 Ti5 2.166239 1_565
O91 S11 1.492083 1_555
O91 Ti4 2.043015 1_665
O92 S12 1.495477 1_555
O92 Ti5 2.034962 1_555
O93 Si8 1.691414 1_555
O93 Ti4 1.764732 1_655
O94 Si9 1.674662 1_555
O94 Ti4 1.793028 1_555
O95 Si10 1.646775 1_555
O95 Ti5 1.903663 1_555
O96 S6 1.507523 1_545
O97 Si4 1.605045 1_545
O98 S4 1.485367 1_555
O99 Si2 1.591162 1_555
O100 S5 1.511400 1_555
O101 Si3 1.591406 1_655
O102 Si0 1.623165 1_555
O103 S2 1.503304 1_555
O104 Si1 1.610431 1_555
O105 S3 1.494562 1_555
O106 S0 1.462851 1_555
O107 S1 1.491601 1_555
O108 S13 1.481846 1_555
O108 Ti6 2.084592 1_555
O109 S14 1.499189 1_555
O110 Si11 1.632751 1_555
O110 Ti6 1.885956 1_555
O111 S15 1.486663 1_655
O112 Si12 1.647024 1_545
O112 Ti6 1.801863 1_555
O113 S16 1.527364 1_545
O114 S17 1.493229 1_545
O115 S18 1.476475 1_545
O115 Ti7 2.118908 1_555
O116 S19 1.503617 1_555
O117 Si13 1.643382 1_555
O117 Ti7 1.821318 1_555
O118 S20 1.491680 1_555
O119 Si14 1.621889 1_655
O119 Ti7 1.936147 1_555
O120 Si9 1.646797 1_555
O120 Ti8 1.913928 1_555
O121 Si10 1.658452 1_555
O121 Ti9 1.804818 1_555
O122 S11 1.493188 1_455
O122 Ti8 2.093336 1_555
O123 S10 1.490743 1_555
O123 Ti9 2.035782 1_555
O124 S12 1.500485 1_565
O124 Ti8 2.070332 1_555
O125 Si8 1.622049 1_565
O125 Ti9 1.902129 1_555
O126 Si5 1.665038 1_565
O126 Ti10 1.790264 1_555
O127 Si6 1.655620 1_565
O127 Ti11 1.867354 1_555
O128 Si7 1.649278 1_555
O128 Ti10 1.858855 1_555
O129 S9 1.500734 1_555
O129 Ti11 2.022666 1_555
O130 S8 1.505794 1_455
O130 Ti10 1.976614 1_555
O131 S7 1.498907 1_555
O131 Ti11 2.021644 1_555
O132 S0 1.493957 1_565
O133 S1 1.491575 1_565
O134 Si0 1.619151 1_555
O135 S2 1.472663 1_555
O136 S3 1.488309 1_455
O137 Si1 1.632143 1_555
O138 S4 1.492425 1_555
O139 Si2 1.634155 1_555
O140 Si3 1.630290 1_555
O141 S5 1.480462 1_555
O142 S6 1.487356 1_555
O143 Si4 1.595794 1_555
