# generated using pymatgen
data_Na8Ga2O7
_symmetry_space_group_name_H-M   'P 1'
_cell_length_a   10.90120074
_cell_length_b   8.58955290
_cell_length_c   9.95517110
_cell_angle_alpha   72.37233158
_cell_angle_beta   90.00000000
_cell_angle_gamma   90.00000000
_symmetry_Int_Tables_number   1
_chemical_formula_structural   Na8Ga2O7
_chemical_formula_sum   'Na32 Ga8 O28'
_cell_volume   888.39646611
_cell_formula_units_Z   4
loop_
 _symmetry_equiv_pos_site_id
 _symmetry_equiv_pos_as_xyz
  1  'x, y, z'
loop_
 _atom_site_type_symbol
 _atom_site_label
 _atom_site_symmetry_multiplicity
 _atom_site_fract_x
 _atom_site_fract_y
 _atom_site_fract_z
 _atom_site_occupancy
  Na  Na0  1  0.73097452  0.49835910  0.62765263  1
  Na  Na1  1  0.99608405  0.65967311  0.01763310  1
  Na  Na2  1  0.49608405  0.34032689  0.48236690  1
  Na  Na3  1  0.00391595  0.34032689  0.98236690  1
  Na  Na4  1  0.50391595  0.65967311  0.51763310  1
  Na  Na5  1  0.52569760  0.11838233  0.07750501  1
  Na  Na6  1  0.02569760  0.88161767  0.42249499  1
  Na  Na7  1  0.47430240  0.88161767  0.92249499  1
  Na  Na8  1  0.75996843  0.89283085  0.03273398  1
  Na  Na9  1  0.25996843  0.10716915  0.46726602  1
  Na  Na10  1  0.24003157  0.10716915  0.96726602  1
  Na  Na11  1  0.74003157  0.89283085  0.53273398  1
  Na  Na12  1  0.55364463  0.74306627  0.20979616  1
  Na  Na13  1  0.05364463  0.25693373  0.29020384  1
  Na  Na14  1  0.44635537  0.25693373  0.79020384  1
  Na  Na15  1  0.94635537  0.74306627  0.70979616  1
  Na  Na16  1  0.03982386  0.91578252  0.14357064  1
  Na  Na17  1  0.53982386  0.08421748  0.35642936  1
  Na  Na18  1  0.96017614  0.08421748  0.85642936  1
  Na  Na19  1  0.46017614  0.91578252  0.64357064  1
  Na  Na20  1  0.52829321  0.43193050  0.14389825  1
  Na  Na21  1  0.02829321  0.56806950  0.35610175  1
  Na  Na22  1  0.47170679  0.56806950  0.85610175  1
  Na  Na23  1  0.97170679  0.43193050  0.64389825  1
  Na  Na24  1  0.25010271  0.71438995  0.07007515  1
  Na  Na25  1  0.75010271  0.28561005  0.42992485  1
  Na  Na26  1  0.74989729  0.28561005  0.92992485  1
  Na  Na27  1  0.24989729  0.71438995  0.57007515  1
  Na  Na28  1  0.76902548  0.49835910  0.12765263  1
  Na  Na29  1  0.26902548  0.50164090  0.37234737  1
  Na  Na30  1  0.23097452  0.50164090  0.87234737  1
  Na  Na31  1  0.97430240  0.11838233  0.57750501  1
  Ga  Ga0  1  0.71599012  0.69126278  0.84675981  1
  Ga  Ga1  1  0.21599012  0.30873722  0.65324019  1
  Ga  Ga2  1  0.28400988  0.30873722  0.15324019  1
  Ga  Ga3  1  0.78400988  0.69126278  0.34675981  1
  Ga  Ga4  1  0.70270298  0.09259475  0.72594188  1
  Ga  Ga5  1  0.20270298  0.90740525  0.77405812  1
  Ga  Ga6  1  0.29729702  0.90740525  0.27405812  1
  Ga  Ga7  1  0.79729702  0.09259475  0.22594188  1
  O  O0  1  0.38184659  0.32236570  0.30123662  1
  O  O1  1  0.11121519  0.89825506  0.62044212  1
  O  O2  1  0.61121519  0.10174494  0.87955788  1
  O  O3  1  0.88878481  0.10174494  0.37955788  1
  O  O4  1  0.38878481  0.89825506  0.12044212  1
  O  O5  1  0.11604843  0.32761357  0.49614645  1
  O  O6  1  0.61604843  0.67238643  0.00385355  1
  O  O7  1  0.61035592  0.10511587  0.56684614  1
  O  O8  1  0.20091040  0.10362817  0.21655831  1
  O  O9  1  0.70091040  0.89637183  0.28344169  1
  O  O10  1  0.79908960  0.89637183  0.78344169  1
  O  O11  1  0.29908960  0.10362817  0.71655831  1
  O  O12  1  0.15158893  0.45718142  0.10641399  1
  O  O13  1  0.65158893  0.54281858  0.39358601  1
  O  O14  1  0.84841107  0.54281858  0.89358601  1
  O  O15  1  0.34841107  0.45718142  0.60641399  1
  O  O16  1  0.88184659  0.67763430  0.19876338  1
  O  O17  1  0.38395157  0.32761357  0.99614645  1
  O  O18  1  0.11815341  0.32236570  0.80123662  1
  O  O19  1  0.61815341  0.67763430  0.69876338  1
  O  O20  1  0.67518880  0.24978917  0.18286593  1
  O  O21  1  0.17518880  0.75021083  0.31713407  1
  O  O22  1  0.32481120  0.75021083  0.81713407  1
  O  O23  1  0.82481120  0.24978917  0.68286593  1
  O  O24  1  0.88964408  0.10511587  0.06684614  1
  O  O25  1  0.38964408  0.89488413  0.43315386  1
  O  O26  1  0.11035592  0.89488413  0.93315386  1
  O  O27  1  0.88395157  0.67238643  0.50385355  1
loop_
_geom_bond_atom_site_label_1
_geom_bond_atom_site_label_2
_geom_bond_distance
_geom_bond_site_symmetry_2
Na0 O19 2.246171 1_555
Na0 O23 2.279561 1_555
Na0 O27 2.327788 1_555
Na0 O13 2.405308 1_555
Na1 O16 2.234859 1_555
Na1 O26 2.304736 1_654
Na1 O12 2.397703 1_655
Na1 O14 2.423777 1_554
Na2 O0 2.234859 1_555
Na2 O7 2.304736 1_555
Na2 O13 2.397703 1_555
Na2 O15 2.423777 1_555
Na3 O18 2.234859 1_555
Na3 O24 2.304736 1_456
Na3 O14 2.397703 1_455
Na3 O12 2.423777 1_556
Na4 O19 2.234859 1_555
Na4 O25 2.304736 1_555
Na4 O15 2.397703 1_555
Na4 O13 2.423777 1_555
Na5 O2 2.223358 1_554
Na5 O17 2.322062 1_554
Na5 O4 2.344336 1_545
Na5 O20 2.397276 1_555
Na6 O1 2.223358 1_555
Na6 O27 2.322062 1_455
Na6 O3 2.344336 1_465
Na6 O21 2.397276 1_555
Na7 O4 2.223358 1_556
Na7 O6 2.322062 1_556
Na7 O2 2.344336 1_565
Na7 O22 2.397276 1_555
Na8 O24 2.411140 1_565
Na8 O16 2.462411 1_555
Na8 O10 2.509214 1_554
Na8 O6 2.541506 1_555
Na8 O2 2.552975 1_564
Na8 O9 2.586618 1_555
Na9 O25 2.411140 1_545
Na9 O0 2.462411 1_555
Na9 O11 2.509214 1_555
Na9 O5 2.541506 1_555
Na9 O1 2.552975 1_545
Na9 O8 2.586618 1_555
Na10 O26 2.411140 1_545
Na10 O18 2.462411 1_555
Na10 O8 2.509214 1_556
Na10 O17 2.541506 1_555
Na10 O4 2.552975 1_546
Na10 O11 2.586618 1_555
Na11 O7 2.411140 1_565
Na11 O19 2.462411 1_555
Na11 O9 2.509214 1_555
Na11 O27 2.541506 1_555
Na11 O3 2.552975 1_565
Na11 O10 2.586618 1_555
Na12 O4 2.253847 1_555
Na12 O9 2.330986 1_555
Na12 O13 2.353747 1_555
Na12 O6 2.405932 1_555
Na13 O3 2.253847 1_455
Na13 O8 2.330986 1_555
Na13 O12 2.353747 1_555
Na13 O5 2.405932 1_555
Na14 O2 2.253847 1_555
Na14 O11 2.330986 1_555
Na14 O15 2.353747 1_555
Na14 O17 2.405932 1_555
Na15 O1 2.253847 1_655
Na15 O10 2.330986 1_555
Na15 O14 2.353747 1_555
Na15 O27 2.405932 1_555
Na16 O24 2.270707 1_465
Na16 O26 2.288900 1_554
Na16 O21 2.386902 1_555
Na16 O16 2.602184 1_455
Na16 O8 2.631559 1_565
Na17 O25 2.270707 1_545
Na17 O7 2.288900 1_555
Na17 O20 2.386902 1_555
Na17 O0 2.602184 1_555
Na17 O9 2.631559 1_545
Na18 O26 2.270707 1_645
Na18 O24 2.288900 1_556
Na18 O23 2.386902 1_555
Na18 O18 2.602184 1_655
Na18 O10 2.631559 1_545
Na19 O7 2.270707 1_565
Na19 O25 2.288900 1_555
Na19 O22 2.386902 1_555
Na19 O19 2.602184 1_555
Na19 O11 2.631559 1_565
Na20 O20 2.189723 1_555
Na20 O0 2.234931 1_555
Na20 O6 2.319646 1_555
Na20 O17 2.498109 1_554
Na21 O21 2.189723 1_555
Na21 O16 2.234931 1_455
Na21 O5 2.319646 1_555
Na21 O27 2.498109 1_455
Na22 O22 2.189723 1_555
Na22 O19 2.234931 1_555
Na22 O17 2.319646 1_555
Na22 O6 2.498109 1_556
Na23 O23 2.189723 1_555
Na23 O18 2.234931 1_655
Na23 O27 2.319646 1_555
Na23 O5 2.498109 1_655
Na24 O26 2.302706 1_554
Na24 O4 2.347514 1_555
Na24 O12 2.383514 1_555
Na24 O22 2.574757 1_554
Na24 O21 2.696133 1_555
Na25 O7 2.302706 1_555
Na25 O3 2.347514 1_555
Na25 O13 2.383514 1_555
Na25 O23 2.574757 1_555
Na25 O20 2.696133 1_555
Na26 O24 2.302706 1_556
Na26 O2 2.347514 1_555
Na26 O14 2.383514 1_555
Na26 O20 2.574757 1_556
Na26 O23 2.696133 1_555
Na27 O25 2.302706 1_555
Na27 O1 2.347514 1_555
Na27 O15 2.383514 1_555
Na27 O21 2.574757 1_555
Na27 O22 2.696133 1_555
Na28 O16 2.246171 1_555
Na28 O20 2.279561 1_555
Na28 O6 2.327788 1_555
Na28 O14 2.405308 1_554
Na29 O0 2.246171 1_555
Na29 O21 2.279561 1_555
Na29 O5 2.327788 1_555
Na29 O15 2.405308 1_555
Na30 O18 2.246171 1_555
Na30 O22 2.279561 1_555
Na30 O17 2.327788 1_555
Na30 O12 2.405308 1_556
Na31 O3 2.223358 1_555
Na31 O5 2.322062 1_655
Na31 O1 2.344336 1_645
Na31 O23 2.397276 1_555
Ga0 O19 1.851045 1_555
Ga0 O6 1.872286 1_556
Ga0 O14 1.888634 1_555
Ga0 O10 1.910307 1_555
Ga1 O18 1.851045 1_555
Ga1 O5 1.872286 1_555
Ga1 O15 1.888634 1_555
Ga1 O11 1.910307 1_555
Ga2 O0 1.851045 1_555
Ga2 O17 1.872286 1_554
Ga2 O12 1.888634 1_555
Ga2 O8 1.910307 1_555
Ga3 O16 1.851045 1_555
Ga3 O27 1.872286 1_555
Ga3 O13 1.888634 1_555
Ga3 O9 1.910307 1_555
Ga4 O2 1.847245 1_555
Ga4 O23 1.851546 1_555
Ga4 O7 1.852116 1_555
Ga4 O10 1.920458 1_545
Ga5 O1 1.847245 1_555
Ga5 O22 1.851546 1_555
Ga5 O26 1.852116 1_555
Ga5 O11 1.920458 1_565
Ga6 O4 1.847245 1_555
Ga6 O21 1.851546 1_555
Ga6 O25 1.852116 1_555
Ga6 O8 1.920458 1_565
Ga7 O3 1.847245 1_555
Ga7 O20 1.851546 1_555
Ga7 O24 1.852116 1_555
Ga7 O9 1.920458 1_545
