# generated using pymatgen
data_Na14Sc6Ta2Si9(SO16)3
_symmetry_space_group_name_H-M   'P 1'
_cell_length_a   18.33671058
_cell_length_b   9.16300294
_cell_length_c   22.59360424
_cell_angle_alpha   90.01257808
_cell_angle_beta   89.80502242
_cell_angle_gamma   119.94248441
_symmetry_Int_Tables_number   1
_chemical_formula_structural   Na14Sc6Ta2Si9(SO16)3
_chemical_formula_sum   'Na42 Sc18 Ta6 Si27 S9 O144'
_cell_volume   3289.45286601
_cell_formula_units_Z   3
loop_
 _symmetry_equiv_pos_site_id
 _symmetry_equiv_pos_as_xyz
  1  'x, y, z'
loop_
 _atom_site_type_symbol
 _atom_site_label
 _atom_site_symmetry_multiplicity
 _atom_site_fract_x
 _atom_site_fract_y
 _atom_site_fract_z
 _atom_site_occupancy
  Na  Na0  1  0.81417575  0.00524716  0.24379717  1
  Na  Na1  1  0.69012749  0.37325523  0.24303214  1
  Na  Na2  1  0.50038739  0.62160058  0.24608039  1
  Na  Na3  1  0.31272479  0.62125652  0.74370699  1
  Na  Na4  1  0.99412095  0.36523993  0.74780455  1
  Na  Na5  1  0.18766733  0.00709938  0.74301970  1
  Na  Na6  1  0.15428338  0.33899814  0.58379811  1
  Na  Na7  1  0.65948617  0.34585318  0.58746665  1
  Na  Na8  1  0.01664390  0.69241922  0.58457331  1
  Na  Na9  1  0.51270402  0.68047550  0.58355397  1
  Na  Na10  1  0.32502105  0.97333607  0.58715825  1
  Na  Na11  1  0.83025874  0.97200715  0.58924882  1
  Na  Na12  1  0.15669091  0.97027433  0.08331386  1
  Na  Na13  1  0.65850454  0.96879987  0.07878143  1
  Na  Na14  1  0.32915941  0.68619138  0.08357381  1
  Na  Na15  1  0.82709485  0.68324096  0.08333174  1
  Na  Na16  1  0.01222915  0.34372207  0.08036748  1
  Na  Na17  1  0.51718125  0.34699524  0.07811230  1
  Na  Na18  1  0.48829918  0.67007975  0.91595726  1
  Na  Na19  1  0.98138895  0.65401646  0.91039463  1
  Na  Na20  1  0.35777565  0.05104402  0.91240953  1
  Na  Na21  1  0.85427657  0.05120501  0.91345562  1
  Na  Na22  1  0.16136767  0.29905950  0.91633389  1
  Na  Na23  1  0.66425527  0.28996784  0.92314696  1
  Na  Na24  1  0.48191930  0.31169125  0.41589299  1
  Na  Na25  1  0.98681307  0.30311501  0.42131989  1
  Na  Na26  1  0.16234820  0.03775855  0.42735355  1
  Na  Na27  1  0.66263587  0.01993097  0.42238943  1
  Na  Na28  1  0.35256258  0.65397503  0.42330878  1
  Na  Na29  1  0.85715867  0.66526121  0.41615219  1
  Na  Na30  1  0.00558300  0.00196037  0.50257986  1
  Na  Na31  1  0.50248992  0.99108919  0.50268374  1
  Na  Na32  1  0.00137357  0.01232914  0.99803137  1
  Na  Na33  1  0.50554820  0.00927994  0.99461078  1
  Na  Na34  1  0.34500389  0.33673491  0.82240287  1
  Na  Na35  1  0.83463774  0.32465045  0.82753945  1
  Na  Na36  1  0.33427032  0.33186841  0.33366142  1
  Na  Na37  1  0.84576728  0.35435153  0.32370228  1
  Na  Na38  1  0.16438954  0.66399506  0.16067014  1
  Na  Na39  1  0.66904258  0.66687405  0.16410083  1
  Na  Na40  1  0.16655788  0.66871859  0.66578813  1
  Na  Na41  1  0.66993591  0.67175023  0.66452944  1
  Sc  Sc0  1  0.00050733  0.99927968  0.35058076  1
  Sc  Sc1  1  0.50302270  0.00276878  0.34874561  1
  Sc  Sc2  1  0.99877714  0.00610398  0.84613125  1
  Sc  Sc3  1  0.50085819  0.00350515  0.85012668  1
  Sc  Sc4  1  0.33645281  0.33361089  0.68527985  1
  Sc  Sc5  1  0.83451245  0.33426713  0.68422444  1
  Sc  Sc6  1  0.33398255  0.32373686  0.18187750  1
  Sc  Sc7  1  0.83785977  0.34048891  0.18602778  1
  Sc  Sc8  1  0.33887151  0.33579175  0.98747752  1
  Sc  Sc9  1  0.83594535  0.32760518  0.98428400  1
  Sc  Sc10  1  0.33541643  0.34331759  0.48602572  1
  Sc  Sc11  1  0.83777665  0.34024021  0.48870864  1
  Sc  Sc12  1  0.16207253  0.65256971  0.02168275  1
  Sc  Sc13  1  0.66059994  0.66361708  0.02031479  1
  Sc  Sc14  1  0.16069284  0.65758569  0.52123989  1
  Sc  Sc15  1  0.66220322  0.67239248  0.52196769  1
  Sc  Sc16  1  0.65985282  0.66117067  0.30621733  1
  Sc  Sc17  1  0.15904217  0.65713195  0.80645862  1
  Ta  Ta0  1  0.99783538  0.99653606  0.64951980  1
  Ta  Ta1  1  0.49760830  0.99340761  0.64755873  1
  Ta  Ta2  1  0.99731866  0.00287941  0.14670395  1
  Ta  Ta3  1  0.50498946  0.01164409  0.14568887  1
  Ta  Ta4  1  0.15866012  0.64800682  0.31334960  1
  Ta  Ta5  1  0.66206175  0.67885526  0.81069088  1
  Si  Si0  1  0.64800290  0.00289093  0.25053994  1
  Si  Si1  1  0.85377710  0.70610775  0.25311174  1
  Si  Si2  1  -0.00008735  0.29005529  0.25160687  1
  Si  Si3  1  0.49426407  0.28846904  0.25330622  1
  Si  Si4  1  0.14765308  0.29170043  0.75084443  1
  Si  Si5  1  0.99556290  0.70296475  0.75350646  1
  Si  Si6  1  0.49826777  0.70800069  0.75202955  1
  Si  Si7  1  0.35321928  0.00103248  0.75322462  1
  Si  Si8  1  0.85010078  0.99739900  0.75123822  1
  Si  Si9  1  0.47947363  0.32881185  0.58123875  1
  Si  Si10  1  0.98030004  0.32865374  0.58481605  1
  Si  Si11  1  0.18548813  0.04089663  0.58352982  1
  Si  Si12  1  0.68728518  0.04512290  0.58296270  1
  Si  Si13  1  0.33218067  0.62717884  0.58461326  1
  Si  Si14  1  0.83368242  0.62990466  0.58233621  1
  Si  Si15  1  0.47976074  0.63033933  0.08617131  1
  Si  Si16  1  0.97960375  0.62986335  0.08162994  1
  Si  Si17  1  0.33326101  0.03438178  0.08208227  1
  Si  Si18  1  0.83171793  0.03764844  0.08490947  1
  Si  Si19  1  0.18827854  0.33053085  0.08397010  1
  Si  Si20  1  0.68963894  0.33747645  0.08327755  1
  Si  Si21  1  0.01871921  0.36860392  0.91659385  1
  Si  Si22  1  0.51991437  0.37314096  0.91713271  1
  Si  Si23  1  0.66678573  0.96576177  0.91869716  1
  Si  Si24  1  0.16712141  0.36880309  0.41834470  1
  Si  Si25  1  0.01741951  0.66518416  0.41856305  1
  Si  Si26  1  0.51801932  0.66668153  0.41531838  1
  S  S0  1  0.14785195  0.99589162  0.25078787  1
  S  S1  1  0.35061006  0.70961092  0.25082726  1
  S  S2  1  0.64624136  0.29787492  0.75045080  1
  S  S3  1  0.31235776  0.66488321  0.91677965  1
  S  S4  1  0.81074047  0.66672593  0.91602948  1
  S  S5  1  0.16797049  0.96127087  0.91728018  1
  S  S6  1  0.31016793  0.95224751  0.41402618  1
  S  S7  1  0.81199637  0.95921412  0.41571910  1
  S  S8  1  0.66730237  0.37323653  0.41592668  1
  O  O0  1  0.10611636  0.01105792  0.30473631  1
  O  O1  1  0.60115920  0.02320751  0.30903076  1
  O  O2  1  0.40205204  0.79129224  0.30380454  1
  O  O3  1  0.90745189  0.79604657  0.31242253  1
  O  O4  1  0.48598119  0.18179519  0.31300318  1
  O  O5  1  0.99353004  0.18659417  0.31098063  1
  O  O6  1  0.10473705  0.18133936  0.81050055  1
  O  O7  1  0.60526903  0.19780575  0.80434858  1
  O  O8  1  0.49124867  0.79891625  0.81142649  1
  O  O9  1  0.98926362  0.79287116  0.81401949  1
  O  O10  1  0.40697655  0.01945938  0.81284234  1
  O  O11  1  0.90628475  0.02445653  0.81003644  1
  O  O12  1  0.40886906  0.98207060  0.69602407  1
  O  O13  1  0.89919725  0.97404062  0.69284073  1
  O  O14  1  0.08303431  0.18829807  0.69422460  1
  O  O15  1  0.59296205  0.21322260  0.69679527  1
  O  O16  1  0.00702881  0.82853035  0.69547860  1
  O  O17  1  0.51449841  0.83360905  0.69376058  1
  O  O18  1  0.39155837  0.81010999  0.19676574  1
  O  O19  1  0.90916539  0.83689183  0.19623176  1
  O  O20  1  0.01588670  0.19801398  0.19377952  1
  O  O21  1  0.50347701  0.18079526  0.19588969  1
  O  O22  1  0.09598575  0.97138809  0.19761285  1
  O  O23  1  0.58270619  0.97885455  0.19422161  1
  O  O24  1  0.43665460  0.37448817  0.63458296  1
  O  O25  1  0.93809486  0.36541315  0.64123750  1
  O  O26  1  0.24519723  0.12558316  0.64042753  1
  O  O27  1  0.75057934  0.13384570  0.63673528  1
  O  O28  1  0.31555875  0.51233003  0.64228239  1
  O  O29  1  0.81220758  0.49908426  0.63587539  1
  O  O30  1  0.43724217  0.51230220  0.14399439  1
  O  O31  1  0.93729645  0.50036884  0.13597532  1
  O  O32  1  0.31329519  0.12216980  0.13711685  1
  O  O33  1  0.81552520  0.11811542  0.14348238  1
  O  O34  1  0.25064373  0.36741236  0.13941484  1
  O  O35  1  0.74442184  0.36296168  0.14196674  1
  O  O36  1  0.22588180  0.29183699  0.02355116  1
  O  O37  1  0.72484109  0.29040029  0.02407492  1
  O  O38  1  0.42133558  0.55295530  0.02718723  1
  O  O39  1  0.92118208  0.56181506  0.02223847  1
  O  O40  1  0.35786070  0.15578269  0.02346504  1
  O  O41  1  0.85618432  0.15840363  0.02651507  1
  O  O42  1  0.22513328  0.15847285  0.52332334  1
  O  O43  1  0.72310310  0.15443420  0.52086957  1
  O  O44  1  0.35672405  0.55615078  0.52504110  1
  O  O45  1  0.85463001  0.55613529  0.52129091  1
  O  O46  1  0.42205721  0.28164069  0.52074913  1
  O  O47  1  0.92297788  0.29235193  0.52469905  1
  O  O48  1  0.27284235  0.68738651  0.97097899  1
  O  O49  1  0.77186531  0.68751337  0.97100731  1
  O  O50  1  0.07718345  0.45806105  0.97534235  1
  O  O51  1  0.57514632  0.45781128  0.97662479  1
  O  O52  1  0.16131049  0.86164793  0.97106789  1
  O  O53  1  0.65380057  0.84799749  0.97606778  1
  O  O54  1  0.27212472  0.85534275  0.46861064  1
  O  O55  1  0.77223636  0.85681687  0.46947615  1
  O  O56  1  0.15465120  0.46291231  0.47452748  1
  O  O57  1  0.65890655  0.45720116  0.46940066  1
  O  O58  1  0.07680802  0.69416134  0.47498181  1
  O  O59  1  0.57850027  0.70096545  0.47316866  1
  O  O60  1  0.07427403  0.64856528  0.35981977  1
  O  O61  1  0.56544741  0.64438436  0.35680153  1
  O  O62  1  0.25685220  0.86100644  0.36089157  1
  O  O63  1  0.76171635  0.87399565  0.36227785  1
  O  O64  1  0.17684347  0.50052225  0.35973697  1
  O  O65  1  0.67688832  0.47436516  0.36194229  1
  O  O66  1  0.06665686  0.48793587  0.85887855  1
  O  O67  1  0.57639288  0.50110149  0.86114511  1
  O  O68  1  0.17836359  0.88015656  0.86358384  1
  O  O69  1  0.67675048  0.85646269  0.86071978  1
  O  O70  1  0.26216855  0.64948409  0.86379582  1
  O  O71  1  0.75795438  0.65192810  0.86375678  1
  O  O72  1  0.00889324  0.83356403  0.41147658  1
  O  O73  1  0.50418307  0.83472323  0.41190802  1
  O  O74  1  0.39533786  0.97078499  0.40932097  1
  O  O75  1  0.89897539  0.98199207  0.41301965  1
  O  O76  1  0.08265004  0.18428776  0.41132886  1
  O  O77  1  0.58811721  0.20169662  0.41375413  1
  O  O78  1  0.00790217  0.17667653  0.91508862  1
  O  O79  1  0.50935490  0.18451246  0.91168926  1
  O  O80  1  0.08991023  0.97461600  0.91572129  1
  O  O81  1  0.58160414  0.98078376  0.91197891  1
  O  O82  1  0.39945322  0.81646984  0.91424769  1
  O  O83  1  0.89669901  0.81740157  0.91223865  1
  O  O84  1  0.49124809  0.16095325  0.59428782  1
  O  O85  1  0.98871666  0.15684895  0.59123507  1
  O  O86  1  0.08940502  0.02017490  0.59180820  1
  O  O87  1  0.59279235  0.02904063  0.59329765  1
  O  O88  1  0.42126612  0.81949773  0.59233231  1
  O  O89  1  0.92026670  0.81734090  0.59142563  1
  O  O90  1  0.48640618  0.81809801  0.09477915  1
  O  O91  1  0.99203799  0.82239623  0.09515270  1
  O  O92  1  0.41857976  0.01680956  0.09389083  1
  O  O93  1  0.92124473  0.02317599  0.09250587  1
  O  O94  1  0.09406185  0.15751834  0.09437448  1
  O  O95  1  0.59110519  0.16309667  0.09155513  1
  O  O96  1  0.33929020  0.16006565  0.74607353  1
  O  O97  1  0.84092723  0.16280131  0.74475936  1
  O  O98  1  0.24020839  0.31249030  0.74535864  1
  O  O99  1  0.72943659  0.31446488  0.74545237  1
  O  O100  1  0.41500989  0.52862342  0.74492202  1
  O  O101  1  0.91672377  0.51345419  0.74767077  1
  O  O102  1  0.34146926  0.54076000  0.24707901  1
  O  O103  1  0.83976337  0.51863603  0.24622878  1
  O  O104  1  0.41577665  0.32421092  0.24845874  1
  O  O105  1  0.91700435  0.30493833  0.24535557  1
  O  O106  1  0.23124224  0.14813696  0.24624617  1
  O  O107  1  0.73974414  0.16801888  0.24645491  1
  O  O108  1  0.31898778  0.50889397  0.92058158  1
  O  O109  1  0.81667864  0.51055515  0.91751093  1
  O  O110  1  0.42767559  0.36530586  0.91690362  1
  O  O111  1  0.92611712  0.35766179  0.92036231  1
  O  O112  1  0.24391468  0.13481798  0.92025303  1
  O  O113  1  0.75281687  0.14910850  0.91750229  1
  O  O114  1  0.31709338  0.12018066  0.41524047  1
  O  O115  1  0.81858805  0.12800832  0.41928668  1
  O  O116  1  0.25301613  0.35729976  0.41612503  1
  O  O117  1  0.74204644  0.35059930  0.41867879  1
  O  O118  1  0.42522884  0.49231887  0.41960890  1
  O  O119  1  0.92665464  0.48949545  0.41651855  1
  O  O120  1  0.17332215  0.49229728  0.07916216  1
  O  O121  1  0.67337117  0.49627865  0.07809930  1
  O  O122  1  0.07619101  0.66291568  0.07550388  1
  O  O123  1  0.57417337  0.65763817  0.08061693  1
  O  O124  1  0.25333685  0.84539062  0.07488536  1
  O  O125  1  0.75517949  0.84493800  0.07694144  1
  O  O126  1  0.17325783  0.85191438  0.57721726  1
  O  O127  1  0.67160861  0.85236654  0.57856434  1
  O  O128  1  0.25596725  0.66786179  0.57624632  1
  O  O129  1  0.75378979  0.66172321  0.57401938  1
  O  O130  1  0.07489824  0.49189983  0.58008519  1
  O  O131  1  0.57591948  0.48859419  0.57455306  1
  O  O132  1  0.15803932  0.84148773  0.25615958  1
  O  O133  1  0.65139585  0.82796931  0.25043900  1
  O  O134  1  0.26603030  0.69830628  0.25612757  1
  O  O135  1  0.76262112  0.70150028  0.25301785  1
  O  O136  1  0.08902386  0.48719489  0.25618553  1
  O  O137  1  0.58496759  0.46790080  0.25101679  1
  O  O138  1  0.15198952  0.47482541  0.75104413  1
  O  O139  1  0.65300262  0.46732165  0.75518330  1
  O  O140  1  0.08593511  0.70170571  0.75129142  1
  O  O141  1  0.58586779  0.69039516  0.75610366  1
  O  O142  1  0.26278216  0.82308308  0.75330820  1
  O  O143  1  0.75752053  0.81654644  0.75826017  1
loop_
_geom_bond_atom_site_label_1
_geom_bond_atom_site_label_2
_geom_bond_distance
_geom_bond_site_symmetry_2
Na0 O105 2.434952 1_555
Na0 O135 2.460862 1_545
Na0 O107 2.474339 1_555
Na0 O33 2.486404 1_555
Na0 O133 2.593726 1_545
Na0 O63 2.892499 1_545
Na1 O103 2.379268 1_555
Na1 O107 2.465531 1_555
Na1 O137 2.483923 1_555
Na1 O35 2.508447 1_555
Na1 O135 2.621986 1_555
Na1 O65 2.890353 1_555
Na2 O104 2.369515 1_555
Na2 O133 2.455116 1_555
Na2 O30 2.554045 1_555
Na2 O137 2.565725 1_555
Na2 O102 2.624038 1_555
Na2 O61 2.737921 1_555
Na3 O100 2.414240 1_555
Na3 O142 2.448445 1_555
Na3 O98 2.453210 1_555
Na3 O28 2.509988 1_555
Na3 O138 2.561975 1_555
Na3 O70 2.917172 1_555
Na4 O101 2.404716 1_555
Na4 O97 2.477111 1_555
Na4 O138 2.548169 1_655
Na4 O25 2.621271 1_555
Na4 O140 2.676760 1_655
Na4 O66 2.803513 1_655
Na5 O96 2.410464 1_555
Na5 O98 2.463832 1_555
Na5 O140 2.476334 1_545
Na5 O26 2.550582 1_555
Na5 O142 2.667389 1_545
Na5 O68 2.932964 1_545
Na6 O130 2.475010 1_555
Na6 O86 2.551835 1_555
Na6 O85 2.639935 1_455
Na6 O128 2.641088 1_555
Na6 O56 2.716205 1_555
Na6 O14 2.831387 1_555
Na6 O28 2.889795 1_555
Na6 O42 2.902259 1_555
Na7 O131 2.479478 1_555
Na7 O87 2.528871 1_555
Na7 O129 2.541690 1_555
Na7 O29 2.665517 1_555
Na7 O84 2.681485 1_555
Na7 O15 2.750890 1_555
Na7 O57 2.858155 1_555
Na7 O43 2.954762 1_555
Na8 O126 2.493550 1_555
Na8 O89 2.544558 1_455
Na8 O130 2.546690 1_555
Na8 O86 2.612951 1_565
Na8 O58 2.704087 1_555
Na8 O16 2.842617 1_555
Na8 O25 2.893552 1_455
Na8 O45 2.958730 1_455
Na9 O127 2.529844 1_555
Na9 O131 2.551286 1_555
Na9 O88 2.569638 1_555
Na9 O24 2.687451 1_555
Na9 O59 2.732125 1_555
Na9 O87 2.779526 1_565
Na9 O44 2.828157 1_555
Na9 O17 2.850054 1_555
Na10 O126 2.438414 1_555
Na10 O128 2.441843 1_555
Na10 O84 2.654117 1_565
Na10 O26 2.750045 1_565
Na10 O88 2.756838 1_555
Na10 O54 2.872839 1_555
Na10 O12 2.884978 1_555
Na10 O46 2.892008 1_565
Na11 O129 2.488195 1_555
Na11 O85 2.530086 1_565
Na11 O127 2.558144 1_555
Na11 O89 2.659027 1_555
Na11 O13 2.659497 1_555
Na11 O27 2.763397 1_565
Na11 O55 2.909691 1_555
Na11 O47 2.938841 1_565
Na12 O122 2.448125 1_555
Na12 O94 2.507940 1_565
Na12 O124 2.551133 1_555
Na12 O91 2.633224 1_455
Na12 O52 2.740618 1_554
Na12 O32 2.773840 1_565
Na12 O22 2.810669 1_555
Na12 O36 2.893597 1_565
Na13 O123 2.473962 1_555
Na13 O125 2.537755 1_555
Na13 O53 2.554043 1_554
Na13 O95 2.640858 1_565
Na13 O90 2.763765 1_555
Na13 O37 2.846794 1_565
Na13 O33 2.897273 1_565
Na13 O23 2.974239 1_555
Na14 O124 2.475096 1_555
Na14 O120 2.503160 1_555
Na14 O90 2.522844 1_555
Na14 O92 2.638954 1_565
Na14 O48 2.750864 1_554
Na14 O18 2.803664 1_555
Na14 O34 2.826274 1_555
Na14 O38 2.831047 1_555
Na15 O125 2.430396 1_555
Na15 O121 2.464951 1_555
Na15 O91 2.645828 1_555
Na15 O93 2.712864 1_565
Na15 O49 2.743130 1_554
Na15 O39 2.831791 1_555
Na15 O35 2.865764 1_555
Na15 O19 2.943311 1_555
Na16 O122 2.552813 1_555
Na16 O120 2.562181 1_555
Na16 O93 2.567311 1_455
Na16 O50 2.623559 1_554
Na16 O31 2.735489 1_455
Na16 O41 2.779143 1_455
Na16 O94 2.796796 1_555
Na16 O20 2.906018 1_555
Na17 O121 2.482505 1_555
Na17 O123 2.495657 1_555
Na17 O51 2.515062 1_554
Na17 O95 2.655620 1_555
Na17 O92 2.661782 1_555
Na17 O40 2.835988 1_555
Na17 O30 2.976446 1_555
Na17 O21 3.013064 1_555
Na18 O110 2.436373 1_555
Na18 O81 2.485398 1_555
Na18 O82 2.576202 1_555
Na18 O8 2.628868 1_555
Na18 O108 2.692843 1_555
Na18 O38 2.764017 1_556
Na18 O53 2.966510 1_555
Na18 O67 3.003780 1_555
Na19 O111 2.388132 1_555
Na19 O9 2.489313 1_555
Na19 O80 2.601928 1_655
Na19 O109 2.628537 1_555
Na19 O83 2.641028 1_555
Na19 O39 2.714579 1_556
Na19 O66 2.911584 1_655
Na20 O79 2.414074 1_555
Na20 O10 2.490955 1_555
Na20 O110 2.502292 1_555
Na20 O112 2.564567 1_555
Na20 O82 2.616437 1_545
Na20 O40 2.685954 1_556
Na21 O113 2.437055 1_555
Na21 O111 2.439965 1_555
Na21 O78 2.454837 1_655
Na21 O11 2.578218 1_555
Na21 O83 2.618955 1_545
Na21 O41 2.730628 1_556
Na22 O78 2.455109 1_555
Na22 O108 2.552229 1_555
Na22 O80 2.581975 1_545
Na22 O112 2.615103 1_555
Na22 O6 2.618602 1_555
Na22 O36 2.714716 1_556
Na23 O81 2.470401 1_545
Na23 O109 2.504317 1_555
Na23 O79 2.516634 1_555
Na23 O113 2.531831 1_555
Na23 O37 2.539084 1_556
Na23 O7 2.862567 1_555
Na23 O51 2.998224 1_555
Na24 O118 2.354531 1_555
Na24 O46 2.564001 1_555
Na24 O77 2.601693 1_555
Na24 O4 2.629130 1_555
Na24 O114 2.630610 1_555
Na24 O74 2.711269 1_545
Na25 O119 2.454938 1_555
Na25 O76 2.496392 1_655
Na25 O75 2.560894 1_545
Na25 O47 2.588754 1_555
Na25 O115 2.674325 1_555
Na25 O5 2.738245 1_555
Na25 O56 2.930305 1_655
Na26 O42 2.448501 1_555
Na26 O76 2.456020 1_555
Na26 O72 2.509613 1_545
Na26 O116 2.557227 1_555
Na26 O114 2.559751 1_555
Na26 O0 2.926650 1_555
Na26 O58 2.931012 1_545
Na27 O115 2.516918 1_555
Na27 O43 2.520018 1_555
Na27 O73 2.541714 1_545
Na27 O117 2.627305 1_555
Na27 O77 2.636845 1_555
Na27 O59 2.779697 1_545
Na27 O1 2.807985 1_555
Na28 O116 2.407592 1_555
Na28 O73 2.436739 1_555
Na28 O118 2.438448 1_555
Na28 O44 2.482493 1_555
Na28 O74 2.620657 1_555
Na28 O2 2.922640 1_555
Na29 O72 2.417735 1_655
Na29 O119 2.503336 1_555
Na29 O45 2.568818 1_555
Na29 O3 2.581176 1_555
Na29 O117 2.587606 1_555
Na29 O75 2.606529 1_555
Na30 O86 2.493865 1_555
Na30 O85 2.560231 1_455
Na30 O76 2.581390 1_555
Na30 O89 2.583957 1_445
Na30 O72 2.590877 1_545
Na30 O75 2.760264 1_445
Na31 O73 2.510559 1_555
Na31 O88 2.536955 1_555
Na31 O87 2.549926 1_565
Na31 O84 2.657925 1_565
Na31 O77 2.679912 1_565
Na31 O74 2.829808 1_555
Na32 O78 2.369313 1_555
Na32 O80 2.598595 1_545
Na32 O93 2.617104 1_456
Na32 O94 2.676463 1_556
Na32 O83 2.689433 1_445
Na32 O91 2.752254 1_446
Na33 O81 2.417483 1_545
Na33 O79 2.445718 1_555
Na33 O82 2.606592 1_545
Na33 O95 2.657057 1_556
Na33 O92 2.768532 1_556
Na33 O90 2.774246 1_546
Na34 O96 2.331597 1_555
Na34 O100 2.353038 1_555
Na34 O98 2.523574 1_555
Na34 O110 2.559470 1_555
Na34 O112 2.880453 1_555
Na34 O108 2.894654 1_555
Na35 O97 2.424611 1_555
Na35 O101 2.428630 1_555
Na35 O113 2.557585 1_555
Na35 O111 2.611644 1_555
Na35 O99 2.648427 1_555
Na35 O109 2.774216 1_555
Na36 O104 2.455490 1_555
Na36 O116 2.464355 1_555
Na36 O118 2.507408 1_555
Na36 O114 2.578104 1_555
Na36 O106 2.674511 1_555
Na36 O102 2.693607 1_555
Na37 O103 2.347337 1_555
Na37 O105 2.370442 1_555
Na37 O119 2.513468 1_555
Na37 O107 2.539485 1_555
Na37 O117 2.851334 1_555
Na37 O115 2.859450 1_555
Na38 O120 2.479366 1_555
Na38 O122 2.514649 1_555
Na38 O124 2.540293 1_555
Na38 O136 2.633957 1_555
Na38 O132 2.738433 1_555
Na38 O134 2.768760 1_555
Na39 O121 2.519293 1_555
Na39 O125 2.538194 1_555
Na39 O123 2.542910 1_555
Na39 O133 2.561264 1_555
Na39 O135 2.561379 1_555
Na39 O137 2.594639 1_555
Na40 O140 2.536777 1_555
Na40 O138 2.542134 1_555
Na40 O130 2.549842 1_555
Na40 O142 2.560300 1_555
Na40 O126 2.575140 1_555
Na40 O128 2.602119 1_555
Na41 O127 2.542172 1_555
Na41 O129 2.583414 1_555
Na41 O143 2.592127 1_555
Na41 O141 2.631972 1_555
Na41 O131 2.656192 1_555
Na41 O139 2.686460 1_555
O0 S0 1.480008 1_545
O0 Sc0 2.147648 1_545
O1 Si0 1.634219 1_555
O1 Sc1 1.931602 1_555
O2 S1 1.478226 1_555
O2 Sc1 2.155068 1_565
O3 Si1 1.625534 1_555
O3 Sc0 1.989970 1_655
O4 Si3 1.627467 1_555
O4 Sc1 1.988662 1_555
O5 Si2 1.612667 1_655
O5 Sc0 1.995856 1_645
O6 Si4 1.630199 1_555
O6 Sc2 1.968994 1_455
O7 S2 1.481449 1_555
O7 Sc3 2.118878 1_555
O8 Si6 1.617672 1_555
O8 Sc3 1.995111 1_565
O9 Si5 1.629321 1_555
O9 Sc2 2.008567 1_565
O10 Si7 1.630128 1_555
O10 Sc3 1.988877 1_555
O11 Si8 1.625376 1_545
O11 Sc2 1.965696 1_555
O12 Si7 1.705755 1_565
O12 Ta1 1.917485 1_555
O13 Si8 1.667716 1_555
O13 Ta0 1.971738 1_555
O14 Si4 1.681439 1_555
O14 Ta0 1.953963 1_445
O15 S2 1.508938 1_555
O15 Ta1 2.201861 1_545
O16 Si5 1.686466 1_455
O16 Ta0 1.933252 1_455
O17 Si6 1.674067 1_555
O17 Ta1 1.945541 1_555
O18 S1 1.485844 1_555
O18 Ta3 2.284383 1_565
O19 Si1 1.701752 1_555
O19 Ta2 1.926794 1_565
O20 Si2 1.657592 1_555
O20 Ta2 1.959108 1_455
O21 Si3 1.687936 1_555
O21 Ta3 1.931692 1_555
O22 S0 1.480814 1_555
O22 Ta2 2.283645 1_465
O23 Si0 1.687657 1_565
O23 Ta3 1.939502 1_565
O24 Si9 1.601757 1_555
O24 Sc4 2.031523 1_555
O25 Si10 1.609571 1_555
O25 Sc5 2.019593 1_555
O26 Si11 1.616935 1_555
O26 Sc4 2.070509 1_555
O27 Si12 1.597252 1_555
O27 Sc5 2.020244 1_555
O28 Si13 1.604916 1_555
O28 Sc4 2.098055 1_555
O29 Si14 1.606670 1_555
O29 Sc5 2.064389 1_555
O30 Si15 1.623677 1_555
O30 Sc6 2.006705 1_555
O31 Si16 1.610167 1_555
O31 Sc7 2.017369 1_555
O32 Si17 1.617919 1_555
O32 Sc6 1.969843 1_555
O33 Si18 1.612005 1_555
O33 Sc7 2.100564 1_555
O34 Si19 1.617091 1_555
O34 Sc6 2.009105 1_555
O35 Si20 1.611416 1_555
O35 Sc7 2.081552 1_555
O36 Si19 1.643782 1_555
O36 Sc8 2.067545 1_554
O37 Si20 1.632094 1_555
O37 Sc9 2.090297 1_554
O38 Si15 1.636303 1_555
O38 Sc8 2.013900 1_554
O39 Si16 1.636952 1_555
O39 Sc9 2.108016 1_554
O40 Si17 1.640287 1_555
O40 Sc8 2.019603 1_554
O41 Si18 1.633187 1_555
O41 Sc9 2.007309 1_554
O42 Si11 1.658797 1_555
O42 Sc10 2.058673 1_555
O43 Si12 1.655415 1_555
O43 Sc11 2.065070 1_555
O44 Si13 1.650935 1_555
O44 Sc10 1.993462 1_555
O45 Si14 1.661898 1_555
O45 Sc11 1.985323 1_555
O46 Si9 1.648739 1_555
O46 Sc10 2.088978 1_555
O47 Si10 1.649491 1_555
O47 Sc11 1.996930 1_555
O48 S3 1.486633 1_555
O48 Sc12 2.208434 1_556
O49 S4 1.488881 1_555
O49 Sc13 2.233893 1_556
O50 Si21 1.647724 1_555
O50 Sc12 1.984066 1_556
O51 Si22 1.630574 1_555
O51 Sc13 2.011429 1_556
O52 S5 1.487698 1_555
O52 Sc12 2.237404 1_556
O53 Si23 1.625817 1_555
O53 Sc13 2.020184 1_556
O54 S6 1.473866 1_555
O54 Sc14 2.271738 1_555
O55 S7 1.482787 1_555
O55 Sc15 2.216770 1_555
O56 Si24 1.612939 1_555
O56 Sc14 2.027501 1_555
O57 S8 1.480496 1_555
O57 Sc15 2.276554 1_555
O58 Si25 1.613048 1_555
O58 Sc14 2.023934 1_555
O59 Si26 1.642828 1_555
O59 Sc15 2.013123 1_555
O60 Si25 1.737970 1_555
O60 Ta4 1.869105 1_555
O61 Si26 1.647869 1_555
O61 Sc16 2.011790 1_555
O62 S6 1.512471 1_555
O62 Ta4 2.170047 1_555
O63 S7 1.485309 1_555
O63 Sc16 2.296721 1_555
O64 Si24 1.739597 1_555
O64 Ta4 1.867803 1_555
O65 S8 1.487842 1_555
O65 Sc16 2.269368 1_555
O66 Si21 1.643786 1_555
O66 Sc17 2.010327 1_555
O67 Si22 1.681365 1_555
O67 Ta5 1.963285 1_555
O68 S5 1.483243 1_555
O68 Sc17 2.290574 1_555
O69 Si23 1.712531 1_555
O69 Ta5 1.887427 1_555
O70 S3 1.475704 1_555
O70 Sc17 2.325508 1_555
O71 S4 1.492241 1_555
O71 Ta5 2.244491 1_555
O72 Si25 1.634499 1_555
O72 Sc0 2.111343 1_555
O73 Si26 1.682661 1_555
O73 Sc1 2.107567 1_565
O74 S6 1.487696 1_555
O74 Sc1 2.293924 1_565
O75 S7 1.502684 1_555
O75 Sc0 2.273587 1_655
O76 Si24 1.634054 1_555
O76 Sc0 2.119061 1_545
O77 S8 1.517717 1_555
O77 Sc1 2.256040 1_555
O78 Si21 1.668858 1_555
O78 Sc2 2.153560 1_455
O79 Si22 1.644987 1_555
O79 Sc3 2.110046 1_555
O80 S5 1.496689 1_555
O80 Sc2 2.418108 1_465
O81 Si23 1.642535 1_555
O81 Sc3 2.123772 1_565
O82 S3 1.506024 1_555
O82 Sc3 2.301090 1_565
O83 S4 1.491529 1_555
O83 Sc2 2.339958 1_565
O84 Si9 1.682673 1_555
O84 Ta1 1.999904 1_545
O85 Si10 1.663099 1_555
O85 Ta0 2.041429 1_545
O86 Si11 1.684925 1_555
O86 Ta0 2.046606 1_445
O87 Si12 1.679530 1_555
O87 Ta1 2.018066 1_545
O88 Si13 1.712434 1_555
O88 Ta1 1.959606 1_555
O89 Si14 1.671114 1_555
O89 Ta0 2.030348 1_555
O90 Si15 1.674305 1_555
O90 Ta3 1.995703 1_565
O91 Si16 1.690077 1_555
O91 Ta2 1.985191 1_565
O92 Si17 1.673016 1_555
O92 Ta3 1.992462 1_555
O93 Si18 1.720822 1_555
O93 Ta2 1.936656 1_555
O94 Si19 1.678243 1_555
O94 Ta2 2.007424 1_455
O95 Si20 1.722917 1_555
O95 Ta3 1.927515 1_555
O96 Si7 1.608343 1_555
O96 Sc4 2.121815 1_555
O97 Si8 1.612908 1_545
O97 Sc5 2.130600 1_555
O98 Si4 1.614881 1_555
O98 Sc4 2.153459 1_555
O99 S2 1.459600 1_555
O99 Sc5 2.300419 1_555
O100 Si6 1.598337 1_555
O100 Sc4 2.127551 1_555
O101 Si5 1.617987 1_555
O101 Sc5 2.136829 1_555
O102 S1 1.473160 1_555
O102 Sc6 2.423017 1_555
O103 Si1 1.612629 1_555
O103 Sc7 2.111474 1_555
O104 Si3 1.631614 1_555
O104 Sc6 2.126340 1_555
O105 Si2 1.599433 1_655
O105 Sc7 2.119987 1_555
O106 S0 1.471173 1_545
O106 Sc6 2.282441 1_555
O107 Si0 1.608073 1_555
O107 Sc7 2.178122 1_555
O108 S3 1.496240 1_555
O108 Sc8 2.348459 1_555
O109 S4 1.488727 1_555
O109 Sc9 2.409770 1_555
O110 Si22 1.656716 1_555
O110 Sc8 2.193203 1_555
O111 Si21 1.652160 1_655
O111 Sc9 2.103538 1_555
O112 S5 1.504159 1_545
O112 Sc8 2.354942 1_555
O113 Si23 1.632736 1_545
O113 Sc9 2.191114 1_555
O114 S6 1.479741 1_545
O114 Sc10 2.483444 1_555
O115 S7 1.492200 1_545
O115 Sc11 2.384348 1_555
O116 Si24 1.630804 1_555
O116 Sc10 2.236778 1_555
O117 S8 1.486508 1_555
O117 Sc11 2.403976 1_555
O118 Si26 1.655977 1_555
O118 Sc10 2.137175 1_555
O119 Si25 1.639985 1_655
O119 Sc11 2.223645 1_555
O120 Si19 1.640185 1_555
O120 Sc12 2.047164 1_555
O121 Si20 1.628991 1_555
O121 Sc13 2.114668 1_555
O122 Si16 1.646372 1_455
O122 Sc12 2.025727 1_555
O123 Si15 1.625323 1_555
O123 Sc13 2.066263 1_555
O124 Si17 1.625155 1_565
O124 Sc12 2.104342 1_555
O125 Si18 1.627217 1_565
O125 Sc13 2.131374 1_555
O126 Si11 1.637580 1_565
O126 Sc14 2.101127 1_555
O127 Si12 1.644795 1_565
O127 Sc15 2.025111 1_555
O128 Si13 1.627758 1_555
O128 Sc14 2.110922 1_555
O129 Si14 1.641559 1_555
O129 Sc15 2.095323 1_555
O130 Si10 1.632929 1_455
O130 Sc14 2.037121 1_555
O131 Si9 1.645449 1_555
O131 Sc15 2.019720 1_555
O132 S0 1.521628 1_555
O132 Ta4 2.198643 1_555
O133 Si0 1.634751 1_565
O133 Sc16 2.046202 1_555
O134 S1 1.506246 1_555
O134 Ta4 2.199369 1_555
O135 Si1 1.650842 1_555
O135 Sc16 2.102853 1_555
O136 Si2 1.731552 1_555
O136 Ta4 1.897878 1_555
O137 Si3 1.655831 1_555
O137 Sc16 2.039695 1_555
O138 Si4 1.639740 1_555
O138 Sc17 2.039431 1_555
O139 S2 1.498451 1_555
O139 Ta5 2.244165 1_555
O140 Si5 1.663501 1_455
O140 Sc17 2.018814 1_555
O141 Si6 1.695398 1_555
O141 Ta5 1.908807 1_555
O142 Si7 1.646035 1_565
O142 Sc17 2.114375 1_555
O143 Si8 1.686177 1_555
O143 Ta5 1.959831 1_555
