# generated using pymatgen
data_HfAl3
_symmetry_space_group_name_H-M   'P 1'
_cell_length_a   3.92379132
_cell_length_b   3.92379027
_cell_length_c   5.21668553
_cell_angle_alpha   112.09114470
_cell_angle_beta   112.09113554
_cell_angle_gamma   90.00000178
_symmetry_Int_Tables_number   1
_chemical_formula_structural   HfAl3
_chemical_formula_sum   'Hf1 Al3'
_cell_volume   68.01491087
_cell_formula_units_Z   1
loop_
 _symmetry_equiv_pos_site_id
 _symmetry_equiv_pos_as_xyz
  1  'x, y, z'
loop_
 _atom_site_type_symbol
 _atom_site_label
 _atom_site_symmetry_multiplicity
 _atom_site_fract_x
 _atom_site_fract_y
 _atom_site_fract_z
 _atom_site_occupancy
  Hf  Hf0  1  0.00000000  0.00000000  0.00000000  1
  Al  Al0  1  0.50000000  0.50000000  0.00000000  1
  Al  Al1  1  0.25000000  0.75000000  0.50000000  1
  Al  Al2  1  0.75000000  0.25000000  0.50000000  1
loop_
_geom_bond_atom_site_label_1
_geom_bond_atom_site_label_2
_geom_bond_distance
_geom_bond_site_symmetry_2
Al0 Hf0 2.774539 1_665
Al0 Hf0 2.774539 1_555
Al0 Hf0 2.774539 1_565
Al0 Hf0 2.774539 1_655
Al0 Al2 2.954313 1_565
Al0 Al1 2.954313 1_544
Al0 Al1 2.954313 1_655
Al0 Al2 2.954313 1_454
Al0 Al2 2.954314 1_554
Al0 Al1 2.954314 1_555
Al0 Al2 2.954314 1_555
Al0 Al1 2.954314 1_554
Al1 Al2 2.774539 1_565
Al1 Al2 2.774539 1_455
Al1 Al2 2.774539 1_465
Al1 Al2 2.774539 1_555
Al1 Hf0 2.954313 1_555
Al1 Hf0 2.954313 1_666
Al1 Hf0 2.954314 1_566
Al1 Hf0 2.954314 1_565
Al2 Hf0 2.954313 1_666
Al2 Hf0 2.954313 1_555
Al2 Hf0 2.954314 1_655
Al2 Hf0 2.954314 1_656
