# generated using pymatgen
data_Na3YGa(PO4)3
_symmetry_space_group_name_H-M   'P 1'
_cell_length_a   9.05203871
_cell_length_b   9.01879928
_cell_length_c   22.65235316
_cell_angle_alpha   89.98938576
_cell_angle_beta   89.98450055
_cell_angle_gamma   119.79713314
_symmetry_Int_Tables_number   1
_chemical_formula_structural   Na3YGa(PO4)3
_chemical_formula_sum   'Na18 Y6 Ga6 P18 O72'
_cell_volume   1604.80845303
_cell_formula_units_Z   6
loop_
 _symmetry_equiv_pos_site_id
 _symmetry_equiv_pos_as_xyz
  1  'x, y, z'
loop_
 _atom_site_type_symbol
 _atom_site_label
 _atom_site_symmetry_multiplicity
 _atom_site_fract_x
 _atom_site_fract_y
 _atom_site_fract_z
 _atom_site_occupancy
  Na  Na0  1  0.00103664  0.00115131  0.50313203  1
  Na  Na1  1  0.99738095  0.99750889  0.00355929  1
  Na  Na2  1  0.63624537  0.31694912  0.83095051  1
  Na  Na3  1  0.68418807  0.36440988  0.33379009  1
  Na  Na4  1  0.33037559  0.66628857  0.17283029  1
  Na  Na5  1  0.33345435  0.66667287  0.66611180  1
  Na  Na6  1  0.63792368  0.00127936  0.24919945  1
  Na  Na7  1  0.36225758  0.36109453  0.24919009  1
  Na  Na8  1  0.63807130  0.63319727  0.74519777  1
  Na  Na9  1  0.99415819  0.36052743  0.74440787  1
  Na  Na10  1  0.03755046  0.70473352  0.58516829  1
  Na  Na11  1  0.66609040  0.96623456  0.58515883  1
  Na  Na12  1  0.29925509  0.96826428  0.08916728  1
  Na  Na13  1  0.02605648  0.33067316  0.08962365  1
  Na  Na14  1  0.97199884  0.66524840  0.91833170  1
  Na  Na15  1  0.69460860  0.02750022  0.91744667  1
  Na  Na16  1  0.97006885  0.30233735  0.41691789  1
  Na  Na17  1  0.33532985  0.03444320  0.41819622  1
  Y  Y0  1  0.98980488  0.98625600  0.34716999  1
  Y  Y1  1  0.01512580  0.01179243  0.84552192  1
  Y  Y2  1  0.66038207  0.34002694  0.98875789  1
  Y  Y3  1  0.34344875  0.66264522  0.02249776  1
  Y  Y4  1  0.33631281  0.65703081  0.52075819  1
  Y  Y5  1  0.33331689  0.67088852  0.81139227  1
  Ga  Ga0  1  0.01011648  0.00753563  0.64668884  1
  Ga  Ga1  1  0.99393776  0.99124657  0.15461059  1
  Ga  Ga2  1  0.65935586  0.32878821  0.68066134  1
  Ga  Ga3  1  0.67199258  0.34081897  0.18416414  1
  Ga  Ga4  1  0.66192588  0.33835013  0.48358019  1
  Ga  Ga5  1  0.32768076  0.66403755  0.31697289  1
  P  P0  1  0.30432407  0.99839854  0.24870173  1
  P  P1  1  0.69616525  0.69511913  0.24680170  1
  P  P2  1  0.99963255  0.30564246  0.24854569  1
  P  P3  1  0.30533790  0.29373771  0.74125357  1
  P  P4  1  0.98972601  0.69578220  0.74210669  1
  P  P5  1  0.70878085  0.00933271  0.74184731  1
  P  P6  1  0.94471789  0.32358634  0.58472518  1
  P  P7  1  0.37415175  0.05405357  0.58293619  1
  P  P8  1  0.67955048  0.62721940  0.58637758  1
  P  P9  1  0.95966842  0.63862621  0.08832002  1
  P  P10  1  0.67797754  0.04212846  0.09060333  1
  P  P11  1  0.35659481  0.31746358  0.09422815  1
  P  P12  1  0.63902007  0.66855754  0.91167863  1
  P  P13  1  0.02908217  0.36411914  0.91773789  1
  P  P14  1  0.33427159  0.96733616  0.92073020  1
  P  P15  1  0.62421107  0.96840459  0.41674871  1
  P  P16  1  0.34499358  0.37562780  0.41241442  1
  P  P17  1  0.03477910  0.65524716  0.41901271  1
  O  O0  1  0.22996607  0.03672323  0.30390550  1
  O  O1  1  0.79761980  0.76201526  0.30366196  1
  O  O2  1  0.95954742  0.19214314  0.30409193  1
  O  O3  1  0.23703603  0.20117512  0.80011922  1
  O  O4  1  0.96756156  0.77384087  0.79993973  1
  O  O5  1  0.81190609  0.03918781  0.79971690  1
  O  O6  1  0.80493496  0.98278630  0.68906643  1
  O  O7  1  0.17809230  0.20032302  0.69029378  1
  O  O8  1  0.01299365  0.81205381  0.68817137  1
  O  O9  1  0.78746907  0.82443347  0.19565942  1
  O  O10  1  0.03539335  0.21571261  0.19547898  1
  O  O11  1  0.18887746  0.97051103  0.19412352  1
  O  O12  1  0.86072113  0.35065258  0.64015080  1
  O  O13  1  0.49235263  0.14108803  0.63555727  1
  O  O14  1  0.65832200  0.52486847  0.64314862  1
  O  O15  1  0.85839606  0.50711706  0.13691746  1
  O  O16  1  0.65071097  0.13859983  0.14265149  1
  O  O17  1  0.47063020  0.33987993  0.14783440  1
  O  O18  1  0.43284065  0.28893304  0.03748450  1
  O  O19  1  0.87304118  0.57554036  0.02745791  1
  O  O20  1  0.70807561  0.14386495  0.03210090  1
  O  O21  1  0.45105068  0.15281851  0.52395453  1
  O  O22  1  0.70200592  0.53772179  0.53124375  1
  O  O23  1  0.83400785  0.29504100  0.52803752  1
  O  O24  1  0.54435269  0.68690061  0.96521374  1
  O  O25  1  0.13061865  0.45363422  0.97394708  1
  O  O26  1  0.31851959  0.86823963  0.97840238  1
  O  O27  1  0.54730996  0.86761716  0.47377027  1
  O  O28  1  0.30644950  0.45385968  0.46587230  1
  O  O29  1  0.13641266  0.68531987  0.47657136  1
  O  O30  1  0.12664157  0.62277374  0.36580851  1
  O  O31  1  0.51071694  0.87633635  0.36133096  1
  O  O32  1  0.36609191  0.48132861  0.35499104  1
  O  O33  1  0.11763426  0.46705366  0.86120134  1
  O  O34  1  0.35277985  0.87235239  0.86701718  1
  O  O35  1  0.54487911  0.65487557  0.85336170  1
  O  O36  1  0.02373293  0.81919967  0.41107594  1
  O  O37  1  0.80856731  0.00108312  0.41173007  1
  O  O38  1  0.18652497  0.19263486  0.40790657  1
  O  O39  1  0.00135190  0.18100204  0.91634093  1
  O  O40  1  0.16847831  0.97523013  0.91636012  1
  O  O41  1  0.81695312  0.83246834  0.91219645  1
  O  O42  1  0.96195171  0.15907181  0.58868255  1
  O  O43  1  0.18906593  0.02600156  0.58844660  1
  O  O44  1  0.84432847  0.81031763  0.58789000  1
  O  O45  1  0.98456570  0.82066880  0.09683279  1
  O  O46  1  0.84145553  0.02820818  0.09784007  1
  O  O47  1  0.17632743  0.15388341  0.09836666  1
  O  O48  1  0.69044399  0.17077122  0.73634377  1
  O  O49  1  0.48731560  0.32006851  0.73576401  1
  O  O50  1  0.82640243  0.51519305  0.73894749  1
  O  O51  1  0.66729474  0.51117789  0.23813410  1
  O  O52  1  0.83919332  0.32390325  0.23938768  1
  O  O53  1  0.48711099  0.15829314  0.24150745  1
  O  O54  1  0.66276168  0.51127961  0.91618507  1
  O  O55  1  0.85151915  0.35179648  0.91915321  1
  O  O56  1  0.49758423  0.14351303  0.92076442  1
  O  O57  1  0.63478567  0.14804557  0.42034172  1
  O  O58  1  0.50747412  0.35922655  0.42085335  1
  O  O59  1  0.85610064  0.48992818  0.42375127  1
  O  O60  1  0.32975017  0.47369411  0.09057491  1
  O  O61  1  0.13965182  0.65400007  0.08749570  1
  O  O62  1  0.51336388  0.86640461  0.08819875  1
  O  O63  1  0.35434669  0.87119817  0.58120052  1
  O  O64  1  0.52663062  0.65920597  0.58410045  1
  O  O65  1  0.12158237  0.48681640  0.58201476  1
  O  O66  1  0.32646762  0.83748416  0.25653880  1
  O  O67  1  0.51654980  0.68227920  0.25275240  1
  O  O68  1  0.16738651  0.48156578  0.25591726  1
  O  O69  1  0.32051689  0.47409945  0.74391847  1
  O  O70  1  0.14481571  0.66668943  0.74395579  1
  O  O71  1  0.53395278  0.84326032  0.74434871  1
loop_
_geom_bond_atom_site_label_1
_geom_bond_atom_site_label_2
_geom_bond_distance
_geom_bond_site_symmetry_2
Na0 O44 2.496302 1_445
Na0 O43 2.510949 1_555
Na0 O42 2.531929 1_455
Na0 O37 2.706128 1_455
Na0 O36 2.723888 1_545
Na0 O38 2.751252 1_555
Na1 O39 2.565730 1_664
Na1 O40 2.578477 1_654
Na1 O41 2.598664 1_554
Na1 O45 2.614585 1_555
Na1 O47 2.637730 1_665
Na1 O46 2.648951 1_565
Na2 O56 2.491480 1_555
Na2 O54 2.537828 1_555
Na2 O49 2.550813 1_555
Na2 O48 2.686032 1_555
Na2 O55 2.698470 1_555
Na2 O50 2.727817 1_555
Na3 O59 2.471365 1_555
Na3 O58 2.524765 1_555
Na3 O51 2.582817 1_555
Na3 O57 2.642445 1_555
Na3 O52 2.680150 1_555
Na3 O53 2.777682 1_555
Na4 O67 2.428728 1_555
Na4 O66 2.456829 1_555
Na4 O68 2.459485 1_555
Na4 O60 2.545650 1_555
Na4 O61 2.557577 1_555
Na4 O62 2.588855 1_555
Na5 O69 2.435806 1_555
Na5 O70 2.454343 1_555
Na5 O71 2.470076 1_555
Na5 O64 2.574652 1_555
Na5 O63 2.605691 1_555
Na5 O65 2.617189 1_555
Na6 O53 2.412601 1_555
Na6 O66 2.453329 1_545
Na6 O67 2.519735 1_545
Na6 O52 2.562400 1_555
Na6 O16 2.688633 1_555
Na6 O31 2.784830 1_545
Na6 O9 2.827160 1_545
Na6 O2 2.829705 1_555
Na7 O51 2.409170 1_555
Na7 O68 2.494007 1_555
Na7 O67 2.515417 1_555
Na7 O17 2.540827 1_555
Na7 O53 2.589858 1_555
Na7 O32 2.623842 1_555
Na7 O0 2.836290 1_555
Na7 O10 2.846189 1_555
Na8 O50 2.421172 1_555
Na8 O49 2.460361 1_555
Na8 O69 2.494665 1_555
Na8 O71 2.500486 1_555
Na8 O14 2.551561 1_555
Na8 O35 2.629857 1_555
Na9 O70 2.396187 1_655
Na9 O48 2.417593 1_555
Na9 O50 2.524324 1_555
Na9 O69 2.601778 1_655
Na9 O12 2.634214 1_555
Na9 O5 2.817109 1_555
Na9 O33 2.847288 1_655
Na9 O7 2.958512 1_655
Na10 O44 2.371711 1_455
Na10 O65 2.435594 1_555
Na10 O63 2.491273 1_555
Na10 O43 2.516431 1_565
Na10 O8 2.577740 1_555
Na10 O29 2.652864 1_555
Na11 O42 2.361050 1_565
Na11 O64 2.405749 1_555
Na11 O63 2.510419 1_555
Na11 O44 2.615177 1_555
Na11 O6 2.637671 1_555
Na11 O27 2.713962 1_555
Na11 O23 2.880314 1_565
Na11 O13 2.954326 1_565
Na12 O47 2.436285 1_565
Na12 O61 2.460139 1_555
Na12 O45 2.479428 1_455
Na12 O62 2.523931 1_555
Na12 O11 2.582651 1_555
Na12 O26 2.701232 1_554
Na12 O18 2.778327 1_565
Na13 O60 2.386919 1_555
Na13 O46 2.395313 1_455
Na13 O61 2.565679 1_555
Na13 O47 2.566572 1_555
Na13 O10 2.630244 1_555
Na13 O25 2.818912 1_554
Na13 O20 2.829238 1_455
Na13 O15 2.895396 1_455
Na14 O54 2.429650 1_555
Na14 O40 2.457472 1_655
Na14 O55 2.473313 1_555
Na14 O41 2.523323 1_555
Na14 O19 2.616366 1_556
Na14 O4 2.862049 1_555
Na15 O39 2.409676 1_655
Na15 O56 2.477034 1_555
Na15 O41 2.504112 1_545
Na15 O55 2.538604 1_555
Na15 O20 2.781307 1_556
Na15 O5 2.852673 1_555
Na15 O24 2.881369 1_545
Na15 O34 2.921760 1_545
Na16 O37 2.363361 1_555
Na16 O59 2.384379 1_555
Na16 O38 2.605035 1_655
Na16 O57 2.637432 1_555
Na16 O2 2.726853 1_555
Na16 O30 2.761888 1_655
Na16 O23 2.788342 1_555
Na16 O28 2.869787 1_655
Na17 O57 2.374823 1_555
Na17 O38 2.411259 1_555
Na17 O36 2.511708 1_545
Na17 O58 2.544700 1_555
Na17 O21 2.620526 1_555
Na17 O0 2.762891 1_555
Na17 O31 2.909052 1_545
Ga0 O7 1.919556 1_555
Ga0 O6 2.001966 1_445
Ga0 O8 2.009207 1_545
Ga0 O43 2.030501 1_555
Ga0 O42 2.091953 1_455
Ga0 O44 2.130476 1_445
Ga1 O9 1.955777 1_555
Ga1 O45 1.989460 1_555
Ga1 O47 2.022834 1_665
Ga1 O46 2.031780 1_565
Ga1 O11 2.068499 1_655
Ga1 O10 2.083742 1_665
Ga2 O13 1.911275 1_555
Ga2 O12 1.960934 1_555
Ga2 O14 1.966044 1_555
Ga2 O49 1.966374 1_555
Ga2 O48 2.024661 1_555
Ga2 O50 2.081203 1_555
Ga3 O15 1.930087 1_555
Ga3 O16 1.974612 1_555
Ga3 O51 1.980570 1_555
Ga3 O17 1.996291 1_555
Ga3 O52 2.027135 1_555
Ga3 O53 2.111383 1_555
Ga4 O22 1.970553 1_555
Ga4 O21 2.025849 1_555
Ga4 O23 2.049035 1_555
Ga4 O58 2.066815 1_555
Ga4 O59 2.098796 1_555
Ga4 O57 2.154112 1_555
Ga5 O30 1.999916 1_555
Ga5 O32 2.036399 1_555
Ga5 O31 2.066290 1_555
Ga5 O66 2.082660 1_555
Ga5 O68 2.086909 1_555
Ga5 O67 2.187528 1_555
O0 P0 1.538566 1_545
O0 Y0 2.215621 1_445
O1 P1 1.522055 1_555
O1 Y0 2.143080 1_555
O2 P2 1.546870 1_555
O2 Y0 2.231609 1_545
O3 P3 1.530819 1_555
O3 Y1 2.144397 1_555
O4 P4 1.546830 1_555
O4 Y1 2.222555 1_665
O5 P5 1.553483 1_555
O5 Y1 2.230302 1_655
O6 P5 1.565579 1_565
O7 P3 1.551026 1_555
O8 P4 1.554532 1_455
O9 P1 1.557674 1_555
O10 P2 1.571210 1_455
O11 P0 1.556737 1_555
O12 P6 1.548580 1_555
O13 P7 1.532360 1_555
O14 P8 1.538159 1_555
O15 P9 1.541859 1_555
O16 P10 1.556162 1_555
O17 P11 1.540884 1_555
O18 P11 1.539771 1_555
O18 Y2 2.174478 1_554
O19 P9 1.548162 1_555
O19 Y2 2.218924 1_554
O20 P10 1.556669 1_555
O20 Y2 2.244752 1_554
O21 P7 1.563931 1_555
O22 P8 1.554318 1_555
O23 P6 1.569690 1_555
O24 P12 1.540370 1_555
O24 Y3 2.154570 1_556
O25 P13 1.543146 1_555
O25 Y3 2.206141 1_556
O26 P14 1.548745 1_555
O26 Y3 2.214058 1_556
O27 P15 1.532791 1_555
O27 Y4 2.186529 1_555
O28 P16 1.526658 1_555
O28 Y4 2.117814 1_555
O29 P17 1.540367 1_555
O29 Y4 2.191115 1_555
O30 P17 1.572060 1_555
O31 P15 1.572919 1_555
O32 P16 1.567074 1_555
O33 P13 1.550464 1_555
O33 Y5 2.212520 1_555
O34 P14 1.544421 1_555
O34 Y5 2.145437 1_555
O35 P12 1.543587 1_555
O35 Y5 2.206354 1_555
O36 P17 1.541297 1_555
O36 Y0 2.217932 1_455
O37 P15 1.547821 1_545
O37 Y0 2.250530 1_545
O38 P16 1.561770 1_555
O38 Y0 2.288328 1_445
O39 P13 1.542552 1_555
O39 Y1 2.260054 1_555
O40 P14 1.540597 1_555
O40 Y1 2.250900 1_565
O41 P12 1.553478 1_555
O41 Y1 2.286685 1_665
O42 P6 1.569652 1_555
O43 P7 1.570087 1_555
O44 P8 1.582701 1_555
O45 P9 1.554316 1_555
O46 P10 1.554746 1_555
O47 P11 1.566937 1_555
O48 P5 1.550196 1_555
O49 P3 1.548048 1_555
O50 P4 1.565399 1_555
O51 P1 1.558256 1_555
O52 P2 1.554735 1_555
O53 P0 1.572312 1_545
O54 P12 1.539986 1_555
O54 Y2 2.248212 1_555
O55 P13 1.555395 1_655
O55 Y2 2.303636 1_555
O56 P14 1.541281 1_545
O56 Y2 2.256438 1_555
O57 P15 1.576890 1_545
O58 P16 1.561403 1_555
O59 P17 1.566420 1_655
O60 P11 1.546436 1_555
O60 Y3 2.255300 1_555
O61 P9 1.565054 1_455
O61 Y3 2.330805 1_555
O62 P10 1.545326 1_565
O62 Y3 2.269540 1_555
O63 P7 1.568288 1_565
O63 Y4 2.306468 1_555
O64 P8 1.548838 1_555
O64 Y4 2.234918 1_555
O65 P6 1.546488 1_455
O65 Y4 2.256633 1_555
O66 P0 1.570626 1_555
O67 P1 1.577288 1_555
O68 P2 1.567434 1_455
O69 P3 1.564101 1_555
O69 Y5 2.301347 1_555
O70 P4 1.551641 1_455
O70 Y5 2.276778 1_555
O71 P5 1.547634 1_565
O71 Y5 2.283244 1_555
