# generated using pymatgen
data_BaVP2(H2O5)2
_symmetry_space_group_name_H-M   'P 1'
_cell_length_a   6.49371600
_cell_length_b   10.98521900
_cell_length_c   11.56911505
_cell_angle_alpha   77.90288841
_cell_angle_beta   90.00000000
_cell_angle_gamma   90.00000000
_symmetry_Int_Tables_number   1
_chemical_formula_structural   BaVP2(H2O5)2
_chemical_formula_sum   'Ba4 V4 P8 H16 O40'
_cell_volume   806.95521164
_cell_formula_units_Z   4
loop_
 _symmetry_equiv_pos_site_id
 _symmetry_equiv_pos_as_xyz
  1  'x, y, z'
loop_
 _atom_site_type_symbol
 _atom_site_label
 _atom_site_symmetry_multiplicity
 _atom_site_fract_x
 _atom_site_fract_y
 _atom_site_fract_z
 _atom_site_occupancy
  Ba  Ba0  1  0.36295000  0.84503000  0.44693200  1
  Ba  Ba1  1  0.86295000  0.65497000  0.05306800  1
  Ba  Ba2  1  0.63705000  0.15497000  0.55306800  1
  Ba  Ba3  1  0.13705000  0.34503000  0.94693200  1
  V  V0  1  0.51825500  0.86889400  0.81771400  1
  V  V1  1  0.01825500  0.63110600  0.68228600  1
  V  V2  1  0.48174500  0.13110600  0.18228600  1
  V  V3  1  0.98174500  0.36889400  0.31771400  1
  P  P0  1  0.00440600  0.89617900  0.76276500  1
  P  P1  1  0.50440600  0.60382100  0.73723500  1
  P  P2  1  0.99559400  0.10382100  0.23723500  1
  P  P3  1  0.49559400  0.39617900  0.26276500  1
  P  P4  1  0.61544100  0.15304800  0.88650200  1
  P  P5  1  0.11544100  0.34695200  0.61349800  1
  P  P6  1  0.38455900  0.84695200  0.11349800  1
  P  P7  1  0.88455900  0.65304800  0.38650200  1
  H  H0  1  0.33801900  0.61784400  0.94936800  1
  H  H1  1  0.83801900  0.88215600  0.55063200  1
  H  H2  1  0.66198100  0.38215600  0.05063200  1
  H  H3  1  0.16198100  0.11784400  0.44936800  1
  H  H4  1  0.35562100  0.55284200  0.08450900  1
  H  H5  1  0.85562100  0.94715800  0.41549100  1
  H  H6  1  0.64437900  0.44715800  0.91549100  1
  H  H7  1  0.14437900  0.05284200  0.58450900  1
  H  H8  1  0.16571700  0.88582100  0.97009400  1
  H  H9  1  0.66571700  0.61417900  0.52990600  1
  H  H10  1  0.83428300  0.11417900  0.02990600  1
  H  H11  1  0.33428300  0.38582100  0.47009400  1
  H  H12  1  0.58205500  0.34762200  0.77680500  1
  H  H13  1  0.08205500  0.15237800  0.72319500  1
  H  H14  1  0.41794500  0.65237800  0.22319500  1
  H  H15  1  0.91794500  0.84762200  0.27680500  1
  O  O0  1  0.25786000  0.56841000  0.01627100  1
  O  O1  1  0.75786000  0.93159000  0.48372900  1
  O  O2  1  0.74214000  0.43159000  0.98372900  1
  O  O3  1  0.24214000  0.06841000  0.51627100  1
  O  O4  1  0.98004300  0.03390800  0.69838300  1
  O  O5  1  0.48004300  0.46609200  0.80161700  1
  O  O6  1  0.01995700  0.96609200  0.30161700  1
  O  O7  1  0.51995700  0.53390800  0.19838300  1
  O  O8  1  0.15840500  0.87173900  0.06105300  1
  O  O9  1  0.65840500  0.62826100  0.43894700  1
  O  O10  1  0.84159500  0.12826100  0.93894700  1
  O  O11  1  0.34159500  0.37173900  0.56105300  1
  O  O12  1  0.64271700  0.26167800  0.77282100  1
  O  O13  1  0.14271700  0.23832200  0.72717900  1
  O  O14  1  0.35728300  0.73832200  0.22717900  1
  O  O15  1  0.85728300  0.76167800  0.27282100  1
  O  O16  1  0.52072600  0.80836300  0.01988800  1
  O  O17  1  0.02072600  0.69163700  0.48011200  1
  O  O18  1  0.47927400  0.19163700  0.98011200  1
  O  O19  1  0.97927400  0.30836300  0.51988800  1
  O  O20  1  0.82246100  0.85175800  0.84852900  1
  O  O21  1  0.32246100  0.64824200  0.65147100  1
  O  O22  1  0.17753900  0.14824200  0.15147100  1
  O  O23  1  0.67753900  0.35175800  0.34852900  1
  O  O24  1  0.51319200  0.68129400  0.83630800  1
  O  O25  1  0.01319200  0.81870600  0.66369200  1
  O  O26  1  0.48680800  0.31870600  0.16369200  1
  O  O27  1  0.98680800  0.18129400  0.33630800  1
  O  O28  1  0.53440300  0.04393600  0.83824400  1
  O  O29  1  0.03440300  0.45606400  0.66175600  1
  O  O30  1  0.46559700  0.95606400  0.16175600  1
  O  O31  1  0.96559700  0.54393600  0.33824400  1
  O  O32  1  0.20139400  0.87509100  0.84178900  1
  O  O33  1  0.70139400  0.62490900  0.65821100  1
  O  O34  1  0.79860600  0.12490900  0.15821100  1
  O  O35  1  0.29860600  0.37509100  0.34178900  1
  O  O36  1  0.50870400  0.90165200  0.67354500  1
  O  O37  1  0.00870400  0.59834800  0.82645500  1
  O  O38  1  0.49129600  0.09834800  0.32645500  1
  O  O39  1  0.99129600  0.40165200  0.17354500  1
loop_
_geom_bond_atom_site_label_1
_geom_bond_atom_site_label_2
_geom_bond_distance
_geom_bond_site_symmetry_2
Ba0 O17 2.766639 1_555
Ba0 O1 2.798462 1_555
Ba0 O3 2.847024 1_565
Ba0 O21 2.863179 1_555
Ba0 O6 2.935762 1_555
Ba0 O38 2.958948 1_565
Ba0 O36 2.973146 1_555
Ba0 O14 3.014642 1_555
Ba0 O9 3.074433 1_555
Ba1 O16 2.766639 1_555
Ba1 O0 2.798462 1_655
Ba1 O2 2.847024 1_554
Ba1 O20 2.863179 1_554
Ba1 O7 2.935762 1_555
Ba1 O39 2.958948 1_555
Ba1 O37 2.973146 1_654
Ba1 O15 3.014642 1_555
Ba1 O8 3.074433 1_655
Ba2 O19 2.766639 1_555
Ba2 O3 2.798462 1_555
Ba2 O1 2.847024 1_545
Ba2 O23 2.863179 1_555
Ba2 O4 2.935762 1_555
Ba2 O36 2.958948 1_545
Ba2 O38 2.973146 1_555
Ba2 O12 3.014642 1_555
Ba2 O11 3.074433 1_555
Ba3 O18 2.766639 1_555
Ba3 O2 2.798462 1_455
Ba3 O0 2.847024 1_556
Ba3 O22 2.863179 1_556
Ba3 O5 2.935762 1_555
Ba3 O37 2.958948 1_555
Ba3 O39 2.973146 1_456
Ba3 O13 3.014642 1_555
Ba3 O10 3.074433 1_455
H0 O0 0.994366 1_556
H1 O1 0.994366 1_555
H2 O2 0.994366 1_554
H3 O3 0.994366 1_555
H4 O0 0.999454 1_555
H4 O7 1.674163 1_555
H5 O1 0.999454 1_555
H5 O6 1.674163 1_655
H6 O2 0.999454 1_555
H6 O5 1.674163 1_555
H7 O3 0.999454 1_555
H7 O4 1.674163 1_455
H8 O8 1.032144 1_556
H8 O32 1.531102 1_555
H9 O9 1.032144 1_555
H9 O33 1.531102 1_555
H10 O10 1.032144 1_554
H10 O34 1.531102 1_555
H11 O11 1.032144 1_555
H11 O35 1.531102 1_555
H12 O12 1.032903 1_555
H12 O5 1.539965 1_555
H13 O13 1.032903 1_555
H13 O4 1.539965 1_455
H14 O14 1.032903 1_555
H14 O7 1.539965 1_555
H15 O15 1.032903 1_555
H15 O6 1.539965 1_655
O4 P0 1.548094 1_645
O5 P1 1.548094 1_555
O6 P2 1.548094 1_465
O7 P3 1.548094 1_555
O8 P6 1.590522 1_555
O9 P7 1.590522 1_555
O10 P4 1.590522 1_555
O11 P5 1.590522 1_555
O12 P4 1.589749 1_555
O13 P5 1.589749 1_555
O14 P6 1.589749 1_555
O15 P7 1.589749 1_555
O16 P6 1.525398 1_555
O16 V0 2.293759 1_554
O17 P7 1.525398 1_455
O17 V1 2.293759 1_555
O18 P4 1.525398 1_555
O18 V2 2.293759 1_556
O19 P5 1.525398 1_655
O19 V3 2.293759 1_555
O20 P0 1.554224 1_655
O20 V0 2.009158 1_555
O21 P1 1.554224 1_555
O21 V1 2.009158 1_555
O22 P2 1.554224 1_455
O22 V2 2.009158 1_555
O23 P3 1.554224 1_555
O23 V3 2.009158 1_555
O24 P1 1.565298 1_555
O24 V0 2.026957 1_555
O25 P0 1.565298 1_555
O25 V1 2.026957 1_555
O26 P3 1.565298 1_555
O26 V2 2.026957 1_555
O27 P2 1.565298 1_555
O27 V3 2.026957 1_555
O28 P4 1.518486 1_555
O28 V0 1.989040 1_545
O29 P5 1.518486 1_555
O29 V1 1.989040 1_555
O30 P6 1.518486 1_555
O30 V2 1.989040 1_565
O31 P7 1.518486 1_555
O31 V3 1.989040 1_555
O32 P0 1.561102 1_555
O32 V0 2.079399 1_555
O33 P1 1.561102 1_555
O33 V1 2.079399 1_655
O34 P2 1.561102 1_555
O34 V2 2.079399 1_555
O35 P3 1.561102 1_555
O35 V3 2.079399 1_455
O36 V0 1.632081 1_555
O37 V1 1.632081 1_555
O38 V2 1.632081 1_555
O39 V3 1.632081 1_555
