# generated using pymatgen
data_MgFe2CuAs2(HO5)2
_symmetry_space_group_name_H-M   'P 1'
_cell_length_a   5.53164804
_cell_length_b   5.78649237
_cell_length_c   7.81857442
_cell_angle_alpha   110.45877430
_cell_angle_beta   98.36348921
_cell_angle_gamma   105.77488056
_symmetry_Int_Tables_number   1
_chemical_formula_structural   MgFe2CuAs2(HO5)2
_chemical_formula_sum   'Mg1 Fe2 Cu1 As2 H2 O10'
_cell_volume   217.47309416
_cell_formula_units_Z   1
loop_
 _symmetry_equiv_pos_site_id
 _symmetry_equiv_pos_as_xyz
  1  'x, y, z'
loop_
 _atom_site_type_symbol
 _atom_site_label
 _atom_site_symmetry_multiplicity
 _atom_site_fract_x
 _atom_site_fract_y
 _atom_site_fract_z
 _atom_site_occupancy
  Mg  Mg0  1  0.82151218  0.84505355  0.56967313  1
  Fe  Fe0  1  0.84028156  0.38776509  0.83777189  1
  Fe  Fe1  1  0.19855684  0.61883470  0.21024883  1
  Cu  Cu0  1  0.02331291  0.01039773  0.03562061  1
  As  As0  1  0.30128426  0.76178210  0.68075528  1
  As  As1  1  0.69600325  0.23327853  0.35290216  1
  H  H0  1  0.16630873  0.32449875  0.59531382  1
  H  H1  1  0.64934741  0.63293572  0.22651126  1
  O  O0  1  0.61246594  0.97571845  0.77590384  1
  O  O1  1  0.43125252  0.95592847  0.20220638  1
  O  O2  1  0.35164759  0.46234107  0.63953172  1
  O  O3  1  0.55309870  0.61657943  0.32257807  1
  O  O4  1  0.04329128  0.76842051  0.78588521  1
  O  O5  1  0.94737126  0.25370700  0.23179685  1
  O  O6  1  0.15234133  0.79069448  0.48220713  1
  O  O7  1  0.86111175  0.19031946  0.56184855  1
  O  O8  1  0.13406358  0.30539352  0.97377238  1
  O  O9  1  0.90424890  0.69135146  0.08213988  1
loop_
_geom_bond_atom_site_label_1
_geom_bond_atom_site_label_2
_geom_bond_distance
_geom_bond_site_symmetry_2
Mg0 O7 1.973483 1_565
Mg0 O3 1.999373 1_555
Mg0 O6 2.107673 1_655
Mg0 O0 2.162020 1_555
Mg0 O4 2.185381 1_655
Fe0 O9 1.995160 1_556
Fe0 O8 2.066780 1_655
Fe0 O7 2.096074 1_555
Fe0 O0 2.211266 1_545
Fe0 O4 2.385300 1_655
Fe1 O8 1.986801 1_554
Fe1 O9 2.005152 1_455
Fe1 O3 2.034373 1_555
Fe1 O1 2.051768 1_555
Fe1 O6 2.096122 1_555
Fe1 O5 2.267978 1_455
Cu0 O5 1.873678 1_455
Cu0 O8 1.901997 1_554
Cu0 O9 1.962740 1_445
Cu0 O4 2.005239 1_544
Cu0 O1 2.589708 1_545
As0 O0 1.695295 1_555
As0 O6 1.732360 1_555
As0 O4 1.750078 1_555
As0 O2 1.755554 1_555
As1 O1 1.734036 1_545
As1 O5 1.793280 1_555
As1 O7 1.880981 1_555
H0 O2 1.032627 1_555
H0 O7 1.593186 1_455
H1 O3 0.997603 1_555
