# generated using pymatgen
data_In2O3
_symmetry_space_group_name_H-M   'P 1'
_cell_length_a   5.81362990
_cell_length_b   5.81363101
_cell_length_c   5.81363082
_cell_angle_alpha   56.64322495
_cell_angle_beta   56.64321772
_cell_angle_gamma   56.64322082
_symmetry_Int_Tables_number   1
_chemical_formula_structural   In2O3
_chemical_formula_sum   'In4 O6'
_cell_volume   128.16739438
_cell_formula_units_Z   2
loop_
 _symmetry_equiv_pos_site_id
 _symmetry_equiv_pos_as_xyz
  1  'x, y, z'
loop_
 _atom_site_type_symbol
 _atom_site_label
 _atom_site_symmetry_multiplicity
 _atom_site_fract_x
 _atom_site_fract_y
 _atom_site_fract_z
 _atom_site_occupancy
  In  In0  1  0.64288400  0.64288400  0.64288400  1
  In  In1  1  0.85711600  0.85711600  0.85711600  1
  In  In2  1  0.35711700  0.35711700  0.35711700  1
  In  In3  1  0.14288300  0.14288300  0.14288300  1
  O  O0  1  0.04649530  0.75000000  0.45350470  1
  O  O1  1  0.75000000  0.45350470  0.04649530  1
  O  O2  1  0.45350470  0.04649530  0.75000000  1
  O  O3  1  0.95350470  0.25000000  0.54649530  1
  O  O4  1  0.54649530  0.95350470  0.25000000  1
  O  O5  1  0.25000000  0.54649530  0.95350470  1
loop_
_geom_bond_atom_site_label_1
_geom_bond_atom_site_label_2
_geom_bond_distance
_geom_bond_site_symmetry_2
In0 O5 2.133280 1_555
In0 O3 2.133281 1_555
In0 O4 2.133281 1_555
In0 O0 2.262239 1_655
In0 O1 2.262239 1_556
In0 O2 2.262240 1_565
In1 O5 2.133280 1_655
In1 O4 2.133281 1_556
In1 O3 2.133281 1_565
In1 O2 2.262239 1_565
In1 O0 2.262239 1_655
In1 O1 2.262240 1_556
In2 O1 2.133274 1_555
In2 O0 2.133275 1_555
In2 O2 2.133275 1_555
In2 O3 2.262249 1_455
In2 O5 2.262250 1_554
In2 O4 2.262250 1_545
In3 O1 2.133275 1_455
In3 O2 2.133275 1_554
In3 O0 2.133275 1_545
In3 O4 2.262249 1_545
In3 O3 2.262249 1_455
In3 O5 2.262250 1_554
