# generated using pymatgen
data_Ba2Mg(TiS3)2
_symmetry_space_group_name_H-M   'P 1'
_cell_length_a   7.01057200
_cell_length_b   7.01057248
_cell_length_c   6.33488500
_cell_angle_alpha   90.00000000
_cell_angle_beta   90.00000000
_cell_angle_gamma   119.99999774
_symmetry_Int_Tables_number   1
_chemical_formula_structural   Ba2Mg(TiS3)2
_chemical_formula_sum   'Ba2 Mg1 Ti2 S6'
_cell_volume   269.63503064
_cell_formula_units_Z   1
loop_
 _symmetry_equiv_pos_site_id
 _symmetry_equiv_pos_as_xyz
  1  'x, y, z'
loop_
 _atom_site_type_symbol
 _atom_site_label
 _atom_site_symmetry_multiplicity
 _atom_site_fract_x
 _atom_site_fract_y
 _atom_site_fract_z
 _atom_site_occupancy
  Ba  Ba0  1  0.33333300  0.66666700  0.67020300  1
  Ba  Ba1  1  0.66666700  0.33333300  0.13652900  1
  Mg  Mg0  1  0.66666700  0.33333300  0.64139400  1
  Ti  Ti0  1  0.00000000  0.00000000  0.05209800  1
  Ti  Ti1  1  0.00000000  0.00000000  0.48573000  1
  S  S0  1  0.84588700  0.15411300  0.76975100  1
  S  S1  1  0.67551900  0.83775900  0.26965400  1
  S  S2  1  0.16224100  0.32448100  0.26965400  1
  S  S3  1  0.84588700  0.69177500  0.76975100  1
  S  S4  1  0.16224100  0.83775900  0.26965400  1
  S  S5  1  0.30822500  0.15411300  0.76975100  1
loop_
_geom_bond_atom_site_label_1
_geom_bond_atom_site_label_2
_geom_bond_distance
_geom_bond_site_symmetry_2
Ba0 S4 3.279424 1_555
Ba0 S1 3.279432 1_555
Ba0 S2 3.279432 1_555
Ba0 S3 3.564822 1_455
Ba0 S3 3.564822 1_555
Ba0 S0 3.564822 1_565
Ba0 S5 3.564822 1_565
Ba0 S5 3.564822 1_555
Ba0 S0 3.564822 1_455
Ba1 Mg0 3.136623 1_554
Ba1 S0 3.183476 1_554
Ba1 S5 3.183484 1_554
Ba1 S3 3.183485 1_554
Ba1 Mg0 3.198262 1_555
Ba1 S2 3.605707 1_555
Ba1 S2 3.605707 1_655
Ba1 S4 3.605708 1_545
Ba1 S1 3.605708 1_545
Ba1 S1 3.605708 1_555
Ba1 S4 3.605708 1_655
Mg0 S0 2.323157 1_555
Mg0 S5 2.323169 1_555
Mg0 S3 2.323169 1_555
S0 Ti0 2.588656 1_656
S0 Ti1 2.595995 1_655
S1 Ti1 2.398893 1_665
S1 Ti0 2.404255 1_665
S2 Ti1 2.398893 1_555
S2 Ti0 2.404255 1_555
S3 Ti0 2.588652 1_666
S3 Ti1 2.595991 1_665
S4 Ti1 2.398898 1_565
S4 Ti0 2.404260 1_565
S5 Ti0 2.588652 1_556
S5 Ti1 2.595991 1_555
