# generated using pymatgen
data_MgFe12(OF)12
_symmetry_space_group_name_H-M   'P 1'
_cell_length_a   9.65414846
_cell_length_b   14.66802278
_cell_length_c   3.09862927
_cell_angle_alpha   89.75679925
_cell_angle_beta   90.08945680
_cell_angle_gamma   91.94172465
_symmetry_Int_Tables_number   1
_chemical_formula_structural   MgFe12(OF)12
_chemical_formula_sum   'Mg1 Fe12 O12 F12'
_cell_volume   438.53208857
_cell_formula_units_Z   1
loop_
 _symmetry_equiv_pos_site_id
 _symmetry_equiv_pos_as_xyz
  1  'x, y, z'
loop_
 _atom_site_type_symbol
 _atom_site_label
 _atom_site_symmetry_multiplicity
 _atom_site_fract_x
 _atom_site_fract_y
 _atom_site_fract_z
 _atom_site_occupancy
  Mg  Mg0  1  0.76296400  0.66223000  0.97280800  1
  Fe  Fe0  1  0.99685300  0.01121100  0.99652300  1
  Fe  Fe1  1  0.01562800  0.32642800  0.98677700  1
  Fe  Fe2  1  0.05654800  0.65767100  0.98354100  1
  Fe  Fe3  1  0.22207000  0.16662400  0.49207000  1
  Fe  Fe4  1  0.25691900  0.47057000  0.48603500  1
  Fe  Fe5  1  0.23923900  0.87308800  0.50478500  1
  Fe  Fe6  1  0.49783700  0.33518900  0.98684200  1
  Fe  Fe7  1  0.49610100  0.00964100  0.99646000  1
  Fe  Fe8  1  0.48918500  0.66890700  0.02838200  1
  Fe  Fe9  1  0.74668600  0.14824100  0.49279600  1
  Fe  Fe10  1  0.73258600  0.48269600  0.47771500  1
  Fe  Fe11  1  0.70173200  0.85372100  0.49354600  1
  O  O0  1  0.09464000  0.26931400  0.48875300  1
  O  O1  1  0.07691100  0.93990400  0.49893300  1
  O  O2  1  0.15044400  0.10556900  0.99341500  1
  O  O3  1  0.15060500  0.43167100  0.98616100  1
  O  O4  1  0.34048000  0.91534600  0.00365100  1
  O  O5  1  0.40708300  0.38833100  0.48593600  1
  O  O6  1  0.58232200  0.94897100  0.49785400  1
  O  O7  1  0.65339300  0.60392700  0.47408500  1
  O  O8  1  0.63930500  0.10895000  0.99341600  1
  O  O9  1  0.65621800  0.42633400  0.97949600  1
  O  O10  1  0.65252300  0.77315700  0.99478400  1
  O  O11  1  0.89459200  0.06657400  0.49478900  1
  F  F0  1  0.14499400  0.59245200  0.48686400  1
  F  F1  1  0.15328000  0.77803500  0.00652200  1
  F  F2  1  0.34830700  0.23085400  0.99019600  1
  F  F3  1  0.36566200  0.55020700  0.99944500  1
  F  F4  1  0.39437900  0.07775400  0.49552800  1
  F  F5  1  0.38670300  0.73066600  0.53054600  1
  F  F6  1  0.59495000  0.26764300  0.48727400  1
  F  F7  1  0.84192800  0.23606800  0.98779500  1
  F  F8  1  0.83019700  0.89947200  0.99571600  1
  F  F9  1  0.88264100  0.55441300  0.97593200  1
  F  F10  1  0.90116900  0.39499000  0.48155000  1
  F  F11  1  0.90721300  0.70521500  0.48141200  1
loop_
_geom_bond_atom_site_label_1
_geom_bond_atom_site_label_2
_geom_bond_distance
_geom_bond_site_symmetry_2
Mg0 O10 1.976756 1_555
Mg0 O7 2.045303 1_555
Mg0 O7 2.048298 1_556
Fe0 O2 1.993790 1_655
Fe0 O11 2.021778 1_556
Fe0 O11 2.022368 1_555
Fe0 O1 2.034901 1_645
Fe0 O1 2.037673 1_646
Fe1 O0 1.929527 1_555
Fe1 O0 1.931735 1_556
Fe1 O3 1.986136 1_555
Fe3 O2 1.906332 1_554
Fe3 O2 1.908681 1_555
Fe3 O0 1.976812 1_555
Fe4 O5 1.917101 1_555
Fe4 O3 1.933481 1_555
Fe4 O3 1.934169 1_554
Fe5 O1 1.876328 1_555
Fe5 O4 1.921293 1_556
Fe5 O4 1.925174 1_555
Fe6 O5 1.953482 1_555
Fe6 O5 1.956445 1_556
Fe6 O9 1.996781 1_555
Fe7 O8 1.974022 1_555
Fe7 O6 1.983183 1_546
Fe7 O6 1.984366 1_545
Fe7 O4 2.007416 1_546
Fe8 O10 2.161354 1_554
Fe8 O7 2.326655 1_555
Fe8 O7 2.548804 1_554
Fe9 O11 1.894657 1_555
Fe9 O8 1.939932 1_554
Fe9 O8 1.941678 1_555
Fe10 O9 1.891114 1_554
Fe10 O9 1.896285 1_555
Fe10 O7 1.959246 1_555
Fe11 O6 1.841318 1_555
Fe11 O10 1.995770 1_555
Fe11 O10 1.996450 1_554
F0 Fe2 2.021083 1_555
F0 Fe2 2.028586 1_554
F0 Fe4 2.120057 1_555
F1 Fe2 1.970610 1_554
F1 Fe5 2.225346 1_555
F1 Fe5 2.226404 1_554
F2 Fe6 2.067930 1_555
F2 Fe3 2.164241 1_555
F2 Fe3 2.169547 1_556
F3 Fe8 2.078898 1_556
F3 Fe4 2.155657 1_556
F3 Fe4 2.219220 1_555
F4 Fe7 2.102490 1_555
F4 Fe7 2.106739 1_554
F4 Fe3 2.147870 1_555
F5 Fe8 2.055052 1_556
F5 Fe8 2.073209 1_555
F5 Fe5 2.568466 1_555
F6 Fe6 2.076173 1_554
F6 Fe6 2.082627 1_555
F6 Fe9 2.321006 1_555
F7 Fe1 2.101939 1_655
F7 Fe9 2.188545 1_555
F7 Fe9 2.204716 1_556
F8 Fe11 2.075780 1_556
F8 Fe11 2.087147 1_555
F8 Fe0 2.257487 1_565
F9 Mg0 1.989893 1_555
F9 Fe2 2.222878 1_655
F9 Fe10 2.343504 1_555
F9 Fe10 2.347891 1_556
F10 Fe10 2.108481 1_555
F10 Fe1 2.162531 1_654
F10 Fe1 2.177101 1_655
F11 Mg0 2.143436 1_555
F11 Mg0 2.182350 1_554
F11 Fe2 2.242549 1_654
F11 Fe2 2.244464 1_655
