# generated using pymatgen
data_MgMn5Cr(PO4)6
_symmetry_space_group_name_H-M   'P 1'
_cell_length_a   8.96387512
_cell_length_b   8.65724309
_cell_length_c   8.80905638
_cell_angle_alpha   59.62222630
_cell_angle_beta   57.72732333
_cell_angle_gamma   57.75702917
_symmetry_Int_Tables_number   1
_chemical_formula_structural   MgMn5Cr(PO4)6
_chemical_formula_sum   'Mg1 Mn5 Cr1 P6 O24'
_cell_volume   464.97535255
_cell_formula_units_Z   1
loop_
 _symmetry_equiv_pos_site_id
 _symmetry_equiv_pos_as_xyz
  1  'x, y, z'
loop_
 _atom_site_type_symbol
 _atom_site_label
 _atom_site_symmetry_multiplicity
 _atom_site_fract_x
 _atom_site_fract_y
 _atom_site_fract_z
 _atom_site_occupancy
  Mg  Mg0  1  0.75488700  0.74334600  0.13188800  1
  Mn  Mn0  1  0.01011900  0.01023900  0.01171300  1
  Mn  Mn1  1  0.07137800  0.64311300  0.63410400  1
  Mn  Mn2  1  0.49630700  0.48020100  0.51857100  1
  Mn  Mn3  1  0.43084600  0.86024000  0.84624300  1
  Mn  Mn4  1  0.95095800  0.35007200  0.36580600  1
  Cr  Cr0  1  0.56528600  0.14636700  0.14557600  1
  P  P0  1  0.25092000  0.24745600  0.55058600  1
  P  P1  1  0.27416300  0.94263000  0.24917700  1
  P  P2  1  0.23245200  0.54902600  0.96501800  1
  P  P3  1  0.73576000  0.47097000  0.02782500  1
  P  P4  1  0.75334300  0.04285800  0.74111100  1
  P  P5  1  0.75304900  0.75197800  0.45252100  1
  O  O0  1  0.10842900  0.11972200  0.30260900  1
  O  O1  1  0.02986600  0.53620600  0.10808200  1
  O  O2  1  0.06889500  0.30984300  0.52849600  1
  O  O3  1  0.23906900  0.08876000  0.74902600  1
  O  O4  1  0.43319200  0.17807400  0.39441100  1
  O  O5  1  0.26680600  0.41415200  0.56095700  1
  O  O6  1  0.25138000  0.93618200  0.08920300  1
  O  O7  1  0.27470900  0.75194200  0.41470200  1
  O  O8  1  0.56328000  0.61018400  0.97003200  1
  O  O9  1  0.27353600  0.54701700  0.77198000  1
  O  O10  1  0.75736600  0.26195500  0.07067600  1
  O  O11  1  0.57937000  0.01105000  0.79385900  1
  O  O12  1  0.46928600  0.95006800  0.19069500  1
  O  O13  1  0.21125400  0.74522600  0.95037500  1
  O  O14  1  0.69765300  0.50150800  0.20892800  1
  O  O15  1  0.38268100  0.37695900  0.04337800  1
  O  O16  1  0.74647700  0.24149900  0.58266300  1
  O  O17  1  0.76156400  0.03942700  0.91850000  1
  O  O18  1  0.74499300  0.58722300  0.42422900  1
  O  O19  1  0.56334400  0.81300400  0.60397700  1
  O  O20  1  0.76584200  0.90382800  0.24584300  1
  O  O21  1  0.92802200  0.70292100  0.47666600  1
  O  O22  1  0.92014600  0.50166600  0.87633000  1
  O  O23  1  0.94118400  0.88309100  0.67799900  1
loop_
_geom_bond_atom_site_label_1
_geom_bond_atom_site_label_2
_geom_bond_distance
_geom_bond_site_symmetry_2
Mg0 O14 2.108173 1_555
Mg0 O1 2.108866 1_655
Mg0 O20 2.146852 1_555
Mg0 O12 2.158224 1_555
Mg0 O18 2.197775 1_555
Mg0 O17 2.297311 1_564
Mn0 O13 2.146176 1_544
Mn0 O10 2.184414 1_455
Mn0 O3 2.203366 1_554
Mn0 O6 2.282188 1_545
Mn0 O20 2.303266 1_445
Mn0 O17 2.616343 1_454
Mn1 O23 1.889764 1_455
Mn1 O5 1.947886 1_555
Mn1 O22 1.982378 1_455
Mn1 O7 2.043003 1_555
Mn1 O21 2.076001 1_455
Mn1 O9 2.273953 1_555
Mn2 O9 2.149061 1_555
Mn2 O16 2.201203 1_555
Mn2 O5 2.217536 1_555
Mn2 O7 2.257195 1_555
Mn2 O14 2.306667 1_555
Mn2 O18 2.442342 1_555
Mn3 O8 1.880816 1_555
Mn3 O19 1.946792 1_555
Mn3 O3 1.957604 1_565
Mn3 O6 2.053934 1_556
Mn3 O11 2.068651 1_565
Mn3 O13 2.224131 1_555
Mn4 O0 1.886612 1_655
Mn4 O18 1.974348 1_555
Mn4 O2 2.003270 1_655
Mn4 O1 2.013068 1_655
Mn4 O16 2.043403 1_555
Mn4 O14 2.669519 1_555
Cr0 O15 1.935015 1_555
Cr0 O4 1.942234 1_555
Cr0 O20 2.052581 1_545
Cr0 O12 2.073282 1_545
Cr0 O17 2.081002 1_554
Cr0 O10 2.087749 1_555
O0 P1 1.527057 1_545
O1 P2 1.589933 1_554
O2 P0 1.511392 1_555
O3 P0 1.575746 1_555
O4 P0 1.520260 1_555
O5 P0 1.574088 1_555
O6 P1 1.558778 1_555
O7 P1 1.554296 1_555
O8 P3 1.527695 1_556
O9 P2 1.543336 1_555
O10 P3 1.570850 1_555
O11 P4 1.509525 1_555
O12 P1 1.566247 1_555
O13 P2 1.548553 1_555
O14 P3 1.574793 1_555
O15 P2 1.523535 1_554
O16 P4 1.568580 1_555
O17 P4 1.588023 1_555
O18 P5 1.609465 1_555
O19 P5 1.510735 1_555
O20 P5 1.604137 1_555
O21 P5 1.496573 1_555
O22 P3 1.529007 1_556
O23 P4 1.533088 1_565
