# generated using pymatgen
data_Na2Si3Sn2Ge2(SO8)3
_symmetry_space_group_name_H-M   'P 1'
_cell_length_a   8.68482880
_cell_length_b   8.64063655
_cell_length_c   22.55797730
_cell_angle_alpha   90.36255789
_cell_angle_beta   90.51043376
_cell_angle_gamma   119.83901824
_symmetry_Int_Tables_number   1
_chemical_formula_structural   Na2Si3Sn2Ge2(SO8)3
_chemical_formula_sum   'Na6 Si9 Sn6 Ge6 S9 O72'
_cell_volume   1468.21394031
_cell_formula_units_Z   3
loop_
 _symmetry_equiv_pos_site_id
 _symmetry_equiv_pos_as_xyz
  1  'x, y, z'
loop_
 _atom_site_type_symbol
 _atom_site_label
 _atom_site_symmetry_multiplicity
 _atom_site_fract_x
 _atom_site_fract_y
 _atom_site_fract_z
 _atom_site_occupancy
  Na  Na0  1  0.97978069  0.97711002  0.49409343  1
  Na  Na1  1  0.00183890  0.98917111  0.99851695  1
  Na  Na2  1  0.65500064  0.32176600  0.83334706  1
  Na  Na3  1  0.67739354  0.32486081  0.33436178  1
  Na  Na4  1  0.31613598  0.66294105  0.17101195  1
  Na  Na5  1  0.35100027  0.66340170  0.66760432  1
  Si  Si0  1  0.29752745  0.01271805  0.24876492  1
  Si  Si1  1  0.00644806  0.28294821  0.25048897  1
  Si  Si2  1  0.28847871  0.29975513  0.75378605  1
  Si  Si3  1  0.71737001  0.00191398  0.75519116  1
  Si  Si4  1  0.66432882  0.62601436  0.58426384  1
  Si  Si5  1  0.93897512  0.60650313  0.08297847  1
  Si  Si6  1  0.33005520  0.95580884  0.91611667  1
  Si  Si7  1  0.63991608  0.96104461  0.41387672  1
  Si  Si8  1  0.04428853  0.67852020  0.41491878  1
  Sn  Sn0  1  0.99071177  0.00098554  0.64948429  1
  Sn  Sn1  1  0.00388419  0.99312946  0.14807078  1
  Sn  Sn2  1  0.65694075  0.33239018  0.69066149  1
  Sn  Sn3  1  0.67845979  0.34444166  0.47613496  1
  Sn  Sn4  1  0.35024300  0.68178459  0.51410428  1
  Sn  Sn5  1  0.32190315  0.67644756  0.31203482  1
  Ge  Ge0  1  0.00866525  0.00695935  0.35268506  1
  Ge  Ge1  1  0.02289799  0.01824570  0.84945020  1
  Ge  Ge2  1  0.68984720  0.33680839  0.19587547  1
  Ge  Ge3  1  0.65359763  0.32897896  0.98190454  1
  Ge  Ge4  1  0.30479927  0.67176888  0.02008565  1
  Ge  Ge5  1  0.35787482  0.68639044  0.81212848  1
  S  S0  1  0.71011260  0.70679505  0.24963577  1
  S  S1  1  0.00850178  0.71453099  0.75394253  1
  S  S2  1  0.96215796  0.33763797  0.58434331  1
  S  S3  1  0.37202928  0.04070749  0.58381399  1
  S  S4  1  0.65886381  0.04037233  0.08070773  1
  S  S5  1  0.37899882  0.34168264  0.07983576  1
  S  S6  1  0.61880061  0.66600147  0.91899548  1
  S  S7  1  0.04319672  0.37899250  0.91749367  1
  S  S8  1  0.32813672  0.37161902  0.41488448  1
  O  O0  1  0.20348686  0.04125078  0.30661717  1
  O  O1  1  0.82286239  0.78626539  0.30239629  1
  O  O2  1  0.96568263  0.15500224  0.30703326  1
  O  O3  1  0.20928423  0.17067860  0.81113926  1
  O  O4  1  0.97315819  0.79586734  0.80674555  1
  O  O5  1  0.84043305  0.02622654  0.81487732  1
  O  O6  1  0.78003983  0.95188441  0.69443914  1
  O  O7  1  0.17458807  0.21698560  0.69281703  1
  O  O8  1  0.04049207  0.81721584  0.69868864  1
  O  O9  1  0.77734977  0.81030749  0.19386719  1
  O  O10  1  0.02442349  0.20589544  0.18577540  1
  O  O11  1  0.18100344  0.95771007  0.18710156  1
  O  O12  1  0.87970892  0.35808001  0.63921437  1
  O  O13  1  0.48167711  0.11487339  0.63898846  1
  O  O14  1  0.63723428  0.51203122  0.64463965  1
  O  O15  1  0.84705166  0.48417680  0.14132088  1
  O  O16  1  0.62687099  0.11486953  0.13476177  1
  O  O17  1  0.48406058  0.36788637  0.13319087  1
  O  O18  1  0.45382387  0.30166204  0.02476822  1
  O  O19  1  0.82173295  0.51564129  0.02140295  1
  O  O20  1  0.68688429  0.14984484  0.02642017  1
  O  O21  1  0.45392638  0.14470377  0.53056334  1
  O  O22  1  0.69211339  0.53456434  0.52588427  1
  O  O23  1  0.84979686  0.30068935  0.53081493  1
  O  O24  1  0.53487717  0.69374010  0.97216604  1
  O  O25  1  0.15728054  0.45623814  0.97310572  1
  O  O26  1  0.29229435  0.83447137  0.97592141  1
  O  O27  1  0.57132781  0.84830695  0.47557413  1
  O  O28  1  0.29860397  0.44556393  0.47099676  1
  O  O29  1  0.15643477  0.70693701  0.47734478  1
  O  O30  1  0.11468564  0.61717615  0.35854616  1
  O  O31  1  0.51504347  0.87202436  0.35651183  1
  O  O32  1  0.36203403  0.48338571  0.36271580  1
  O  O33  1  0.12344095  0.48828001  0.86509938  1
  O  O34  1  0.36670616  0.86054437  0.85959405  1
  O  O35  1  0.50869768  0.62899101  0.86369318  1
  O  O36  1  0.03698288  0.86055451  0.40513102  1
  O  O37  1  0.83686404  0.98788468  0.40559678  1
  O  O38  1  0.16621027  0.19575927  0.41008461  1
  O  O39  1  0.02534072  0.19744709  0.91371140  1
  O  O40  1  0.14887438  0.97392754  0.90713424  1
  O  O41  1  0.79752535  0.82345076  0.91324436  1
  O  O42  1  0.98482547  0.17799338  0.58706134  1
  O  O43  1  0.19775514  0.03076676  0.58966758  1
  O  O44  1  0.84825286  0.82090949  0.58764906  1
  O  O45  1  0.96196169  0.80692638  0.08502423  1
  O  O46  1  0.81951124  0.02148483  0.08422999  1
  O  O47  1  0.19744659  0.18318031  0.08138930  1
  O  O48  1  0.70429334  0.18339535  0.74862357  1
  O  O49  1  0.48582416  0.32268193  0.75101000  1
  O  O50  1  0.84983678  0.53579117  0.74900551  1
  O  O51  1  0.69874172  0.52875446  0.24248680  1
  O  O52  1  0.82894681  0.30798595  0.24619600  1
  O  O53  1  0.49112870  0.19878381  0.23662733  1
  O  O54  1  0.63496221  0.49933840  0.92366441  1
  O  O55  1  0.86309818  0.35948409  0.92430544  1
  O  O56  1  0.51109605  0.15693735  0.92756546  1
  O  O57  1  0.63945450  0.14958032  0.42241136  1
  O  O58  1  0.48367962  0.34686750  0.42069961  1
  O  O59  1  0.84374072  0.50761094  0.41828196  1
  O  O60  1  0.36956714  0.51036129  0.07104394  1
  O  O61  1  0.14118896  0.62808552  0.07577835  1
  O  O62  1  0.49746037  0.85562785  0.07317112  1
  O  O63  1  0.34744093  0.85850438  0.58114818  1
  O  O64  1  0.48330134  0.64092997  0.58014247  1
  O  O65  1  0.13611059  0.50005965  0.57948037  1
  O  O66  1  0.33313728  0.84506556  0.25088000  1
  O  O67  1  0.53039032  0.67890955  0.25508806  1
  O  O68  1  0.18513612  0.47706786  0.25370743  1
  O  O69  1  0.29676223  0.49192598  0.76602271  1
  O  O70  1  0.16773772  0.69566444  0.76150641  1
  O  O71  1  0.51714062  0.82918253  0.76089884  1
loop_
_geom_bond_atom_site_label_1
_geom_bond_atom_site_label_2
_geom_bond_distance
_geom_bond_site_symmetry_2
Na0 O37 2.368057 1_555
Na0 O36 2.403840 1_655
Na0 O44 2.474901 1_555
Na0 O38 2.614973 1_665
Na0 O42 2.699910 1_565
Na0 O43 2.736431 1_665
Na1 O45 2.432274 1_456
Na1 O40 2.471492 1_555
Na1 O47 2.502148 1_566
Na1 O41 2.504997 1_455
Na1 O39 2.573922 1_565
Na1 O46 2.609894 1_466
Na2 O49 2.360450 1_555
Na2 O48 2.400085 1_555
Na2 O56 2.534154 1_555
Na2 O54 2.601511 1_555
Na2 O50 2.625050 1_555
Na2 O55 2.630946 1_555
Na3 O59 2.409898 1_555
Na3 O57 2.429112 1_555
Na3 O52 2.437852 1_555
Na3 O53 2.610876 1_555
Na3 O58 2.651744 1_555
Na3 O51 2.676103 1_555
Na4 O66 2.339312 1_555
Na4 O68 2.368775 1_555
Na4 O61 2.548061 1_555
Na4 O67 2.599391 1_555
Na4 O62 2.760883 1_555
Na4 O60 2.762004 1_555
Na5 O64 2.346928 1_555
Na5 O71 2.532563 1_555
Na5 O65 2.589193 1_555
Na5 O69 2.590726 1_555
Na5 O63 2.595936 1_555
Na5 O70 2.755356 1_555
Ge0 O2 1.822413 1_455
Ge0 O36 1.839513 1_545
Ge0 O37 1.862138 1_445
Ge0 O0 1.888622 1_555
Ge0 O38 1.982535 1_555
Ge0 O1 2.098822 1_445
Ge1 O3 1.737705 1_555
Ge1 O5 1.792093 1_455
Ge1 O40 1.853304 1_545
Ge1 O4 1.987434 1_445
Ge1 O39 2.106595 1_555
Ge1 O41 2.353177 1_445
Ge2 O52 1.757407 1_555
Ge2 O53 1.799952 1_555
Ge2 O15 1.821997 1_555
Ge2 O51 1.926463 1_555
Ge2 O16 2.187827 1_555
Ge2 O17 2.388125 1_555
Ge3 O19 1.772700 1_556
Ge3 O56 1.833886 1_555
Ge3 O18 1.904238 1_556
Ge3 O20 1.986837 1_556
Ge3 O54 2.043722 1_555
Ge3 O55 2.153464 1_555
Ge4 O26 1.774395 1_554
Ge4 O61 1.801088 1_555
Ge4 O25 1.951733 1_554
Ge4 O62 2.013087 1_555
Ge4 O60 2.091010 1_555
Ge4 O24 2.204738 1_554
Ge5 O71 1.766142 1_555
Ge5 O69 1.807588 1_555
Ge5 O34 1.811093 1_555
Ge5 O35 1.985299 1_555
Ge5 O70 2.033836 1_555
Ge5 O33 2.259293 1_555
O0 Si0 1.626721 1_555
O1 S0 1.465146 1_555
O2 Si1 1.615831 1_655
O3 Si2 1.631429 1_555
O4 S1 1.489137 1_655
O5 Si3 1.657277 1_555
O6 Si3 1.612809 1_565
O6 Sn0 1.955000 1_565
O7 Si2 1.625040 1_555
O7 Sn0 1.993038 1_455
O8 S1 1.480822 1_555
O8 Sn0 2.153415 1_465
O9 S0 1.493714 1_555
O9 Sn1 2.097019 1_655
O10 Si1 1.641301 1_555
O10 Sn1 1.945826 1_545
O11 Si0 1.634874 1_565
O11 Sn1 1.919073 1_555
O12 S2 1.488261 1_555
O12 Sn2 2.180621 1_555
O13 S3 1.492681 1_555
O13 Sn2 2.074086 1_555
O14 Si4 1.634735 1_555
O14 Sn2 1.948852 1_555
O15 Si5 1.638060 1_555
O16 S4 1.467125 1_555
O17 S5 1.450458 1_555
O18 S5 1.522346 1_555
O19 Si5 1.657718 1_555
O20 S4 1.498185 1_555
O21 S3 1.466005 1_555
O21 Sn3 2.238100 1_555
O22 Si4 1.612189 1_555
O22 Sn3 1.937180 1_555
O23 S2 1.475236 1_555
O23 Sn3 2.100385 1_555
O24 S6 1.487640 1_555
O25 S7 1.519901 1_555
O26 Si6 1.646326 1_555
O27 Si7 1.641726 1_555
O27 Sn4 1.951606 1_555
O28 S8 1.494940 1_555
O28 Sn4 2.090213 1_555
O29 Si8 1.650803 1_555
O29 Sn4 1.977224 1_555
O30 Si8 1.612346 1_555
O30 Sn5 1.930053 1_555
O31 Si7 1.604554 1_555
O31 Sn5 1.950331 1_555
O32 S8 1.463507 1_555
O32 Sn5 2.192475 1_555
O33 S7 1.465682 1_555
O34 Si6 1.630733 1_555
O35 S6 1.497432 1_555
O36 Si8 1.621796 1_555
O37 Si7 1.620442 1_555
O38 S8 1.472105 1_555
O39 S7 1.499346 1_555
O40 Si6 1.667757 1_555
O41 S6 1.476956 1_555
O42 S2 1.488770 1_555
O42 Sn0 2.104398 1_555
O43 S3 1.479849 1_555
O43 Sn0 2.169656 1_455
O44 Si4 1.647000 1_555
O44 Sn0 1.980792 1_565
O45 Si5 1.641903 1_555
O45 Sn1 2.030444 1_655
O46 S4 1.484686 1_555
O46 Sn1 2.247611 1_645
O47 S5 1.488530 1_555
O47 Sn1 2.261515 1_545
O48 Si3 1.635143 1_555
O48 Sn2 2.018593 1_555
O49 Si2 1.626300 1_555
O49 Sn2 1.995562 1_555
O50 S1 1.474363 1_655
O50 Sn2 2.151519 1_555
O51 S0 1.499260 1_555
O52 Si1 1.661957 1_655
O53 Si0 1.676471 1_555
O54 S6 1.519017 1_555
O55 S7 1.496913 1_655
O56 Si6 1.681365 1_545
O57 Si7 1.641185 1_545
O57 Sn3 1.953881 1_555
O58 S8 1.473933 1_555
O58 Sn3 2.103274 1_555
O59 Si8 1.632291 1_655
O59 Sn3 1.947851 1_555
O60 S5 1.514099 1_555
O61 Si5 1.680751 1_455
O62 S4 1.519084 1_565
O63 S3 1.480477 1_565
O63 Sn4 2.151260 1_555
O64 Si4 1.642020 1_555
O64 Sn4 2.015218 1_555
O65 S2 1.469355 1_455
O65 Sn4 2.295916 1_555
O66 Si0 1.625691 1_565
O66 Sn5 1.980340 1_555
O67 S0 1.462532 1_555
O67 Sn5 2.220960 1_555
O68 Si1 1.622690 1_555
O68 Sn5 2.004275 1_555
O69 Si2 1.647280 1_555
O70 S1 1.479425 1_555
O71 Si3 1.640667 1_565
