# generated using pymatgen
data_Na6Sc4Ga4Si3(S3O16)3
_symmetry_space_group_name_H-M   'P 1'
_cell_length_a   17.59047099
_cell_length_b   8.78661302
_cell_length_c   22.64163209
_cell_angle_alpha   90.22493537
_cell_angle_beta   89.42437696
_cell_angle_gamma   119.86528613
_symmetry_Int_Tables_number   1
_chemical_formula_structural   Na6Sc4Ga4Si3(S3O16)3
_chemical_formula_sum   'Na18 Sc12 Ga12 Si9 S27 O144'
_cell_volume   3034.61092527
_cell_formula_units_Z   3
loop_
 _symmetry_equiv_pos_site_id
 _symmetry_equiv_pos_as_xyz
  1  'x, y, z'
loop_
 _atom_site_type_symbol
 _atom_site_label
 _atom_site_symmetry_multiplicity
 _atom_site_fract_x
 _atom_site_fract_y
 _atom_site_fract_z
 _atom_site_occupancy
  Na  Na0  1  0.00386739  0.63957508  0.25479383  1
  Na  Na1  1  0.50211265  0.36793744  0.74315060  1
  Na  Na2  1  0.16280693  0.30540009  0.91127958  1
  Na  Na3  1  0.66229722  0.30162457  0.91094039  1
  Na  Na4  1  0.16357512  0.02633766  0.41732149  1
  Na  Na5  1  0.66165481  0.01614946  0.41678613  1
  Na  Na6  1  0.99291224  0.98792745  0.49844289  1
  Na  Na7  1  0.49163276  0.00094336  0.50074818  1
  Na  Na8  1  0.99306240  0.99694459  0.99527283  1
  Na  Na9  1  0.49256195  0.99699070  0.99581356  1
  Na  Na10  1  0.33318825  0.33259773  0.82977194  1
  Na  Na11  1  0.84010304  0.33494190  0.83269095  1
  Na  Na12  1  0.34080086  0.34681610  0.33639789  1
  Na  Na13  1  0.83094475  0.32976162  0.33494353  1
  Na  Na14  1  0.17555599  0.68000515  0.17096187  1
  Na  Na15  1  0.66515399  0.67836144  0.17101172  1
  Na  Na16  1  0.16901876  0.65612630  0.66911665  1
  Na  Na17  1  0.66594992  0.65656517  0.66548555  1
  Sc  Sc0  1  0.00389833  0.01181367  0.64873169  1
  Sc  Sc1  1  0.50537665  0.01962250  0.64660677  1
  Sc  Sc2  1  0.00671824  -0.00104975  0.14960413  1
  Sc  Sc3  1  0.50342294  0.99427164  0.14976655  1
  Sc  Sc4  1  0.82993404  0.33637551  0.69001707  1
  Sc  Sc5  1  0.33068680  0.32552797  0.19124198  1
  Sc  Sc6  1  0.16093398  0.65314392  0.01578850  1
  Sc  Sc7  1  0.66227802  0.65363268  0.01562729  1
  Sc  Sc8  1  0.16393279  0.67188302  0.51631728  1
  Sc  Sc9  1  0.65201925  0.65450219  0.52085168  1
  Sc  Sc10  1  0.65855723  0.66933624  0.31494053  1
  Sc  Sc11  1  0.15896135  0.64744666  0.81292292  1
  Ga  Ga0  1  0.00248541  0.99158831  0.35278854  1
  Ga  Ga1  1  0.50595592  0.99082411  0.34950829  1
  Ga  Ga2  1  0.00680908  0.02603075  0.84576303  1
  Ga  Ga3  1  0.50292370  0.01745782  0.84803851  1
  Ga  Ga4  1  0.32883987  0.33511458  0.68171063  1
  Ga  Ga5  1  0.82472348  0.31677915  0.18679434  1
  Ga  Ga6  1  0.34135705  0.33279819  0.97985442  1
  Ga  Ga7  1  0.83833380  0.33080667  0.98100608  1
  Ga  Ga8  1  0.35115511  0.35474783  0.48524444  1
  Ga  Ga9  1  0.84126076  0.34863730  0.48093658  1
  Ga  Ga10  1  0.16255347  0.67379425  0.31859985  1
  Ga  Ga11  1  0.65957753  0.65125306  0.81539480  1
  Si  Si0  1  0.14737186  0.99632297  0.25453445  1
  Si  Si1  1  0.65010775  0.00578883  0.25049094  1
  Si  Si2  1  0.15362245  0.29408681  0.74904889  1
  Si  Si3  1  0.64834078  0.29918825  0.75458408  1
  Si  Si4  1  0.47343704  0.33008415  0.58725274  1
  Si  Si5  1  0.01223382  0.36029362  0.91668576  1
  Si  Si6  1  0.51512488  0.36595438  0.91436937  1
  Si  Si7  1  0.01487462  0.66193511  0.41487978  1
  Si  Si8  1  0.51190653  0.66572147  0.41653450  1
  S  S0  1  0.35126498  0.71055413  0.25277307  1
  S  S1  1  0.85418138  0.70603543  0.24884106  1
  S  S2  1  0.00042085  0.28959665  0.25102909  1
  S  S3  1  0.50066443  0.28479519  0.25173830  1
  S  S4  1  0.00027302  0.71707691  0.75210308  1
  S  S5  1  0.50156217  0.71706722  0.75354387  1
  S  S6  1  0.35333338  0.99837952  0.75158579  1
  S  S7  1  0.85131055  0.99253379  0.75302087  1
  S  S8  1  0.97693669  0.33159030  0.58179523  1
  S  S9  1  0.18987458  0.04753964  0.58032583  1
  S  S10  1  0.69374128  0.05063860  0.58011049  1
  S  S11  1  0.33123939  0.62151341  0.58311738  1
  S  S12  1  0.83449211  0.62601964  0.58168209  1
  S  S13  1  0.47642210  0.62172851  0.08175627  1
  S  S14  1  0.97327383  0.61455234  0.08508762  1
  S  S15  1  0.33290955  0.04149536  0.08177715  1
  S  S16  1  0.83337141  0.04498380  0.08354438  1
  S  S17  1  0.19145710  0.33477610  0.08081811  1
  S  S18  1  0.69301520  0.33518644  0.08138789  1
  S  S19  1  0.31726150  0.66917363  0.91730775  1
  S  S20  1  0.81569195  0.66966500  0.91598371  1
  S  S21  1  0.16664686  0.96253342  0.91785036  1
  S  S22  1  0.66612161  0.95597922  0.91593227  1
  S  S23  1  0.31561999  0.96132894  0.41414024  1
  S  S24  1  0.81735412  0.96302855  0.41706420  1
  S  S25  1  0.16495034  0.37590559  0.41409938  1
  S  S26  1  0.66683435  0.37066751  0.41677994  1
  O  O0  1  0.10213044  0.02877277  0.31271525  1
  O  O1  1  0.60790976  0.03702298  0.31083492  1
  O  O2  1  0.40554711  0.79517273  0.30509587  1
  O  O3  1  0.90950087  0.78712969  0.30182511  1
  O  O4  1  0.48571181  0.17500807  0.30476636  1
  O  O5  1  0.98304690  0.17909870  0.30383738  1
  O  O6  1  0.11275018  0.18205097  0.81130627  1
  O  O7  1  0.60755521  0.18405225  0.81500892  1
  O  O8  1  0.48830213  0.80003470  0.80747884  1
  O  O9  1  0.98574205  0.79864369  0.80579680  1
  O  O10  1  0.40800540  0.02365481  0.80530687  1
  O  O11  1  0.90578761  0.01830403  0.80618822  1
  O  O12  1  0.39225646  0.96781810  0.69821012  1
  O  O13  1  0.88958632  0.96148097  0.69895031  1
  O  O14  1  0.08747145  0.19665339  0.69392501  1
  O  O15  1  0.58353430  0.20798503  0.69877334  1
  O  O16  1  0.00694999  0.81373871  0.69742389  1
  O  O17  1  0.51006095  0.81450824  0.69922084  1
  O  O18  1  0.38899276  0.81581847  0.19801430  1
  O  O19  1  0.89331204  0.81591281  0.19543047  1
  O  O20  1  0.00961195  0.20594425  0.19654123  1
  O  O21  1  0.50727709  0.20094677  0.19647293  1
  O  O22  1  0.08363392  0.95726733  0.19659516  1
  O  O23  1  0.58878011  0.97716233  0.19275312  1
  O  O24  1  0.42901416  0.35711080  0.64889047  1
  O  O25  1  0.93671502  0.35317900  0.63602241  1
  O  O26  1  0.24100576  0.13105580  0.63367570  1
  O  O27  1  0.74501483  0.13974978  0.63309172  1
  O  O28  1  0.31514641  0.51321702  0.63696390  1
  O  O29  1  0.82427282  0.52092949  0.63534184  1
  O  O30  1  0.43601442  0.52023125  0.13580235  1
  O  O31  1  0.93315892  0.51229482  0.14039869  1
  O  O32  1  0.32286739  0.12650762  0.13550689  1
  O  O33  1  0.82246400  0.12922744  0.13781348  1
  O  O34  1  0.24271180  0.35129832  0.13378321  1
  O  O35  1  0.74659502  0.35792380  0.13410612  1
  O  O36  1  0.23271824  0.31494809  0.02540442  1
  O  O37  1  0.73340182  0.31245516  0.02562982  1
  O  O38  1  0.42361974  0.53710876  0.02818225  1
  O  O39  1  0.92031450  0.53107398  0.03195530  1
  O  O40  1  0.34362468  0.14795809  0.02786298  1
  O  O41  1  0.84456872  0.15107840  0.02959137  1
  O  O42  1  0.22824924  0.14870285  0.52458195  1
  O  O43  1  0.73472192  0.15590734  0.52470286  1
  O  O44  1  0.33945420  0.53675778  0.52814965  1
  O  O45  1  0.84641986  0.54123076  0.52767652  1
  O  O46  1  0.41507734  0.29569946  0.52871814  1
  O  O47  1  0.92415321  0.30962030  0.52820498  1
  O  O48  1  0.27807565  0.70188159  0.97111007  1
  O  O49  1  0.77799986  0.70338167  0.97028852  1
  O  O50  1  0.07873909  0.44939649  0.97372473  1
  O  O51  1  0.58256909  0.45548211  0.97085759  1
  O  O52  1  0.15750611  0.85794506  0.97167861  1
  O  O53  1  0.65820806  0.85456186  0.96994345  1
  O  O54  1  0.27748205  0.85207887  0.46776360  1
  O  O55  1  0.78000450  0.85486205  0.47014100  1
  O  O56  1  0.15564863  0.46037319  0.46807646  1
  O  O57  1  0.65843685  0.45700730  0.47026203  1
  O  O58  1  0.08376737  0.70742192  0.46955855  1
  O  O59  1  0.57885175  0.70952205  0.47194093  1
  O  O60  1  0.05748048  0.62983506  0.35428203  1
  O  O61  1  0.55869482  0.63646593  0.35854532  1
  O  O62  1  0.25795228  0.87513688  0.36199086  1
  O  O63  1  0.76205542  0.88203960  0.36435846  1
  O  O64  1  0.18053290  0.48662243  0.36062228  1
  O  O65  1  0.68412582  0.47832842  0.36344030  1
  O  O66  1  0.06009723  0.48440782  0.85997978  1
  O  O67  1  0.56008545  0.48849616  0.85615308  1
  O  O68  1  0.18394172  0.88817862  0.86502505  1
  O  O69  1  0.68368724  0.87999761  0.86274194  1
  O  O70  1  0.26082036  0.63813358  0.86567125  1
  O  O71  1  0.75777034  0.63644331  0.86452712  1
  O  O72  1  0.00750583  0.84360225  0.41074708  1
  O  O73  1  0.50655365  0.84869077  0.41018400  1
  O  O74  1  0.40473618  0.99049698  0.40540260  1
  O  O75  1  0.90794031  0.99428945  0.40730526  1
  O  O76  1  0.08192600  0.20177722  0.41025406  1
  O  O77  1  0.58489722  0.19623685  0.41228268  1
  O  O78  1  0.00645709  0.16631946  0.90958607  1
  O  O79  1  0.50669238  0.16874713  0.91000487  1
  O  O80  1  0.08526555  0.97468672  0.91409088  1
  O  O81  1  0.58487685  0.96757347  0.91256626  1
  O  O82  1  0.40663637  0.81856924  0.90959487  1
  O  O83  1  0.90493587  0.81725422  0.90783357  1
  O  O84  1  0.48577001  0.15700773  0.58951920  1
  O  O85  1  0.98441798  0.17002586  0.58476835  1
  O  O86  1  0.09940392  0.02105489  0.58556103  1
  O  O87  1  0.60432893  0.02516186  0.58445628  1
  O  O88  1  0.41195505  0.79284518  0.58844199  1
  O  O89  1  0.91465055  0.80114573  0.58603957  1
  O  O90  1  0.48432901  0.79855056  0.08463466  1
  O  O91  1  0.98164985  0.79132325  0.08816601  1
  O  O92  1  0.41241993  0.02397740  0.08543589  1
  O  O93  1  0.91287848  0.02802447  0.08779398  1
  O  O94  1  0.10208381  0.17718493  0.08498560  1
  O  O95  1  0.60429919  0.17955251  0.08591009  1
  O  O96  1  0.34989010  0.16366045  0.74766390  1
  O  O97  1  0.84638144  0.15580283  0.74657550  1
  O  O98  1  0.25082216  0.31043440  0.74054335  1
  O  O99  1  0.74533977  0.31919956  0.74714868  1
  O  O100  1  0.42572036  0.53535493  0.75125320  1
  O  O101  1  0.92446397  0.53560812  0.74812505  1
  O  O102  1  0.34591173  0.53687899  0.24592153  1
  O  O103  1  0.85382499  0.53482498  0.24157019  1
  O  O104  1  0.42457201  0.31467613  0.24711215  1
  O  O105  1  0.92515863  0.32375733  0.24440803  1
  O  O106  1  0.24341325  0.17016285  0.24622096  1
  O  O107  1  0.74755530  0.18595707  0.24391135  1
  O  O108  1  0.31867743  0.50023671  0.92503256  1
  O  O109  1  0.81649232  0.49956488  0.92388246  1
  O  O110  1  0.41890302  0.34918902  0.92297437  1
  O  O111  1  0.91639635  0.34535817  0.92520033  1
  O  O112  1  0.24202703  0.14791981  0.92508329  1
  O  O113  1  0.74146167  0.14095721  0.92238994  1
  O  O114  1  0.31596901  0.13120603  0.42039072  1
  O  O115  1  0.82035048  0.13708838  0.42365188  1
  O  O116  1  0.23895284  0.34130750  0.41935198  1
  O  O117  1  0.74201173  0.33451487  0.42304604  1
  O  O118  1  0.41437977  0.49214380  0.42292251  1
  O  O119  1  0.91855108  0.48671786  0.42314684  1
  O  O120  1  0.18346185  0.49565151  0.07833038  1
  O  O121  1  0.68585150  0.49631632  0.07808825  1
  O  O122  1  0.06222212  0.63575770  0.07980757  1
  O  O123  1  0.56591128  0.64360247  0.07641201  1
  O  O124  1  0.25328657  0.86533805  0.07748736  1
  O  O125  1  0.75421500  0.86954219  0.07897645  1
  O  O126  1  0.18258044  0.87079890  0.57752565  1
  O  O127  1  0.69038448  0.87943499  0.57688691  1
  O  O128  1  0.25365185  0.64598427  0.57783727  1
  O  O129  1  0.75626242  0.64496560  0.57683268  1
  O  O130  1  0.06618184  0.48810412  0.57625082  1
  O  O131  1  0.57134472  0.50697275  0.58226715  1
  O  O132  1  0.15547387  0.81637552  0.25808179  1
  O  O133  1  0.66265878  0.83395632  0.25400027  1
  O  O134  1  0.26126424  0.68332011  0.25978260  1
  O  O135  1  0.76503321  0.67454853  0.25589720  1
  O  O136  1  0.08196000  0.46383964  0.25493894  1
  O  O137  1  0.58240827  0.45663996  0.25491764  1
  O  O138  1  0.16328460  0.48910616  0.75413879  1
  O  O139  1  0.65623896  0.49580062  0.75781501  1
  O  O140  1  0.08200245  0.70818751  0.75576764  1
  O  O141  1  0.58398173  0.70515913  0.75770358  1
  O  O142  1  0.26468022  0.84790205  0.75893244  1
  O  O143  1  0.76205894  0.84023151  0.76112497  1
loop_
_geom_bond_atom_site_label_1
_geom_bond_atom_site_label_2
_geom_bond_distance
_geom_bond_site_symmetry_2
Na0 O132 2.325493 1_555
Na0 O103 2.344602 1_455
Na0 O105 2.418205 1_455
Na0 O60 2.468886 1_555
Na0 O136 2.526648 1_555
Na0 O22 2.754671 1_555
Na0 O3 2.768991 1_455
Na0 O31 2.857093 1_455
Na1 O96 2.368838 1_555
Na1 O139 2.388399 1_555
Na1 O100 2.442323 1_555
Na1 O24 2.479712 1_555
Na1 O141 2.591184 1_555
Na1 O15 2.645919 1_555
Na1 O67 2.768318 1_555
Na2 O78 2.390257 1_555
Na2 O108 2.425616 1_555
Na2 O112 2.426268 1_555
Na2 O6 2.478716 1_555
Na2 O80 2.522062 1_545
Na2 O70 2.748493 1_555
Na2 O50 2.755723 1_555
Na2 O36 2.855817 1_556
Na3 O79 2.381996 1_555
Na3 O7 2.397067 1_555
Na3 O109 2.404469 1_555
Na3 O113 2.442811 1_555
Na3 O81 2.547571 1_545
Na3 O51 2.733224 1_555
Na3 O71 2.765487 1_555
Na3 O37 2.874262 1_556
Na4 O114 2.362869 1_555
Na4 O72 2.398617 1_545
Na4 O116 2.401042 1_555
Na4 O76 2.583839 1_555
Na4 O0 2.617847 1_555
Na4 O42 2.676740 1_555
Na4 O58 2.701250 1_545
Na4 O62 2.869190 1_545
Na5 O73 2.374742 1_545
Na5 O117 2.430273 1_555
Na5 O115 2.449313 1_555
Na5 O77 2.543449 1_555
Na5 O1 2.627526 1_555
Na5 O59 2.649798 1_545
Na5 O43 2.756418 1_555
Na5 O63 2.817137 1_545
Na6 O72 2.431207 1_655
Na6 O89 2.498564 1_555
Na6 O85 2.571061 1_565
Na6 O75 2.577088 1_555
Na6 O76 2.646857 1_665
Na6 O86 2.647865 1_665
Na7 O84 2.458832 1_555
Na7 O73 2.525971 1_545
Na7 O88 2.582703 1_545
Na7 O77 2.608697 1_555
Na7 O74 2.632535 1_545
Na7 O87 2.686898 1_555
Na8 O78 2.387164 1_665
Na8 O80 2.510092 1_655
Na8 O83 2.532774 1_555
Na8 O93 2.602321 1_566
Na8 O94 2.709251 1_666
Na8 O91 2.718147 1_556
Na9 O79 2.398693 1_565
Na9 O82 2.495688 1_555
Na9 O92 2.536312 1_566
Na9 O81 2.570820 1_555
Na9 O90 2.622157 1_556
Na9 O95 2.740900 1_566
Na10 O98 2.448136 1_555
Na10 O100 2.462227 1_555
Na10 O96 2.479417 1_555
Na10 O110 2.567175 1_555
Na10 O108 2.687990 1_555
Na10 O112 2.688497 1_555
Na11 O111 2.475738 1_555
Na11 O101 2.518060 1_555
Na11 O99 2.526298 1_555
Na11 O97 2.536958 1_555
Na11 O113 2.655477 1_555
Na11 O109 2.661862 1_555
Na12 O118 2.351378 1_555
Na12 O114 2.565913 1_555
Na12 O116 2.566408 1_555
Na12 O104 2.586125 1_555
Na12 O102 2.620521 1_555
Na12 O106 2.628672 1_555
Na13 O119 2.487696 1_555
Na13 O107 2.488141 1_555
Na13 O117 2.535723 1_555
Na13 O115 2.576789 1_555
Na13 O105 2.639935 1_555
Na13 O103 2.677428 1_555
Na14 O132 2.416703 1_555
Na14 O134 2.516920 1_555
Na14 O124 2.598461 1_555
Na14 O136 2.604714 1_555
Na14 O120 2.689579 1_555
Na14 O122 2.773020 1_555
Na15 O133 2.332294 1_555
Na15 O137 2.583122 1_555
Na15 O135 2.628450 1_555
Na15 O125 2.638075 1_555
Na15 O123 2.695837 1_555
Na15 O121 2.766927 1_555
Na16 O138 2.395932 1_555
Na16 O128 2.562117 1_555
Na16 O142 2.650348 1_555
Na16 O140 2.651649 1_555
Na16 O130 2.695415 1_555
Na16 O126 2.736418 1_555
Na17 O131 2.431538 1_555
Na17 O139 2.484028 1_555
Na17 O129 2.580460 1_555
Na17 O141 2.677034 1_555
Na17 O127 2.686806 1_555
Na17 O143 2.735057 1_555
Ga0 O0 1.844540 1_565
Ga0 O72 1.884337 1_555
Ga0 O75 2.070722 1_455
Ga0 O3 2.080721 1_455
Ga0 O76 2.122231 1_565
Ga0 O5 2.154731 1_465
Ga1 O1 1.842294 1_565
Ga1 O73 1.863852 1_555
Ga1 O2 2.020950 1_555
Ga1 O4 2.089541 1_565
Ga1 O74 2.172888 1_555
Ga1 O77 2.174725 1_565
Ga2 O6 1.842739 1_555
Ga2 O78 1.897662 1_555
Ga2 O11 1.968918 1_455
Ga2 O9 2.050167 1_445
Ga2 O80 2.273763 1_545
Ga2 O83 2.290685 1_445
Ga3 O7 1.840450 1_555
Ga3 O79 1.907724 1_555
Ga3 O10 1.962198 1_555
Ga3 O8 2.015139 1_545
Ga3 O82 2.211122 1_545
Ga3 O81 2.254222 1_545
Ga4 O24 1.824893 1_555
Ga4 O98 1.836838 1_555
Ga4 O28 1.981464 1_555
Ga4 O26 2.011046 1_555
Ga4 O96 2.284929 1_555
Ga4 O100 2.350542 1_555
Ga5 O107 1.805203 1_555
Ga5 O33 1.966850 1_555
Ga5 O35 1.993418 1_555
Ga5 O31 2.098448 1_555
Ga5 O103 2.118522 1_555
Ga5 O105 2.182756 1_555
Ga6 O110 1.819481 1_555
Ga6 O40 1.974881 1_556
Ga6 O38 1.985758 1_556
Ga6 O36 2.098416 1_556
Ga6 O112 2.104895 1_555
Ga6 O108 2.114991 1_555
Ga7 O111 1.813829 1_555
Ga7 O41 1.976001 1_556
Ga7 O39 1.999252 1_556
Ga7 O37 2.030073 1_556
Ga7 O109 2.147458 1_555
Ga7 O113 2.155189 1_555
Ga8 O46 1.763421 1_555
Ga8 O118 1.824861 1_555
Ga8 O44 1.963486 1_555
Ga8 O42 2.195654 1_555
Ga8 O114 2.276426 1_555
Ga8 O116 2.441486 1_555
Ga9 O119 1.834780 1_555
Ga9 O45 1.956216 1_555
Ga9 O47 1.980181 1_555
Ga9 O43 2.043774 1_555
Ga9 O115 2.140659 1_555
Ga9 O117 2.147166 1_555
Ga10 O60 1.865342 1_555
Ga10 O132 1.906527 1_555
Ga10 O62 1.993447 1_555
Ga10 O64 2.060672 1_555
Ga10 O134 2.145956 1_555
Ga10 O136 2.214989 1_555
Ga11 O67 1.856060 1_555
Ga11 O139 1.864520 1_555
Ga11 O141 2.089469 1_555
Ga11 O71 2.121664 1_555
Ga11 O143 2.122999 1_555
Ga11 O69 2.124155 1_555
O0 Si0 1.628463 1_545
O1 Si1 1.634809 1_555
O2 S0 1.475385 1_555
O3 S1 1.489960 1_555
O4 S3 1.480318 1_555
O5 S2 1.473746 1_655
O6 Si2 1.660914 1_555
O7 Si3 1.636524 1_555
O8 S5 1.494575 1_555
O9 S4 1.492082 1_655
O10 S6 1.504108 1_545
O11 S7 1.491183 1_545
O12 S6 1.471504 1_555
O12 Sc1 2.141770 1_565
O13 S7 1.479971 1_555
O13 Sc0 2.145717 1_665
O14 Si2 1.635038 1_555
O14 Sc0 1.866887 1_555
O15 Si3 1.627794 1_555
O15 Sc1 1.943092 1_555
O16 S4 1.474398 1_555
O16 Sc0 2.087257 1_565
O17 S5 1.464682 1_555
O17 Sc1 2.200177 1_565
O18 S0 1.488028 1_555
O18 Sc3 2.128285 1_555
O19 S1 1.482871 1_555
O19 Sc2 2.102124 1_665
O20 S2 1.481762 1_555
O20 Sc2 2.081741 1_555
O21 S3 1.482314 1_555
O21 Sc3 2.069887 1_545
O22 Si0 1.654862 1_555
O22 Sc2 1.903207 1_565
O23 Si1 1.640588 1_565
O23 Sc3 1.865374 1_555
O24 Si4 1.665817 1_555
O25 S8 1.469156 1_555
O25 Sc4 2.173377 1_555
O26 S9 1.471084 1_555
O27 S10 1.475324 1_555
O27 Sc4 2.080479 1_555
O28 S11 1.485222 1_555
O29 S12 1.483291 1_555
O29 Sc4 2.085922 1_555
O30 S13 1.468932 1_555
O30 Sc5 2.179109 1_555
O31 S14 1.494393 1_555
O32 S15 1.479550 1_555
O32 Sc5 2.101430 1_555
O33 S16 1.491343 1_555
O34 S17 1.470398 1_555
O34 Sc5 2.128460 1_555
O35 S18 1.478566 1_555
O36 S17 1.495736 1_555
O37 S18 1.503227 1_555
O38 S13 1.488180 1_555
O39 S14 1.479234 1_555
O40 S15 1.493135 1_555
O41 S16 1.490411 1_555
O42 S9 1.494278 1_555
O43 S10 1.508608 1_555
O44 S11 1.490199 1_555
O45 S12 1.495862 1_555
O46 Si4 1.617686 1_555
O47 S8 1.487922 1_555
O48 S19 1.489745 1_555
O48 Sc6 2.129644 1_556
O49 S20 1.488469 1_555
O49 Sc7 2.112793 1_556
O50 Si5 1.661214 1_555
O50 Sc6 1.907595 1_556
O51 Si6 1.659890 1_555
O51 Sc7 1.899535 1_556
O52 S21 1.487765 1_555
O52 Sc6 2.088706 1_556
O53 S22 1.480050 1_555
O53 Sc7 2.081747 1_556
O54 S23 1.482245 1_555
O54 Sc8 2.127184 1_555
O55 S24 1.466410 1_555
O55 Sc9 2.345788 1_555
O56 S25 1.476825 1_555
O56 Sc8 2.094194 1_555
O57 S26 1.471216 1_555
O57 Sc9 2.124372 1_555
O58 Si7 1.644660 1_555
O58 Sc8 1.917811 1_555
O59 Si8 1.638027 1_555
O59 Sc9 1.941418 1_555
O60 Si7 1.646370 1_555
O61 Si8 1.629013 1_555
O61 Sc10 1.898946 1_555
O62 S23 1.499555 1_555
O63 S24 1.484567 1_555
O63 Sc10 2.166846 1_555
O64 S25 1.491507 1_555
O65 S26 1.470015 1_555
O65 Sc10 2.236299 1_555
O66 Si5 1.619084 1_555
O66 Sc11 1.924926 1_555
O67 Si6 1.632286 1_555
O68 S21 1.460968 1_555
O68 Sc11 2.263631 1_555
O69 S22 1.477574 1_555
O70 S19 1.475841 1_555
O70 Sc11 2.198457 1_555
O71 S20 1.485143 1_555
O72 Si7 1.667637 1_555
O73 Si8 1.663438 1_555
O74 S23 1.468409 1_555
O75 S24 1.490257 1_555
O76 S25 1.502498 1_555
O77 S26 1.496152 1_555
O78 Si5 1.663357 1_555
O79 Si6 1.666517 1_555
O80 S21 1.490875 1_555
O81 S22 1.485213 1_555
O82 S19 1.471815 1_555
O83 S20 1.465858 1_555
O84 Si4 1.640672 1_555
O84 Sc1 1.919038 1_555
O85 S8 1.491346 1_555
O85 Sc0 2.155810 1_655
O86 S9 1.492790 1_555
O86 Sc0 2.165975 1_555
O87 S10 1.476458 1_555
O87 Sc1 2.208901 1_555
O88 S11 1.473102 1_555
O88 Sc1 2.273119 1_565
O89 S12 1.485412 1_555
O89 Sc0 2.244074 1_665
O90 S13 1.490519 1_555
O90 Sc3 2.158650 1_555
O91 S14 1.486772 1_555
O91 Sc2 2.156134 1_665
O92 S15 1.484432 1_555
O92 Sc3 2.284325 1_545
O93 S16 1.482507 1_555
O93 Sc2 2.284244 1_655
O94 S17 1.492598 1_555
O94 Sc2 2.181630 1_555
O95 S18 1.479323 1_555
O95 Sc3 2.231444 1_545
O96 S6 1.486383 1_545
O97 S7 1.487487 1_545
O97 Sc4 2.172904 1_555
O98 Si2 1.652303 1_555
O99 Si3 1.632864 1_555
O99 Sc4 1.910381 1_555
O100 S5 1.486977 1_555
O101 S4 1.487434 1_655
O101 Sc4 2.165019 1_555
O102 S0 1.488952 1_555
O102 Sc5 2.132232 1_555
O103 S1 1.509610 1_555
O104 S3 1.491482 1_555
O104 Sc5 2.129895 1_555
O105 S2 1.505115 1_655
O106 Si0 1.627440 1_545
O106 Sc5 1.912510 1_555
O107 Si1 1.661556 1_555
O108 S19 1.507830 1_555
O109 S20 1.512987 1_555
O110 Si6 1.633950 1_555
O111 Si5 1.633932 1_655
O112 S21 1.513132 1_545
O113 S22 1.508714 1_545
O114 S23 1.495756 1_545
O115 S24 1.510683 1_545
O116 S25 1.482766 1_555
O117 S26 1.514027 1_555
O118 Si8 1.637391 1_555
O119 Si7 1.635276 1_655
O120 S17 1.489917 1_555
O120 Sc6 2.156387 1_555
O121 S18 1.484793 1_555
O121 Sc7 2.163478 1_555
O122 S14 1.484314 1_455
O122 Sc6 2.196909 1_555
O123 S13 1.491506 1_555
O123 Sc7 2.140246 1_555
O124 S15 1.486401 1_565
O124 Sc6 2.252875 1_555
O125 S16 1.479785 1_565
O125 Sc7 2.289416 1_555
O126 S9 1.494353 1_565
O126 Sc8 2.121822 1_555
O127 S10 1.477326 1_565
O127 Sc9 2.154162 1_555
O128 S11 1.489612 1_555
O128 Sc8 2.210665 1_555
O129 S12 1.471305 1_555
O129 Sc9 2.275203 1_555
O130 S8 1.489549 1_455
O130 Sc8 2.147241 1_555
O131 Si4 1.651103 1_555
O131 Sc9 1.941717 1_555
O132 Si0 1.659029 1_555
O133 Si1 1.633372 1_565
O133 Sc10 1.977620 1_555
O134 S0 1.485525 1_555
O135 S1 1.457538 1_555
O135 Sc10 2.271995 1_555
O136 S2 1.491161 1_555
O137 S3 1.480404 1_555
O137 Sc10 2.158093 1_555
O138 Si2 1.639282 1_555
O138 Sc11 1.949798 1_555
O139 Si3 1.664116 1_555
O140 S4 1.481260 1_555
O140 Sc11 2.133614 1_555
O141 S5 1.508520 1_555
O142 S6 1.466549 1_555
O142 Sc11 2.182664 1_555
O143 S7 1.480898 1_555
