# generated using pymatgen
data_K2NaInAs2
_symmetry_space_group_name_H-M   'P 1'
_cell_length_a   9.03928152
_cell_length_b   9.03928152
_cell_length_c   9.03928152
_cell_angle_alpha   136.03077450
_cell_angle_beta   135.89800290
_cell_angle_gamma   64.03545716
_symmetry_Int_Tables_number   1
_chemical_formula_structural   K2NaInAs2
_chemical_formula_sum   'K4 Na2 In2 As4'
_cell_volume   352.05929036
_cell_formula_units_Z   2
loop_
 _symmetry_equiv_pos_site_id
 _symmetry_equiv_pos_as_xyz
  1  'x, y, z'
loop_
 _atom_site_type_symbol
 _atom_site_label
 _atom_site_symmetry_multiplicity
 _atom_site_fract_x
 _atom_site_fract_y
 _atom_site_fract_z
 _atom_site_occupancy
  K  K0  1  0.67537533  0.41508579  0.73971046  1
  K  K1  1  0.82462467  0.06433512  0.23971046  1
  K  K2  1  0.17537533  0.93566488  0.76028954  1
  K  K3  1  0.32462467  0.58491421  0.26028954  1
  Na  Na0  1  0.75000000  -0.00000000  0.75000000  1
  Na  Na1  1  0.25000000  -0.00000000  0.25000000  1
  In  In0  1  0.25000000  0.50000000  0.75000000  1
  In  In1  1  0.75000000  0.50000000  0.25000000  1
  As  As0  1  0.39889399  0.18037370  0.78147972  1
  As  As1  1  0.60110601  0.81962630  0.21852028  1
  As  As2  1  0.10110601  0.38258573  0.28147972  1
  As  As3  1  0.89889399  0.61741427  0.71852028  1
loop_
_geom_bond_atom_site_label_1
_geom_bond_atom_site_label_2
_geom_bond_distance
_geom_bond_site_symmetry_2
K0 Na0 3.569003 1_555
K0 Na1 3.569003 1_555
K1 Na1 3.569003 1_655
K1 Na0 3.569003 1_554
K2 Na0 3.569003 1_465
K2 Na1 3.569003 1_566
K3 Na1 3.569003 1_565
K3 Na0 3.569003 1_565
In0 K3 3.634430 1_556
In0 K0 3.634430 1_555
In0 K1 3.634430 1_455
In0 K2 3.634430 1_555
In1 K0 3.634430 1_554
In1 K3 3.634430 1_555
In1 K2 3.634430 1_655
In1 K1 3.634430 1_555
As0 In1 2.732813 1_556
As0 In0 2.732813 1_555
As0 Na0 2.984988 1_555
As0 Na1 2.984988 1_555
As0 K2 3.429212 1_545
As0 K3 3.434670 1_556
As0 K1 3.590641 1_556
As0 K1 3.590641 1_455
As0 K3 3.706500 1_545
As1 In0 2.732813 1_554
As1 In1 2.732813 1_555
As1 Na1 2.984988 1_565
As1 Na0 2.984988 1_565
As1 K1 3.429212 1_565
As1 K0 3.434670 1_554
As1 K2 3.590641 1_655
As1 K2 3.590641 1_554
As1 K0 3.706500 1_565
As2 In1 2.732813 1_455
As2 In0 2.732813 1_555
As2 Na1 2.984988 1_555
As2 Na0 2.984988 1_454
As2 K3 3.429212 1_555
As2 K2 3.434670 1_555
As2 K0 3.590641 1_454
As2 K0 3.590641 1_555
As2 K2 3.706500 1_544
As3 In0 2.732813 1_655
As3 In1 2.732813 1_555
As3 Na0 2.984988 1_565
As3 Na1 2.984988 1_666
As3 K0 3.429212 1_555
As3 K1 3.434670 1_555
As3 K3 3.590641 1_555
As3 K3 3.590641 1_656
As3 K1 3.706500 1_566
