# generated using pymatgen
data_MgHg4(WO4)2
_symmetry_space_group_name_H-M   'P 1'
_cell_length_a   5.27037067
_cell_length_b   7.71587213
_cell_length_c   9.22447704
_cell_angle_alpha   110.77869652
_cell_angle_beta   117.08840246
_cell_angle_gamma   92.79951091
_symmetry_Int_Tables_number   1
_chemical_formula_structural   MgHg4(WO4)2
_chemical_formula_sum   'Mg1 Hg4 W2 O8'
_cell_volume   302.10935926
_cell_formula_units_Z   1
loop_
 _symmetry_equiv_pos_site_id
 _symmetry_equiv_pos_as_xyz
  1  'x, y, z'
loop_
 _atom_site_type_symbol
 _atom_site_label
 _atom_site_symmetry_multiplicity
 _atom_site_fract_x
 _atom_site_fract_y
 _atom_site_fract_z
 _atom_site_occupancy
  Mg  Mg0  1  0.91647140  0.11766415  0.52146906  1
  Hg  Hg0  1  0.45597232  0.76479351  0.55439478  1
  Hg  Hg1  1  0.16273444  0.54547504  0.20950162  1
  Hg  Hg2  1  0.53598767  0.28048754  0.63414923  1
  Hg  Hg3  1  0.12699175  0.51136294  0.71205982  1
  W  W0  1  0.21097176  0.08490302  0.93434411  1
  W  W1  1  0.79259449  0.92163524  0.06023803  1
  O  O0  1  0.10084178  0.01286241  0.69237525  1
  O  O1  1  0.12534966  0.32162182  0.97044988  1
  O  O2  1  0.85086353  0.98903783  0.28723428  1
  O  O3  1  0.84613510  0.68219642  0.01343942  1
  O  O4  1  0.79074664  0.91643702  0.82951074  1
  O  O5  1  0.62134901  0.17487585  0.05948476  1
  O  O6  1  0.36176858  0.83298066  0.91701794  1
  O  O7  1  0.17622187  0.07580956  0.14004510  1
loop_
_geom_bond_atom_site_label_1
_geom_bond_atom_site_label_2
_geom_bond_distance
_geom_bond_site_symmetry_2
Mg0 O2 1.880877 1_545
Mg0 O0 1.915628 1_655
Hg0 O4 2.129813 1_555
Hg1 O1 2.180228 1_554
Hg1 O3 2.438293 1_455
Hg2 Mg0 2.810295 1_555
Hg2 Mg0 2.983532 1_455
Hg3 O6 2.346132 1_555
O0 W0 1.880470 1_555
O1 W0 1.853755 1_555
O2 W1 1.837225 1_555
O3 W1 1.809739 1_555
O4 W0 2.099108 1_665
O4 W1 2.109987 1_556
O5 W0 1.871707 1_554
O5 W1 2.192897 1_545
O6 W1 1.960632 1_556
O6 W0 2.117003 1_565
O7 W1 1.957834 1_445
O7 W0 2.012116 1_554
