# generated using pymatgen
data_Ca2NiOsO6
_symmetry_space_group_name_H-M   'P 1'
_cell_length_a   5.40784820
_cell_length_b   5.61523934
_cell_length_c   7.70875249
_cell_angle_alpha   90.03181934
_cell_angle_beta   90.29463681
_cell_angle_gamma   89.97604025
_symmetry_Int_Tables_number   1
_chemical_formula_structural   Ca2NiOsO6
_chemical_formula_sum   'Ca4 Ni2 Os2 O12'
_cell_volume   234.08361659
_cell_formula_units_Z   2
loop_
 _symmetry_equiv_pos_site_id
 _symmetry_equiv_pos_as_xyz
  1  'x, y, z'
loop_
 _atom_site_type_symbol
 _atom_site_label
 _atom_site_symmetry_multiplicity
 _atom_site_fract_x
 _atom_site_fract_y
 _atom_site_fract_z
 _atom_site_occupancy
  Ca  Ca0  1  0.98530200  0.05885800  0.25136300  1
  Ca  Ca1  1  0.51475400  0.55904600  0.24881600  1
  Ca  Ca2  1  0.01469700  0.94114100  0.74863800  1
  Ca  Ca3  1  0.48524500  0.44095500  0.75118300  1
  Ni  Ni0  1  0.50000000  0.00000000  0.00000000  1
  Ni  Ni1  1  0.00000000  0.50000000  0.50000000  1
  Os  Os0  1  0.49999900  0.99999900  0.50000000  1
  Os  Os1  1  0.99999900  0.50000100  0.99999900  1
  O  O0  1  0.68630300  0.28869200  0.44871500  1
  O  O1  1  0.81374300  0.78860000  0.05126300  1
  O  O2  1  0.31369700  0.71130700  0.55128500  1
  O  O3  1  0.18625600  0.21140100  0.94873600  1
  O  O4  1  0.20836400  0.19233800  0.54822800  1
  O  O5  1  0.29147400  0.69224200  0.95181000  1
  O  O6  1  0.79163500  0.80766100  0.45177200  1
  O  O7  1  0.70852500  0.30775900  0.04818900  1
  O  O8  1  0.09566200  0.46952000  0.24139700  1
  O  O9  1  0.40418800  0.96949300  0.25841300  1
  O  O10  1  0.59581200  0.03050700  0.74158700  1
  O  O11  1  0.90433800  0.53048000  0.75860300  1
loop_
_geom_bond_atom_site_label_1
_geom_bond_atom_site_label_2
_geom_bond_distance
_geom_bond_site_symmetry_2
Ca0 O9 2.320352 1_645
Ca0 O6 2.343823 1_545
Ca0 O1 2.350953 1_545
Ca0 O8 2.383565 1_655
Ca0 O0 2.572143 1_555
Ca0 O7 2.573581 1_555
Ca0 O4 2.687827 1_655
Ca0 O3 2.717732 1_654
Ca1 O8 2.322086 1_555
Ca1 O7 2.343931 1_555
Ca1 O0 2.350871 1_555
Ca1 O9 2.382018 1_555
Ca1 O6 2.571753 1_555
Ca1 O1 2.573768 1_555
Ca1 O5 2.689256 1_554
Ca1 O2 2.715308 1_555
Ca2 O10 2.320348 1_465
Ca2 O4 2.343828 1_565
Ca2 O3 2.350950 1_565
Ca2 O11 2.383558 1_455
Ca2 O2 2.572151 1_555
Ca2 O5 2.573566 1_555
Ca2 O6 2.687833 1_455
Ca2 O1 2.717716 1_456
Ca3 O11 2.322090 1_555
Ca3 O5 2.343931 1_555
Ca3 O2 2.350857 1_555
Ca3 O10 2.382025 1_555
Ca3 O4 2.571754 1_555
Ca3 O3 2.573768 1_555
Ca3 O7 2.689256 1_556
Ca3 O0 2.715307 1_555
Ni0 O9 2.068118 1_545
Ni0 O10 2.068118 1_554
Ni0 O5 2.095880 1_544
Ni0 O7 2.095881 1_555
Ni0 O1 2.106163 1_545
Ni0 O3 2.106172 1_554
Ni1 O8 2.069092 1_555
Ni1 O11 2.069092 1_455
Ni1 O6 2.094578 1_455
Ni1 O4 2.094579 1_555
Ni1 O2 2.106252 1_555
Ni1 O0 2.106255 1_455
O0 Os0 1.950753 1_545
O1 Os1 1.949081 1_554
O2 Os0 1.950742 1_555
O3 Os1 1.949087 1_455
O4 Os0 1.948369 1_545
O5 Os1 1.948264 1_455
O6 Os0 1.948371 1_555
O7 Os1 1.948264 1_554
O8 Os1 1.936536 1_454
O9 Os0 1.938011 1_555
O10 Os0 1.938015 1_545
O11 Os1 1.936517 1_555
