# generated using pymatgen
data_Cd4OF6
_symmetry_space_group_name_H-M   'P 1'
_cell_length_a   7.52515639
_cell_length_b   7.52515639
_cell_length_c   5.42295958
_cell_angle_alpha   90.00000000
_cell_angle_beta   90.00000000
_cell_angle_gamma   90.00000000
_symmetry_Int_Tables_number   1
_chemical_formula_structural   Cd4OF6
_chemical_formula_sum   'Cd8 O2 F12'
_cell_volume   307.09123955
_cell_formula_units_Z   2
loop_
 _symmetry_equiv_pos_site_id
 _symmetry_equiv_pos_as_xyz
  1  'x, y, z'
loop_
 _atom_site_type_symbol
 _atom_site_label
 _atom_site_symmetry_multiplicity
 _atom_site_fract_x
 _atom_site_fract_y
 _atom_site_fract_z
 _atom_site_occupancy
  Cd  Cd0  1  0.50000000  0.24793695  0.19725462  1
  Cd  Cd1  1  0.50000000  0.75206305  0.19725462  1
  Cd  Cd2  1  0.25206305  0.00000000  0.69725462  1
  Cd  Cd3  1  0.74793695  0.00000000  0.69725462  1
  Cd  Cd4  1  0.24793695  0.50000000  0.80274538  1
  Cd  Cd5  1  -0.00000000  0.25206305  0.30274538  1
  Cd  Cd6  1  -0.00000000  0.74793695  0.30274538  1
  Cd  Cd7  1  0.75206305  0.50000000  0.80274538  1
  O  O0  1  0.50000000  0.50000000  -0.00000000  1
  O  O1  1  -0.00000000  0.00000000  0.50000000  1
  F  F0  1  0.50000000  0.00000000  0.92995039  1
  F  F1  1  0.50000000  0.00000000  0.42995039  1
  F  F2  1  -0.00000000  0.50000000  0.57004961  1
  F  F3  1  -0.00000000  0.50000000  0.07004961  1
  F  F4  1  0.78748524  0.78748524  -0.00000000  1
  F  F5  1  0.28748524  0.71251476  0.50000000  1
  F  F6  1  0.28748524  0.28748524  0.50000000  1
  F  F7  1  0.78748524  0.21251476  -0.00000000  1
  F  F8  1  0.21251476  0.78748524  -0.00000000  1
  F  F9  1  0.71251476  0.71251476  0.50000000  1
  F  F10  1  0.21251476  0.21251476  -0.00000000  1
  F  F11  1  0.71251476  0.28748524  0.50000000  1
loop_
_geom_bond_atom_site_label_1
_geom_bond_atom_site_label_2
_geom_bond_distance
_geom_bond_site_symmetry_2
Cd0 O0 2.177652 1_555
Cd0 F1 2.252436 1_555
Cd0 F6 2.311160 1_555
Cd0 F11 2.311160 1_555
Cd0 F0 2.362702 1_554
Cd0 F10 2.428064 1_555
Cd0 F7 2.428064 1_555
Cd1 O0 2.177652 1_555
Cd1 F1 2.252436 1_565
Cd1 F5 2.311160 1_555
Cd1 F9 2.311160 1_555
Cd1 F0 2.362702 1_564
Cd1 F4 2.428064 1_555
Cd1 F8 2.428064 1_555
Cd2 O1 2.177652 1_555
Cd2 F0 2.252436 1_555
Cd2 F8 2.311160 1_546
Cd2 F10 2.311160 1_556
Cd2 F1 2.362702 1_555
Cd2 F5 2.428064 1_545
Cd2 F6 2.428064 1_555
Cd3 O1 2.177652 1_655
Cd3 F0 2.252436 1_555
Cd3 F7 2.311160 1_556
Cd3 F4 2.311160 1_546
Cd3 F1 2.362702 1_555
Cd3 F9 2.428064 1_545
Cd3 F11 2.428064 1_555
Cd4 O0 2.177652 1_556
Cd4 F2 2.252436 1_555
Cd4 F6 2.311160 1_555
Cd4 F5 2.311160 1_555
Cd4 F3 2.362702 1_556
Cd4 F10 2.428064 1_556
Cd4 F8 2.428064 1_556
Cd5 O1 2.177652 1_555
Cd5 F3 2.252436 1_555
Cd5 F10 2.311160 1_555
Cd5 F7 2.311160 1_455
Cd5 F2 2.362702 1_555
Cd5 F11 2.428064 1_455
Cd5 F6 2.428064 1_555
Cd6 O1 2.177652 1_565
Cd6 F3 2.252436 1_555
Cd6 F8 2.311160 1_555
Cd6 F4 2.311160 1_455
Cd6 F2 2.362702 1_555
Cd6 F9 2.428064 1_455
Cd6 F5 2.428064 1_555
Cd7 O0 2.177652 1_556
Cd7 F2 2.252436 1_655
Cd7 F11 2.311160 1_555
Cd7 F9 2.311160 1_555
Cd7 F3 2.362702 1_656
Cd7 F4 2.428064 1_556
Cd7 F7 2.428064 1_556
