# generated using pymatgen
data_Na2CaAlP(SO6)2
_symmetry_space_group_name_H-M   'P 1'
_cell_length_a   8.96307150
_cell_length_b   8.96193419
_cell_length_c   22.20710210
_cell_angle_alpha   91.06486289
_cell_angle_beta   90.00000000
_cell_angle_gamma   120.00419807
_symmetry_Int_Tables_number   1
_chemical_formula_structural   Na2CaAlP(SO6)2
_chemical_formula_sum   'Na12 Ca6 Al6 P6 S12 O72'
_cell_volume   1544.41044674
_cell_formula_units_Z   6
loop_
 _symmetry_equiv_pos_site_id
 _symmetry_equiv_pos_as_xyz
  1  'x, y, z'
loop_
 _atom_site_type_symbol
 _atom_site_label
 _atom_site_symmetry_multiplicity
 _atom_site_fract_x
 _atom_site_fract_y
 _atom_site_fract_z
 _atom_site_occupancy
  Na  Na0  1  0.99649657  0.63987158  0.24371152  1
  Na  Na1  1  0.64337501  0.63987158  0.74371152  1
  Na  Na2  1  0.65568752  0.96566139  0.57952726  1
  Na  Na3  1  0.30997488  0.96566139  0.07952726  1
  Na  Na4  1  0.69251554  0.01990908  0.91157778  1
  Na  Na5  1  0.32739254  0.01990908  0.41157778  1
  Na  Na6  1  0.98281430  0.99136070  0.50082630  1
  Na  Na7  1  0.00854640  0.99136070  0.00082630  1
  Na  Na8  1  0.65794283  0.31227156  0.83351887  1
  Na  Na9  1  0.65432973  0.31227156  0.33351887  1
  Na  Na10  1  0.33328067  0.65264010  0.16606913  1
  Na  Na11  1  0.31935842  0.65264010  0.66606913  1
  Ca  Ca0  1  0.99345650  0.00758303  0.35389265  1
  Ca  Ca1  1  0.01412653  0.00758303  0.85389265  1
  Ca  Ca2  1  0.66393591  0.32558518  0.68619793  1
  Ca  Ca3  1  0.66165027  0.32558518  0.18619793  1
  Ca  Ca4  1  0.32533349  0.66081975  0.01941557  1
  Ca  Ca5  1  0.33548526  0.66081975  0.51941557  1
  Al  Al0  1  0.98780335  0.98257365  0.65101070  1
  Al  Al1  1  0.99477030  0.98257365  0.15101070  1
  Al  Al2  1  0.67068086  0.35054653  0.98129386  1
  Al  Al3  1  0.67986667  0.35054653  0.48129386  1
  Al  Al4  1  0.35514071  0.69577539  0.31494505  1
  Al  Al5  1  0.34063368  0.69577539  0.81494505  1
  P  P0  1  0.28828971  0.98235651  0.25298373  1
  P  P1  1  0.69406680  0.98235651  0.75298373  1
  P  P2  1  0.68697409  0.63518208  0.58647942  1
  P  P3  1  0.94820899  0.63518208  0.08647942  1
  P  P4  1  0.35668966  0.98062749  0.92225742  1
  P  P5  1  0.62393682  0.98062749  0.42225742  1
  S  S0  1  0.69402766  0.71572426  0.24956126  1
  S  S1  1  0.02361974  0.30406713  0.24771835  1
  S  S2  1  0.28044740  0.30406713  0.74771835  1
  S  S3  1  0.02169660  0.71572426  0.74956126  1
  S  S4  1  0.95286165  0.31666346  0.58264304  1
  S  S5  1  0.35206638  0.04402316  0.58085313  1
  S  S6  1  0.69195778  0.04402316  0.08085313  1
  S  S7  1  0.36380281  0.31666346  0.08264304  1
  S  S8  1  0.61970933  0.64823818  0.91479036  1
  S  S9  1  0.02736948  0.38567087  0.91405753  1
  S  S10  1  0.35830039  0.38567087  0.41405753  1
  S  S11  1  0.02852786  0.64823818  0.41479036  1
  O  O0  1  0.20931209  0.99780790  0.31125835  1
  O  O1  1  0.79584552  0.78841036  0.30427028  1
  O  O2  1  0.99624816  0.21102927  0.30318649  1
  O  O3  1  0.21478111  0.21102927  0.80318649  1
  O  O4  1  0.99256484  0.78841036  0.80427028  1
  O  O5  1  0.78849581  0.99780790  0.81125835  1
  O  O6  1  0.79200004  0.95572299  0.69699795  1
  O  O7  1  0.17071329  0.20182807  0.69437257  1
  O  O8  1  0.04200883  0.82514602  0.69614291  1
  O  O9  1  0.78313719  0.82514602  0.19614291  1
  O  O10  1  0.03111478  0.20182807  0.19437257  1
  O  O11  1  0.16372295  0.95572299  0.19699795  1
  O  O12  1  0.88154308  0.33975425  0.63837081  1
  O  O13  1  0.46465289  0.12063127  0.63351668  1
  O  O14  1  0.66609858  0.54685060  0.64578077  1
  O  O15  1  0.88075302  0.54685060  0.14578077  1
  O  O16  1  0.65597938  0.12063127  0.13351668  1
  O  O17  1  0.45821217  0.33975425  0.13837081  1
  O  O18  1  0.45817734  0.29540813  0.02935863  1
  O  O19  1  0.82672754  0.52823810  0.03171980  1
  O  O20  1  0.70878267  0.14551132  0.02563252  1
  O  O21  1  0.43672966  0.14551132  0.52563252  1
  O  O22  1  0.70151156  0.52823810  0.53171980  1
  O  O23  1  0.83723178  0.29540813  0.52935863  1
  O  O24  1  0.54037939  0.67589030  0.96765053  1
  O  O25  1  0.12231317  0.45167177  0.97016235  1
  O  O26  1  0.33809495  0.88678907  0.98014278  1
  O  O27  1  0.54869312  0.88678907  0.48014278  1
  O  O28  1  0.32935760  0.45167177  0.47016235  1
  O  O29  1  0.13550991  0.67589030  0.46765053  1
  O  O30  1  0.11165009  0.62699346  0.35855431  1
  O  O31  1  0.49515946  0.87621445  0.36708500  1
  O  O32  1  0.36782787  0.49175976  0.36129748  1
  O  O33  1  0.12393088  0.49175976  0.86129748  1
  O  O34  1  0.38105399  0.87621445  0.86708500  1
  O  O35  1  0.51534236  0.62699346  0.85855431  1
  O  O36  1  0.00515088  0.79981436  0.41089779  1
  O  O37  1  0.80457523  0.01091045  0.41480604  1
  O  O38  1  0.21744857  0.20466740  0.40808426  1
  O  O39  1  0.98721883  0.20466740  0.90808426  1
  O  O40  1  0.20633521  0.01091045  0.91480604  1
  O  O41  1  0.79466349  0.79981436  0.91089779  1
  O  O42  1  0.95465429  0.14873827  0.58544347  1
  O  O43  1  0.18378179  0.03892743  0.58935948  1
  O  O44  1  0.85711087  0.82007822  0.59045805  1
  O  O45  1  0.96296734  0.82007822  0.09045805  1
  O  O46  1  0.85514565  0.03892743  0.08935948  1
  O  O47  1  0.19408398  0.14873827  0.08544347  1
  O  O48  1  0.66184124  0.13204752  0.74695625  1
  O  O49  1  0.46059063  0.34060073  0.74218547  1
  O  O50  1  0.87342586  0.54131709  0.74235282  1
  O  O51  1  0.66789223  0.54131709  0.24235282  1
  O  O52  1  0.88001110  0.34060073  0.24218547  1
  O  O53  1  0.47020728  0.13204752  0.24695625  1
  O  O54  1  0.63138548  0.48752695  0.92098435  1
  O  O55  1  0.85577213  0.37970091  0.91841037  1
  O  O56  1  0.53333776  0.15947739  0.92605141  1
  O  O57  1  0.62614063  0.15947739  0.42605141  1
  O  O58  1  0.52392978  0.37970091  0.41841037  1
  O  O59  1  0.85614248  0.48752695  0.42098435  1
  O  O60  1  0.33347354  0.46095122  0.07667072  1
  O  O61  1  0.13439235  0.67193726  0.07956698  1
  O  O62  1  0.54376772  0.86655795  0.07586294  1
  O  O63  1  0.32278923  0.86655795  0.57586294  1
  O  O64  1  0.53754391  0.67193726  0.57956698  1
  O  O65  1  0.12747668  0.46095122  0.57667072  1
  O  O66  1  0.29356330  0.80616853  0.25631425  1
  O  O67  1  0.52249787  0.70719595  0.25555373  1
  O  O68  1  0.18780938  0.47527420  0.25121055  1
  O  O69  1  0.28746382  0.47527420  0.75121055  1
  O  O70  1  0.18469708  0.70719595  0.75555373  1
  O  O71  1  0.51260423  0.80616853  0.75631425  1
loop_
_geom_bond_atom_site_label_1
_geom_bond_atom_site_label_2
_geom_bond_distance
_geom_bond_site_symmetry_2
Na0 O66 2.324825 1_655
Na0 O52 2.341073 1_555
Na0 O15 2.359754 1_555
Na0 O51 2.617845 1_555
Na0 O11 2.683490 1_655
Na0 O68 2.771814 1_655
Na0 O30 2.777201 1_655
Na1 O71 2.324832 1_555
Na1 O49 2.341072 1_555
Na1 O14 2.359757 1_555
Na1 O50 2.617853 1_555
Na1 O6 2.683490 1_555
Na1 O69 2.771822 1_555
Na1 O35 2.777205 1_555
Na2 O64 2.294080 1_555
Na2 O42 2.341936 1_565
Na2 O27 2.356779 1_555
Na2 O63 2.654309 1_555
Na2 O44 2.718106 1_555
Na2 O23 2.816936 1_565
Na2 O6 2.902305 1_555
Na2 O13 2.935063 1_565
Na3 O61 2.294082 1_555
Na3 O47 2.341943 1_565
Na3 O26 2.356774 1_554
Na3 O62 2.654292 1_555
Na3 O45 2.718115 1_455
Na3 O18 2.816936 1_565
Na3 O11 2.902309 1_555
Na3 O16 2.935063 1_565
Na4 O39 2.314182 1_555
Na4 O56 2.339483 1_555
Na4 O5 2.428258 1_545
Na4 O41 2.556203 1_545
Na4 O34 2.604836 1_545
Na4 O20 2.726429 1_556
Na4 O55 2.797166 1_555
Na4 O24 2.975463 1_545
Na5 O38 2.314175 1_555
Na5 O57 2.339499 1_555
Na5 O0 2.428254 1_545
Na5 O36 2.556196 1_545
Na5 O31 2.604836 1_545
Na5 O21 2.726431 1_555
Na5 O58 2.797167 1_555
Na5 O29 2.975463 1_545
Na6 O42 2.416920 1_565
Na6 O44 2.443668 1_555
Na6 O43 2.548068 1_665
Na6 O37 2.554290 1_565
Na6 O36 2.681678 1_655
Na6 O38 2.905924 1_665
Na7 O47 2.416920 1_565
Na7 O45 2.443668 1_455
Na7 O46 2.548068 1_465
Na7 O40 2.554290 1_564
Na7 O41 2.681678 1_454
Na7 O39 2.905924 1_464
Na8 O56 2.433105 1_555
Na8 O55 2.439104 1_555
Na8 O48 2.499249 1_555
Na8 O54 2.560624 1_555
Na8 O49 2.788456 1_555
Na8 O50 2.869139 1_555
Na9 O57 2.433105 1_555
Na9 O58 2.439104 1_555
Na9 O53 2.499249 1_555
Na9 O59 2.560624 1_555
Na9 O52 2.788456 1_555
Na9 O51 2.869139 1_555
Na10 O68 2.416717 1_555
Na10 O67 2.489753 1_555
Na10 O66 2.534480 1_555
Na10 O60 2.601679 1_555
Na10 O61 2.686731 1_555
Na10 O62 2.788001 1_555
Na11 O69 2.416717 1_555
Na11 O70 2.489753 1_555
Na11 O71 2.534480 1_555
Na11 O65 2.601679 1_555
Na11 O64 2.686731 1_555
Na11 O63 2.788001 1_555
Ca0 O2 2.150253 1_555
Ca0 O1 2.156318 1_545
Ca0 O37 2.178487 1_555
Ca0 O0 2.194010 1_645
Ca0 O38 2.230050 1_655
Ca0 O36 2.315907 1_645
Ca1 O3 2.150253 1_555
Ca1 O4 2.156318 1_445
Ca1 O40 2.178487 1_555
Ca1 O5 2.194010 1_445
Ca1 O39 2.230050 1_455
Ca1 O41 2.315907 1_445
Ca2 O13 2.138171 1_555
Ca2 O12 2.169255 1_555
Ca2 O14 2.183079 1_555
Ca2 O48 2.209905 1_555
Ca2 O50 2.257959 1_555
Ca2 O49 2.263823 1_555
Ca3 O16 2.138171 1_555
Ca3 O17 2.169255 1_555
Ca3 O15 2.183079 1_555
Ca3 O53 2.209905 1_555
Ca3 O51 2.257959 1_555
Ca3 O52 2.263823 1_555
Ca4 O25 2.129192 1_554
Ca4 O26 2.169977 1_554
Ca4 O24 2.190952 1_554
Ca4 O61 2.211064 1_555
Ca4 O60 2.246273 1_555
Ca4 O62 2.260061 1_555
Ca5 O28 2.129192 1_555
Ca5 O27 2.169977 1_555
Ca5 O29 2.190952 1_555
Ca5 O64 2.211064 1_555
Ca5 O65 2.246273 1_555
Ca5 O63 2.260061 1_555
Al0 O44 1.876766 1_555
Al0 O6 1.941039 1_555
Al0 O8 1.992281 1_655
Al0 O7 2.045452 1_665
Al0 O43 2.086497 1_665
Al0 O42 2.224651 1_565
Al1 O45 1.876766 1_555
Al1 O11 1.941039 1_655
Al1 O9 1.992281 1_555
Al1 O10 2.045452 1_665
Al1 O46 2.086497 1_565
Al1 O47 2.224651 1_665
Al2 O19 1.858033 1_556
Al2 O56 1.940680 1_555
Al2 O54 1.979479 1_555
Al2 O18 2.022274 1_556
Al2 O55 2.085821 1_555
Al2 O20 2.270999 1_556
Al3 O22 1.858033 1_555
Al3 O57 1.940680 1_555
Al3 O59 1.979479 1_555
Al3 O23 2.022274 1_555
Al3 O58 2.085821 1_555
Al3 O21 2.270999 1_555
Al4 O31 1.852396 1_555
Al4 O66 1.890144 1_555
Al4 O67 1.962541 1_555
Al4 O32 2.166414 1_555
Al4 O30 2.181179 1_555
Al4 O68 2.256007 1_555
Al5 O34 1.852396 1_555
Al5 O71 1.890144 1_555
Al5 O70 1.962541 1_555
Al5 O33 2.166414 1_555
Al5 O35 2.181179 1_555
Al5 O69 2.256007 1_555
O0 P0 1.512074 1_555
O1 S0 1.452328 1_555
O2 S1 1.451309 1_655
O3 S2 1.451309 1_555
O4 S3 1.452328 1_655
O5 P1 1.512074 1_555
O6 P1 1.603664 1_555
O7 S2 1.506210 1_555
O8 S3 1.505554 1_555
O9 S0 1.505554 1_555
O10 S1 1.506210 1_555
O11 P0 1.603664 1_555
O12 S4 1.451123 1_555
O13 S5 1.461053 1_555
O14 P2 1.512130 1_555
O15 P3 1.512130 1_555
O16 S6 1.461053 1_555
O17 S7 1.451123 1_555
O18 S7 1.518145 1_555
O19 P3 1.579848 1_555
O20 S6 1.502682 1_555
O21 S5 1.502682 1_555
O22 P2 1.579848 1_555
O23 S4 1.518145 1_555
O24 S8 1.452715 1_555
O25 S9 1.447607 1_555
O26 P4 1.512428 1_555
O27 P5 1.512428 1_555
O28 S10 1.447607 1_555
O29 S11 1.452715 1_555
O30 S11 1.511274 1_555
O31 P5 1.608175 1_555
O32 S10 1.498066 1_555
O33 S9 1.498066 1_555
O34 P4 1.608175 1_555
O35 S8 1.511275 1_555
O36 S11 1.478410 1_555
O37 P5 1.511505 1_545
O38 S10 1.478716 1_555
O39 S9 1.478719 1_655
O40 P4 1.511496 1_545
O41 S8 1.478416 1_555
O42 S4 1.515459 1_555
O43 S5 1.498102 1_555
O44 P2 1.595735 1_555
O45 P3 1.595739 1_555
O46 S6 1.498093 1_555
O47 S7 1.515464 1_555
O48 P1 1.515002 1_545
O49 S2 1.483956 1_555
O50 S3 1.465622 1_655
O51 S0 1.465625 1_555
O52 S1 1.483947 1_655
O53 P0 1.515008 1_545
O54 S8 1.504129 1_555
O55 S9 1.515145 1_655
O56 P4 1.593716 1_545
O57 P5 1.593708 1_545
O58 S10 1.515163 1_555
O59 S11 1.504119 1_655
O60 S7 1.456547 1_555
O61 P3 1.539154 1_455
O62 S6 1.478742 1_565
O63 S5 1.478736 1_565
O64 P2 1.539172 1_555
O65 S4 1.456536 1_455
O66 P0 1.606202 1_555
O67 S0 1.506688 1_555
O68 S1 1.504409 1_555
O69 S2 1.504414 1_555
O70 S3 1.506680 1_555
O71 P1 1.606206 1_555
