# generated using pymatgen
data_MgFe8(OF)8
_symmetry_space_group_name_H-M   'P 1'
_cell_length_a   9.62971855
_cell_length_b   9.92567020
_cell_length_c   3.09895500
_cell_angle_alpha   90.00000000
_cell_angle_beta   90.00000000
_cell_angle_gamma   90.24553381
_symmetry_Int_Tables_number   1
_chemical_formula_structural   MgFe8(OF)8
_chemical_formula_sum   'Mg1 Fe8 O8 F8'
_cell_volume   296.19977012
_cell_formula_units_Z   1
loop_
 _symmetry_equiv_pos_site_id
 _symmetry_equiv_pos_as_xyz
  1  'x, y, z'
loop_
 _atom_site_type_symbol
 _atom_site_label
 _atom_site_symmetry_multiplicity
 _atom_site_fract_x
 _atom_site_fract_y
 _atom_site_fract_z
 _atom_site_occupancy
  Mg  Mg0  1  0.26802700  0.50098300  0.00000000  1
  Fe  Fe0  1  0.00927200  0.00156600  0.00000000  1
  Fe  Fe1  1  0.97872700  0.50692500  0.00000000  1
  Fe  Fe2  1  0.21465400  0.23719000  0.50000000  1
  Fe  Fe3  1  0.21327300  0.76368500  0.50000000  1
  Fe  Fe4  1  0.59284600  0.49283600  0.00000000  1
  Fe  Fe5  1  0.50286800  0.00587700  0.00000000  1
  Fe  Fe6  1  0.76723900  0.26715800  0.50000000  1
  Fe  Fe7  1  0.75328200  0.74069300  0.50000000  1
  O  O0  1  0.13432700  0.42142500  0.50000000  1
  O  O1  1  0.09046700  0.91286200  0.50000000  1
  O  O2  1  0.13172200  0.15409800  0.00000000  1
  O  O3  1  0.14384400  0.66158200  0.00000000  1
  O  O4  1  0.60902800  0.38026300  0.50000000  1
  O  O5  1  0.65368600  0.67691500  0.00000000  1
  O  O6  1  0.86805800  0.34258000  0.00000000  1
  O  O7  1  0.89559500  0.59771300  0.50000000  1
  F  F0  1  0.34415300  0.31914000  0.00000000  1
  F  F1  1  0.33944600  0.84441700  0.00000000  1
  F  F2  1  0.38713800  0.09627100  0.50000000  1
  F  F3  1  0.37046400  0.58716300  0.50000000  1
  F  F4  1  0.60803200  0.91023300  0.50000000  1
  F  F5  1  0.67034600  0.15043100  0.00000000  1
  F  F6  1  0.85089900  0.85732200  0.00000000  1
  F  F7  1  0.89427500  0.09150000  0.50000000  1
loop_
_geom_bond_atom_site_label_1
_geom_bond_atom_site_label_2
_geom_bond_distance
_geom_bond_site_symmetry_2
Mg0 O3 1.996846 1_555
Mg0 O0 2.161800 1_555
Mg0 O0 2.161800 1_554
Fe0 O2 1.915009 1_555
Fe0 O1 1.947642 1_544
Fe0 O1 1.947642 1_545
Fe1 O6 1.944676 1_555
Fe1 O7 1.964679 1_555
Fe1 O7 1.964679 1_554
Fe1 O3 2.205387 1_655
Fe1 O0 2.318864 1_655
Fe1 O0 2.318864 1_654
Fe2 O2 1.926971 1_556
Fe2 O2 1.926971 1_555
Fe2 O0 1.988580 1_555
Fe3 O1 1.898931 1_555
Fe3 O3 1.967012 1_555
Fe3 O3 1.967012 1_556
Fe4 O5 1.916349 1_555
Fe4 O4 1.917069 1_554
Fe4 O4 1.917069 1_555
Fe6 O4 1.896344 1_555
Fe6 O6 1.974244 1_555
Fe6 O6 1.974244 1_556
Fe7 O5 1.927759 1_556
Fe7 O5 1.927759 1_555
Fe7 O7 1.977071 1_555
F0 Mg0 1.951012 1_555
F0 Fe2 2.146841 1_554
F0 Fe2 2.146841 1_555
F1 Fe3 2.123888 1_555
F1 Fe3 2.123888 1_554
F1 Fe5 2.241264 1_565
F2 Fe5 2.111030 1_556
F2 Fe5 2.111030 1_555
F2 Fe2 2.176039 1_555
F3 Mg0 2.024453 1_555
F3 Mg0 2.024453 1_556
F3 Fe3 2.320320 1_555
F4 Fe5 2.082285 1_565
F4 Fe5 2.082285 1_566
F4 Fe7 2.192804 1_555
F5 Fe6 2.145820 1_554
F5 Fe6 2.145820 1_555
F5 Fe5 2.154024 1_555
F6 Fe0 2.087342 1_665
F6 Fe7 2.148322 1_554
F6 Fe7 2.148322 1_555
F7 Fe0 2.105349 1_655
F7 Fe0 2.105349 1_656
F7 Fe6 2.134167 1_555
