# generated using pymatgen
data_K3BS3
_symmetry_space_group_name_H-M   'P 1'
_cell_length_a   6.21693733
_cell_length_b   10.18748977
_cell_length_c   12.62533069
_cell_angle_alpha   67.99708332
_cell_angle_beta   90.00000000
_cell_angle_gamma   90.00000000
_symmetry_Int_Tables_number   1
_chemical_formula_structural   K3BS3
_chemical_formula_sum   'K12 B4 S12'
_cell_volume   741.38426624
_cell_formula_units_Z   4
loop_
 _symmetry_equiv_pos_site_id
 _symmetry_equiv_pos_as_xyz
  1  'x, y, z'
loop_
 _atom_site_type_symbol
 _atom_site_label
 _atom_site_symmetry_multiplicity
 _atom_site_fract_x
 _atom_site_fract_y
 _atom_site_fract_z
 _atom_site_occupancy
  K  K0  1  0.72556686  0.46809417  0.40796782  1
  K  K1  1  0.22556686  0.53190583  0.09203218  1
  K  K2  1  0.27443314  0.53190583  0.59203218  1
  K  K3  1  0.77443314  0.46809417  0.90796782  1
  K  K4  1  0.83258666  0.76406938  0.11087660  1
  K  K5  1  0.33258666  0.23593062  0.38912340  1
  K  K6  1  0.16741334  0.23593062  0.88912340  1
  K  K7  1  0.66741334  0.76406938  0.61087660  1
  K  K8  1  0.55713289  0.09971660  0.14967479  1
  K  K9  1  0.05713289  0.90028340  0.35032521  1
  K  K10  1  0.44286711  0.90028340  0.85032521  1
  K  K11  1  0.94286711  0.09971660  0.64967479  1
  B  B0  1  0.87199163  0.26861645  0.24041031  1
  B  B1  1  0.37199163  0.73138355  0.25958969  1
  B  B2  1  0.12800837  0.73138355  0.75958969  1
  B  B3  1  0.62800837  0.26861645  0.74041031  1
  S  S0  1  0.70265152  0.42308938  0.16830833  1
  S  S1  1  0.20265152  0.57691062  0.33169167  1
  S  S2  1  0.29734848  0.57691062  0.83169167  1
  S  S3  1  0.79734848  0.42308938  0.66830833  1
  S  S4  1  0.82882990  0.16170643  0.39169412  1
  S  S5  1  0.32882990  0.83829357  0.10830588  1
  S  S6  1  0.17117010  0.83829357  0.60830588  1
  S  S7  1  0.67117010  0.16170643  0.89169412  1
  S  S8  1  0.42385498  0.21295075  0.66045605  1
  S  S9  1  0.92385498  0.78704925  0.83954395  1
  S  S10  1  0.57614502  0.78704925  0.33954395  1
  S  S11  1  0.07614502  0.21295075  0.16045605  1
loop_
_geom_bond_atom_site_label_1
_geom_bond_atom_site_label_2
_geom_bond_distance
_geom_bond_site_symmetry_2
K0 S10 3.172409 1_555
K0 S3 3.175496 1_555
K0 S1 3.186466 1_655
K0 S0 3.228831 1_555
K0 S4 3.267651 1_555
K0 S1 3.453250 1_555
K1 S11 3.172409 1_555
K1 S2 3.175496 1_554
K1 S0 3.186466 1_555
K1 S1 3.228831 1_555
K1 S5 3.267651 1_555
K1 S0 3.453250 1_455
K2 S8 3.172409 1_555
K2 S1 3.175496 1_555
K2 S3 3.186466 1_455
K2 S2 3.228831 1_555
K2 S6 3.267651 1_555
K2 S3 3.453250 1_555
K3 S9 3.172409 1_555
K3 S0 3.175496 1_556
K3 S2 3.186466 1_555
K3 S3 3.228831 1_555
K3 S7 3.267651 1_555
K3 S2 3.453250 1_655
K4 S5 3.173698 1_655
K4 S5 3.219124 1_555
K4 S0 3.370128 1_555
K4 S10 3.381974 1_555
K4 S9 3.392788 1_554
K4 S1 3.566188 1_655
K5 S4 3.173698 1_555
K5 S4 3.219124 1_455
K5 S1 3.370128 1_555
K5 S11 3.381974 1_555
K5 S8 3.392788 1_555
K5 S0 3.566188 1_555
K6 S7 3.173698 1_455
K6 S7 3.219124 1_555
K6 S2 3.370128 1_555
K6 S8 3.381974 1_555
K6 S11 3.392788 1_556
K6 S3 3.566188 1_455
K7 S6 3.173698 1_555
K7 S6 3.219124 1_655
K7 S3 3.370128 1_555
K7 S9 3.381974 1_555
K7 S10 3.392788 1_555
K7 S2 3.566188 1_555
K8 S7 3.157344 1_554
K8 S10 3.191394 1_545
K8 S11 3.226242 1_555
K8 S5 3.228389 1_545
K8 S11 3.446489 1_655
K8 S0 3.508176 1_555
K9 S6 3.157344 1_555
K9 S11 3.191394 1_565
K9 S10 3.226242 1_455
K9 S4 3.228389 1_465
K9 S10 3.446489 1_555
K9 S1 3.508176 1_555
K10 S5 3.157344 1_556
K10 S8 3.191394 1_565
K10 S9 3.226242 1_555
K10 S7 3.228389 1_565
K10 S9 3.446489 1_455
K10 S2 3.508176 1_555
K11 S4 3.157344 1_555
K11 S9 3.191394 1_545
K11 S8 3.226242 1_655
K11 S6 3.228389 1_645
K11 S8 3.446489 1_555
K11 S3 3.508176 1_555
B0 S0 1.827591 1_555
B0 S4 1.829646 1_555
B0 S11 1.838591 1_655
B0 K8 3.095422 1_555
B0 K5 3.371527 1_655
B1 S1 1.827591 1_555
B1 S5 1.829646 1_555
B1 S10 1.838591 1_555
B1 K9 3.095422 1_555
B1 K4 3.371527 1_555
B2 S2 1.827591 1_555
B2 S6 1.829646 1_555
B2 S9 1.838591 1_455
B2 K10 3.095422 1_555
B2 K7 3.371527 1_455
B3 S3 1.827591 1_555
B3 S7 1.829646 1_555
B3 S8 1.838591 1_555
B3 K11 3.095422 1_555
B3 K6 3.371527 1_555
