# generated using pymatgen
data_BaGeO3
_symmetry_space_group_name_H-M   'P 1'
_cell_length_a   9.10389422
_cell_length_b   8.58439175
_cell_length_c   9.00348119
_cell_angle_alpha   61.80671728
_cell_angle_beta   69.62638910
_cell_angle_gamma   78.32391002
_symmetry_Int_Tables_number   1
_chemical_formula_structural   BaGeO3
_chemical_formula_sum   'Ba6 Ge6 O18'
_cell_volume   580.74724113
_cell_formula_units_Z   6
loop_
 _symmetry_equiv_pos_site_id
 _symmetry_equiv_pos_as_xyz
  1  'x, y, z'
loop_
 _atom_site_type_symbol
 _atom_site_label
 _atom_site_symmetry_multiplicity
 _atom_site_fract_x
 _atom_site_fract_y
 _atom_site_fract_z
 _atom_site_occupancy
  Ba  Ba0  1  0.68353757  0.04333978  0.89670548  1
  Ba  Ba1  1  0.98008730  0.46018540  0.57943595  1
  Ba  Ba2  1  0.34734411  0.65349852  0.20590800  1
  Ba  Ba3  1  0.00136660  0.60262844  0.04551886  1
  Ba  Ba4  1  0.24423163  0.18369754  0.26239214  1
  Ba  Ba5  1  0.42481554  0.74482146  0.62322912  1
  Ge  Ge0  1  0.94464836  0.95968660  0.23819236  1
  Ge  Ge1  1  0.15466097  0.04172277  0.77353336  1
  Ge  Ge2  1  0.73228656  0.60401178  0.84379194  1
  Ge  Ge3  1  0.51470446  0.13537987  0.56074430  1
  Ge  Ge4  1  0.28978652  0.35969121  0.76058347  1
  Ge  Ge5  1  0.65067368  0.21925810  0.19357911  1
  O  O0  1  0.27778859  0.53632790  0.56054223  1
  O  O1  1  0.13757989  0.46111294  0.28416303  1
  O  O2  1  0.82646782  0.77793856  0.30168931  1
  O  O3  1  0.68727891  0.36563657  0.97006529  1
  O  O4  1  0.30926850  0.11251205  0.56788149  1
  O  O5  1  0.62974748  0.72243553  0.96538438  1
  O  O6  1  0.12018425  0.91111634  0.27696793  1
  O  O7  1  0.54727331  0.32648102  0.32938320  1
  O  O8  1  0.22322340  0.83023009  0.89472103  1
  O  O9  1  0.54662901  0.05104971  0.22615414  1
  O  O10  1  0.89283925  0.90039344  0.09355008  1
  O  O11  1  0.93379410  0.60286902  0.79549060  1
  O  O12  1  0.28179088  0.42731395  0.91676107  1
  O  O13  1  0.83993119  0.15275723  0.23941912  1
  O  O14  1  0.97812149  0.08235615  0.72467969  1
  O  O15  1  0.69011714  0.63979095  0.65546966  1
  O  O16  1  0.47169363  0.23824977  0.71299467  1
  O  O17  1  0.14173086  0.20150731  0.85486900  1
loop_
_geom_bond_atom_site_label_1
_geom_bond_atom_site_label_2
_geom_bond_distance
_geom_bond_site_symmetry_2
Ba0 O14 2.585471 1_555
Ba0 O5 2.633733 1_545
Ba0 O16 2.748618 1_555
Ba0 O10 2.761807 1_546
Ba0 O9 2.816748 1_556
Ba0 O3 3.142081 1_555
Ba1 O1 2.540465 1_655
Ba1 O11 2.633141 1_555
Ba1 O15 2.811803 1_555
Ba1 O0 2.844740 1_655
Ba1 O14 2.868754 1_555
Ba1 O17 3.043234 1_655
Ba1 O2 3.177345 1_555
Ba2 O1 2.472039 1_555
Ba2 O5 2.679182 1_554
Ba2 O0 2.724515 1_555
Ba2 O6 2.853303 1_555
Ba2 O7 2.970069 1_555
Ba2 O8 2.987059 1_554
Ba3 O11 2.530875 1_454
Ba3 O1 2.531652 1_555
Ba3 O8 2.630891 1_554
Ba3 O10 2.724292 1_455
Ba3 O12 2.856417 1_554
Ba4 O1 2.454604 1_555
Ba4 O9 2.727427 1_555
Ba4 O6 2.728396 1_545
Ba4 O12 2.752010 1_554
Ba4 O4 2.772792 1_555
Ba5 O15 2.467830 1_555
Ba5 O0 2.786341 1_555
Ba5 O8 2.811749 1_555
Ba5 O12 2.888414 1_555
Ba5 O4 2.975329 1_565
Ba5 O9 3.234294 1_565
Ge0 O6 1.682483 1_655
Ge0 O13 1.739641 1_565
Ge0 O2 1.823999 1_555
Ge0 O10 1.824466 1_555
Ge1 O14 1.737401 1_455
Ge1 O8 1.737824 1_545
Ge1 O4 1.801996 1_555
Ge1 O17 1.804245 1_555
Ge2 O11 1.730861 1_555
Ge2 O15 1.740706 1_555
Ge2 O5 1.749085 1_555
Ge2 O3 1.861337 1_555
Ge3 O16 1.855345 1_555
Ge3 O4 1.895671 1_555
Ge3 O7 1.912105 1_555
Ge4 O12 1.732752 1_555
Ge4 O0 1.744831 1_555
Ge4 O17 1.798964 1_555
Ge4 O16 1.800597 1_555
Ge5 O9 1.740195 1_555
Ge5 O3 1.747270 1_554
Ge5 O7 1.771911 1_555
Ge5 O13 1.827369 1_555
O10 O2 1.609105 1_555
