# generated using pymatgen
data_Er3Co29(Si2B5)2
_symmetry_space_group_name_H-M   'P 1'
_cell_length_a   11.10897500
_cell_length_b   11.10897500
_cell_length_c   7.80901000
_cell_angle_alpha   90.00000000
_cell_angle_beta   90.00000000
_cell_angle_gamma   90.00000000
_symmetry_Int_Tables_number   1
_chemical_formula_structural   Er3Co29(Si2B5)2
_chemical_formula_sum   'Er6 Co58 Si8 B20'
_cell_volume   963.70465732
_cell_formula_units_Z   2
loop_
 _symmetry_equiv_pos_site_id
 _symmetry_equiv_pos_as_xyz
  1  'x, y, z'
loop_
 _atom_site_type_symbol
 _atom_site_label
 _atom_site_symmetry_multiplicity
 _atom_site_fract_x
 _atom_site_fract_y
 _atom_site_fract_z
 _atom_site_occupancy
  Er  Er0  1  0.50000000  0.50000000  0.50000000  1
  Er  Er1  1  0.00000000  0.00000000  0.50000000  1
  Er  Er2  1  0.75000000  0.25000000  0.00000000  1
  Er  Er3  1  0.75000000  0.75000000  0.00000000  1
  Er  Er4  1  0.25000000  0.25000000  0.00000000  1
  Er  Er5  1  0.25000000  0.75000000  0.00000000  1
  Co  Co0  1  0.00000000  0.50000000  0.46484600  1
  Co  Co1  1  0.50000000  0.00000000  0.53515400  1
  Co  Co2  1  0.38977200  0.50000000  0.88829500  1
  Co  Co3  1  0.00000000  0.11022800  0.88829500  1
  Co  Co4  1  0.00000000  0.88977200  0.88829500  1
  Co  Co5  1  0.61022800  0.50000000  0.88829500  1
  Co  Co6  1  0.11022800  0.00000000  0.11170500  1
  Co  Co7  1  0.88977200  0.00000000  0.11170500  1
  Co  Co8  1  0.50000000  0.38977200  0.11170500  1
  Co  Co9  1  0.50000000  0.61022800  0.11170500  1
  Co  Co10  1  0.77170900  0.50000000  0.47268500  1
  Co  Co11  1  0.00000000  0.72829100  0.47268500  1
  Co  Co12  1  0.00000000  0.27170900  0.47268500  1
  Co  Co13  1  0.22829100  0.50000000  0.47268500  1
  Co  Co14  1  0.72829100  0.00000000  0.52731500  1
  Co  Co15  1  0.27170900  0.00000000  0.52731500  1
  Co  Co16  1  0.50000000  0.77170900  0.52731500  1
  Co  Co17  1  0.50000000  0.22829100  0.52731500  1
  Co  Co18  1  0.83507500  0.50000000  0.96930400  1
  Co  Co19  1  0.00000000  0.66492500  0.96930400  1
  Co  Co20  1  0.00000000  0.33507500  0.96930400  1
  Co  Co21  1  0.16492500  0.50000000  0.96930400  1
  Co  Co22  1  0.66492500  0.00000000  0.03069600  1
  Co  Co23  1  0.33507500  0.00000000  0.03069600  1
  Co  Co24  1  0.50000000  0.83507500  0.03069600  1
  Co  Co25  1  0.50000000  0.16492500  0.03069600  1
  Co  Co26  1  0.88394100  0.38394100  0.24736400  1
  Co  Co27  1  0.88394100  0.61605900  0.24736400  1
  Co  Co28  1  0.11605900  0.38394100  0.24736400  1
  Co  Co29  1  0.11605900  0.61605900  0.24736400  1
  Co  Co30  1  0.61605900  0.88394100  0.75263600  1
  Co  Co31  1  0.38394100  0.11605900  0.75263600  1
  Co  Co32  1  0.38394100  0.88394100  0.75263600  1
  Co  Co33  1  0.61605900  0.11605900  0.75263600  1
  Co  Co34  1  0.88993300  0.38993300  0.69758800  1
  Co  Co35  1  0.88993300  0.61006700  0.69758800  1
  Co  Co36  1  0.11006700  0.38993300  0.69758800  1
  Co  Co37  1  0.11006700  0.61006700  0.69758800  1
  Co  Co38  1  0.61006700  0.88993300  0.30241200  1
  Co  Co39  1  0.38993300  0.11006700  0.30241200  1
  Co  Co40  1  0.38993300  0.88993300  0.30241200  1
  Co  Co41  1  0.61006700  0.11006700  0.30241200  1
  Co  Co42  1  0.33846200  0.32568700  0.33574100  1
  Co  Co43  1  0.82568700  0.16153800  0.33574100  1
  Co  Co44  1  0.17431300  0.83846200  0.33574100  1
  Co  Co45  1  0.66153800  0.67431300  0.33574100  1
  Co  Co46  1  0.16153800  0.82568700  0.66425900  1
  Co  Co47  1  0.83846200  0.17431300  0.66425900  1
  Co  Co48  1  0.32568700  0.33846200  0.66425900  1
  Co  Co49  1  0.67431300  0.66153800  0.66425900  1
  Co  Co50  1  0.16153800  0.17431300  0.66425900  1
  Co  Co51  1  0.67431300  0.33846200  0.66425900  1
  Co  Co52  1  0.32568700  0.66153800  0.66425900  1
  Co  Co53  1  0.83846200  0.82568700  0.66425900  1
  Co  Co54  1  0.33846200  0.67431300  0.33574100  1
  Co  Co55  1  0.66153800  0.32568700  0.33574100  1
  Co  Co56  1  0.17431300  0.16153800  0.33574100  1
  Co  Co57  1  0.82568700  0.83846200  0.33574100  1
  Si  Si0  1  0.31767400  0.50000000  0.17476900  1
  Si  Si1  1  0.00000000  0.18232600  0.17476900  1
  Si  Si2  1  0.00000000  0.81767400  0.17476900  1
  Si  Si3  1  0.68232600  0.50000000  0.17476900  1
  Si  Si4  1  0.18232600  0.00000000  0.82523100  1
  Si  Si5  1  0.81767400  0.00000000  0.82523100  1
  Si  Si6  1  0.50000000  0.31767400  0.82523100  1
  Si  Si7  1  0.50000000  0.68232600  0.82523100  1
  B  B0  1  0.00000000  0.50000000  0.10577900  1
  B  B1  1  0.50000000  0.00000000  0.89422100  1
  B  B2  1  0.00000000  0.50000000  0.85025100  1
  B  B3  1  0.50000000  0.00000000  0.14974900  1
  B  B4  1  0.74370900  0.50000000  0.73517200  1
  B  B5  1  0.00000000  0.75629100  0.73517200  1
  B  B6  1  0.00000000  0.24370900  0.73517200  1
  B  B7  1  0.25629100  0.50000000  0.73517200  1
  B  B8  1  0.75629100  0.00000000  0.26482800  1
  B  B9  1  0.24370900  0.00000000  0.26482800  1
  B  B10  1  0.50000000  0.74370900  0.26482800  1
  B  B11  1  0.50000000  0.25629100  0.26482800  1
  B  B12  1  0.81392900  0.31392900  0.48124400  1
  B  B13  1  0.81392900  0.68607100  0.48124400  1
  B  B14  1  0.18607100  0.31392900  0.48124400  1
  B  B15  1  0.18607100  0.68607100  0.48124400  1
  B  B16  1  0.68607100  0.81392900  0.51875600  1
  B  B17  1  0.31392900  0.18607100  0.51875600  1
  B  B18  1  0.31392900  0.81392900  0.51875600  1
  B  B19  1  0.68607100  0.18607100  0.51875600  1
loop_
_geom_bond_atom_site_label_1
_geom_bond_atom_site_label_2
_geom_bond_distance
_geom_bond_site_symmetry_2
Er0 Si3 3.248493 1_555
Er0 Si0 3.248493 1_555
Er0 Si7 3.248493 1_555
Er0 Si6 3.248493 1_555
Er1 Si4 3.248493 1_555
Er1 Si5 3.248493 1_455
Er1 Si1 3.248493 1_555
Er1 Si2 3.248493 1_545
Er2 Si6 3.184474 1_554
Er2 Si5 3.184474 1_554
Er2 Si1 3.184474 1_655
Er2 Si3 3.184474 1_555
Er3 Si7 3.184474 1_554
Er3 Si5 3.184474 1_564
Er3 Si2 3.184474 1_655
Er3 Si3 3.184474 1_555
Er4 Si6 3.184474 1_554
Er4 Si4 3.184474 1_554
Er4 Si0 3.184474 1_555
Er4 Si1 3.184474 1_555
Er5 Si7 3.184474 1_554
Er5 Si4 3.184474 1_564
Er5 Si0 3.184474 1_555
Er5 Si2 3.184474 1_555
Co0 Co28 2.491758 1_555
Co0 Co27 2.491758 1_455
Co0 Co26 2.491758 1_455
Co0 Co29 2.491758 1_555
Co0 Co36 2.508664 1_555
Co0 Co34 2.508664 1_455
Co0 Co37 2.508664 1_555
Co0 Co35 2.508664 1_455
Co0 Co13 2.536818 1_555
Co0 Co11 2.536818 1_555
Co0 Co12 2.536818 1_555
Co0 Co10 2.536818 1_455
Co1 Co33 2.491758 1_555
Co1 Co31 2.491758 1_555
Co1 Co32 2.491758 1_545
Co1 Co30 2.491758 1_545
Co1 Co38 2.508664 1_545
Co1 Co39 2.508664 1_555
Co1 Co40 2.508664 1_545
Co1 Co41 2.508664 1_555
Co1 Co17 2.536818 1_555
Co1 Co16 2.536818 1_545
Co1 Co14 2.536818 1_555
Co1 Co15 2.536818 1_555
Co2 Si0 2.376135 1_556
Co2 Si7 2.417528 1_555
Co2 Si6 2.417528 1_555
Co2 Er5 3.299235 1_556
Co2 Er4 3.299235 1_556
Co3 Si1 2.376135 1_556
Co3 Si5 2.417528 1_455
Co3 Si4 2.417528 1_555
Co3 Er2 3.299235 1_456
Co3 Er4 3.299235 1_556
Co4 Si2 2.376135 1_556
Co4 Si5 2.417528 1_465
Co4 Si4 2.417528 1_565
Co4 Er5 3.299235 1_556
Co4 Er3 3.299235 1_456
Co5 Si3 2.376135 1_556
Co5 Si7 2.417528 1_555
Co5 Si6 2.417528 1_555
Co5 Er2 3.299235 1_556
Co5 Er3 3.299235 1_556
Co6 Si4 2.376135 1_554
Co6 Si1 2.417528 1_555
Co6 Si2 2.417528 1_545
Co6 Er4 3.299235 1_555
Co6 Er5 3.299235 1_545
Co7 Si5 2.376135 1_554
Co7 Si1 2.417528 1_655
Co7 Si2 2.417528 1_645
Co7 Er2 3.299235 1_555
Co7 Er3 3.299235 1_545
Co8 Si6 2.376135 1_554
Co8 Si3 2.417528 1_555
Co8 Si0 2.417528 1_555
Co8 Er2 3.299235 1_555
Co8 Er4 3.299235 1_555
Co9 Si7 2.376135 1_554
Co9 Si3 2.417528 1_555
Co9 Si0 2.417528 1_555
Co9 Er3 3.299235 1_555
Co9 Er5 3.299235 1_555
Co10 Si3 2.529472 1_555
Co10 Er0 3.025936 1_555
Co11 Si2 2.529472 1_555
Co11 Er1 3.025936 1_565
Co12 Si1 2.529472 1_555
Co12 Er1 3.025936 1_555
Co13 Si0 2.529472 1_555
Co13 Er0 3.025936 1_555
Co14 Si5 2.529472 1_555
Co14 Er1 3.025936 1_655
Co15 Si4 2.529472 1_555
Co15 Er1 3.025936 1_555
Co16 Si7 2.529472 1_555
Co16 Er0 3.025936 1_555
Co17 Si6 2.529472 1_555
Co17 Er0 3.025936 1_555
Co18 Si3 2.335330 1_556
Co18 Er2 2.943425 1_556
Co18 Er3 2.943425 1_556
Co19 Si2 2.335330 1_556
Co19 Er3 2.943425 1_456
Co19 Er5 2.943425 1_556
Co20 Si1 2.335330 1_556
Co20 Er2 2.943425 1_456
Co20 Er4 2.943425 1_556
Co21 Si0 2.335330 1_556
Co21 Er5 2.943425 1_556
Co21 Er4 2.943425 1_556
Co22 Si5 2.335330 1_554
Co22 Er2 2.943425 1_555
Co22 Er3 2.943425 1_545
Co23 Si4 2.335330 1_554
Co23 Er4 2.943425 1_555
Co23 Er5 2.943425 1_545
Co24 Si7 2.335330 1_554
Co24 Er3 2.943425 1_555
Co24 Er5 2.943425 1_555
Co25 Si6 2.335330 1_554
Co25 Er2 2.943425 1_555
Co25 Er4 2.943425 1_555
Co26 Si3 2.645765 1_555
Co26 Si1 2.645765 1_655
Co26 Er2 2.856451 1_555
Co27 Si2 2.645765 1_655
Co27 Si3 2.645765 1_555
Co27 Er3 2.856451 1_555
Co28 Si1 2.645765 1_555
Co28 Si0 2.645765 1_555
Co28 Er4 2.856451 1_555
Co29 Si2 2.645765 1_555
Co29 Si0 2.645765 1_555
Co29 Er5 2.856451 1_555
Co30 Si5 2.645765 1_565
Co30 Si7 2.645765 1_555
Co30 Er3 2.856451 1_556
Co31 Si4 2.645765 1_555
Co31 Si6 2.645765 1_555
Co31 Er4 2.856451 1_556
Co32 Si4 2.645765 1_565
Co32 Si7 2.645765 1_555
Co32 Er5 2.856451 1_556
Co33 Si5 2.645765 1_555
Co33 Si6 2.645765 1_555
Co33 Er2 2.856451 1_556
Co34 Er2 3.226435 1_556
Co35 Er3 3.226435 1_556
Co36 Er4 3.226435 1_556
Co37 Er5 3.226435 1_556
Co38 Er3 3.226435 1_555
Co39 Er4 3.226435 1_555
Co40 Er5 3.226435 1_555
Co41 Er2 3.226435 1_555
Co42 Si0 2.320184 1_555
Co42 Er4 2.923449 1_555
Co42 Er0 2.935204 1_555
Co43 Si1 2.320184 1_655
Co43 Er2 2.923449 1_555
Co43 Er1 2.935204 1_655
Co44 Si2 2.320184 1_555
Co44 Er5 2.923449 1_555
Co44 Er1 2.935204 1_565
Co45 Si3 2.320184 1_555
Co45 Er3 2.923449 1_555
Co45 Er0 2.935204 1_555
Co46 Si4 2.320184 1_565
Co46 Er5 2.923449 1_556
Co46 Er1 2.935204 1_565
Co47 Si5 2.320184 1_555
Co47 Er2 2.923449 1_556
Co47 Er1 2.935204 1_655
Co48 Si6 2.320184 1_555
Co48 Er4 2.923449 1_556
Co48 Er0 2.935204 1_555
Co49 Si7 2.320184 1_555
Co49 Er3 2.923449 1_556
Co49 Er0 2.935204 1_555
Co50 Si4 2.320184 1_555
Co50 Er4 2.923449 1_556
Co50 Er1 2.935204 1_555
Co51 Si6 2.320184 1_555
Co51 Er2 2.923449 1_556
Co51 Er0 2.935204 1_555
Co52 Si7 2.320184 1_555
Co52 Er5 2.923449 1_556
Co52 Er0 2.935204 1_555
Co53 Si5 2.320184 1_565
Co53 Er3 2.923449 1_556
Co53 Er1 2.935204 1_665
Co54 Si0 2.320184 1_555
Co54 Er5 2.923449 1_555
Co54 Er0 2.935204 1_555
Co55 Si3 2.320184 1_555
Co55 Er2 2.923449 1_555
Co55 Er0 2.935204 1_555
Co56 Si1 2.320184 1_555
Co56 Er4 2.923449 1_555
Co56 Er1 2.935204 1_555
Co57 Si2 2.320184 1_655
Co57 Er3 2.923449 1_555
Co57 Er1 2.935204 1_665
B0 B2 1.995421 1_554
B0 Co18 2.119565 1_454
B0 Co19 2.119565 1_554
B0 Co21 2.119565 1_554
B0 Co20 2.119565 1_554
B0 Co28 2.132371 1_555
B0 Co29 2.132371 1_555
B0 Co26 2.132371 1_455
B0 Co27 2.132371 1_455
B1 B3 1.995421 1_556
B1 Co25 2.119565 1_556
B1 Co22 2.119565 1_556
B1 Co23 2.119565 1_556
B1 Co24 2.119565 1_546
B1 Co31 2.132371 1_555
B1 Co32 2.132371 1_545
B1 Co30 2.132371 1_545
B1 Co33 2.132371 1_555
B2 Co19 2.054527 1_555
B2 Co20 2.054527 1_555
B2 Co18 2.054527 1_455
B2 Co21 2.054527 1_555
B2 Co36 2.100324 1_555
B2 Co34 2.100324 1_455
B2 Co37 2.100324 1_555
B2 Co35 2.100324 1_455
B3 Co23 2.054527 1_555
B3 Co24 2.054527 1_545
B3 Co25 2.054527 1_555
B3 Co22 2.054527 1_555
B3 Co40 2.100324 1_545
B3 Co41 2.100324 1_555
B3 Co39 2.100324 1_555
B3 Co38 2.100324 1_545
B4 Co5 1.904888 1_555
B4 Co49 2.030092 1_555
B4 Co51 2.030092 1_555
B4 Co34 2.054235 1_555
B4 Co35 2.054235 1_555
B4 Co10 2.073230 1_555
B4 Co18 2.091175 1_555
B5 Co4 1.904888 1_555
B5 Co53 2.030092 1_455
B5 Co46 2.030092 1_555
B5 Co37 2.054235 1_555
B5 Co35 2.054235 1_455
B5 Co11 2.073230 1_555
B5 Co19 2.091175 1_555
B6 Co3 1.904888 1_555
B6 Co47 2.030092 1_455
B6 Co50 2.030092 1_555
B6 Co34 2.054235 1_455
B6 Co36 2.054235 1_555
B6 Co12 2.073230 1_555
B6 Co20 2.091175 1_555
B7 Co2 1.904888 1_555
B7 Co52 2.030092 1_555
B7 Co48 2.030092 1_555
B7 Co36 2.054235 1_555
B7 Co37 2.054235 1_555
B7 Co13 2.073230 1_555
B7 Co21 2.091175 1_555
B8 Co7 1.904888 1_555
B8 Co57 2.030092 1_545
B8 Co43 2.030092 1_555
B8 Co38 2.054235 1_545
B8 Co41 2.054235 1_555
B8 Co14 2.073230 1_555
B8 Co22 2.091175 1_555
B9 Co6 1.904888 1_555
B9 Co44 2.030092 1_545
B9 Co56 2.030092 1_555
B9 Co40 2.054235 1_545
B9 Co39 2.054235 1_555
B9 Co15 2.073230 1_555
B9 Co23 2.091175 1_555
B10 Co9 1.904888 1_555
B10 Co45 2.030092 1_555
B10 Co54 2.030092 1_555
B10 Co40 2.054235 1_555
B10 Co38 2.054235 1_555
B10 Co16 2.073230 1_555
B10 Co24 2.091175 1_555
B11 Co8 1.904888 1_555
B11 Co55 2.030092 1_555
B11 Co42 2.030092 1_555
B11 Co39 2.054235 1_555
B11 Co41 2.054235 1_555
B11 Co17 2.073230 1_555
B11 Co25 2.091175 1_555
B12 B19 2.029955 1_555
B12 Co43 2.043044 1_555
B12 Co55 2.043044 1_555
B12 Co34 2.068806 1_555
B12 Co10 2.120655 1_555
B12 Co12 2.120655 1_655
B12 Co51 2.126585 1_555
B12 Co47 2.126585 1_555
B12 Co26 2.132008 1_555
B13 B16 2.029955 1_555
B13 Co45 2.043044 1_555
B13 Co57 2.043044 1_555
B13 Co35 2.068806 1_555
B13 Co10 2.120655 1_555
B13 Co11 2.120655 1_655
B13 Co49 2.126585 1_555
B13 Co53 2.126585 1_555
B13 Co27 2.132008 1_555
B14 B17 2.029955 1_555
B14 Co56 2.043044 1_555
B14 Co42 2.043044 1_555
B14 Co36 2.068806 1_555
B14 Co13 2.120655 1_555
B14 Co12 2.120655 1_555
B14 Co48 2.126585 1_555
B14 Co50 2.126585 1_555
B14 Co28 2.132008 1_555
B15 B18 2.029955 1_555
B15 Co54 2.043044 1_555
B15 Co44 2.043044 1_555
B15 Co37 2.068806 1_555
B15 Co13 2.120655 1_555
B15 Co11 2.120655 1_555
B15 Co46 2.126585 1_555
B15 Co52 2.126585 1_555
B15 Co29 2.132008 1_555
B16 Co49 2.043044 1_555
B16 Co53 2.043044 1_555
B16 Co38 2.068806 1_555
B16 Co16 2.120655 1_555
B16 Co14 2.120655 1_565
B16 Co45 2.126585 1_555
B16 Co57 2.126585 1_555
B16 Co30 2.132008 1_555
B17 Co48 2.043044 1_555
B17 Co50 2.043044 1_555
B17 Co39 2.068806 1_555
B17 Co17 2.120655 1_555
B17 Co15 2.120655 1_555
B17 Co42 2.126585 1_555
B17 Co56 2.126585 1_555
B17 Co31 2.132008 1_555
B18 Co46 2.043044 1_555
B18 Co52 2.043044 1_555
B18 Co40 2.068806 1_555
B18 Co16 2.120655 1_555
B18 Co15 2.120655 1_565
B18 Co54 2.126585 1_555
B18 Co44 2.126585 1_555
B18 Co32 2.132008 1_555
B19 Co51 2.043044 1_555
B19 Co47 2.043044 1_555
B19 Co41 2.068806 1_555
B19 Co17 2.120655 1_555
B19 Co14 2.120655 1_555
B19 Co43 2.126585 1_555
B19 Co55 2.126585 1_555
B19 Co33 2.132008 1_555
