# generated using pymatgen
data_CeS2
_symmetry_space_group_name_H-M   'P 1'
_cell_length_a   4.10556400
_cell_length_b   8.07099426
_cell_length_c   16.28337013
_cell_angle_alpha   90.00000000
_cell_angle_beta   90.00000000
_cell_angle_gamma   89.99473794
_symmetry_Int_Tables_number   1
_chemical_formula_structural   CeS2
_chemical_formula_sum   'Ce8 S16'
_cell_volume   539.56548179
_cell_formula_units_Z   8
loop_
 _symmetry_equiv_pos_site_id
 _symmetry_equiv_pos_as_xyz
  1  'x, y, z'
loop_
 _atom_site_type_symbol
 _atom_site_label
 _atom_site_symmetry_multiplicity
 _atom_site_fract_x
 _atom_site_fract_y
 _atom_site_fract_z
 _atom_site_occupancy
  Ce  Ce0  1  0.78005844  0.87074877  0.86439362  1
  Ce  Ce1  1  0.21994156  0.12925123  0.36439362  1
  Ce  Ce2  1  0.71990179  0.37075067  0.86439076  1
  Ce  Ce3  1  0.28009821  0.62925033  0.36439076  1
  Ce  Ce4  1  0.28019110  0.62849412  0.64128015  1
  Ce  Ce5  1  0.71980890  0.37150588  0.14128015  1
  Ce  Ce6  1  0.21980835  0.12849518  0.64127693  1
  Ce  Ce7  1  0.78019165  0.87150482  0.14127693  1
  S  S0  1  0.83955656  0.59989978  0.50283372  1
  S  S1  1  0.16044344  0.40010022  0.00283372  1
  S  S2  1  0.66047724  0.09994043  0.50283867  1
  S  S3  1  0.33952276  0.90005957  0.00283867  1
  S  S4  1  0.35429632  0.89247473  0.50281450  1
  S  S5  1  0.64570368  0.10752527  0.00281450  1
  S  S6  1  0.14564782  0.39248834  0.50281382  1
  S  S7  1  0.85435218  0.60751166  0.00281382  1
  S  S8  1  0.75939480  0.87426510  0.31990363  1
  S  S9  1  0.24060520  0.12573490  0.81990363  1
  S  S10  1  0.74057655  0.37425168  0.31990020  1
  S  S11  1  0.25942345  0.62574832  0.81990020  1
  S  S12  1  0.25954867  0.62643108  0.18577976  1
  S  S13  1  0.74045133  0.37356892  0.68577976  1
  S  S14  1  0.24048305  0.12642789  0.18577424  1
  S  S15  1  0.75951695  0.87357211  0.68577424  1
loop_
_geom_bond_atom_site_label_1
_geom_bond_atom_site_label_2
_geom_bond_distance
_geom_bond_site_symmetry_2
Ce0 S11 2.882285 1_655
Ce0 S9 2.887215 1_665
Ce0 S3 2.899861 1_556
Ce0 S15 2.909837 1_555
Ce0 S11 3.000781 1_555
Ce0 S5 3.006061 1_566
Ce0 S9 3.108774 1_565
Ce0 S7 3.112404 1_556
Ce0 S3 3.227072 1_656
Ce1 S10 2.882285 1_455
Ce1 S8 2.887215 1_445
Ce1 S2 2.899861 1_555
Ce1 S14 2.909837 1_555
Ce1 S10 3.000781 1_555
Ce1 S4 3.006061 1_545
Ce1 S8 3.108774 1_545
Ce1 S6 3.112404 1_555
Ce1 S2 3.227072 1_455
Ce2 S9 2.882400 1_555
Ce2 S11 2.886852 1_555
Ce2 S1 2.899902 1_656
Ce2 S13 2.909701 1_555
Ce2 S9 3.000779 1_655
Ce2 S7 3.006145 1_556
Ce2 S11 3.109307 1_655
Ce2 S5 3.112381 1_556
Ce2 S1 3.227023 1_556
Ce3 S8 2.882394 1_555
Ce3 S10 2.886857 1_555
Ce3 S0 2.899903 1_455
Ce3 S12 2.909701 1_555
Ce3 S8 3.000774 1_455
Ce3 S6 3.006150 1_555
Ce3 S10 3.109313 1_455
Ce3 S4 3.112375 1_555
Ce3 S0 3.227023 1_555
Ce4 S15 2.882855 1_555
Ce4 S13 2.885886 1_555
Ce4 S0 2.899692 1_455
Ce4 S11 2.909870 1_555
Ce4 S15 3.001052 1_455
Ce4 S6 3.002873 1_555
Ce4 S13 3.109593 1_455
Ce4 S4 3.117001 1_555
Ce4 S0 3.226349 1_555
Ce5 S14 2.882855 1_555
Ce5 S12 2.885886 1_555
Ce5 S1 2.899692 1_655
Ce5 S10 2.909870 1_555
Ce5 S14 3.001052 1_655
Ce5 S7 3.002873 1_555
Ce5 S12 3.109593 1_655
Ce5 S5 3.117001 1_555
Ce5 S1 3.226349 1_555
Ce6 S13 2.882706 1_455
Ce6 S15 2.886195 1_445
Ce6 S2 2.899625 1_555
Ce6 S9 2.909983 1_555
Ce6 S13 3.001231 1_555
Ce6 S4 3.002794 1_545
Ce6 S15 3.109212 1_545
Ce6 S6 3.117024 1_555
Ce6 S2 3.226163 1_455
Ce7 S12 2.882706 1_655
Ce7 S14 2.886195 1_665
Ce7 S3 2.899625 1_555
Ce7 S8 2.909983 1_555
Ce7 S12 3.001231 1_555
Ce7 S5 3.002794 1_565
Ce7 S14 3.109212 1_565
Ce7 S7 3.117024 1_555
Ce7 S3 3.226163 1_655
S0 S6 2.093128 1_655
S1 S7 2.093128 1_455
S2 S4 2.093883 1_545
S3 S5 2.093883 1_565
