# generated using pymatgen
data_Na3ZnSn3P5SO24
_symmetry_space_group_name_H-M   'P 1'
_cell_length_a   8.78226267
_cell_length_b   8.78208643
_cell_length_c   22.65470563
_cell_angle_alpha   89.71338500
_cell_angle_beta   90.19464572
_cell_angle_gamma   119.94323351
_symmetry_Int_Tables_number   1
_chemical_formula_structural   Na3ZnSn3P5SO24
_chemical_formula_sum   'Na9 Zn3 Sn9 P15 S3 O72'
_cell_volume   1514.03409669
_cell_formula_units_Z   3
loop_
 _symmetry_equiv_pos_site_id
 _symmetry_equiv_pos_as_xyz
  1  'x, y, z'
loop_
 _atom_site_type_symbol
 _atom_site_label
 _atom_site_symmetry_multiplicity
 _atom_site_fract_x
 _atom_site_fract_y
 _atom_site_fract_z
 _atom_site_occupancy
  Na  Na0  1  0.98948359  0.36326994  0.74419440  1
  Na  Na1  1  0.31079601  0.97528989  0.08699330  1
  Na  Na2  1  0.32542370  0.03110757  0.40930231  1
  Na  Na3  1  0.98049433  0.99785079  0.49465307  1
  Na  Na4  1  0.98861480  0.00025556  0.99923240  1
  Na  Na5  1  0.65313928  0.33257025  0.82791027  1
  Na  Na6  1  0.67020946  0.33658773  0.32628259  1
  Na  Na7  1  0.33274219  0.65907965  0.16731606  1
  Na  Na8  1  0.34569028  0.66966473  0.66596562  1
  Zn  Zn0  1  0.99979550  0.00033810  0.35298123  1
  Zn  Zn1  1  0.66789024  0.34601652  0.68602544  1
  Zn  Zn2  1  0.65873050  0.32481258  0.18176539  1
  Sn  Sn0  1  0.00067368  0.99924672  0.85280043  1
  Sn  Sn1  1  0.99332835  0.99709996  0.64838154  1
  Sn  Sn2  1  0.99889436  0.99827717  0.15006306  1
  Sn  Sn3  1  0.66968103  0.33519453  0.98219060  1
  Sn  Sn4  1  0.67753257  0.34317110  0.48280345  1
  Sn  Sn5  1  0.33269356  0.66204959  0.01734270  1
  Sn  Sn6  1  0.33409195  0.65908731  0.51841896  1
  Sn  Sn7  1  0.33440380  0.67099158  0.31589375  1
  Sn  Sn8  1  0.33694416  0.66956897  0.81521030  1
  P  P0  1  0.29895000  0.00217762  0.25213547  1
  P  P1  1  0.29377430  0.29094630  0.75061073  1
  P  P2  1  0.00164153  0.70939387  0.75083286  1
  P  P3  1  0.70350952  0.99913251  0.75040821  1
  P  P4  1  0.96266312  0.33328894  0.58614055  1
  P  P5  1  0.66762465  0.62825246  0.58450891  1
  P  P6  1  0.95763660  0.62344205  0.08518953  1
  P  P7  1  0.66890053  0.03949024  0.08373635  1
  P  P8  1  0.37449882  0.33545513  0.08481928  1
  P  P9  1  0.62779216  0.66596133  0.91684983  1
  P  P10  1  0.03739552  0.37160620  0.91542870  1
  P  P11  1  0.33502553  0.96269804  0.91795569  1
  P  P12  1  0.62930017  0.96193473  0.41857391  1
  P  P13  1  0.33431101  0.37244112  0.41634687  1
  P  P14  1  0.04039308  0.66506352  0.41698252  1
  S  S0  1  0.70448187  0.70443115  0.25165716  1
  S  S1  1  0.00057386  0.29566709  0.25122862  1
  S  S2  1  0.37175837  0.03839835  0.58317729  1
  O  O0  1  0.20844852  0.01608820  0.30729009  1
  O  O1  1  0.80773041  0.79365271  0.30393526  1
  O  O2  1  0.98085552  0.18966745  0.30350451  1
  O  O3  1  0.20975114  0.18234184  0.80725420  1
  O  O4  1  0.97530094  0.79281841  0.80660390  1
  O  O5  1  0.82230377  0.03346535  0.80555570  1
  O  O6  1  0.78161933  0.96118902  0.69489666  1
  O  O7  1  0.16939093  0.21152058  0.69602612  1
  O  O8  1  0.03809286  0.82470743  0.69496891  1
  O  O9  1  0.77663982  0.81399282  0.19598611  1
  O  O10  1  0.03028280  0.21886302  0.19561180  1
  O  O11  1  0.18683130  0.96979037  0.19326037  1
  O  O12  1  0.88466664  0.35585894  0.64268358  1
  O  O13  1  0.48002299  0.12093886  0.63482572  1
  O  O14  1  0.63596841  0.51675779  0.63860038  1
  O  O15  1  0.87856599  0.51438982  0.13947568  1
  O  O16  1  0.62705497  0.11377298  0.13705929  1
  O  O17  1  0.48210969  0.36540689  0.13958933  1
  O  O18  1  0.44877754  0.29251474  0.02845278  1
  O  O19  1  0.85167034  0.55125997  0.02701179  1
  O  O20  1  0.70308254  0.14866154  0.02606781  1
  O  O21  1  0.44571649  0.13907575  0.52663601  1
  O  O22  1  0.69464073  0.55108329  0.52627053  1
  O  O23  1  0.84873451  0.29997496  0.52962361  1
  O  O24  1  0.54780787  0.69899887  0.97224394  1
  O  O25  1  0.15300672  0.45500987  0.97018790  1
  O  O26  1  0.30546404  0.85499466  0.97548826  1
  O  O27  1  0.54379067  0.84941316  0.47433805  1
  O  O28  1  0.30501200  0.45292193  0.47225632  1
  O  O29  1  0.15955855  0.69976512  0.47197466  1
  O  O30  1  0.11990148  0.62835962  0.36157219  1
  O  O31  1  0.50500204  0.88581420  0.36357600  1
  O  O32  1  0.37262378  0.49098601  0.36098814  1
  O  O33  1  0.11600473  0.47957309  0.85808745  1
  O  O34  1  0.36464428  0.87723914  0.86342742  1
  O  O35  1  0.51529373  0.63361380  0.86097433  1
  O  O36  1  0.02523323  0.82976214  0.41222690  1
  O  O37  1  0.80889106  0.98293494  0.41123014  1
  O  O38  1  0.17590985  0.18866036  0.41124118  1
  O  O39  1  0.01998363  0.18773281  0.91182213  1
  O  O40  1  0.16779049  0.97845625  0.91298169  1
  O  O41  1  0.81136518  0.83207263  0.91185914  1
  O  O42  1  0.98866611  0.16928171  0.58716064  1
  O  O43  1  0.19336390  0.01983397  0.58672394  1
  O  O44  1  0.83694572  0.81371888  0.58703881  1
  O  O45  1  0.98691700  0.81618055  0.08884720  1
  O  O46  1  0.83284723  0.01661666  0.08975471  1
  O  O47  1  0.18766470  0.16467939  0.08893691  1
  O  O48  1  0.68876597  0.16391351  0.74469084  1
  O  O49  1  0.47319553  0.31036256  0.74480008  1
  O  O50  1  0.84371819  0.52449153  0.74718283  1
  O  O51  1  0.68812182  0.53264746  0.24551349  1
  O  O52  1  0.84934060  0.32017272  0.24490130  1
  O  O53  1  0.48098438  0.16328447  0.24613653  1
  O  O54  1  0.64445843  0.49967113  0.92238911  1
  O  O55  1  0.85538703  0.35640017  0.92112137  1
  O  O56  1  0.50082832  0.14614140  0.92243206  1
  O  O57  1  0.63213069  0.14155627  0.42486323  1
  O  O58  1  0.50156046  0.35214987  0.42252277  1
  O  O59  1  0.85882200  0.49580151  0.42166390  1
  O  O60  1  0.34937421  0.49686160  0.07678030  1
  O  O61  1  0.15015895  0.65571047  0.07751579  1
  O  O62  1  0.49985872  0.85439951  0.07584150  1
  O  O63  1  0.35099828  0.85937524  0.57782539  1
  O  O64  1  0.50456139  0.65476942  0.57880386  1
  O  O65  1  0.14623619  0.50282789  0.57861306  1
  O  O66  1  0.31024538  0.82646361  0.25309523  1
  O  O67  1  0.52356393  0.68751161  0.25416342  1
  O  O68  1  0.16871493  0.47256372  0.25395495  1
  O  O69  1  0.29790216  0.47218494  0.75548769  1
  O  O70  1  0.17033332  0.69078876  0.75527564  1
  O  O71  1  0.52200898  0.82952723  0.75598815  1
loop_
_geom_bond_atom_site_label_1
_geom_bond_atom_site_label_2
_geom_bond_distance
_geom_bond_site_symmetry_2
Na0 O48 2.329011 1_555
Na0 O50 2.336447 1_555
Na0 O69 2.393393 1_655
Na0 O12 2.463235 1_555
Na0 O70 2.510525 1_655
Na0 O7 2.755263 1_655
Na0 O33 2.794512 1_655
Na0 O5 2.864517 1_555
Na1 O62 2.390229 1_555
Na1 O47 2.394618 1_565
Na1 O61 2.442246 1_555
Na1 O45 2.465228 1_455
Na1 O11 2.635820 1_555
Na1 O16 2.664621 1_565
Na1 O26 2.734232 1_554
Na1 O18 2.755419 1_565
Na2 O36 2.329747 1_545
Na2 O38 2.335647 1_555
Na2 O57 2.389406 1_555
Na2 O58 2.466406 1_555
Na2 O0 2.503076 1_555
Na2 O31 2.687327 1_545
Na2 O21 2.843782 1_555
Na2 O29 2.889020 1_545
Na3 O37 2.376186 1_555
Na3 O36 2.536135 1_655
Na3 O38 2.538429 1_665
Na3 O44 2.556111 1_555
Na3 O42 2.566422 1_565
Na3 O43 2.738644 1_665
Na4 O39 2.495267 1_655
Na4 O41 2.497171 1_545
Na4 O46 2.513141 1_556
Na4 O40 2.579959 1_645
Na4 O45 2.584280 1_546
Na4 O47 2.599277 1_656
Na5 O49 2.399225 1_555
Na5 O50 2.482065 1_555
Na5 O48 2.518076 1_555
Na5 O56 2.617893 1_555
Na5 O54 2.623898 1_555
Na5 O55 2.695490 1_555
Na6 O53 2.420124 1_555
Na6 O51 2.457152 1_555
Na6 O52 2.478618 1_555
Na6 O59 2.657416 1_555
Na6 O58 2.681990 1_555
Na6 O57 2.725465 1_555
Na7 O68 2.498435 1_555
Na7 O66 2.509466 1_555
Na7 O67 2.511305 1_555
Na7 O60 2.548864 1_555
Na7 O61 2.577192 1_555
Na7 O62 2.619696 1_555
Na8 O64 2.463021 1_555
Na8 O71 2.522906 1_555
Na8 O69 2.557546 1_555
Na8 O65 2.564108 1_555
Na8 O63 2.579709 1_555
Na8 O70 2.609589 1_555
O0 P0 1.520897 1_555
O0 Zn0 2.051070 1_455
O1 S0 1.459983 1_555
O1 Zn0 2.079776 1_565
O2 S1 1.458955 1_655
O2 Zn0 2.074805 1_555
O3 P1 1.546772 1_555
O3 Sn0 2.017572 1_545
O4 P2 1.538534 1_655
O4 Sn0 2.011365 1_655
O5 P3 1.555993 1_545
O5 Sn0 2.035954 1_645
O6 P3 1.549647 1_555
O6 Sn1 2.022743 1_555
O7 P1 1.564541 1_555
O7 Sn1 2.050399 1_445
O8 P2 1.547909 1_555
O8 Sn1 2.033698 1_455
O9 S0 1.517441 1_555
O9 Sn2 2.086846 1_555
O10 S1 1.515586 1_555
O10 Sn2 2.092492 1_445
O11 P0 1.595228 1_565
O11 Sn2 2.035500 1_455
O12 P4 1.514400 1_555
O12 Zn1 2.107979 1_555
O13 S2 1.453087 1_555
O13 Zn1 2.174621 1_555
O14 P5 1.502087 1_555
O14 Zn1 1.970484 1_555
O15 P6 1.497340 1_555
O15 Zn2 2.050598 1_555
O16 P7 1.506704 1_555
O16 Zn2 2.010051 1_555
O17 P8 1.499686 1_555
O17 Zn2 1.996148 1_555
O18 P8 1.566668 1_555
O18 Sn3 2.070413 1_554
O19 P6 1.554391 1_555
O19 Sn3 2.041272 1_554
O20 P7 1.555308 1_555
O20 Sn3 2.054046 1_554
O21 S2 1.505129 1_555
O21 Sn4 2.167167 1_555
O22 P5 1.558177 1_555
O22 Sn4 2.017254 1_555
O23 P4 1.558485 1_555
O23 Sn4 2.020928 1_555
O24 P9 1.538038 1_555
O24 Sn5 2.028800 1_556
O25 P10 1.537688 1_555
O25 Sn5 2.020173 1_556
O26 P11 1.551028 1_555
O26 Sn5 2.052891 1_556
O27 P12 1.545821 1_555
O27 Sn6 2.026210 1_555
O28 P13 1.537137 1_555
O28 Sn6 1.998146 1_555
O29 P14 1.554597 1_555
O29 Sn6 2.028814 1_555
O30 P14 1.549825 1_555
O30 Sn7 2.016208 1_555
O31 P12 1.568930 1_555
O31 Sn7 2.039244 1_555
O32 P13 1.552422 1_555
O32 Sn7 2.041215 1_555
O33 P10 1.550315 1_555
O33 Sn8 2.063289 1_555
O34 P11 1.537299 1_555
O34 Sn8 2.038082 1_555
O35 P9 1.540811 1_555
O35 Sn8 2.026662 1_555
O36 P14 1.520520 1_555
O36 Zn0 2.099372 1_465
O37 P12 1.503461 1_555
O37 Zn0 2.081549 1_565
O38 P13 1.520826 1_555
O38 Zn0 2.079395 1_455
O39 P10 1.546720 1_555
O39 Sn0 2.072930 1_545
O40 P11 1.546143 1_555
O40 Sn0 2.073072 1_555
O41 P9 1.546544 1_555
O41 Sn0 2.066021 1_655
O42 P4 1.566911 1_555
O42 Sn1 2.062090 1_545
O43 S2 1.494437 1_555
O43 Sn1 2.177378 1_445
O44 P5 1.565225 1_555
O44 Sn1 2.052438 1_555
O45 P6 1.582652 1_555
O45 Sn2 2.084473 1_555
O46 P7 1.555364 1_555
O46 Sn2 2.058617 1_545
O47 P8 1.579026 1_555
O47 Sn2 2.092476 1_445
O48 P3 1.520778 1_545
O48 Zn1 2.151125 1_555
O49 P1 1.504085 1_555
O49 Zn1 2.066748 1_555
O50 P2 1.522996 1_655
O50 Zn1 2.086097 1_555
O51 S0 1.449665 1_555
O51 Zn2 2.244389 1_555
O52 S1 1.454181 1_655
O52 Zn2 2.213813 1_555
O53 P0 1.522362 1_555
O53 Zn2 2.088040 1_555
O54 P9 1.543144 1_555
O54 Sn3 2.066092 1_555
O55 P10 1.541958 1_655
O55 Sn3 2.078031 1_555
O56 P11 1.544270 1_545
O56 Sn3 2.083120 1_555
O57 P12 1.572372 1_545
O57 Sn4 2.081319 1_555
O58 P13 1.571126 1_555
O58 Sn4 2.089448 1_555
O59 P14 1.548199 1_655
O59 Sn4 2.028804 1_555
O60 P8 1.549354 1_555
O60 Sn5 2.032343 1_555
O61 P6 1.578752 1_455
O61 Sn5 2.087162 1_555
O62 P7 1.571698 1_565
O62 Sn5 2.073315 1_555
O63 S2 1.495108 1_565
O63 Sn6 2.165369 1_555
O64 P5 1.566239 1_555
O64 Sn6 2.038734 1_555
O65 P4 1.564648 1_455
O65 Sn6 2.049653 1_555
O66 P0 1.595006 1_565
O66 Sn7 2.049627 1_555
O67 S0 1.521398 1_555
O67 Sn7 2.123610 1_555
O68 S1 1.519218 1_555
O68 Sn7 2.145295 1_555
O69 P1 1.578294 1_555
O69 Sn8 2.092838 1_555
O70 P2 1.572300 1_555
O70 Sn8 2.067739 1_555
O71 P3 1.550704 1_555
O71 Sn8 2.032661 1_555
