# generated using pymatgen
data_AlNi3
_symmetry_space_group_name_H-M   'P 1'
_cell_length_a   3.52293460
_cell_length_b   3.52311529
_cell_length_c   3.52311429
_cell_angle_alpha   90.00000000
_cell_angle_beta   90.00000000
_cell_angle_gamma   90.00000000
_symmetry_Int_Tables_number   1
_chemical_formula_structural   AlNi3
_chemical_formula_sum   'Al1 Ni3'
_cell_volume   43.72785439
_cell_formula_units_Z   1
loop_
 _symmetry_equiv_pos_site_id
 _symmetry_equiv_pos_as_xyz
  1  'x, y, z'
loop_
 _atom_site_type_symbol
 _atom_site_label
 _atom_site_symmetry_multiplicity
 _atom_site_fract_x
 _atom_site_fract_y
 _atom_site_fract_z
 _atom_site_occupancy
  Al  Al0  1  0.00000000  -0.00000000  -0.00000000  1
  Ni  Ni0  1  0.00000000  0.50000000  0.50000000  1
  Ni  Ni1  1  0.50000000  0.00000000  0.50000000  1
  Ni  Ni2  1  0.50000000  0.50000000  0.00000000  1
loop_
_geom_bond_atom_site_label_1
_geom_bond_atom_site_label_2
_geom_bond_distance
_geom_bond_site_symmetry_2
Al0 Ni1 2.491154 1_554
Al0 Ni1 2.491154 1_455
Al0 Ni1 2.491154 1_454
Al0 Ni1 2.491154 1_555
Al0 Ni2 2.491155 1_555
Al0 Ni2 2.491155 1_455
Al0 Ni2 2.491155 1_545
Al0 Ni2 2.491155 1_445
Al0 Ni0 2.491218 1_544
Al0 Ni0 2.491218 1_545
Al0 Ni0 2.491218 1_554
Al0 Ni0 2.491218 1_555
Ni0 Ni2 2.491154 1_455
Ni0 Ni2 2.491154 1_555
Ni0 Ni2 2.491154 1_556
Ni0 Ni2 2.491154 1_456
Ni0 Ni1 2.491155 1_465
Ni0 Ni1 2.491155 1_455
Ni0 Ni1 2.491155 1_555
Ni0 Ni1 2.491155 1_565
Ni1 Ni2 2.491218 1_546
Ni1 Ni2 2.491218 1_545
Ni1 Ni2 2.491218 1_555
Ni1 Ni2 2.491218 1_556
