# generated using pymatgen
data_MgCo6(O2F)4
_symmetry_space_group_name_H-M   'P 1'
_cell_length_a   8.23645863
_cell_length_b   5.61050070
_cell_length_c   5.81224742
_cell_angle_alpha   65.76968110
_cell_angle_beta   62.87354312
_cell_angle_gamma   64.55344055
_symmetry_Int_Tables_number   1
_chemical_formula_structural   MgCo6(O2F)4
_chemical_formula_sum   'Mg1 Co6 O8 F4'
_cell_volume   208.02312267
_cell_formula_units_Z   1
loop_
 _symmetry_equiv_pos_site_id
 _symmetry_equiv_pos_as_xyz
  1  'x, y, z'
loop_
 _atom_site_type_symbol
 _atom_site_label
 _atom_site_symmetry_multiplicity
 _atom_site_fract_x
 _atom_site_fract_y
 _atom_site_fract_z
 _atom_site_occupancy
  Mg  Mg0  1  0.14927853  0.31767445  0.89340136  1
  Co  Co0  1  0.82826702  0.66079477  0.66207011  1
  Co  Co1  1  0.33510233  0.68365830  0.65041167  1
  Co  Co2  1  0.65142790  0.33564946  0.33883116  1
  Co  Co3  1  0.21894725  0.36838208  0.35229671  1
  Co  Co4  1  0.51519955  0.00122239  0.00189169  1
  Co  Co5  1  0.97386802  0.95320611  0.98937711  1
  O  O0  1  0.34212981  0.37008935  0.96972069  1
  O  O1  1  0.66873030  0.02611706  0.63601884  1
  O  O2  1  0.36656879  0.43706194  0.47606001  1
  O  O3  1  0.07212632  0.73689461  0.76452416  1
  O  O4  1  0.33808830  0.98588173  0.35267341  1
  O  O5  1  0.66615473  0.62940771  0.02661917  1
  O  O6  1  0.00046910  0.30156107  0.70699572  1
  O  O7  1  0.99401648  0.68793081  0.30611237  1
  F  F0  1  0.61123322  0.58222176  0.54807694  1
  F  F1  1  0.28611404  0.91720025  0.87598105  1
  F  F2  1  0.94310918  0.22053988  0.21646823  1
  F  F3  1  0.69393213  0.09403128  0.10945460  1
loop_
_geom_bond_atom_site_label_1
_geom_bond_atom_site_label_2
_geom_bond_distance
_geom_bond_site_symmetry_2
Mg0 O0 1.989299 1_555
Mg0 O6 2.017628 1_555
Mg0 O3 2.049520 1_555
Mg0 O2 2.296376 1_555
Co0 O7 1.873962 1_555
Co0 O1 1.887557 1_565
Co0 O6 1.895059 1_655
Co0 O5 1.902427 1_556
Co0 F0 2.413663 1_555
Co0 O3 2.570496 1_655
Co1 O4 1.859831 1_555
Co1 O3 1.875431 1_555
Co1 O2 1.900373 1_555
Co1 F0 1.944801 1_555
Co1 O0 1.968058 1_555
Co1 F1 2.017888 1_555
Co2 O5 1.881546 1_555
Co2 O1 1.889299 1_555
Co2 O2 1.995873 1_555
Co2 F0 2.030456 1_555
Co2 F2 2.044538 1_555
Co2 F3 2.094662 1_555
Co3 O2 1.889976 1_555
Co3 O4 1.938242 1_545
Co3 O0 1.976748 1_554
Co3 O7 1.980599 1_455
Co3 O6 2.047241 1_555
Co4 O4 1.882528 1_545
Co4 O1 1.896450 1_554
Co4 O5 1.899007 1_545
Co4 O0 1.933968 1_554
Co4 F3 2.143438 1_555
Co4 F1 2.573857 1_544
Co5 O3 1.824598 1_655
Co5 O7 1.857180 1_556
Co5 F3 1.961435 1_566
Co5 O6 1.992163 1_665
Co5 F2 2.247101 1_566
Co5 F1 2.281769 1_655
F1 Mg0 2.058014 1_565
F2 Mg0 1.937537 1_654
