# generated using pymatgen
data_LaMgTa2CuClO7
_symmetry_space_group_name_H-M   'P 1'
_cell_length_a   4.04663253
_cell_length_b   4.04667053
_cell_length_c   11.73941100
_cell_angle_alpha   89.99966886
_cell_angle_beta   90.00067226
_cell_angle_gamma   90.05873076
_symmetry_Int_Tables_number   1
_chemical_formula_structural   LaMgTa2CuClO7
_chemical_formula_sum   'La1 Mg1 Ta2 Cu1 Cl1 O7'
_cell_volume   192.23731626
_cell_formula_units_Z   1
loop_
 _symmetry_equiv_pos_site_id
 _symmetry_equiv_pos_as_xyz
  1  'x, y, z'
loop_
 _atom_site_type_symbol
 _atom_site_label
 _atom_site_symmetry_multiplicity
 _atom_site_fract_x
 _atom_site_fract_y
 _atom_site_fract_z
 _atom_site_occupancy
  La  La0  1  0.99999900  0.99998600  0.02638200  1
  Mg  Mg0  1  0.00000200  0.00000900  0.70454700  1
  Ta  Ta0  1  0.49999600  0.50000700  0.82211100  1
  Ta  Ta1  1  0.49999000  0.50001100  0.19119300  1
  Cu  Cu0  1  0.49999900  0.49999600  0.50121300  1
  Cl  Cl0  1  0.99999900  0.99999900  0.51157000  1
  O  O0  1  0.49999500  0.99999200  0.82666700  1
  O  O1  1  0.00000500  0.50000300  0.82666700  1
  O  O2  1  0.50000700  0.99999100  0.15216700  1
  O  O3  1  0.99999500  0.50001000  0.15216500  1
  O  O4  1  0.50000700  0.50000400  0.66250100  1
  O  O5  1  0.49999200  0.49999900  0.34289400  1
  O  O6  1  0.50001500  0.49999300  0.99658900  1
loop_
_geom_bond_atom_site_label_1
_geom_bond_atom_site_label_2
_geom_bond_distance
_geom_bond_site_symmetry_2
La0 O3 2.504767 1_555
La0 O2 2.504839 1_555
La0 O2 2.504863 1_655
La0 O3 2.504938 1_565
La0 O6 2.881188 1_554
La0 O6 2.881321 1_664
La0 O6 2.884136 1_564
La0 O6 2.884196 1_654
La0 O1 3.096855 1_654
La0 O0 3.096872 1_554
La0 O0 3.096886 1_654
La0 O1 3.096928 1_664
Mg0 O0 2.479694 1_545
Mg0 O1 2.479733 1_555
Mg0 O1 2.479760 1_545
Mg0 O0 2.479768 1_445
Cu0 O5 1.858572 1_555
Cu0 O4 1.893426 1_555
Cl0 Mg0 2.265436 1_665
Cl0 Cu0 2.862523 1_665
Cl0 Cu0 2.862539 1_555
Cl0 Cu0 2.865451 1_565
Cl0 Cu0 2.865472 1_655
O0 Ta0 2.023982 1_555
O0 Ta0 2.024102 1_565
O1 Ta0 2.023987 1_555
O1 Ta0 2.024059 1_455
O2 Ta1 2.074474 1_555
O2 Ta1 2.074637 1_565
O3 Ta1 2.074517 1_655
O3 Ta1 2.074567 1_555
O4 Ta0 1.873727 1_555
O5 Ta1 1.780880 1_555
O6 Ta0 2.048269 1_555
O6 Ta1 2.284536 1_556
