# generated using pymatgen
data_MgV2Zn4O8
_symmetry_space_group_name_H-M   'P 1'
_cell_length_a   6.02644351
_cell_length_b   6.02644305
_cell_length_c   6.29425246
_cell_angle_alpha   61.53211873
_cell_angle_beta   61.53212250
_cell_angle_gamma   59.10528731
_symmetry_Int_Tables_number   1
_chemical_formula_structural   MgV2Zn4O8
_chemical_formula_sum   'Mg1 V2 Zn4 O8'
_cell_volume   164.08960293
_cell_formula_units_Z   1
loop_
 _symmetry_equiv_pos_site_id
 _symmetry_equiv_pos_as_xyz
  1  'x, y, z'
loop_
 _atom_site_type_symbol
 _atom_site_label
 _atom_site_symmetry_multiplicity
 _atom_site_fract_x
 _atom_site_fract_y
 _atom_site_fract_z
 _atom_site_occupancy
  Mg  Mg0  1  0.12500000  0.12500000  0.62500000  1
  V  V0  1  0.62500000  0.62500000  0.12500000  1
  V  V1  1  0.62500000  0.62500000  0.62500000  1
  Zn  Zn0  1  0.96069400  0.96069400  0.09239100  1
  Zn  Zn1  1  0.28930600  0.28930600  0.15760900  1
  Zn  Zn2  1  0.12500000  0.62500000  0.62500000  1
  Zn  Zn3  1  0.62500000  0.12500000  0.62500000  1
  O  O0  1  0.38750100  0.38750100  0.35907300  1
  O  O1  1  0.38826900  0.87457100  0.37764800  1
  O  O2  1  0.39900900  0.39900900  0.80420100  1
  O  O3  1  0.37542900  0.86173200  0.87235200  1
  O  O4  1  0.87457100  0.38826800  0.37764800  1
  O  O5  1  0.85099100  0.85099100  0.44579900  1
  O  O6  1  0.86173100  0.37542900  0.87235200  1
  O  O7  1  0.86249900  0.86249900  0.89092700  1
loop_
_geom_bond_atom_site_label_1
_geom_bond_atom_site_label_2
_geom_bond_distance
_geom_bond_site_symmetry_2
Mg0 O4 2.155237 1_455
Mg0 O3 2.155237 1_545
Mg0 O6 2.155237 1_455
Mg0 O1 2.155237 1_545
Mg0 O7 2.308263 1_445
Mg0 O0 2.308263 1_555
O0 Zn1 2.024534 1_555
O0 V0 2.085865 1_555
O0 Zn3 2.187957 1_555
O0 Zn2 2.187958 1_555
O1 V1 2.098333 1_555
O1 Zn1 2.115986 1_565
O1 V0 2.177170 1_555
O1 Zn2 2.250899 1_555
O2 Zn1 1.862030 1_556
O2 Zn2 1.963552 1_555
O2 Zn3 1.963552 1_555
O2 V1 1.989405 1_555
O3 V1 2.098337 1_555
O3 Zn0 2.115987 1_456
O3 V0 2.177170 1_556
O3 Zn3 2.250895 1_565
O4 V1 2.098337 1_555
O4 Zn1 2.115987 1_655
O4 V0 2.177170 1_555
O4 Zn3 2.250895 1_555
O5 Zn0 1.862030 1_555
O5 Zn2 1.963552 1_655
O5 Zn3 1.963552 1_565
O5 V1 1.989405 1_555
O6 V1 2.098333 1_555
O6 Zn0 2.115986 1_546
O6 V0 2.177170 1_556
O6 Zn2 2.250899 1_655
O7 Zn0 2.024534 1_556
O7 V0 2.085865 1_556
O7 Zn3 2.187957 1_565
O7 Zn2 2.187958 1_655
