# generated using pymatgen
data_NaMg3Ta(SO4)6
_symmetry_space_group_name_H-M   'P 1'
_cell_length_a   8.70077330
_cell_length_b   8.70077302
_cell_length_c   22.55711334
_cell_angle_alpha   90.00000000
_cell_angle_beta   90.00000000
_cell_angle_gamma   120.00000105
_symmetry_Int_Tables_number   1
_chemical_formula_structural   NaMg3Ta(SO4)6
_chemical_formula_sum   'Na3 Mg9 Ta3 S18 O72'
_cell_volume   1478.86946292
_cell_formula_units_Z   3
loop_
 _symmetry_equiv_pos_site_id
 _symmetry_equiv_pos_as_xyz
  1  'x, y, z'
loop_
 _atom_site_type_symbol
 _atom_site_label
 _atom_site_symmetry_multiplicity
 _atom_site_fract_x
 _atom_site_fract_y
 _atom_site_fract_z
 _atom_site_occupancy
  Na  Na0  1  0.00000000  0.00000000  0.00288496  1
  Na  Na1  1  0.66666700  0.33333300  0.83582493  1
  Na  Na2  1  0.66666700  0.33333300  0.32560756  1
  Mg  Mg0  1  0.00000000  0.00000000  0.34670820  1
  Mg  Mg1  1  0.00000000  0.00000000  0.85561248  1
  Mg  Mg2  1  0.00000000  0.00000000  0.15610925  1
  Mg  Mg3  1  0.66666700  0.33333300  0.68548773  1
  Mg  Mg4  1  0.66666700  0.33333300  0.19037987  1
  Mg  Mg5  1  0.66666700  0.33333300  0.98297687  1
  Mg  Mg6  1  0.66666700  0.33333300  0.47888842  1
  Mg  Mg7  1  0.33333300  0.66666700  0.30359720  1
  Mg  Mg8  1  0.33333300  0.66666700  0.81268007  1
  Ta  Ta0  1  0.00000000  0.00000000  0.64721440  1
  Ta  Ta1  1  0.33333300  0.66666700  0.02487923  1
  Ta  Ta2  1  0.33333300  0.66666700  0.51490023  1
  S  S0  1  0.29325614  0.00197241  0.25077116  1
  S  S1  1  0.70871627  0.70674386  0.25077116  1
  S  S2  1  0.99802759  0.29128373  0.25077116  1
  S  S3  1  0.29333749  0.29167153  0.75210311  1
  S  S4  1  0.99833404  0.70666251  0.75210311  1
  S  S5  1  0.70832847  0.00166596  0.75210311  1
  S  S6  1  0.95583471  0.33560927  0.58367101  1
  S  S7  1  0.37977556  0.04416529  0.58367101  1
  S  S8  1  0.66439073  0.62022444  0.58367101  1
  S  S9  1  0.94979961  0.62527508  0.08285488  1
  S  S10  1  0.67547647  0.05020039  0.08285488  1
  S  S11  1  0.37472492  0.32452353  0.08285488  1
  S  S12  1  0.62287038  0.66475368  0.91557271  1
  S  S13  1  0.04188231  0.37712962  0.91557271  1
  S  S14  1  0.33524632  0.95811769  0.91557271  1
  S  S15  1  0.62857696  0.96258322  0.41312291  1
  S  S16  1  0.33400526  0.37142304  0.41312291  1
  S  S17  1  0.03741678  0.66599474  0.41312291  1
  O  O0  1  0.21403264  0.03376285  0.30433865  1
  O  O1  1  0.81973021  0.78596736  0.30433865  1
  O  O2  1  0.96623715  0.18026979  0.30433865  1
  O  O3  1  0.20776901  0.17584944  0.80277144  1
  O  O4  1  0.96808043  0.79223099  0.80277144  1
  O  O5  1  0.82415056  0.03191957  0.80277144  1
  O  O6  1  0.80362627  0.97897729  0.69609326  1
  O  O7  1  0.17535103  0.19637373  0.69609326  1
  O  O8  1  0.02102271  0.82464897  0.69609326  1
  O  O9  1  0.78831163  0.81331094  0.19680020  1
  O  O10  1  0.02499931  0.21168837  0.19680020  1
  O  O11  1  0.18668906  0.97500069  0.19680020  1
  O  O12  1  0.88099189  0.36531962  0.63695923  1
  O  O13  1  0.48432873  0.11900811  0.63695923  1
  O  O14  1  0.63468038  0.51567127  0.63695923  1
  O  O15  1  0.88210305  0.51524904  0.13488927  1
  O  O16  1  0.63314700  0.11789695  0.13488927  1
  O  O17  1  0.48475096  0.36685300  0.13488927  1
  O  O18  1  0.45426807  0.30436206  0.02833441  1
  O  O19  1  0.85009500  0.54573193  0.02833441  1
  O  O20  1  0.69563794  0.14990500  0.02833441  1
  O  O21  1  0.45092165  0.15233672  0.53078392  1
  O  O22  1  0.70141607  0.54907835  0.53078392  1
  O  O23  1  0.84766328  0.29858393  0.53078392  1
  O  O24  1  0.53264499  0.68975241  0.96998898  1
  O  O25  1  0.15710642  0.46735501  0.96998898  1
  O  O26  1  0.31024759  0.84289358  0.96998898  1
  O  O27  1  0.52996959  0.84190962  0.47152490  1
  O  O28  1  0.31193903  0.47003041  0.47152490  1
  O  O29  1  0.15809038  0.68806097  0.47152490  1
  O  O30  1  0.12712019  0.63529234  0.36469587  1
  O  O31  1  0.50817115  0.87287981  0.36469587  1
  O  O32  1  0.36470766  0.49182885  0.36469587  1
  O  O33  1  0.12471935  0.48534928  0.86288866  1
  O  O34  1  0.36062894  0.87528065  0.86288866  1
  O  O35  1  0.51465072  0.63937106  0.86288866  1
  O  O36  1  0.02962757  0.82768798  0.41248242  1
  O  O37  1  0.79806041  0.97037243  0.41248242  1
  O  O38  1  0.17231202  0.20193959  0.41248242  1
  O  O39  1  0.02980539  0.20195970  0.91253574  1
  O  O40  1  0.17215430  0.97019461  0.91253574  1
  O  O41  1  0.79804030  0.82784570  0.91253574  1
  O  O42  1  0.98084801  0.17527983  0.59411271  1
  O  O43  1  0.19443182  0.01915199  0.59411271  1
  O  O44  1  0.82472017  0.80556818  0.59411271  1
  O  O45  1  0.98414850  0.80729900  0.08839894  1
  O  O46  1  0.82315050  0.01585150  0.08839894  1
  O  O47  1  0.19270100  0.17684950  0.08839894  1
  O  O48  1  0.69414628  0.16056675  0.74153600  1
  O  O49  1  0.46642147  0.30585372  0.74153600  1
  O  O50  1  0.83943325  0.53357853  0.74153600  1
  O  O51  1  0.69055045  0.52824463  0.24419993  1
  O  O52  1  0.83769518  0.30944955  0.24419993  1
  O  O53  1  0.47175537  0.16230482  0.24419993  1
  O  O54  1  0.64055680  0.50680524  0.92376736  1
  O  O55  1  0.86624944  0.35944320  0.92376736  1
  O  O56  1  0.49319476  0.13375056  0.92376736  1
  O  O57  1  0.63938104  0.13244678  0.42608462  1
  O  O58  1  0.49306674  0.36061896  0.42608462  1
  O  O59  1  0.86755322  0.50693326  0.42608462  1
  O  O60  1  0.35592586  0.49402274  0.07139514  1
  O  O61  1  0.13809588  0.64407414  0.07139514  1
  O  O62  1  0.50597726  0.86190412  0.07139514  1
  O  O63  1  0.35083747  0.86106433  0.57473688  1
  O  O64  1  0.51022586  0.64916253  0.57473688  1
  O  O65  1  0.13893567  0.48977414  0.57473688  1
  O  O66  1  0.30989205  0.84437021  0.25857063  1
  O  O67  1  0.53447716  0.69010795  0.25857063  1
  O  O68  1  0.15562979  0.46552284  0.25857063  1
  O  O69  1  0.30266111  0.46232722  0.75498658  1
  O  O70  1  0.15966512  0.69733889  0.75498658  1
  O  O71  1  0.53767278  0.84033488  0.75498658  1
loop_
_geom_bond_atom_site_label_1
_geom_bond_atom_site_label_2
_geom_bond_distance
_geom_bond_site_symmetry_2
Na0 O45 2.513915 1_445
Na0 O47 2.513915 1_555
Na0 O46 2.513915 1_455
Na0 O40 2.617794 1_544
Na0 O41 2.617794 1_444
Na0 O39 2.617794 1_554
Na1 O56 2.570562 1_555
Na1 O54 2.570562 1_555
Na1 O55 2.570562 1_555
Na1 O50 2.683248 1_555
Na1 O48 2.683248 1_555
Na1 O49 2.683248 1_555
Na2 O51 2.436978 1_555
Na2 O53 2.436978 1_555
Na2 O52 2.436978 1_555
Na2 O57 2.798810 1_555
Na2 O59 2.798810 1_555
Na2 O58 2.798810 1_555
Mg0 O1 1.980060 1_445
Mg0 O2 1.980060 1_455
Mg0 O0 1.980060 1_555
Mg0 O38 2.214040 1_555
Mg0 O36 2.214040 1_545
Mg0 O37 2.214040 1_445
Mg1 O4 2.064888 1_445
Mg1 O3 2.064888 1_555
Mg1 O5 2.064888 1_455
Mg1 O40 2.085197 1_545
Mg1 O41 2.085197 1_445
Mg1 O39 2.085197 1_555
Mg2 O10 1.970175 1_555
Mg2 O9 1.970175 1_445
Mg2 O11 1.970175 1_545
Mg2 O45 2.220748 1_445
Mg2 O47 2.220748 1_555
Mg2 O46 2.220748 1_455
Mg3 O13 2.057718 1_555
Mg3 O14 2.057718 1_555
Mg3 O12 2.057718 1_555
Mg3 O50 2.067510 1_555
Mg3 O48 2.067510 1_555
Mg3 O49 2.067510 1_555
Mg4 O51 2.010135 1_555
Mg4 O53 2.010135 1_555
Mg4 O52 2.010135 1_555
Mg4 O17 2.149127 1_555
Mg4 O15 2.149127 1_555
Mg4 O16 2.149127 1_555
Mg5 O19 2.014881 1_556
Mg5 O18 2.014881 1_556
Mg5 O20 2.014881 1_556
Mg5 O56 2.111026 1_555
Mg5 O54 2.111026 1_555
Mg5 O55 2.111026 1_555
Mg6 O57 2.028586 1_555
Mg6 O59 2.028586 1_555
Mg6 O58 2.028586 1_555
Mg6 O22 2.101880 1_555
Mg6 O21 2.101880 1_555
Mg6 O23 2.101880 1_555
Mg7 O68 1.943997 1_555
Mg7 O66 1.943997 1_555
Mg7 O67 1.943997 1_555
Mg7 O31 2.168729 1_555
Mg7 O32 2.168729 1_555
Mg7 O30 2.168729 1_555
Mg8 O34 2.050026 1_555
Mg8 O33 2.050026 1_555
Mg8 O35 2.050026 1_555
Mg8 O70 2.109826 1_555
Mg8 O71 2.109826 1_555
Mg8 O69 2.109826 1_555
O0 S0 1.484038 1_555
O1 S1 1.484038 1_555
O2 S2 1.484038 1_555
O3 S3 1.458032 1_555
O4 S4 1.458032 1_555
O5 S5 1.458032 1_555
O6 S5 1.576832 1_565
O6 Ta0 1.963646 1_665
O7 S3 1.576832 1_555
O7 Ta0 1.963646 1_555
O8 S4 1.576832 1_455
O8 Ta0 1.963646 1_565
O9 S1 1.476259 1_555
O10 S2 1.476259 1_455
O11 S0 1.476259 1_565
O12 S6 1.450545 1_555
O13 S7 1.450545 1_555
O14 S8 1.450545 1_555
O15 S9 1.441247 1_555
O16 S10 1.441246 1_555
O17 S11 1.441247 1_555
O18 S11 1.464114 1_555
O19 S9 1.464114 1_555
O20 S10 1.464114 1_555
O21 S7 1.452444 1_555
O22 S8 1.452444 1_555
O23 S6 1.452444 1_555
O24 S12 1.530041 1_555
O24 Ta1 2.057283 1_556
O25 S13 1.530041 1_555
O25 Ta1 2.057283 1_556
O26 S14 1.530041 1_555
O26 Ta1 2.057283 1_556
O27 S15 1.634983 1_555
O27 Ta2 1.897533 1_555
O28 S16 1.634983 1_555
O28 Ta2 1.897533 1_555
O29 S17 1.634983 1_555
O29 Ta2 1.897534 1_555
O30 S17 1.443018 1_555
O31 S15 1.443018 1_555
O32 S16 1.443018 1_555
O33 S13 1.462778 1_555
O34 S14 1.462778 1_555
O35 S12 1.462778 1_555
O36 S17 1.442010 1_555
O37 S15 1.442018 1_555
O38 S16 1.442014 1_555
O39 S13 1.475976 1_555
O40 S14 1.475968 1_555
O41 S12 1.475972 1_555
O42 S6 1.533766 1_555
O42 Ta0 2.010601 1_655
O43 S7 1.533774 1_555
O43 Ta0 2.010601 1_555
O44 S8 1.533771 1_555
O44 Ta0 2.010601 1_665
O45 S9 1.462838 1_555
O46 S10 1.462830 1_555
O47 S11 1.462835 1_555
O48 S5 1.467691 1_555
O49 S3 1.467700 1_555
O50 S4 1.467696 1_555
O51 S1 1.487797 1_555
O52 S2 1.487788 1_555
O53 S0 1.487793 1_555
O54 S12 1.468999 1_555
O55 S13 1.468982 1_655
O56 S14 1.468989 1_545
O57 S15 1.462774 1_545
O58 S16 1.462791 1_555
O59 S17 1.462782 1_655
O60 S11 1.584221 1_555
O60 Ta1 1.921276 1_555
O61 S9 1.584204 1_455
O61 Ta1 1.921276 1_555
O62 S10 1.584212 1_565
O62 Ta1 1.921276 1_555
O63 S7 1.496970 1_565
O63 Ta2 2.109088 1_555
O64 S8 1.496987 1_555
O64 Ta2 2.109088 1_555
O65 S6 1.496976 1_455
O65 Ta2 2.109088 1_555
O66 S0 1.459707 1_565
O67 S1 1.459715 1_555
O68 S2 1.459712 1_455
O69 S3 1.447445 1_555
O70 S4 1.447436 1_455
O71 S5 1.447441 1_565
