# generated using pymatgen
data_Nb9As7Pd
_symmetry_space_group_name_H-M   'P 1'
_cell_length_a   16.79421763
_cell_length_b   16.79421763
_cell_length_c   3.59794100
_cell_angle_alpha   90.00000000
_cell_angle_beta   90.00000000
_cell_angle_gamma   119.99999855
_symmetry_Int_Tables_number   1
_chemical_formula_structural   Nb9As7Pd
_chemical_formula_sum   'Nb27 As21 Pd3'
_cell_volume   878.82869546
_cell_formula_units_Z   3
loop_
 _symmetry_equiv_pos_site_id
 _symmetry_equiv_pos_as_xyz
  1  'x, y, z'
loop_
 _atom_site_type_symbol
 _atom_site_label
 _atom_site_symmetry_multiplicity
 _atom_site_fract_x
 _atom_site_fract_y
 _atom_site_fract_z
 _atom_site_occupancy
  Nb  Nb0  1  0.46663300  0.75454600  0.00000000  1
  Nb  Nb1  1  0.24545400  0.71208700  0.00000000  1
  Nb  Nb2  1  0.02946000  0.67453800  0.00000000  1
  Nb  Nb3  1  0.32546200  0.35492200  0.00000000  1
  Nb  Nb4  1  0.50496400  0.57718600  0.00000000  1
  Nb  Nb5  1  0.64507800  0.97054000  0.00000000  1
  Nb  Nb6  1  0.31414000  0.20245800  0.50000000  1
  Nb  Nb7  1  0.88831800  0.68586000  0.50000000  1
  Nb  Nb8  1  0.79754200  0.11168200  0.50000000  1
  Nb  Nb9  1  0.87345800  0.00494800  0.00000000  1
  Nb  Nb10  1  0.99505200  0.86851000  0.00000000  1
  Nb  Nb11  1  0.13149000  0.12654200  0.00000000  1
  Nb  Nb12  1  0.68257000  0.79912800  0.00000000  1
  Nb  Nb13  1  0.20087200  0.88344200  0.00000000  1
  Nb  Nb14  1  0.11655800  0.31743000  0.00000000  1
  Nb  Nb15  1  0.35595500  0.02995100  0.50000000  1
  Nb  Nb16  1  0.42281400  0.92777700  0.00000000  1
  Nb  Nb17  1  0.07222300  0.49503600  0.00000000  1
  Nb  Nb18  1  0.92773100  0.50541600  0.50000000  1
  Nb  Nb19  1  0.49458400  0.42231500  0.50000000  1
  Nb  Nb20  1  0.57768500  0.07226900  0.50000000  1
  Nb  Nb21  1  0.75397200  0.28759400  0.50000000  1
  Nb  Nb22  1  0.71240600  0.46637700  0.50000000  1
  Nb  Nb23  1  0.53362300  0.24602800  0.50000000  1
  Nb  Nb24  1  0.97004900  0.32600400  0.50000000  1
  Nb  Nb25  1  0.67399600  0.64404500  0.50000000  1
  Nb  Nb26  1  0.28791300  0.53336700  0.00000000  1
  As  As0  1  0.00000000  0.00000000  0.50000000  1
  As  As1  1  0.33333300  0.66666700  0.50000000  1
  As  As2  1  0.66666700  0.33333300  0.00000000  1
  As  As3  1  0.88472700  0.37352000  0.00000000  1
  As  As4  1  0.62648000  0.51120600  0.00000000  1
  As  As5  1  0.48879400  0.11527300  0.00000000  1
  As  As6  1  0.71045200  0.15715800  0.00000000  1
  As  As7  1  0.84284200  0.55329400  0.00000000  1
  As  As8  1  0.44670600  0.28954800  0.00000000  1
  As  As9  1  0.92709100  0.19518200  0.00000000  1
  As  As10  1  0.80481800  0.73190900  0.00000000  1
  As  As11  1  0.26809100  0.07290900  0.00000000  1
  As  As12  1  0.51218200  0.88561100  0.50000000  1
  As  As13  1  0.11438900  0.62657100  0.50000000  1
  As  As14  1  0.37342900  0.48781800  0.50000000  1
  As  As15  1  0.73695400  0.93048100  0.50000000  1
  As  As16  1  0.06951900  0.80647300  0.50000000  1
  As  As17  1  0.19352700  0.26304600  0.50000000  1
  As  As18  1  0.55278700  0.70962200  0.50000000  1
  As  As19  1  0.29037800  0.84316500  0.50000000  1
  As  As20  1  0.15683500  0.44721300  0.50000000  1
  Pd  Pd0  1  0.84483100  0.85045100  0.50000000  1
  Pd  Pd1  1  0.14954900  0.99437900  0.50000000  1
  Pd  Pd2  1  0.00562100  0.15516900  0.50000000  1
loop_
_geom_bond_atom_site_label_1
_geom_bond_atom_site_label_2
_geom_bond_distance
_geom_bond_site_symmetry_2
Nb6 Pd1 3.192631 1_545
Nb7 Pd0 3.192619 1_555
Nb8 Pd2 3.192636 1_655
Nb9 Pd2 2.987960 1_654
Nb9 Pd2 2.987960 1_655
Nb9 Pd0 2.992030 1_545
Nb9 Pd0 2.992030 1_544
Nb10 Pd0 2.987955 1_554
Nb10 Pd0 2.987955 1_555
Nb10 Pd1 2.992026 1_654
Nb10 Pd1 2.992026 1_655
Nb11 Pd1 2.987968 1_544
Nb11 Pd1 2.987968 1_545
Nb11 Pd2 2.992017 1_555
Nb11 Pd2 2.992017 1_554
Nb12 Pd0 3.009368 1_555
Nb12 Pd0 3.009368 1_554
Nb13 Pd1 3.009356 1_554
Nb13 Pd1 3.009356 1_555
Nb14 Pd2 3.009366 1_554
Nb14 Pd2 3.009366 1_555
Nb15 Pd1 3.209697 1_545
Nb24 Pd2 3.209713 1_655
Nb25 Pd0 3.209703 1_555
As0 Pd2 2.560048 1_555
As0 Pd0 2.560055 1_445
As0 Pd1 2.560064 1_545
As0 Nb9 2.817119 1_456
As0 Nb9 2.817119 1_455
As0 Nb10 2.817119 1_445
As0 Nb10 2.817119 1_446
As0 Nb11 2.817119 1_556
As0 Nb11 2.817119 1_555
As1 Nb1 2.668723 1_556
As1 Nb1 2.668723 1_555
As1 Nb0 2.668733 1_556
As1 Nb0 2.668733 1_555
As1 Nb26 2.668735 1_556
As1 Nb26 2.668735 1_555
As2 Nb21 2.665038 1_554
As2 Nb21 2.665038 1_555
As2 Nb22 2.665038 1_555
As2 Nb22 2.665038 1_554
As2 Nb23 2.665038 1_555
As2 Nb23 2.665038 1_554
As3 Nb21 2.640447 1_555
As3 Nb21 2.640447 1_554
As3 Nb18 2.657958 1_555
As3 Nb18 2.657958 1_554
As3 Nb24 2.658909 1_555
As3 Nb24 2.658909 1_554
As3 Nb17 2.766570 1_655
As4 Nb22 2.640447 1_555
As4 Nb22 2.640447 1_554
As4 Nb19 2.657955 1_555
As4 Nb19 2.657955 1_554
As4 Nb25 2.658921 1_555
As4 Nb25 2.658921 1_554
As4 Nb4 2.766570 1_555
As5 Nb23 2.640447 1_554
As5 Nb23 2.640447 1_555
As5 Nb20 2.657946 1_554
As5 Nb20 2.657946 1_555
As5 Nb15 2.658919 1_555
As5 Nb15 2.658919 1_554
As5 Nb16 2.766570 1_545
As6 Nb21 2.639703 1_555
As6 Nb21 2.639703 1_554
As6 Nb20 2.657370 1_555
As6 Nb20 2.657370 1_554
As6 Nb8 2.660047 1_555
As6 Nb8 2.660047 1_554
As6 Nb5 2.754460 1_545
As7 Nb22 2.639705 1_555
As7 Nb22 2.639705 1_554
As7 Nb18 2.657370 1_554
As7 Nb18 2.657370 1_555
As7 Nb7 2.660047 1_555
As7 Nb7 2.660047 1_554
As7 Nb2 2.754460 1_655
As8 Nb23 2.639715 1_555
As8 Nb23 2.639715 1_554
As8 Nb19 2.657370 1_555
As8 Nb19 2.657370 1_554
As8 Nb6 2.660047 1_554
As8 Nb6 2.660047 1_555
As8 Nb3 2.754460 1_555
As9 Pd2 2.512663 1_654
As9 Pd2 2.512663 1_655
As9 Nb8 2.623997 1_555
As9 Nb8 2.623997 1_554
As9 Nb24 2.645518 1_554
As9 Nb24 2.645518 1_555
As9 Nb14 2.794124 1_655
As9 Nb9 2.853172 1_555
As10 Pd0 2.512652 1_555
As10 Pd0 2.512652 1_554
As10 Nb7 2.623997 1_555
As10 Nb7 2.623997 1_554
As10 Nb25 2.645518 1_555
As10 Nb25 2.645518 1_554
As10 Nb12 2.794124 1_555
As10 Nb10 2.853172 1_555
As11 Pd1 2.512654 1_544
As11 Pd1 2.512654 1_545
As11 Nb6 2.623997 1_554
As11 Nb6 2.623997 1_555
As11 Nb15 2.645518 1_554
As11 Nb15 2.645518 1_555
As11 Nb13 2.794124 1_545
As11 Nb11 2.853172 1_555
As12 Nb0 2.642474 1_556
As12 Nb0 2.642474 1_555
As12 Nb16 2.655785 1_555
As12 Nb16 2.655785 1_556
As12 Nb5 2.658685 1_556
As12 Nb5 2.658685 1_555
As12 Nb20 2.754722 1_565
As13 Nb1 2.642474 1_556
As13 Nb1 2.642474 1_555
As13 Nb17 2.655796 1_556
As13 Nb17 2.655796 1_555
As13 Nb2 2.658685 1_555
As13 Nb2 2.658685 1_556
As13 Nb18 2.754722 1_455
As14 Nb26 2.642474 1_556
As14 Nb26 2.642474 1_555
As14 Nb4 2.655794 1_556
As14 Nb4 2.655794 1_555
As14 Nb3 2.658685 1_555
As14 Nb3 2.658685 1_556
As14 Nb19 2.754722 1_555
As15 Nb12 2.630968 1_555
As15 Nb12 2.630968 1_556
As15 Nb5 2.666039 1_556
As15 Nb5 2.666039 1_555
As15 Nb9 2.681190 1_565
As15 Nb9 2.681190 1_566
As15 Nb8 2.683194 1_565
As15 Pd0 2.742946 1_555
As16 Nb13 2.630968 1_556
As16 Nb13 2.630968 1_555
As16 Nb2 2.666039 1_556
As16 Nb2 2.666039 1_555
As16 Nb10 2.681190 1_456
As16 Nb10 2.681190 1_455
As16 Nb7 2.683194 1_455
As16 Pd1 2.742931 1_555
As17 Nb14 2.630968 1_555
As17 Nb14 2.630968 1_556
As17 Nb3 2.666039 1_555
As17 Nb3 2.666039 1_556
As17 Nb11 2.681190 1_556
As17 Nb11 2.681190 1_555
As17 Nb6 2.683194 1_555
As17 Pd2 2.742932 1_555
As18 Nb12 2.640111 1_555
As18 Nb12 2.640111 1_556
As18 Nb0 2.643979 1_556
As18 Nb0 2.643979 1_555
As18 Nb4 2.653657 1_556
As18 Nb4 2.653657 1_555
As18 Nb25 2.756529 1_555
As19 Nb13 2.640111 1_556
As19 Nb13 2.640111 1_555
As19 Nb1 2.643979 1_556
As19 Nb1 2.643979 1_555
As19 Nb16 2.653655 1_555
As19 Nb16 2.653655 1_556
As19 Nb15 2.756529 1_565
As20 Nb14 2.640111 1_556
As20 Nb14 2.640111 1_555
As20 Nb26 2.643979 1_556
As20 Nb26 2.643979 1_555
As20 Nb17 2.653645 1_555
As20 Nb17 2.653645 1_556
As20 Nb24 2.756529 1_455
