# generated using pymatgen
data_Na4TiZnSi(PO6)2
_symmetry_space_group_name_H-M   'P 1'
_cell_length_a   9.00823736
_cell_length_b   9.02446068
_cell_length_c   21.94022443
_cell_angle_alpha   89.98639469
_cell_angle_beta   90.00000000
_cell_angle_gamma   119.94055019
_symmetry_Int_Tables_number   1
_chemical_formula_structural   Na4TiZnSi(PO6)2
_chemical_formula_sum   'Na24 Ti6 Zn6 Si6 P12 O72'
_cell_volume   1545.58400287
_cell_formula_units_Z   6
loop_
 _symmetry_equiv_pos_site_id
 _symmetry_equiv_pos_as_xyz
  1  'x, y, z'
loop_
 _atom_site_type_symbol
 _atom_site_label
 _atom_site_symmetry_multiplicity
 _atom_site_fract_x
 _atom_site_fract_y
 _atom_site_fract_z
 _atom_site_occupancy
  Na  Na0  1  0.63871390  0.01191047  0.24758627  1
  Na  Na1  1  0.37054092  0.36028580  0.24961682  1
  Na  Na2  1  0.99034062  0.62514453  0.24601424  1
  Na  Na3  1  0.63480391  0.62514453  0.74601424  1
  Na  Na4  1  0.98974487  0.36028580  0.74961682  1
  Na  Na5  1  0.37319658  0.01191047  0.74758627  1
  Na  Na6  1  0.30619763  0.34438105  0.58296499  1
  Na  Na7  1  0.03758437  0.69623717  0.58114054  1
  Na  Na8  1  0.65394718  0.95701179  0.57906495  1
  Na  Na9  1  0.30306562  0.95701179  0.07906495  1
  Na  Na10  1  0.65865380  0.69623717  0.08114054  1
  Na  Na11  1  0.03818442  0.34438105  0.08296499  1
  Na  Na12  1  0.97504208  0.67941477  0.91587595  1
  Na  Na13  1  0.70597032  0.03135781  0.91301102  1
  Na  Na14  1  0.32292921  0.29232122  0.91413692  1
  Na  Na15  1  0.96939101  0.29232122  0.41413692  1
  Na  Na16  1  0.32538649  0.03135781  0.41301102  1
  Na  Na17  1  0.70437168  0.67941477  0.41587595  1
  Na  Na18  1  0.99751122  0.00011862  0.49593476  1
  Na  Na19  1  0.00260740  0.00011862  0.99593476  1
  Na  Na20  1  0.66590751  0.32975035  0.82959883  1
  Na  Na21  1  0.66384384  0.32975035  0.32959883  1
  Na  Na22  1  0.32827132  0.66485785  0.16288795  1
  Na  Na23  1  0.33658553  0.66485785  0.66288795  1
  Ti  Ti0  1  0.98762056  0.99138281  0.64904060  1
  Ti  Ti1  1  0.00376225  0.99138281  0.14904060  1
  Ti  Ti2  1  0.66752378  0.33385509  0.98259244  1
  Ti  Ti3  1  0.66633231  0.33385509  0.48259244  1
  Ti  Ti4  1  0.33686263  0.67921969  0.31578013  1
  Ti  Ti5  1  0.34235606  0.67921969  0.81578013  1
  Zn  Zn0  1  0.99991226  0.00202928  0.34816451  1
  Zn  Zn1  1  0.00211702  0.00202928  0.84816451  1
  Zn  Zn2  1  0.66513342  0.33095221  0.68167986  1
  Zn  Zn3  1  0.66581979  0.33095221  0.18167986  1
  Zn  Zn4  1  0.32628318  0.66861524  0.01484476  1
  Zn  Zn5  1  0.34233106  0.66861524  0.51484476  1
  Si  Si0  1  0.29580845  0.00119156  0.25290790  1
  Si  Si1  1  0.70538311  0.00119156  0.75290790  1
  Si  Si2  1  0.66611243  0.62565882  0.58578621  1
  Si  Si3  1  0.95954739  0.62565882  0.08578621  1
  Si  Si4  1  0.33345312  0.96520246  0.91893504  1
  Si  Si5  1  0.63174834  0.96520246  0.41893504  1
  P  P0  1  0.70576356  0.70790404  0.25148512  1
  P  P1  1  0.00309838  0.29312924  0.25066076  1
  P  P2  1  0.29003086  0.29312924  0.75066076  1
  P  P3  1  0.00214048  0.70790404  0.75148512  1
  P  P4  1  0.95883539  0.33192993  0.58442812  1
  P  P5  1  0.37147085  0.04115912  0.58449300  1
  P  P6  1  0.66968926  0.04115912  0.08449300  1
  P  P7  1  0.37309554  0.33192993  0.08442812  1
  P  P8  1  0.62330645  0.66379804  0.91863539  1
  P  P9  1  0.04120768  0.37660380  0.91771172  1
  P  P10  1  0.33539512  0.37660380  0.41771172  1
  P  P11  1  0.04049059  0.66379804  0.41863539  1
  O  O0  1  0.21227050  0.03308865  0.31179581  1
  O  O1  1  0.81370822  0.78609379  0.30819166  1
  O  O2  1  0.97077941  0.18562504  0.30791953  1
  O  O3  1  0.21484563  0.18562504  0.80791953  1
  O  O4  1  0.97238557  0.78609379  0.80819166  1
  O  O5  1  0.82081815  0.03308865  0.81179581  1
  O  O6  1  0.80313730  0.96660690  0.69256919  1
  O  O7  1  0.17125793  0.20074413  0.69371705  1
  O  O8  1  0.03281215  0.82795702  0.69415003  1
  O  O9  1  0.79514487  0.82795702  0.19415003  1
  O  O10  1  0.02948619  0.20074413  0.19371705  1
  O  O11  1  0.16346959  0.96660690  0.19256919  1
  O  O12  1  0.88178065  0.36131369  0.64156012  1
  O  O13  1  0.48119825  0.11581926  0.64117678  1
  O  O14  1  0.63665197  0.51198919  0.64506500  1
  O  O15  1  0.87533822  0.51198919  0.14506500  1
  O  O16  1  0.63462200  0.11581926  0.14117678  1
  O  O17  1  0.47953404  0.36131369  0.14156012  1
  O  O18  1  0.46243805  0.30015592  0.02737157  1
  O  O19  1  0.82881706  0.52849292  0.02545559  1
  O  O20  1  0.69572828  0.16196898  0.02764466  1
  O  O21  1  0.46624170  0.16196898  0.52764466  1
  O  O22  1  0.69967686  0.52849292  0.52545559  1
  O  O23  1  0.83771888  0.30015592  0.52737157  1
  O  O24  1  0.54322784  0.69117205  0.97537839  1
  O  O25  1  0.14899239  0.45142146  0.97493128  1
  O  O26  1  0.29864459  0.84849274  0.97764726  1
  O  O27  1  0.54984715  0.84849274  0.47764726  1
  O  O28  1  0.30242807  0.45142146  0.47493128  1
  O  O29  1  0.14794320  0.69117205  0.47537839  1
  O  O30  1  0.13086597  0.63514843  0.36109399  1
  O  O31  1  0.49724510  0.86385285  0.35894678  1
  O  O32  1  0.36462522  0.49489821  0.36071960  1
  O  O33  1  0.13027199  0.49489821  0.86071960  1
  O  O34  1  0.36660675  0.86385285  0.85894678  1
  O  O35  1  0.50428147  0.63514843  0.86109399  1
  O  O36  1  0.01554596  0.81887071  0.41200226  1
  O  O37  1  0.82055734  0.98892619  0.41078557  1
  O  O38  1  0.18156457  0.19520480  0.41209125  1
  O  O39  1  0.01364023  0.19520480  0.91209125  1
  O  O40  1  0.16836884  0.98892619  0.91078557  1
  O  O41  1  0.80332475  0.81887071  0.91200226  1
  O  O42  1  0.97265872  0.16463168  0.58801125  1
  O  O43  1  0.19444055  0.03436433  0.58744367  1
  O  O44  1  0.84848712  0.81742259  0.58953647  1
  O  O45  1  0.96893548  0.81742259  0.08953647  1
  O  O46  1  0.83992378  0.03436433  0.08744367  1
  O  O47  1  0.19197296  0.16463168  0.08801125  1
  O  O48  1  0.67770002  0.16324651  0.74464565  1
  O  O49  1  0.47123559  0.31834009  0.74508038  1
  O  O50  1  0.84716230  0.52807422  0.74486669  1
  O  O51  1  0.68091292  0.52807422  0.24486669  1
  O  O52  1  0.84710549  0.31834009  0.24508038  1
  O  O53  1  0.48554750  0.16324651  0.24464565  1
  O  O54  1  0.63449573  0.49503645  0.92112394  1
  O  O55  1  0.86034339  0.36553902  0.92203350  1
  O  O56  1  0.51409336  0.15373918  0.92240064  1
  O  O57  1  0.63964682  0.15373918  0.42240064  1
  O  O58  1  0.50519663  0.36553902  0.42203350  1
  O  O59  1  0.86054172  0.49503645  0.42112394  1
  O  O60  1  0.35113241  0.48862213  0.07664715  1
  O  O61  1  0.15001153  0.65217326  0.08031958  1
  O  O62  1  0.51706009  0.85960581  0.07747190  1
  O  O63  1  0.34254473  0.85960581  0.57747190  1
  O  O64  1  0.50216073  0.65217326  0.58031958  1
  O  O65  1  0.13748872  0.48862213  0.57664715  1
  O  O66  1  0.30258215  0.81835671  0.25603469  1
  O  O67  1  0.52498406  0.69549991  0.25474308  1
  O  O68  1  0.17181895  0.47208244  0.25444921  1
  O  O69  1  0.30026249  0.47208244  0.75444921  1
  O  O70  1  0.17051485  0.69549991  0.75474308  1
  O  O71  1  0.51577357  0.81835671  0.75603469  1
loop_
_geom_bond_atom_site_label_1
_geom_bond_atom_site_label_2
_geom_bond_distance
_geom_bond_site_symmetry_2
Na0 O53 2.377825 1_555
Na0 O52 2.447916 1_555
Na0 O67 2.511456 1_545
Na0 O16 2.522840 1_555
Na0 O66 2.640883 1_545
Na0 O31 2.770861 1_545
Na0 O9 2.907267 1_545
Na0 O2 2.911678 1_555
Na1 O51 2.427905 1_555
Na1 O68 2.456947 1_555
Na1 O53 2.466999 1_555
Na1 O17 2.564298 1_555
Na1 O67 2.626525 1_555
Na1 O32 2.736167 1_555
Na1 O0 2.899740 1_555
Na1 O10 2.932839 1_555
Na2 O52 2.401079 1_555
Na2 O15 2.442672 1_555
Na2 O51 2.469864 1_555
Na2 O66 2.470776 1_655
Na2 O68 2.620838 1_655
Na2 O30 2.805645 1_655
Na2 O11 2.916171 1_655
Na2 O1 2.968223 1_555
Na3 O49 2.401078 1_555
Na3 O14 2.442674 1_555
Na3 O50 2.469873 1_555
Na3 O71 2.470783 1_555
Na3 O69 2.620846 1_555
Na3 O35 2.805649 1_555
Na3 O6 2.916171 1_555
Na3 O4 2.968223 1_555
Na4 O50 2.427897 1_555
Na4 O69 2.456939 1_655
Na4 O48 2.466992 1_555
Na4 O12 2.564294 1_555
Na4 O70 2.626525 1_655
Na4 O33 2.736164 1_655
Na4 O5 2.899740 1_555
Na4 O7 2.932839 1_655
Na5 O48 2.377832 1_555
Na5 O49 2.447914 1_555
Na5 O70 2.511458 1_545
Na5 O13 2.522842 1_555
Na5 O71 2.640876 1_545
Na5 O34 2.770859 1_545
Na5 O8 2.907267 1_545
Na5 O3 2.911678 1_555
Na6 O64 2.437286 1_555
Na6 O65 2.449076 1_555
Na6 O43 2.457406 1_555
Na6 O28 2.565965 1_555
Na6 O42 2.608832 1_455
Na6 O7 2.736431 1_555
Na6 O14 2.917548 1_555
Na6 O21 2.937954 1_555
Na7 O63 2.384114 1_555
Na7 O44 2.447719 1_455
Na7 O65 2.452207 1_555
Na7 O29 2.533827 1_555
Na7 O43 2.650119 1_565
Na7 O8 2.759521 1_555
Na7 O22 2.907079 1_455
Na7 O12 2.937047 1_455
Na8 O64 2.384023 1_555
Na8 O27 2.423628 1_555
Na8 O63 2.486280 1_555
Na8 O42 2.534255 1_565
Na8 O44 2.629505 1_555
Na8 O6 2.810560 1_555
Na8 O23 2.915042 1_565
Na8 O13 2.925711 1_565
Na9 O61 2.384023 1_555
Na9 O26 2.423625 1_554
Na9 O62 2.486263 1_555
Na9 O47 2.534262 1_565
Na9 O45 2.629513 1_455
Na9 O11 2.810564 1_555
Na9 O18 2.915042 1_565
Na9 O16 2.925711 1_565
Na10 O62 2.384129 1_555
Na10 O45 2.447711 1_555
Na10 O60 2.452220 1_555
Na10 O24 2.533834 1_554
Na10 O46 2.650119 1_565
Na10 O9 2.759519 1_555
Na10 O19 2.907079 1_555
Na10 O17 2.937047 1_555
Na11 O61 2.437289 1_555
Na11 O60 2.449060 1_555
Na11 O46 2.457407 1_455
Na11 O25 2.565961 1_554
Na11 O47 2.608824 1_555
Na11 O10 2.736430 1_555
Na11 O15 2.917548 1_455
Na11 O20 2.937954 1_455
Na12 O41 2.434563 1_555
Na12 O40 2.447738 1_655
Na12 O55 2.487489 1_555
Na12 O4 2.555637 1_555
Na12 O54 2.664103 1_555
Na12 O19 2.752801 1_556
Na12 O26 2.867703 1_655
Na12 O33 2.918533 1_655
Na13 O39 2.403654 1_655
Na13 O5 2.446607 1_555
Na13 O41 2.474959 1_545
Na13 O56 2.481021 1_555
Na13 O55 2.623371 1_555
Na13 O20 2.798833 1_556
Na13 O34 2.902709 1_545
Na13 O24 2.991971 1_545
Na14 O40 2.373876 1_545
Na14 O39 2.468870 1_555
Na14 O54 2.474352 1_555
Na14 O3 2.524140 1_555
Na14 O56 2.590767 1_555
Na14 O18 2.769109 1_556
Na14 O25 2.922715 1_555
Na14 O35 2.923715 1_555
Na15 O37 2.373876 1_545
Na15 O38 2.468879 1_655
Na15 O59 2.474339 1_555
Na15 O2 2.524142 1_555
Na15 O57 2.590751 1_555
Na15 O23 2.769101 1_555
Na15 O28 2.922715 1_655
Na15 O30 2.923715 1_655
Na16 O38 2.403647 1_555
Na16 O0 2.446603 1_555
Na16 O36 2.474953 1_545
Na16 O57 2.481037 1_555
Na16 O58 2.623371 1_555
Na16 O21 2.798837 1_555
Na16 O31 2.902709 1_545
Na16 O29 2.991971 1_545
Na17 O36 2.434572 1_655
Na17 O37 2.447737 1_555
Na17 O58 2.487486 1_555
Na17 O1 2.555639 1_555
Na17 O59 2.664119 1_555
Na17 O22 2.752805 1_555
Na17 O27 2.867703 1_555
Na17 O32 2.918533 1_555
Na18 O37 2.425013 1_545
Na18 O38 2.513391 1_655
Na18 O36 2.521823 1_645
Na18 O44 2.554792 1_545
Na18 O42 2.582365 1_555
Na18 O43 2.593556 1_655
Na19 O40 2.425013 1_545
Na19 O39 2.513391 1_555
Na19 O41 2.521823 1_445
Na19 O45 2.554792 1_446
Na19 O47 2.582365 1_556
Na19 O46 2.593556 1_456
Na20 O48 2.429788 1_555
Na20 O49 2.518802 1_555
Na20 O56 2.523703 1_555
Na20 O50 2.531138 1_555
Na20 O55 2.592435 1_555
Na20 O54 2.600024 1_555
Na21 O53 2.429788 1_555
Na21 O52 2.518802 1_555
Na21 O57 2.523703 1_555
Na21 O51 2.531138 1_555
Na21 O58 2.592435 1_555
Na21 O59 2.600024 1_555
Na22 O61 2.385395 1_555
Na22 O66 2.543685 1_555
Na22 O60 2.545675 1_555
Na22 O62 2.551075 1_555
Na22 O68 2.568910 1_555
Na22 O67 2.605615 1_555
Na23 O64 2.385395 1_555
Na23 O71 2.543685 1_555
Na23 O65 2.545675 1_555
Na23 O63 2.551075 1_555
Na23 O69 2.568910 1_555
Na23 O70 2.605615 1_555
O0 Si0 1.592127 1_555
O0 Zn0 1.959438 1_455
O1 P0 1.518840 1_555
O1 Zn0 2.029324 1_565
O2 P1 1.523705 1_655
O2 Zn0 2.006747 1_555
O3 P2 1.523705 1_555
O3 Zn1 2.006747 1_555
O4 P3 1.518840 1_655
O4 Zn1 2.029324 1_665
O5 Si1 1.592127 1_555
O5 Zn1 1.959438 1_655
O6 Si1 1.702928 1_565
O6 Ti0 1.831084 1_555
O7 P2 1.584557 1_555
O7 Ti0 2.036686 1_445
O8 P3 1.591570 1_555
O8 Ti0 1.979647 1_455
O9 P0 1.591570 1_555
O9 Ti1 1.979647 1_655
O10 P1 1.584557 1_555
O10 Ti1 2.036686 1_545
O11 Si0 1.702928 1_565
O11 Ti1 1.831084 1_555
O12 P4 1.518965 1_555
O12 Zn2 2.030956 1_555
O13 P5 1.520948 1_555
O13 Zn2 2.023392 1_555
O14 Si2 1.594323 1_555
O14 Zn2 1.948884 1_555
O15 Si3 1.594323 1_555
O15 Zn3 1.948884 1_555
O16 P6 1.520948 1_555
O16 Zn3 2.023392 1_555
O17 P7 1.518965 1_555
O17 Zn3 2.030956 1_555
O18 P7 1.589834 1_555
O18 Ti2 1.977336 1_554
O19 Si3 1.696354 1_555
O19 Ti2 1.879907 1_554
O20 P6 1.594805 1_555
O20 Ti2 1.959702 1_554
O21 P5 1.594805 1_555
O21 Ti3 1.959702 1_555
O22 Si2 1.696354 1_555
O22 Ti3 1.879907 1_555
O23 P4 1.589834 1_555
O23 Ti3 1.977336 1_555
O24 P8 1.519650 1_555
O24 Zn4 2.052627 1_556
O25 P9 1.523379 1_555
O25 Zn4 2.008838 1_556
O26 Si4 1.592698 1_555
O26 Zn4 1.940604 1_556
O27 Si5 1.592698 1_555
O27 Zn5 1.940604 1_555
O28 P10 1.523379 1_555
O28 Zn5 2.008838 1_555
O29 P11 1.519650 1_555
O29 Zn5 2.052627 1_555
O30 P11 1.591773 1_555
O30 Ti4 1.962960 1_555
O31 Si5 1.712087 1_555
O31 Ti4 1.832587 1_555
O32 P10 1.578387 1_555
O32 Ti4 2.053312 1_555
O33 P9 1.578387 1_555
O33 Ti5 2.053312 1_555
O34 Si4 1.712087 1_555
O34 Ti5 1.832587 1_555
O35 P8 1.591773 1_555
O35 Ti5 1.962960 1_555
O36 P11 1.530990 1_555
O36 Zn0 2.223718 1_465
O37 Si5 1.614667 1_555
O37 Zn0 2.078762 1_565
O38 P10 1.533305 1_555
O38 Zn0 2.199456 1_455
O39 P9 1.533308 1_555
O39 Zn1 2.199456 1_555
O40 Si4 1.614658 1_555
O40 Zn1 2.078762 1_565
O41 P8 1.530995 1_555
O41 Zn1 2.223718 1_665
O42 P4 1.577568 1_555
O42 Ti0 2.113030 1_545
O43 P5 1.566367 1_555
O43 Ti0 2.174015 1_445
O44 Si2 1.691963 1_555
O44 Ti0 1.943389 1_555
O45 Si3 1.691967 1_555
O45 Ti1 1.943389 1_655
O46 P6 1.566358 1_555
O46 Ti1 2.174015 1_645
O47 P7 1.577573 1_555
O47 Ti1 2.113030 1_545
O48 Si1 1.611755 1_555
O48 Zn2 2.093294 1_555
O49 P2 1.536407 1_555
O49 Zn2 2.190949 1_555
O50 P3 1.530476 1_655
O50 Zn2 2.205607 1_555
O51 P0 1.530479 1_555
O51 Zn3 2.205607 1_555
O52 P1 1.536398 1_655
O52 Zn3 2.190949 1_555
O53 Si0 1.611761 1_555
O53 Zn3 2.093294 1_555
O54 P8 1.576645 1_555
O54 Ti2 2.110493 1_555
O55 P9 1.584638 1_655
O55 Ti2 2.090035 1_555
O56 Si4 1.668831 1_545
O56 Ti2 2.013677 1_555
O57 Si5 1.668823 1_545
O57 Ti3 2.013677 1_555
O58 P10 1.584656 1_555
O58 Ti3 2.090035 1_555
O59 P11 1.576636 1_655
O59 Ti3 2.110493 1_555
O60 P7 1.531997 1_555
O60 Zn4 2.211135 1_555
O61 Si3 1.614190 1_455
O61 Zn4 2.090877 1_555
O62 P6 1.532980 1_565
O62 Zn4 2.203768 1_555
O63 P5 1.532974 1_565
O63 Zn5 2.203768 1_555
O64 Si2 1.614207 1_555
O64 Zn5 2.090877 1_555
O65 P4 1.531986 1_455
O65 Zn5 2.211135 1_555
O66 Si0 1.682655 1_565
O66 Ti4 1.943329 1_555
O67 P0 1.577243 1_555
O67 Ti4 2.106690 1_555
O68 P1 1.573200 1_555
O68 Ti4 2.177706 1_555
O69 P2 1.573204 1_555
O69 Ti5 2.177706 1_555
O70 P3 1.577234 1_555
O70 Ti5 2.106690 1_555
O71 Si1 1.682660 1_565
O71 Ti5 1.943329 1_555
