# generated using pymatgen
data_Na4As2O7
_symmetry_space_group_name_H-M   'P 1'
_cell_length_a   5.84356663
_cell_length_b   5.84356663
_cell_length_c   12.22271027
_cell_angle_alpha   88.52213326
_cell_angle_beta   88.52213326
_cell_angle_gamma   118.70149886
_symmetry_Int_Tables_number   1
_chemical_formula_structural   Na4As2O7
_chemical_formula_sum   'Na8 As4 O14'
_cell_volume   365.62236742
_cell_formula_units_Z   2
loop_
 _symmetry_equiv_pos_site_id
 _symmetry_equiv_pos_as_xyz
  1  'x, y, z'
loop_
 _atom_site_type_symbol
 _atom_site_label
 _atom_site_symmetry_multiplicity
 _atom_site_fract_x
 _atom_site_fract_y
 _atom_site_fract_z
 _atom_site_occupancy
  Na  Na0  1  0.02202821  0.66619399  0.87150103  1
  Na  Na1  1  0.33380601  0.97797179  0.62849897  1
  Na  Na2  1  0.97797179  0.33380601  0.12849897  1
  Na  Na3  1  0.66619399  0.02202821  0.37150103  1
  Na  Na4  1  0.29525929  0.31974560  0.40390327  1
  Na  Na5  1  0.68025440  0.70474071  0.09609673  1
  Na  Na6  1  0.70474071  0.68025440  0.59609673  1
  Na  Na7  1  0.31974560  0.29525929  0.90390327  1
  As  As0  1  0.99317494  0.29667568  0.63830142  1
  As  As1  1  0.70332432  0.00682506  0.86169858  1
  As  As2  1  0.00682506  0.70332432  0.36169858  1
  As  As3  1  0.29667568  0.99317494  0.13830142  1
  O  O0  1  0.55507641  0.97729139  0.18648303  1
  O  O1  1  0.02270861  0.44492359  0.31351697  1
  O  O2  1  0.44492359  0.02270861  0.81351697  1
  O  O3  1  0.97729139  0.55507641  0.68648303  1
  O  O4  1  0.35901737  0.29142044  0.09324406  1
  O  O5  1  0.70857956  0.64098263  0.40675594  1
  O  O6  1  0.64098263  0.70857956  0.90675594  1
  O  O7  1  0.29142044  0.35901737  0.59324406  1
  O  O8  1  0.11317477  0.75693997  0.05444064  1
  O  O9  1  0.24306003  0.88682523  0.44555936  1
  O  O10  1  0.88682523  0.24306003  0.94555936  1
  O  O11  1  0.75693997  0.11317477  0.55444064  1
  O  O12  1  0.93495955  0.06504045  0.75000000  1
  O  O13  1  0.06504045  0.93495955  0.25000000  1
loop_
_geom_bond_atom_site_label_1
_geom_bond_atom_site_label_2
_geom_bond_distance
_geom_bond_site_symmetry_2
Na0 O8 2.327224 1_556
Na0 O10 2.351319 1_455
Na0 O3 2.355246 1_455
Na0 O6 2.385540 1_455
Na0 O2 2.416191 1_565
Na1 O9 2.327224 1_555
Na1 O11 2.351319 1_565
Na1 O2 2.355246 1_565
Na1 O7 2.385540 1_565
Na1 O3 2.416191 1_455
Na2 O10 2.327224 1_554
Na2 O8 2.351319 1_655
Na2 O1 2.355246 1_655
Na2 O4 2.385540 1_655
Na2 O0 2.416191 1_545
Na3 O11 2.327224 1_555
Na3 O9 2.351319 1_545
Na3 O0 2.355246 1_545
Na3 O5 2.385540 1_545
Na3 O1 2.416191 1_655
Na4 O5 2.238630 1_555
Na4 O7 2.332084 1_555
Na4 O1 2.336714 1_555
Na4 O9 2.436500 1_545
Na4 O13 2.801350 1_545
Na5 O4 2.238630 1_555
Na5 O6 2.332084 1_554
Na5 O0 2.336714 1_555
Na5 O8 2.436500 1_655
Na5 O13 2.801350 1_655
Na6 O7 2.238630 1_555
Na6 O5 2.332084 1_555
Na6 O3 2.336714 1_555
Na6 O11 2.436500 1_565
Na6 O12 2.801350 1_565
Na7 O6 2.238630 1_555
Na7 O4 2.332084 1_556
Na7 O2 2.336714 1_555
Na7 O10 2.436500 1_455
Na7 O12 2.801350 1_455
As0 O7 1.674438 1_655
As0 O3 1.677241 1_555
As0 O11 1.677504 1_555
As0 O12 1.802851 1_555
As1 O6 1.674438 1_545
As1 O2 1.677241 1_555
As1 O10 1.677504 1_555
As1 O12 1.802851 1_555
As2 O5 1.674438 1_455
As2 O1 1.677241 1_555
As2 O9 1.677504 1_555
As2 O13 1.802851 1_555
As3 O4 1.674438 1_565
As3 O0 1.677241 1_555
As3 O8 1.677504 1_555
As3 O13 1.802851 1_555
