# generated using pymatgen
data_Na5Sc2SiGe2P5O24
_symmetry_space_group_name_H-M   'P 1'
_cell_length_a   8.81993777
_cell_length_b   8.81509849
_cell_length_c   22.10739259
_cell_angle_alpha   90.09318065
_cell_angle_beta   89.79330251
_cell_angle_gamma   120.21246000
_symmetry_Int_Tables_number   1
_chemical_formula_structural   Na5Sc2SiGe2P5O24
_chemical_formula_sum   'Na15 Sc6 Si3 Ge6 P15 O72'
_cell_volume   1485.33442400
_cell_formula_units_Z   3
loop_
 _symmetry_equiv_pos_site_id
 _symmetry_equiv_pos_as_xyz
  1  'x, y, z'
loop_
 _atom_site_type_symbol
 _atom_site_label
 _atom_site_symmetry_multiplicity
 _atom_site_fract_x
 _atom_site_fract_y
 _atom_site_fract_z
 _atom_site_occupancy
  Na  Na0  1  0.00364004  0.64400396  0.25088593  1
  Na  Na1  1  0.62725332  0.63526274  0.75030733  1
  Na  Na2  1  0.37374412  0.99874177  0.75065090  1
  Na  Na3  1  0.66492216  0.97018650  0.58502898  1
  Na  Na4  1  0.30016184  0.97133421  0.08130928  1
  Na  Na5  1  0.67624871  0.70005023  0.08005481  1
  Na  Na6  1  0.02952273  0.33068499  0.08293464  1
  Na  Na7  1  0.96504158  0.29891798  0.41666452  1
  Na  Na8  1  0.33755499  0.03706202  0.41870090  1
  Na  Na9  1  0.00383066  0.98954562  0.50334029  1
  Na  Na10  1  0.00056082  0.99512149  0.99550513  1
  Na  Na11  1  0.68014976  0.33342734  0.83622678  1
  Na  Na12  1  0.65565992  0.33568133  0.33284241  1
  Na  Na13  1  0.34365442  0.66698370  0.16913570  1
  Na  Na14  1  0.31480775  0.65039930  0.66590885  1
  Sc  Sc0  1  0.99511964  0.99489483  0.35097612  1
  Sc  Sc1  1  0.00056128  0.99936266  0.15015644  1
  Sc  Sc2  1  0.66865836  0.33775102  0.97611927  1
  Sc  Sc3  1  0.66046533  0.33565972  0.48580383  1
  Sc  Sc4  1  0.34022977  0.66693674  0.31287900  1
  Sc  Sc5  1  0.32990990  0.66491058  0.81111285  1
  Si  Si0  1  0.72685692  0.01443998  0.74809476  1
  Si  Si1  1  0.36244409  0.03428123  0.58474223  1
  Si  Si2  1  0.96250614  0.62279976  0.08224677  1
  Ge  Ge0  1  0.99567527  0.00279977  0.85338023  1
  Ge  Ge1  1  0.00400938  0.00012952  0.64791172  1
  Ge  Ge2  1  0.67207933  0.32685712  0.68366078  1
  Ge  Ge3  1  0.66974847  0.33247491  0.18391958  1
  Ge  Ge4  1  0.32555643  0.66551819  0.01291940  1
  Ge  Ge5  1  0.32980249  0.66732968  0.52242800  1
  P  P0  1  0.30995078  0.01305115  0.24838206  1
  P  P1  1  0.70100003  0.69237822  0.24587534  1
  P  P2  1  0.98902277  0.29515839  0.24839380  1
  P  P3  1  0.28397691  0.27847794  0.74846178  1
  P  P4  1  0.99075981  0.71207861  0.74847732  1
  P  P5  1  0.96482309  0.33575526  0.58436100  1
  P  P6  1  0.66629554  0.62590841  0.58731073  1
  P  P7  1  0.65993773  0.04089802  0.08242840  1
  P  P8  1  0.38247619  0.34075854  0.08302015  1
  P  P9  1  0.62798036  0.67747515  0.91500238  1
  P  P10  1  0.04696485  0.36728651  0.91571079  1
  P  P11  1  0.32037931  0.95496734  0.91380742  1
  P  P12  1  0.62251784  0.95185281  0.42100369  1
  P  P13  1  0.33490269  0.38290041  0.42012558  1
  P  P14  1  0.04622958  0.66722024  0.41848517  1
  O  O0  1  0.22534316  0.03738825  0.30652127  1
  O  O1  1  0.82388312  0.78093324  0.30063671  1
  O  O2  1  0.96735846  0.18708787  0.30612883  1
  O  O3  1  0.20599441  0.15803328  0.80545281  1
  O  O4  1  0.95234716  0.79191259  0.80578977  1
  O  O5  1  0.84576156  0.04259065  0.80851842  1
  O  O6  1  0.80945944  0.97118677  0.68833263  1
  O  O7  1  0.17051054  0.19505688  0.69194014  1
  O  O8  1  0.03189611  0.83401207  0.69285436  1
  O  O9  1  0.78341628  0.79764436  0.18778982  1
  O  O10  1  0.01368952  0.21243487  0.19107023  1
  O  O11  1  0.19244057  0.98024954  0.19260908  1
  O  O12  1  0.87759509  0.37355416  0.63981250  1
  O  O13  1  0.50338299  0.12721473  0.64241309  1
  O  O14  1  0.63570486  0.50917755  0.64497693  1
  O  O15  1  0.87892113  0.49559771  0.14386264  1
  O  O16  1  0.61867968  0.12090855  0.13987944  1
  O  O17  1  0.50350464  0.37732264  0.13983904  1
  O  O18  1  0.45490121  0.29439965  0.02830908  1
  O  O19  1  0.82934994  0.53695142  0.02728549  1
  O  O20  1  0.69635147  0.15740513  0.02788913  1
  O  O21  1  0.44174148  0.14463830  0.52310693  1
  O  O22  1  0.70079205  0.54809007  0.53139773  1
  O  O23  1  0.85229483  0.29672434  0.52738987  1
  O  O24  1  0.53770847  0.70343846  0.97457748  1
  O  O25  1  0.15784214  0.45186440  0.97626853  1
  O  O26  1  0.29240949  0.83931141  0.97345813  1
  O  O27  1  0.53810279  0.84219971  0.48023997  1
  O  O28  1  0.30281004  0.47125452  0.47699302  1
  O  O29  1  0.17051217  0.69969859  0.47397451  1
  O  O30  1  0.12379682  0.64072187  0.35958399  1
  O  O31  1  0.50636768  0.86858718  0.36571571  1
  O  O32  1  0.35434129  0.48669179  0.36277941  1
  O  O33  1  0.13729475  0.48287319  0.86153535  1
  O  O34  1  0.34558329  0.87099609  0.85717147  1
  O  O35  1  0.52264894  0.65687892  0.85797578  1
  O  O36  1  0.03499461  0.83657718  0.41505046  1
  O  O37  1  0.80793402  0.97469108  0.41573537  1
  O  O38  1  0.16648627  0.19730170  0.41682532  1
  O  O39  1  0.03845946  0.18568509  0.91166172  1
  O  O40  1  0.14792266  0.96494277  0.90932535  1
  O  O41  1  0.81330752  0.84769873  0.91219643  1
  O  O42  1  0.97692896  0.16637796  0.59294359  1
  O  O43  1  0.16885366  0.01401793  0.59389917  1
  O  O44  1  0.82801030  0.81612266  0.59294931  1
  O  O45  1  0.99562714  0.82154007  0.08854605  1
  O  O46  1  0.82084170  0.01717837  0.08998976  1
  O  O47  1  0.19369368  0.18516279  0.09132906  1
  O  O48  1  0.70097036  0.18886648  0.74190546  1
  O  O49  1  0.47277311  0.29932958  0.74239174  1
  O  O50  1  0.81915293  0.52912980  0.74078385  1
  O  O51  1  0.69338118  0.51066546  0.24133499  1
  O  O52  1  0.81797371  0.30864421  0.24408576  1
  O  O53  1  0.49111820  0.18227303  0.24060256  1
  O  O54  1  0.64548357  0.51434196  0.92054804  1
  O  O55  1  0.86345083  0.34326041  0.92135393  1
  O  O56  1  0.48165150  0.13659622  0.92082430  1
  O  O57  1  0.64488419  0.13806549  0.42458265  1
  O  O58  1  0.49535151  0.35771204  0.42326358  1
  O  O59  1  0.86604667  0.50044802  0.42506245  1
  O  O60  1  0.37063368  0.51241158  0.07643394  1
  O  O61  1  0.15915824  0.63769718  0.07392783  1
  O  O62  1  0.49188519  0.85329769  0.07615170  1
  O  O63  1  0.35462304  0.84052030  0.57876364  1
  O  O64  1  0.49984719  0.64645122  0.58116023  1
  O  O65  1  0.15081124  0.50091044  0.57800032  1
  O  O66  1  0.32454097  0.84634228  0.25280400  1
  O  O67  1  0.51881067  0.66948028  0.25206289  1
  O  O68  1  0.14674578  0.48411820  0.25224416  1
  O  O69  1  0.31136643  0.46427378  0.75291390  1
  O  O70  1  0.15350632  0.69263471  0.75312303  1
  O  O71  1  0.52847681  0.84125265  0.75111716  1
loop_
_geom_bond_atom_site_label_1
_geom_bond_atom_site_label_2
_geom_bond_distance
_geom_bond_site_symmetry_2
Na0 O68 2.317585 1_555
Na0 O51 2.383416 1_455
Na0 O66 2.472622 1_555
Na0 O52 2.563545 1_455
Na0 O30 2.635901 1_555
Na0 O15 2.660801 1_455
Na0 O1 2.662587 1_455
Na0 O11 2.871901 1_555
Na1 O50 2.318354 1_555
Na1 O71 2.376637 1_555
Na1 O69 2.410462 1_555
Na1 O49 2.568196 1_555
Na1 O35 2.590906 1_555
Na1 O14 2.595551 1_555
Na1 O4 2.769082 1_555
Na1 O6 2.904562 1_555
Na2 O49 2.342739 1_565
Na2 O71 2.386811 1_555
Na2 O70 2.404570 1_555
Na2 O48 2.510949 1_565
Na2 O34 2.568697 1_555
Na2 O13 2.646045 1_565
Na2 O3 2.775055 1_565
Na2 O8 2.906435 1_555
Na3 O63 2.381128 1_555
Na3 O42 2.409808 1_565
Na3 O44 2.431619 1_555
Na3 O64 2.467703 1_555
Na3 O27 2.575041 1_555
Na3 O6 2.617340 1_555
Na3 O13 2.742533 1_565
Na3 O23 2.801718 1_565
Na4 O45 2.326325 1_455
Na4 O62 2.392505 1_555
Na4 O47 2.502461 1_565
Na4 O61 2.557702 1_555
Na4 O26 2.637438 1_554
Na4 O11 2.649680 1_555
Na4 O18 2.726436 1_565
Na4 O16 2.756828 1_565
Na5 O60 2.349907 1_555
Na5 O46 2.429314 1_565
Na5 O45 2.466605 1_555
Na5 O9 2.549005 1_555
Na5 O62 2.586234 1_555
Na5 O24 2.643655 1_554
Na5 O19 2.681139 1_555
Na5 O17 2.792299 1_555
Na6 O61 2.357358 1_555
Na6 O47 2.376704 1_555
Na6 O46 2.435069 1_455
Na6 O10 2.584611 1_555
Na6 O25 2.599013 1_554
Na6 O60 2.604909 1_555
Na6 O15 2.759722 1_455
Na6 O20 2.819845 1_455
Na7 O59 2.347686 1_555
Na7 O38 2.358166 1_655
Na7 O57 2.445911 1_555
Na7 O37 2.470511 1_545
Na7 O23 2.635232 1_555
Na7 O2 2.637373 1_555
Na7 O30 2.895692 1_655
Na7 O28 2.903266 1_655
Na8 O36 2.346437 1_545
Na8 O57 2.393823 1_555
Na8 O58 2.444907 1_555
Na8 O21 2.490461 1_555
Na8 O38 2.533583 1_555
Na8 O0 2.674044 1_555
Na8 O31 2.828732 1_545
Na8 O29 2.845541 1_545
Na9 O43 2.424191 1_565
Na9 O36 2.462549 1_555
Na9 O44 2.503610 1_455
Na9 O38 2.533303 1_565
Na9 O37 2.559085 1_455
Na9 O42 2.601707 1_465
Na10 O41 2.379619 1_455
Na10 O40 2.391305 1_555
Na10 O39 2.410355 1_565
Na10 O45 2.552763 1_456
Na10 O46 2.682997 1_466
Na10 O47 2.708929 1_566
Na11 O55 2.458318 1_555
Na11 O48 2.495950 1_555
Na11 O56 2.550125 1_555
Na11 O54 2.566850 1_555
Na11 O50 2.606882 1_555
Na11 O49 2.685359 1_555
Na12 O51 2.464002 1_555
Na12 O53 2.475961 1_555
Na12 O52 2.505597 1_555
Na12 O58 2.507480 1_555
Na12 O57 2.645832 1_555
Na12 O59 2.648495 1_555
Na13 O67 2.394617 1_555
Na13 O68 2.481830 1_555
Na13 O66 2.491186 1_555
Na13 O60 2.535141 1_555
Na13 O62 2.542220 1_555
Na13 O61 2.597095 1_555
Na14 O65 2.387311 1_555
Na14 O63 2.461096 1_555
Na14 O64 2.491970 1_555
Na14 O69 2.520371 1_555
Na14 O70 2.528049 1_555
Na14 O71 2.599006 1_555
Ge0 O5 1.825459 1_555
Ge0 O39 1.945774 1_655
Ge0 O3 1.967755 1_655
Ge0 O40 1.976993 1_645
Ge0 O41 1.981071 1_545
Ge0 O4 1.997591 1_545
Ge1 O6 1.832232 1_445
Ge1 O43 1.833981 1_555
Ge1 O7 1.876664 1_555
Ge1 O8 1.887045 1_545
Ge1 O44 1.997551 1_445
Ge1 O42 2.010375 1_455
Ge2 O13 1.873968 1_555
Ge2 O48 1.876695 1_555
Ge2 O12 1.905901 1_555
Ge2 O14 1.985615 1_555
Ge2 O50 2.033087 1_555
Ge2 O49 2.095246 1_555
Ge3 O15 1.891559 1_555
Ge3 O53 1.922846 1_555
Ge3 O16 1.944424 1_555
Ge3 O51 1.946229 1_555
Ge3 O52 1.952517 1_555
Ge3 O17 1.962351 1_555
Ge4 O25 1.895155 1_554
Ge4 O26 1.910632 1_554
Ge4 O61 1.912514 1_555
Ge4 O24 1.921324 1_554
Ge4 O62 2.099905 1_555
Ge4 O60 2.121665 1_555
Ge5 O63 1.894529 1_555
Ge5 O29 1.902097 1_555
Ge5 O28 1.906564 1_555
Ge5 O27 1.939969 1_555
Ge5 O65 1.953148 1_555
Ge5 O64 2.064397 1_555
O0 P0 1.551839 1_555
O0 Sc0 2.109654 1_445
O1 P1 1.550670 1_555
O1 Sc0 2.053117 1_555
O2 P2 1.546666 1_555
O2 Sc0 2.082777 1_545
O3 P3 1.565536 1_555
O4 P4 1.565043 1_555
O5 Si0 1.641012 1_555
O6 Si0 1.640936 1_565
O7 P3 1.539170 1_555
O8 P4 1.551664 1_455
O9 P1 1.535157 1_555
O9 Sc1 2.021876 1_655
O10 P2 1.529622 1_455
O10 Sc1 2.033644 1_545
O11 P0 1.544193 1_565
O11 Sc1 2.017978 1_555
O12 P5 1.567027 1_555
O13 Si1 1.680776 1_555
O14 P6 1.574560 1_555
O15 Si2 1.679903 1_555
O16 P7 1.579574 1_555
O17 P8 1.575845 1_555
O18 P8 1.514437 1_555
O18 Sc2 2.071797 1_554
O19 Si2 1.594102 1_555
O19 Sc2 1.967757 1_554
O20 P7 1.510284 1_555
O20 Sc2 2.072588 1_554
O21 Si1 1.613961 1_555
O21 Sc3 1.990188 1_555
O22 P6 1.515136 1_555
O22 Sc3 1.993800 1_555
O23 P5 1.534163 1_555
O23 Sc3 2.102927 1_555
O24 P9 1.611140 1_555
O25 P10 1.605285 1_555
O26 P11 1.608790 1_555
O27 P12 1.573657 1_555
O28 P13 1.575873 1_555
O29 P14 1.575155 1_555
O30 P14 1.540006 1_555
O30 Sc4 2.075115 1_555
O31 P12 1.526935 1_555
O31 Sc4 2.013830 1_555
O32 P13 1.522524 1_555
O32 Sc4 1.990657 1_555
O33 P10 1.512432 1_555
O33 Sc5 1.988020 1_555
O34 P11 1.524993 1_555
O34 Sc5 2.024460 1_555
O35 P9 1.524263 1_555
O35 Sc5 2.025398 1_555
O36 P14 1.547138 1_555
O36 Sc0 2.140528 1_455
O37 P12 1.547854 1_555
O37 Sc0 2.120119 1_555
O38 P13 1.563034 1_555
O38 Sc0 2.209193 1_445
O39 P10 1.566855 1_555
O40 P11 1.570634 1_555
O41 P9 1.567925 1_555
O42 P5 1.561471 1_555
O43 Si1 1.636755 1_555
O44 P6 1.566877 1_555
O45 Si2 1.630453 1_555
O45 Sc1 2.058888 1_655
O46 P7 1.544717 1_555
O46 Sc1 2.138440 1_645
O47 P8 1.545182 1_555
O47 Sc1 2.111547 1_545
O48 Si0 1.670103 1_555
O49 P3 1.585881 1_555
O50 P4 1.570033 1_555
O51 P1 1.572133 1_555
O52 P2 1.575047 1_555
O53 P0 1.551770 1_555
O54 P9 1.526742 1_555
O54 Sc2 2.074258 1_555
O55 P10 1.527696 1_655
O55 Sc2 2.078733 1_555
O56 P11 1.523006 1_545
O56 Sc2 2.103114 1_555
O57 P12 1.553525 1_545
O57 Sc3 2.153455 1_555
O58 P13 1.540698 1_555
O58 Sc3 2.090569 1_555
O59 P14 1.534820 1_655
O59 Sc3 2.130499 1_555
O60 P8 1.575305 1_555
O61 Si2 1.681654 1_455
O62 P7 1.576337 1_565
O63 Si1 1.679381 1_565
O64 P6 1.573393 1_555
O65 P5 1.557468 1_455
O66 P0 1.541619 1_565
O66 Sc4 2.124257 1_555
O67 P1 1.521069 1_555
O67 Sc4 2.058707 1_555
O68 P2 1.544454 1_455
O68 Sc4 2.132579 1_555
O69 P3 1.533597 1_555
O69 Sc5 2.124434 1_555
O70 P4 1.532667 1_455
O70 Sc5 2.126518 1_555
O71 Si0 1.645528 1_565
O71 Sc5 2.119637 1_555
