# generated using pymatgen
data_MgFe8(OF)8
_symmetry_space_group_name_H-M   'P 1'
_cell_length_a   9.91257739
_cell_length_b   9.87137792
_cell_length_c   3.06588900
_cell_angle_alpha   90.00000000
_cell_angle_beta   90.00000000
_cell_angle_gamma   86.74873197
_symmetry_Int_Tables_number   1
_chemical_formula_structural   MgFe8(OF)8
_chemical_formula_sum   'Mg1 Fe8 O8 F8'
_cell_volume   299.51680894
_cell_formula_units_Z   1
loop_
 _symmetry_equiv_pos_site_id
 _symmetry_equiv_pos_as_xyz
  1  'x, y, z'
loop_
 _atom_site_type_symbol
 _atom_site_label
 _atom_site_symmetry_multiplicity
 _atom_site_fract_x
 _atom_site_fract_y
 _atom_site_fract_z
 _atom_site_occupancy
  Mg  Mg0  1  0.26267100  0.50742400  0.50000000  1
  Fe  Fe0  1  0.99580500  0.98231400  0.00000000  1
  Fe  Fe1  1  0.98175800  0.47439300  0.00000000  1
  Fe  Fe2  1  0.18991900  0.20717600  0.50000000  1
  Fe  Fe3  1  0.23536600  0.77287800  0.50000000  1
  Fe  Fe4  1  0.55244600  0.50644700  0.00000000  1
  Fe  Fe5  1  0.50098000  0.01044800  0.00000000  1
  Fe  Fe6  1  0.75790500  0.26280700  0.50000000  1
  Fe  Fe7  1  0.76325700  0.72146400  0.50000000  1
  O  O0  1  0.10567600  0.39293600  0.50000000  1
  O  O1  1  0.07143300  0.88980800  0.50000000  1
  O  O2  1  0.11948400  0.12542300  0.00000000  1
  O  O3  1  0.20202600  0.63993300  0.00000000  1
  O  O4  1  0.61221900  0.40235600  0.50000000  1
  O  O5  1  0.66774300  0.65348600  0.00000000  1
  O  O6  1  0.85421800  0.33166100  0.00000000  1
  O  O7  1  0.91149200  0.58649600  0.50000000  1
  F  F0  1  0.36200300  0.40474900  0.00000000  1
  F  F1  1  0.34236300  0.87228800  0.00000000  1
  F  F2  1  0.38661600  0.12010600  0.50000000  1
  F  F3  1  0.43656800  0.60973400  0.50000000  1
  F  F4  1  0.60133600  0.90621000  0.50000000  1
  F  F5  1  0.65542400  0.15877700  0.00000000  1
  F  F6  1  0.83748500  0.84399100  0.00000000  1
  F  F7  1  0.87853100  0.08197100  0.50000000  1
loop_
_geom_bond_atom_site_label_1
_geom_bond_atom_site_label_2
_geom_bond_distance
_geom_bond_site_symmetry_2
Mg0 O0 1.974483 1_555
Mg0 O3 2.081608 1_555
Mg0 O3 2.081608 1_556
Fe0 O1 1.915238 1_655
Fe0 O1 1.915238 1_654
Fe0 O2 1.922276 1_665
Fe1 O6 1.945649 1_555
Fe1 O7 1.993041 1_555
Fe1 O7 1.993041 1_554
Fe1 O0 2.096016 1_655
Fe1 O0 2.096016 1_654
Fe2 O2 1.884828 1_556
Fe2 O2 1.884828 1_555
Fe2 O0 1.971326 1_555
Fe3 O1 1.939118 1_555
Fe3 O3 2.056842 1_555
Fe3 O3 2.056842 1_556
Fe4 O5 1.897670 1_555
Fe4 O4 1.920345 1_554
Fe4 O4 1.920345 1_555
Fe6 O4 1.938417 1_555
Fe6 O6 1.948580 1_555
Fe6 O6 1.948580 1_556
Fe7 O7 1.926688 1_555
Fe7 O5 1.941310 1_556
Fe7 O5 1.941310 1_555
F0 Mg0 2.057547 1_555
F0 Mg0 2.057547 1_554
F0 Fe4 2.187806 1_555
F1 Fe3 2.134446 1_555
F1 Fe3 2.134446 1_554
F1 Fe5 2.139019 1_565
F2 Fe2 2.085731 1_555
F2 Fe5 2.160468 1_555
F2 Fe5 2.160468 1_556
F3 Mg0 2.046662 1_555
F3 Fe4 2.139165 1_555
F3 Fe4 2.139165 1_556
F3 Fe3 2.491383 1_555
F4 Fe5 2.069347 1_565
F4 Fe5 2.069347 1_566
F4 Fe7 2.360095 1_555
F5 Fe6 2.134190 1_555
F5 Fe6 2.134190 1_554
F5 Fe5 2.177603 1_555
F6 Fe7 2.110727 1_554
F6 Fe7 2.110727 1_555
F6 Fe0 2.137844 1_555
F7 Fe6 2.091460 1_555
F7 Fe0 2.130574 1_545
F7 Fe0 2.130574 1_546
