# generated using pymatgen
data_K2SnTe5
_symmetry_space_group_name_H-M   'P 1'
_cell_length_a   8.60976078
_cell_length_b   8.60976240
_cell_length_c   9.86328931
_cell_angle_alpha   115.87790880
_cell_angle_beta   115.87791350
_cell_angle_gamma   90.00000113
_symmetry_Int_Tables_number   1
_chemical_formula_structural   K2SnTe5
_chemical_formula_sum   'K4 Sn2 Te10'
_cell_volume   575.24692689
_cell_formula_units_Z   2
loop_
 _symmetry_equiv_pos_site_id
 _symmetry_equiv_pos_as_xyz
  1  'x, y, z'
loop_
 _atom_site_type_symbol
 _atom_site_label
 _atom_site_symmetry_multiplicity
 _atom_site_fract_x
 _atom_site_fract_y
 _atom_site_fract_z
 _atom_site_occupancy
  K  K0  1  0.49604108  0.49604108  0.99208117  1
  K  K1  1  0.99604108  0.99604108  0.99208117  1
  K  K2  1  0.74608928  0.74608928  0.49217855  1
  K  K3  1  0.24608928  0.24608928  0.49217855  1
  Sn  Sn0  1  0.24565385  0.74565385  0.49130669  1
  Sn  Sn1  1  0.74565385  0.24565385  0.49130669  1
  Te  Te0  1  0.68047265  0.53740033  0.71787298  1
  Te  Te1  1  0.53740033  0.03740033  0.71787298  1
  Te  Te2  1  0.49569964  0.99569964  0.99139929  1
  Te  Te3  1  0.99569964  0.49569964  0.99139929  1
  Te  Te4  1  0.03740033  0.18047265  0.71787298  1
  Te  Te5  1  0.18047265  0.68047265  0.71787298  1
  Te  Te6  1  0.81175856  0.31175856  0.26584217  1
  Te  Te7  1  0.95408462  0.81175856  0.26584217  1
  Te  Te8  1  0.31175856  0.45408462  0.26584217  1
  Te  Te9  1  0.45408462  0.95408462  0.26584217  1
loop_
_geom_bond_atom_site_label_1
_geom_bond_atom_site_label_2
_geom_bond_distance
_geom_bond_site_symmetry_2
K0 Te7 3.811826 1_556
K0 Te6 3.811827 1_556
K0 Te8 3.811827 1_556
K0 Te9 3.811827 1_556
K0 Te0 3.814792 1_555
K0 Te5 3.814795 1_555
K0 Te1 3.814798 1_555
K0 Te4 3.814801 1_555
K1 Te9 3.811826 1_656
K1 Te8 3.811827 1_666
K1 Te6 3.811827 1_566
K1 Te7 3.811827 1_556
K1 Te4 3.814792 1_665
K1 Te5 3.814795 1_655
K1 Te1 3.814797 1_565
K1 Te0 3.814801 1_555
K2 Te5 3.618314 1_655
K2 Te4 3.618314 1_665
K2 Te1 3.618314 1_565
K2 Te0 3.618314 1_555
K2 Te8 3.619632 1_555
K2 Te6 3.619637 1_555
K2 Te9 3.619639 1_555
K2 Te7 3.619643 1_555
K3 Te0 3.618314 1_555
K3 Te1 3.618314 1_555
K3 Te4 3.618314 1_555
K3 Te5 3.618314 1_555
K3 Te7 3.619633 1_445
K3 Te6 3.619636 1_455
K3 Te9 3.619639 1_545
K3 Te8 3.619643 1_555
Sn0 Te7 2.793364 1_455
Sn0 Te8 2.793364 1_555
Sn0 Te1 2.795189 1_565
Sn0 Te5 2.795199 1_555
Sn1 Te9 2.793364 1_545
Sn1 Te6 2.793364 1_555
Sn1 Te4 2.795194 1_655
Sn1 Te0 2.795194 1_555
Te0 Te3 3.037655 1_555
Te1 Te2 3.037655 1_545
Te2 Te5 3.037655 1_555
Te2 Te9 3.045872 1_556
Te2 Te6 3.045880 1_566
Te3 Te4 3.037655 1_655
Te3 Te8 3.045876 1_656
Te3 Te7 3.045876 1_556
