# generated using pymatgen
data_MgFe4O5F3
_symmetry_space_group_name_H-M   'P 1'
_cell_length_a   5.70144210
_cell_length_b   5.96188962
_cell_length_c   6.11244687
_cell_angle_alpha   64.61650611
_cell_angle_beta   95.73314741
_cell_angle_gamma   62.43588685
_symmetry_Int_Tables_number   1
_chemical_formula_structural   MgFe4O5F3
_chemical_formula_sum   'Mg1 Fe4 O5 F3'
_cell_volume   154.43620618
_cell_formula_units_Z   1
loop_
 _symmetry_equiv_pos_site_id
 _symmetry_equiv_pos_as_xyz
  1  'x, y, z'
loop_
 _atom_site_type_symbol
 _atom_site_label
 _atom_site_symmetry_multiplicity
 _atom_site_fract_x
 _atom_site_fract_y
 _atom_site_fract_z
 _atom_site_occupancy
  Mg  Mg0  1  0.76076914  0.70242886  0.04211533  1
  Fe  Fe0  1  0.73551729  0.74148422  0.51719031  1
  Fe  Fe1  1  0.31641871  0.23959103  0.56617352  1
  Fe  Fe2  1  0.45116692  0.44989654  0.97156396  1
  Fe  Fe3  1  0.00085748  0.03067344  0.02351146  1
  O  O0  1  0.60371856  0.16149806  0.84623481  1
  O  O1  1  0.49688685  0.78042999  0.73582699  1
  O  O2  1  0.01272027  0.29488909  0.71741420  1
  O  O3  1  0.50063957  0.17563340  0.32806780  1
  O  O4  1  0.01508796  0.68495957  0.31129017  1
  F  F0  1  0.01132185  0.71205063  0.81982072  1
  F  F1  1  0.92854240  0.26497126  0.18960019  1
  F  F2  1  0.46397399  0.76149491  0.21690554  1
loop_
_geom_bond_atom_site_label_1
_geom_bond_atom_site_label_2
_geom_bond_distance
_geom_bond_site_symmetry_2
Mg0 O1 2.007023 1_554
Mg0 O4 2.014213 1_655
Mg0 O0 2.105781 1_564
Fe0 O3 1.935646 1_565
Fe0 O2 2.002545 1_655
Fe0 O1 2.006961 1_555
Fe0 O4 2.122619 1_655
Fe1 O3 1.943539 1_555
Fe1 O0 1.970026 1_555
Fe1 O2 2.003559 1_555
Fe1 O4 2.031230 1_555
Fe1 O1 2.091422 1_545
Fe2 O3 1.974142 1_556
Fe2 O1 2.035559 1_555
Fe2 O0 2.044029 1_555
Fe3 O2 1.893045 1_554
Fe3 O4 2.014273 1_545
Fe3 O0 2.014988 1_454
F0 Fe2 2.063231 1_555
F0 Mg0 2.070504 1_456
F0 Fe0 2.193280 1_455
F1 Fe3 1.979464 1_655
F1 Mg0 2.008190 1_555
F1 Fe2 2.374435 1_554
F2 Mg0 2.064259 1_555
F2 Fe3 2.184720 1_565
F2 Fe0 2.203106 1_555
