# generated using pymatgen
data_MgGa4(WO6)2
_symmetry_space_group_name_H-M   'P 1'
_cell_length_a   5.23828839
_cell_length_b   5.23831492
_cell_length_c   9.27523235
_cell_angle_alpha   90.00000000
_cell_angle_beta   90.00000000
_cell_angle_gamma   74.17232186
_symmetry_Int_Tables_number   1
_chemical_formula_structural   MgGa4(WO6)2
_chemical_formula_sum   'Mg1 Ga4 W2 O12'
_cell_volume   244.86113563
_cell_formula_units_Z   1
loop_
 _symmetry_equiv_pos_site_id
 _symmetry_equiv_pos_as_xyz
  1  'x, y, z'
loop_
 _atom_site_type_symbol
 _atom_site_label
 _atom_site_symmetry_multiplicity
 _atom_site_fract_x
 _atom_site_fract_y
 _atom_site_fract_z
 _atom_site_occupancy
  Mg  Mg0  1  0.28838399  0.28838290  -0.00000000  1
  Ga  Ga0  1  0.06769912  0.06769954  0.33612888  1
  Ga  Ga1  1  0.06769912  0.06769954  0.66387112  1
  Ga  Ga2  1  0.56834804  0.56835369  0.17716922  1
  Ga  Ga3  1  0.56834804  0.56835369  0.82283078  1
  W  W0  1  0.94434164  0.94434370  -0.00000000  1
  W  W1  1  0.55422116  0.55421781  0.50000000  1
  O  O0  1  0.13009162  0.13008605  0.14616309  1
  O  O1  1  0.13009162  0.13008605  0.85383691  1
  O  O2  1  0.18899961  0.18900294  0.50000000  1
  O  O3  1  0.29027224  0.66346113  -0.00000000  1
  O  O4  1  0.30692483  0.70521718  0.33023084  1
  O  O5  1  0.30692483  0.70521718  0.66976916  1
  O  O6  1  0.70521801  0.30692792  0.33022897  1
  O  O7  1  0.70521801  0.30692792  0.66977103  1
  O  O8  1  0.66346362  0.29027241  -0.00000000  1
  O  O9  1  0.76410548  0.76410683  0.50000000  1
  O  O10  1  0.78474602  0.78474527  0.15230200  1
  O  O11  1  0.78474602  0.78474527  0.84769800  1
loop_
_geom_bond_atom_site_label_1
_geom_bond_atom_site_label_2
_geom_bond_distance
_geom_bond_site_symmetry_2
Mg0 O1 1.894228 1_554
Mg0 O0 1.894228 1_555
Mg0 O8 1.967498 1_555
Mg0 O3 1.967499 1_555
Ga0 O2 1.827013 1_555
Ga0 O0 1.837510 1_555
Ga0 O6 1.969970 1_455
Ga0 O4 1.969975 1_545
Ga1 O2 1.827013 1_555
Ga1 O1 1.837510 1_555
Ga1 O7 1.969970 1_455
Ga1 O5 1.969975 1_545
Ga2 O10 1.823167 1_555
Ga2 O4 1.967035 1_555
Ga2 O6 1.967040 1_555
Ga2 O3 2.162067 1_555
Ga2 O8 2.162091 1_555
Ga3 O11 1.823167 1_555
Ga3 O5 1.967035 1_555
Ga3 O7 1.967040 1_555
Ga3 O3 2.162067 1_556
Ga3 O8 2.162091 1_556
O0 W0 2.061013 1_445
O1 W0 2.061013 1_446
O3 W0 1.998532 1_455
O4 W1 2.055316 1_555
O5 W1 2.055316 1_555
O6 W1 2.055311 1_555
O7 W1 2.055311 1_555
O8 W0 1.998517 1_545
O9 W1 1.754127 1_555
O10 W0 1.942845 1_555
O11 W0 1.942845 1_556
