# generated using pymatgen
data_MgTe2MoW2(SeS)2
_symmetry_space_group_name_H-M   'P 1'
_cell_length_a   6.67958600
_cell_length_b   6.67913815
_cell_length_c   62.20916400
_cell_angle_alpha   89.99996826
_cell_angle_beta   89.99990432
_cell_angle_gamma   119.99851294
_symmetry_Int_Tables_number   1
_chemical_formula_structural   MgTe2MoW2(SeS)2
_chemical_formula_sum   'Mg8 Te16 Mo8 W16 Se16 S16'
_cell_volume   2403.59602475
_cell_formula_units_Z   8
loop_
 _symmetry_equiv_pos_site_id
 _symmetry_equiv_pos_as_xyz
  1  'x, y, z'
loop_
 _atom_site_type_symbol
 _atom_site_label
 _atom_site_symmetry_multiplicity
 _atom_site_fract_x
 _atom_site_fract_y
 _atom_site_fract_z
 _atom_site_occupancy
  Mg  Mg0_0  1  0.29920550  0.11367350  0.43267700  1
  Mg  Mg0_1  1  0.29920550  0.11367350  0.93267700  1
  Mg  Mg0_2  1  0.29920550  0.61367350  0.43267700  1
  Mg  Mg0_3  1  0.29920550  0.61367350  0.93267700  1
  Mg  Mg0_4  1  0.79920550  0.11367350  0.43267700  1
  Mg  Mg0_5  1  0.79920550  0.11367350  0.93267700  1
  Mg  Mg0_6  1  0.79920550  0.61367350  0.43267700  1
  Mg  Mg0_7  1  0.79920550  0.61367350  0.93267700  1
  Te  Te0_0  1  0.33332550  0.16665050  0.25848450  1
  Te  Te0_1  1  0.33332550  0.16665050  0.75848450  1
  Te  Te0_2  1  0.33332550  0.66665050  0.25848450  1
  Te  Te0_3  1  0.33332550  0.66665050  0.75848450  1
  Te  Te0_4  1  0.83332550  0.16665050  0.25848450  1
  Te  Te0_5  1  0.83332550  0.16665050  0.75848450  1
  Te  Te0_6  1  0.83332550  0.66665050  0.25848450  1
  Te  Te0_7  1  0.83332550  0.66665050  0.75848450  1
  Te  Te1_0  1  0.33332100  0.16664250  0.31987750  1
  Te  Te1_1  1  0.33332100  0.16664250  0.81987750  1
  Te  Te1_2  1  0.33332100  0.66664250  0.31987750  1
  Te  Te1_3  1  0.33332100  0.66664250  0.81987750  1
  Te  Te1_4  1  0.83332100  0.16664250  0.31987750  1
  Te  Te1_5  1  0.83332100  0.16664250  0.81987750  1
  Te  Te1_6  1  0.83332100  0.66664250  0.31987750  1
  Te  Te1_7  1  0.83332100  0.66664250  0.81987750  1
  Mo  Mo0_0  1  0.33334450  0.16668850  0.17344600  1
  Mo  Mo0_1  1  0.33334450  0.16668850  0.67344600  1
  Mo  Mo0_2  1  0.33334450  0.66668850  0.17344600  1
  Mo  Mo0_3  1  0.33334450  0.66668850  0.67344600  1
  Mo  Mo0_4  1  0.83334450  0.16668850  0.17344600  1
  Mo  Mo0_5  1  0.83334450  0.16668850  0.67344600  1
  Mo  Mo0_6  1  0.83334450  0.66668850  0.17344600  1
  Mo  Mo0_7  1  0.83334450  0.66668850  0.67344600  1
  W  W0_0  1  0.16665750  0.33331150  0.05781800  1
  W  W0_1  1  0.16665750  0.33331150  0.55781800  1
  W  W0_2  1  0.16665750  0.83331150  0.05781800  1
  W  W0_3  1  0.16665750  0.83331150  0.55781800  1
  W  W0_4  1  0.66665750  0.33331150  0.05781800  1
  W  W0_5  1  0.66665750  0.33331150  0.55781800  1
  W  W0_6  1  0.66665750  0.83331150  0.05781800  1
  W  W0_7  1  0.66665750  0.83331150  0.55781800  1
  W  W1_0  1  0.16665750  0.33331500  0.28920300  1
  W  W1_1  1  0.16665750  0.33331500  0.78920300  1
  W  W1_2  1  0.16665750  0.83331500  0.28920300  1
  W  W1_3  1  0.16665750  0.83331500  0.78920300  1
  W  W1_4  1  0.66665750  0.33331500  0.28920300  1
  W  W1_5  1  0.66665750  0.33331500  0.78920300  1
  W  W1_6  1  0.66665750  0.83331500  0.28920300  1
  W  W1_7  1  0.66665750  0.83331500  0.78920300  1
  Se  Se0_0  1  0.16667600  0.33335250  0.20031300  1
  Se  Se0_1  1  0.16667600  0.33335250  0.70031300  1
  Se  Se0_2  1  0.16667600  0.83335250  0.20031300  1
  Se  Se0_3  1  0.16667600  0.83335250  0.70031300  1
  Se  Se0_4  1  0.66667600  0.33335250  0.20031300  1
  Se  Se0_5  1  0.66667600  0.33335250  0.70031300  1
  Se  Se0_6  1  0.66667600  0.83335250  0.20031300  1
  Se  Se0_7  1  0.66667600  0.83335250  0.70031300  1
  Se  Se1_0  1  0.16667700  0.33335450  0.14661750  1
  Se  Se1_1  1  0.16667700  0.33335450  0.64661750  1
  Se  Se1_2  1  0.16667700  0.83335450  0.14661750  1
  Se  Se1_3  1  0.16667700  0.83335450  0.64661750  1
  Se  Se1_4  1  0.66667700  0.33335450  0.14661750  1
  Se  Se1_5  1  0.66667700  0.33335450  0.64661750  1
  Se  Se1_6  1  0.66667700  0.83335450  0.14661750  1
  Se  Se1_7  1  0.66667700  0.83335450  0.64661750  1
  S  S0_0  1  0.33332200  0.16664500  0.03335100  1
  S  S0_1  1  0.33332200  0.16664500  0.53335100  1
  S  S0_2  1  0.33332200  0.66664500  0.03335100  1
  S  S0_3  1  0.33332200  0.66664500  0.53335100  1
  S  S0_4  1  0.83332200  0.16664500  0.03335100  1
  S  S0_5  1  0.83332200  0.16664500  0.53335100  1
  S  S0_6  1  0.83332200  0.66664500  0.03335100  1
  S  S0_7  1  0.83332200  0.66664500  0.53335100  1
  S  S1_0  1  0.33331950  0.16664050  0.08230450  1
  S  S1_1  1  0.33331950  0.16664050  0.58230450  1
  S  S1_2  1  0.33331950  0.66664050  0.08230450  1
  S  S1_3  1  0.33331950  0.66664050  0.58230450  1
  S  S1_4  1  0.83331950  0.16664050  0.08230450  1
  S  S1_5  1  0.83331950  0.16664050  0.58230450  1
  S  S1_6  1  0.83331950  0.66664050  0.08230450  1
  S  S1_7  1  0.83331950  0.66664050  0.58230450  1
loop_
_geom_bond_atom_site_label_1
_geom_bond_atom_site_label_2
_geom_bond_distance
_geom_bond_site_symmetry_2
Mg0_0 Mg0_2 3.339569 1_555
Mg0_0 Mg0_2 3.339569 1_545
Mg0_0 Mg0_6 3.339756 1_555
Mg0_0 Mg0_6 3.339756 1_445
Mg0_0 Mg0_4 3.339793 1_455
Mg0_0 Mg0_4 3.339793 1_555
Mg0_1 Mg0_3 3.339569 1_555
Mg0_1 Mg0_3 3.339569 1_545
Mg0_1 Mg0_7 3.339756 1_445
Mg0_1 Mg0_7 3.339756 1_555
Mg0_1 Mg0_5 3.339793 1_555
Mg0_1 Mg0_5 3.339793 1_455
Mg0_2 Mg0_4 3.339756 1_455
Mg0_2 Mg0_4 3.339756 1_565
Mg0_2 Mg0_6 3.339793 1_455
Mg0_2 Mg0_6 3.339793 1_555
Mg0_3 Mg0_5 3.339756 1_455
Mg0_3 Mg0_5 3.339756 1_565
Mg0_3 Mg0_7 3.339793 1_455
Mg0_3 Mg0_7 3.339793 1_555
Mg0_4 Mg0_6 3.339569 1_555
Mg0_4 Mg0_6 3.339569 1_545
Mg0_5 Mg0_7 3.339569 1_555
Mg0_5 Mg0_7 3.339569 1_545
Te0_0 W1_2 2.714689 1_545
Te0_0 W1_0 2.714693 1_555
Te0_0 W1_4 2.714772 1_555
Te0_1 W1_3 2.714689 1_545
Te0_1 W1_1 2.714693 1_555
Te0_1 W1_5 2.714772 1_555
Te0_2 W1_0 2.714689 1_555
Te0_2 W1_2 2.714693 1_555
Te0_2 W1_6 2.714772 1_555
Te0_3 W1_1 2.714689 1_555
Te0_3 W1_3 2.714693 1_555
Te0_3 W1_7 2.714772 1_555
Te0_4 W1_6 2.714689 1_545
Te0_4 W1_4 2.714693 1_555
Te0_4 W1_0 2.714772 1_655
Te0_5 W1_7 2.714689 1_545
Te0_5 W1_5 2.714693 1_555
Te0_5 W1_1 2.714772 1_655
Te0_6 W1_4 2.714689 1_555
Te0_6 W1_6 2.714693 1_555
Te0_6 W1_2 2.714772 1_655
Te0_7 W1_5 2.714689 1_555
Te0_7 W1_7 2.714693 1_555
Te0_7 W1_3 2.714772 1_655
Te1_0 W1_2 2.712734 1_545
Te1_0 W1_0 2.712783 1_555
Te1_0 W1_4 2.712858 1_555
Te1_1 W1_3 2.712734 1_545
Te1_1 W1_1 2.712783 1_555
Te1_1 W1_5 2.712858 1_555
Te1_2 W1_0 2.712734 1_555
Te1_2 W1_2 2.712783 1_555
Te1_2 W1_6 2.712858 1_555
Te1_3 W1_1 2.712734 1_555
Te1_3 W1_3 2.712783 1_555
Te1_3 W1_7 2.712858 1_555
Te1_4 W1_6 2.712734 1_545
Te1_4 W1_4 2.712783 1_555
Te1_4 W1_0 2.712858 1_655
Te1_5 W1_7 2.712734 1_545
Te1_5 W1_5 2.712783 1_555
Te1_5 W1_1 2.712858 1_655
Te1_6 W1_4 2.712734 1_555
Te1_6 W1_6 2.712783 1_555
Te1_6 W1_2 2.712858 1_655
Te1_7 W1_5 2.712734 1_555
Te1_7 W1_7 2.712783 1_555
Te1_7 W1_3 2.712858 1_655
Mo0_0 Se1_2 2.550137 1_545
Mo0_0 Se1_0 2.550150 1_555
Mo0_0 Se1_4 2.550224 1_555
Mo0_0 Se0_2 2.551710 1_545
Mo0_0 Se0_0 2.551712 1_555
Mo0_0 Se0_4 2.551793 1_555
Mo0_1 Se1_3 2.550137 1_545
Mo0_1 Se1_1 2.550150 1_555
Mo0_1 Se1_5 2.550224 1_555
Mo0_1 Se0_3 2.551710 1_545
Mo0_1 Se0_1 2.551712 1_555
Mo0_1 Se0_5 2.551793 1_555
Mo0_2 Se1_0 2.550137 1_555
Mo0_2 Se1_2 2.550150 1_555
Mo0_2 Se1_6 2.550224 1_555
Mo0_2 Se0_0 2.551710 1_555
Mo0_2 Se0_2 2.551712 1_555
Mo0_2 Se0_6 2.551793 1_555
Mo0_3 Se1_1 2.550137 1_555
Mo0_3 Se1_3 2.550150 1_555
Mo0_3 Se1_7 2.550224 1_555
Mo0_3 Se0_1 2.551710 1_555
Mo0_3 Se0_3 2.551712 1_555
Mo0_3 Se0_7 2.551793 1_555
Mo0_4 Se1_6 2.550137 1_545
Mo0_4 Se1_4 2.550150 1_555
Mo0_4 Se1_0 2.550224 1_655
Mo0_4 Se0_6 2.551710 1_545
Mo0_4 Se0_4 2.551712 1_555
Mo0_4 Se0_0 2.551793 1_655
Mo0_5 Se1_7 2.550137 1_545
Mo0_5 Se1_5 2.550150 1_555
Mo0_5 Se1_1 2.550224 1_655
Mo0_5 Se0_7 2.551710 1_545
Mo0_5 Se0_5 2.551712 1_555
Mo0_5 Se0_1 2.551793 1_655
Mo0_6 Se1_4 2.550137 1_555
Mo0_6 Se1_6 2.550150 1_555
Mo0_6 Se1_2 2.550224 1_655
Mo0_6 Se0_4 2.551710 1_555
Mo0_6 Se0_6 2.551712 1_555
Mo0_6 Se0_2 2.551793 1_655
Mo0_7 Se1_5 2.550137 1_555
Mo0_7 Se1_7 2.550150 1_555
Mo0_7 Se1_3 2.550224 1_655
Mo0_7 Se0_5 2.551710 1_555
Mo0_7 Se0_7 2.551712 1_555
Mo0_7 Se0_3 2.551793 1_655
S0_0 W0_2 2.456498 1_545
S0_0 W0_0 2.456504 1_555
S0_0 W0_4 2.456613 1_555
S0_1 W0_3 2.456498 1_545
S0_1 W0_1 2.456504 1_555
S0_1 W0_5 2.456613 1_555
S0_2 W0_0 2.456498 1_555
S0_2 W0_2 2.456504 1_555
S0_2 W0_6 2.456613 1_555
S0_3 W0_1 2.456498 1_555
S0_3 W0_3 2.456504 1_555
S0_3 W0_7 2.456613 1_555
S0_4 W0_6 2.456498 1_545
S0_4 W0_4 2.456504 1_555
S0_4 W0_0 2.456613 1_655
S0_5 W0_7 2.456498 1_545
S0_5 W0_5 2.456504 1_555
S0_5 W0_1 2.456613 1_655
S0_6 W0_4 2.456498 1_555
S0_6 W0_6 2.456504 1_555
S0_6 W0_2 2.456613 1_655
S0_7 W0_5 2.456498 1_555
S0_7 W0_7 2.456504 1_555
S0_7 W0_3 2.456613 1_655
S1_0 W0_2 2.457233 1_545
S1_0 W0_0 2.457267 1_555
S1_0 W0_4 2.457371 1_555
S1_1 W0_3 2.457233 1_545
S1_1 W0_1 2.457267 1_555
S1_1 W0_5 2.457371 1_555
S1_2 W0_0 2.457233 1_555
S1_2 W0_2 2.457267 1_555
S1_2 W0_6 2.457371 1_555
S1_3 W0_1 2.457233 1_555
S1_3 W0_3 2.457267 1_555
S1_3 W0_7 2.457371 1_555
S1_4 W0_6 2.457233 1_545
S1_4 W0_4 2.457267 1_555
S1_4 W0_0 2.457371 1_655
S1_5 W0_7 2.457233 1_545
S1_5 W0_5 2.457267 1_555
S1_5 W0_1 2.457371 1_655
S1_6 W0_4 2.457233 1_555
S1_6 W0_6 2.457267 1_555
S1_6 W0_2 2.457371 1_655
S1_7 W0_5 2.457233 1_555
S1_7 W0_7 2.457267 1_555
S1_7 W0_3 2.457371 1_655
