# generated using pymatgen
data_NaCaIn(SO4)3
_symmetry_space_group_name_H-M   'P 1'
_cell_length_a   8.97890659
_cell_length_b   8.97890629
_cell_length_c   23.85036266
_cell_angle_alpha   90.00000000
_cell_angle_beta   90.00000000
_cell_angle_gamma   120.00000113
_symmetry_Int_Tables_number   1
_chemical_formula_structural   NaCaIn(SO4)3
_chemical_formula_sum   'Na6 Ca6 In6 S18 O72'
_cell_volume   1665.22340588
_cell_formula_units_Z   6
loop_
 _symmetry_equiv_pos_site_id
 _symmetry_equiv_pos_as_xyz
  1  'x, y, z'
loop_
 _atom_site_type_symbol
 _atom_site_label
 _atom_site_symmetry_multiplicity
 _atom_site_fract_x
 _atom_site_fract_y
 _atom_site_fract_z
 _atom_site_occupancy
  Na  Na0  1  -0.00000000  0.00000000  0.49974930  1
  Na  Na1  1  -0.00000000  0.00000000  0.99974930  1
  Na  Na2  1  0.66666700  0.33333300  0.83308230  1
  Na  Na3  1  0.66666700  0.33333300  0.33308230  1
  Na  Na4  1  0.33333300  0.66666700  0.16641630  1
  Na  Na5  1  0.33333300  0.66666700  0.66641630  1
  Ca  Ca0  1  -0.00000000  0.00000000  0.35183713  1
  Ca  Ca1  1  -0.00000000  0.00000000  0.85183713  1
  Ca  Ca2  1  0.66666700  0.33333300  0.68517013  1
  Ca  Ca3  1  0.66666700  0.33333300  0.18517013  1
  Ca  Ca4  1  0.33333300  0.66666700  0.01850413  1
  Ca  Ca5  1  0.33333300  0.66666700  0.51850413  1
  In  In0  1  -0.00000000  0.00000000  0.65284036  1
  In  In1  1  -0.00000000  0.00000000  0.15284036  1
  In  In2  1  0.66666700  0.33333300  0.98617336  1
  In  In3  1  0.66666700  0.33333300  0.48617336  1
  In  In4  1  0.33333300  0.66666700  0.31950736  1
  In  In5  1  0.33333300  0.66666700  0.81950736  1
  S  S0  1  0.29389888  0.98635795  0.25043229  1
  S  S1  1  0.69245907  0.70610112  0.25043229  1
  S  S2  1  0.01364205  0.30754093  0.25043229  1
  S  S3  1  0.29389888  0.30754093  0.75043229  1
  S  S4  1  0.01364205  0.70610112  0.75043229  1
  S  S5  1  0.69245907  0.98635795  0.75043229  1
  S  S6  1  0.96056588  0.31969095  0.58376529  1
  S  S7  1  0.35912607  0.03943412  0.58376529  1
  S  S8  1  0.68030905  0.64087393  0.58376529  1
  S  S9  1  0.96056588  0.64087393  0.08376529  1
  S  S10  1  0.68030905  0.03943412  0.08376529  1
  S  S11  1  0.35912607  0.31969095  0.08376529  1
  S  S12  1  0.62723188  0.65302495  0.91709929  1
  S  S13  1  0.02579207  0.37276812  0.91709929  1
  S  S14  1  0.34697505  0.97420793  0.91709929  1
  S  S15  1  0.62723188  0.97420793  0.41709929  1
  S  S16  1  0.34697505  0.37276812  0.41709929  1
  S  S17  1  0.02579207  0.65302495  0.41709929  1
  O  O0  1  0.20714979  0.00078209  0.30006608  1
  O  O1  1  0.79363230  0.79285021  0.30006608  1
  O  O2  1  0.99921791  0.20636770  0.30006608  1
  O  O3  1  0.20714979  0.20636770  0.80006608  1
  O  O4  1  0.99921791  0.79285021  0.80006608  1
  O  O5  1  0.79363230  0.00078209  0.80006608  1
  O  O6  1  0.77394057  0.96721409  0.69786436  1
  O  O7  1  0.19327352  0.22605943  0.69786436  1
  O  O8  1  0.03278591  0.80672648  0.69786436  1
  O  O9  1  0.77394057  0.80672648  0.19786436  1
  O  O10  1  0.03278591  0.22605943  0.19786436  1
  O  O11  1  0.19327352  0.96721409  0.19786436  1
  O  O12  1  0.87381679  0.33411509  0.63339908  1
  O  O13  1  0.46029930  0.12618321  0.63339908  1
  O  O14  1  0.66588491  0.53970070  0.63339908  1
  O  O15  1  0.87381679  0.53970070  0.13339908  1
  O  O16  1  0.66588491  0.12618321  0.13339908  1
  O  O17  1  0.46029930  0.33411509  0.13339908  1
  O  O18  1  0.44060757  0.30054709  0.03119736  1
  O  O19  1  0.85994052  0.55939243  0.03119736  1
  O  O20  1  0.69945291  0.14005948  0.03119736  1
  O  O21  1  0.44060757  0.14005948  0.53119736  1
  O  O22  1  0.69945291  0.55939243  0.53119736  1
  O  O23  1  0.85994052  0.30054709  0.53119736  1
  O  O24  1  0.54048279  0.66744909  0.96673308  1
  O  O25  1  0.12696530  0.45951721  0.96673308  1
  O  O26  1  0.33255091  0.87303470  0.96673308  1
  O  O27  1  0.54048279  0.87303470  0.46673308  1
  O  O28  1  0.33255091  0.45951721  0.46673308  1
  O  O29  1  0.12696530  0.66744909  0.46673308  1
  O  O30  1  0.10727357  0.63388109  0.36453136  1
  O  O31  1  0.52660652  0.89272643  0.36453136  1
  O  O32  1  0.36611891  0.47339348  0.36453136  1
  O  O33  1  0.10727357  0.47339348  0.86453136  1
  O  O34  1  0.36611891  0.89272643  0.86453136  1
  O  O35  1  0.52660652  0.63388109  0.86453136  1
  O  O36  1  0.00323808  0.80446408  0.41333522  1
  O  O37  1  0.80122601  0.99676192  0.41333522  1
  O  O38  1  0.19553592  0.19877399  0.41333522  1
  O  O39  1  0.00323808  0.19877399  0.91333522  1
  O  O40  1  0.19553592  0.99676192  0.91333522  1
  O  O41  1  0.80122601  0.80446408  0.91333522  1
  O  O42  1  0.97390725  0.15929418  0.58682645  1
  O  O43  1  0.18538693  0.02609275  0.58682645  1
  O  O44  1  0.84070582  0.81461307  0.58682645  1
  O  O45  1  0.97390725  0.81461307  0.08682645  1
  O  O46  1  0.84070582  0.02609275  0.08682645  1
  O  O47  1  0.18538693  0.15929418  0.08682645  1
  O  O48  1  0.66990508  0.13779708  0.74666822  1
  O  O49  1  0.46789301  0.33009492  0.74666822  1
  O  O50  1  0.86220292  0.53210699  0.74666822  1
  O  O51  1  0.66990508  0.53210699  0.24666822  1
  O  O52  1  0.86220292  0.33009492  0.24666822  1
  O  O53  1  0.46789301  0.13779708  0.24666822  1
  O  O54  1  0.64057425  0.49262718  0.92015945  1
  O  O55  1  0.85205393  0.35942575  0.92015945  1
  O  O56  1  0.50737282  0.14794607  0.92015945  1
  O  O57  1  0.64057425  0.14794607  0.42015945  1
  O  O58  1  0.50737282  0.35942575  0.42015945  1
  O  O59  1  0.85205393  0.49262718  0.42015945  1
  O  O60  1  0.33657108  0.47113108  0.08000222  1
  O  O61  1  0.13455901  0.66342892  0.08000222  1
  O  O62  1  0.52886892  0.86544099  0.08000222  1
  O  O63  1  0.33657108  0.86544099  0.58000222  1
  O  O64  1  0.52886892  0.66342892  0.58000222  1
  O  O65  1  0.13455901  0.47113108  0.58000222  1
  O  O66  1  0.30724025  0.82596118  0.25349345  1
  O  O67  1  0.51871993  0.69275975  0.25349345  1
  O  O68  1  0.17403882  0.48128007  0.25349345  1
  O  O69  1  0.30724025  0.48128007  0.75349345  1
  O  O70  1  0.17403882  0.69275975  0.75349345  1
  O  O71  1  0.51871993  0.82596118  0.75349345  1
loop_
_geom_bond_atom_site_label_1
_geom_bond_atom_site_label_2
_geom_bond_distance
_geom_bond_site_symmetry_2
Na0 O44 2.597863 1_445
Na0 O42 2.597863 1_455
Na0 O43 2.597863 1_555
Na0 O38 2.717006 1_555
Na0 O37 2.717006 1_445
Na0 O36 2.717006 1_545
Na1 O45 2.597863 1_446
Na1 O47 2.597863 1_556
Na1 O46 2.597863 1_456
Na1 O39 2.717006 1_555
Na1 O41 2.717006 1_445
Na1 O40 2.717006 1_545
Na2 O56 2.597863 1_555
Na2 O54 2.597863 1_555
Na2 O55 2.597863 1_555
Na2 O50 2.717006 1_555
Na2 O49 2.717006 1_555
Na2 O48 2.717006 1_555
Na3 O57 2.597863 1_555
Na3 O59 2.597863 1_555
Na3 O58 2.597863 1_555
Na3 O51 2.717006 1_555
Na3 O53 2.717006 1_555
Na3 O52 2.717006 1_555
Na4 O68 2.597863 1_555
Na4 O66 2.597863 1_555
Na4 O67 2.597863 1_555
Na4 O62 2.717006 1_555
Na4 O61 2.717006 1_555
Na4 O60 2.717006 1_555
Na5 O69 2.597863 1_555
Na5 O71 2.597863 1_555
Na5 O70 2.597863 1_555
Na5 O63 2.717006 1_555
Na5 O65 2.717006 1_555
Na5 O64 2.717006 1_555
Ca0 O1 2.229605 1_445
Ca0 O2 2.229605 1_455
Ca0 O0 2.229605 1_555
Ca0 O38 2.299071 1_555
Ca0 O37 2.299071 1_445
Ca0 O36 2.299072 1_545
Ca1 O3 2.229605 1_555
Ca1 O4 2.229605 1_445
Ca1 O5 2.229605 1_455
Ca1 O39 2.299071 1_555
Ca1 O41 2.299071 1_445
Ca1 O40 2.299072 1_545
Ca2 O13 2.229605 1_555
Ca2 O14 2.229605 1_555
Ca2 O12 2.229605 1_555
Ca2 O50 2.299071 1_555
Ca2 O49 2.299071 1_555
Ca2 O48 2.299072 1_555
Ca3 O15 2.229605 1_555
Ca3 O16 2.229605 1_555
Ca3 O17 2.229605 1_555
Ca3 O51 2.299071 1_555
Ca3 O53 2.299071 1_555
Ca3 O52 2.299072 1_555
Ca4 O25 2.229605 1_554
Ca4 O26 2.229605 1_554
Ca4 O24 2.229605 1_554
Ca4 O62 2.299071 1_555
Ca4 O61 2.299071 1_555
Ca4 O60 2.299072 1_555
Ca5 O27 2.229605 1_555
Ca5 O28 2.229605 1_555
Ca5 O29 2.229605 1_555
Ca5 O63 2.299071 1_555
Ca5 O65 2.299071 1_555
Ca5 O64 2.299072 1_555
In0 O7 2.182250 1_555
In0 O8 2.182250 1_545
In0 O6 2.182250 1_445
In0 O44 2.216893 1_445
In0 O42 2.216893 1_455
In0 O43 2.216893 1_555
In1 O10 2.182250 1_555
In1 O9 2.182250 1_445
In1 O11 2.182250 1_545
In1 O45 2.216893 1_445
In1 O47 2.216893 1_555
In1 O46 2.216893 1_455
In2 O19 2.182250 1_556
In2 O20 2.182250 1_556
In2 O18 2.182250 1_556
In2 O56 2.216893 1_555
In2 O54 2.216893 1_555
In2 O55 2.216893 1_555
In3 O22 2.182250 1_555
In3 O21 2.182250 1_555
In3 O23 2.182250 1_555
In3 O57 2.216893 1_555
In3 O59 2.216893 1_555
In3 O58 2.216893 1_555
In4 O31 2.182250 1_555
In4 O32 2.182250 1_555
In4 O30 2.182250 1_555
In4 O68 2.216893 1_555
In4 O66 2.216893 1_555
In4 O67 2.216893 1_555
In5 O34 2.182250 1_555
In5 O33 2.182250 1_555
In5 O35 2.182250 1_555
In5 O69 2.216893 1_555
In5 O71 2.216893 1_555
In5 O70 2.216893 1_555
O0 S0 1.457978 1_545
O1 S1 1.457978 1_555
O2 S2 1.457978 1_655
O3 S3 1.457978 1_555
O4 S4 1.457978 1_655
O5 S5 1.457978 1_545
O6 S5 1.504157 1_555
O7 S3 1.504157 1_555
O8 S4 1.504157 1_555
O9 S1 1.504157 1_555
O10 S2 1.504157 1_555
O11 S0 1.504157 1_555
O12 S6 1.457978 1_555
O13 S7 1.457978 1_555
O14 S8 1.457978 1_555
O15 S9 1.457978 1_555
O16 S10 1.457978 1_555
O17 S11 1.457978 1_555
O18 S11 1.504157 1_555
O19 S9 1.504157 1_555
O20 S10 1.504157 1_555
O21 S7 1.504157 1_555
O22 S8 1.504157 1_555
O23 S6 1.504157 1_555
O24 S12 1.457978 1_555
O25 S13 1.457978 1_555
O26 S14 1.457978 1_555
O27 S15 1.457978 1_555
O28 S16 1.457978 1_555
O29 S17 1.457978 1_555
O30 S17 1.504157 1_555
O31 S15 1.504157 1_555
O32 S16 1.504157 1_555
O33 S13 1.504157 1_555
O34 S14 1.504157 1_555
O35 S12 1.504157 1_555
O36 S17 1.474237 1_555
O37 S15 1.474246 1_555
O38 S16 1.474243 1_555
O39 S13 1.474246 1_555
O40 S14 1.474237 1_555
O41 S12 1.474243 1_555
O42 S6 1.505437 1_555
O43 S7 1.505446 1_555
O44 S8 1.505442 1_555
O45 S9 1.505446 1_555
O46 S10 1.505437 1_555
O47 S11 1.505442 1_555
O48 S5 1.474237 1_545
O49 S3 1.474246 1_555
O50 S4 1.474243 1_655
O51 S1 1.474246 1_555
O52 S2 1.474237 1_655
O53 S0 1.474243 1_545
O54 S12 1.505450 1_555
O55 S13 1.505432 1_655
O56 S14 1.505440 1_545
O57 S15 1.505432 1_545
O58 S16 1.505450 1_555
O59 S17 1.505440 1_655
O60 S11 1.474250 1_555
O61 S9 1.474233 1_455
O62 S10 1.474239 1_565
O63 S7 1.474232 1_565
O64 S8 1.474250 1_555
O65 S6 1.474239 1_455
O66 S0 1.505437 1_555
O67 S1 1.505446 1_555
O68 S2 1.505442 1_555
O69 S3 1.505446 1_555
O70 S4 1.505437 1_555
O71 S5 1.505442 1_555
