# generated using pymatgen
data_Na2Ti2Zn2SiS5O24
_symmetry_space_group_name_H-M   'P 1'
_cell_length_a   8.66878797
_cell_length_b   8.66546004
_cell_length_c   22.57419258
_cell_angle_alpha   89.87368969
_cell_angle_beta   89.91170797
_cell_angle_gamma   119.86116353
_symmetry_Int_Tables_number   1
_chemical_formula_structural   Na2Ti2Zn2SiS5O24
_chemical_formula_sum   'Na6 Ti6 Zn6 Si3 S15 O72'
_cell_volume   1470.60378457
_cell_formula_units_Z   3
loop_
 _symmetry_equiv_pos_site_id
 _symmetry_equiv_pos_as_xyz
  1  'x, y, z'
loop_
 _atom_site_type_symbol
 _atom_site_label
 _atom_site_symmetry_multiplicity
 _atom_site_fract_x
 _atom_site_fract_y
 _atom_site_fract_z
 _atom_site_occupancy
  Na  Na0  1  0.00450584  0.00238010  0.49832389  1
  Na  Na1  1  0.99966744  0.99946578  0.99689986  1
  Na  Na2  1  0.66707356  0.32388945  0.82633907  1
  Na  Na3  1  0.65897443  0.32895389  0.33702996  1
  Na  Na4  1  0.32680216  0.66694787  0.16391760  1
  Na  Na5  1  0.33303942  0.66793046  0.66223919  1
  Ti  Ti0  1  0.98377921  0.99504784  0.64747577  1
  Ti  Ti1  1  0.01061838  0.98561058  0.14668609  1
  Ti  Ti2  1  0.67263668  0.33287912  0.18743413  1
  Ti  Ti3  1  0.68002995  0.34915111  0.97928931  1
  Ti  Ti4  1  0.33133448  0.67741504  0.31635781  1
  Ti  Ti5  1  0.34192898  0.67693952  0.80822642  1
  Zn  Zn0  1  0.01113016  0.00625154  0.35070357  1
  Zn  Zn1  1  0.99804944  0.00225460  0.84832183  1
  Zn  Zn2  1  0.66410622  0.32317361  0.68358494  1
  Zn  Zn3  1  0.66227254  0.33174829  0.48449773  1
  Zn  Zn4  1  0.32381292  0.66706472  0.01921416  1
  Zn  Zn5  1  0.33400235  0.66663417  0.51842271  1
  Si  Si0  1  0.29479284  0.00206028  0.25242207  1
  Si  Si1  1  0.71506363  0.01224370  0.75267395  1
  Si  Si2  1  0.96161764  0.62262997  0.08449658  1
  S  S0  1  0.70837538  0.70846191  0.25018343  1
  S  S1  1  0.00148498  0.28936654  0.24973427  1
  S  S2  1  0.29001060  0.29053616  0.75077381  1
  S  S3  1  0.99883525  0.70978964  0.75078457  1
  S  S4  1  0.96168656  0.33462705  0.58336245  1
  S  S5  1  0.36955247  0.03800462  0.58344606  1
  S  S6  1  0.66695417  0.62466457  0.58424018  1
  S  S7  1  0.67006350  0.04810437  0.08343363  1
  S  S8  1  0.38067646  0.33327592  0.08368708  1
  S  S9  1  0.62079629  0.66669225  0.91812630  1
  S  S10  1  0.04471497  0.37513729  0.91749533  1
  S  S11  1  0.33321922  0.95909710  0.91647939  1
  S  S12  1  0.62739473  0.95880220  0.41689736  1
  S  S13  1  0.33331213  0.37796967  0.41685251  1
  S  S14  1  0.03933472  0.66565338  0.41809779  1
  O  O0  1  0.21583097  0.04337667  0.30868491  1
  O  O1  1  0.81308171  0.78079440  0.30341480  1
  O  O2  1  0.96164269  0.18393904  0.30355430  1
  O  O3  1  0.21915639  0.18692127  0.80525350  1
  O  O4  1  0.97718290  0.78671010  0.80549065  1
  O  O5  1  0.82166181  0.03011026  0.81120298  1
  O  O6  1  0.80502643  0.96788444  0.69333313  1
  O  O7  1  0.17637412  0.20815343  0.69759265  1
  O  O8  1  0.03617675  0.82537223  0.69711980  1
  O  O9  1  0.79131183  0.82207800  0.19602699  1
  O  O10  1  0.02593393  0.20559858  0.19582593  1
  O  O11  1  0.16625262  0.96532588  0.19211500  1
  O  O12  1  0.88319231  0.36261399  0.63690499  1
  O  O13  1  0.47724699  0.11723979  0.63661103  1
  O  O14  1  0.64219352  0.51958523  0.63812326  1
  O  O15  1  0.85025505  0.49771333  0.14037322  1
  O  O16  1  0.64146625  0.13079866  0.13728113  1
  O  O17  1  0.48680504  0.35167802  0.13717670  1
  O  O18  1  0.45863169  0.29928481  0.02944635  1
  O  O19  1  0.82862879  0.52532176  0.02601635  1
  O  O20  1  0.69335006  0.15922927  0.02953390  1
  O  O21  1  0.44319999  0.14586698  0.52900762  1
  O  O22  1  0.70314117  0.55458059  0.52985457  1
  O  O23  1  0.85389357  0.29659978  0.52932986  1
  O  O24  1  0.53990864  0.68947380  0.97202008  1
  O  O25  1  0.14653078  0.45484211  0.97159124  1
  O  O26  1  0.30600493  0.85396978  0.97041394  1
  O  O27  1  0.54671291  0.85140189  0.46998289  1
  O  O28  1  0.31041760  0.46018301  0.47046413  1
  O  O29  1  0.14865807  0.69196121  0.47038312  1
  O  O30  1  0.13467589  0.64589545  0.36300429  1
  O  O31  1  0.50973660  0.86536581  0.36233828  1
  O  O32  1  0.35414279  0.49122430  0.36230768  1
  O  O33  1  0.12133442  0.48632865  0.86405125  1
  O  O34  1  0.36126317  0.87181489  0.86291077  1
  O  O35  1  0.50977259  0.63676099  0.86430604  1
  O  O36  1  0.01967944  0.82341199  0.41107350  1
  O  O37  1  0.80210915  0.97316157  0.40775490  1
  O  O38  1  0.17136972  0.20196289  0.41194473  1
  O  O39  1  0.01892641  0.19475452  0.91295461  1
  O  O40  1  0.17628153  0.98137189  0.90894546  1
  O  O41  1  0.80333783  0.81580585  0.91279476  1
  O  O42  1  0.98180429  0.16911246  0.59147075  1
  O  O43  1  0.18829979  0.02066333  0.59166370  1
  O  O44  1  0.83592242  0.80804347  0.59092618  1
  O  O45  1  0.96359071  0.81499008  0.09069324  1
  O  O46  1  0.83598633  0.03981459  0.09006239  1
  O  O47  1  0.19832286  0.17172452  0.09001225  1
  O  O48  1  0.67536533  0.17088234  0.74361744  1
  O  O49  1  0.47148650  0.32452371  0.74237491  1
  O  O50  1  0.84456928  0.53333555  0.74269519  1
  O  O51  1  0.68705002  0.52743511  0.24094011  1
  O  O52  1  0.84213711  0.31424603  0.24120362  1
  O  O53  1  0.49104495  0.16986057  0.23649257  1
  O  O54  1  0.63060083  0.49445223  0.92319791  1
  O  O55  1  0.85903544  0.35800736  0.92417947  1
  O  O56  1  0.49884852  0.13784178  0.92209928  1
  O  O57  1  0.63680969  0.13367550  0.41837512  1
  O  O58  1  0.49795802  0.36528854  0.41857757  1
  O  O59  1  0.86615203  0.49860206  0.41901234  1
  O  O60  1  0.36635480  0.49354312  0.07850265  1
  O  O61  1  0.15390414  0.64441805  0.08079909  1
  O  O62  1  0.51379657  0.87088272  0.07848873  1
  O  O63  1  0.34817244  0.85745788  0.57764037  1
  O  O64  1  0.51312139  0.65333779  0.57898608  1
  O  O65  1  0.14304914  0.48952184  0.57761408  1
  O  O66  1  0.31420321  0.82130986  0.25919026  1
  O  O67  1  0.52703533  0.68700541  0.25497914  1
  O  O68  1  0.16249882  0.46974080  0.25533002  1
  O  O69  1  0.29790310  0.46994018  0.75772680  1
  O  O70  1  0.16554392  0.69291272  0.75677593  1
  O  O71  1  0.51528431  0.82010899  0.75970669  1
loop_
_geom_bond_atom_site_label_1
_geom_bond_atom_site_label_2
_geom_bond_distance
_geom_bond_site_symmetry_2
Na0 O38 2.524081 1_555
Na0 O36 2.552953 1_545
Na0 O43 2.600733 1_555
Na0 O42 2.615890 1_455
Na0 O44 2.620279 1_445
Na0 O37 2.625554 1_445
Na1 O39 2.487206 1_665
Na1 O41 2.521941 1_555
Na1 O40 2.557713 1_655
Na1 O45 2.573212 1_556
Na1 O46 2.654533 1_566
Na1 O47 2.660288 1_666
Na2 O48 2.314219 1_555
Na2 O50 2.534142 1_555
Na2 O49 2.546866 1_555
Na2 O56 2.651891 1_555
Na2 O55 2.694265 1_555
Na2 O54 2.746407 1_555
Na3 O58 2.422503 1_555
Na3 O57 2.435944 1_555
Na3 O59 2.490945 1_555
Na3 O53 2.682560 1_555
Na3 O51 2.699573 1_555
Na3 O52 2.721936 1_555
Na4 O61 2.350338 1_555
Na4 O66 2.565953 1_555
Na4 O62 2.567575 1_555
Na4 O60 2.572373 1_555
Na4 O68 2.599784 1_555
Na4 O67 2.642148 1_555
Na5 O63 2.476388 1_555
Na5 O64 2.484677 1_555
Na5 O65 2.497849 1_555
Na5 O70 2.648577 1_555
Na5 O71 2.650450 1_555
Na5 O69 2.672832 1_555
O0 Si0 1.566275 1_555
O0 Zn0 1.891320 1_555
O1 S0 1.449437 1_555
O1 Zn0 2.139806 1_665
O2 S1 1.452448 1_655
O2 Zn0 2.083184 1_655
O3 S2 1.462724 1_555
O3 Zn1 2.028025 1_455
O4 S3 1.460176 1_555
O4 Zn1 2.031818 1_565
O5 Si1 1.576635 1_555
O5 Zn1 1.862533 1_555
O6 Si1 1.687593 1_565
O6 Ti0 1.777348 1_555
O7 S2 1.492790 1_555
O7 Ti0 2.102952 1_445
O8 S3 1.498703 1_455
O8 Ti0 2.069641 1_455
O9 S0 1.505964 1_555
O9 Ti1 2.041272 1_655
O10 S1 1.486294 1_555
O10 Ti1 2.154036 1_545
O11 Si0 1.688107 1_565
O11 Ti1 1.772695 1_555
O12 S4 1.464862 1_555
O12 Zn2 2.044530 1_555
O13 S5 1.467022 1_555
O13 Zn2 2.016920 1_555
O14 S6 1.467797 1_555
O14 Zn2 2.073870 1_555
O15 Si2 1.626150 1_555
O15 Ti2 1.826972 1_555
O16 S7 1.494106 1_555
O16 Ti2 1.989907 1_555
O17 S8 1.479203 1_555
O17 Ti2 2.043263 1_555
O18 S8 1.496644 1_555
O18 Ti3 2.077872 1_554
O19 Si2 1.680608 1_555
O19 Ti3 1.776393 1_554
O20 S7 1.499663 1_555
O20 Ti3 2.046888 1_554
O21 S5 1.479770 1_555
O21 Zn3 2.037525 1_555
O22 S6 1.471842 1_555
O22 Zn3 2.056947 1_555
O23 S4 1.472476 1_555
O23 Zn3 2.093795 1_555
O24 S9 1.465285 1_555
O24 Zn4 2.076686 1_556
O25 S10 1.465370 1_555
O25 Zn4 2.024586 1_556
O26 S11 1.465648 1_555
O26 Zn4 2.025391 1_556
O27 S12 1.461408 1_555
O27 Zn5 2.050730 1_555
O28 S13 1.468150 1_555
O28 Zn5 2.014789 1_555
O29 S14 1.460379 1_555
O29 Zn5 2.039900 1_555
O30 S14 1.548500 1_555
O30 Ti4 1.902435 1_555
O31 S12 1.548769 1_555
O31 Ti4 1.904184 1_555
O32 S13 1.526233 1_555
O32 Ti4 2.007266 1_555
O33 S10 1.476549 1_555
O33 Ti5 2.193454 1_555
O34 S11 1.509870 1_555
O34 Ti5 2.032637 1_555
O35 S9 1.492005 1_555
O35 Ti5 2.085442 1_555
O36 S14 1.467679 1_555
O36 Zn0 2.116774 1_565
O37 S12 1.470793 1_555
O37 Zn0 2.120818 1_665
O38 S13 1.475916 1_555
O38 Zn0 2.094591 1_555
O39 S10 1.468526 1_555
O39 Zn1 2.157548 1_455
O40 S11 1.476176 1_555
O40 Zn1 2.139313 1_465
O41 S9 1.466546 1_555
O41 Zn1 2.200931 1_565
O42 S4 1.539168 1_555
O42 Ti0 1.972602 1_545
O43 S5 1.513160 1_555
O43 Ti0 2.092840 1_445
O44 S6 1.541858 1_555
O44 Ti0 1.960681 1_555
O45 Si2 1.664639 1_555
O45 Ti1 1.832885 1_655
O46 S7 1.483209 1_555
O46 Ti1 2.204003 1_645
O47 S8 1.507908 1_555
O47 Ti1 2.063185 1_545
O48 Si1 1.587460 1_555
O48 Zn2 1.925715 1_555
O49 S2 1.461172 1_555
O49 Zn2 2.135950 1_555
O50 S3 1.457907 1_555
O50 Zn2 2.173607 1_555
O51 S0 1.500419 1_555
O51 Ti2 2.028921 1_555
O52 S1 1.512909 1_655
O52 Ti2 1.974665 1_555
O53 Si0 1.634128 1_555
O53 Ti2 1.863695 1_555
O54 S9 1.540650 1_555
O54 Ti3 1.975889 1_555
O55 S10 1.548190 1_655
O55 Ti3 1.958719 1_555
O56 S11 1.504520 1_545
O56 Ti3 2.153899 1_555
O57 S12 1.476874 1_545
O57 Zn3 2.204044 1_555
O58 S13 1.485616 1_555
O58 Zn3 2.178236 1_555
O59 S14 1.478321 1_655
O59 Zn3 2.199397 1_555
O60 S8 1.459065 1_555
O60 Zn4 2.175564 1_555
O61 Si2 1.583429 1_455
O61 Zn4 1.960956 1_555
O62 S7 1.461349 1_565
O62 Zn4 2.177811 1_555
O63 S5 1.487105 1_565
O63 Zn5 2.084321 1_555
O64 S6 1.477988 1_555
O64 Zn5 2.115998 1_555
O65 S4 1.478999 1_455
O65 Zn5 2.082141 1_555
O66 Si0 1.663242 1_565
O66 Ti4 1.849369 1_555
O67 S0 1.491912 1_555
O67 Ti4 2.157927 1_555
O68 S1 1.495381 1_555
O68 Ti4 2.161692 1_555
O69 S2 1.530146 1_555
O69 Ti5 1.997848 1_555
O70 S3 1.529428 1_455
O70 Ti5 1.980310 1_555
O71 Si1 1.709733 1_565
O71 Ti5 1.769054 1_555
