# generated using pymatgen
data_MgCo6(O2F)4
_symmetry_space_group_name_H-M   'P 1'
_cell_length_a   5.00880297
_cell_length_b   7.59997053
_cell_length_c   5.66352165
_cell_angle_alpha   98.66422066
_cell_angle_beta   100.05283463
_cell_angle_gamma   83.14101650
_symmetry_Int_Tables_number   1
_chemical_formula_structural   MgCo6(O2F)4
_chemical_formula_sum   'Mg1 Co6 O8 F4'
_cell_volume   208.89673461
_cell_formula_units_Z   1
loop_
 _symmetry_equiv_pos_site_id
 _symmetry_equiv_pos_as_xyz
  1  'x, y, z'
loop_
 _atom_site_type_symbol
 _atom_site_label
 _atom_site_symmetry_multiplicity
 _atom_site_fract_x
 _atom_site_fract_y
 _atom_site_fract_z
 _atom_site_occupancy
  Mg  Mg0  1  0.01260800  0.82779200  0.34453900  1
  Co  Co0  1  0.53498700  0.01779800  0.46755000  1
  Co  Co1  1  0.54969400  0.34937800  0.79370300  1
  Co  Co2  1  0.49525800  0.65181700  0.16514800  1
  Co  Co3  1  0.96805100  0.63903000  0.69754800  1
  Co  Co4  1  0.96936700  0.31355700  0.34547400  1
  Co  Co5  1  0.00424000  0.01382800  0.98532100  1
  O  O0  1  0.80320700  0.42500100  0.62230000  1
  O  O1  1  0.83902000  0.08167700  0.29319800  1
  O  O2  1  0.69120800  0.76254600  0.46634500  1
  O  O3  1  0.69931400  0.11261700  0.77817400  1
  O  O4  1  0.69330200  0.42527400  0.11969700  1
  O  O5  1  0.31049300  0.55293000  0.86429700  1
  O  O6  1  0.32058600  0.24115500  0.53123500  1
  O  O7  1  0.31113300  0.89240900  0.19646600  1
  F  F0  1  0.81978300  0.76536700  0.99686800  1
  F  F1  1  0.16890000  0.23930000  0.05791300  1
  F  F2  1  0.15353400  0.87861500  0.69747100  1
  F  F3  1  0.16920100  0.57776800  0.36247100  1
loop_
_geom_bond_atom_site_label_1
_geom_bond_atom_site_label_2
_geom_bond_distance
_geom_bond_site_symmetry_2
Mg0 O7 1.979257 1_555
Mg0 O2 1.998690 1_455
Mg0 O1 2.060007 1_465
Co0 O3 1.883041 1_555
Co0 O6 1.918387 1_555
Co0 O7 1.932835 1_545
Co0 O2 2.002717 1_545
Co0 O1 2.091835 1_555
Co1 O3 1.860204 1_555
Co1 O6 1.861342 1_555
Co1 O5 1.877944 1_555
Co1 O4 1.890356 1_556
Co1 O0 1.912534 1_555
Co2 O5 1.885281 1_554
Co2 O4 1.887394 1_555
Co2 O2 1.939493 1_555
Co2 O7 1.944735 1_555
Co2 F3 2.297606 1_555
Co2 F0 2.327858 1_554
Co3 O0 1.870379 1_555
Co3 O5 1.901222 1_655
Co3 O2 1.985982 1_555
Co3 F0 2.031243 1_555
Co3 F2 2.140799 1_655
Co3 F3 2.263283 1_655
Co4 O1 1.915641 1_555
Co4 O4 1.922850 1_555
Co4 O0 1.937818 1_555
Co4 O6 1.949725 1_655
Co4 F1 2.031331 1_655
Co4 F3 2.330527 1_655
Co5 O3 1.907532 1_455
Co5 F1 1.947441 1_556
Co5 O7 1.999082 1_546
Co5 F2 2.002545 1_545
Co5 O1 2.030286 1_456
Co5 F0 2.213267 1_445
F0 Mg0 2.049169 1_656
F2 Mg0 1.995680 1_555
F3 Mg0 1.977504 1_555
