# generated using pymatgen
data_LuFeO3
_symmetry_space_group_name_H-M   'P 1'
_cell_length_a   5.24099100
_cell_length_b   5.58143700
_cell_length_c   7.66584700
_cell_angle_alpha   90.00000000
_cell_angle_beta   90.00000000
_cell_angle_gamma   90.00000000
_symmetry_Int_Tables_number   1
_chemical_formula_structural   LuFeO3
_chemical_formula_sum   'Lu4 Fe4 O12'
_cell_volume   224.24335787
_cell_formula_units_Z   4
loop_
 _symmetry_equiv_pos_site_id
 _symmetry_equiv_pos_as_xyz
  1  'x, y, z'
loop_
 _atom_site_type_symbol
 _atom_site_label
 _atom_site_symmetry_multiplicity
 _atom_site_fract_x
 _atom_site_fract_y
 _atom_site_fract_z
 _atom_site_occupancy
  Lu  Lu0  1  0.02210900  0.92836700  0.75000000  1
  Lu  Lu1  1  0.52210900  0.57163300  0.25000000  1
  Lu  Lu2  1  0.47789100  0.42836700  0.75000000  1
  Lu  Lu3  1  0.97789100  0.07163300  0.25000000  1
  Fe  Fe0  1  0.00000000  0.50000000  0.50000000  1
  Fe  Fe1  1  0.50000000  0.00000000  0.50000000  1
  Fe  Fe2  1  0.50000000  0.00000000  0.00000000  1
  Fe  Fe3  1  0.00000000  0.50000000  0.00000000  1
  O  O0  1  0.68801900  0.30847900  0.43405500  1
  O  O1  1  0.18801900  0.19152100  0.56594500  1
  O  O2  1  0.81198100  0.80847900  0.06594500  1
  O  O3  1  0.31198100  0.69152100  0.93405500  1
  O  O4  1  0.31198100  0.69152100  0.56594500  1
  O  O5  1  0.81198100  0.80847900  0.43405500  1
  O  O6  1  0.18801900  0.19152100  0.93405500  1
  O  O7  1  0.68801900  0.30847900  0.06594500  1
  O  O8  1  0.12961200  0.44748900  0.25000000  1
  O  O9  1  0.62961200  0.05251100  0.75000000  1
  O  O10  1  0.37038800  0.94748900  0.25000000  1
  O  O11  1  0.87038800  0.55251100  0.75000000  1
loop_
_geom_bond_atom_site_label_1
_geom_bond_atom_site_label_2
_geom_bond_distance
_geom_bond_site_symmetry_2
Lu0 O9 2.170637 1_465
Lu0 O6 2.214529 1_565
Lu0 O1 2.214529 1_565
Lu0 O11 2.243463 1_455
Lu0 O4 2.458921 1_555
Lu0 O3 2.458921 1_555
Lu0 O2 2.743463 1_456
Lu0 O5 2.743463 1_455
Lu1 O8 2.170637 1_555
Lu1 O0 2.214529 1_555
Lu1 O7 2.214529 1_555
Lu1 O10 2.243463 1_555
Lu1 O5 2.458921 1_555
Lu1 O2 2.458921 1_555
Lu1 O3 2.743463 1_554
Lu1 O4 2.743463 1_555
Lu2 O11 2.170637 1_555
Lu2 O3 2.214529 1_555
Lu2 O4 2.214529 1_555
Lu2 O9 2.243463 1_555
Lu2 O1 2.458921 1_555
Lu2 O6 2.458921 1_555
Lu2 O7 2.743463 1_556
Lu2 O0 2.743463 1_555
Lu3 O10 2.170637 1_645
Lu3 O2 2.214529 1_545
Lu3 O5 2.214529 1_545
Lu3 O8 2.243463 1_655
Lu3 O0 2.458921 1_555
Lu3 O7 2.458921 1_555
Lu3 O1 2.743463 1_655
Lu3 O6 2.743463 1_654
Fe0 O0 2.017859 1_455
Fe0 O4 2.017859 1_555
Fe0 O5 2.047199 1_455
Fe0 O1 2.047199 1_555
Fe0 O11 2.054305 1_455
Fe0 O8 2.054305 1_555
Fe1 O5 2.017859 1_545
Fe1 O1 2.017859 1_555
Fe1 O4 2.047199 1_545
Fe1 O0 2.047199 1_555
Fe1 O10 2.054305 1_545
Fe1 O9 2.054305 1_555
Fe2 O2 2.017859 1_545
Fe2 O6 2.017859 1_554
Fe2 O3 2.047199 1_544
Fe2 O7 2.047199 1_555
Fe2 O9 2.054305 1_554
Fe2 O10 2.054305 1_545
Fe3 O7 2.017859 1_455
Fe3 O3 2.017859 1_554
Fe3 O2 2.047199 1_455
Fe3 O6 2.047199 1_554
Fe3 O11 2.054305 1_454
Fe3 O8 2.054305 1_555
