# generated using pymatgen
data_K2Te2O5
_symmetry_space_group_name_H-M   'P 1'
_cell_length_a   15.22047894
_cell_length_b   5.47089394
_cell_length_c   7.73038793
_cell_angle_alpha   85.93436384
_cell_angle_beta   90.00000000
_cell_angle_gamma   90.00000000
_symmetry_Int_Tables_number   1
_chemical_formula_structural   K2Te2O5
_chemical_formula_sum   'K8 Te8 O20'
_cell_volume   642.08661416
_cell_formula_units_Z   4
loop_
 _symmetry_equiv_pos_site_id
 _symmetry_equiv_pos_as_xyz
  1  'x, y, z'
loop_
 _atom_site_type_symbol
 _atom_site_label
 _atom_site_symmetry_multiplicity
 _atom_site_fract_x
 _atom_site_fract_y
 _atom_site_fract_z
 _atom_site_occupancy
  K  K0  1  0.43261618  0.26569837  0.62597035  1
  K  K1  1  0.93261618  0.23430163  0.37402965  1
  K  K2  1  0.56738382  0.73430163  0.37402965  1
  K  K3  1  0.06738382  0.76569837  0.62597035  1
  K  K4  1  0.31836607  0.73557585  0.87915234  1
  K  K5  1  0.81836607  0.76442415  0.12084766  1
  K  K6  1  0.68163393  0.26442415  0.12084766  1
  K  K7  1  0.18163393  0.23557585  0.87915234  1
  Te  Te0  1  0.31653778  0.80118649  0.41392571  1
  Te  Te1  1  0.81653778  0.69881351  0.58607429  1
  Te  Te2  1  0.68346222  0.19881351  0.58607429  1
  Te  Te3  1  0.18346222  0.30118649  0.41392571  1
  Te  Te4  1  0.43763109  0.24763418  0.11911181  1
  Te  Te5  1  0.93763109  0.25236582  0.88088819  1
  Te  Te6  1  0.56236891  0.75236582  0.88088819  1
  Te  Te7  1  0.06236891  0.74763418  0.11911181  1
  O  O0  1  0.35409147  0.22663144  0.94634872  1
  O  O1  1  0.85409147  0.27336856  0.05365128  1
  O  O2  1  0.64590853  0.77336856  0.05365128  1
  O  O3  1  0.14590853  0.72663144  0.94634872  1
  O  O4  1  0.36387016  0.16047197  0.31525544  1
  O  O5  1  0.86387016  0.33952803  0.68474456  1
  O  O6  1  0.63612984  0.83952803  0.68474456  1
  O  O7  1  0.13612984  0.66047197  0.31525544  1
  O  O8  1  0.43870187  0.58348381  0.14367594  1
  O  O9  1  0.93870187  0.91651619  0.85632406  1
  O  O10  1  0.56129813  0.41651619  0.85632406  1
  O  O11  1  0.06129813  0.08348381  0.14367594  1
  O  O12  1  0.25558165  0.49891971  0.55329160  1
  O  O13  1  0.75558165  0.00108029  0.44670840  1
  O  O14  1  0.74441835  0.50108029  0.44670840  1
  O  O15  1  0.24441835  0.99891971  0.55329160  1
  O  O16  1  0.09035843  0.26587152  0.56502731  1
  O  O17  1  0.59035843  0.23412848  0.43497269  1
  O  O18  1  0.90964157  0.73412848  0.43497269  1
  O  O19  1  0.40964157  0.76587152  0.56502731  1
loop_
_geom_bond_atom_site_label_1
_geom_bond_atom_site_label_2
_geom_bond_distance
_geom_bond_site_symmetry_2
K0 O4 2.718763 1_555
K0 O0 2.744609 1_555
K0 O19 2.765733 1_555
K0 O10 2.810025 1_555
K0 O19 2.829203 1_545
K0 O17 2.830262 1_555
K0 O12 3.017052 1_555
K1 O5 2.718763 1_555
K1 O1 2.744609 1_555
K1 O18 2.765733 1_545
K1 O11 2.810025 1_655
K1 O18 2.829203 1_555
K1 O16 2.830262 1_655
K1 O13 3.017052 1_555
K2 O6 2.718763 1_555
K2 O2 2.744609 1_555
K2 O17 2.765733 1_555
K2 O8 2.810025 1_555
K2 O17 2.829203 1_565
K2 O19 2.830262 1_555
K2 O14 3.017052 1_555
K3 O7 2.718763 1_555
K3 O3 2.744609 1_555
K3 O16 2.765733 1_565
K3 O9 2.810025 1_455
K3 O16 2.829203 1_555
K3 O18 2.830262 1_455
K3 O15 3.017052 1_555
K4 O3 2.675566 1_555
K4 O19 2.792332 1_555
K4 O0 2.825020 1_565
K4 O8 2.826168 1_556
K4 O0 2.848366 1_555
K4 O15 3.028759 1_555
K4 O12 3.065529 1_555
K5 O2 2.675566 1_555
K5 O18 2.792332 1_555
K5 O1 2.825020 1_555
K5 O9 2.826168 1_554
K5 O1 2.848366 1_565
K5 O14 3.028759 1_555
K5 O13 3.065529 1_565
K6 O1 2.675566 1_555
K6 O17 2.792332 1_555
K6 O2 2.825020 1_545
K6 O10 2.826168 1_554
K6 O2 2.848366 1_555
K6 O13 3.028759 1_555
K6 O14 3.065529 1_555
K7 O0 2.675566 1_555
K7 O16 2.792332 1_555
K7 O3 2.825020 1_555
K7 O11 2.826168 1_556
K7 O3 2.848366 1_545
K7 O12 3.028759 1_555
K7 O15 3.065529 1_545
O0 Te4 1.853466 1_556
O1 Te5 1.853466 1_554
O2 Te6 1.853466 1_554
O3 Te7 1.853466 1_556
O4 Te4 1.919461 1_555
O4 Te0 2.179873 1_545
O5 Te5 1.919461 1_555
O5 Te1 2.179873 1_555
O6 Te6 1.919461 1_555
O6 Te2 2.179873 1_565
O7 Te7 1.919461 1_555
O7 Te3 2.179873 1_555
O8 Te4 1.860599 1_555
O9 Te5 1.860599 1_565
O10 Te6 1.860599 1_555
O11 Te7 1.860599 1_545
O12 Te3 1.923829 1_555
O12 Te0 2.122137 1_555
O13 Te2 1.923829 1_555
O13 Te1 2.122137 1_545
O14 Te1 1.923829 1_555
O14 Te2 2.122137 1_555
O15 Te0 1.923829 1_555
O15 Te3 2.122137 1_565
O16 Te3 1.837893 1_555
O17 Te2 1.837893 1_555
O18 Te1 1.837893 1_555
O19 Te0 1.837893 1_555
