# generated using pymatgen
data_NaY2Nb2P5SO24
_symmetry_space_group_name_H-M   'P 1'
_cell_length_a   8.99629116
_cell_length_b   9.00657503
_cell_length_c   23.41010109
_cell_angle_alpha   89.77216911
_cell_angle_beta   90.01466837
_cell_angle_gamma   119.90177797
_symmetry_Int_Tables_number   1
_chemical_formula_structural   NaY2Nb2P5SO24
_chemical_formula_sum   'Na3 Y6 Nb6 P15 S3 O72'
_cell_volume   1644.30278707
_cell_formula_units_Z   3
loop_
 _symmetry_equiv_pos_site_id
 _symmetry_equiv_pos_as_xyz
  1  'x, y, z'
loop_
 _atom_site_type_symbol
 _atom_site_label
 _atom_site_symmetry_multiplicity
 _atom_site_fract_x
 _atom_site_fract_y
 _atom_site_fract_z
 _atom_site_occupancy
  Na  Na0  1  0.00075698  0.99977978  0.00314021  1
  Na  Na1  1  0.66646808  0.33247570  0.83210393  1
  Na  Na2  1  0.66842026  0.33361332  0.33626250  1
  Y  Y0  1  0.99547613  0.99543790  0.64728824  1
  Y  Y1  1  0.00298728  0.00194143  0.14611518  1
  Y  Y2  1  0.66448369  0.33946005  0.68723884  1
  Y  Y3  1  0.66665843  0.33363994  0.97481896  1
  Y  Y4  1  0.66952002  0.33869898  0.48045244  1
  Y  Y5  1  0.33034089  0.66709849  0.30893349  1
  Nb  Nb0  1  0.00864723  0.01086923  0.35819800  1
  Nb  Nb1  1  0.99975965  0.00007003  0.85463602  1
  Nb  Nb2  1  0.66478339  0.32479096  0.18474106  1
  Nb  Nb3  1  0.33167074  0.66537008  0.02406874  1
  Nb  Nb4  1  0.33987028  0.66821792  0.51588952  1
  Nb  Nb5  1  0.33399471  0.66659535  0.81152656  1
  P  P0  1  0.29525620  0.01568550  0.25086712  1
  P  P1  1  0.98578009  0.28036352  0.25066609  1
  P  P2  1  0.28776156  0.29091867  0.75394808  1
  P  P3  1  0.00253999  0.71128767  0.75456712  1
  P  P4  1  0.70855577  0.99930758  0.75440072  1
  P  P5  1  0.65880655  0.62781621  0.58201681  1
  P  P6  1  0.95609038  0.61642360  0.08182470  1
  P  P7  1  0.65870252  0.03920166  0.08113950  1
  P  P8  1  0.38278195  0.34002124  0.08162770  1
  P  P9  1  0.61865224  0.67662752  0.91572806  1
  P  P10  1  0.05793417  0.38096507  0.91569964  1
  P  P11  1  0.32396600  0.94216449  0.91540549  1
  P  P12  1  0.62823260  0.95468884  0.41425261  1
  P  P13  1  0.33071096  0.37692616  0.41515257  1
  P  P14  1  0.04743596  0.67448805  0.41510952  1
  S  S0  1  0.71779308  0.70196590  0.25084771  1
  S  S1  1  0.97285863  0.34491971  0.58165805  1
  S  S2  1  0.37304115  0.02825323  0.58159733  1
  O  O0  1  0.20185012  0.04170693  0.30433937  1
  O  O1  1  0.82708379  0.78526933  0.30196023  1
  O  O2  1  0.95914447  0.16200324  0.30460729  1
  O  O3  1  0.18607785  0.17097544  0.80698866  1
  O  O4  1  0.98343746  0.81234416  0.80713791  1
  O  O5  1  0.82840907  0.01657025  0.80720077  1
  O  O6  1  0.77877600  0.96477615  0.70079637  1
  O  O7  1  0.18415815  0.22082775  0.70023206  1
  O  O8  1  0.03811021  0.81553664  0.70056897  1
  O  O9  1  0.79104839  0.80092051  0.19866267  1
  O  O10  1  0.00722985  0.20049709  0.19743266  1
  O  O11  1  0.19151138  0.98780226  0.19765313  1
  O  O12  1  0.89712608  0.37566358  0.63331914  1
  O  O13  1  0.48011899  0.10146195  0.63322979  1
  O  O14  1  0.61933591  0.51527729  0.63568538  1
  O  O15  1  0.86428207  0.49895242  0.13623832  1
  O  O16  1  0.63426693  0.13167842  0.13629030  1
  O  O17  1  0.49827975  0.36297259  0.13591531  1
  O  O18  1  0.46221389  0.31363283  0.02881074  1
  O  O19  1  0.85083423  0.53769569  0.02894126  1
  O  O20  1  0.68759133  0.14893297  0.02917805  1
  O  O21  1  0.45262724  0.13552873  0.53141164  1
  O  O22  1  0.68593731  0.54421876  0.53024499  1
  O  O23  1  0.86347805  0.31268359  0.53174124  1
  O  O24  1  0.53162538  0.69797843  0.97038133  1
  O  O25  1  0.16596081  0.46752045  0.97051282  1
  O  O26  1  0.30161335  0.83332939  0.97032024  1
  O  O27  1  0.53479649  0.83644292  0.46857437  1
  O  O28  1  0.30329522  0.46658230  0.46881464  1
  O  O29  1  0.16355753  0.69985447  0.46878764  1
  O  O30  1  0.12518838  0.64597015  0.36248611  1
  O  O31  1  0.52133220  0.87490561  0.36221390  1
  O  O32  1  0.35817952  0.48137578  0.36225103  1
  O  O33  1  0.15208733  0.49181831  0.86300050  1
  O  O34  1  0.34065147  0.84855036  0.86283703  1
  O  O35  1  0.50834691  0.66013717  0.86294851  1
  O  O36  1  0.03715752  0.84438182  0.40485470  1
  O  O37  1  0.80653921  0.96176132  0.40537548  1
  O  O38  1  0.15755931  0.19781571  0.40754582  1
  O  O39  1  0.04158171  0.19915031  0.90912999  1
  O  O40  1  0.15804459  0.95843279  0.90870144  1
  O  O41  1  0.80030914  0.84210334  0.90895472  1
  O  O42  1  0.00179567  0.20009281  0.58961387  1
  O  O43  1  0.20109843  0.00436601  0.58946674  1
  O  O44  1  0.80608632  0.80843850  0.59030159  1
  O  O45  1  0.98952131  0.79766159  0.08933955  1
  O  O46  1  0.80548907  0.00451005  0.08933848  1
  O  O47  1  0.20019301  0.19292343  0.08843098  1
  O  O48  1  0.69045945  0.15871531  0.75296214  1
  O  O49  1  0.46514262  0.30716097  0.75348404  1
  O  O50  1  0.84288044  0.53366532  0.75325243  1
  O  O51  1  0.70487237  0.52769598  0.24412698  1
  O  O52  1  0.81509787  0.29334443  0.24168601  1
  O  O53  1  0.47667633  0.18698771  0.24139464  1
  O  O54  1  0.63993873  0.51956758  0.91673990  1
  O  O55  1  0.87974955  0.36031873  0.91690208  1
  O  O56  1  0.48099626  0.12017747  0.91683843  1
  O  O57  1  0.66152704  0.13516194  0.42381366  1
  O  O58  1  0.47418182  0.33675665  0.42321623  1
  O  O59  1  0.86536463  0.52608232  0.42258761  1
  O  O60  1  0.37349680  0.51031893  0.07241540  1
  O  O61  1  0.13607933  0.62612044  0.07236953  1
  O  O62  1  0.48818744  0.86246315  0.07259261  1
  O  O63  1  0.35607730  0.85491024  0.57075169  1
  O  O64  1  0.49239719  0.64343800  0.56708993  1
  O  O65  1  0.14370771  0.50333982  0.57033847  1
  O  O66  1  0.33274934  0.87279848  0.26018630  1
  O  O67  1  0.54506089  0.67439910  0.25786547  1
  O  O68  1  0.13243992  0.45846545  0.25952705  1
  O  O69  1  0.30858274  0.47103933  0.76707399  1
  O  O70  1  0.16277869  0.69154325  0.76746793  1
  O  O71  1  0.52921359  0.83808003  0.76729325  1
loop_
_geom_bond_atom_site_label_1
_geom_bond_atom_site_label_2
_geom_bond_distance
_geom_bond_site_symmetry_2
Na0 O47 2.673166 1_565
Na0 O45 2.680213 1_455
Na0 O46 2.690138 1_465
Na0 O39 2.741197 1_564
Na0 O40 2.749940 1_554
Na0 O41 2.756760 1_454
Na1 O48 2.507661 1_555
Na1 O49 2.511914 1_555
Na1 O50 2.513419 1_555
Na1 O56 2.676858 1_555
Na1 O55 2.684676 1_555
Na1 O54 2.692552 1_555
Na2 O59 2.681773 1_555
Na2 O51 2.685924 1_555
Na2 O58 2.692499 1_555
Na2 O57 2.694389 1_555
Na2 O52 2.694402 1_555
Na2 O53 2.720646 1_555
Nb0 O38 1.931319 1_555
Nb0 O36 1.969137 1_545
Nb0 O37 1.979057 1_445
Nb0 O0 2.050585 1_555
Nb0 O2 2.053206 1_455
Nb0 O1 2.289312 1_445
Nb1 O3 1.959076 1_655
Nb1 O5 1.964107 1_555
Nb1 O4 1.970784 1_545
Nb1 O40 2.073162 1_645
Nb1 O41 2.074188 1_545
Nb1 O39 2.080694 1_655
Nb2 O16 1.981520 1_555
Nb2 O53 2.014232 1_555
Nb2 O52 2.015915 1_555
Nb2 O15 2.037371 1_555
Nb2 O17 2.044033 1_555
Nb2 O51 2.182960 1_555
Nb3 O61 1.969099 1_555
Nb3 O60 1.970744 1_555
Nb3 O62 1.986774 1_555
Nb3 O26 2.082603 1_554
Nb3 O25 2.082752 1_554
Nb3 O24 2.091224 1_554
Nb4 O64 1.916169 1_555
Nb4 O27 1.984002 1_555
Nb4 O28 2.010152 1_555
Nb4 O29 2.064019 1_555
Nb4 O63 2.066569 1_555
Nb4 O65 2.077859 1_555
Nb5 O71 1.955988 1_555
Nb5 O70 1.956854 1_555
Nb5 O69 1.962226 1_555
Nb5 O35 2.000551 1_555
Nb5 O33 2.006386 1_555
Nb5 O34 2.012420 1_555
O0 P0 1.589732 1_555
O1 S0 1.494121 1_555
O2 P1 1.588449 1_555
O3 P2 1.596946 1_555
O4 P3 1.592955 1_655
O5 P4 1.596339 1_545
O6 P4 1.506628 1_555
O6 Y0 2.215314 1_555
O7 P2 1.505856 1_555
O7 Y0 2.263119 1_445
O8 P3 1.507694 1_555
O8 Y0 2.220706 1_455
O9 S0 1.458499 1_555
O9 Y1 2.228962 1_665
O10 P1 1.501107 1_455
O10 Y1 2.142835 1_555
O11 P0 1.501411 1_565
O11 Y1 2.135749 1_565
O12 S1 1.481440 1_555
O12 Y2 2.323277 1_555
O13 S2 1.481952 1_555
O13 Y2 2.328111 1_555
O14 P5 1.537276 1_555
O14 Y2 2.180554 1_555
O15 P6 1.594605 1_555
O16 P7 1.612513 1_555
O17 P8 1.588948 1_555
O18 P8 1.506008 1_555
O18 Y3 2.163747 1_554
O19 P6 1.506332 1_555
O19 Y3 2.170176 1_554
O20 P7 1.502825 1_555
O20 Y3 2.172035 1_554
O21 S2 1.458803 1_555
O21 Y4 2.236697 1_555
O22 P5 1.511956 1_555
O22 Y4 2.133391 1_555
O23 S1 1.461293 1_555
O23 Y4 2.223855 1_555
O24 P9 1.561884 1_555
O25 P10 1.565473 1_555
O26 P11 1.564460 1_555
O27 P12 1.598490 1_555
O28 P13 1.580443 1_555
O29 P14 1.576781 1_555
O30 P14 1.501652 1_555
O30 Y5 2.159470 1_555
O31 P12 1.497556 1_555
O31 Y5 2.195945 1_555
O32 P13 1.496285 1_555
O32 Y5 2.195353 1_555
O33 P10 1.543970 1_555
O34 P11 1.543506 1_555
O35 P9 1.545097 1_555
O36 P14 1.595529 1_555
O37 P12 1.586999 1_555
O38 P13 1.599146 1_555
O39 P10 1.577530 1_555
O40 P11 1.578589 1_555
O41 P9 1.577007 1_555
O42 S1 1.463046 1_455
O42 Y0 2.258201 1_445
O43 S2 1.463211 1_555
O43 Y0 2.261134 1_445
O44 P5 1.514245 1_555
O44 Y0 2.162158 1_555
O45 P6 1.516146 1_555
O45 Y1 2.227886 1_665
O46 P7 1.512961 1_555
O46 Y1 2.227901 1_655
O47 P8 1.519043 1_555
O47 Y1 2.206797 1_555
O48 P4 1.523672 1_545
O48 Y2 2.330467 1_555
O49 P2 1.528154 1_555
O49 Y2 2.276699 1_555
O50 P3 1.527308 1_655
O50 Y2 2.290145 1_555
O51 S0 1.523772 1_555
O52 P1 1.610674 1_555
O53 P0 1.606293 1_555
O54 P9 1.519231 1_555
O54 Y3 2.256910 1_555
O55 P10 1.519134 1_655
O55 Y3 2.260645 1_555
O56 P11 1.519715 1_545
O56 Y3 2.268554 1_555
O57 P12 1.516353 1_545
O57 Y4 2.238662 1_555
O58 P13 1.515703 1_555
O58 Y4 2.202761 1_555
O59 P14 1.521707 1_655
O59 Y4 2.192228 1_555
O60 P8 1.590952 1_555
O61 P6 1.592975 1_455
O62 P7 1.579508 1_565
O63 S2 1.513526 1_565
O64 P5 1.610113 1_555
O65 S1 1.509674 1_455
O66 P0 1.499351 1_565
O66 Y5 2.162926 1_555
O67 S0 1.455516 1_555
O67 Y5 2.244746 1_555
O68 P1 1.499766 1_455
O68 Y5 2.172349 1_555
O69 P2 1.569150 1_555
O70 P3 1.567115 1_555
O71 P4 1.569614 1_555
