# generated using pymatgen
data_Na2Mg3Ge(SO4)6
_symmetry_space_group_name_H-M   'P 1'
_cell_length_a   8.56918711
_cell_length_b   8.56918684
_cell_length_c   22.41884906
_cell_angle_alpha   90.00000000
_cell_angle_beta   90.00000000
_cell_angle_gamma   120.00000100
_symmetry_Int_Tables_number   1
_chemical_formula_structural   Na2Mg3Ge(SO4)6
_chemical_formula_sum   'Na6 Mg9 Ge3 S18 O72'
_cell_volume   1425.68368071
_cell_formula_units_Z   3
loop_
 _symmetry_equiv_pos_site_id
 _symmetry_equiv_pos_as_xyz
  1  'x, y, z'
loop_
 _atom_site_type_symbol
 _atom_site_label
 _atom_site_symmetry_multiplicity
 _atom_site_fract_x
 _atom_site_fract_y
 _atom_site_fract_z
 _atom_site_occupancy
  Na  Na0  1  0.00000000  -0.00000000  0.50401980  1
  Na  Na1  1  0.00000000  -0.00000000  0.00265761  1
  Na  Na2  1  0.66666700  0.33333300  0.83010930  1
  Na  Na3  1  0.66666700  0.33333300  0.33613909  1
  Na  Na4  1  0.33333300  0.66666700  0.17291123  1
  Na  Na5  1  0.33333300  0.66666700  0.65897317  1
  Mg  Mg0  1  0.00000000  -0.00000000  0.64256538  1
  Mg  Mg1  1  0.00000000  -0.00000000  0.14879247  1
  Mg  Mg2  1  0.66666700  0.33333300  0.67975557  1
  Mg  Mg3  1  0.66666700  0.33333300  0.18792424  1
  Mg  Mg4  1  0.66666700  0.33333300  0.98220820  1
  Mg  Mg5  1  0.66666700  0.33333300  0.48330951  1
  Mg  Mg6  1  0.33333300  0.66666700  0.51733976  1
  Mg  Mg7  1  0.33333300  0.66666700  0.31734498  1
  Mg  Mg8  1  0.33333300  0.66666700  0.81289654  1
  Ge  Ge0  1  0.00000000  -0.00000000  0.35233617  1
  Ge  Ge1  1  0.00000000  -0.00000000  0.84504952  1
  Ge  Ge2  1  0.33333300  0.66666700  0.01818694  1
  S  S0  1  0.28819930  -0.00014643  0.25088418  1
  S  S1  1  0.71165426  0.71180070  0.25088418  1
  S  S2  1  0.00014643  0.28834574  0.25088418  1
  S  S3  1  0.29075220  0.28915815  0.75037440  1
  S  S4  1  -0.00159404  0.70924780  0.75037440  1
  S  S5  1  0.71084185  0.00159404  0.75037440  1
  S  S6  1  0.96285106  0.33577984  0.58327244  1
  S  S7  1  0.37292979  0.03714894  0.58327244  1
  S  S8  1  0.66422016  0.62707021  0.58327244  1
  S  S9  1  0.96579985  0.62797960  0.08069572  1
  S  S10  1  0.66218075  0.03420015  0.08069572  1
  S  S11  1  0.37202040  0.33781925  0.08069572  1
  S  S12  1  0.62868121  0.67245524  0.91570240  1
  S  S13  1  0.04377303  0.37131879  0.91570240  1
  S  S14  1  0.32754476  0.95622697  0.91570240  1
  S  S15  1  0.63418522  0.96276123  0.41378426  1
  S  S16  1  0.32857501  0.36581478  0.41378426  1
  S  S17  1  0.03723877  0.67142499  0.41378426  1
  O  O0  1  0.20522105  0.03294420  0.30646691  1
  O  O1  1  0.82772315  0.79477895  0.30646691  1
  O  O2  1  0.96705580  0.17227685  0.30646691  1
  O  O3  1  0.21257340  0.17374433  0.81003607  1
  O  O4  1  0.96117092  0.78742660  0.81003607  1
  O  O5  1  0.82625567  0.03882908  0.81003607  1
  O  O6  1  0.80053022  0.97624332  0.70029052  1
  O  O7  1  0.17571310  0.19946978  0.70029052  1
  O  O8  1  0.02375668  0.82428690  0.70029052  1
  O  O9  1  0.79473503  0.82026186  0.19753848  1
  O  O10  1  0.02552683  0.20526497  0.19753848  1
  O  O11  1  0.17973814  0.97447317  0.19753848  1
  O  O12  1  0.88250349  0.35962165  0.63872350  1
  O  O13  1  0.47711916  0.11749651  0.63872350  1
  O  O14  1  0.64037835  0.52288084  0.63872350  1
  O  O15  1  0.89130604  0.51977134  0.13441928  1
  O  O16  1  0.62846630  0.10869396  0.13441928  1
  O  O17  1  0.48022866  0.37153370  0.13441928  1
  O  O18  1  0.45407501  0.31644943  0.02636861  1
  O  O19  1  0.86237542  0.54592499  0.02636861  1
  O  O20  1  0.68355057  0.13762458  0.02636861  1
  O  O21  1  0.45701115  0.14587546  0.52972624  1
  O  O22  1  0.68886531  0.54298885  0.52972624  1
  O  O23  1  0.85412454  0.31113469  0.52972624  1
  O  O24  1  0.55072280  0.70815280  0.97235531  1
  O  O25  1  0.15742900  0.44927720  0.97235531  1
  O  O26  1  0.29184720  0.84257100  0.97235531  1
  O  O27  1  0.55966117  0.85320335  0.46730460  1
  O  O28  1  0.29354118  0.44033883  0.46730460  1
  O  O29  1  0.14679665  0.70645882  0.46730460  1
  O  O30  1  0.11942350  0.64938297  0.35959021  1
  O  O31  1  0.52995847  0.88057650  0.35959021  1
  O  O32  1  0.35061703  0.47004153  0.35959021  1
  O  O33  1  0.12992948  0.48204118  0.86400981  1
  O  O34  1  0.35211070  0.87007052  0.86400981  1
  O  O35  1  0.51795882  0.64788930  0.86400981  1
  O  O36  1  0.02289714  0.84394226  0.40769515  1
  O  O37  1  0.82104512  0.97710286  0.40769515  1
  O  O38  1  0.15605774  0.17895488  0.40769515  1
  O  O39  1  0.02767763  0.18735293  0.91089194  1
  O  O40  1  0.15967530  0.97232237  0.91089194  1
  O  O41  1  0.81264707  0.84032470  0.91089194  1
  O  O42  1  0.98039768  0.17271499  0.58812847  1
  O  O43  1  0.19231731  0.01960232  0.58812847  1
  O  O44  1  0.82728501  0.80768269  0.58812847  1
  O  O45  1  0.99477135  0.81152596  0.08616593  1
  O  O46  1  0.81675460  0.00522865  0.08616593  1
  O  O47  1  0.18847404  0.18324540  0.08616593  1
  O  O48  1  0.69412184  0.16374899  0.74851398  1
  O  O49  1  0.46962814  0.30587816  0.74851398  1
  O  O50  1  0.83625101  0.53037186  0.74851398  1
  O  O51  1  0.69656464  0.53289772  0.24692400  1
  O  O52  1  0.83633408  0.30343536  0.24692400  1
  O  O53  1  0.46710228  0.16366592  0.24692400  1
  O  O54  1  0.64948087  0.51407692  0.92371722  1
  O  O55  1  0.86459705  0.35051913  0.92371722  1
  O  O56  1  0.48592308  0.13540295  0.92371722  1
  O  O57  1  0.66383533  0.14645803  0.41931809  1
  O  O58  1  0.48262370  0.33616467  0.41931809  1
  O  O59  1  0.85354197  0.51737630  0.41931809  1
  O  O60  1  0.35726079  0.51085584  0.07441931  1
  O  O61  1  0.15359405  0.64273921  0.07441931  1
  O  O62  1  0.48914416  0.84640595  0.07441931  1
  O  O63  1  0.35408271  0.85615759  0.57810453  1
  O  O64  1  0.50207389  0.64591729  0.57810453  1
  O  O65  1  0.14384241  0.49792611  0.57810453  1
  O  O66  1  0.30387597  0.83774790  0.25788188  1
  O  O67  1  0.53387093  0.69612403  0.25788188  1
  O  O68  1  0.16225210  0.46612907  0.25788188  1
  O  O69  1  0.30253483  0.46437310  0.75919007  1
  O  O70  1  0.16183727  0.69746517  0.75919007  1
  O  O71  1  0.53562690  0.83816273  0.75919007  1
loop_
_geom_bond_atom_site_label_1
_geom_bond_atom_site_label_2
_geom_bond_distance
_geom_bond_site_symmetry_2
Na0 O44 2.454153 1_445
Na0 O42 2.454153 1_455
Na0 O43 2.454153 1_555
Na0 O38 2.598579 1_555
Na0 O36 2.598579 1_545
Na0 O37 2.598579 1_445
Na1 O45 2.458267 1_445
Na1 O47 2.458267 1_555
Na1 O46 2.458267 1_455
Na1 O39 2.546643 1_554
Na1 O41 2.546643 1_444
Na1 O40 2.546643 1_544
Na2 O48 2.419764 1_555
Na2 O50 2.419764 1_555
Na2 O49 2.419764 1_555
Na2 O56 2.655692 1_555
Na2 O54 2.655692 1_555
Na2 O55 2.655692 1_555
Na3 O57 2.450204 1_555
Na3 O59 2.450204 1_555
Na3 O58 2.450204 1_555
Na3 O51 2.559761 1_555
Na3 O53 2.559761 1_555
Na3 O52 2.559761 1_555
Na4 O68 2.492351 1_555
Na4 O66 2.492351 1_555
Na4 O67 2.492351 1_555
Na4 O62 2.640852 1_555
Na4 O60 2.640852 1_555
Na4 O61 2.640852 1_555
Na5 O63 2.380433 1_555
Na5 O65 2.380433 1_555
Na5 O64 2.380433 1_555
Na5 O69 2.768580 1_555
Na5 O71 2.768580 1_555
Na5 O70 2.768580 1_555
Mg0 O44 1.989149 1_445
Mg0 O42 1.989149 1_455
Mg0 O43 1.989149 1_555
Mg0 O7 2.071215 1_555
Mg0 O8 2.071216 1_545
Mg0 O6 2.071216 1_445
Mg1 O10 1.987783 1_555
Mg1 O9 1.987783 1_445
Mg1 O11 1.987783 1_545
Mg1 O45 2.123523 1_445
Mg1 O47 2.123523 1_555
Mg1 O46 2.123523 1_455
Mg2 O13 1.975122 1_555
Mg2 O14 1.975122 1_555
Mg2 O12 1.975122 1_555
Mg2 O48 2.210247 1_555
Mg2 O50 2.210247 1_555
Mg2 O49 2.210247 1_555
Mg3 O51 2.074013 1_555
Mg3 O53 2.074013 1_555
Mg3 O52 2.074013 1_555
Mg3 O16 2.149742 1_555
Mg3 O15 2.149742 1_555
Mg3 O17 2.149742 1_555
Mg4 O19 2.014014 1_556
Mg4 O20 2.014014 1_556
Mg4 O18 2.014015 1_556
Mg4 O56 2.090016 1_555
Mg4 O54 2.090016 1_555
Mg4 O55 2.090016 1_555
Mg5 O22 2.001251 1_555
Mg5 O21 2.001251 1_555
Mg5 O23 2.001251 1_555
Mg5 O57 2.141080 1_555
Mg5 O59 2.141080 1_555
Mg5 O58 2.141080 1_555
Mg6 O63 2.057997 1_555
Mg6 O65 2.057997 1_555
Mg6 O64 2.057997 1_555
Mg6 O28 2.115346 1_555
Mg6 O27 2.115346 1_555
Mg6 O29 2.115346 1_555
Mg7 O31 2.001855 1_555
Mg7 O32 2.001855 1_555
Mg7 O30 2.001856 1_555
Mg7 O68 2.088095 1_555
Mg7 O66 2.088095 1_555
Mg7 O67 2.088095 1_555
Mg8 O69 2.016647 1_555
Mg8 O71 2.016647 1_555
Mg8 O70 2.016647 1_555
Mg8 O34 2.023999 1_555
Mg8 O33 2.023999 1_555
Mg8 O35 2.023999 1_555
Ge0 O38 1.905129 1_555
Ge0 O36 1.905129 1_545
Ge0 O37 1.905129 1_445
Ge0 O1 1.932178 1_445
Ge0 O2 1.932178 1_455
Ge0 O0 1.932178 1_555
Ge1 O4 1.854436 1_445
Ge1 O3 1.854436 1_555
Ge1 O5 1.854436 1_455
Ge1 O39 2.105206 1_555
Ge1 O41 2.105206 1_445
Ge1 O40 2.105206 1_545
Ge2 O62 1.920359 1_555
Ge2 O60 1.920359 1_555
Ge2 O61 1.920359 1_555
Ge2 O25 1.997524 1_554
Ge2 O26 1.997524 1_554
Ge2 O24 1.997524 1_554
O0 S0 1.529837 1_555
O1 S1 1.529837 1_555
O2 S2 1.529837 1_655
O3 S3 1.597936 1_555
O4 S4 1.597936 1_655
O5 S5 1.597936 1_555
O6 S5 1.437205 1_565
O7 S3 1.437205 1_555
O8 S4 1.437205 1_555
O9 S1 1.462630 1_555
O10 S2 1.462630 1_555
O11 S0 1.462630 1_565
O12 S6 1.483872 1_555
O13 S7 1.483872 1_555
O14 S8 1.483872 1_555
O15 S9 1.458085 1_555
O16 S10 1.458085 1_555
O17 S11 1.458085 1_555
O18 S11 1.462911 1_555
O19 S9 1.462911 1_555
O20 S10 1.462911 1_555
O21 S7 1.468660 1_555
O22 S8 1.468660 1_555
O23 S6 1.468661 1_555
O24 S12 1.535364 1_555
O25 S13 1.535364 1_555
O26 S14 1.535364 1_555
O27 S15 1.459227 1_555
O28 S16 1.459227 1_555
O29 S17 1.459227 1_555
O30 S17 1.463155 1_555
O31 S15 1.463155 1_555
O32 S16 1.463155 1_555
O33 S13 1.444932 1_555
O34 S14 1.444932 1_555
O35 S12 1.444932 1_555
O36 S17 1.549480 1_555
O37 S15 1.549488 1_555
O38 S16 1.549485 1_555
O39 S13 1.516041 1_555
O40 S14 1.516033 1_555
O41 S12 1.516037 1_555
O42 S6 1.482263 1_555
O43 S7 1.482272 1_555
O44 S8 1.482268 1_555
O45 S9 1.469705 1_555
O46 S10 1.469696 1_555
O47 S11 1.469701 1_555
O48 S5 1.467027 1_555
O49 S3 1.467035 1_555
O50 S4 1.467031 1_655
O51 S1 1.475338 1_555
O52 S2 1.475329 1_655
O53 S0 1.475334 1_555
O54 S12 1.465562 1_555
O55 S13 1.465545 1_655
O56 S14 1.465552 1_545
O57 S15 1.468975 1_545
O58 S16 1.468992 1_555
O59 S17 1.468981 1_655
O60 S11 1.556271 1_555
O61 S9 1.556254 1_455
O62 S10 1.556262 1_565
O63 S7 1.481372 1_565
O64 S8 1.481389 1_555
O65 S6 1.481379 1_455
O66 S0 1.469321 1_565
O67 S1 1.469329 1_555
O68 S2 1.469325 1_555
O69 S3 1.466972 1_555
O70 S4 1.466964 1_555
O71 S5 1.466969 1_565
