# generated using pymatgen
data_Na18Nb20Zn4Si27(SO16)9
_symmetry_space_group_name_H-M   'P 1'
_cell_length_a   17.92609315
_cell_length_b   8.95527328
_cell_length_c   22.84099403
_cell_angle_alpha   90.06633708
_cell_angle_beta   89.79434283
_cell_angle_gamma   120.02782580
_symmetry_Int_Tables_number   1
_chemical_formula_structural   Na18Nb20Zn4Si27(SO16)9
_chemical_formula_sum   'Na18 Nb20 Zn4 Si27 S9 O144'
_cell_volume   3174.57336337
_cell_formula_units_Z   1
loop_
 _symmetry_equiv_pos_site_id
 _symmetry_equiv_pos_as_xyz
  1  'x, y, z'
loop_
 _atom_site_type_symbol
 _atom_site_label
 _atom_site_symmetry_multiplicity
 _atom_site_fract_x
 _atom_site_fract_y
 _atom_site_fract_z
 _atom_site_occupancy
  Na  Na0  1  0.31638528  0.01588359  0.24275798  1
  Na  Na1  1  0.81621404  0.01260407  0.24953148  1
  Na  Na2  1  0.99375882  0.62090923  0.24312990  1
  Na  Na3  1  0.31668478  0.61981285  0.75099741  1
  Na  Na4  1  0.81634754  0.61788436  0.74632601  1
  Na  Na5  1  0.49359330  0.36688614  0.74470951  1
  Na  Na6  1  0.99599062  0.99672791  0.49546006  1
  Na  Na7  1  0.50037937  0.00162459  0.49881978  1
  Na  Na8  1  0.00044391  0.99985557  0.00046481  1
  Na  Na9  1  0.49523883  0.99157790  0.99793040  1
  Na  Na10  1  0.32730396  0.32335403  0.82892047  1
  Na  Na11  1  0.83268525  0.32930384  0.82671392  1
  Na  Na12  1  0.33394651  0.33774895  0.32327557  1
  Na  Na13  1  0.82772888  0.33048025  0.32400066  1
  Na  Na14  1  0.16590826  0.66409627  0.16117058  1
  Na  Na15  1  0.65797810  0.65543050  0.16859670  1
  Na  Na16  1  0.16286022  0.66635068  0.67233343  1
  Na  Na17  1  0.66402974  0.66544617  0.66305604  1
  Nb  Nb0  1  0.99895133  0.00008411  0.35496926  1
  Nb  Nb1  1  0.50653049  0.01245509  0.35640155  1
  Nb  Nb2  1  0.00724307  0.99966589  0.85823781  1
  Nb  Nb3  1  0.49852017  0.99659241  0.85599363  1
  Nb  Nb4  1  0.00226333  0.99227147  0.64758755  1
  Nb  Nb5  1  0.50088274  0.01217056  0.65005487  1
  Nb  Nb6  1  0.00163517  0.99096040  0.14920024  1
  Nb  Nb7  1  0.50249938  0.00373747  0.14319094  1
  Nb  Nb8  1  0.34019658  0.33922681  0.97795259  1
  Nb  Nb9  1  0.83932265  0.34890561  0.97445917  1
  Nb  Nb10  1  0.34009848  0.33198839  0.47398099  1
  Nb  Nb11  1  0.83337161  0.34254144  0.47470954  1
  Nb  Nb12  1  0.16671046  0.67447083  0.01974638  1
  Nb  Nb13  1  0.66207826  0.66777906  0.01776949  1
  Nb  Nb14  1  0.16683744  0.66447421  0.51569187  1
  Nb  Nb15  1  0.66618134  0.65895152  0.51970981  1
  Nb  Nb16  1  0.16325758  0.66047532  0.31345067  1
  Nb  Nb17  1  0.66371493  0.66521003  0.31048015  1
  Nb  Nb18  1  0.16468276  0.66419363  0.81266378  1
  Nb  Nb19  1  0.66264377  0.66528335  0.81501362  1
  Zn  Zn0  1  0.33684786  0.32977723  0.69127423  1
  Zn  Zn1  1  0.83136534  0.34797441  0.68655957  1
  Zn  Zn2  1  0.34045410  0.32348512  0.18375756  1
  Zn  Zn3  1  0.83591114  0.34313934  0.19018559  1
  Si  Si0  1  0.14893970  0.00968141  0.25225449  1
  Si  Si1  1  0.64534506  0.00353430  0.24843904  1
  Si  Si2  1  0.85288387  0.70722068  0.25160569  1
  Si  Si3  1  0.00219275  0.28822389  0.24901434  1
  Si  Si4  1  0.49995543  0.29098186  0.25029891  1
  Si  Si5  1  0.14530264  0.28882534  0.74900131  1
  Si  Si6  1  0.64788750  0.28920621  0.75306406  1
  Si  Si7  1  0.00010282  0.70368010  0.75242696  1
  Si  Si8  1  0.50292439  0.71647603  0.74892941  1
  Si  Si9  1  0.35255336  0.99856863  0.75234820  1
  Si  Si10  1  0.47720959  0.33265670  0.58659012  1
  Si  Si11  1  0.83343951  0.62563832  0.58538239  1
  Si  Si12  1  0.47735006  0.62009166  0.08659149  1
  Si  Si13  1  0.97738202  0.62078707  0.08679839  1
  Si  Si14  1  0.33238119  0.04302874  0.08586752  1
  Si  Si15  1  0.30925993  0.66368884  0.91650067  1
  Si  Si16  1  0.81022155  0.67216960  0.91608294  1
  Si  Si17  1  0.02535952  0.37878249  0.91731974  1
  Si  Si18  1  0.52159186  0.37275949  0.91707214  1
  Si  Si19  1  0.17112892  0.95848453  0.91642684  1
  Si  Si20  1  0.66728702  0.96081073  0.91670387  1
  Si  Si21  1  0.31185106  0.95195668  0.41436798  1
  Si  Si22  1  0.80962630  0.95252873  0.41646651  1
  Si  Si23  1  0.16711259  0.37323790  0.41631709  1
  Si  Si24  1  0.66729878  0.38356012  0.41525133  1
  Si  Si25  1  0.02246814  0.67038607  0.41681316  1
  Si  Si26  1  0.52616482  0.67369499  0.41702244  1
  S  S0  1  0.35686431  0.71265849  0.25062822  1
  S  S1  1  0.85713313  0.00251178  0.75002267  1
  S  S2  1  0.97893436  0.33422628  0.58378843  1
  S  S3  1  0.18873623  0.04215648  0.58323780  1
  S  S4  1  0.68957887  0.04545979  0.58405642  1
  S  S5  1  0.33242970  0.62355154  0.58328922  1
  S  S6  1  0.83344200  0.04265090  0.08341365  1
  S  S7  1  0.18826198  0.33305777  0.08409946  1
  S  S8  1  0.69031907  0.33678556  0.08320480  1
  O  O0  1  0.09476021  0.01876802  0.30845374  1
  O  O1  1  0.59389264  0.01991069  0.30646001  1
  O  O2  1  0.40855447  0.79664994  0.30375015  1
  O  O3  1  0.91639499  0.81046733  0.30728965  1
  O  O4  1  0.48867405  0.16292993  0.30685435  1
  O  O5  1  0.99073763  0.16810620  0.30646135  1
  O  O6  1  0.09258707  0.16502731  0.80541153  1
  O  O7  1  0.59460981  0.17123408  0.80848680  1
  O  O8  1  0.49078126  0.81337229  0.80582654  1
  O  O9  1  0.98517995  0.80856393  0.80613817  1
  O  O10  1  0.41652503  0.02271649  0.80704915  1
  O  O11  1  0.90832600  0.02385295  0.80271758  1
  O  O12  1  0.40206537  0.96758075  0.69348513  1
  O  O13  1  0.89827746  0.97039731  0.69642577  1
  O  O14  1  0.08131140  0.19149622  0.69127127  1
  O  O15  1  0.58261537  0.20222643  0.69438280  1
  O  O16  1  0.01165006  0.83189198  0.69356433  1
  O  O17  1  0.51721472  0.83892225  0.69050594  1
  O  O18  1  0.39598658  0.82317543  0.19741920  1
  O  O19  1  0.90216026  0.83714239  0.19355037  1
  O  O20  1  0.01699197  0.19573423  0.19107607  1
  O  O21  1  0.51139554  0.18815301  0.19337697  1
  O  O22  1  0.08235671  0.96280189  0.19452272  1
  O  O23  1  0.58227436  0.97206148  0.19183481  1
  O  O24  1  0.43890784  0.36393329  0.64522023  1
  O  O25  1  0.94128486  0.36019983  0.63682843  1
  O  O26  1  0.23822558  0.11617874  0.63649222  1
  O  O27  1  0.74072402  0.12056197  0.63693373  1
  O  O28  1  0.31673953  0.52555116  0.63743454  1
  O  O29  1  0.81638633  0.52186626  0.64504108  1
  O  O30  1  0.43851415  0.51023889  0.14393954  1
  O  O31  1  0.93922668  0.51422210  0.14569578  1
  O  O32  1  0.31010269  0.10085156  0.14632960  1
  O  O33  1  0.81866144  0.11067935  0.13763287  1
  O  O34  1  0.23763105  0.35856263  0.13717239  1
  O  O35  1  0.73933612  0.35961098  0.13619980  1
  O  O36  1  0.22842849  0.30770956  0.03058928  1
  O  O37  1  0.72964240  0.30929476  0.02978210  1
  O  O38  1  0.41912902  0.53075937  0.02656843  1
  O  O39  1  0.91466070  0.52150663  0.02847862  1
  O  O40  1  0.34570858  0.16828049  0.02840449  1
  O  O41  1  0.84280660  0.15076864  0.03122087  1
  O  O42  1  0.22735606  0.14616254  0.52992421  1
  O  O43  1  0.73225589  0.15285659  0.53095570  1
  O  O44  1  0.34134139  0.53439113  0.53102567  1
  O  O45  1  0.84673740  0.52439140  0.52817282  1
  O  O46  1  0.41449234  0.30782426  0.52834402  1
  O  O47  1  0.92706167  0.31095783  0.53041562  1
  O  O48  1  0.26181508  0.69290276  0.97251575  1
  O  O49  1  0.76328468  0.69415962  0.97368390  1
  O  O50  1  0.08298740  0.46591760  0.97458427  1
  O  O51  1  0.58300469  0.47294086  0.97322478  1
  O  O52  1  0.15177170  0.83539214  0.97358654  1
  O  O53  1  0.65327358  0.83526876  0.97331266  1
  O  O54  1  0.26237923  0.83266108  0.47275873  1
  O  O55  1  0.76186200  0.83037916  0.47313079  1
  O  O56  1  0.15418077  0.47387469  0.47383646  1
  O  O57  1  0.65203805  0.46779675  0.47408879  1
  O  O58  1  0.08320531  0.69067735  0.47380874  1
  O  O59  1  0.58349201  0.69891530  0.47478104  1
  O  O60  1  0.06675866  0.63593348  0.35899495  1
  O  O61  1  0.56764478  0.63408348  0.35983528  1
  O  O62  1  0.25174495  0.86566779  0.35707180  1
  O  O63  1  0.75169410  0.87124108  0.35754584  1
  O  O64  1  0.18266278  0.50149430  0.36056691  1
  O  O65  1  0.68405280  0.50243632  0.35850290  1
  O  O66  1  0.06691935  0.49997453  0.85934432  1
  O  O67  1  0.56713434  0.49652145  0.85855899  1
  O  O68  1  0.18250353  0.86392651  0.85875377  1
  O  O69  1  0.68286545  0.86477156  0.85987717  1
  O  O70  1  0.25145510  0.63592769  0.85702563  1
  O  O71  1  0.75189646  0.63889240  0.85672484  1
  O  O72  1  0.01263426  0.83770667  0.41282717  1
  O  O73  1  0.50995320  0.83459971  0.40856946  1
  O  O74  1  0.40583749  0.97207182  0.40987050  1
  O  O75  1  0.90536881  0.97542834  0.41017670  1
  O  O76  1  0.08126986  0.18836668  0.41153236  1
  O  O77  1  0.58288474  0.19035829  0.41058027  1
  O  O78  1  0.00984705  0.18511468  0.90750132  1
  O  O79  1  0.51318766  0.18658334  0.91195198  1
  O  O80  1  0.08310460  0.97391509  0.90997473  1
  O  O81  1  0.58154626  0.97412469  0.91034260  1
  O  O82  1  0.40474885  0.83441176  0.90939749  1
  O  O83  1  0.90558140  0.83887106  0.90813365  1
  O  O84  1  0.48790797  0.15674336  0.58832457  1
  O  O85  1  0.99014294  0.17904268  0.58769430  1
  O  O86  1  0.09915017  0.02214299  0.58769814  1
  O  O87  1  0.60190134  0.02873853  0.58730566  1
  O  O88  1  0.41099587  0.79867008  0.58552052  1
  O  O89  1  0.92125045  0.82363820  0.59009866  1
  O  O90  1  0.49117273  0.81834383  0.09038626  1
  O  O91  1  0.98758249  0.81796502  0.08863988  1
  O  O92  1  0.42051188  0.02441727  0.09067563  1
  O  O93  1  0.91298142  0.02711115  0.08584988  1
  O  O94  1  0.09895784  0.17356376  0.08779020  1
  O  O95  1  0.60108200  0.17850177  0.08650802  1
  O  O96  1  0.34866262  0.17108017  0.74877388  1
  O  O97  1  0.84646748  0.15180168  0.74153316  1
  O  O98  1  0.24022025  0.31744056  0.74287045  1
  O  O99  1  0.74116644  0.30992622  0.74901901  1
  O  O100  1  0.41795454  0.52984686  0.74737224  1
  O  O101  1  0.91483708  0.52033949  0.74746241  1
  O  O102  1  0.34385041  0.53998564  0.24518741  1
  O  O103  1  0.84887729  0.52671245  0.24888381  1
  O  O104  1  0.41425823  0.30265190  0.25101346  1
  O  O105  1  0.91781064  0.30639902  0.24807646  1
  O  O106  1  0.24183442  0.17436544  0.24780131  1
  O  O107  1  0.74109972  0.16342564  0.24389561  1
  O  O108  1  0.31822836  0.49272106  0.92599738  1
  O  O109  1  0.81920902  0.49780482  0.92473260  1
  O  O110  1  0.42853669  0.36132729  0.92268587  1
  O  O111  1  0.92825447  0.35787784  0.92593019  1
  O  O112  1  0.25237173  0.14924733  0.92542028  1
  O  O113  1  0.75305179  0.14672376  0.92825093  1
  O  O114  1  0.31877444  0.14062091  0.42528102  1
  O  O115  1  0.82079745  0.14455377  0.43036496  1
  O  O116  1  0.25283567  0.35999991  0.42926435  1
  O  O117  1  0.75091850  0.35594482  0.42549074  1
  O  O118  1  0.42877310  0.49929134  0.42632052  1
  O  O119  1  0.92927744  0.49399418  0.42580647  1
  O  O120  1  0.17604818  0.48592348  0.07654232  1
  O  O121  1  0.67859793  0.49020403  0.07600359  1
  O  O122  1  0.07358299  0.64606267  0.07471707  1
  O  O123  1  0.57653104  0.64795253  0.07456680  1
  O  O124  1  0.25104254  0.84533147  0.07329912  1
  O  O125  1  0.75659652  0.86389711  0.07535887  1
  O  O126  1  0.17544713  0.86279610  0.57598261  1
  O  O127  1  0.67786824  0.86907704  0.57678233  1
  O  O128  1  0.25449236  0.64780837  0.57502891  1
  O  O129  1  0.75124903  0.65613490  0.57404724  1
  O  O130  1  0.06831664  0.49177511  0.57625794  1
  O  O131  1  0.57372478  0.50096310  0.57463380  1
  O  O132  1  0.15320493  0.82631366  0.25777645  1
  O  O133  1  0.65179436  0.82666199  0.25634404  1
  O  O134  1  0.27068103  0.70716054  0.25582295  1
  O  O135  1  0.76255845  0.70896062  0.25507654  1
  O  O136  1  0.08963622  0.48244663  0.25590836  1
  O  O137  1  0.58919177  0.47639665  0.25652385  1
  O  O138  1  0.15139889  0.47730590  0.75572511  1
  O  O139  1  0.65420216  0.48216509  0.75673725  1
  O  O140  1  0.08986694  0.70229939  0.75523976  1
  O  O141  1  0.58990554  0.69638170  0.75539860  1
  O  O142  1  0.26231339  0.81572610  0.75460187  1
  O  O143  1  0.77157197  0.83733348  0.75367558  1
loop_
_geom_bond_atom_site_label_1
_geom_bond_atom_site_label_2
_geom_bond_distance
_geom_bond_site_symmetry_2
Na0 O104 2.280491 1_555
Na0 O32 2.352487 1_555
Na0 O106 2.389627 1_555
Na0 O134 2.477297 1_545
Na0 O132 2.565235 1_545
Na0 O62 2.897618 1_545
Na0 O18 2.921762 1_545
Na1 O105 2.333297 1_555
Na1 O107 2.340029 1_555
Na1 O135 2.391143 1_545
Na1 O133 2.563091 1_545
Na1 O33 2.696599 1_555
Na1 O63 2.747455 1_545
Na2 O103 2.297653 1_555
Na2 O31 2.428410 1_555
Na2 O105 2.441510 1_555
Na2 O132 2.531498 1_655
Na2 O136 2.591148 1_655
Na2 O22 2.873628 1_655
Na2 O60 2.929536 1_655
Na3 O100 2.326826 1_555
Na3 O98 2.351919 1_555
Na3 O142 2.396958 1_555
Na3 O138 2.575434 1_555
Na3 O70 2.720466 1_555
Na3 O28 2.727008 1_555
Na4 O101 2.329119 1_555
Na4 O99 2.388667 1_555
Na4 O29 2.467265 1_555
Na4 O143 2.472151 1_555
Na4 O139 2.538164 1_555
Na4 O71 2.815019 1_555
Na4 O13 2.962737 1_555
Na4 O9 2.965454 1_555
Na5 O96 2.296158 1_555
Na5 O100 2.439576 1_555
Na5 O24 2.472963 1_555
Na5 O139 2.541784 1_555
Na5 O141 2.578726 1_555
Na5 O67 2.886834 1_555
Na5 O15 2.894894 1_555
Na6 O72 2.468670 1_655
Na6 O75 2.486290 1_555
Na6 O76 2.513550 1_665
Na6 O89 2.603631 1_555
Na6 O85 2.697526 1_565
Na6 O86 2.741493 1_665
Na7 O84 2.541675 1_555
Na7 O77 2.567270 1_555
Na7 O74 2.577714 1_545
Na7 O73 2.600648 1_545
Na7 O88 2.619796 1_545
Na7 O87 2.653081 1_555
Na8 O91 2.528048 1_455
Na8 O93 2.584823 1_465
Na8 O94 2.604922 1_565
Na8 O80 2.615926 1_554
Na8 O83 2.642503 1_454
Na8 O78 2.648638 1_564
Na9 O82 2.536420 1_555
Na9 O79 2.539856 1_565
Na9 O81 2.576735 1_555
Na9 O92 2.596337 1_566
Na9 O90 2.600955 1_556
Na9 O95 2.708575 1_566
Na10 O96 2.422619 1_555
Na10 O98 2.498371 1_555
Na10 O100 2.551154 1_555
Na10 O112 2.642764 1_555
Na10 O110 2.721074 1_555
Na10 O108 2.734974 1_555
Na11 O99 2.367734 1_555
Na11 O101 2.416355 1_555
Na11 O97 2.599165 1_555
Na11 O109 2.775052 1_555
Na11 O111 2.779191 1_555
Na11 O113 2.781889 1_555
Na12 O104 2.308754 1_555
Na12 O106 2.331468 1_555
Na12 O102 2.485199 1_555
Na12 O118 2.842829 1_555
Na12 O114 2.853644 1_555
Na12 O116 2.877171 1_555
Na13 O103 2.347592 1_555
Na13 O107 2.384590 1_555
Na13 O105 2.447262 1_555
Na13 O117 2.758940 1_555
Na13 O119 2.867030 1_555
Na13 O115 2.913792 1_555
Na14 O122 2.533733 1_555
Na14 O124 2.549139 1_555
Na14 O120 2.568269 1_555
Na14 O136 2.637991 1_555
Na14 O132 2.711314 1_555
Na14 O134 2.766328 1_555
Na15 O137 2.476995 1_555
Na15 O133 2.557744 1_555
Na15 O123 2.583265 1_555
Na15 O135 2.602126 1_555
Na15 O121 2.708025 1_555
Na15 O125 2.797309 1_555
Na16 O140 2.409175 1_555
Na16 O142 2.475922 1_555
Na16 O138 2.488552 1_555
Na16 O130 2.738439 1_555
Na16 O126 2.756301 1_555
Na16 O128 2.812703 1_555
Na17 O131 2.549379 1_555
Na17 O141 2.576432 1_555
Na17 O129 2.586900 1_555
Na17 O127 2.611930 1_555
Na17 O139 2.649464 1_555
Na17 O143 2.724230 1_555
Nb0 O5 1.933938 1_555
Nb0 O3 1.936954 1_545
Nb0 O0 1.950963 1_655
Nb0 O75 2.016887 1_545
Nb0 O76 2.051372 1_655
Nb0 O72 2.069992 1_645
Nb1 O4 1.907075 1_555
Nb1 O1 1.908125 1_555
Nb1 O77 1.941174 1_555
Nb1 O73 2.015727 1_545
Nb1 O74 2.052397 1_545
Nb1 O2 2.208741 1_545
Nb2 O80 1.903946 1_555
Nb2 O6 1.926868 1_565
Nb2 O9 1.955139 1_455
Nb2 O78 1.986165 1_565
Nb2 O83 2.013944 1_455
Nb2 O11 2.280459 1_465
Nb3 O8 1.947667 1_555
Nb3 O10 1.954878 1_565
Nb3 O7 1.970984 1_565
Nb3 O82 1.992198 1_555
Nb3 O81 2.027365 1_555
Nb3 O79 2.036483 1_565
Nb4 O16 1.854877 1_555
Nb4 O14 1.913726 1_565
Nb4 O89 1.981909 1_455
Nb4 O13 2.092268 1_455
Nb4 O86 2.116147 1_565
Nb4 O85 2.255522 1_465
Nb5 O12 1.887259 1_545
Nb5 O15 1.891954 1_555
Nb5 O17 1.950990 1_545
Nb5 O84 2.006571 1_555
Nb5 O87 2.251318 1_555
Nb5 O88 2.313406 1_545
Nb6 O22 1.898862 1_555
Nb6 O19 1.906645 1_455
Nb6 O20 1.961140 1_565
Nb6 O91 1.995970 1_455
Nb6 O94 2.194921 1_565
Nb6 O93 2.292749 1_465
Nb7 O23 1.943745 1_545
Nb7 O21 1.949409 1_555
Nb7 O90 1.977903 1_545
Nb7 O92 1.979582 1_555
Nb7 O95 2.113957 1_555
Nb7 O18 2.166136 1_545
Nb8 O38 1.937787 1_556
Nb8 O110 1.952691 1_555
Nb8 O40 1.958975 1_556
Nb8 O108 2.000435 1_555
Nb8 O112 2.034925 1_555
Nb8 O36 2.226414 1_556
Nb9 O111 1.906807 1_555
Nb9 O39 1.911483 1_556
Nb9 O109 1.919826 1_555
Nb9 O113 1.997179 1_555
Nb9 O37 2.207593 1_556
Nb9 O41 2.224861 1_556
Nb10 O118 1.887953 1_555
Nb10 O114 1.913997 1_555
Nb10 O46 1.915323 1_555
Nb10 O116 1.989447 1_555
Nb10 O44 2.222146 1_555
Nb10 O42 2.259857 1_555
Nb11 O117 1.911209 1_555
Nb11 O119 1.923258 1_555
Nb11 O45 1.951325 1_555
Nb11 O115 1.953935 1_555
Nb11 O43 2.174459 1_555
Nb11 O47 2.238586 1_555
Nb12 O52 1.910989 1_554
Nb12 O48 1.950163 1_554
Nb12 O124 1.953630 1_555
Nb12 O122 1.997194 1_555
Nb12 O50 2.001491 1_554
Nb12 O120 2.202602 1_555
Nb13 O53 1.883451 1_554
Nb13 O51 1.902571 1_554
Nb13 O123 1.944217 1_555
Nb13 O49 1.979823 1_554
Nb13 O125 2.172100 1_555
Nb13 O121 2.205631 1_555
Nb14 O56 1.867899 1_555
Nb14 O54 1.890259 1_555
Nb14 O58 1.892286 1_555
Nb14 O128 2.139776 1_555
Nb14 O130 2.162974 1_555
Nb14 O126 2.189982 1_555
Nb15 O57 1.908901 1_555
Nb15 O55 1.945736 1_555
Nb15 O129 1.979543 1_555
Nb15 O59 1.980182 1_555
Nb15 O131 1.991175 1_555
Nb15 O127 2.210404 1_555
Nb16 O60 1.931311 1_555
Nb16 O64 1.951423 1_555
Nb16 O136 1.978059 1_555
Nb16 O62 1.993820 1_555
Nb16 O132 2.032007 1_555
Nb16 O134 2.189278 1_555
Nb17 O61 1.954670 1_555
Nb17 O137 1.977068 1_555
Nb17 O133 1.995089 1_555
Nb17 O65 1.999845 1_555
Nb17 O63 2.035313 1_555
Nb17 O135 2.045661 1_555
Nb18 O66 1.944648 1_555
Nb18 O68 1.958521 1_555
Nb18 O70 1.978968 1_555
Nb18 O140 2.026626 1_555
Nb18 O138 2.036528 1_555
Nb18 O142 2.067316 1_555
Nb19 O67 1.898999 1_555
Nb19 O69 1.929571 1_555
Nb19 O71 1.978206 1_555
Nb19 O141 2.002234 1_555
Nb19 O139 2.057162 1_555
Nb19 O143 2.263608 1_555
O0 Si0 1.633266 1_555
O1 Si1 1.659723 1_555
O2 S0 1.484923 1_555
O3 Si2 1.650115 1_555
O4 Si4 1.671546 1_555
O5 Si3 1.643551 1_655
O6 Si5 1.651746 1_555
O7 Si6 1.617213 1_555
O8 Si8 1.635137 1_555
O9 Si7 1.644781 1_655
O10 Si9 1.638399 1_545
O11 S1 1.469423 1_555
O12 Si9 1.705726 1_555
O13 S1 1.526558 1_565
O14 Si5 1.679830 1_555
O15 Si6 1.693806 1_555
O16 Si7 1.712450 1_555
O17 Si8 1.663904 1_555
O18 S0 1.500139 1_555
O19 Si2 1.690832 1_555
O20 Si3 1.650022 1_555
O21 Si4 1.662756 1_555
O22 Si0 1.687666 1_565
O23 Si1 1.649250 1_565
O24 Si10 1.590047 1_555
O24 Zn0 1.993526 1_555
O25 S2 1.458731 1_555
O25 Zn1 2.225572 1_555
O26 S3 1.457172 1_555
O26 Zn0 2.230674 1_555
O27 S4 1.463063 1_555
O27 Zn1 2.183685 1_555
O28 S5 1.460069 1_555
O28 Zn0 2.314442 1_555
O29 Si11 1.590450 1_555
O29 Zn1 1.954530 1_555
O30 Si12 1.574561 1_555
O30 Zn2 1.940073 1_555
O31 Si13 1.591037 1_555
O31 Zn3 1.990031 1_555
O32 Si14 1.592541 1_555
O32 Zn2 1.978788 1_555
O33 S6 1.460301 1_555
O33 Zn3 2.285333 1_555
O34 S7 1.452467 1_555
O34 Zn2 2.285317 1_555
O35 S8 1.451337 1_555
O35 Zn3 2.193329 1_555
O36 S7 1.490111 1_555
O37 S8 1.487711 1_555
O38 Si12 1.667618 1_555
O39 Si13 1.684221 1_555
O40 Si14 1.664588 1_555
O41 S6 1.491773 1_555
O42 S3 1.476785 1_555
O43 S4 1.496987 1_555
O44 S5 1.487340 1_555
O45 Si11 1.672658 1_555
O46 Si10 1.686189 1_555
O47 S2 1.485896 1_555
O48 Si15 1.625691 1_555
O49 Si16 1.623262 1_555
O50 Si17 1.608552 1_555
O51 Si18 1.637326 1_555
O52 Si19 1.630133 1_555
O53 Si20 1.648423 1_555
O54 Si21 1.659259 1_555
O55 Si22 1.631796 1_555
O56 Si23 1.672182 1_555
O57 Si24 1.628354 1_555
O58 Si25 1.650713 1_555
O59 Si26 1.619964 1_555
O60 Si25 1.645086 1_555
O61 Si26 1.625076 1_555
O62 Si21 1.626420 1_555
O63 Si22 1.634240 1_555
O64 Si23 1.642815 1_555
O65 Si24 1.607490 1_555
O66 Si17 1.635078 1_555
O67 Si18 1.664667 1_555
O68 Si19 1.631637 1_555
O69 Si20 1.654578 1_555
O70 Si15 1.653021 1_555
O71 Si16 1.648500 1_555
O72 Si25 1.596674 1_555
O73 Si26 1.618089 1_555
O74 Si21 1.605190 1_555
O75 Si22 1.629227 1_555
O76 Si23 1.603700 1_555
O77 Si24 1.635576 1_555
O78 Si17 1.628632 1_555
O79 Si18 1.601377 1_555
O80 Si19 1.658502 1_555
O81 Si20 1.607091 1_555
O82 Si15 1.634986 1_555
O83 Si16 1.621129 1_555
O84 Si10 1.680077 1_555
O85 S2 1.503166 1_555
O86 S3 1.527189 1_555
O87 S4 1.503947 1_555
O88 S5 1.495092 1_555
O89 Si11 1.685457 1_555
O90 Si12 1.667475 1_555
O91 Si13 1.682237 1_555
O92 Si14 1.673485 1_555
O93 S6 1.501544 1_555
O94 S7 1.523424 1_555
O95 S8 1.517846 1_555
O96 Si9 1.583156 1_545
O96 Zn0 2.024117 1_555
O97 S1 1.455416 1_555
O97 Zn1 2.284683 1_555
O98 Si5 1.594481 1_555
O98 Zn0 2.048310 1_555
O99 Si6 1.589772 1_555
O99 Zn1 2.049138 1_555
O100 Si8 1.602195 1_555
O100 Zn0 2.089672 1_555
O101 Si7 1.591847 1_655
O101 Zn1 2.062779 1_555
O102 S0 1.449045 1_555
O102 Zn2 2.368048 1_555
O103 Si2 1.582940 1_555
O103 Zn3 2.041773 1_555
O104 Si4 1.591115 1_555
O104 Zn2 2.099373 1_555
O105 Si3 1.600527 1_655
O105 Zn3 2.123798 1_555
O106 Si0 1.581000 1_555
O106 Zn2 2.161403 1_555
O107 Si1 1.595807 1_555
O107 Zn3 2.058097 1_555
O108 Si15 1.632307 1_555
O109 Si16 1.660105 1_555
O110 Si18 1.623916 1_555
O111 Si17 1.665921 1_655
O112 Si19 1.610244 1_545
O113 Si20 1.626413 1_545
O114 Si21 1.649686 1_545
O115 Si22 1.659086 1_545
O116 Si23 1.627441 1_555
O117 Si24 1.654221 1_555
O118 Si26 1.673771 1_555
O119 Si25 1.638714 1_655
O120 S7 1.500855 1_555
O121 S8 1.499502 1_555
O122 Si13 1.645408 1_455
O123 Si12 1.688608 1_555
O124 Si14 1.661647 1_565
O125 S6 1.512654 1_565
O126 S3 1.510254 1_565
O127 S4 1.494806 1_565
O128 S5 1.529849 1_555
O129 Si11 1.648640 1_555
O130 S2 1.524314 1_455
O131 Si10 1.651471 1_555
O132 Si0 1.686559 1_565
O133 Si1 1.654968 1_565
O134 S0 1.525083 1_555
O135 Si2 1.628682 1_555
O136 Si3 1.667204 1_555
O137 Si4 1.636735 1_555
O138 Si5 1.642993 1_555
O139 Si6 1.676245 1_555
O140 Si7 1.616850 1_555
O141 Si8 1.663718 1_555
O142 Si9 1.627623 1_555
O143 S1 1.508704 1_565
