# generated using pymatgen
data_MgMn2O4
_symmetry_space_group_name_H-M   'P 1'
_cell_length_a   3.06136942
_cell_length_b   3.06197500
_cell_length_c   10.03560541
_cell_angle_alpha   89.97728780
_cell_angle_beta   90.01097168
_cell_angle_gamma   119.97969388
_symmetry_Int_Tables_number   1
_chemical_formula_structural   MgMn2O4
_chemical_formula_sum   'Mg1 Mn2 O4'
_cell_volume   81.48550923
_cell_formula_units_Z   1
loop_
 _symmetry_equiv_pos_site_id
 _symmetry_equiv_pos_as_xyz
  1  'x, y, z'
loop_
 _atom_site_type_symbol
 _atom_site_label
 _atom_site_symmetry_multiplicity
 _atom_site_fract_x
 _atom_site_fract_y
 _atom_site_fract_z
 _atom_site_occupancy
  Mg  Mg0  1  0.99999211  0.00000072  0.24998934  1
  Mn  Mn0  1  0.99999267  0.99991902  0.98071547  1
  Mn  Mn1  1  0.99994014  0.00007970  0.51927071  1
  O  O0  1  0.66662376  0.33319959  0.37401157  1
  O  O1  1  0.66666426  0.33328148  0.90127148  1
  O  O2  1  0.33332151  0.66680241  0.12602825  1
  O  O3  1  0.33326555  0.66671609  0.59871518  1
loop_
_geom_bond_atom_site_label_1
_geom_bond_atom_site_label_2
_geom_bond_distance
_geom_bond_site_symmetry_2
Mg0 O2 2.161425 1_645
Mg0 O2 2.161699 1_545
Mg0 O0 2.161865 1_555
Mg0 O2 2.161908 1_655
Mg0 O0 2.161967 1_655
Mg0 O0 2.162260 1_545
Mn0 O1 1.938783 1_565
Mn0 O1 1.939313 1_665
Mn0 O1 1.939807 1_555
Mn0 O2 2.290588 1_656
Mn0 O2 2.291707 1_556
Mn0 O2 2.292810 1_666
Mn1 O3 1.938781 1_645
Mn1 O3 1.939322 1_545
Mn1 O3 1.939806 1_655
Mn1 O0 2.290227 1_555
Mn1 O0 2.291390 1_655
Mn1 O0 2.292461 1_545
