# generated using pymatgen
data_CaNb5(PO4)9
_symmetry_space_group_name_H-M   'P 1'
_cell_length_a   8.86910161
_cell_length_b   8.86910131
_cell_length_c   22.86195892
_cell_angle_alpha   90.00000000
_cell_angle_beta   90.00000000
_cell_angle_gamma   120.00000108
_symmetry_Int_Tables_number   1
_chemical_formula_structural   CaNb5(PO4)9
_chemical_formula_sum   'Ca2 Nb10 P18 O72'
_cell_volume   1557.41127076
_cell_formula_units_Z   2
loop_
 _symmetry_equiv_pos_site_id
 _symmetry_equiv_pos_as_xyz
  1  'x, y, z'
loop_
 _atom_site_type_symbol
 _atom_site_label
 _atom_site_symmetry_multiplicity
 _atom_site_fract_x
 _atom_site_fract_y
 _atom_site_fract_z
 _atom_site_occupancy
  Ca  Ca0  1  0.66666700  0.33333300  0.69367271  1
  Ca  Ca1  1  0.66666700  0.33333300  0.19367271  1
  Nb  Nb0  1  0.00000000  0.00000000  0.35920407  1
  Nb  Nb1  1  0.00000000  0.00000000  0.85920407  1
  Nb  Nb2  1  0.00000000  0.00000000  0.64261893  1
  Nb  Nb3  1  0.00000000  0.00000000  0.14261893  1
  Nb  Nb4  1  0.66666700  0.33333300  0.97907803  1
  Nb  Nb5  1  0.66666700  0.33333300  0.47907803  1
  Nb  Nb6  1  0.33333300  0.66666700  0.02073617  1
  Nb  Nb7  1  0.33333300  0.66666700  0.52073617  1
  Nb  Nb8  1  0.33333300  0.66666700  0.30671701  1
  Nb  Nb9  1  0.33333300  0.66666700  0.80671701  1
  P  P0  1  0.27211334  0.98958816  0.25191351  1
  P  P1  1  0.71747483  0.72788666  0.25191351  1
  P  P2  1  0.01041184  0.28252517  0.25191351  1
  P  P3  1  0.27211334  0.28252517  0.75191351  1
  P  P4  1  0.01041184  0.72788666  0.75191351  1
  P  P5  1  0.71747483  0.98958816  0.75191351  1
  P  P6  1  0.95567551  0.33368016  0.58310780  1
  P  P7  1  0.37800564  0.04432449  0.58310780  1
  P  P8  1  0.66631984  0.62199436  0.58310780  1
  P  P9  1  0.95567551  0.62199436  0.08310780  1
  P  P10  1  0.66631984  0.04432449  0.08310780  1
  P  P11  1  0.37800564  0.33368016  0.08310780  1
  P  P12  1  0.61332623  0.66005080  0.91507731  1
  P  P13  1  0.04672357  0.38667377  0.91507731  1
  P  P14  1  0.33994920  0.95327643  0.91507731  1
  P  P15  1  0.61332623  0.95327643  0.41507731  1
  P  P16  1  0.33994920  0.38667377  0.41507731  1
  P  P17  1  0.04672357  0.66005080  0.41507731  1
  O  O0  1  0.17319260  0.99647895  0.30738342  1
  O  O1  1  0.82328635  0.82680740  0.30738342  1
  O  O2  1  0.00352105  0.17671365  0.30738342  1
  O  O3  1  0.17319260  0.17671365  0.80738342  1
  O  O4  1  0.00352105  0.82680740  0.80738342  1
  O  O5  1  0.82328635  0.99647895  0.80738342  1
  O  O6  1  0.80393441  0.96211332  0.69640044  1
  O  O7  1  0.15817890  0.19606559  0.69640044  1
  O  O8  1  0.03788668  0.84182110  0.69640044  1
  O  O9  1  0.80393441  0.84182110  0.19640044  1
  O  O10  1  0.03788668  0.19606559  0.19640044  1
  O  O11  1  0.15817890  0.96211332  0.19640044  1
  O  O12  1  0.89867373  0.38477360  0.63681920  1
  O  O13  1  0.48610087  0.10132627  0.63681920  1
  O  O14  1  0.61522640  0.51389913  0.63681920  1
  O  O15  1  0.89867373  0.51389913  0.13681920  1
  O  O16  1  0.61522640  0.10132627  0.13681920  1
  O  O17  1  0.48610087  0.38477360  0.13681920  1
  O  O18  1  0.46728203  0.30083272  0.02874562  1
  O  O19  1  0.83355170  0.53271797  0.02874562  1
  O  O20  1  0.69916728  0.16644830  0.02874562  1
  O  O21  1  0.46728203  0.16644830  0.52874562  1
  O  O22  1  0.69916728  0.53271797  0.52874562  1
  O  O23  1  0.83355170  0.30083272  0.52874562  1
  O  O24  1  0.52911473  0.69370308  0.96842779  1
  O  O25  1  0.16458734  0.47088527  0.96842779  1
  O  O26  1  0.30629692  0.83541266  0.96842779  1
  O  O27  1  0.52911473  0.83541266  0.46842779  1
  O  O28  1  0.30629692  0.47088527  0.46842779  1
  O  O29  1  0.16458734  0.69370308  0.46842779  1
  O  O30  1  0.12996764  0.62773853  0.36090356  1
  O  O31  1  0.49776989  0.87003236  0.36090356  1
  O  O32  1  0.37226147  0.50223011  0.36090356  1
  O  O33  1  0.12996764  0.50223011  0.86090356  1
  O  O34  1  0.37226147  0.87003236  0.86090356  1
  O  O35  1  0.49776989  0.62773853  0.86090356  1
  O  O36  1  0.02132597  0.81956412  0.40690853  1
  O  O37  1  0.79823816  0.97867403  0.40690853  1
  O  O38  1  0.18043588  0.20176184  0.40690853  1
  O  O39  1  0.02132597  0.20176184  0.90690853  1
  O  O40  1  0.18043588  0.97867403  0.90690853  1
  O  O41  1  0.79823816  0.81956412  0.90690853  1
  O  O42  1  0.97048813  0.16619518  0.59141695  1
  O  O43  1  0.19570704  0.02951187  0.59141695  1
  O  O44  1  0.83380482  0.80429296  0.59141695  1
  O  O45  1  0.97048813  0.80429296  0.09141695  1
  O  O46  1  0.83380482  0.02951187  0.09141695  1
  O  O47  1  0.19570704  0.16619518  0.09141695  1
  O  O48  1  0.69794242  0.14509577  0.75018246  1
  O  O49  1  0.44715435  0.30205758  0.75018246  1
  O  O50  1  0.85490423  0.55284565  0.75018246  1
  O  O51  1  0.69794242  0.55284565  0.25018246  1
  O  O52  1  0.85490423  0.30205758  0.25018246  1
  O  O53  1  0.44715435  0.14509577  0.25018246  1
  O  O54  1  0.63339753  0.49919070  0.92762093  1
  O  O55  1  0.86579416  0.36660247  0.92762093  1
  O  O56  1  0.50080930  0.13420584  0.92762093  1
  O  O57  1  0.63339753  0.13420584  0.42762093  1
  O  O58  1  0.50080930  0.36660247  0.42762093  1
  O  O59  1  0.86579416  0.49919070  0.42762093  1
  O  O60  1  0.34166840  0.48287619  0.06441053  1
  O  O61  1  0.14120679  0.65833160  0.06441053  1
  O  O62  1  0.51712381  0.85879321  0.06441053  1
  O  O63  1  0.34166840  0.85879321  0.56441053  1
  O  O64  1  0.51712381  0.65833160  0.56441053  1
  O  O65  1  0.14120679  0.48287619  0.56441053  1
  O  O66  1  0.27868561  0.81599960  0.26000631  1
  O  O67  1  0.53731299  0.72131439  0.26000631  1
  O  O68  1  0.18400040  0.46268701  0.26000631  1
  O  O69  1  0.27868561  0.46268701  0.76000631  1
  O  O70  1  0.18400040  0.72131439  0.76000631  1
  O  O71  1  0.53731299  0.81599960  0.76000631  1
loop_
_geom_bond_atom_site_label_1
_geom_bond_atom_site_label_2
_geom_bond_distance
_geom_bond_site_symmetry_2
Ca0 O50 2.235244 1_555
Ca0 O48 2.235244 1_555
Ca0 O49 2.235244 1_555
Ca0 O13 2.278792 1_555
Ca0 O14 2.278792 1_555
Ca0 O12 2.278792 1_555
Ca1 O51 2.235244 1_555
Ca1 O53 2.235244 1_555
Ca1 O52 2.235244 1_555
Ca1 O16 2.278792 1_555
Ca1 O15 2.278792 1_555
Ca1 O17 2.278792 1_555
Nb0 O2 1.952434 1_555
Nb0 O1 1.952434 1_445
Nb0 O0 1.952434 1_545
Nb0 O38 2.022098 1_555
Nb0 O37 2.022098 1_445
Nb0 O36 2.022098 1_545
Nb1 O3 1.952434 1_555
Nb1 O4 1.952434 1_545
Nb1 O5 1.952434 1_445
Nb1 O39 2.022098 1_555
Nb1 O41 2.022098 1_445
Nb1 O40 2.022098 1_545
Nb2 O44 1.999313 1_445
Nb2 O43 1.999313 1_555
Nb2 O42 1.999313 1_455
Nb2 O8 2.015999 1_545
Nb2 O7 2.015999 1_555
Nb2 O6 2.015999 1_445
Nb3 O45 1.999313 1_445
Nb3 O47 1.999313 1_555
Nb3 O46 1.999313 1_455
Nb3 O11 2.015999 1_545
Nb3 O9 2.015999 1_445
Nb3 O10 2.015999 1_555
Nb4 O19 1.997456 1_556
Nb4 O18 1.997456 1_556
Nb4 O20 1.997456 1_556
Nb4 O56 2.017158 1_555
Nb4 O55 2.017158 1_555
Nb4 O54 2.017158 1_555
Nb5 O22 1.997456 1_555
Nb5 O21 1.997456 1_555
Nb5 O23 1.997456 1_555
Nb5 O57 2.017158 1_555
Nb5 O59 2.017158 1_555
Nb5 O58 2.017158 1_555
Nb6 O62 1.944230 1_555
Nb6 O60 1.944230 1_555
Nb6 O61 1.944230 1_555
Nb6 O25 2.021473 1_554
Nb6 O24 2.021473 1_554
Nb6 O26 2.021473 1_554
Nb7 O63 1.944230 1_555
Nb7 O65 1.944230 1_555
Nb7 O64 1.944230 1_555
Nb7 O28 2.021473 1_555
Nb7 O27 2.021473 1_555
Nb7 O29 2.021473 1_555
Nb8 O68 1.942008 1_555
Nb8 O66 1.942008 1_555
Nb8 O67 1.942008 1_555
Nb8 O31 2.069865 1_555
Nb8 O32 2.069865 1_555
Nb8 O30 2.069865 1_555
Nb9 O69 1.942008 1_555
Nb9 O71 1.942008 1_555
Nb9 O70 1.942008 1_555
Nb9 O34 2.069865 1_555
Nb9 O33 2.069865 1_555
Nb9 O35 2.069865 1_555
O0 P0 1.560539 1_555
O1 P1 1.560539 1_555
O2 P2 1.560539 1_555
O3 P3 1.560539 1_555
O4 P4 1.560539 1_555
O5 P5 1.560539 1_555
O6 P5 1.563635 1_555
O7 P3 1.563636 1_555
O8 P4 1.563636 1_555
O9 P1 1.563636 1_555
O10 P2 1.563635 1_555
O11 P0 1.563636 1_555
O12 P6 1.482526 1_555
O13 P7 1.482526 1_555
O14 P8 1.482526 1_555
O15 P9 1.482526 1_555
O16 P10 1.482526 1_555
O17 P11 1.482526 1_555
O18 P11 1.577058 1_555
O19 P9 1.577057 1_555
O20 P10 1.577057 1_555
O21 P7 1.577057 1_555
O22 P8 1.577058 1_555
O23 P6 1.577057 1_555
O24 P12 1.535412 1_555
O25 P13 1.535412 1_555
O26 P14 1.535412 1_555
O27 P15 1.535412 1_555
O28 P16 1.535412 1_555
O29 P17 1.535412 1_555
O30 P17 1.540365 1_555
O31 P15 1.540365 1_555
O32 P16 1.540365 1_555
O33 P13 1.540365 1_555
O34 P14 1.540365 1_555
O35 P12 1.540365 1_555
O36 P17 1.551058 1_555
O37 P15 1.551067 1_555
O38 P16 1.551063 1_555
O39 P13 1.551067 1_555
O40 P14 1.551058 1_555
O41 P12 1.551063 1_555
O42 P6 1.566854 1_555
O43 P7 1.566863 1_555
O44 P8 1.566859 1_555
O45 P9 1.566862 1_555
O46 P10 1.566854 1_555
O47 P11 1.566859 1_555
O48 P5 1.474019 1_545
O49 P3 1.474028 1_555
O50 P4 1.474024 1_655
O51 P1 1.474028 1_555
O52 P2 1.474019 1_655
O53 P0 1.474024 1_545
O54 P12 1.550267 1_555
O55 P13 1.550249 1_655
O56 P14 1.550256 1_545
O57 P15 1.550249 1_545
O58 P16 1.550267 1_555
O59 P17 1.550256 1_655
O60 P11 1.569708 1_555
O61 P9 1.569691 1_455
O62 P10 1.569697 1_565
O63 P7 1.569691 1_565
O64 P8 1.569708 1_555
O65 P6 1.569697 1_455
O66 P0 1.580399 1_555
O67 P1 1.580408 1_555
O68 P2 1.580404 1_555
O69 P3 1.580408 1_555
O70 P4 1.580399 1_555
O71 P5 1.580404 1_555
