# generated using pymatgen
data_MgMn4ZnO8
_symmetry_space_group_name_H-M   'P 1'
_cell_length_a   2.95608443
_cell_length_b   7.76824702
_cell_length_c   8.25570939
_cell_angle_alpha   80.07597894
_cell_angle_beta   82.19338881
_cell_angle_gamma   81.77654465
_symmetry_Int_Tables_number   1
_chemical_formula_structural   MgMn4ZnO8
_chemical_formula_sum   'Mg1 Mn4 Zn1 O8'
_cell_volume   183.61817168
_cell_formula_units_Z   1
loop_
 _symmetry_equiv_pos_site_id
 _symmetry_equiv_pos_as_xyz
  1  'x, y, z'
loop_
 _atom_site_type_symbol
 _atom_site_label
 _atom_site_symmetry_multiplicity
 _atom_site_fract_x
 _atom_site_fract_y
 _atom_site_fract_z
 _atom_site_occupancy
  Mg  Mg0  1  0.51171700  0.47818800  0.51362800  1
  Mn  Mn0  1  0.63029300  0.12692900  0.59267000  1
  Mn  Mn1  1  0.05696500  0.56196100  0.15684200  1
  Mn  Mn2  1  0.89618500  0.46618300  0.84387700  1
  Mn  Mn3  1  0.31071800  0.82503200  0.46003500  1
  Zn  Zn0  1  0.33245900  0.18978600  0.24326000  1
  O  O0  1  0.91877900  0.64986300  0.56678700  1
  O  O1  1  0.47706200  0.34329700  0.75275400  1
  O  O2  1  0.48734100  0.64224200  0.28258000  1
  O  O3  1  0.11051600  0.28869400  0.47531200  1
  O  O4  1  0.16718300  0.96889400  0.65051100  1
  O  O5  1  0.84419000  0.34080800  0.12831400  1
  O  O6  1  0.73211900  0.98958500  0.34970300  1
  O  O7  1  0.32195700  0.59538300  0.93223000  1
loop_
_geom_bond_atom_site_label_1
_geom_bond_atom_site_label_2
_geom_bond_distance
_geom_bond_site_symmetry_2
Mg0 O0 2.055078 1_555
Mg0 O1 2.066045 1_555
Mg0 O0 2.089838 1_455
Mg0 O3 2.106026 1_555
Mg0 O2 2.107349 1_555
Mg0 O3 2.159445 1_655
Mn0 O4 1.923659 1_645
Mn0 O4 1.926247 1_545
Mn0 O3 2.061567 1_655
Mn0 O3 2.076317 1_555
Mn0 O1 2.272038 1_555
Mn0 O6 2.394616 1_545
Mn1 O7 1.901895 1_554
Mn1 O2 1.936428 1_455
Mn1 O5 1.972647 1_455
Mn1 O2 1.973305 1_555
Mn1 O5 2.696147 1_555
Mn2 O7 1.961984 1_555
Mn2 O1 1.962476 1_555
Mn2 O1 1.963010 1_655
Mn2 O7 1.996647 1_655
Mn2 O5 2.375466 1_556
Mn2 O0 2.476712 1_555
Mn3 O0 1.931577 1_455
Mn3 O6 1.939436 1_555
Mn3 O4 2.047095 1_555
Mn3 O2 2.175388 1_555
Mn3 O6 2.187595 1_455
Mn3 O0 2.275211 1_555
O3 Zn0 2.170855 1_555
O5 Zn0 1.965736 1_655
O5 Zn0 2.073443 1_555
O6 Zn0 1.967748 1_565
O6 Zn0 2.497023 1_665
