# generated using pymatgen
data_Na3YAl(PO4)3
_symmetry_space_group_name_H-M   'P 1'
_cell_length_a   8.95742840
_cell_length_b   8.91770432
_cell_length_c   22.20602698
_cell_angle_alpha   90.00854203
_cell_angle_beta   89.96791202
_cell_angle_gamma   119.68744233
_symmetry_Int_Tables_number   1
_chemical_formula_structural   Na3YAl(PO4)3
_chemical_formula_sum   'Na18 Y6 Al6 P18 O72'
_cell_volume   1540.98022192
_cell_formula_units_Z   6
loop_
 _symmetry_equiv_pos_site_id
 _symmetry_equiv_pos_as_xyz
  1  'x, y, z'
loop_
 _atom_site_type_symbol
 _atom_site_label
 _atom_site_symmetry_multiplicity
 _atom_site_fract_x
 _atom_site_fract_y
 _atom_site_fract_z
 _atom_site_occupancy
  Na  Na0  1  0.00019851  0.00081871  0.50072637  1
  Na  Na1  1  0.99483115  0.99414071  0.00327860  1
  Na  Na2  1  0.61850274  0.30844184  0.83030491  1
  Na  Na3  1  0.69527274  0.38515308  0.33420887  1
  Na  Na4  1  0.32541014  0.66616212  0.17552262  1
  Na  Na5  1  0.33386862  0.66733212  0.66339786  1
  Na  Na6  1  0.64712943  0.00174494  0.25016355  1
  Na  Na7  1  0.35360692  0.35198110  0.24945611  1
  Na  Na8  1  0.64116573  0.63625743  0.74091118  1
  Na  Na9  1  0.99198888  0.35437905  0.73926157  1
  Na  Na10  1  0.04372265  0.70901320  0.58486158  1
  Na  Na11  1  0.66372784  0.96875097  0.58488398  1
  Na  Na12  1  0.30099236  0.96764183  0.09277730  1
  Na  Na13  1  0.01912758  0.33283416  0.09421583  1
  Na  Na14  1  0.97649393  0.66551630  0.91820869  1
  Na  Na15  1  0.69178991  0.02532607  0.91786740  1
  Na  Na16  1  0.97913221  0.30417090  0.41665220  1
  Na  Na17  1  0.33082173  0.03033657  0.41822311  1
  Y  Y0  1  0.98719944  0.98383831  0.34529188  1
  Y  Y1  1  0.01781869  0.01405188  0.84530431  1
  Y  Y2  1  0.66130824  0.34287290  0.98987301  1
  Y  Y3  1  0.34456903  0.66095958  0.02465164  1
  Y  Y4  1  0.33750082  0.65703371  0.52123310  1
  Y  Y5  1  0.33262223  0.67019433  0.80950036  1
  Al  Al0  1  0.00874978  0.00677999  0.64274919  1
  Al  Al1  1  0.99435347  0.99154587  0.15615302  1
  Al  Al2  1  0.66195810  0.33082292  0.67944389  1
  Al  Al3  1  0.66917063  0.33798159  0.18506804  1
  Al  Al4  1  0.66172410  0.33891441  0.48045682  1
  Al  Al5  1  0.32838630  0.66423249  0.31843161  1
  P  P0  1  0.30879274  0.99766406  0.25123187  1
  P  P1  1  0.69455098  0.69097744  0.24921999  1
  P  P2  1  0.99886024  0.31114616  0.25097865  1
  P  P3  1  0.30607529  0.29161168  0.73832123  1
  P  P4  1  0.99006657  0.69503784  0.73902445  1
  P  P5  1  0.70904589  0.01067040  0.73863413  1
  P  P6  1  0.93936797  0.31866157  0.58254109  1
  P  P7  1  0.37529115  0.06333390  0.58059528  1
  P  P8  1  0.68504642  0.62686834  0.58430929  1
  P  P9  1  0.95534757  0.64119023  0.08900904  1
  P  P10  1  0.68165011  0.04201087  0.09274614  1
  P  P11  1  0.35082693  0.31126604  0.09705747  1
  P  P12  1  0.64004946  0.66610807  0.90850620  1
  P  P13  1  0.02775422  0.36162593  0.91848282  1
  P  P14  1  0.33394296  0.96937444  0.92431607  1
  P  P15  1  0.62324814  0.96969609  0.41682152  1
  P  P16  1  0.34906247  0.37873841  0.41024265  1
  P  P17  1  0.03536965  0.65316987  0.42025049  1
  O  O0  1  0.24316412  0.04663616  0.30803663  1
  O  O1  1  0.78648753  0.73873411  0.31032514  1
  O  O2  1  0.94609425  0.19867537  0.30888344  1
  O  O3  1  0.24659342  0.20965614  0.80093246  1
  O  O4  1  0.97599879  0.77426051  0.79947492  1
  O  O5  1  0.80910765  0.04004333  0.79886351  1
  O  O6  1  0.81550357  0.99479911  0.68601624  1
  O  O7  1  0.17489506  0.18126916  0.68983680  1
  O  O8  1  0.00354914  0.81270360  0.68555174  1
  O  O9  1  0.80607505  0.83485568  0.20295381  1
  O  O10  1  0.03351435  0.20965769  0.20024972  1
  O  O11  1  0.18571827  0.97230827  0.19801814  1
  O  O12  1  0.84726892  0.33396493  0.63887418  1
  O  O13  1  0.49348992  0.16355944  0.63230036  1
  O  O14  1  0.67792718  0.52780390  0.64146590  1
  O  O15  1  0.83042231  0.49947985  0.13212159  1
  O  O16  1  0.66413558  0.15215636  0.14303933  1
  O  O17  1  0.46659127  0.31930953  0.14912586  1
  O  O18  1  0.42451046  0.28956083  0.03687402  1
  O  O19  1  0.88479867  0.59168943  0.02379158  1
  O  O20  1  0.70835792  0.13575964  0.03109198  1
  O  O21  1  0.45520718  0.15779352  0.51977833  1
  O  O22  1  0.69343789  0.52875571  0.52795473  1
  O  O23  1  0.82976807  0.29694808  0.52497228  1
  O  O24  1  0.53338363  0.67597975  0.96180052  1
  O  O25  1  0.12462644  0.45792564  0.97611816  1
  O  O26  1  0.33055500  0.88236128  0.98509968  1
  O  O27  1  0.54937206  0.87372926  0.47632880  1
  O  O28  1  0.30242950  0.45384748  0.46437443  1
  O  O29  1  0.12886360  0.68365608  0.48086207  1
  O  O30  1  0.13975288  0.62633726  0.36877759  1
  O  O31  1  0.50698221  0.86482296  0.36239700  1
  O  O32  1  0.36564791  0.48659120  0.35279321  1
  O  O33  1  0.12256266  0.45909802  0.86046780  1
  O  O34  1  0.34348732  0.86301374  0.87080608  1
  O  O35  1  0.55762030  0.66373612  0.84732594  1
  O  O36  1  0.02310363  0.81789668  0.41089738  1
  O  O37  1  0.80951316  0.00198971  0.41236126  1
  O  O38  1  0.19226613  0.19281930  0.40571568  1
  O  O39  1  0.00111546  0.17754710  0.92030027  1
  O  O40  1  0.16609367  0.97592276  0.92106774  1
  O  O41  1  0.81780551  0.83110624  0.91406144  1
  O  O42  1  0.96296004  0.15632896  0.58577094  1
  O  O43  1  0.18683100  0.03078990  0.58601650  1
  O  O44  1  0.84891165  0.81300355  0.58416255  1
  O  O45  1  0.98180989  0.82259691  0.10159933  1
  O  O46  1  0.84341032  0.02561048  0.10233591  1
  O  O47  1  0.16911285  0.14980954  0.10213920  1
  O  O48  1  0.68090553  0.16808031  0.73311946  1
  O  O49  1  0.49198785  0.32375850  0.73153506  1
  O  O50  1  0.82786365  0.51098710  0.73681168  1
  O  O51  1  0.66163098  0.50680441  0.23461305  1
  O  O52  1  0.84606439  0.34089111  0.23633454  1
  O  O53  1  0.49577049  0.15162498  0.24083493  1
  O  O54  1  0.66181377  0.50639579  0.91229582  1
  O  O55  1  0.84936459  0.35010839  0.91717612  1
  O  O56  1  0.49840403  0.14651621  0.91949742  1
  O  O57  1  0.63058810  0.14904261  0.41905558  1
  O  O58  1  0.51613930  0.37016885  0.42009728  1
  O  O59  1  0.85705866  0.48558770  0.42348756  1
  O  O60  1  0.32775054  0.47266705  0.09710316  1
  O  O61  1  0.13487386  0.65105812  0.09341112  1
  O  O62  1  0.51413883  0.86480830  0.09377523  1
  O  O63  1  0.35671579  0.87843274  0.58205162  1
  O  O64  1  0.52926378  0.65861309  0.58574334  1
  O  O65  1  0.11774911  0.48472102  0.58276542  1
  O  O66  1  0.32114234  0.83083055  0.26162324  1
  O  O67  1  0.51695243  0.68524764  0.25356647  1
  O  O68  1  0.16943305  0.48404267  0.26032443  1
  O  O69  1  0.31685158  0.47211301  0.73767549  1
  O  O70  1  0.14825455  0.66763066  0.73836251  1
  O  O71  1  0.53565673  0.83988848  0.73926030  1
loop_
_geom_bond_atom_site_label_1
_geom_bond_atom_site_label_2
_geom_bond_distance
_geom_bond_site_symmetry_2
Na0 O44 2.413367 1_445
Na0 O43 2.452356 1_555
Na0 O42 2.461223 1_455
Na0 O37 2.605638 1_455
Na0 O36 2.648046 1_545
Na0 O38 2.724332 1_555
Na1 O40 2.440521 1_654
Na1 O39 2.446031 1_664
Na1 O41 2.504450 1_554
Na1 O45 2.635270 1_555
Na1 O47 2.653269 1_665
Na1 O46 2.670295 1_565
Na2 O56 2.371710 1_555
Na2 O54 2.429641 1_555
Na2 O49 2.503919 1_555
Na2 O48 2.688400 1_555
Na2 O55 2.716400 1_555
Na2 O50 2.780492 1_555
Na3 O59 2.355789 1_555
Na3 O58 2.452417 1_555
Na3 O51 2.546426 1_555
Na3 O57 2.666552 1_555
Na3 O52 2.688573 1_555
Na3 O53 2.854156 1_555
Na3 O1 2.887771 1_555
Na4 O67 2.385397 1_555
Na4 O66 2.422416 1_555
Na4 O68 2.426138 1_555
Na4 O61 2.455891 1_555
Na4 O60 2.458702 1_555
Na4 O62 2.514435 1_555
Na5 O69 2.347822 1_555
Na5 O70 2.353025 1_555
Na5 O71 2.391745 1_555
Na5 O64 2.484816 1_555
Na5 O63 2.543185 1_555
Na5 O65 2.546732 1_555
Na6 O53 2.337286 1_555
Na6 O67 2.464043 1_545
Na6 O66 2.550510 1_545
Na6 O52 2.660451 1_555
Na6 O16 2.698002 1_555
Na6 O2 2.701965 1_555
Na6 O9 2.727221 1_545
Na6 O31 2.785188 1_545
Na7 O51 2.419359 1_555
Na7 O68 2.467939 1_555
Na7 O17 2.522338 1_555
Na7 O32 2.567004 1_555
Na7 O67 2.583513 1_555
Na7 O53 2.665322 1_555
Na7 O0 2.723376 1_555
Na7 O10 2.724732 1_555
Na8 O71 2.427372 1_555
Na8 O50 2.429665 1_555
Na8 O49 2.430344 1_555
Na8 O14 2.496868 1_555
Na8 O69 2.524895 1_555
Na8 O35 2.526573 1_555
Na9 O70 2.426946 1_655
Na9 O48 2.440925 1_555
Na9 O50 2.479632 1_555
Na9 O12 2.540137 1_555
Na9 O69 2.558301 1_655
Na9 O5 2.782635 1_555
Na9 O33 2.899164 1_655
Na9 O7 2.962217 1_655
Na10 O44 2.346963 1_455
Na10 O65 2.399210 1_555
Na10 O63 2.439444 1_555
Na10 O29 2.476864 1_555
Na10 O43 2.496881 1_565
Na10 O8 2.512366 1_555
Na11 O42 2.354080 1_565
Na11 O64 2.408444 1_555
Na11 O63 2.453887 1_555
Na11 O6 2.576059 1_555
Na11 O27 2.592407 1_555
Na11 O44 2.638729 1_555
Na11 O23 2.869694 1_565
Na12 O47 2.445048 1_565
Na12 O61 2.454307 1_555
Na12 O62 2.494193 1_555
Na12 O45 2.494389 1_455
Na12 O26 2.562039 1_554
Na12 O11 2.563049 1_555
Na12 O18 2.803549 1_565
Na13 O46 2.396748 1_455
Na13 O60 2.405600 1_555
Na13 O61 2.492814 1_555
Na13 O47 2.583065 1_555
Na13 O10 2.628427 1_555
Na13 O20 2.821378 1_455
Na13 O25 2.822894 1_554
Na13 O15 2.874091 1_455
Na14 O40 2.427795 1_655
Na14 O54 2.452438 1_555
Na14 O55 2.456823 1_555
Na14 O19 2.463286 1_556
Na14 O41 2.507768 1_555
Na14 O4 2.810188 1_555
Na15 O39 2.407754 1_655
Na15 O56 2.454437 1_555
Na15 O41 2.493485 1_545
Na15 O55 2.516293 1_555
Na15 O20 2.677375 1_556
Na15 O5 2.822282 1_555
Na15 O24 2.879468 1_545
Na15 O34 2.907064 1_545
Na16 O37 2.350275 1_555
Na16 O59 2.363912 1_555
Na16 O2 2.534560 1_555
Na16 O38 2.562626 1_655
Na16 O30 2.712755 1_655
Na16 O57 2.717637 1_555
Na16 O28 2.732242 1_655
Na16 O23 2.736970 1_555
Na17 O38 2.344953 1_555
Na17 O57 2.348489 1_555
Na17 O36 2.457845 1_545
Na17 O21 2.523209 1_555
Na17 O0 2.596113 1_555
Na17 O58 2.637873 1_555
Al0 O7 1.853879 1_555
Al0 O6 1.935415 1_445
Al0 O8 1.954873 1_545
Al0 O43 1.958821 1_555
Al0 O42 2.022523 1_455
Al0 O44 2.068639 1_445
Al1 O9 1.881758 1_555
Al1 O45 1.892629 1_555
Al1 O47 1.921196 1_665
Al1 O46 1.938373 1_565
Al1 O11 2.031029 1_655
Al1 O10 2.046738 1_665
Al2 O13 1.835686 1_555
Al2 O12 1.876153 1_555
Al2 O49 1.887604 1_555
Al2 O14 1.889128 1_555
Al2 O48 1.949474 1_555
Al2 O50 2.012241 1_555
Al3 O15 1.865708 1_555
Al3 O16 1.882741 1_555
Al3 O51 1.892538 1_555
Al3 O17 1.913053 1_555
Al3 O52 1.941303 1_555
Al3 O53 2.037028 1_555
Al4 O22 1.892797 1_555
Al4 O21 1.957615 1_555
Al4 O58 1.984160 1_555
Al4 O23 1.985633 1_555
Al4 O59 2.025768 1_555
Al4 O57 2.082264 1_555
Al5 O30 1.910883 1_555
Al5 O32 1.930685 1_555
Al5 O31 1.969483 1_555
Al5 O66 1.974569 1_555
Al5 O68 2.002361 1_555
Al5 O67 2.155603 1_555
O0 P0 1.542972 1_545
O0 Y0 2.231830 1_445
O1 P1 1.534410 1_555
O1 Y0 2.172863 1_555
O2 P2 1.553343 1_555
O2 Y0 2.271397 1_545
O3 P3 1.537807 1_555
O3 Y1 2.161125 1_555
O4 P4 1.550694 1_555
O4 Y1 2.225992 1_665
O5 P5 1.558663 1_555
O5 Y1 2.245834 1_655
O6 P5 1.557880 1_565
O7 P3 1.537513 1_555
O8 P4 1.549283 1_455
O9 P1 1.558637 1_555
O10 P2 1.569082 1_455
O11 P0 1.554759 1_555
O12 P6 1.540892 1_555
O13 P7 1.517171 1_555
O14 P8 1.529665 1_555
O15 P9 1.537579 1_555
O16 P10 1.545576 1_555
O17 P11 1.531315 1_555
O18 P11 1.544223 1_555
O18 Y2 2.193902 1_554
O19 P9 1.554370 1_555
O19 Y2 2.258222 1_554
O20 P10 1.559631 1_555
O20 Y2 2.280063 1_554
O21 P7 1.564553 1_555
O22 P8 1.549810 1_555
O23 P6 1.564791 1_555
O24 P12 1.550233 1_555
O24 Y3 2.144606 1_556
O25 P13 1.546366 1_555
O25 Y3 2.188517 1_556
O26 P14 1.549784 1_555
O26 Y3 2.220705 1_556
O27 P15 1.534552 1_555
O27 Y4 2.167039 1_555
O28 P16 1.531136 1_555
O28 Y4 2.100468 1_555
O29 P17 1.537026 1_555
O29 Y4 2.189538 1_555
O30 P17 1.567896 1_555
O31 P15 1.567213 1_555
O32 P16 1.559878 1_555
O33 P13 1.550596 1_555
O33 Y5 2.203360 1_555
O34 P14 1.548788 1_555
O34 Y5 2.157117 1_555
O35 P12 1.541743 1_555
O35 Y5 2.210787 1_555
O36 P17 1.540492 1_555
O36 Y0 2.210940 1_455
O37 P15 1.549313 1_545
O37 Y0 2.242776 1_545
O38 P16 1.557277 1_555
O38 Y0 2.293192 1_445
O39 P13 1.537954 1_555
O39 Y1 2.266421 1_555
O40 P14 1.534995 1_555
O40 Y1 2.271591 1_565
O41 P12 1.547572 1_555
O41 Y1 2.303279 1_665
O42 P6 1.564775 1_555
O43 P7 1.569382 1_555
O44 P8 1.579993 1_555
O45 P9 1.539972 1_555
O46 P10 1.541582 1_555
O47 P11 1.553587 1_555
O48 P5 1.549056 1_555
O49 P3 1.550793 1_555
O50 P4 1.563721 1_555
O51 P1 1.552375 1_555
O52 P2 1.552246 1_555
O53 P0 1.570148 1_545
O54 P12 1.532552 1_555
O54 Y2 2.255735 1_555
O55 P13 1.549902 1_655
O55 Y2 2.310200 1_555
O56 P14 1.540074 1_545
O56 Y2 2.260190 1_555
O57 P15 1.568616 1_545
O58 P16 1.551494 1_555
O59 P17 1.557294 1_655
O60 P11 1.552124 1_555
O60 Y3 2.276092 1_555
O61 P9 1.569480 1_455
O61 Y3 2.387427 1_555
O62 P10 1.549322 1_565
O62 Y3 2.287915 1_555
O63 P7 1.573478 1_565
O63 Y4 2.326924 1_555
O64 P8 1.555495 1_555
O64 Y4 2.231948 1_555
O65 P6 1.549933 1_455
O65 Y4 2.259294 1_555
O66 P0 1.562722 1_555
O67 P1 1.569066 1_555
O68 P2 1.556144 1_455
O69 P3 1.564167 1_555
O69 Y5 2.331592 1_555
O70 P4 1.552655 1_455
O70 Y5 2.277888 1_555
O71 P5 1.545589 1_565
O71 Y5 2.302567 1_555
