# generated using pymatgen
data_Nb3GeTe6
_symmetry_space_group_name_H-M   'P 1'
_cell_length_a   6.52374907
_cell_length_b   11.71414541
_cell_length_c   14.60426577
_cell_angle_alpha   90.00000000
_cell_angle_beta   90.00000000
_cell_angle_gamma   90.00000000
_symmetry_Int_Tables_number   1
_chemical_formula_structural   Nb3GeTe6
_chemical_formula_sum   'Nb12 Ge4 Te24'
_cell_volume   1116.06011104
_cell_formula_units_Z   4
loop_
 _symmetry_equiv_pos_site_id
 _symmetry_equiv_pos_as_xyz
  1  'x, y, z'
loop_
 _atom_site_type_symbol
 _atom_site_label
 _atom_site_symmetry_multiplicity
 _atom_site_fract_x
 _atom_site_fract_y
 _atom_site_fract_z
 _atom_site_occupancy
  Nb  Nb0  1  0.69655776  0.96986395  0.75000000  1
  Nb  Nb1  1  0.19655776  0.53013605  0.75000000  1
  Nb  Nb2  1  0.80344224  0.46986395  0.25000000  1
  Nb  Nb3  1  0.30344224  0.03013605  0.25000000  1
  Nb  Nb4  1  0.96578623  0.31393720  0.75000000  1
  Nb  Nb5  1  0.46578623  0.18606280  0.75000000  1
  Nb  Nb6  1  0.53421377  0.81393720  0.25000000  1
  Nb  Nb7  1  0.03421377  0.68606280  0.25000000  1
  Nb  Nb8  1  0.82717433  0.16545530  0.25000000  1
  Nb  Nb9  1  0.32717433  0.33454470  0.25000000  1
  Nb  Nb10  1  0.67282567  0.66545530  0.75000000  1
  Nb  Nb11  1  0.17282567  0.83454470  0.75000000  1
  Ge  Ge0  1  0.92467651  0.92445010  0.25000000  1
  Ge  Ge1  1  0.42467651  0.57554990  0.25000000  1
  Ge  Ge2  1  0.57532349  0.42445010  0.75000000  1
  Ge  Ge3  1  0.07532349  0.07554990  0.75000000  1
  Te  Te0  1  0.85238151  0.81824384  0.62180976  1
  Te  Te1  1  0.35238151  0.68175616  0.87819024  1
  Te  Te2  1  0.64761849  0.31824384  0.37819024  1
  Te  Te3  1  0.14761849  0.18175616  0.12180976  1
  Te  Te4  1  0.14761849  0.18175616  0.37819024  1
  Te  Te5  1  0.64761849  0.31824384  0.12180976  1
  Te  Te6  1  0.35238151  0.68175616  0.62180976  1
  Te  Te7  1  0.85238151  0.81824384  0.87819024  1
  Te  Te8  1  0.78684046  0.15933518  0.62131001  1
  Te  Te9  1  0.28684046  0.34066482  0.87868999  1
  Te  Te10  1  0.71315954  0.65933518  0.37868999  1
  Te  Te11  1  0.21315954  0.84066482  0.12131001  1
  Te  Te12  1  0.21315954  0.84066482  0.37868999  1
  Te  Te13  1  0.71315954  0.65933518  0.12131001  1
  Te  Te14  1  0.28684046  0.34066482  0.62131001  1
  Te  Te15  1  0.78684046  0.15933518  0.87868999  1
  Te  Te16  1  0.36380116  0.99461694  0.62482795  1
  Te  Te17  1  0.86380116  0.50538306  0.87517205  1
  Te  Te18  1  0.13619884  0.49461694  0.37517205  1
  Te  Te19  1  0.63619884  0.00538306  0.12482795  1
  Te  Te20  1  0.63619884  0.00538306  0.37517205  1
  Te  Te21  1  0.13619884  0.49461694  0.12482795  1
  Te  Te22  1  0.86380116  0.50538306  0.62482795  1
  Te  Te23  1  0.36380116  0.99461694  0.87517205  1
loop_
_geom_bond_atom_site_label_1
_geom_bond_atom_site_label_2
_geom_bond_distance
_geom_bond_site_symmetry_2
Nb0 Te7 2.773583 1_555
Nb0 Te0 2.773583 1_555
Nb0 Te16 2.852769 1_555
Nb0 Te23 2.852769 1_555
Nb0 Te15 2.967369 1_565
Nb0 Te8 2.967369 1_565
Nb1 Te6 2.773583 1_555
Nb1 Te1 2.773583 1_555
Nb1 Te22 2.852769 1_455
Nb1 Te17 2.852769 1_455
Nb1 Te14 2.967369 1_555
Nb1 Te9 2.967369 1_555
Nb2 Te2 2.773583 1_555
Nb2 Te5 2.773583 1_555
Nb2 Te18 2.852769 1_655
Nb2 Te21 2.852769 1_655
Nb2 Te10 2.967369 1_555
Nb2 Te13 2.967369 1_555
Nb3 Te3 2.773583 1_555
Nb3 Te4 2.773583 1_555
Nb3 Te20 2.852769 1_555
Nb3 Te19 2.852769 1_555
Nb3 Te12 2.967369 1_545
Nb3 Te11 2.967369 1_545
Nb4 Te14 2.831447 1_655
Nb4 Te9 2.831447 1_655
Nb4 Te15 2.859174 1_555
Nb4 Te8 2.859174 1_555
Nb4 Te17 2.968800 1_555
Nb4 Te22 2.968800 1_555
Nb5 Te15 2.831447 1_555
Nb5 Te8 2.831447 1_555
Nb5 Te9 2.859174 1_555
Nb5 Te14 2.859174 1_555
Nb5 Te23 2.968800 1_545
Nb5 Te16 2.968800 1_545
Nb6 Te12 2.831447 1_555
Nb6 Te11 2.831447 1_555
Nb6 Te10 2.859174 1_555
Nb6 Te13 2.859174 1_555
Nb6 Te20 2.968800 1_565
Nb6 Te19 2.968800 1_565
Nb7 Te10 2.831447 1_455
Nb7 Te13 2.831447 1_455
Nb7 Te12 2.859174 1_555
Nb7 Te11 2.859174 1_555
Nb7 Te18 2.968800 1_555
Nb7 Te21 2.968800 1_555
Nb8 Te4 2.812737 1_655
Nb8 Te3 2.812737 1_655
Nb8 Te5 2.842589 1_555
Nb8 Te2 2.842589 1_555
Nb8 Te20 2.899999 1_555
Nb8 Te19 2.899999 1_555
Nb9 Te5 2.812737 1_555
Nb9 Te2 2.812737 1_555
Nb9 Te3 2.842589 1_555
Nb9 Te4 2.842589 1_555
Nb9 Te18 2.899999 1_555
Nb9 Te21 2.899999 1_555
Nb10 Te1 2.812737 1_555
Nb10 Te6 2.812737 1_555
Nb10 Te0 2.842589 1_555
Nb10 Te7 2.842589 1_555
Nb10 Te17 2.899999 1_555
Nb10 Te22 2.899999 1_555
Nb11 Te7 2.812737 1_455
Nb11 Te0 2.812737 1_455
Nb11 Te6 2.842589 1_555
Nb11 Te1 2.842589 1_555
Nb11 Te16 2.899999 1_555
Nb11 Te23 2.899999 1_555
Ge0 Nb3 2.763766 1_665
Ge0 Te20 2.789683 1_565
Ge0 Te19 2.789683 1_565
Ge0 Te12 2.835032 1_655
Ge0 Te11 2.835032 1_655
Ge0 Nb6 2.857365 1_555
Ge0 Nb7 2.882485 1_655
Ge0 Nb8 2.893940 1_565
Ge1 Nb2 2.763766 1_555
Ge1 Te21 2.789683 1_555
Ge1 Te18 2.789683 1_555
Ge1 Te10 2.835032 1_555
Ge1 Te13 2.835032 1_555
Ge1 Nb7 2.857365 1_555
Ge1 Nb6 2.882485 1_555
Ge1 Nb9 2.893940 1_555
Ge2 Nb1 2.763766 1_555
Ge2 Te17 2.789683 1_555
Ge2 Te22 2.789683 1_555
Ge2 Te9 2.835032 1_555
Ge2 Te14 2.835032 1_555
Ge2 Nb4 2.857365 1_555
Ge2 Nb5 2.882485 1_555
Ge2 Nb10 2.893940 1_555
Ge3 Nb0 2.763766 1_445
Ge3 Te23 2.789683 1_545
Ge3 Te16 2.789683 1_545
Ge3 Te15 2.835032 1_455
Ge3 Te8 2.835032 1_455
Ge3 Nb5 2.857365 1_555
Ge3 Nb4 2.882485 1_455
Ge3 Nb11 2.893940 1_545
