# generated using pymatgen
data_MgV4O7F5
_symmetry_space_group_name_H-M   'P 1'
_cell_length_a   5.13864559
_cell_length_b   7.59093364
_cell_length_c   5.37838554
_cell_angle_alpha   93.16752821
_cell_angle_beta   87.29102366
_cell_angle_gamma   91.99064572
_symmetry_Int_Tables_number   1
_chemical_formula_structural   MgV4O7F5
_chemical_formula_sum   'Mg1 V4 O7 F5'
_cell_volume   209.13213924
_cell_formula_units_Z   1
loop_
 _symmetry_equiv_pos_site_id
 _symmetry_equiv_pos_as_xyz
  1  'x, y, z'
loop_
 _atom_site_type_symbol
 _atom_site_label
 _atom_site_symmetry_multiplicity
 _atom_site_fract_x
 _atom_site_fract_y
 _atom_site_fract_z
 _atom_site_occupancy
  Mg  Mg0  1  0.49629500  0.28906100  0.90699400  1
  V  V0  1  0.45283200  0.51893500  0.47786400  1
  V  V1  1  0.51329800  0.02120000  0.49853100  1
  V  V2  1  0.02428300  0.52311000  0.00304000  1
  V  V3  1  0.99804900  0.98728100  0.00082100  1
  O  O0  1  0.71729300  0.96206700  0.20063300  1
  O  O1  1  0.59389300  0.24136700  0.51821000  1
  O  O2  1  0.40848000  0.73427500  0.49482900  1
  O  O3  1  0.31167100  0.43976000  0.19293100  1
  O  O4  1  0.29735100  0.05900200  0.82756200  1
  O  O5  1  0.22682000  0.44193800  0.71143900  1
  O  O6  1  0.08905300  0.74109900  0.99859400  1
  F  F0  1  0.86719800  0.25743500  0.99894900  1
  F  F1  1  0.80503300  0.53304800  0.32289900  1
  F  F2  1  0.80117000  0.94213800  0.69468600  1
  F  F3  1  0.69573100  0.52617400  0.81383500  1
  F  F4  1  0.20154900  0.04104200  0.31318400  1
loop_
_geom_bond_atom_site_label_1
_geom_bond_atom_site_label_2
_geom_bond_distance
_geom_bond_site_symmetry_2
Mg0 O4 2.027857 1_555
Mg0 O3 2.077695 1_556
Mg0 O1 2.141221 1_555
Mg0 O5 2.180510 1_555
O0 V3 1.769161 1_555
O0 V1 1.913599 1_565
O1 V1 1.706571 1_555
O1 V0 2.276722 1_555
O2 V0 1.655211 1_555
O2 V1 2.224644 1_565
O3 V0 1.791336 1_555
O3 V2 1.975644 1_555
O4 V3 1.841912 1_446
O4 V1 2.055670 1_555
O5 V0 1.778962 1_555
O5 V2 1.925104 1_556
O6 V2 1.677758 1_556
O6 V3 1.941332 1_456
F0 Mg0 2.017139 1_555
F0 V2 2.145439 1_656
F0 V3 2.180916 1_546
F1 V0 1.958431 1_555
F1 V2 2.010696 1_655
F2 V3 1.980649 1_556
F2 V1 1.985099 1_565
F3 V2 2.013512 1_656
F3 Mg0 2.112812 1_555
F3 V0 2.241337 1_555
F4 V1 1.940887 1_555
F4 V3 2.035470 1_445
