# generated using pymatgen
data_Na2Hf2Si2SO12
_symmetry_space_group_name_H-M   'P 1'
_cell_length_a   9.04376859
_cell_length_b   9.04376828
_cell_length_c   23.12075851
_cell_angle_alpha   89.72381618
_cell_angle_beta   90.27618382
_cell_angle_gamma   119.73109047
_symmetry_Int_Tables_number   1
_chemical_formula_structural   Na2Hf2Si2SO12
_chemical_formula_sum   'Na12 Hf12 Si12 S6 O72'
_cell_volume   1642.08365122
_cell_formula_units_Z   6
loop_
 _symmetry_equiv_pos_site_id
 _symmetry_equiv_pos_as_xyz
  1  'x, y, z'
loop_
 _atom_site_type_symbol
 _atom_site_label
 _atom_site_symmetry_multiplicity
 _atom_site_fract_x
 _atom_site_fract_y
 _atom_site_fract_z
 _atom_site_occupancy
  Na  Na0  1  0.99398461  0.62647853  0.25300436  1
  Na  Na1  1  0.37352147  0.00601539  0.75300436  1
  Na  Na2  1  0.66065161  0.95981153  0.58633736  1
  Na  Na3  1  0.04018847  0.33934839  0.08633736  1
  Na  Na4  1  0.32731761  0.29314553  0.91967136  1
  Na  Na5  1  0.70685447  0.67268239  0.41967136  1
  Na  Na6  1  0.01081120  0.98928148  0.50071593  1
  Na  Na7  1  0.01071852  0.98918880  0.00071593  1
  Na  Na8  1  0.67747820  0.32261448  0.83404893  1
  Na  Na9  1  0.67738552  0.32252180  0.33404893  1
  Na  Na10  1  0.34414420  0.65594848  0.16738293  1
  Na  Na11  1  0.34405152  0.65585580  0.66738293  1
  Hf  Hf0  1  0.98374207  0.99460803  0.35310704  1
  Hf  Hf1  1  0.00539197  0.01625793  0.85310704  1
  Hf  Hf2  1  0.99970802  0.99936092  0.64732014  1
  Hf  Hf3  1  0.00063908  0.00029198  0.14732014  1
  Hf  Hf4  1  0.65040907  0.32794103  0.68644004  1
  Hf  Hf5  1  0.67205897  0.34959093  0.18644004  1
  Hf  Hf6  1  0.66637502  0.33269392  0.98065314  1
  Hf  Hf7  1  0.66730608  0.33362498  0.48065314  1
  Hf  Hf8  1  0.31707507  0.66127503  0.01977404  1
  Hf  Hf9  1  0.33872497  0.68292493  0.51977404  1
  Hf  Hf10  1  0.33304102  0.66602792  0.31398714  1
  Hf  Hf11  1  0.33397208  0.66695898  0.81398714  1
  Si  Si0  1  0.70455338  0.71127602  0.24974087  1
  Si  Si1  1  0.99952078  0.29202837  0.24869966  1
  Si  Si2  1  0.28872398  0.29544662  0.74974087  1
  Si  Si3  1  0.70797163  0.00047922  0.74869966  1
  Si  Si4  1  0.37122038  0.04460902  0.58307387  1
  Si  Si5  1  0.66618778  0.62536137  0.58203266  1
  Si  Si6  1  0.95539098  0.62877962  0.08307387  1
  Si  Si7  1  0.37463863  0.33381222  0.08203266  1
  Si  Si8  1  0.03788638  0.37794302  0.91640787  1
  Si  Si9  1  0.33285378  0.95869537  0.91536666  1
  Si  Si10  1  0.62205698  0.96211362  0.41640787  1
  Si  Si11  1  0.04130463  0.66714622  0.41536666  1
  S  S0  1  0.29143350  0.00283304  0.25078793  1
  S  S1  1  0.99716696  0.70856650  0.75078793  1
  S  S2  1  0.95810050  0.33616604  0.58412093  1
  S  S3  1  0.66383396  0.04189950  0.08412093  1
  S  S4  1  0.62476650  0.66950004  0.91745493  1
  S  S5  1  0.33049996  0.37523350  0.41745493  1
  O  O0  1  0.21297850  0.02752316  0.30236716  1
  O  O1  1  0.82703082  0.79169562  0.30747447  1
  O  O2  1  0.98231444  0.17437043  0.30485317  1
  O  O3  1  0.20830438  0.17296918  0.80747447  1
  O  O4  1  0.97247684  0.78702150  0.80236716  1
  O  O5  1  0.82562957  0.01768556  0.80485317  1
  O  O6  1  0.79402945  0.97324688  0.69030753  1
  O  O7  1  0.17026407  0.19376979  0.69446249  1
  O  O8  1  0.02693898  0.81713294  0.69855578  1
  O  O9  1  0.80623021  0.82973593  0.19446249  1
  O  O10  1  0.02675312  0.20597055  0.19030753  1
  O  O11  1  0.18286706  0.97306102  0.19855578  1
  O  O12  1  0.87964550  0.36085616  0.63570016  1
  O  O13  1  0.49369782  0.12502862  0.64080747  1
  O  O14  1  0.64898144  0.50770343  0.63818617  1
  O  O15  1  0.87497138  0.50630218  0.14080747  1
  O  O16  1  0.63914384  0.12035450  0.13570016  1
  O  O17  1  0.49229657  0.35101856  0.13818617  1
  O  O18  1  0.46069645  0.30657988  0.02364053  1
  O  O19  1  0.83693107  0.52710279  0.02779549  1
  O  O20  1  0.69360598  0.15046594  0.03188878  1
  O  O21  1  0.47289721  0.16306893  0.52779549  1
  O  O22  1  0.69342012  0.53930355  0.52364053  1
  O  O23  1  0.84953406  0.30639402  0.53188878  1
  O  O24  1  0.54631150  0.69419016  0.96903416  1
  O  O25  1  0.16036382  0.45836262  0.97414147  1
  O  O26  1  0.31564744  0.84103743  0.97152017  1
  O  O27  1  0.54163738  0.83963618  0.47414147  1
  O  O28  1  0.30580984  0.45368850  0.46903416  1
  O  O29  1  0.15896257  0.68435256  0.47152017  1
  O  O30  1  0.12736245  0.63991388  0.35697453  1
  O  O31  1  0.50359707  0.86043679  0.36112949  1
  O  O32  1  0.36027198  0.48379994  0.36522278  1
  O  O33  1  0.13956321  0.49640293  0.86112949  1
  O  O34  1  0.36008612  0.87263755  0.85697453  1
  O  O35  1  0.51620006  0.63972802  0.86522278  1
  O  O36  1  0.02319402  0.83934590  0.41022339  1
  O  O37  1  0.80972000  0.97286342  0.41064910  1
  O  O38  1  0.18353207  0.20364448  0.40968198  1
  O  O39  1  0.02713658  0.19028000  0.91064910  1
  O  O40  1  0.16065410  0.97680598  0.91022339  1
  O  O41  1  0.79635552  0.81646793  0.90968198  1
  O  O42  1  0.96882387  0.17638218  0.58910757  1
  O  O43  1  0.18280475  0.02177473  0.59012326  1
  O  O44  1  0.82855592  0.82102456  0.58881817  1
  O  O45  1  0.97822527  0.81719525  0.09012326  1
  O  O46  1  0.82361782  0.03117613  0.08910757  1
  O  O47  1  0.17897544  0.17144408  0.08881817  1
  O  O48  1  0.68986102  0.17267890  0.74355639  1
  O  O49  1  0.47638700  0.30619642  0.74398210  1
  O  O50  1  0.85019907  0.53697748  0.74301498  1
  O  O51  1  0.69380358  0.52361300  0.24398210  1
  O  O52  1  0.82732110  0.31013898  0.24355639  1
  O  O53  1  0.46302252  0.14980093  0.24301498  1
  O  O54  1  0.63549087  0.50971518  0.92244057  1
  O  O55  1  0.84947175  0.35510773  0.92345626  1
  O  O56  1  0.49522292  0.15435756  0.92215117  1
  O  O57  1  0.64489227  0.15052825  0.42345626  1
  O  O58  1  0.49028482  0.36450913  0.42244057  1
  O  O59  1  0.84564244  0.50477708  0.42215117  1
  O  O60  1  0.35652702  0.50601290  0.07689039  1
  O  O61  1  0.14305300  0.63953042  0.07731610  1
  O  O62  1  0.51686507  0.87031148  0.07634898  1
  O  O63  1  0.36046958  0.85694700  0.57731610  1
  O  O64  1  0.49398710  0.64347298  0.57689039  1
  O  O65  1  0.12968852  0.48313493  0.57634898  1
  O  O66  1  0.30215687  0.84304918  0.25577457  1
  O  O67  1  0.51613775  0.68844173  0.25679026  1
  O  O68  1  0.16188892  0.48769156  0.25548517  1
  O  O69  1  0.31155827  0.48386225  0.75679026  1
  O  O70  1  0.15695082  0.69784313  0.75577457  1
  O  O71  1  0.51230844  0.83811108  0.75548517  1
loop_
_geom_bond_atom_site_label_1
_geom_bond_atom_site_label_2
_geom_bond_distance
_geom_bond_site_symmetry_2
Na0 O51 2.402158 1_555
Na0 O68 2.402792 1_655
Na0 O66 2.488583 1_655
Na0 O52 2.496025 1_555
Na0 O30 2.660423 1_655
Na0 O15 2.812283 1_555
Na0 O1 2.893543 1_555
Na0 O11 2.999895 1_655
Na1 O49 2.402158 1_555
Na1 O71 2.402791 1_545
Na1 O70 2.488583 1_545
Na1 O48 2.496025 1_555
Na1 O34 2.660423 1_545
Na1 O13 2.812283 1_555
Na1 O3 2.893543 1_555
Na1 O8 2.999895 1_545
Na2 O63 2.402166 1_555
Na2 O44 2.402792 1_555
Na2 O42 2.488583 1_565
Na2 O64 2.496015 1_555
Na2 O6 2.660423 1_555
Na2 O27 2.812262 1_555
Na2 O13 2.893543 1_565
Na2 O23 2.999895 1_565
Na3 O61 2.402166 1_555
Na3 O47 2.402791 1_555
Na3 O46 2.488583 1_455
Na3 O60 2.496015 1_555
Na3 O10 2.660423 1_555
Na3 O25 2.812262 1_554
Na3 O15 2.893543 1_455
Na3 O20 2.999895 1_455
Na4 O39 2.402158 1_555
Na4 O56 2.402807 1_555
Na4 O54 2.488587 1_555
Na4 O40 2.496025 1_545
Na4 O18 2.660408 1_556
Na4 O3 2.812283 1_555
Na4 O25 2.893543 1_555
Na4 O35 2.999895 1_555
Na5 O37 2.402158 1_555
Na5 O59 2.402807 1_555
Na5 O58 2.488587 1_555
Na5 O36 2.496025 1_655
Na5 O22 2.660408 1_555
Na5 O1 2.812283 1_555
Na5 O27 2.893543 1_555
Na5 O32 2.999895 1_555
Na6 O43 2.510080 1_565
Na6 O36 2.531599 1_555
Na6 O44 2.587741 1_455
Na6 O37 2.713764 1_455
Na6 O38 2.759923 1_565
Na6 O42 2.803949 1_465
Na7 O45 2.510080 1_455
Na7 O40 2.531599 1_554
Na7 O47 2.587741 1_565
Na7 O39 2.713764 1_564
Na7 O41 2.759923 1_454
Na7 O46 2.803949 1_465
Na8 O55 2.510080 1_555
Na8 O48 2.531599 1_555
Na8 O56 2.587741 1_555
Na8 O49 2.713764 1_555
Na8 O50 2.759923 1_555
Na8 O54 2.803949 1_555
Na9 O57 2.510080 1_555
Na9 O52 2.531599 1_555
Na9 O59 2.587741 1_555
Na9 O51 2.713764 1_555
Na9 O53 2.759923 1_555
Na9 O58 2.803949 1_555
Na10 O67 2.510080 1_555
Na10 O60 2.531599 1_555
Na10 O68 2.587741 1_555
Na10 O61 2.713764 1_555
Na10 O62 2.759923 1_555
Na10 O66 2.803949 1_555
Na11 O69 2.510080 1_555
Na11 O64 2.531599 1_555
Na11 O71 2.587741 1_555
Na11 O63 2.713764 1_555
Na11 O65 2.759923 1_555
Na11 O70 2.803949 1_555
Hf0 O2 1.972579 1_565
Hf0 O1 1.978373 1_555
Hf0 O37 1.999065 1_555
Hf0 O36 2.077827 1_655
Hf0 O38 2.272153 1_665
Hf0 O0 2.273950 1_665
Hf1 O5 1.972579 1_455
Hf1 O3 1.978373 1_555
Hf1 O39 1.999065 1_555
Hf1 O40 2.077827 1_545
Hf1 O41 2.272153 1_445
Hf1 O4 2.273950 1_445
Hf2 O7 1.992701 1_665
Hf2 O6 2.020757 1_555
Hf2 O43 2.053650 1_665
Hf2 O44 2.085997 1_555
Hf2 O8 2.135617 1_655
Hf2 O42 2.207179 1_565
Hf3 O9 1.992701 1_445
Hf3 O10 2.020757 1_555
Hf3 O45 2.053650 1_445
Hf3 O47 2.085997 1_555
Hf3 O11 2.135617 1_545
Hf3 O46 2.207179 1_455
Hf4 O14 1.972579 1_555
Hf4 O13 1.978373 1_555
Hf4 O49 1.999065 1_555
Hf4 O48 2.077827 1_555
Hf4 O50 2.272153 1_555
Hf4 O12 2.273950 1_555
Hf5 O17 1.972579 1_555
Hf5 O15 1.978373 1_555
Hf5 O51 1.999065 1_555
Hf5 O52 2.077827 1_555
Hf5 O53 2.272153 1_555
Hf5 O16 2.273950 1_555
Hf6 O19 1.992701 1_556
Hf6 O18 2.020757 1_556
Hf6 O55 2.053650 1_555
Hf6 O56 2.085997 1_555
Hf6 O20 2.135617 1_556
Hf6 O54 2.207179 1_555
Hf7 O21 1.992701 1_555
Hf7 O22 2.020757 1_555
Hf7 O57 2.053650 1_555
Hf7 O59 2.085997 1_555
Hf7 O23 2.135617 1_555
Hf7 O58 2.207179 1_555
Hf8 O26 1.972579 1_554
Hf8 O25 1.978373 1_554
Hf8 O61 1.999065 1_555
Hf8 O60 2.077827 1_555
Hf8 O62 2.272153 1_555
Hf8 O24 2.273950 1_554
Hf9 O29 1.972579 1_555
Hf9 O27 1.978373 1_555
Hf9 O63 1.999065 1_555
Hf9 O64 2.077827 1_555
Hf9 O65 2.272153 1_555
Hf9 O28 2.273950 1_555
Hf10 O31 1.992701 1_555
Hf10 O30 2.020757 1_555
Hf10 O67 2.053650 1_555
Hf10 O68 2.085997 1_555
Hf10 O32 2.135617 1_555
Hf10 O66 2.207179 1_555
Hf11 O33 1.992701 1_555
Hf11 O34 2.020757 1_555
Hf11 O69 2.053650 1_555
Hf11 O71 2.085997 1_555
Hf11 O35 2.135617 1_555
Hf11 O70 2.207179 1_555
O0 S0 1.464013 1_555
O1 Si0 1.653403 1_555
O2 Si1 1.632934 1_555
O3 Si2 1.653403 1_555
O4 S1 1.464013 1_555
O5 Si3 1.632934 1_555
O6 Si3 1.640893 1_565
O7 Si2 1.627205 1_555
O8 S1 1.491451 1_455
O9 Si0 1.627205 1_555
O10 Si1 1.640893 1_455
O11 S0 1.491452 1_565
O12 S2 1.464013 1_555
O13 Si4 1.653403 1_555
O14 Si5 1.632934 1_555
O15 Si6 1.653403 1_555
O16 S3 1.464013 1_555
O17 Si7 1.632934 1_555
O18 Si7 1.640893 1_555
O19 Si6 1.627205 1_555
O20 S3 1.491451 1_555
O21 Si4 1.627205 1_555
O22 Si5 1.640893 1_555
O23 S2 1.491452 1_555
O24 S4 1.464013 1_555
O25 Si8 1.653403 1_555
O26 Si9 1.632934 1_555
O27 Si10 1.653403 1_555
O28 S5 1.464013 1_555
O29 Si11 1.632934 1_555
O30 Si11 1.640893 1_555
O31 Si10 1.627205 1_555
O32 S5 1.491451 1_555
O33 Si8 1.627205 1_555
O34 Si9 1.640893 1_555
O35 S4 1.491452 1_555
O36 Si11 1.648418 1_555
O37 Si10 1.657106 1_555
O38 S5 1.470250 1_555
O39 Si8 1.657106 1_555
O40 Si9 1.648418 1_555
O41 S4 1.470250 1_555
O42 S2 1.499382 1_555
O43 Si4 1.620529 1_555
O44 Si5 1.653876 1_555
O45 Si6 1.620529 1_555
O46 S3 1.499383 1_555
O47 Si7 1.653876 1_555
O48 Si3 1.648418 1_555
O49 Si2 1.657106 1_555
O50 S1 1.470250 1_555
O51 Si0 1.657106 1_555
O52 Si1 1.648418 1_555
O53 S0 1.470250 1_555
O54 S4 1.499395 1_555
O55 Si8 1.620514 1_655
O56 Si9 1.653871 1_545
O57 Si10 1.620514 1_545
O58 S5 1.499395 1_555
O59 Si11 1.653871 1_655
O60 Si7 1.648430 1_555
O61 Si6 1.657091 1_455
O62 S3 1.470245 1_565
O63 Si4 1.657091 1_565
O64 Si5 1.648430 1_555
O65 S2 1.470245 1_455
O66 S0 1.499382 1_565
O67 Si0 1.620529 1_555
O68 Si1 1.653876 1_455
O69 Si2 1.620529 1_555
O70 S1 1.499383 1_455
O71 Si3 1.653876 1_565
