# generated using pymatgen
data_Na3BS3
_symmetry_space_group_name_H-M   'P 1'
_cell_length_a   6.60823325
_cell_length_b   6.73263713
_cell_length_c   8.30946487
_cell_angle_alpha   66.37198000
_cell_angle_beta   66.56971907
_cell_angle_gamma   60.60938744
_symmetry_Int_Tables_number   1
_chemical_formula_structural   Na3BS3
_chemical_formula_sum   'Na6 B2 S6'
_cell_volume   285.60675022
_cell_formula_units_Z   2
loop_
 _symmetry_equiv_pos_site_id
 _symmetry_equiv_pos_as_xyz
  1  'x, y, z'
loop_
 _atom_site_type_symbol
 _atom_site_label
 _atom_site_symmetry_multiplicity
 _atom_site_fract_x
 _atom_site_fract_y
 _atom_site_fract_z
 _atom_site_occupancy
  Na  Na0  1  0.18698716  0.18961250  0.00410655  1
  Na  Na1  1  0.61929280  0.68961250  0.50410655  1
  Na  Na2  1  0.50000000  0.50000000  0.00000000  1
  Na  Na3  1  0.00000000  0.00000000  0.50000000  1
  Na  Na4  1  0.81301284  0.81038750  0.99589345  1
  Na  Na5  1  0.38070720  0.31038750  0.49589345  1
  B  B0  1  0.92182130  0.25000000  0.75000000  1
  B  B1  1  0.07817870  0.75000000  0.25000000  1
  S  S0  1  0.80481785  0.02095895  0.25129316  1
  S  S1  1  0.07706896  0.47904105  0.24870684  1
  S  S2  1  0.19518215  0.97904105  0.74870684  1
  S  S3  1  0.92293104  0.52095895  0.75129316  1
  S  S4  1  0.35887071  0.75000000  0.25000000  1
  S  S5  1  0.64112929  0.25000000  0.75000000  1
loop_
_geom_bond_atom_site_label_1
_geom_bond_atom_site_label_2
_geom_bond_distance
_geom_bond_site_symmetry_2
Na0 S3 2.787905 1_454
Na0 S4 2.814861 1_545
Na0 S0 2.950593 1_455
Na0 S2 2.960015 1_544
Na0 S1 3.011178 1_555
Na0 S5 3.016655 1_554
Na1 S0 2.787912 1_565
Na1 S5 2.814859 1_555
Na1 S3 2.950603 1_555
Na1 S1 2.960015 1_655
Na1 S2 3.011178 1_555
Na1 S4 3.016650 1_555
Na2 S3 2.768011 1_554
Na2 S1 2.768011 1_555
Na2 S4 2.782011 1_555
Na2 S5 2.782011 1_554
Na2 S2 3.223298 1_554
Na2 S0 3.223298 1_555
Na3 S0 2.768006 1_455
Na3 S2 2.768006 1_545
Na3 S4 2.782011 1_545
Na3 S5 2.782011 1_455
Na3 S3 3.223296 1_445
Na3 S1 3.223296 1_555
Na4 S1 2.787905 1_656
Na4 S5 2.814861 1_565
Na4 S2 2.950593 1_655
Na4 S0 2.960015 1_566
Na4 S3 3.011178 1_555
Na4 S4 3.016655 1_556
Na5 S2 2.787912 1_545
Na5 S4 2.814859 1_555
Na5 S1 2.950603 1_555
Na5 S3 2.960015 1_455
Na5 S0 3.011178 1_555
Na5 S5 3.016650 1_555
B0 S2 1.832217 1_645
B0 S3 1.832220 1_555
B0 S5 1.854878 1_555
B0 Na3 2.917396 1_655
B0 Na2 2.917396 1_556
B1 S0 1.832217 1_465
B1 S1 1.832220 1_555
B1 S4 1.854878 1_555
B1 Na3 2.917396 1_565
B1 Na2 2.917396 1_555
