# generated using pymatgen
data_Na2Hf2Ti2Si3(SO8)3
_symmetry_space_group_name_H-M   'P 1'
_cell_length_a   8.86382738
_cell_length_b   8.83307350
_cell_length_c   22.90471686
_cell_angle_alpha   90.71203320
_cell_angle_beta   90.58521218
_cell_angle_gamma   119.96995986
_symmetry_Int_Tables_number   1
_chemical_formula_structural   Na2Hf2Ti2Si3(SO8)3
_chemical_formula_sum   'Na6 Hf6 Ti6 Si9 S9 O72'
_cell_volume   1553.13241629
_cell_formula_units_Z   3
loop_
 _symmetry_equiv_pos_site_id
 _symmetry_equiv_pos_as_xyz
  1  'x, y, z'
loop_
 _atom_site_type_symbol
 _atom_site_label
 _atom_site_symmetry_multiplicity
 _atom_site_fract_x
 _atom_site_fract_y
 _atom_site_fract_z
 _atom_site_occupancy
  Na  Na0  1  0.98512895  0.98190065  0.49928724  1
  Na  Na1  1  0.00897216  0.98077193  0.00432723  1
  Na  Na2  1  0.64514743  0.30437927  0.82374006  1
  Na  Na3  1  0.66697121  0.31396004  0.33777434  1
  Na  Na4  1  0.31008944  0.65589071  0.17827956  1
  Na  Na5  1  0.34599980  0.65974553  0.65875185  1
  Hf  Hf0  1  0.00417336  0.00437489  0.35879337  1
  Hf  Hf1  1  0.01253743  0.00905987  0.84881004  1
  Hf  Hf2  1  0.68254387  0.33712032  0.19228008  1
  Hf  Hf3  1  0.66541768  0.33710808  0.98030107  1
  Hf  Hf4  1  0.32022812  0.67617489  0.02276241  1
  Hf  Hf5  1  0.34709782  0.68291494  0.80499347  1
  Ti  Ti0  1  0.98099395  0.00366276  0.64411373  1
  Ti  Ti1  1  0.01223233  0.99458869  0.15432040  1
  Ti  Ti2  1  0.64611210  0.32857379  0.68541567  1
  Ti  Ti3  1  0.68459168  0.34841534  0.47582888  1
  Ti  Ti4  1  0.35499113  0.68415868  0.51766009  1
  Ti  Ti5  1  0.31203428  0.67706028  0.31429507  1
  Si  Si0  1  0.29290965  0.00208307  0.25355730  1
  Si  Si1  1  0.01694963  0.29170623  0.25212349  1
  Si  Si2  1  0.28465642  0.28474076  0.74537919  1
  Si  Si3  1  0.71728029  0.01596790  0.74724557  1
  Si  Si4  1  0.66564896  0.61835290  0.58261112  1
  Si  Si5  1  0.95530912  0.63706547  0.08511605  1
  Si  Si6  1  0.32924307  0.96179564  0.91588703  1
  Si  Si7  1  0.61616035  0.95690431  0.41676312  1
  Si  Si8  1  0.05216876  0.66855493  0.42042135  1
  S  S0  1  0.71069303  0.71765483  0.24935585  1
  S  S1  1  0.99278869  0.70657434  0.74639305  1
  S  S2  1  0.95250708  0.33470839  0.58382821  1
  S  S3  1  0.37524334  0.04384927  0.58222891  1
  S  S4  1  0.67426234  0.04499961  0.08311105  1
  S  S5  1  0.37240229  0.33036554  0.08365907  1
  S  S6  1  0.62110875  0.66747751  0.91701585  1
  S  S7  1  0.04268445  0.37669166  0.91599741  1
  S  S8  1  0.34318752  0.38873317  0.41838295  1
  O  O0  1  0.19886116  0.02342363  0.30952876  1
  O  O1  1  0.81645051  0.79299962  0.30289307  1
  O  O2  1  0.97738870  0.17112638  0.30840334  1
  O  O3  1  0.21091817  0.17060113  0.80505234  1
  O  O4  1  0.97142840  0.78770206  0.80168764  1
  O  O5  1  0.82760082  0.03415707  0.80693541  1
  O  O6  1  0.80833795  0.97976777  0.69013321  1
  O  O7  1  0.16218317  0.17700335  0.68947622  1
  O  O8  1  0.01990196  0.81518295  0.69584498  1
  O  O9  1  0.80030217  0.82137320  0.19648563  1
  O  O10  1  0.02599093  0.18582426  0.19228499  1
  O  O11  1  0.16799044  0.96567249  0.19335605  1
  O  O12  1  0.86607276  0.35210917  0.63575367  1
  O  O13  1  0.48215010  0.12475975  0.63740135  1
  O  O14  1  0.64236030  0.49433694  0.63948283  1
  O  O15  1  0.85657862  0.51202771  0.13906055  1
  O  O16  1  0.64098204  0.12210468  0.13516594  1
  O  O17  1  0.47892154  0.35389423  0.13567738  1
  O  O18  1  0.45679825  0.30552830  0.03016697  1
  O  O19  1  0.84448232  0.54233735  0.02471653  1
  O  O20  1  0.68305130  0.14738673  0.03029016  1
  O  O21  1  0.46108618  0.14862694  0.53141796  1
  O  O22  1  0.69029656  0.51703628  0.52581578  1
  O  O23  1  0.84713298  0.30677441  0.52956629  1
  O  O24  1  0.53491368  0.68197933  0.96990954  1
  O  O25  1  0.14882203  0.45972682  0.97026896  1
  O  O26  1  0.31444182  0.84749299  0.97406290  1
  O  O27  1  0.52882158  0.83731430  0.47594298  1
  O  O28  1  0.32485664  0.47276452  0.47208777  1
  O  O29  1  0.17201315  0.68001744  0.47682314  1
  O  O30  1  0.12940729  0.63493467  0.35911480  1
  O  O31  1  0.49143337  0.85406525  0.35988120  1
  O  O32  1  0.36229083  0.48659127  0.36529023  1
  O  O33  1  0.12459363  0.47739044  0.86430310  1
  O  O34  1  0.34742801  0.86027719  0.85915755  1
  O  O35  1  0.51442664  0.64110997  0.86355359  1
  O  O36  1  0.03162256  0.83958244  0.41700086  1
  O  O37  1  0.80930477  0.98097293  0.41256114  1
  O  O38  1  0.18299916  0.21183502  0.41599049  1
  O  O39  1  0.01975135  0.19854354  0.91315090  1
  O  O40  1  0.15335257  0.97740027  0.91400581  1
  O  O41  1  0.79488909  0.82419896  0.91279788  1
  O  O42  1  0.96739241  0.17050368  0.58719427  1
  O  O43  1  0.19979089  0.02256875  0.58792497  1
  O  O44  1  0.84272660  0.81249153  0.59198715  1
  O  O45  1  0.97420914  0.83028098  0.09110154  1
  O  O46  1  0.83361235  0.03511853  0.08702013  1
  O  O47  1  0.19661445  0.17570881  0.08635602  1
  O  O48  1  0.70147565  0.18818033  0.73746765  1
  O  O49  1  0.48182002  0.31275099  0.73766398  1
  O  O50  1  0.83854575  0.53188880  0.74198295  1
  O  O51  1  0.69016788  0.53926414  0.24275257  1
  O  O52  1  0.84880418  0.32238158  0.24359540  1
  O  O53  1  0.48043196  0.17340656  0.24186254  1
  O  O54  1  0.64041559  0.50861756  0.92080893  1
  O  O55  1  0.86749231  0.35981210  0.92288831  1
  O  O56  1  0.50344839  0.15580346  0.92184254  1
  O  O57  1  0.62524356  0.14517112  0.42815836  1
  O  O58  1  0.49750152  0.36429530  0.42396689  1
  O  O59  1  0.85737537  0.49108698  0.42720792  1
  O  O60  1  0.35963601  0.49080859  0.07542981  1
  O  O61  1  0.15150310  0.65590781  0.08079986  1
  O  O62  1  0.52111858  0.86409282  0.07641962  1
  O  O63  1  0.36084412  0.86713448  0.57925486  1
  O  O64  1  0.49239581  0.63913403  0.57599038  1
  O  O65  1  0.12820348  0.48772078  0.58034181  1
  O  O66  1  0.30862925  0.82526994  0.25743837  1
  O  O67  1  0.54052247  0.70365450  0.25191043  1
  O  O68  1  0.19613894  0.47978502  0.25826903  1
  O  O69  1  0.29882873  0.47439796  0.75373227  1
  O  O70  1  0.14949654  0.68614524  0.75420378  1
  O  O71  1  0.52251297  0.84057766  0.75111661  1
loop_
_geom_bond_atom_site_label_1
_geom_bond_atom_site_label_2
_geom_bond_distance
_geom_bond_site_symmetry_2
Na0 O36 2.403539 1_655
Na0 O37 2.509669 1_555
Na0 O44 2.566579 1_555
Na0 O42 2.653108 1_565
Na0 O43 2.662948 1_665
Na0 O38 2.728908 1_665
Na1 O45 2.341206 1_455
Na1 O40 2.451365 1_554
Na1 O47 2.501153 1_565
Na1 O46 2.648955 1_465
Na1 O41 2.670838 1_454
Na1 O39 2.826821 1_564
Na2 O48 2.385218 1_555
Na2 O49 2.457763 1_555
Na2 O56 2.614004 1_555
Na2 O50 2.683498 1_555
Na2 O54 2.859614 1_555
Na2 O55 2.863214 1_555
Na3 O57 2.487345 1_555
Na3 O59 2.589205 1_555
Na3 O53 2.628390 1_555
Na3 O58 2.656633 1_555
Na3 O52 2.685463 1_555
Na3 O51 2.906506 1_555
Na4 O68 2.309879 1_555
Na4 O66 2.340593 1_555
Na4 O67 2.499027 1_555
Na4 O61 2.626252 1_555
Na4 O60 2.905903 1_555
Na4 O62 3.013826 1_555
Na5 O64 2.363916 1_555
Na5 O65 2.488339 1_555
Na5 O63 2.556482 1_555
Na5 O71 2.612770 1_555
Na5 O69 2.647866 1_555
Na5 O70 2.887726 1_555
Hf0 O2 1.985956 1_455
Hf0 O0 2.008469 1_555
Hf0 O37 2.058147 1_445
Hf0 O36 2.085899 1_545
Hf0 O38 2.140740 1_555
Hf0 O1 2.165010 1_445
Hf1 O3 1.922844 1_555
Hf1 O5 1.998107 1_455
Hf1 O40 2.046232 1_545
Hf1 O4 2.085304 1_445
Hf1 O39 2.192510 1_555
Hf1 O41 2.346512 1_445
Hf2 O52 1.931407 1_555
Hf2 O15 1.989118 1_555
Hf2 O53 2.020998 1_555
Hf2 O51 2.087050 1_555
Hf2 O16 2.164155 1_555
Hf2 O17 2.276950 1_555
Hf3 O19 1.971527 1_556
Hf3 O56 2.007253 1_555
Hf3 O18 2.082662 1_556
Hf3 O20 2.109392 1_556
Hf3 O54 2.140465 1_555
Hf3 O55 2.161834 1_555
Hf4 O26 1.911846 1_554
Hf4 O61 1.953170 1_555
Hf4 O62 2.094759 1_555
Hf4 O25 2.100651 1_554
Hf4 O60 2.206826 1_555
Hf4 O24 2.245088 1_554
Hf5 O71 1.948944 1_555
Hf5 O34 1.985087 1_555
Hf5 O69 2.025510 1_555
Hf5 O70 2.105002 1_555
Hf5 O35 2.157340 1_555
Hf5 O33 2.360030 1_555
O0 Si0 1.595884 1_555
O1 S0 1.469116 1_555
O2 Si1 1.609132 1_655
O3 Si2 1.644973 1_555
O4 S1 1.507086 1_555
O5 Si3 1.631401 1_555
O6 Si3 1.653464 1_565
O6 Ti0 1.792613 1_565
O7 Si2 1.622598 1_555
O7 Ti0 1.863548 1_455
O8 S1 1.456545 1_455
O8 Ti0 2.215620 1_465
O9 S0 1.502293 1_555
O9 Ti1 2.001186 1_655
O10 Si1 1.674786 1_555
O10 Ti1 1.838456 1_545
O11 Si0 1.683095 1_565
O11 Ti1 1.761681 1_555
O12 S2 1.468618 1_555
O12 Ti2 2.187383 1_555
O13 S3 1.510681 1_555
O13 Ti2 1.966420 1_555
O14 Si4 1.659665 1_555
O14 Ti2 1.827039 1_555
O15 Si5 1.613288 1_555
O16 S4 1.469761 1_555
O17 S5 1.459127 1_555
O18 S5 1.511596 1_555
O19 Si5 1.643557 1_555
O20 S4 1.498818 1_555
O21 S3 1.459886 1_555
O21 Ti3 2.296671 1_555
O22 Si4 1.647163 1_555
O22 Ti3 1.847446 1_555
O23 S2 1.488748 1_555
O23 Ti3 2.056808 1_555
O24 S6 1.476730 1_555
O25 S7 1.494095 1_555
O26 Si6 1.648278 1_555
O27 Si7 1.671093 1_555
O27 Ti4 1.759800 1_555
O28 S8 1.480661 1_555
O28 Ti4 2.023642 1_555
O29 Si8 1.633667 1_555
O29 Ti4 1.848143 1_555
O30 Si8 1.655631 1_555
O30 Ti5 1.803997 1_555
O31 Si7 1.637889 1_555
O31 Ti5 1.872142 1_555
O32 S8 1.462454 1_555
O32 Ti5 2.276024 1_555
O33 S7 1.455605 1_555
O34 Si6 1.624249 1_555
O35 S6 1.482275 1_555
O36 Si8 1.612154 1_555
O37 Si7 1.620381 1_555
O38 S8 1.496763 1_555
O39 S7 1.483028 1_555
O40 Si6 1.632486 1_555
O41 S6 1.474567 1_555
O42 S2 1.523442 1_555
O42 Ti0 2.026853 1_555
O43 S3 1.477711 1_555
O43 Ti0 2.275558 1_455
O44 Si4 1.656869 1_555
O44 Ti0 1.905609 1_565
O45 Si5 1.633310 1_555
O45 Ti1 1.940570 1_655
O46 S4 1.459942 1_555
O46 Ti1 2.353981 1_645
O47 S5 1.474884 1_555
O47 Ti1 2.270560 1_545
O48 Si3 1.613834 1_555
O48 Ti2 1.957782 1_555
O49 Si2 1.649858 1_555
O49 Ti2 1.846293 1_555
O50 S1 1.464895 1_555
O50 Ti2 2.156369 1_555
O51 S0 1.498674 1_555
O52 Si1 1.652798 1_655
O53 Si0 1.621956 1_555
O54 S6 1.499503 1_555
O55 S7 1.494265 1_655
O56 Si6 1.638839 1_545
O57 Si7 1.641678 1_545
O57 Ti3 1.920398 1_555
O58 S8 1.491968 1_555
O58 Ti3 2.092157 1_555
O59 Si8 1.664353 1_655
O59 Ti3 1.820814 1_555
O60 S5 1.491050 1_555
O61 Si5 1.666267 1_455
O62 S4 1.497369 1_565
O63 S3 1.501860 1_565
O63 Ti4 2.112668 1_555
O64 Si4 1.640913 1_555
O64 Ti4 1.972418 1_555
O65 S2 1.469936 1_455
O65 Ti4 2.397699 1_555
O66 Si0 1.639256 1_565
O66 Ti5 1.868629 1_555
O67 S0 1.452409 1_555
O67 Ti5 2.406416 1_555
O68 Si1 1.629672 1_555
O68 Ti5 1.966613 1_555
O69 Si2 1.624855 1_555
O70 S1 1.496706 1_455
O71 Si3 1.650087 1_565
