# generated using pymatgen
data_MgTe2MoW2(SeS)2
_symmetry_space_group_name_H-M   'P 1'
_cell_length_a   6.69525600
_cell_length_b   6.69510304
_cell_length_c   61.92965000
_cell_angle_alpha   90.00001011
_cell_angle_beta   89.99999260
_cell_angle_gamma   120.00079265
_symmetry_Int_Tables_number   1
_chemical_formula_structural   MgTe2MoW2(SeS)2
_chemical_formula_sum   'Mg8 Te16 Mo8 W16 Se16 S16'
_cell_volume   2404.08733727
_cell_formula_units_Z   8
loop_
 _symmetry_equiv_pos_site_id
 _symmetry_equiv_pos_as_xyz
  1  'x, y, z'
loop_
 _atom_site_type_symbol
 _atom_site_label
 _atom_site_symmetry_multiplicity
 _atom_site_fract_x
 _atom_site_fract_y
 _atom_site_fract_z
 _atom_site_occupancy
  Mg  Mg0_0  1  0.33228300  0.16790600  0.42807500  1
  Mg  Mg0_1  1  0.33228300  0.16790600  0.92807500  1
  Mg  Mg0_2  1  0.33228300  0.66790600  0.42807500  1
  Mg  Mg0_3  1  0.33228300  0.66790600  0.92807500  1
  Mg  Mg0_4  1  0.83228300  0.16790600  0.42807500  1
  Mg  Mg0_5  1  0.83228300  0.16790600  0.92807500  1
  Mg  Mg0_6  1  0.83228300  0.66790600  0.42807500  1
  Mg  Mg0_7  1  0.83228300  0.66790600  0.92807500  1
  Te  Te0_0  1  0.33332400  0.16664750  0.25841800  1
  Te  Te0_1  1  0.33332400  0.16664750  0.75841800  1
  Te  Te0_2  1  0.33332400  0.66664750  0.25841800  1
  Te  Te0_3  1  0.33332400  0.66664750  0.75841800  1
  Te  Te0_4  1  0.83332400  0.16664750  0.25841800  1
  Te  Te0_5  1  0.83332400  0.16664750  0.75841800  1
  Te  Te0_6  1  0.83332400  0.66664750  0.25841800  1
  Te  Te0_7  1  0.83332400  0.66664750  0.75841800  1
  Te  Te1_0  1  0.33332250  0.16664500  0.31988250  1
  Te  Te1_1  1  0.33332250  0.16664500  0.81988250  1
  Te  Te1_2  1  0.33332250  0.66664500  0.31988250  1
  Te  Te1_3  1  0.33332250  0.66664500  0.81988250  1
  Te  Te1_4  1  0.83332250  0.16664500  0.31988250  1
  Te  Te1_5  1  0.83332250  0.16664500  0.81988250  1
  Te  Te1_6  1  0.83332250  0.66664500  0.31988250  1
  Te  Te1_7  1  0.83332250  0.66664500  0.81988250  1
  Mo  Mo0_0  1  0.33335300  0.16670600  0.17348250  1
  Mo  Mo0_1  1  0.33335300  0.16670600  0.67348250  1
  Mo  Mo0_2  1  0.33335300  0.66670600  0.17348250  1
  Mo  Mo0_3  1  0.33335300  0.66670600  0.67348250  1
  Mo  Mo0_4  1  0.83335300  0.16670600  0.17348250  1
  Mo  Mo0_5  1  0.83335300  0.16670600  0.67348250  1
  Mo  Mo0_6  1  0.83335300  0.66670600  0.17348250  1
  Mo  Mo0_7  1  0.83335300  0.66670600  0.67348250  1
  W  W0_0  1  0.16665550  0.33331100  0.05782150  1
  W  W0_1  1  0.16665550  0.33331100  0.55782150  1
  W  W0_2  1  0.16665550  0.83331100  0.05782150  1
  W  W0_3  1  0.16665550  0.83331100  0.55782150  1
  W  W0_4  1  0.66665550  0.33331100  0.05782150  1
  W  W0_5  1  0.66665550  0.33331100  0.55782150  1
  W  W0_6  1  0.66665550  0.83331100  0.05782150  1
  W  W0_7  1  0.66665550  0.83331100  0.55782150  1
  W  W1_0  1  0.16665650  0.33331300  0.28917200  1
  W  W1_1  1  0.16665650  0.33331300  0.78917200  1
  W  W1_2  1  0.16665650  0.83331300  0.28917200  1
  W  W1_3  1  0.16665650  0.83331300  0.78917200  1
  W  W1_4  1  0.66665650  0.33331300  0.28917200  1
  W  W1_5  1  0.66665650  0.33331300  0.78917200  1
  W  W1_6  1  0.66665650  0.83331300  0.28917200  1
  W  W1_7  1  0.66665650  0.83331300  0.78917200  1
  Se  Se0_0  1  0.33332350  0.16664700  0.03084350  1
  Se  Se0_1  1  0.33332350  0.16664700  0.53084350  1
  Se  Se0_2  1  0.33332350  0.66664700  0.03084350  1
  Se  Se0_3  1  0.33332350  0.66664700  0.53084350  1
  Se  Se0_4  1  0.83332350  0.16664700  0.03084350  1
  Se  Se0_5  1  0.83332350  0.16664700  0.53084350  1
  Se  Se0_6  1  0.83332350  0.66664700  0.03084350  1
  Se  Se0_7  1  0.83332350  0.66664700  0.53084350  1
  Se  Se1_0  1  0.33332050  0.16664100  0.08482550  1
  Se  Se1_1  1  0.33332050  0.16664100  0.58482550  1
  Se  Se1_2  1  0.33332050  0.66664100  0.08482550  1
  Se  Se1_3  1  0.33332050  0.66664100  0.58482550  1
  Se  Se1_4  1  0.83332050  0.16664100  0.08482550  1
  Se  Se1_5  1  0.83332050  0.16664100  0.58482550  1
  Se  Se1_6  1  0.83332050  0.66664100  0.08482550  1
  Se  Se1_7  1  0.83332050  0.66664100  0.58482550  1
  S  S0_0  1  0.16667200  0.33334450  0.19793000  1
  S  S0_1  1  0.16667200  0.33334450  0.69793000  1
  S  S0_2  1  0.16667200  0.83334450  0.19793000  1
  S  S0_3  1  0.16667200  0.83334450  0.69793000  1
  S  S0_4  1  0.66667200  0.33334450  0.19793000  1
  S  S0_5  1  0.66667200  0.33334450  0.69793000  1
  S  S0_6  1  0.66667200  0.83334450  0.19793000  1
  S  S0_7  1  0.66667200  0.83334450  0.69793000  1
  S  S1_0  1  0.16667200  0.33334500  0.14904600  1
  S  S1_1  1  0.16667200  0.33334500  0.64904600  1
  S  S1_2  1  0.16667200  0.83334500  0.14904600  1
  S  S1_3  1  0.16667200  0.83334500  0.64904600  1
  S  S1_4  1  0.66667200  0.33334500  0.14904600  1
  S  S1_5  1  0.66667200  0.33334500  0.64904600  1
  S  S1_6  1  0.66667200  0.83334500  0.14904600  1
  S  S1_7  1  0.66667200  0.83334500  0.64904600  1
loop_
_geom_bond_atom_site_label_1
_geom_bond_atom_site_label_2
_geom_bond_distance
_geom_bond_site_symmetry_2
Mg0_0 Mg0_6 3.347550 1_555
Mg0_0 Mg0_6 3.347550 1_445
Mg0_0 Mg0_2 3.347552 1_555
Mg0_0 Mg0_2 3.347552 1_545
Mg0_0 Mg0_4 3.347628 1_555
Mg0_0 Mg0_4 3.347628 1_455
Mg0_1 Mg0_7 3.347550 1_555
Mg0_1 Mg0_7 3.347550 1_445
Mg0_1 Mg0_3 3.347552 1_555
Mg0_1 Mg0_3 3.347552 1_545
Mg0_1 Mg0_5 3.347628 1_555
Mg0_1 Mg0_5 3.347628 1_455
Mg0_2 Mg0_4 3.347550 1_565
Mg0_2 Mg0_4 3.347550 1_455
Mg0_2 Mg0_6 3.347628 1_555
Mg0_2 Mg0_6 3.347628 1_455
Mg0_3 Mg0_5 3.347550 1_455
Mg0_3 Mg0_5 3.347550 1_565
Mg0_3 Mg0_7 3.347628 1_555
Mg0_3 Mg0_7 3.347628 1_455
Mg0_4 Mg0_6 3.347552 1_555
Mg0_4 Mg0_6 3.347552 1_545
Mg0_5 Mg0_7 3.347552 1_545
Mg0_5 Mg0_7 3.347552 1_555
Te0_0 W1_2 2.713444 1_545
Te0_0 W1_4 2.713467 1_555
Te0_0 W1_0 2.713469 1_555
Te0_1 W1_3 2.713444 1_545
Te0_1 W1_5 2.713467 1_555
Te0_1 W1_1 2.713469 1_555
Te0_2 W1_0 2.713444 1_555
Te0_2 W1_6 2.713467 1_555
Te0_2 W1_2 2.713469 1_555
Te0_3 W1_1 2.713444 1_555
Te0_3 W1_7 2.713467 1_555
Te0_3 W1_3 2.713469 1_555
Te0_4 W1_6 2.713444 1_545
Te0_4 W1_0 2.713467 1_655
Te0_4 W1_4 2.713469 1_555
Te0_5 W1_7 2.713444 1_545
Te0_5 W1_1 2.713467 1_655
Te0_5 W1_5 2.713469 1_555
Te0_6 W1_4 2.713444 1_555
Te0_6 W1_2 2.713467 1_655
Te0_6 W1_6 2.713469 1_555
Te0_7 W1_5 2.713444 1_555
Te0_7 W1_3 2.713467 1_655
Te0_7 W1_7 2.713469 1_555
Te1_0 W1_2 2.711543 1_545
Te1_0 W1_4 2.711583 1_555
Te1_0 W1_0 2.711584 1_555
Te1_1 W1_3 2.711543 1_545
Te1_1 W1_5 2.711583 1_555
Te1_1 W1_1 2.711584 1_555
Te1_2 W1_0 2.711543 1_555
Te1_2 W1_6 2.711583 1_555
Te1_2 W1_2 2.711584 1_555
Te1_3 W1_1 2.711543 1_555
Te1_3 W1_7 2.711583 1_555
Te1_3 W1_3 2.711584 1_555
Te1_4 W1_6 2.711543 1_545
Te1_4 W1_0 2.711583 1_655
Te1_4 W1_4 2.711584 1_555
Te1_5 W1_7 2.711543 1_545
Te1_5 W1_1 2.711583 1_655
Te1_5 W1_5 2.711584 1_555
Te1_6 W1_4 2.711543 1_555
Te1_6 W1_2 2.711583 1_655
Te1_6 W1_6 2.711584 1_555
Te1_7 W1_5 2.711543 1_555
Te1_7 W1_3 2.711583 1_655
Te1_7 W1_7 2.711584 1_555
Mo0_0 S1_4 2.454662 1_555
Mo0_0 S1_0 2.454668 1_555
Mo0_0 S1_2 2.454819 1_545
Mo0_0 S0_4 2.455082 1_555
Mo0_0 S0_0 2.455085 1_555
Mo0_0 S0_2 2.455242 1_545
Mo0_1 S1_5 2.454662 1_555
Mo0_1 S1_1 2.454668 1_555
Mo0_1 S1_3 2.454819 1_545
Mo0_1 S0_5 2.455082 1_555
Mo0_1 S0_1 2.455085 1_555
Mo0_1 S0_3 2.455242 1_545
Mo0_2 S1_6 2.454662 1_555
Mo0_2 S1_2 2.454668 1_555
Mo0_2 S1_0 2.454819 1_555
Mo0_2 S0_6 2.455082 1_555
Mo0_2 S0_2 2.455085 1_555
Mo0_2 S0_0 2.455242 1_555
Mo0_3 S1_7 2.454662 1_555
Mo0_3 S1_3 2.454668 1_555
Mo0_3 S1_1 2.454819 1_555
Mo0_3 S0_7 2.455082 1_555
Mo0_3 S0_3 2.455085 1_555
Mo0_3 S0_1 2.455242 1_555
Mo0_4 S1_0 2.454662 1_655
Mo0_4 S1_4 2.454668 1_555
Mo0_4 S1_6 2.454819 1_545
Mo0_4 S0_0 2.455082 1_655
Mo0_4 S0_4 2.455085 1_555
Mo0_4 S0_6 2.455242 1_545
Mo0_5 S1_1 2.454662 1_655
Mo0_5 S1_5 2.454668 1_555
Mo0_5 S1_7 2.454819 1_545
Mo0_5 S0_1 2.455082 1_655
Mo0_5 S0_5 2.455085 1_555
Mo0_5 S0_7 2.455242 1_545
Mo0_6 S1_2 2.454662 1_655
Mo0_6 S1_6 2.454668 1_555
Mo0_6 S1_4 2.454819 1_555
Mo0_6 S0_2 2.455082 1_655
Mo0_6 S0_6 2.455085 1_555
Mo0_6 S0_4 2.455242 1_555
Mo0_7 S1_3 2.454662 1_655
Mo0_7 S1_7 2.454668 1_555
Mo0_7 S1_5 2.454819 1_555
Mo0_7 S0_3 2.455082 1_655
Mo0_7 S0_7 2.455085 1_555
Mo0_7 S0_5 2.455242 1_555
Se0_0 W0_2 2.554747 1_545
Se0_0 W0_4 2.554763 1_555
Se0_0 W0_0 2.554764 1_555
Se0_1 W0_3 2.554747 1_545
Se0_1 W0_5 2.554763 1_555
Se0_1 W0_1 2.554764 1_555
Se0_2 W0_0 2.554747 1_555
Se0_2 W0_6 2.554763 1_555
Se0_2 W0_2 2.554764 1_555
Se0_3 W0_1 2.554747 1_555
Se0_3 W0_7 2.554763 1_555
Se0_3 W0_3 2.554764 1_555
Se0_4 W0_6 2.554747 1_545
Se0_4 W0_0 2.554763 1_655
Se0_4 W0_4 2.554764 1_555
Se0_5 W0_7 2.554747 1_545
Se0_5 W0_1 2.554763 1_655
Se0_5 W0_5 2.554764 1_555
Se0_6 W0_4 2.554747 1_555
Se0_6 W0_2 2.554763 1_655
Se0_6 W0_6 2.554764 1_555
Se0_7 W0_5 2.554747 1_555
Se0_7 W0_3 2.554763 1_655
Se0_7 W0_7 2.554764 1_555
Se1_0 W0_2 2.555774 1_545
Se1_0 W0_4 2.555829 1_555
Se1_0 W0_0 2.555830 1_555
Se1_1 W0_3 2.555774 1_545
Se1_1 W0_5 2.555829 1_555
Se1_1 W0_1 2.555830 1_555
Se1_2 W0_0 2.555774 1_555
Se1_2 W0_6 2.555829 1_555
Se1_2 W0_2 2.555830 1_555
Se1_3 W0_1 2.555774 1_555
Se1_3 W0_7 2.555829 1_555
Se1_3 W0_3 2.555830 1_555
Se1_4 W0_6 2.555774 1_545
Se1_4 W0_0 2.555829 1_655
Se1_4 W0_4 2.555830 1_555
Se1_5 W0_7 2.555774 1_545
Se1_5 W0_1 2.555829 1_655
Se1_5 W0_5 2.555830 1_555
Se1_6 W0_4 2.555774 1_555
Se1_6 W0_2 2.555829 1_655
Se1_6 W0_6 2.555830 1_555
Se1_7 W0_5 2.555774 1_555
Se1_7 W0_3 2.555829 1_655
Se1_7 W0_7 2.555830 1_555
