# generated using pymatgen
data_Na18Mg8Ta4Si9(SO8)9
_symmetry_space_group_name_H-M   'P 1'
_cell_length_a   9.02792038
_cell_length_b   9.03393014
_cell_length_c   22.38615295
_cell_angle_alpha   90.67789409
_cell_angle_beta   89.69293369
_cell_angle_gamma   119.87999625
_symmetry_Int_Tables_number   1
_chemical_formula_structural   Na18Mg8Ta4Si9(SO8)9
_chemical_formula_sum   'Na18 Mg8 Ta4 Si9 S9 O72'
_cell_volume   1582.95278711
_cell_formula_units_Z   1
loop_
 _symmetry_equiv_pos_site_id
 _symmetry_equiv_pos_as_xyz
  1  'x, y, z'
loop_
 _atom_site_type_symbol
 _atom_site_label
 _atom_site_symmetry_multiplicity
 _atom_site_fract_x
 _atom_site_fract_y
 _atom_site_fract_z
 _atom_site_occupancy
  Na  Na0  1  0.65674418  0.03021002  0.25882832  1
  Na  Na1  1  0.34154736  0.33203195  0.25404835  1
  Na  Na2  1  0.99310489  0.63351491  0.24052924  1
  Na  Na3  1  0.64094618  0.63407692  0.73206718  1
  Na  Na4  1  0.98985735  0.33838114  0.73644218  1
  Na  Na5  1  0.37689575  0.03331333  0.74997118  1
  Na  Na6  1  0.29735697  0.34138358  0.59166931  1
  Na  Na7  1  0.02299659  0.68737907  0.58670669  1
  Na  Na8  1  0.67698312  0.95348978  0.58141938  1
  Na  Na9  1  0.27788325  0.94596169  0.08366241  1
  Na  Na10  1  0.67981682  0.70494471  0.08463907  1
  Na  Na11  1  0.03002695  0.34104542  0.09613910  1
  Na  Na12  1  0.97087383  0.99588128  0.49800936  1
  Na  Na13  1  0.01155651  0.98302706  0.99279727  1
  Na  Na14  1  0.64512051  0.31209818  0.82320898  1
  Na  Na15  1  0.66255994  0.30975725  0.33190310  1
  Na  Na16  1  0.30408399  0.66119181  0.16695987  1
  Na  Na17  1  0.33800598  0.65002329  0.65504024  1
  Mg  Mg0  1  0.00221583  0.01797798  0.35208115  1
  Mg  Mg1  1  0.01650594  0.01575401  0.84912089  1
  Mg  Mg2  1  0.98650211  0.01421773  0.64613214  1
  Mg  Mg3  1  0.01355167  0.99813843  0.15548914  1
  Mg  Mg4  1  0.66859556  0.33454391  0.68365555  1
  Mg  Mg5  1  0.67510469  0.33203217  0.18773739  1
  Mg  Mg6  1  0.31819999  0.67339912  0.01552856  1
  Mg  Mg7  1  0.34788918  0.66749785  0.51925444  1
  Ta  Ta0  1  0.66959096  0.33795407  0.97534941  1
  Ta  Ta1  1  0.67575319  0.33006588  0.48149984  1
  Ta  Ta2  1  0.33318393  0.67559077  0.31748921  1
  Ta  Ta3  1  0.34082038  0.67974487  0.81391281  1
  Si  Si0  1  0.29298743  0.00169891  0.24913545  1
  Si  Si1  1  0.00037262  0.29344331  0.24762705  1
  Si  Si2  1  0.29668683  0.29225240  0.74960809  1
  Si  Si3  1  0.71665377  0.00538400  0.75139339  1
  Si  Si4  1  0.97007094  0.33966218  0.58632910  1
  Si  Si5  1  0.66996056  0.62914753  0.58591875  1
  Si  Si6  1  0.96129279  0.62994151  0.08589577  1
  Si  Si7  1  0.31946964  0.96080142  0.92234157  1
  Si  Si8  1  0.63798034  0.96334385  0.42237801  1
  S  S0  1  0.70179973  0.70657625  0.24991963  1
  S  S1  1  0.00308968  0.70913302  0.75258362  1
  S  S2  1  0.37632390  0.04267950  0.58310594  1
  S  S3  1  0.66595801  0.04240501  0.08134368  1
  S  S4  1  0.38027742  0.33749719  0.08159273  1
  S  S5  1  0.62180528  0.66560753  0.91971478  1
  S  S6  1  0.04029463  0.37319975  0.91959132  1
  S  S7  1  0.33723774  0.37513838  0.41745697  1
  S  S8  1  0.03794434  0.66683030  0.41893016  1
  O  O0  1  0.19510841  0.02656883  0.30429025  1
  O  O1  1  0.81165836  0.78588229  0.30136884  1
  O  O2  1  0.95676129  0.16037740  0.30011154  1
  O  O3  1  0.21600032  0.16694660  0.80499658  1
  O  O4  1  0.98115924  0.79217258  0.80549176  1
  O  O5  1  0.82675518  0.02480509  0.80933205  1
  O  O6  1  0.76878417  0.94290498  0.69070884  1
  O  O7  1  0.18050887  0.22969496  0.68913566  1
  O  O8  1  0.04491565  0.81000588  0.69780594  1
  O  O9  1  0.76828636  0.80939067  0.19421388  1
  O  O10  1  0.04811244  0.22815043  0.18513364  1
  O  O11  1  0.18357819  0.94188099  0.18671387  1
  O  O12  1  0.88269978  0.36739152  0.64511223  1
  O  O13  1  0.47951861  0.11785189  0.63761240  1
  O  O14  1  0.63859735  0.51117639  0.64321390  1
  O  O15  1  0.86585218  0.51399304  0.14289146  1
  O  O16  1  0.63489795  0.11647357  0.13576936  1
  O  O17  1  0.47844442  0.35784488  0.13623829  1
  O  O18  1  0.47353804  0.31565270  0.02823580  1
  O  O19  1  0.83011672  0.51517451  0.02701093  1
  O  O20  1  0.68156855  0.15355779  0.02849351  1
  O  O21  1  0.46815219  0.15442385  0.52954740  1
  O  O22  1  0.67837670  0.51086211  0.52618057  1
  O  O23  1  0.83276833  0.31253046  0.52724650  1
  O  O24  1  0.53659034  0.67581401  0.97437699  1
  O  O25  1  0.13758953  0.45483596  0.97402335  1
  O  O26  1  0.31810382  0.86737368  0.98263498  1
  O  O27  1  0.53650329  0.86101273  0.47998563  1
  O  O28  1  0.31851308  0.45890049  0.47095777  1
  O  O29  1  0.13818082  0.68159898  0.47181698  1
  O  O30  1  0.12595570  0.63871135  0.36314898  1
  O  O31  1  0.50506000  0.85517257  0.36187656  1
  O  O32  1  0.35494995  0.48299569  0.36228730  1
  O  O33  1  0.11871343  0.47986015  0.86621520  1
  O  O34  1  0.34982248  0.85740941  0.86408811  1
  O  O35  1  0.51097274  0.63724238  0.86598866  1
  O  O36  1  0.01747364  0.81326118  0.40935534  1
  O  O37  1  0.82181921  0.98336248  0.41231344  1
  O  O38  1  0.18973002  0.20497451  0.41067639  1
  O  O39  1  0.00934385  0.19942066  0.91431515  1
  O  O40  1  0.15792357  0.98475647  0.91351056  1
  O  O41  1  0.79230300  0.81040674  0.91308194  1
  O  O42  1  0.97989172  0.16605324  0.58118210  1
  O  O43  1  0.20899476  0.03385265  0.58550454  1
  O  O44  1  0.85159580  0.80784543  0.58371309  1
  O  O45  1  0.97015797  0.81608776  0.08336879  1
  O  O46  1  0.82710829  0.03716506  0.08311502  1
  O  O47  1  0.20975960  0.18302098  0.08091515  1
  O  O48  1  0.67852440  0.16266942  0.74566417  1
  O  O49  1  0.49390012  0.33621791  0.74490780  1
  O  O50  1  0.85712831  0.53521107  0.74779176  1
  O  O51  1  0.66982468  0.52984343  0.24200190  1
  O  O52  1  0.84488003  0.33627498  0.24560661  1
  O  O53  1  0.48609125  0.16572802  0.24284772  1
  O  O54  1  0.63481868  0.50127150  0.92226714  1
  O  O55  1  0.86234298  0.36029268  0.92417468  1
  O  O56  1  0.50676632  0.15557490  0.92540866  1
  O  O57  1  0.64107959  0.15361921  0.42110888  1
  O  O58  1  0.49926323  0.36652994  0.41846423  1
  O  O59  1  0.86618264  0.50399706  0.41980696  1
  O  O60  1  0.36835574  0.49423564  0.07371618  1
  O  O61  1  0.14819276  0.64104647  0.08058746  1
  O  O62  1  0.52088998  0.86567520  0.07470950  1
  O  O63  1  0.35271652  0.86980555  0.57547454  1
  O  O64  1  0.50404143  0.65253539  0.57942018  1
  O  O65  1  0.15062052  0.51295197  0.57493365  1
  O  O66  1  0.31946321  0.82697192  0.26119968  1
  O  O67  1  0.52520831  0.68859824  0.25800148  1
  O  O68  1  0.18179150  0.48687316  0.26067716  1
  O  O69  1  0.30704421  0.48546659  0.76590140  1
  O  O70  1  0.16167532  0.68466090  0.76125126  1
  O  O71  1  0.51150517  0.82772865  0.76260998  1
loop_
_geom_bond_atom_site_label_1
_geom_bond_atom_site_label_2
_geom_bond_distance
_geom_bond_site_symmetry_2
Na0 O53 2.428155 1_555
Na0 O52 2.439728 1_555
Na0 O2 2.529957 1_555
Na0 O66 2.660034 1_545
Na0 O67 2.698508 1_545
Na0 O31 2.755390 1_545
Na0 O16 2.906025 1_555
Na0 O9 3.000573 1_545
Na1 O53 2.442093 1_555
Na1 O68 2.462072 1_555
Na1 O51 2.602958 1_555
Na1 O0 2.655249 1_555
Na1 O32 2.739763 1_555
Na1 O67 2.793989 1_555
Na1 O10 2.794816 1_555
Na1 O17 2.868746 1_555
Na2 O52 2.332269 1_555
Na2 O15 2.449128 1_555
Na2 O51 2.583095 1_555
Na2 O66 2.610425 1_655
Na2 O68 2.670386 1_655
Na2 O11 2.730020 1_655
Na2 O1 2.934499 1_555
Na2 O30 2.991950 1_655
Na3 O14 2.261493 1_555
Na3 O49 2.353844 1_555
Na3 O50 2.546030 1_555
Na3 O6 2.610433 1_555
Na3 O71 2.625582 1_555
Na3 O69 2.725843 1_555
Na4 O12 2.339049 1_555
Na4 O48 2.453255 1_555
Na4 O69 2.570744 1_655
Na4 O7 2.586066 1_655
Na4 O50 2.602156 1_555
Na4 O70 2.762950 1_655
Na5 O48 2.370506 1_555
Na5 O49 2.396387 1_555
Na5 O3 2.603364 1_555
Na5 O13 2.661528 1_555
Na5 O71 2.696502 1_545
Na5 O70 2.770476 1_545
Na5 O8 2.893698 1_545
Na5 O34 2.968762 1_545
Na6 O7 2.420422 1_555
Na6 O43 2.481487 1_555
Na6 O64 2.498997 1_555
Na6 O42 2.500693 1_455
Na6 O65 2.522381 1_555
Na6 O28 2.885502 1_555
Na6 O14 2.909099 1_555
Na7 O44 2.294342 1_455
Na7 O65 2.382413 1_555
Na7 O63 2.598808 1_555
Na7 O8 2.678364 1_555
Na7 O43 2.717003 1_565
Na7 O29 2.778703 1_555
Na7 O12 2.844949 1_455
Na8 O64 2.366422 1_555
Na8 O42 2.435902 1_565
Na8 O44 2.507563 1_555
Na8 O27 2.528400 1_555
Na8 O6 2.605369 1_555
Na8 O63 2.637405 1_555
Na9 O61 2.397132 1_555
Na9 O45 2.418039 1_455
Na9 O26 2.441486 1_554
Na9 O11 2.449040 1_555
Na9 O47 2.506835 1_565
Na9 O62 2.637511 1_555
Na10 O45 2.292842 1_555
Na10 O60 2.500609 1_555
Na10 O62 2.510621 1_555
Na10 O9 2.600110 1_555
Na10 O46 2.608149 1_565
Na10 O24 2.741116 1_554
Na11 O10 2.292018 1_555
Na11 O61 2.396248 1_555
Na11 O46 2.439929 1_455
Na11 O47 2.660371 1_555
Na11 O60 2.699054 1_555
Na11 O15 2.825818 1_455
Na11 O25 2.918264 1_554
Na12 O37 2.318349 1_555
Na12 O42 2.376113 1_565
Na12 O44 2.441002 1_555
Na12 O36 2.728112 1_655
Na12 O38 2.760703 1_665
Na12 O43 2.805344 1_665
Na13 O40 2.202639 1_555
Na13 O45 2.455134 1_456
Na13 O41 2.535913 1_455
Na13 O39 2.651277 1_565
Na13 O47 2.662642 1_566
Na13 O46 2.802132 1_466
Na14 O48 2.295922 1_555
Na14 O49 2.305400 1_555
Na14 O50 2.603533 1_555
Na14 O56 2.660831 1_555
Na14 O54 2.813038 1_555
Na14 O55 2.884008 1_555
Na15 O57 2.409376 1_555
Na15 O52 2.466299 1_555
Na15 O53 2.472416 1_555
Na15 O58 2.624991 1_555
Na15 O59 2.659670 1_555
Na15 O51 2.823310 1_555
Na16 O61 2.349056 1_555
Na16 O68 2.534041 1_555
Na16 O66 2.536555 1_555
Na16 O67 2.781982 1_555
Na16 O60 2.784451 1_555
Na16 O62 2.820044 1_555
Na17 O64 2.247868 1_555
Na17 O65 2.346023 1_555
Na17 O63 2.636441 1_555
Na17 O69 2.848340 1_555
Na17 O71 2.876279 1_555
Na17 O70 2.953549 1_555
Mg0 O2 1.934761 1_455
Mg0 O0 2.007607 1_555
Mg0 O37 2.011777 1_445
Mg0 O38 2.135920 1_555
Mg0 O1 2.239481 1_445
Mg0 O36 2.322708 1_545
Mg1 O3 1.909657 1_555
Mg1 O5 1.972882 1_455
Mg1 O40 2.042458 1_545
Mg1 O4 2.109474 1_445
Mg1 O39 2.221667 1_555
Mg1 O41 2.424668 1_445
Mg2 O6 2.001676 1_545
Mg2 O42 2.031942 1_555
Mg2 O7 2.088152 1_655
Mg2 O44 2.146127 1_545
Mg2 O43 2.351519 1_655
Mg2 O8 2.458869 1_645
Mg3 O11 1.974911 1_555
Mg3 O10 2.044280 1_565
Mg3 O45 2.183320 1_455
Mg3 O9 2.194168 1_455
Mg3 O47 2.408478 1_565
Mg3 O46 2.493282 1_465
Mg4 O14 1.976505 1_555
Mg4 O12 1.996345 1_555
Mg4 O49 2.089947 1_555
Mg4 O13 2.109499 1_555
Mg4 O48 2.129987 1_555
Mg4 O50 2.266054 1_555
Mg5 O15 1.968638 1_555
Mg5 O52 1.997626 1_555
Mg5 O53 2.039097 1_555
Mg5 O16 2.126957 1_555
Mg5 O51 2.168928 1_555
Mg5 O17 2.230797 1_555
Mg6 O26 1.909194 1_554
Mg6 O61 2.025187 1_555
Mg6 O25 2.045871 1_554
Mg6 O24 2.162067 1_554
Mg6 O62 2.219319 1_555
Mg6 O60 2.303894 1_555
Mg7 O27 1.944939 1_555
Mg7 O64 2.008536 1_555
Mg7 O65 2.052932 1_555
Mg7 O28 2.060911 1_555
Mg7 O63 2.189268 1_555
Mg7 O29 2.234574 1_555
O0 Si0 1.592278 1_555
O1 S0 1.451968 1_555
O2 Si1 1.592927 1_655
O3 Si2 1.597317 1_555
O4 S1 1.459189 1_655
O5 Si3 1.592399 1_555
O6 Si3 1.620264 1_565
O7 Si2 1.630524 1_555
O8 S1 1.468113 1_555
O9 S0 1.497327 1_555
O10 Si1 1.648682 1_555
O11 Si0 1.638724 1_565
O12 Si4 1.610759 1_555
O13 S2 1.476545 1_555
O14 Si5 1.608999 1_555
O15 Si6 1.608771 1_555
O16 S3 1.474725 1_555
O17 S4 1.469582 1_555
O18 S4 1.524382 1_555
O18 Ta0 2.050091 1_554
O19 Si6 1.725132 1_555
O19 Ta0 1.913974 1_554
O20 S3 1.520937 1_555
O20 Ta0 2.104703 1_554
O21 S2 1.525781 1_555
O21 Ta1 2.059854 1_555
O22 Si5 1.726855 1_555
O22 Ta1 1.895190 1_555
O23 Si4 1.747317 1_555
O23 Ta1 1.823831 1_555
O24 S5 1.468212 1_555
O25 S6 1.464582 1_555
O26 Si7 1.597098 1_555
O27 Si8 1.590191 1_555
O28 S7 1.462682 1_555
O29 S8 1.458026 1_555
O30 S8 1.561453 1_555
O30 Ta2 2.005579 1_555
O31 Si8 1.745573 1_555
O31 Ta2 1.870084 1_555
O32 S7 1.539938 1_555
O32 Ta2 2.110830 1_555
O33 S6 1.481857 1_555
O33 Ta3 2.251550 1_555
O34 Si7 1.694249 1_555
O34 Ta3 1.916419 1_555
O35 S5 1.504498 1_555
O35 Ta3 2.117451 1_555
O36 S8 1.442476 1_555
O37 Si8 1.592455 1_555
O38 S7 1.454822 1_555
O39 S6 1.454487 1_555
O40 Si7 1.591066 1_555
O41 S5 1.448590 1_555
O42 Si4 1.617123 1_555
O43 S2 1.473250 1_555
O44 Si5 1.631225 1_555
O45 Si6 1.644869 1_555
O46 S3 1.479760 1_555
O47 S4 1.475394 1_555
O48 Si3 1.626666 1_555
O49 Si2 1.622694 1_555
O50 S1 1.466700 1_655
O51 S0 1.482731 1_555
O52 Si1 1.632375 1_655
O53 Si0 1.638043 1_555
O54 S5 1.548214 1_555
O54 Ta0 2.048020 1_555
O55 S6 1.554653 1_655
O55 Ta0 2.003862 1_555
O56 Si7 1.730281 1_545
O56 Ta0 1.919942 1_555
O57 Si8 1.705741 1_545
O57 Ta1 1.980636 1_555
O58 S7 1.503310 1_555
O58 Ta1 2.279599 1_555
O59 S8 1.515390 1_655
O59 Ta1 2.160149 1_555
O60 S4 1.485121 1_555
O61 Si6 1.643381 1_455
O62 S3 1.483036 1_565
O63 S2 1.475145 1_565
O64 Si5 1.621086 1_555
O65 Si4 1.623335 1_455
O66 Si0 1.734457 1_565
O66 Ta2 1.919553 1_555
O67 S0 1.529827 1_555
O67 Ta2 2.137411 1_555
O68 Si1 1.721279 1_555
O68 Ta2 2.009407 1_555
O69 Si2 1.735274 1_555
O69 Ta3 1.937566 1_555
O70 S1 1.567051 1_555
O70 Ta3 2.025013 1_555
O71 Si3 1.764057 1_565
O71 Ta3 1.856205 1_555
