# generated using pymatgen
data_KMgMn2O4
_symmetry_space_group_name_H-M   'P 1'
_cell_length_a   3.22778428
_cell_length_b   5.61947892
_cell_length_c   5.51337803
_cell_angle_alpha   106.11885442
_cell_angle_beta   93.06423108
_cell_angle_gamma   92.86077418
_symmetry_Int_Tables_number   1
_chemical_formula_structural   KMgMn2O4
_chemical_formula_sum   'K1 Mg1 Mn2 O4'
_cell_volume   95.71669798
_cell_formula_units_Z   1
loop_
 _symmetry_equiv_pos_site_id
 _symmetry_equiv_pos_as_xyz
  1  'x, y, z'
loop_
 _atom_site_type_symbol
 _atom_site_label
 _atom_site_symmetry_multiplicity
 _atom_site_fract_x
 _atom_site_fract_y
 _atom_site_fract_z
 _atom_site_occupancy
  K  K0  1  0.50006800  0.99997800  0.49984900  1
  Mg  Mg0  1  0.00021400  0.49993300  0.49985700  1
  Mn  Mn0  1  0.99977800  0.00009300  0.99999800  1
  Mn  Mn1  1  0.50012800  0.50006300  0.00009500  1
  O  O0  1  0.50545100  0.71447500  0.76631800  1
  O  O1  1  0.03997600  0.29352000  0.78630600  1
  O  O2  1  0.96003700  0.70633000  0.21377600  1
  O  O3  1  0.49434700  0.28562100  0.23381800  1
loop_
_geom_bond_atom_site_label_1
_geom_bond_atom_site_label_2
_geom_bond_distance
_geom_bond_site_symmetry_2
K0 O3 2.456731 1_565
K0 O0 2.457958 1_555
K0 O2 2.494564 1_455
K0 O1 2.494916 1_665
K0 O2 2.542570 1_555
K0 O1 2.543525 1_565
Mg0 O3 2.198808 1_455
Mg0 O0 2.198955 1_555
Mg0 O2 2.204264 1_455
Mg0 O1 2.206009 1_555
Mg0 O3 2.367845 1_555
Mg0 O0 2.371009 1_455
Mn0 O0 2.271181 1_545
Mn0 O3 2.271676 1_656
Mn0 O1 2.279800 1_655
Mn0 O2 2.281702 1_546
Mn0 O3 2.497099 1_556
Mn0 O0 2.497637 1_645
Mn1 O2 1.954022 1_555
Mn1 O1 1.955408 1_554
Mn1 O3 1.993879 1_555
Mn1 O0 1.993970 1_554
Mn1 O2 2.331006 1_455
Mn1 O1 2.331234 1_654
