# generated using pymatgen
data_Na5Y3HfSi3(SO8)3
_symmetry_space_group_name_H-M   'P 1'
_cell_length_a   9.31996134
_cell_length_b   9.32885125
_cell_length_c   23.70031464
_cell_angle_alpha   90.49204925
_cell_angle_beta   89.96632961
_cell_angle_gamma   119.95282770
_symmetry_Int_Tables_number   1
_chemical_formula_structural   Na5Y3HfSi3(SO8)3
_chemical_formula_sum   'Na15 Y9 Hf3 Si9 S9 O72'
_cell_volume   1785.30856234
_cell_formula_units_Z   3
loop_
 _symmetry_equiv_pos_site_id
 _symmetry_equiv_pos_as_xyz
  1  'x, y, z'
loop_
 _atom_site_type_symbol
 _atom_site_label
 _atom_site_symmetry_multiplicity
 _atom_site_fract_x
 _atom_site_fract_y
 _atom_site_fract_z
 _atom_site_occupancy
  Na  Na0  1  0.65141127  0.01174319  0.25719515  1
  Na  Na1  1  0.00045513  0.61952976  0.24731185  1
  Na  Na2  1  0.62787137  0.63627367  0.74549045  1
  Na  Na3  1  0.37021621  0.01441831  0.75829328  1
  Na  Na4  1  0.66658670  0.94862162  0.58441616  1
  Na  Na5  1  0.97756869  0.68718585  0.92236271  1
  Na  Na6  1  0.68666126  0.01120138  0.91186200  1
  Na  Na7  1  0.95881765  0.30215750  0.40984376  1
  Na  Na8  1  0.70739620  0.68684069  0.42533457  1
  Na  Na9  1  0.99484465  0.96981214  0.50138295  1
  Na  Na10  1  0.00694186  0.97885131  0.99815672  1
  Na  Na11  1  0.64259337  0.31584427  0.83157255  1
  Na  Na12  1  0.67129728  0.31867242  0.33495193  1
  Na  Na13  1  0.29716664  0.63343791  0.16053867  1
  Na  Na14  1  0.33676986  0.63780145  0.66874449  1
  Y  Y0  1  0.99849348  0.00302583  0.35175280  1
  Y  Y1  1  0.00978467  0.01339495  0.85000461  1
  Y  Y2  1  0.99547880  0.00143091  0.65179557  1
  Y  Y3  1  0.00332388  0.00412650  0.14287589  1
  Y  Y4  1  0.66307140  0.33831414  0.68543422  1
  Y  Y5  1  0.67898235  0.34010444  0.18040304  1
  Y  Y6  1  0.33253237  0.67515455  0.01806181  1
  Y  Y7  1  0.33705790  0.67364756  0.51656062  1
  Y  Y8  1  0.32160333  0.66249309  0.32041861  1
  Hf  Hf0  1  0.66096940  0.34514491  0.97974508  1
  Hf  Hf1  1  0.67335147  0.34253602  0.48255632  1
  Hf  Hf2  1  0.35483505  0.67230252  0.81697295  1
  Si  Si0  1  0.00155167  0.29963330  0.25046587  1
  Si  Si1  1  0.29636122  0.30331608  0.74984857  1
  Si  Si2  1  0.69728486  0.99912626  0.75194533  1
  Si  Si3  1  0.66850984  0.63403559  0.58325881  1
  Si  Si4  1  0.96402404  0.62992580  0.08234477  1
  Si  Si5  1  0.63001939  0.66613587  0.91788788  1
  Si  Si6  1  0.33769431  0.96375001  0.91624489  1
  Si  Si7  1  0.63164235  0.97134051  0.41679691  1
  Si  Si8  1  0.02887333  0.66409536  0.41786395  1
  S  S0  1  0.29648042  -0.00014851  0.24955782  1
  S  S1  1  0.70346514  0.70489054  0.24962496  1
  S  S2  1  0.00768208  0.70490598  0.75195841  1
  S  S3  1  0.95651460  0.33284441  0.58123995  1
  S  S4  1  0.37693024  0.04577472  0.58141095  1
  S  S5  1  0.66732788  0.04261452  0.08134800  1
  S  S6  1  0.37687421  0.33382123  0.08157390  1
  S  S7  1  0.03669717  0.37806792  0.91732329  1
  S  S8  1  0.34059928  0.37076077  0.41832754  1
  O  O0  1  0.21854515  0.01902890  0.30113218  1
  O  O1  1  0.80506007  0.77846989  0.30178553  1
  O  O2  1  0.97663658  0.19577015  0.30915064  1
  O  O3  1  0.21875067  0.17781662  0.80238388  1
  O  O4  1  0.97607842  0.77850493  0.80274051  1
  O  O5  1  0.80227635  0.01818139  0.80863878  1
  O  O6  1  0.77475510  0.95924445  0.69514720  1
  O  O7  1  0.18889473  0.21579938  0.69287362  1
  O  O8  1  0.03607635  0.81109918  0.70196295  1
  O  O9  1  0.78913709  0.80886130  0.20066057  1
  O  O10  1  0.01177916  0.19439467  0.19712468  1
  O  O11  1  0.19198091  0.97488163  0.19965326  1
  O  O12  1  0.87649734  0.35039218  0.63196724  1
  O  O13  1  0.47283757  0.11874336  0.63400706  1
  O  O14  1  0.65779113  0.53369873  0.64021711  1
  O  O15  1  0.87787522  0.53277723  0.14151523  1
  O  O16  1  0.64768919  0.11786300  0.13459677  1
  O  O17  1  0.47062627  0.34715354  0.13353986  1
  O  O18  1  0.46623706  0.31640991  0.03126216  1
  O  O19  1  0.83946878  0.51721261  0.02776196  1
  O  O20  1  0.67878929  0.14459306  0.03194139  1
  O  O21  1  0.46975258  0.14994662  0.53233433  1
  O  O22  1  0.67544913  0.52417030  0.52714088  1
  O  O23  1  0.85095605  0.31515384  0.52993039  1
  O  O24  1  0.53909676  0.69338552  0.97059753  1
  O  O25  1  0.13487279  0.45045973  0.96826656  1
  O  O26  1  0.30131018  0.84155328  0.96878295  1
  O  O27  1  0.54871942  0.84711508  0.47007421  1
  O  O28  1  0.31031522  0.44725274  0.46798797  1
  O  O29  1  0.14329117  0.67982749  0.47079805  1
  O  O30  1  0.09774345  0.62034815  0.35994303  1
  O  O31  1  0.52961176  0.89035904  0.35770371  1
  O  O32  1  0.37318179  0.47569238  0.36783048  1
  O  O33  1  0.11704310  0.48217057  0.86703524  1
  O  O34  1  0.36480023  0.87124455  0.85918426  1
  O  O35  1  0.51674159  0.64089468  0.85990907  1
  O  O36  1  0.99466201  0.81846958  0.41210075  1
  O  O37  1  0.82154166  0.99846996  0.41306425  1
  O  O38  1  0.19305341  0.20580982  0.41058838  1
  O  O39  1  0.00566068  0.20673392  0.91110683  1
  O  O40  1  0.17239336  0.97977000  0.91063603  1
  O  O41  1  0.81613799  0.82608221  0.91158916  1
  O  O42  1  0.96173111  0.17592093  0.58279261  1
  O  O43  1  0.21094675  0.02834086  0.58371880  1
  O  O44  1  0.83412675  0.82124331  0.58128811  1
  O  O45  1  0.97533062  0.81140017  0.08287319  1
  O  O46  1  0.82044462  0.03160705  0.08435133  1
  O  O47  1  0.21210656  0.18174809  0.08289070  1
  O  O48  1  0.66009511  0.15165106  0.74507912  1
  O  O49  1  0.48901802  0.33684518  0.74608741  1
  O  O50  1  0.85867353  0.53988824  0.74416926  1
  O  O51  1  0.68366564  0.53685001  0.24439648  1
  O  O52  1  0.82711331  0.31258403  0.24776855  1
  O  O53  1  0.46555612  0.14574284  0.24445466  1
  O  O54  1  0.65268023  0.49884353  0.92426824  1
  O  O55  1  0.86775887  0.36466228  0.92285937  1
  O  O56  1  0.51646835  0.14238717  0.92613147  1
  O  O57  1  0.65470643  0.15806526  0.42812256  1
  O  O58  1  0.49106117  0.35478537  0.42605970  1
  O  O59  1  0.83948715  0.49369990  0.42657031  1
  O  O60  1  0.36089489  0.48163897  0.07715173  1
  O  O61  1  0.14378491  0.64106322  0.08029771  1
  O  O62  1  0.52126238  0.87485139  0.07841405  1
  O  O63  1  0.36494303  0.88087255  0.57634002  1
  O  O64  1  0.50455037  0.65808293  0.58013532  1
  O  O65  1  0.12292814  0.47696169  0.57570437  1
  O  O66  1  0.31388994  0.84836741  0.25391836  1
  O  O67  1  0.54057608  0.69550183  0.25515704  1
  O  O68  1  0.16055268  0.49066505  0.25201179  1
  O  O69  1  0.31493813  0.48888104  0.75980481  1
  O  O70  1  0.15803065  0.69052943  0.75923892  1
  O  O71  1  0.50864648  0.82565733  0.75821785  1
loop_
_geom_bond_atom_site_label_1
_geom_bond_atom_site_label_2
_geom_bond_distance
_geom_bond_site_symmetry_2
Na0 O52 2.455408 1_555
Na0 O67 2.593717 1_545
Na0 O53 2.612191 1_555
Na0 O31 2.646649 1_545
Na0 O66 2.726720 1_545
Na0 O2 2.902216 1_555
Na1 O68 2.340438 1_555
Na1 O52 2.488077 1_455
Na1 O66 2.623509 1_555
Na1 O51 2.653688 1_455
Na1 O15 2.700465 1_455
Na1 O30 2.818413 1_555
Na2 O49 2.422504 1_555
Na2 O71 2.529393 1_555
Na2 O69 2.552290 1_555
Na2 O50 2.714298 1_555
Na2 O14 2.728212 1_555
Na2 O6 2.883854 1_555
Na2 O35 2.909895 1_555
Na3 O48 2.363920 1_555
Na3 O71 2.652162 1_545
Na3 O49 2.654402 1_555
Na3 O70 2.659923 1_545
Na3 O34 2.737056 1_545
Na3 O3 2.743702 1_555
Na4 O64 2.354841 1_555
Na4 O44 2.388912 1_555
Na4 O42 2.498223 1_565
Na4 O63 2.561995 1_555
Na4 O6 2.795047 1_555
Na4 O27 2.892731 1_555
Na5 O40 2.426456 1_655
Na5 O41 2.441431 1_555
Na5 O54 2.635574 1_555
Na5 O55 2.650659 1_555
Na5 O26 2.832994 1_655
Na5 O19 2.904679 1_556
Na5 O4 2.969339 1_555
Na6 O56 2.461460 1_555
Na6 O41 2.553298 1_545
Na6 O39 2.598428 1_655
Na6 O5 2.660802 1_555
Na6 O55 2.866656 1_555
Na6 O34 2.885691 1_545
Na6 O24 2.935391 1_545
Na7 O37 2.460295 1_545
Na7 O57 2.496387 1_555
Na7 O59 2.560997 1_555
Na7 O2 2.613657 1_555
Na7 O38 2.744750 1_655
Na7 O30 2.847258 1_655
Na8 O36 2.344552 1_555
Na8 O37 2.567810 1_555
Na8 O59 2.641735 1_555
Na8 O58 2.724943 1_555
Na8 O27 2.779540 1_555
Na8 O22 2.797177 1_555
Na9 O44 2.391581 1_555
Na9 O36 2.533209 1_555
Na9 O43 2.655311 1_665
Na9 O37 2.739791 1_555
Na9 O42 2.836035 1_565
Na9 O38 2.984210 1_665
Na10 O45 2.480309 1_456
Na10 O40 2.581430 1_555
Na10 O41 2.612681 1_455
Na10 O47 2.756262 1_566
Na10 O46 2.875644 1_466
Na10 O39 2.979371 1_565
Na11 O49 2.545990 1_555
Na11 O48 2.601954 1_555
Na11 O56 2.679999 1_555
Na11 O54 2.743225 1_555
Na11 O55 2.885509 1_555
Na11 O50 2.929409 1_555
Na12 O52 2.541342 1_555
Na12 O57 2.640050 1_555
Na12 O59 2.688008 1_555
Na12 O53 2.781366 1_555
Na12 O58 2.854129 1_555
Na12 O51 2.933005 1_555
Na13 O61 2.402546 1_555
Na13 O68 2.539294 1_555
Na13 O60 2.655999 1_555
Na13 O66 2.924819 1_555
Na13 O62 2.931900 1_555
Na13 O67 3.030255 1_555
Na14 O69 2.529385 1_555
Na14 O64 2.568810 1_555
Na14 O71 2.696448 1_555
Na14 O65 2.836895 1_555
Na14 O70 2.900492 1_555
Hf0 O54 1.983356 1_555
Hf0 O19 1.985840 1_556
Hf0 O18 2.091336 1_556
Hf0 O56 2.103107 1_555
Hf0 O55 2.283844 1_555
Hf0 O20 2.325625 1_556
Hf1 O22 1.980971 1_555
Hf1 O59 1.999015 1_555
Hf1 O57 2.078355 1_555
Hf1 O23 2.120173 1_555
Hf1 O21 2.202230 1_555
Hf1 O58 2.211675 1_555
Hf2 O35 1.961312 1_555
Hf2 O71 2.006171 1_555
Hf2 O69 2.056053 1_555
Hf2 O34 2.061537 1_555
Hf2 O33 2.360753 1_555
Hf2 O70 2.363029 1_555
O0 S0 1.476024 1_555
O0 Y0 2.315632 1_455
O1 S1 1.494571 1_555
O1 Y0 2.286829 1_565
O2 Si0 1.650844 1_655
O2 Y0 2.165928 1_555
O3 Si1 1.619419 1_555
O3 Y1 2.112732 1_555
O4 S2 1.481229 1_655
O4 Y1 2.329365 1_665
O5 Si2 1.618099 1_545
O5 Y1 2.189200 1_655
O6 Si2 1.652365 1_555
O6 Y2 2.153687 1_565
O7 Si1 1.630706 1_555
O7 Y2 2.136677 1_455
O8 S2 1.487767 1_555
O8 Y2 2.327480 1_465
O9 S1 1.473055 1_555
O9 Y3 2.363722 1_665
O10 Si0 1.625770 1_555
O10 Y3 2.151995 1_555
O11 S0 1.473699 1_565
O11 Y3 2.337694 1_565
O12 S3 1.464868 1_555
O12 Y4 2.313167 1_555
O13 S4 1.481675 1_555
O13 Y4 2.271100 1_555
O14 Si3 1.623763 1_555
O14 Y4 2.143909 1_555
O15 Si4 1.651212 1_555
O15 Y5 2.053200 1_555
O16 S5 1.493911 1_555
O16 Y5 2.218094 1_555
O17 S6 1.478483 1_555
O17 Y5 2.267175 1_555
O18 S6 1.507467 1_555
O19 Si4 1.698881 1_555
O20 S5 1.484958 1_555
O21 S4 1.491442 1_555
O22 Si3 1.693000 1_555
O23 S3 1.519775 1_555
O24 Si5 1.597404 1_555
O24 Y6 2.162045 1_556
O25 S7 1.456462 1_555
O25 Y6 2.298768 1_556
O26 Si6 1.613322 1_555
O26 Y6 2.083503 1_556
O27 Si7 1.632269 1_555
O27 Y7 2.136437 1_555
O28 S8 1.469836 1_555
O28 Y7 2.298009 1_555
O29 Si8 1.604594 1_555
O29 Y7 2.132666 1_555
O30 Si8 1.647391 1_555
O30 Y8 2.137732 1_555
O31 Si7 1.643924 1_555
O31 Y8 2.216417 1_555
O32 S8 1.485134 1_555
O32 Y8 2.324066 1_555
O33 S7 1.488964 1_555
O34 Si6 1.683642 1_555
O35 Si5 1.675155 1_555
O36 Si8 1.629806 1_655
O36 Y0 2.234283 1_565
O37 Si7 1.660475 1_555
O37 Y0 2.182056 1_565
O38 S8 1.474769 1_555
O38 Y0 2.311580 1_455
O39 S7 1.481360 1_555
O39 Y1 2.318614 1_555
O40 Si6 1.626020 1_555
O40 Y1 2.223756 1_565
O41 Si5 1.636018 1_555
O41 Y1 2.309231 1_665
O42 S3 1.489552 1_555
O42 Y2 2.445551 1_555
O43 S4 1.473548 1_555
O43 Y2 2.489705 1_455
O44 Si3 1.656563 1_555
O44 Y2 2.304321 1_565
O45 Si4 1.642811 1_555
O45 Y3 2.193401 1_665
O46 S5 1.482779 1_555
O46 Y3 2.310826 1_655
O47 S6 1.482232 1_555
O47 Y3 2.317467 1_555
O48 Si2 1.633318 1_545
O48 Y4 2.241729 1_555
O49 Si1 1.664110 1_555
O49 Y4 2.161812 1_555
O50 S2 1.480924 1_655
O50 Y4 2.309126 1_555
O51 S1 1.488181 1_555
O51 Y5 2.354395 1_555
O52 Si0 1.690611 1_655
O52 Y5 2.210101 1_555
O53 S0 1.486961 1_555
O53 Y5 2.447633 1_555
O54 Si5 1.684135 1_555
O55 S7 1.521616 1_655
O56 Si6 1.682037 1_545
O57 Si7 1.664542 1_545
O58 S8 1.493886 1_555
O59 Si8 1.699507 1_655
O60 S6 1.463658 1_555
O60 Y6 2.410507 1_555
O61 Si4 1.626704 1_455
O61 Y6 2.194914 1_555
O62 S5 1.475852 1_565
O62 Y6 2.301187 1_555
O63 S4 1.489517 1_565
O63 Y7 2.294273 1_555
O64 Si3 1.653365 1_555
O64 Y7 2.227331 1_555
O65 S3 1.466569 1_455
O65 Y7 2.387172 1_555
O66 S0 1.505178 1_565
O66 Y8 2.380645 1_555
O67 S1 1.482139 1_555
O67 Y8 2.455409 1_555
O68 Si0 1.653802 1_555
O68 Y8 2.237536 1_555
O69 Si1 1.666173 1_555
O70 S2 1.483100 1_555
O71 Si2 1.701357 1_555
