# generated using pymatgen
data_Na6Y3NbSi2(PO6)4
_symmetry_space_group_name_H-M   'P 1'
_cell_length_a   16.18329182
_cell_length_b   9.24472422
_cell_length_c   9.30780416
_cell_angle_alpha   89.99372070
_cell_angle_beta   125.45038914
_cell_angle_gamma   89.98841289
_symmetry_Int_Tables_number   1
_chemical_formula_structural   Na6Y3NbSi2(PO6)4
_chemical_formula_sum   'Na12 Y6 Nb2 Si4 P8 O48'
_cell_volume   1134.38912366
_cell_formula_units_Z   2
loop_
 _symmetry_equiv_pos_site_id
 _symmetry_equiv_pos_as_xyz
  1  'x, y, z'
loop_
 _atom_site_type_symbol
 _atom_site_label
 _atom_site_symmetry_multiplicity
 _atom_site_fract_x
 _atom_site_fract_y
 _atom_site_fract_z
 _atom_site_occupancy
  Na  Na0  1  0.25150510  0.75214263  0.99928736  1
  Na  Na1  1  0.74722990  0.75928413  0.49467410  1
  Na  Na2  1  0.75150510  0.25214263  0.99928736  1
  Na  Na3  1  0.24722990  0.25928413  0.49467410  1
  Na  Na4  1  0.50060262  0.08185876  0.74003039  1
  Na  Na5  1  0.50531288  0.88609208  0.24615926  1
  Na  Na6  1  0.00060262  0.58185876  0.74003039  1
  Na  Na7  1  0.00531288  0.38609208  0.24615926  1
  Na  Na8  1  0.18979775  0.93032714  0.29808759  1
  Na  Na9  1  0.80762239  0.08195708  0.71219779  1
  Na  Na10  1  0.68979775  0.43032714  0.29808759  1
  Na  Na11  1  0.30762239  0.58195708  0.71219779  1
  Y  Y0  1  0.10267136  0.76202619  0.56249327  1
  Y  Y1  1  0.89789367  0.24103018  0.44033813  1
  Y  Y2  1  0.10695781  0.25205709  0.05433108  1
  Y  Y3  1  0.60267136  0.26202619  0.56249327  1
  Y  Y4  1  0.39789367  0.74103018  0.44033813  1
  Y  Y5  1  0.60695781  0.75205709  0.05433108  1
  Nb  Nb0  1  0.89592929  0.74566748  0.94770207  1
  Nb  Nb1  1  0.39592929  0.24566748  0.94770207  1
  Si  Si0  1  0.35214799  0.90728188  0.75563289  1
  Si  Si1  1  0.65201639  0.10699654  0.25535230  1
  Si  Si2  1  0.85214799  0.40728188  0.75563289  1
  Si  Si3  1  0.15201639  0.60699654  0.25535230  1
  P  P0  1  0.99656303  0.94084298  0.76656927  1
  P  P1  1  0.99329960  0.04710223  0.23501394  1
  P  P2  1  0.49656303  0.44084298  0.76656927  1
  P  P3  1  0.49329960  0.54710223  0.23501394  1
  P  P4  1  0.65209265  0.89443108  0.73780797  1
  P  P5  1  0.35685442  0.09658419  0.25617804  1
  P  P6  1  0.15209265  0.39443108  0.73780797  1
  P  P7  1  0.85685442  0.59658419  0.25617804  1
  O  O0  1  0.16154510  0.56201388  0.74371286  1
  O  O1  1  0.84467183  0.58829504  0.77319475  1
  O  O2  1  0.85355262  0.43119048  0.22948325  1
  O  O3  1  0.15571499  0.43083731  0.25260115  1
  O  O4  1  0.66154510  0.06201388  0.74371286  1
  O  O5  1  0.34467183  0.08829504  0.77319475  1
  O  O6  1  0.35355262  0.93119048  0.22948325  1
  O  O7  1  0.65571499  0.93083731  0.25260115  1
  O  O8  1  0.43400933  0.54370423  0.60570650  1
  O  O9  1  0.56410484  0.52650699  0.93666398  1
  O  O10  1  0.54709829  0.45403957  0.40132268  1
  O  O11  1  0.43508324  0.44368332  0.06941272  1
  O  O12  1  0.93400933  0.04370423  0.60570650  1
  O  O13  1  0.06410484  0.02650699  0.93666398  1
  O  O14  1  0.04709829  0.95403957  0.40132268  1
  O  O15  1  0.93508324  0.94368332  0.06941272  1
  O  O16  1  0.26116231  0.83058713  0.75360978  1
  O  O17  1  0.75034774  0.83245194  0.76422449  1
  O  O18  1  0.73213312  0.19456193  0.23381002  1
  O  O19  1  0.26426114  0.14818783  0.24857047  1
  O  O20  1  0.76116231  0.33058713  0.75360978  1
  O  O21  1  0.25034774  0.33245194  0.76422449  1
  O  O22  1  0.23213312  0.69456193  0.23381002  1
  O  O23  1  0.76426114  0.64818783  0.24857047  1
  O  O24  1  0.35081479  0.88543228  0.57715185  1
  O  O25  1  0.64497095  0.85042060  0.88869589  1
  O  O26  1  0.66271976  0.15942900  0.43177205  1
  O  O27  1  0.35826223  0.16741741  0.09972363  1
  O  O28  1  0.85081479  0.38543228  0.57715185  1
  O  O29  1  0.14497095  0.35042060  0.88869589  1
  O  O30  1  0.16271976  0.65942900  0.43177205  1
  O  O31  1  0.85826223  0.66741741  0.09972363  1
  O  O32  1  0.46115758  0.85495442  0.92714625  1
  O  O33  1  0.55839713  0.83898895  0.55971494  1
  O  O34  1  0.53139199  0.16679094  0.08535892  1
  O  O35  1  0.45441553  0.14018190  0.43059896  1
  O  O36  1  0.96115758  0.35495442  0.92714625  1
  O  O37  1  0.05839713  0.33898895  0.55971494  1
  O  O38  1  0.03139199  0.66679094  0.08535892  1
  O  O39  1  0.95441553  0.64018190  0.43059896  1
  O  O40  1  0.05892150  0.82473931  0.74971554  1
  O  O41  1  0.91274260  0.85373105  0.76897890  1
  O  O42  1  0.91693498  0.15242339  0.22694027  1
  O  O43  1  0.07708957  0.13374945  0.24003469  1
  O  O44  1  0.55892150  0.32473931  0.74971554  1
  O  O45  1  0.41274260  0.35373105  0.76897890  1
  O  O46  1  0.41693498  0.65242339  0.22694027  1
  O  O47  1  0.57708957  0.63374945  0.24003469  1
loop_
_geom_bond_atom_site_label_1
_geom_bond_atom_site_label_2
_geom_bond_distance
_geom_bond_site_symmetry_2
Na0 O46 2.434193 1_556
Na0 O22 2.437274 1_556
Na0 O6 2.440345 1_556
Na0 O16 2.488707 1_555
Na0 O0 2.617719 1_555
Na0 O40 2.675938 1_555
Na1 O7 2.431632 1_555
Na1 O41 2.554237 1_555
Na1 O17 2.570664 1_555
Na1 O1 2.638570 1_555
Na1 O47 2.641499 1_555
Na1 O23 2.666612 1_555
Na2 O42 2.434193 1_556
Na2 O18 2.437274 1_556
Na2 O2 2.440345 1_556
Na2 O20 2.488707 1_555
Na2 O4 2.617719 1_555
Na2 O44 2.675938 1_555
Na3 O3 2.431632 1_555
Na3 O45 2.554237 1_555
Na3 O21 2.570664 1_555
Na3 O5 2.638570 1_555
Na3 O43 2.641499 1_555
Na3 O19 2.666612 1_555
Na4 O44 2.417175 1_555
Na4 O35 2.578144 1_555
Na4 O4 2.591315 1_555
Na4 O24 2.685405 1_545
Na4 O5 2.714827 1_555
Na4 O25 2.863263 1_545
Na5 O6 2.405645 1_555
Na5 O7 2.435198 1_555
Na5 O46 2.539414 1_555
Na5 O33 2.556669 1_555
Na5 O47 2.621145 1_555
Na5 O32 2.636148 1_554
Na6 O40 2.417175 1_555
Na6 O39 2.578144 1_455
Na6 O0 2.591315 1_555
Na6 O28 2.685405 1_455
Na6 O1 2.714827 1_455
Na6 O29 2.863263 1_555
Na7 O2 2.405645 1_455
Na7 O3 2.435198 1_555
Na7 O42 2.539414 1_455
Na7 O37 2.556669 1_555
Na7 O43 2.621145 1_555
Na7 O36 2.636148 1_454
Na8 O24 2.420164 1_555
Na8 O43 2.451657 1_565
Na8 O22 2.460303 1_555
Na8 O19 2.523112 1_565
Na8 O13 2.882017 1_564
Na9 O26 2.392418 1_555
Na9 O20 2.516496 1_555
Na9 O4 2.552088 1_555
Na9 O41 2.565220 1_545
Na9 O17 2.633505 1_545
Na9 O12 2.764513 1_555
Na10 O28 2.420164 1_555
Na10 O47 2.451657 1_555
Na10 O18 2.460303 1_555
Na10 O23 2.523112 1_555
Na10 O9 2.882017 1_554
Na11 O30 2.392418 1_555
Na11 O16 2.516496 1_555
Na11 O0 2.552088 1_555
Na11 O45 2.565220 1_555
Na11 O21 2.633505 1_555
Na11 O8 2.764513 1_555
Nb0 O38 1.928772 1_656
Nb0 O1 1.970046 1_555
Nb0 O31 1.974229 1_556
Nb0 O15 2.050420 1_556
Nb0 O41 2.089060 1_555
Nb0 O17 2.107737 1_555
Nb1 O34 1.928772 1_556
Nb1 O5 1.970046 1_555
Nb1 O27 1.974229 1_556
Nb1 O11 2.050420 1_556
Nb1 O45 2.089060 1_555
Nb1 O21 2.107737 1_555
O0 P6 1.554664 1_555
O0 Y0 2.303545 1_555
O1 Si2 1.692513 1_555
O2 P7 1.545059 1_555
O2 Y1 2.412940 1_555
O3 Si3 1.630380 1_555
O3 Y2 2.252118 1_555
O4 P4 1.554664 1_545
O4 Y3 2.303545 1_555
O5 Si0 1.692513 1_545
O6 P5 1.545059 1_565
O6 Y4 2.412940 1_555
O7 Si1 1.630380 1_565
O7 Y5 2.252118 1_555
O8 P2 1.553048 1_555
O8 Y4 2.234721 1_555
O9 P2 1.523712 1_555
O9 Y5 2.268992 1_556
O10 P3 1.526583 1_555
O10 Y3 2.155003 1_555
O11 P3 1.579152 1_555
O12 P0 1.553048 1_545
O12 Y1 2.234721 1_555
O13 P0 1.523712 1_445
O13 Y2 2.268992 1_556
O14 P1 1.526583 1_465
O14 Y0 2.155003 1_555
O15 P1 1.579152 1_565
O16 Si0 1.624633 1_555
O16 Y0 2.202981 1_555
O17 P4 1.569467 1_555
O18 Si1 1.636621 1_555
O18 Y1 2.257170 1_555
O19 P5 1.534476 1_555
O19 Y2 2.308905 1_555
O20 Si2 1.624633 1_555
O20 Y3 2.202981 1_555
O21 P6 1.569467 1_555
O22 Si3 1.636621 1_555
O22 Y4 2.257170 1_555
O23 P7 1.534476 1_555
O23 Y5 2.308905 1_555
O24 Si0 1.661196 1_555
O24 Y4 2.260451 1_555
O25 P4 1.529352 1_555
O25 Y5 2.163855 1_556
O26 Si1 1.622238 1_555
O26 Y3 2.166992 1_555
O27 P5 1.608808 1_555
O28 Si2 1.661196 1_555
O28 Y1 2.260451 1_555
O29 P6 1.529352 1_555
O29 Y2 2.163855 1_556
O30 Si3 1.622238 1_555
O30 Y0 2.166992 1_555
O31 P7 1.608808 1_555
O32 Si0 1.620903 1_555
O32 Y5 2.152295 1_556
O33 P4 1.547431 1_555
O33 Y4 2.335565 1_555
O34 Si1 1.742490 1_555
O35 P5 1.522489 1_555
O35 Y3 2.262101 1_555
O36 Si2 1.620903 1_555
O36 Y2 2.152295 1_656
O37 P6 1.547431 1_555
O37 Y1 2.335565 1_455
O38 Si3 1.742490 1_555
O39 P7 1.522489 1_555
O39 Y0 2.262101 1_655
O40 P0 1.542184 1_455
O40 Y0 2.303354 1_555
O41 P0 1.588977 1_555
O42 P1 1.540363 1_555
O42 Y1 2.328403 1_555
O43 P1 1.552257 1_455
O43 Y2 2.320889 1_555
O44 P2 1.542184 1_555
O44 Y3 2.303354 1_555
O45 P2 1.588977 1_555
O46 P3 1.540363 1_555
O46 Y4 2.328403 1_555
O47 P3 1.552257 1_555
O47 Y5 2.320889 1_555
