# generated using pymatgen
data_K2ZnBr4
_symmetry_space_group_name_H-M   'P 1'
_cell_length_a   7.26920940
_cell_length_b   7.50584353
_cell_length_c   9.08223757
_cell_angle_alpha   90.00000000
_cell_angle_beta   108.68766012
_cell_angle_gamma   90.00000000
_symmetry_Int_Tables_number   1
_chemical_formula_structural   K2ZnBr4
_chemical_formula_sum   'K4 Zn2 Br8'
_cell_volume   469.41568243
_cell_formula_units_Z   2
loop_
 _symmetry_equiv_pos_site_id
 _symmetry_equiv_pos_as_xyz
  1  'x, y, z'
loop_
 _atom_site_type_symbol
 _atom_site_label
 _atom_site_symmetry_multiplicity
 _atom_site_fract_x
 _atom_site_fract_y
 _atom_site_fract_z
 _atom_site_occupancy
  K  K0  1  0.77276081  0.23337000  0.57244395  1
  K  K1  1  0.22723819  0.73337000  0.42755605  1
  K  K2  1  0.70793337  0.23638721  0.04707721  1
  K  K3  1  0.29206663  0.73638721  0.95292279  1
  Zn  Zn0  1  0.27759357  0.25973988  0.20483575  1
  Zn  Zn1  1  0.72240643  0.75973988  0.79516425  1
  Br  Br0  1  0.10079511  0.27952909  0.93134486  1
  Br  Br1  1  0.89920489  0.77952909  0.06865514  1
  Br  Br2  1  0.07513406  0.27781947  0.36768696  1
  Br  Br3  1  0.92486594  0.77781947  0.63231304  1
  Br  Br4  1  0.48230997  0.99842813  0.26027897  1
  Br  Br5  1  0.51769003  0.49842813  0.73972103  1
  Br  Br6  1  0.51343120  0.49953523  0.26911315  1
  Br  Br7  1  0.48656880  -0.00046477  0.73088685  1
loop_
_geom_bond_atom_site_label_1
_geom_bond_atom_site_label_2
_geom_bond_distance
_geom_bond_site_symmetry_2
Br0 Zn0 2.407882 1_556
Br0 K2 3.359884 1_456
Br0 K0 3.383837 1_455
Br0 K3 3.681814 1_555
Br1 Zn1 2.407882 1_554
Br1 K3 3.359884 1_654
Br1 K1 3.383834 1_655
Br1 K2 3.681814 1_565
Br2 Zn0 2.401433 1_555
Br2 K2 3.274110 1_455
Br2 K0 3.319676 1_455
Br2 K1 3.581127 1_555
Br3 Zn1 2.401433 1_555
Br3 K3 3.274110 1_655
Br3 K1 3.319670 1_655
Br3 K0 3.581128 1_565
Br4 Zn0 2.415542 1_565
Br4 K3 3.331588 1_554
Br4 K1 3.392531 1_555
Br4 K2 3.415348 1_565
Br4 K0 3.430696 1_565
Br5 Zn1 2.415542 1_555
Br5 K2 3.331588 1_556
Br5 K0 3.392526 1_555
Br5 K3 3.415348 1_555
Br5 K1 3.430699 1_555
Br6 Zn0 2.424457 1_555
Br6 K3 3.321951 1_554
Br6 K1 3.376051 1_555
Br6 K2 3.434234 1_555
Br6 K0 3.436053 1_555
Br7 Zn1 2.424457 1_545
Br7 K2 3.321951 1_556
Br7 K0 3.376046 1_555
Br7 K3 3.434234 1_545
Br7 K1 3.436055 1_545
