# generated using pymatgen
data_EuNb8O14
_symmetry_space_group_name_H-M   'P 1'
_cell_length_a   6.00228776
_cell_length_b   9.26224448
_cell_length_c   10.38644177
_cell_angle_alpha   90.00000000
_cell_angle_beta   90.00000000
_cell_angle_gamma   90.00000000
_symmetry_Int_Tables_number   1
_chemical_formula_structural   EuNb8O14
_chemical_formula_sum   'Eu2 Nb16 O28'
_cell_volume   577.43066425
_cell_formula_units_Z   2
loop_
 _symmetry_equiv_pos_site_id
 _symmetry_equiv_pos_as_xyz
  1  'x, y, z'
loop_
 _atom_site_type_symbol
 _atom_site_label
 _atom_site_symmetry_multiplicity
 _atom_site_fract_x
 _atom_site_fract_y
 _atom_site_fract_z
 _atom_site_occupancy
  Eu  Eu0  1  0.50000000  0.50000000  0.00000000  1
  Eu  Eu1  1  0.50000000  -0.00000000  0.50000000  1
  Nb  Nb0  1  -0.00000000  0.38458502  0.16349763  1
  Nb  Nb1  1  -0.00000000  0.61541498  0.83650237  1
  Nb  Nb2  1  -0.00000000  0.88458502  0.33650237  1
  Nb  Nb3  1  -0.00000000  0.11541498  0.66349763  1
  Nb  Nb4  1  0.50000000  0.37976215  0.66407009  1
  Nb  Nb5  1  0.50000000  0.62023785  0.33592991  1
  Nb  Nb6  1  0.50000000  0.87976215  0.83592991  1
  Nb  Nb7  1  0.50000000  0.12023785  0.16407009  1
  Nb  Nb8  1  0.73098679  0.62615445  0.57660782  1
  Nb  Nb9  1  0.73098679  0.37384555  0.42339218  1
  Nb  Nb10  1  0.26901321  0.12615445  0.92339218  1
  Nb  Nb11  1  0.26901321  0.87384555  0.07660782  1
  Nb  Nb12  1  0.26901321  0.37384555  0.42339218  1
  Nb  Nb13  1  0.26901321  0.62615445  0.57660782  1
  Nb  Nb14  1  0.73098679  0.87384555  0.07660782  1
  Nb  Nb15  1  0.73098679  0.12615445  0.92339218  1
  O  O0  1  0.74609346  0.50458766  0.75300408  1
  O  O1  1  0.74609346  0.49541234  0.24699592  1
  O  O2  1  0.25390654  0.00458766  0.74699592  1
  O  O3  1  0.25390654  0.99541234  0.25300408  1
  O  O4  1  0.25390654  0.49541234  0.24699592  1
  O  O5  1  0.25390654  0.50458766  0.75300408  1
  O  O6  1  0.74609346  0.99541234  0.25300408  1
  O  O7  1  0.74609346  0.00458766  0.74699592  1
  O  O8  1  0.25574063  0.73652580  0.91441155  1
  O  O9  1  0.25574063  0.26347420  0.08558845  1
  O  O10  1  0.74425937  0.23652580  0.58558845  1
  O  O11  1  0.74425937  0.76347420  0.41441155  1
  O  O12  1  0.74425937  0.26347420  0.08558845  1
  O  O13  1  0.74425937  0.73652580  0.91441155  1
  O  O14  1  0.25574063  0.76347420  0.41441155  1
  O  O15  1  0.25574063  0.23652580  0.58558845  1
  O  O16  1  -0.00000000  0.50000000  0.00000000  1
  O  O17  1  -0.00000000  -0.00000000  0.50000000  1
  O  O18  1  -0.00000000  0.23539578  0.81967836  1
  O  O19  1  -0.00000000  0.76460422  0.18032164  1
  O  O20  1  -0.00000000  0.73539578  0.68032164  1
  O  O21  1  -0.00000000  0.26460422  0.31967836  1
  O  O22  1  0.50000000  0.23293714  0.34977248  1
  O  O23  1  0.50000000  0.76706286  0.65022752  1
  O  O24  1  0.50000000  0.73293714  0.15022752  1
  O  O25  1  0.50000000  0.26706286  0.84977248  1
  O  O26  1  -0.00000000  -0.00000000  0.00000000  1
  O  O27  1  -0.00000000  0.50000000  0.50000000  1
loop_
_geom_bond_atom_site_label_1
_geom_bond_atom_site_label_2
_geom_bond_distance
_geom_bond_site_symmetry_2
Eu0 O25 2.662616 1_554
Eu0 O24 2.662616 1_555
Eu0 O9 2.781936 1_555
Eu0 O13 2.781936 1_554
Eu0 O12 2.781936 1_555
Eu0 O8 2.781936 1_554
Eu0 O5 2.960578 1_554
Eu0 O1 2.960578 1_555
Eu0 O0 2.960578 1_554
Eu0 O4 2.960578 1_555
Eu0 O16 3.001144 1_555
Eu0 O16 3.001144 1_655
Eu1 O22 2.662616 1_555
Eu1 O23 2.662616 1_545
Eu1 O15 2.781936 1_555
Eu1 O10 2.781936 1_555
Eu1 O14 2.781936 1_545
Eu1 O11 2.781936 1_545
Eu1 O3 2.960578 1_545
Eu1 O6 2.960578 1_545
Eu1 O7 2.960578 1_555
Eu1 O2 2.960578 1_555
Eu1 O17 3.001144 1_555
Eu1 O17 3.001144 1_655
Nb0 O21 1.966311 1_555
Nb0 O16 2.006616 1_555
Nb0 O4 2.031867 1_555
Nb0 O1 2.031867 1_455
Nb0 O12 2.066267 1_455
Nb0 O9 2.066267 1_555
Nb1 O20 1.966311 1_555
Nb1 O16 2.006616 1_556
Nb1 O5 2.031867 1_555
Nb1 O0 2.031867 1_455
Nb1 O8 2.066267 1_555
Nb1 O13 2.066267 1_455
Nb2 O19 1.966311 1_555
Nb2 O17 2.006616 1_565
Nb2 O3 2.031867 1_555
Nb2 O6 2.031867 1_455
Nb2 O11 2.066267 1_455
Nb2 O14 2.066267 1_555
Nb3 O18 1.966311 1_555
Nb3 O17 2.006616 1_555
Nb3 O2 2.031867 1_555
Nb3 O7 2.031867 1_455
Nb3 O15 2.066267 1_555
Nb3 O10 2.066267 1_455
Nb4 O5 2.090896 1_555
Nb4 O0 2.090896 1_555
Nb4 O15 2.138706 1_555
Nb4 O10 2.138706 1_555
Nb4 O25 2.193135 1_555
Nb5 O4 2.090896 1_555
Nb5 O1 2.090896 1_555
Nb5 O14 2.138706 1_555
Nb5 O11 2.138706 1_555
Nb5 O24 2.193135 1_555
Nb6 O2 2.090896 1_565
Nb6 O7 2.090896 1_565
Nb6 O13 2.138706 1_555
Nb6 O8 2.138706 1_555
Nb6 O23 2.193135 1_555
Nb7 O6 2.090896 1_545
Nb7 O3 2.090896 1_545
Nb7 O9 2.138706 1_555
Nb7 O12 2.138706 1_555
Nb7 O22 2.193135 1_555
Nb8 O23 2.051898 1_555
Nb8 O11 2.112361 1_555
Nb8 O27 2.146085 1_655
Nb8 O0 2.152383 1_555
Nb8 O20 2.188930 1_655
Nb9 O22 2.051898 1_555
Nb9 O10 2.112361 1_555
Nb9 O27 2.146085 1_655
Nb9 O1 2.152383 1_555
Nb9 O21 2.188930 1_655
Nb10 O25 2.051898 1_555
Nb10 O9 2.112361 1_556
Nb10 O26 2.146085 1_556
Nb10 O2 2.152383 1_555
Nb10 O18 2.188930 1_555
Nb11 O24 2.051898 1_555
Nb11 O8 2.112361 1_554
Nb11 O26 2.146085 1_565
Nb11 O3 2.152383 1_555
Nb11 O19 2.188930 1_555
Nb12 O22 2.051898 1_555
Nb12 O15 2.112361 1_555
Nb12 O27 2.146085 1_555
Nb12 O4 2.152383 1_555
Nb12 O21 2.188930 1_555
Nb13 O23 2.051898 1_555
Nb13 O14 2.112361 1_555
Nb13 O27 2.146085 1_555
Nb13 O5 2.152383 1_555
Nb13 O20 2.188930 1_555
Nb14 O24 2.051898 1_555
Nb14 O13 2.112361 1_554
Nb14 O26 2.146085 1_665
Nb14 O6 2.152383 1_555
Nb14 O19 2.188930 1_655
Nb15 O25 2.051898 1_555
Nb15 O12 2.112361 1_556
Nb15 O26 2.146085 1_656
Nb15 O7 2.152383 1_555
Nb15 O18 2.188930 1_655
