# generated using pymatgen
data_Co3AgP3(HO6)2
_symmetry_space_group_name_H-M   'P 1'
_cell_length_a   8.60921582
_cell_length_b   8.60921582
_cell_length_c   6.59595288
_cell_angle_alpha   73.19191948
_cell_angle_beta   73.19191948
_cell_angle_gamma   90.68380168
_symmetry_Int_Tables_number   1
_chemical_formula_structural   Co3AgP3(HO6)2
_chemical_formula_sum   'Co6 Ag2 P6 H4 O24'
_cell_volume   445.56156332
_cell_formula_units_Z   2
loop_
 _symmetry_equiv_pos_site_id
 _symmetry_equiv_pos_as_xyz
  1  'x, y, z'
loop_
 _atom_site_type_symbol
 _atom_site_label
 _atom_site_symmetry_multiplicity
 _atom_site_fract_x
 _atom_site_fract_y
 _atom_site_fract_z
 _atom_site_occupancy
  Co  Co0  1  0.77853900  0.22146100  0.75000000  1
  Co  Co1  1  0.54890300  0.87161600  0.38018700  1
  Co  Co2  1  0.87161600  0.54890300  0.88018700  1
  Co  Co3  1  0.45109700  0.12838400  0.61981300  1
  Co  Co4  1  0.12838400  0.45109700  0.11981300  1
  Co  Co5  1  0.22146100  0.77853900  0.25000000  1
  Ag  Ag0  1  0.45968400  0.54031600  0.75000000  1
  Ag  Ag1  1  0.54031600  0.45968400  0.25000000  1
  P  P0  1  0.18094500  0.81905500  0.75000000  1
  P  P1  1  0.81905500  0.18094500  0.25000000  1
  P  P2  1  0.16559000  0.39316800  0.61066300  1
  P  P3  1  0.60683200  0.83441000  0.88933700  1
  P  P4  1  0.83441000  0.60683200  0.38933700  1
  P  P5  1  0.39316800  0.16559000  0.11066300  1
  H  H0  1  0.11064000  0.12431100  0.68829200  1
  H  H1  1  0.87568900  0.88936000  0.81170800  1
  H  H2  1  0.88936000  0.87568900  0.31170800  1
  H  H3  1  0.12431100  0.11064000  0.18829200  1
  O  O0  1  0.53553900  0.89974100  0.69629200  1
  O  O1  1  0.76731600  0.95214100  0.84462500  1
  O  O2  1  0.95214100  0.76731600  0.34462500  1
  O  O3  1  0.23268400  0.04785900  0.15537500  1
  O  O4  1  0.33733800  0.33900400  0.60429800  1
  O  O5  1  0.66099600  0.66266200  0.89570200  1
  O  O6  1  0.66266200  0.66099600  0.39570200  1
  O  O7  1  0.33900400  0.33733800  0.10429800  1
  O  O8  1  0.10025900  0.46446100  0.80370800  1
  O  O9  1  0.04785900  0.23268400  0.65537500  1
  O  O10  1  0.78601400  0.99824500  0.27095200  1
  O  O11  1  0.00175500  0.21398600  0.22904800  1
  O  O12  1  0.21398600  0.00175500  0.72904800  1
  O  O13  1  0.99824500  0.78601400  0.77095200  1
  O  O14  1  0.71027300  0.22025000  0.46179800  1
  O  O15  1  0.77975000  0.28972700  0.03820200  1
  O  O16  1  0.28972700  0.77975000  0.53820200  1
  O  O17  1  0.89974100  0.53553900  0.19629200  1
  O  O18  1  0.48349800  0.82995800  0.11393300  1
  O  O19  1  0.17004200  0.51650200  0.38606700  1
  O  O20  1  0.51650200  0.17004200  0.88606700  1
  O  O21  1  0.82995800  0.48349800  0.61393300  1
  O  O22  1  0.46446100  0.10025900  0.30370800  1
  O  O23  1  0.22025000  0.71027300  0.96179800  1
loop_
_geom_bond_atom_site_label_1
_geom_bond_atom_site_label_2
_geom_bond_distance
_geom_bond_site_symmetry_2
Co0 O14 2.148637 1_555
Co0 O15 2.148637 1_556
Co0 O20 2.160125 1_555
Co0 O21 2.160125 1_555
Co0 O1 2.213095 1_545
Co0 O9 2.213095 1_655
Co1 O6 2.061709 1_555
Co1 O22 2.080790 1_565
Co1 O18 2.112173 1_555
Co1 O10 2.125249 1_555
Co1 O0 2.138469 1_555
Co1 O16 2.196976 1_555
Co2 O5 2.061709 1_555
Co2 O8 2.080790 1_655
Co2 O21 2.112173 1_555
Co2 O13 2.125249 1_555
Co2 O17 2.138469 1_556
Co2 O15 2.196976 1_556
Co3 O4 2.061709 1_555
Co3 O0 2.080790 1_545
Co3 O20 2.112173 1_555
Co3 O12 2.125249 1_555
Co3 O22 2.138469 1_555
Co3 O14 2.196976 1_555
Co4 O7 2.061709 1_555
Co4 O17 2.080790 1_455
Co4 O19 2.112173 1_555
Co4 O11 2.125249 1_555
Co4 O8 2.138469 1_554
Co4 O23 2.196976 1_554
Co5 O23 2.148637 1_554
Co5 O16 2.148637 1_555
Co5 O18 2.160125 1_555
Co5 O19 2.160125 1_555
Co5 O2 2.213095 1_455
Co5 O3 2.213095 1_565
Ag0 O7 2.405223 1_556
Ag0 O6 2.405223 1_555
Ag0 O4 2.557726 1_555
Ag0 O5 2.557726 1_555
Ag1 O5 2.405223 1_554
Ag1 O4 2.405223 1_555
Ag1 O7 2.557726 1_555
Ag1 O6 2.557726 1_555
H0 O9 1.082833 1_555
H0 O12 1.404933 1_555
H1 O1 1.082833 1_555
H1 O13 1.404933 1_555
H2 O2 1.082833 1_555
H2 O10 1.404933 1_555
H3 O3 1.082833 1_555
H3 O11 1.404933 1_555
O0 P3 1.536373 1_555
O1 P3 1.606637 1_555
O2 P4 1.606637 1_555
O3 P5 1.606637 1_555
O4 P2 1.548351 1_555
O5 P3 1.548351 1_555
O6 P4 1.548351 1_555
O7 P5 1.548351 1_555
O8 P2 1.536373 1_555
O9 P2 1.606637 1_555
O10 P1 1.553999 1_565
O11 P1 1.553999 1_455
O12 P0 1.553999 1_545
O13 P0 1.553999 1_655
O14 P1 1.570836 1_555
O15 P1 1.570836 1_555
O16 P0 1.570836 1_555
O17 P4 1.536373 1_555
O18 P3 1.542726 1_554
O19 P2 1.542726 1_555
O20 P5 1.542726 1_556
O21 P4 1.542726 1_555
O22 P5 1.536373 1_555
O23 P0 1.570836 1_555
