# generated using pymatgen
data_MgFe6(OF)6
_symmetry_space_group_name_H-M   'P 1'
_cell_length_a   5.12493483
_cell_length_b   14.69368706
_cell_length_c   3.14035077
_cell_angle_alpha   90.00000000
_cell_angle_beta   90.00000000
_cell_angle_gamma   92.08854455
_symmetry_Int_Tables_number   1
_chemical_formula_structural   MgFe6(OF)6
_chemical_formula_sum   'Mg1 Fe6 O6 F6'
_cell_volume   236.32447187
_cell_formula_units_Z   1
loop_
 _symmetry_equiv_pos_site_id
 _symmetry_equiv_pos_as_xyz
  1  'x, y, z'
loop_
 _atom_site_type_symbol
 _atom_site_label
 _atom_site_symmetry_multiplicity
 _atom_site_fract_x
 _atom_site_fract_y
 _atom_site_fract_z
 _atom_site_occupancy
  Mg  Mg0  1  0.50343451  0.33658421  0.50000000  1
  Fe  Fe0  1  0.02814279  0.98556293  -0.00000000  1
  Fe  Fe1  1  0.02272773  0.35803698  -0.00000000  1
  Fe  Fe2  1  0.01614195  0.66807643  0.00000000  1
  Fe  Fe3  1  0.48126489  0.05471650  0.50000000  1
  Fe  Fe4  1  0.45181507  0.52424431  0.50000000  1
  Fe  Fe5  1  0.46787443  0.81962368  0.50000000  1
  O  O0  1  0.15337441  0.61115315  0.50000000  1
  O  O1  1  0.26247638  0.93735528  0.50000000  1
  O  O2  1  0.30919432  0.08967144  -0.00000000  1
  O  O3  1  0.29455117  0.77058324  0.00000000  1
  O  O4  1  0.36751460  0.42434125  0.00000000  1
  O  O5  1  0.83973673  0.03564433  0.50000000  1
  F  F0  1  0.16285361  0.27407188  0.50000000  1
  F  F1  1  0.67558011  0.27485759  -0.00000000  1
  F  F2  1  0.67946203  0.59137721  -0.00000000  1
  F  F3  1  0.71223437  0.88558436  0.00000000  1
  F  F4  1  0.81729155  0.42321468  0.50000000  1
  F  F5  1  0.79599836  0.74085355  0.50000000  1
loop_
_geom_bond_atom_site_label_1
_geom_bond_atom_site_label_2
_geom_bond_distance
_geom_bond_site_symmetry_2
Mg0 O4 2.163074 1_555
Mg0 O4 2.163074 1_556
Fe0 O5 1.997770 1_464
Fe0 O5 1.997770 1_465
Fe0 O2 2.062563 1_565
Fe0 O1 2.114587 1_554
Fe0 O1 2.114587 1_555
Fe1 O4 1.986459 1_555
Fe2 O0 1.924202 1_555
Fe2 O0 1.924202 1_554
Fe2 O3 2.036626 1_555
Fe3 O5 1.868465 1_555
Fe3 O2 1.881469 1_555
Fe3 O2 1.881469 1_556
Fe3 O1 2.022404 1_545
Fe4 O0 2.027919 1_555
Fe4 O4 2.181912 1_555
Fe4 O4 2.181912 1_556
Fe5 O3 1.930561 1_556
Fe5 O3 1.930561 1_555
Fe5 O1 2.057522 1_555
F0 Mg0 1.942541 1_555
F0 Fe1 2.137266 1_555
F0 Fe1 2.137266 1_556
F1 Mg0 2.030947 1_554
F1 Mg0 2.030947 1_555
F1 Fe1 2.121448 1_655
F2 Fe2 2.026228 1_655
F2 Fe4 2.171577 1_555
F2 Fe4 2.171577 1_554
F3 Fe0 2.146149 1_655
F3 Fe5 2.210129 1_555
F3 Fe5 2.210129 1_554
F4 Mg0 2.014535 1_555
F4 Fe1 2.136498 1_655
F4 Fe1 2.136498 1_656
F4 Fe4 2.432014 1_555
F5 Fe5 2.075890 1_555
F5 Fe2 2.229308 1_655
F5 Fe2 2.229308 1_656
