# generated using pymatgen
data_ZrI2
_symmetry_space_group_name_H-M   'P 1'
_cell_length_a   9.19579257
_cell_length_b   9.19579257
_cell_length_c   9.19579243
_cell_angle_alpha   107.02303189
_cell_angle_beta   107.02303187
_cell_angle_gamma   107.02303108
_symmetry_Int_Tables_number   1
_chemical_formula_structural   ZrI2
_chemical_formula_sum   'Zr6 I12'
_cell_volume   647.20217517
_cell_formula_units_Z   6
loop_
 _symmetry_equiv_pos_site_id
 _symmetry_equiv_pos_as_xyz
  1  'x, y, z'
loop_
 _atom_site_type_symbol
 _atom_site_label
 _atom_site_symmetry_multiplicity
 _atom_site_fract_x
 _atom_site_fract_y
 _atom_site_fract_z
 _atom_site_occupancy
  Zr  Zr0  1  0.96858812  0.90819280  0.72858375  1
  Zr  Zr1  1  0.72858375  0.96858812  0.90819280  1
  Zr  Zr2  1  0.90819280  0.72858375  0.96858812  1
  Zr  Zr3  1  0.03141188  0.09180720  0.27141625  1
  Zr  Zr4  1  0.27141625  0.03141188  0.09180720  1
  Zr  Zr5  1  0.09180720  0.27141625  0.03141188  1
  I  I0  1  0.44683344  0.37221028  0.14464370  1
  I  I1  1  0.37221028  0.14464370  0.44683344  1
  I  I2  1  0.14464370  0.44683344  0.37221028  1
  I  I3  1  0.55316656  0.62778972  0.85535630  1
  I  I4  1  0.62778972  0.85535630  0.55316656  1
  I  I5  1  0.85535630  0.55316656  0.62778972  1
  I  I6  1  0.07654338  0.22482135  0.69338932  1
  I  I7  1  0.69338932  0.07654338  0.22482135  1
  I  I8  1  0.22482135  0.69338932  0.07654338  1
  I  I9  1  0.92345662  0.77517865  0.30661068  1
  I  I10  1  0.30661068  0.92345662  0.77517865  1
  I  I11  1  0.77517865  0.30661068  0.92345662  1
loop_
_geom_bond_atom_site_label_1
_geom_bond_atom_site_label_2
_geom_bond_distance
_geom_bond_site_symmetry_2
I0 Zr5 2.876564 1_555
I0 Zr4 2.889492 1_555
I1 Zr4 2.876564 1_555
I1 Zr3 2.889492 1_555
I2 Zr3 2.876564 1_555
I2 Zr5 2.889492 1_555
I3 Zr2 2.876564 1_555
I3 Zr1 2.889492 1_555
I4 Zr1 2.876564 1_555
I4 Zr0 2.889492 1_555
I5 Zr0 2.876564 1_555
I5 Zr2 2.889492 1_555
I6 Zr0 2.935203 1_445
I6 Zr5 2.965612 1_556
I6 Zr3 3.564618 1_555
I7 Zr1 2.935203 1_544
I7 Zr3 2.965612 1_655
I7 Zr4 3.564618 1_555
I8 Zr2 2.935203 1_454
I8 Zr4 2.965612 1_565
I8 Zr5 3.564618 1_555
I9 Zr3 2.935203 1_665
I9 Zr2 2.965612 1_554
I9 Zr0 3.564618 1_555
I10 Zr4 2.935203 1_566
I10 Zr0 2.965612 1_455
I10 Zr1 3.564618 1_555
I11 Zr5 2.935203 1_656
I11 Zr1 2.965612 1_545
I11 Zr2 3.564618 1_555
