# generated using pymatgen
data_Na5Ti3ZnSiP5O24
_symmetry_space_group_name_H-M   'P 1'
_cell_length_a   8.85131142
_cell_length_b   8.80082935
_cell_length_c   22.04508357
_cell_angle_alpha   90.01684390
_cell_angle_beta   90.33771621
_cell_angle_gamma   119.83735315
_symmetry_Int_Tables_number   1
_chemical_formula_structural   Na5Ti3ZnSiP5O24
_chemical_formula_sum   'Na15 Ti9 Zn3 Si3 P15 O72'
_cell_volume   1489.60974443
_cell_formula_units_Z   3
loop_
 _symmetry_equiv_pos_site_id
 _symmetry_equiv_pos_as_xyz
  1  'x, y, z'
loop_
 _atom_site_type_symbol
 _atom_site_label
 _atom_site_symmetry_multiplicity
 _atom_site_fract_x
 _atom_site_fract_y
 _atom_site_fract_z
 _atom_site_occupancy
  Na  Na0  1  0.64057879  0.01100375  0.24570075  1
  Na  Na1  1  0.37131302  0.36045420  0.24527285  1
  Na  Na2  1  0.98922167  0.63066248  0.24580924  1
  Na  Na3  1  0.63260263  0.62586980  0.74683113  1
  Na  Na4  1  0.99246278  0.36690782  0.74686547  1
  Na  Na5  1  0.37801135  0.00935216  0.74598836  1
  Na  Na6  1  0.66334181  0.97219399  0.58436500  1
  Na  Na7  1  0.33360669  0.29986572  0.92069984  1
  Na  Na8  1  0.32646852  0.03365385  0.41346817  1
  Na  Na9  1  0.99707490  0.00011661  0.49422845  1
  Na  Na10  1  0.99094052  0.99171870  0.00263343  1
  Na  Na11  1  0.67476247  0.33382197  0.83667149  1
  Na  Na12  1  0.67766517  0.34303271  0.33224809  1
  Na  Na13  1  0.33343799  0.66767368  0.16011101  1
  Na  Na14  1  0.32415278  0.66005306  0.66240287  1
  Ti  Ti0  1  0.99012302  0.99503749  0.85837173  1
  Ti  Ti1  1  0.01143496  0.00101640  0.64250255  1
  Ti  Ti2  1  0.99909818  0.00183696  0.14414179  1
  Ti  Ti3  1  0.67939918  0.33962573  0.98192052  1
  Ti  Ti4  1  0.66450872  0.33528521  0.48198174  1
  Ti  Ti5  1  0.33746275  0.66286566  0.01949510  1
  Ti  Ti6  1  0.32837643  0.66508565  0.51934586  1
  Ti  Ti7  1  0.33249676  0.66472890  0.31524239  1
  Ti  Ti8  1  0.33037409  0.66297795  0.81903127  1
  Zn  Zn0  1  0.99214103  0.99883416  0.35197532  1
  Zn  Zn1  1  0.66573383  0.33099555  0.67756777  1
  Zn  Zn2  1  0.66718231  0.33463314  0.17660328  1
  Si  Si0  1  0.37450855  0.04107190  0.58383892  1
  Si  Si1  1  0.62491050  0.66627266  0.91818965  1
  Si  Si2  1  0.03951675  0.37790791  0.91741565  1
  P  P0  1  0.29019381  -0.00077660  0.25195781  1
  P  P1  1  0.70973988  0.71012319  0.25073918  1
  P  P2  1  0.00057307  0.29098580  0.25089002  1
  P  P3  1  0.28604975  0.28887230  0.75155206  1
  P  P4  1  0.00279910  0.71500629  0.75065396  1
  P  P5  1  0.71098951  0.99722555  0.74999009  1
  P  P6  1  0.96187608  0.33721976  0.58437340  1
  P  P7  1  0.66527695  0.62542558  0.58443982  1
  P  P8  1  0.96469031  0.62920528  0.08489299  1
  P  P9  1  0.66450152  0.03858669  0.08462658  1
  P  P10  1  0.37234519  0.33220231  0.08360461  1
  P  P11  1  0.33373588  0.95496501  0.91745598  1
  P  P12  1  0.62484737  0.95688709  0.41848468  1
  P  P13  1  0.33701888  0.37962520  0.41782594  1
  P  P14  1  0.03954817  0.66014605  0.41705830  1
  O  O0  1  0.21744347  0.03180594  0.31030565  1
  O  O1  1  0.82271270  0.78545921  0.30706141  1
  O  O2  1  0.96664180  0.17944627  0.30707906  1
  O  O3  1  0.19949027  0.17648931  0.80793914  1
  O  O4  1  0.97885059  0.80775737  0.80582189  1
  O  O5  1  0.83131700  0.01970301  0.80506819  1
  O  O6  1  0.79225088  0.96732086  0.69231736  1
  O  O7  1  0.16638383  0.19681526  0.69512671  1
  O  O8  1  0.02941972  0.83227044  0.69379938  1
  O  O9  1  0.79644393  0.83306588  0.19486933  1
  O  O10  1  0.03487928  0.20298405  0.19471105  1
  O  O11  1  0.16555564  0.96565254  0.19671711  1
  O  O12  1  0.89869272  0.37399779  0.64410420  1
  O  O13  1  0.48966854  0.10275852  0.64520183  1
  O  O14  1  0.63282809  0.52571105  0.64389413  1
  O  O15  1  0.89593426  0.52754343  0.14353398  1
  O  O16  1  0.63425604  0.10701789  0.14404941  1
  O  O17  1  0.47404235  0.36511915  0.14264675  1
  O  O18  1  0.46018270  0.30550881  0.02685903  1
  O  O19  1  0.83854206  0.53170787  0.02972889  1
  O  O20  1  0.69220551  0.16292566  0.02993859  1
  O  O21  1  0.47112608  0.16693907  0.52442599  1
  O  O22  1  0.69507834  0.53121463  0.52995730  1
  O  O23  1  0.83292751  0.30336905  0.53062499  1
  O  O24  1  0.52901310  0.69935443  0.97440480  1
  O  O25  1  0.17503490  0.47151786  0.97269491  1
  O  O26  1  0.30234242  0.83636439  0.97146966  1
  O  O27  1  0.52796277  0.84552348  0.47438364  1
  O  O28  1  0.31993070  0.47886046  0.47190760  1
  O  O29  1  0.16217033  0.68357350  0.47131628  1
  O  O30  1  0.13067415  0.63694621  0.35896592  1
  O  O31  1  0.50338381  0.86669389  0.36096827  1
  O  O32  1  0.35927421  0.49164561  0.35928852  1
  O  O33  1  0.12971168  0.49728861  0.85540975  1
  O  O34  1  0.36012003  0.86922814  0.85827958  1
  O  O35  1  0.49934758  0.63242429  0.85689818  1
  O  O36  1  0.03320559  0.82992190  0.41497827  1
  O  O37  1  0.80254414  0.97328390  0.41562856  1
  O  O38  1  0.17968486  0.19559080  0.41559277  1
  O  O39  1  0.03219967  0.18890359  0.90842653  1
  O  O40  1  0.17169555  0.97860343  0.90887608  1
  O  O41  1  0.81698294  0.83772751  0.90958640  1
  O  O42  1  0.96802893  0.16229136  0.58836635  1
  O  O43  1  0.18064579  0.02352328  0.58894667  1
  O  O44  1  0.82904636  0.81364432  0.58816583  1
  O  O45  1  0.97566893  0.81202409  0.08877340  1
  O  O46  1  0.83377652  0.02331924  0.08855604  1
  O  O47  1  0.18695648  0.16432537  0.08882410  1
  O  O48  1  0.69510428  0.16347900  0.75051563  1
  O  O49  1  0.46961244  0.31216441  0.74821478  1
  O  O50  1  0.84095439  0.53202823  0.74744809  1
  O  O51  1  0.67865152  0.52289318  0.24377192  1
  O  O52  1  0.84539599  0.32195297  0.24410270  1
  O  O53  1  0.47511541  0.15532400  0.24497616  1
  O  O54  1  0.63194320  0.48558591  0.92432966  1
  O  O55  1  0.84701458  0.35431352  0.92422537  1
  O  O56  1  0.49405368  0.13967366  0.92245099  1
  O  O57  1  0.62988418  0.13724056  0.42229392  1
  O  O58  1  0.50721530  0.36699756  0.42211966  1
  O  O59  1  0.86155391  0.49328502  0.42336321  1
  O  O60  1  0.34891372  0.49571804  0.07549943  1
  O  O61  1  0.14663099  0.65250739  0.07342141  1
  O  O62  1  0.50339024  0.85542583  0.07443969  1
  O  O63  1  0.35207373  0.84646927  0.57228238  1
  O  O64  1  0.50725283  0.65349618  0.57412325  1
  O  O65  1  0.14573077  0.49216915  0.57306690  1
  O  O66  1  0.30312705  0.82547636  0.25584653  1
  O  O67  1  0.52446899  0.69777805  0.25621690  1
  O  O68  1  0.17373258  0.47633467  0.25563831  1
  O  O69  1  0.29910728  0.47354789  0.75337257  1
  O  O70  1  0.17219585  0.70176349  0.75359207  1
  O  O71  1  0.52684177  0.83032471  0.75540086  1
loop_
_geom_bond_atom_site_label_1
_geom_bond_atom_site_label_2
_geom_bond_distance
_geom_bond_site_symmetry_2
Na0 O53 2.368386 1_555
Na0 O16 2.405316 1_555
Na0 O52 2.416797 1_555
Na0 O67 2.427573 1_545
Na0 O66 2.606275 1_545
Na0 O9 2.788983 1_545
Na0 O31 2.836962 1_545
Na0 O2 2.837844 1_555
Na1 O51 2.361433 1_555
Na1 O53 2.398746 1_555
Na1 O68 2.435181 1_555
Na1 O17 2.436003 1_555
Na1 O67 2.588498 1_555
Na1 O32 2.790327 1_555
Na1 O10 2.807871 1_555
Na1 O0 2.895114 1_555
Na2 O52 2.358233 1_555
Na2 O15 2.412492 1_555
Na2 O51 2.421242 1_555
Na2 O66 2.441451 1_655
Na2 O68 2.600420 1_655
Na2 O30 2.772658 1_655
Na2 O11 2.782456 1_655
Na2 O1 2.805673 1_555
Na3 O50 2.366134 1_555
Na3 O49 2.396198 1_555
Na3 O71 2.414081 1_555
Na3 O14 2.434575 1_555
Na3 O69 2.568829 1_555
Na3 O35 2.717253 1_555
Na3 O6 2.875417 1_555
Na3 O4 2.952340 1_555
Na4 O48 2.335135 1_555
Na4 O69 2.393500 1_655
Na4 O50 2.418628 1_555
Na4 O12 2.419540 1_555
Na4 O70 2.563091 1_655
Na4 O33 2.663701 1_655
Na4 O7 2.867833 1_655
Na4 O5 2.950401 1_555
Na5 O49 2.368827 1_555
Na5 O70 2.402393 1_545
Na5 O13 2.409907 1_555
Na5 O48 2.436316 1_555
Na5 O71 2.514615 1_545
Na5 O34 2.736040 1_545
Na5 O8 2.906008 1_545
Na5 O3 2.977051 1_555
Na6 O42 2.363750 1_565
Na6 O63 2.417369 1_555
Na6 O64 2.442668 1_555
Na6 O44 2.477989 1_555
Na6 O6 2.642732 1_555
Na6 O27 2.681788 1_555
Na6 O13 2.695045 1_565
Na6 O23 2.796640 1_565
Na7 O54 2.313789 1_555
Na7 O39 2.354385 1_555
Na7 O56 2.449016 1_555
Na7 O40 2.465554 1_545
Na7 O18 2.578427 1_556
Na7 O3 2.729195 1_555
Na7 O25 2.773784 1_555
Na7 O35 2.907017 1_555
Na8 O36 2.307315 1_545
Na8 O38 2.358924 1_555
Na8 O57 2.374655 1_555
Na8 O0 2.462136 1_555
Na8 O58 2.555031 1_555
Na8 O21 2.732314 1_555
Na8 O31 2.874149 1_545
Na8 O29 2.966374 1_545
Na9 O37 2.362818 1_545
Na9 O38 2.417654 1_655
Na9 O36 2.424836 1_645
Na9 O43 2.582494 1_655
Na9 O42 2.603780 1_555
Na9 O44 2.608297 1_545
Na10 O45 2.432576 1_555
Na10 O46 2.452782 1_565
Na10 O47 2.502986 1_665
Na10 O41 2.509927 1_554
Na10 O39 2.615045 1_664
Na10 O40 2.658514 1_654
Na11 O55 2.402917 1_555
Na11 O48 2.481581 1_555
Na11 O54 2.484500 1_555
Na11 O56 2.524260 1_555
Na11 O50 2.560924 1_555
Na11 O49 2.598057 1_555
Na12 O59 2.500133 1_555
Na12 O51 2.509640 1_555
Na12 O52 2.514430 1_555
Na12 O58 2.568571 1_555
Na12 O57 2.578643 1_555
Na12 O53 2.579744 1_555
Na13 O60 2.448645 1_555
Na13 O62 2.474284 1_555
Na13 O61 2.479323 1_555
Na13 O66 2.613551 1_555
Na13 O67 2.632421 1_555
Na13 O68 2.633865 1_555
Na14 O65 2.489070 1_555
Na14 O63 2.510772 1_555
Na14 O69 2.531837 1_555
Na14 O70 2.551034 1_555
Na14 O64 2.558813 1_555
Na14 O71 2.635711 1_555
O0 P0 1.531240 1_555
O0 Zn0 2.085879 1_445
O1 P1 1.518651 1_555
O1 Zn0 1.983645 1_555
O2 P2 1.516544 1_655
O2 Zn0 1.977990 1_545
O3 P3 1.538942 1_555
O3 Ti0 2.073890 1_445
O4 P4 1.537853 1_655
O4 Ti0 1.975475 1_555
O5 P5 1.556510 1_545
O5 Ti0 1.920436 1_545
O6 P5 1.549848 1_555
O6 Ti1 2.123816 1_665
O7 P3 1.567017 1_555
O7 Ti1 1.955655 1_555
O8 P4 1.566453 1_555
O8 Ti1 1.934889 1_565
O9 P1 1.569173 1_555
O9 Ti2 2.011903 1_565
O10 P2 1.569629 1_555
O10 Ti2 1.978306 1_455
O11 P0 1.564282 1_565
O11 Ti2 2.015575 1_465
O12 P6 1.529698 1_555
O12 Zn1 2.044704 1_555
O13 Si0 1.611313 1_555
O13 Zn1 1.960517 1_555
O14 P7 1.524728 1_555
O14 Zn1 2.016775 1_555
O15 P8 1.519933 1_555
O15 Zn2 2.027559 1_555
O16 P9 1.521359 1_555
O16 Zn2 2.007120 1_555
O17 P10 1.521451 1_555
O17 Zn2 1.999083 1_555
O18 P10 1.554865 1_555
O18 Ti3 2.068733 1_554
O19 P8 1.578577 1_555
O19 Ti3 1.888029 1_554
O20 P9 1.564708 1_555
O20 Ti3 1.930472 1_554
O21 Si0 1.656896 1_555
O21 Ti4 1.869933 1_555
O22 P7 1.555764 1_555
O22 Ti4 1.922606 1_555
O23 P6 1.562344 1_555
O23 Ti4 1.961910 1_555
O24 Si1 1.612187 1_555
O24 Ti5 1.855826 1_556
O25 Si2 1.612902 1_555
O25 Ti5 1.881390 1_556
O26 P11 1.516763 1_555
O26 Ti5 2.004608 1_556
O27 P12 1.546402 1_555
O27 Ti6 1.963442 1_555
O28 P13 1.529708 1_555
O28 Ti6 1.913507 1_555
O29 P14 1.553419 1_555
O29 Ti6 1.879296 1_555
O30 P14 1.583741 1_555
O30 Ti7 1.940584 1_555
O31 P12 1.589903 1_555
O31 Ti7 1.941400 1_555
O32 P13 1.576876 1_555
O32 Ti7 1.917501 1_555
O33 Si2 1.669957 1_555
O33 Ti8 1.834230 1_555
O34 P11 1.582435 1_555
O34 Ti8 1.906207 1_555
O35 Si1 1.673986 1_555
O35 Ti8 1.841657 1_555
O36 P14 1.523573 1_555
O36 Zn0 2.191801 1_455
O37 P12 1.507966 1_555
O37 Zn0 2.118580 1_555
O38 P13 1.523079 1_555
O38 Zn0 2.198131 1_445
O39 Si2 1.644020 1_555
O39 Ti0 1.905028 1_445
O40 P11 1.558821 1_555
O40 Ti0 2.013398 1_455
O41 Si1 1.629248 1_555
O41 Ti0 1.857443 1_555
O42 P6 1.569801 1_555
O42 Ti1 2.030933 1_655
O43 Si0 1.649108 1_555
O43 Ti1 1.844491 1_555
O44 P7 1.568783 1_555
O44 Ti1 2.021723 1_665
O45 P8 1.565166 1_555
O45 Ti2 1.993633 1_565
O46 P9 1.571396 1_555
O46 Ti2 1.983157 1_555
O47 P10 1.574366 1_555
O47 Ti2 1.988918 1_455
O48 P5 1.538015 1_545
O48 Zn1 2.281461 1_555
O49 P3 1.535353 1_555
O49 Zn1 2.283029 1_555
O50 P4 1.534147 1_655
O50 Zn1 2.269050 1_555
O51 P1 1.537091 1_555
O51 Zn2 2.185736 1_555
O52 P2 1.534053 1_655
O52 Zn2 2.205120 1_555
O53 P0 1.534818 1_555
O53 Zn2 2.239282 1_555
O54 Si1 1.627710 1_555
O54 Ti3 1.992494 1_555
O55 Si2 1.618604 1_655
O55 Ti3 1.914954 1_555
O56 P11 1.539788 1_545
O56 Ti3 2.146486 1_555
O57 P12 1.567768 1_545
O57 Ti4 2.079801 1_555
O58 P13 1.567053 1_555
O58 Ti4 2.030516 1_555
O59 P14 1.535730 1_655
O59 Ti4 2.063910 1_555
O60 P10 1.562877 1_555
O60 Ti5 1.961242 1_555
O61 P8 1.541311 1_455
O61 Ti5 2.035973 1_555
O62 P9 1.546306 1_565
O62 Ti5 1.999312 1_555
O63 Si0 1.642645 1_565
O63 Ti6 1.901829 1_555
O64 P7 1.552193 1_555
O64 Ti6 2.028219 1_555
O65 P6 1.538424 1_455
O65 Ti6 1.976740 1_555
O66 P0 1.591478 1_565
O66 Ti7 2.036300 1_555
O67 P1 1.593950 1_555
O67 Ti7 2.049285 1_555
O68 P2 1.590954 1_555
O68 Ti7 2.027021 1_555
O69 P3 1.571480 1_555
O69 Ti8 2.117974 1_555
O70 P4 1.561627 1_555
O70 Ti8 2.147074 1_555
O71 P5 1.564777 1_555
O71 Ti8 2.154597 1_555
