# generated using pymatgen
data_Li3BrO
_symmetry_space_group_name_H-M   'P 1'
_cell_length_a   3.94864300
_cell_length_b   3.94864300
_cell_length_c   3.94864300
_cell_angle_alpha   90.00000000
_cell_angle_beta   90.00000000
_cell_angle_gamma   90.00000000
_symmetry_Int_Tables_number   1
_chemical_formula_structural   Li3BrO
_chemical_formula_sum   'Li3 Br1 O1'
_cell_volume   61.56637904
_cell_formula_units_Z   1
loop_
 _symmetry_equiv_pos_site_id
 _symmetry_equiv_pos_as_xyz
  1  'x, y, z'
loop_
 _atom_site_type_symbol
 _atom_site_label
 _atom_site_symmetry_multiplicity
 _atom_site_fract_x
 _atom_site_fract_y
 _atom_site_fract_z
 _atom_site_occupancy
  Li  Li0  1  0.50000000  0.00000000  0.00000000  1
  Li  Li1  1  0.00000000  0.00000000  0.50000000  1
  Li  Li2  1  0.00000000  0.50000000  0.00000000  1
  Br  Br0  1  0.50000000  0.50000000  0.50000000  1
  O  O0  1  0.00000000  0.00000000  0.00000000  1
loop_
_geom_bond_atom_site_label_1
_geom_bond_atom_site_label_2
_geom_bond_distance
_geom_bond_site_symmetry_2
Li0 O0 1.974322 1_555
Li0 O0 1.974322 1_655
Li1 O0 1.974322 1_555
Li1 O0 1.974322 1_556
Li2 O0 1.974322 1_565
Li2 O0 1.974322 1_555
Br0 Li2 2.792112 1_656
Br0 Li1 2.792112 1_655
Br0 Li1 2.792112 1_665
Br0 Li0 2.792112 1_556
Br0 Li2 2.792112 1_655
Br0 Li2 2.792112 1_556
Br0 Li2 2.792112 1_555
Br0 Li0 2.792112 1_565
Br0 Li0 2.792112 1_555
Br0 Li1 2.792112 1_555
Br0 Li0 2.792112 1_566
Br0 Li1 2.792112 1_565
