# generated using pymatgen
data_NaPt2
_symmetry_space_group_name_H-M   'P 1'
_cell_length_a   5.30662623
_cell_length_b   5.30662668
_cell_length_c   5.30662621
_cell_angle_alpha   60.00000288
_cell_angle_beta   60.00000008
_cell_angle_gamma   59.99999922
_symmetry_Int_Tables_number   1
_chemical_formula_structural   NaPt2
_chemical_formula_sum   'Na2 Pt4'
_cell_volume   105.66728357
_cell_formula_units_Z   2
loop_
 _symmetry_equiv_pos_site_id
 _symmetry_equiv_pos_as_xyz
  1  'x, y, z'
loop_
 _atom_site_type_symbol
 _atom_site_label
 _atom_site_symmetry_multiplicity
 _atom_site_fract_x
 _atom_site_fract_y
 _atom_site_fract_z
 _atom_site_occupancy
  Na  Na0  1  0.87500000  0.87500000  0.87500000  1
  Na  Na1  1  0.12500000  0.12500000  0.12500000  1
  Pt  Pt0  1  0.50000000  0.50000000  0.50000000  1
  Pt  Pt1  1  0.50000000  0.50000000  -0.00000000  1
  Pt  Pt2  1  -0.00000000  0.50000000  0.50000000  1
  Pt  Pt3  1  0.50000000  0.00000000  0.50000000  1
loop_
_geom_bond_atom_site_label_1
_geom_bond_atom_site_label_2
_geom_bond_distance
_geom_bond_site_symmetry_2
Na0 Pt3 3.111285 1_566
Na0 Pt3 3.111285 1_565
Na0 Pt0 3.111285 1_655
Na0 Pt1 3.111285 1_656
Na0 Pt3 3.111285 1_665
Na0 Pt2 3.111285 1_656
Na0 Pt2 3.111285 1_655
Na0 Pt0 3.111286 1_556
Na0 Pt1 3.111286 1_556
Na0 Pt0 3.111286 1_565
Na0 Pt1 3.111286 1_566
Na0 Pt2 3.111286 1_665
Na1 Pt3 3.111285 1_554
Na1 Pt3 3.111285 1_555
Na1 Pt0 3.111285 1_455
Na1 Pt1 3.111285 1_455
Na1 Pt3 3.111285 1_455
Na1 Pt2 3.111285 1_554
Na1 Pt2 3.111285 1_555
Na1 Pt0 3.111286 1_554
Na1 Pt1 3.111286 1_555
Na1 Pt0 3.111286 1_545
Na1 Pt1 3.111286 1_545
Na1 Pt2 3.111286 1_545
Pt0 Pt1 2.653313 1_555
Pt0 Pt1 2.653313 1_556
Pt0 Pt2 2.653313 1_655
Pt0 Pt2 2.653313 1_555
Pt0 Pt3 2.653313 1_555
Pt0 Pt3 2.653313 1_565
Pt1 Pt2 2.653313 1_654
Pt1 Pt2 2.653313 1_555
Pt1 Pt3 2.653313 1_564
Pt1 Pt3 2.653313 1_555
Pt2 Pt3 2.653313 1_555
Pt2 Pt3 2.653313 1_465
