# generated using pymatgen
data_YH3(CO2)3
_symmetry_space_group_name_H-M   'P 1'
_cell_length_a   6.20746637
_cell_length_b   6.20746637
_cell_length_c   6.20746719
_cell_angle_alpha   115.52885614
_cell_angle_beta   115.52885614
_cell_angle_gamma   115.52885743
_symmetry_Int_Tables_number   1
_chemical_formula_structural   YH3(CO2)3
_chemical_formula_sum   'Y1 H3 C3 O6'
_cell_volume   127.18037134
_cell_formula_units_Z   1
loop_
 _symmetry_equiv_pos_site_id
 _symmetry_equiv_pos_as_xyz
  1  'x, y, z'
loop_
 _atom_site_type_symbol
 _atom_site_label
 _atom_site_symmetry_multiplicity
 _atom_site_fract_x
 _atom_site_fract_y
 _atom_site_fract_z
 _atom_site_occupancy
  Y  Y0  1  0.00080400  0.00080400  0.00080400  1
  H  H0  1  0.36690600  0.36690600  0.85078700  1
  H  H1  1  0.85078700  0.36690600  0.36690600  1
  H  H2  1  0.36690600  0.85078700  0.36690600  1
  C  C0  1  0.61173800  0.15048100  0.61173800  1
  C  C1  1  0.15048100  0.61173800  0.61173800  1
  C  C2  1  0.61173800  0.61173800  0.15048100  1
  O  O0  1  0.59214000  0.33957800  0.59214000  1
  O  O1  1  0.28427700  0.88910400  0.88910400  1
  O  O2  1  0.88910400  0.88910400  0.28427700  1
  O  O3  1  0.88910400  0.28427700  0.88910400  1
  O  O4  1  0.33957800  0.59214000  0.59214000  1
  O  O5  1  0.59214000  0.59214000  0.33957800  1
loop_
_geom_bond_atom_site_label_1
_geom_bond_atom_site_label_2
_geom_bond_distance
_geom_bond_site_symmetry_2
C0 H2 1.102547 1_545
C0 O3 1.264280 1_555
C0 O0 1.280955 1_555
C1 H1 1.102547 1_455
C1 O1 1.264280 1_555
C1 O4 1.280955 1_555
C2 H0 1.102547 1_554
C2 O2 1.264280 1_555
C2 O5 1.280955 1_555
O0 Y0 2.494317 1_666
O0 Y0 2.539648 1_555
O1 Y0 2.397246 1_566
O2 Y0 2.397246 1_665
O3 Y0 2.397246 1_656
O4 Y0 2.494317 1_666
O4 Y0 2.539648 1_555
O5 Y0 2.494318 1_666
O5 Y0 2.539647 1_555
