# generated using pymatgen
data_MgTi2Nb2(CuO4)3
_symmetry_space_group_name_H-M   'P 1'
_cell_length_a   6.99024233
_cell_length_b   6.59189707
_cell_length_c   6.60831568
_cell_angle_alpha   108.65629945
_cell_angle_beta   111.16010126
_cell_angle_gamma   110.06190493
_symmetry_Int_Tables_number   1
_chemical_formula_structural   MgTi2Nb2(CuO4)3
_chemical_formula_sum   'Mg1 Ti2 Nb2 Cu3 O12'
_cell_volume   229.99077245
_cell_formula_units_Z   1
loop_
 _symmetry_equiv_pos_site_id
 _symmetry_equiv_pos_as_xyz
  1  'x, y, z'
loop_
 _atom_site_type_symbol
 _atom_site_label
 _atom_site_symmetry_multiplicity
 _atom_site_fract_x
 _atom_site_fract_y
 _atom_site_fract_z
 _atom_site_occupancy
  Mg  Mg0  1  0.71083914  0.53717915  0.12429877  1
  Ti  Ti0  1  0.55391181  0.99869187  0.01146547  1
  Ti  Ti1  1  0.02569581  0.53323252  0.99373041  1
  Nb  Nb0  1  0.04393066  0.02716949  0.56046814  1
  Nb  Nb1  1  0.49855872  0.47665058  0.48378295  1
  Cu  Cu0  1  0.35154344  0.51544275  0.91416091  1
  Cu  Cu1  1  0.51712256  0.99920314  0.50966025  1
  Cu  Cu2  1  0.01776702  0.50760183  0.50790789  1
  O  O0  1  0.82317865  0.30362630  0.13968626  1
  O  O1  1  0.49512084  0.17785600  0.31502256  1
  O  O2  1  0.89590968  0.18726827  0.70095310  1
  O  O3  1  0.30301578  0.49631956  0.20302175  1
  O  O4  1  0.68878304  0.85692605  0.17570260  1
  O  O5  1  0.80914719  0.68501983  0.49502236  1
  O  O6  1  0.21038160  0.31738964  0.51753065  1
  O  O7  1  0.34191254  0.15071699  0.84600712  1
  O  O8  1  0.72638878  0.50681684  0.81797926  1
  O  O9  1  0.09835904  0.79914349  0.30820648  1
  O  O10  1  0.52115699  0.82534447  0.70497207  1
  O  O11  1  0.18727674  0.70840123  0.87875299  1
loop_
_geom_bond_atom_site_label_1
_geom_bond_atom_site_label_2
_geom_bond_distance
_geom_bond_site_symmetry_2
Mg0 O0 1.967027 1_555
Mg0 O8 2.015950 1_554
Mg0 O5 2.054608 1_555
Mg0 O4 2.093899 1_555
Mg0 O9 2.206395 1_655
Mg0 O7 2.365145 1_554
Nb0 O7 1.891544 1_555
Nb0 O2 1.965220 1_455
Nb0 O6 2.037831 1_555
Nb0 O5 2.071574 1_445
Nb0 O9 2.104812 1_545
Nb0 O4 2.365053 1_445
Nb1 O1 1.914829 1_555
Nb1 O3 1.942198 1_555
Nb1 O6 2.057430 1_555
Nb1 O5 2.092406 1_555
Nb1 O8 2.101371 1_555
Nb1 O10 2.208962 1_555
Cu0 O11 1.997405 1_555
Cu0 O3 2.089712 1_556
Cu0 O4 2.130799 1_556
Cu0 O6 2.146570 1_555
Cu0 O7 2.272007 1_555
Cu0 Mg0 2.316185 1_556
Cu1 O10 1.980496 1_555
Cu1 O1 2.003863 1_565
Cu1 O2 2.115337 1_565
Cu1 O9 2.344171 1_555
Cu2 O0 1.960001 1_455
Cu2 O11 1.978389 1_555
Cu2 O6 2.129906 1_555
Cu2 O5 2.155423 1_455
O0 Ti0 1.861302 1_545
O0 Ti1 2.382206 1_654
O1 Ti0 2.236111 1_545
O2 Ti1 2.063419 1_655
O3 Ti1 2.081653 1_554
O4 Ti0 1.858685 1_555
O7 Ti0 2.223961 1_546
O8 Ti1 1.903416 1_655
O9 Ti1 1.986405 1_554
O10 Ti0 1.861562 1_556
O11 Ti1 1.863457 1_555
O11 Ti0 2.222195 1_556
