# generated using pymatgen
data_Na5In3Sn(PO4)6
_symmetry_space_group_name_H-M   'P 1'
_cell_length_a   9.05434076
_cell_length_b   9.05344378
_cell_length_c   22.70285746
_cell_angle_alpha   89.93372872
_cell_angle_beta   90.04268774
_cell_angle_gamma   119.99403746
_symmetry_Int_Tables_number   1
_chemical_formula_structural   Na5In3Sn(PO4)6
_chemical_formula_sum   'Na15 In9 Sn3 P18 O72'
_cell_volume   1611.78678335
_cell_formula_units_Z   3
loop_
 _symmetry_equiv_pos_site_id
 _symmetry_equiv_pos_as_xyz
  1  'x, y, z'
loop_
 _atom_site_type_symbol
 _atom_site_label
 _atom_site_symmetry_multiplicity
 _atom_site_fract_x
 _atom_site_fract_y
 _atom_site_fract_z
 _atom_site_occupancy
  Na  Na0  1  0.63773744  0.00107283  0.25505225  1
  Na  Na1  1  0.36397920  0.36385827  0.25589168  1
  Na  Na2  1  -0.00126912  0.63622820  0.25508994  1
  Na  Na3  1  0.64623792  0.64037678  0.74928295  1
  Na  Na4  1  0.99565079  0.35771094  0.74968903  1
  Na  Na5  1  0.03289859  0.70143624  0.58007614  1
  Na  Na6  1  0.66585347  0.96619359  0.57975717  1
  Na  Na7  1  0.66559953  0.70035539  0.08016798  1
  Na  Na8  1  0.03393339  0.33185306  0.08029185  1
  Na  Na9  1  0.01358837  0.01440053  0.49497953  1
  Na  Na10  1  0.01371761  0.99908738  0.99397480  1
  Na  Na11  1  0.65236521  0.31839252  0.83450148  1
  Na  Na12  1  0.66644633  0.33319084  0.33987750  1
  Na  Na13  1  0.33244013  0.68020782  0.16553475  1
  Na  Na14  1  0.33314167  0.66547874  0.66364203  1
  In  In0  1  0.99901574  0.99879691  0.35434842  1
  In  In1  1  0.00225441  0.00011544  0.85267662  1
  In  In2  1  0.00995226  0.00706681  0.65041668  1
  In  In3  1  0.00651707  0.99953306  0.14826342  1
  In  In4  1  0.65649213  0.32652340  0.68332190  1
  In  In5  1  0.66312137  0.32983355  0.18121664  1
  In  In6  1  0.33307327  0.67277380  0.01358071  1
  In  In7  1  0.33286318  0.65993102  0.51308589  1
  In  In8  1  0.33345497  0.66560952  0.32409289  1
  Sn  Sn0  1  0.66429823  0.33125756  0.97881170  1
  Sn  Sn1  1  0.66330340  0.33297701  0.48109956  1
  Sn  Sn2  1  0.33366010  0.67270643  0.82003255  1
  P  P0  1  0.29535614  0.99795704  0.25042427  1
  P  P1  1  0.70313801  0.70426301  0.24799095  1
  P  P2  1  0.00100224  0.29694760  0.24818338  1
  P  P3  1  0.29653708  0.30191737  0.75282358  1
  P  P4  1  0.00464526  0.70334701  0.74954468  1
  P  P5  1  0.70037808  0.99582866  0.75004118  1
  P  P6  1  0.95965282  0.33289986  0.58475963  1
  P  P7  1  0.37091358  0.03730828  0.58194227  1
  P  P8  1  0.66680383  0.62914776  0.58513557  1
  P  P9  1  0.95988386  0.62660399  0.08280258  1
  P  P10  1  0.66651172  0.03784942  0.08351816  1
  P  P11  1  0.37131297  0.33318620  0.08220263  1
  P  P12  1  0.63099686  0.66329747  0.91776278  1
  P  P13  1  0.03213041  0.36870780  0.91809234  1
  P  P14  1  0.33629519  0.96779363  0.91747288  1
  P  P15  1  0.63557333  0.97273914  0.41813491  1
  P  P16  1  0.33668541  0.36405769  0.41587453  1
  P  P17  1  0.02753592  0.66296672  0.41823802  1
  O  O0  1  0.21391001  0.03394727  0.30327078  1
  O  O1  1  0.82418910  0.79055170  0.29969824  1
  O  O2  1  0.96746197  0.17582451  0.29977604  1
  O  O3  1  0.21655209  0.19380268  0.80718446  1
  O  O4  1  0.96863695  0.78865157  0.80119408  1
  O  O5  1  0.82123515  0.03013424  0.80190483  1
  O  O6  1  0.77228409  0.95950990  0.69280328  1
  O  O7  1  0.18440226  0.23025460  0.69701407  1
  O  O8  1  0.03330737  0.80216764  0.69083377  1
  O  O9  1  0.77344650  0.80673867  0.18962199  1
  O  O10  1  0.03324041  0.22708259  0.18976842  1
  O  O11  1  0.18633014  0.95993963  0.19383141  1
  O  O12  1  0.88622608  0.36298688  0.64230171  1
  O  O13  1  0.48026536  0.11114434  0.63756779  1
  O  O14  1  0.64324910  0.53360733  0.64384443  1
  O  O15  1  0.88706022  0.52467468  0.14085297  1
  O  O16  1  0.64272845  0.10822897  0.14257448  1
  O  O17  1  0.47180854  0.36221136  0.14041750  1
  O  O18  1  0.46424026  0.31073873  0.02879026  1
  O  O19  1  0.83679534  0.53312983  0.03048450  1
  O  O20  1  0.69533282  0.15998487  0.03114975  1
  O  O21  1  0.45638286  0.14872751  0.52677624  1
  O  O22  1  0.69630973  0.53689593  0.53253154  1
  O  O23  1  0.83633042  0.30175482  0.53215906  1
  O  O24  1  0.54986889  0.68318511  0.97453655  1
  O  O25  1  0.13431887  0.44986513  0.97470849  1
  O  O26  1  0.31273365  0.86472200  0.97319971  1
  O  O27  1  0.54858105  0.86723796  0.47382268  1
  O  O28  1  0.31534437  0.45436216  0.46904957  1
  O  O29  1  0.13372808  0.68233149  0.47381153  1
  O  O30  1  0.10698730  0.63853056  0.36096750  1
  O  O31  1  0.53186294  0.89212112  0.36094353  1
  O  O32  1  0.36135778  0.46345718  0.35728792  1
  O  O33  1  0.11991102  0.48183739  0.86213820  1
  O  O34  1  0.36534371  0.88370090  0.86179042  1
  O  O35  1  0.51826481  0.63950622  0.86190028  1
  O  O36  1  0.00491132  0.82014112  0.41479005  1
  O  O37  1  0.81527635  0.99467157  0.41470067  1
  O  O38  1  0.18042541  0.18391556  0.41314042  1
  O  O39  1  0.00953748  0.18973127  0.91292939  1
  O  O40  1  0.18038982  0.99045588  0.91171104  1
  O  O41  1  0.80988539  0.82027863  0.91249657  1
  O  O42  1  0.97028609  0.16721960  0.58766431  1
  O  O43  1  0.18939015  0.01389877  0.58609002  1
  O  O44  1  0.83266996  0.80810189  0.58661843  1
  O  O45  1  0.97026979  0.80271183  0.08482661  1
  O  O46  1  0.83266678  0.02519385  0.08456020  1
  O  O47  1  0.18894967  0.17570459  0.08406665  1
  O  O48  1  0.68171237  0.15683389  0.74539382  1
  O  O49  1  0.48143637  0.33442398  0.74672554  1
  O  O50  1  0.84429054  0.52004646  0.74614455  1
  O  O51  1  0.68047046  0.52158939  0.24453696  1
  O  O52  1  0.84056861  0.31904890  0.24496857  1
  O  O53  1  0.47688780  0.15860685  0.24513121  1
  O  O54  1  0.64308633  0.49648609  0.91964838  1
  O  O55  1  0.85319548  0.35687200  0.92036467  1
  O  O56  1  0.50287503  0.14678024  0.92035594  1
  O  O57  1  0.65201935  0.15300445  0.42197099  1
  O  O58  1  0.50236201  0.35134992  0.42135366  1
  O  O59  1  0.84770799  0.49858761  0.42271474  1
  O  O60  1  0.35432726  0.49595945  0.07719495  1
  O  O61  1  0.13611382  0.63966840  0.07678874  1
  O  O62  1  0.51253818  0.85465712  0.07763737  1
  O  O63  1  0.35124471  0.85624142  0.57667178  1
  O  O64  1  0.51230378  0.65770960  0.57833574  1
  O  O65  1  0.13622835  0.49575866  0.57758817  1
  O  O66  1  0.31733501  0.83819300  0.25738202  1
  O  O67  1  0.52320229  0.68654975  0.25542068  1
  O  O68  1  0.16203408  0.47803459  0.25542258  1
  O  O69  1  0.31414421  0.48556769  0.75859849  1
  O  O70  1  0.16339398  0.67789771  0.75736257  1
  O  O71  1  0.52212473  0.82940654  0.75781713  1
loop_
_geom_bond_atom_site_label_1
_geom_bond_atom_site_label_2
_geom_bond_distance
_geom_bond_site_symmetry_2
Na0 O67 2.496272 1_545
Na0 O53 2.506281 1_555
Na0 O66 2.513203 1_545
Na0 O52 2.534894 1_555
Na0 O31 2.593038 1_545
Na0 O16 2.722960 1_555
Na0 O2 2.779141 1_555
Na1 O32 2.477713 1_555
Na1 O51 2.495254 1_555
Na1 O68 2.510309 1_555
Na1 O67 2.530301 1_555
Na1 O53 2.541378 1_555
Na1 O17 2.800829 1_555
Na1 O0 2.803832 1_555
Na2 O52 2.497800 1_455
Na2 O68 2.520861 1_555
Na2 O66 2.528649 1_555
Na2 O51 2.539238 1_455
Na2 O30 2.591384 1_555
Na2 O1 2.772815 1_455
Na2 O15 2.783840 1_455
Na2 O11 2.902640 1_555
Na3 O49 2.402129 1_555
Na3 O71 2.480542 1_555
Na3 O50 2.522132 1_555
Na3 O14 2.577649 1_555
Na3 O69 2.614798 1_555
Na3 O4 2.791560 1_555
Na3 O35 2.806209 1_555
Na3 O6 2.826878 1_555
Na4 O50 2.461306 1_555
Na4 O48 2.495641 1_555
Na4 O70 2.517734 1_655
Na4 O69 2.521712 1_655
Na4 O12 2.640301 1_555
Na4 O7 2.767732 1_655
Na4 O33 2.790040 1_655
Na4 O5 2.829593 1_555
Na5 O44 2.447963 1_455
Na5 O43 2.453940 1_565
Na5 O65 2.467394 1_555
Na5 O63 2.497918 1_555
Na5 O29 2.616432 1_555
Na5 O8 2.675144 1_555
Na5 O22 2.851624 1_455
Na6 O64 2.419070 1_555
Na6 O42 2.434493 1_565
Na6 O63 2.504989 1_555
Na6 O44 2.552395 1_555
Na6 O27 2.600820 1_555
Na6 O6 2.751967 1_555
Na6 O23 2.843603 1_565
Na6 O13 2.912116 1_565
Na7 O62 2.410558 1_555
Na7 O45 2.433856 1_555
Na7 O60 2.481459 1_555
Na7 O46 2.549447 1_565
Na7 O24 2.589883 1_554
Na7 O9 2.667878 1_555
Na7 O19 2.884435 1_555
Na7 O17 2.990815 1_555
Na8 O47 2.441154 1_555
Na8 O46 2.445286 1_455
Na8 O61 2.459727 1_555
Na8 O60 2.513699 1_555
Na8 O25 2.596125 1_554
Na8 O10 2.658146 1_555
Na8 O20 2.879999 1_455
Na8 O15 3.005941 1_455
Na9 O38 2.401872 1_555
Na9 O37 2.500593 1_445
Na9 O36 2.506518 1_545
Na9 O43 2.610481 1_555
Na9 O42 2.654414 1_455
Na9 O44 2.727122 1_445
Na10 O40 2.427750 1_555
Na10 O39 2.534517 1_565
Na10 O41 2.542277 1_455
Na10 O47 2.593019 1_566
Na10 O45 2.619799 1_456
Na10 O46 2.714051 1_466
Na11 O56 2.437105 1_555
Na11 O54 2.546850 1_555
Na11 O55 2.567244 1_555
Na11 O49 2.570352 1_555
Na11 O48 2.588193 1_555
Na11 O50 2.683549 1_555
Na12 O58 2.429981 1_555
Na12 O57 2.435589 1_555
Na12 O59 2.453040 1_555
Na12 O52 2.711495 1_555
Na12 O53 2.713104 1_555
Na12 O51 2.717680 1_555
Na13 O62 2.560896 1_555
Na13 O66 2.572050 1_555
Na13 O61 2.588055 1_555
Na13 O67 2.654580 1_555
Na13 O68 2.658530 1_555
Na13 O60 2.680095 1_555
Na14 O64 2.550752 1_555
Na14 O63 2.572490 1_555
Na14 O65 2.572803 1_555
Na14 O69 2.653739 1_555
Na14 O70 2.660879 1_555
Na14 O71 2.676677 1_555
In0 O38 2.130237 1_665
In0 O36 2.140795 1_655
In0 O37 2.141870 1_555
In0 O0 2.148311 1_665
In0 O1 2.149003 1_555
In0 O2 2.153598 1_565
In1 O3 2.122124 1_555
In1 O5 2.128537 1_455
In1 O40 2.131407 1_545
In1 O4 2.132130 1_445
In1 O41 2.166121 1_445
In1 O39 2.171317 1_555
In2 O7 2.123289 1_555
In2 O43 2.163115 1_555
In2 O8 2.171599 1_545
In2 O42 2.185420 1_455
In2 O6 2.194986 1_445
In2 O44 2.242959 1_445
In3 O11 2.104645 1_555
In3 O10 2.167084 1_565
In3 O9 2.167490 1_455
In3 O47 2.181889 1_565
In3 O45 2.185773 1_455
In3 O46 2.232676 1_465
In4 O13 2.078133 1_555
In4 O14 2.133851 1_555
In4 O12 2.149103 1_555
In4 O49 2.169418 1_555
In4 O48 2.177939 1_555
In4 O50 2.240255 1_555
In5 O17 2.109286 1_555
In5 O16 2.112428 1_555
In5 O15 2.117923 1_555
In5 O53 2.176445 1_555
In5 O51 2.199519 1_555
In5 O52 2.199725 1_555
In6 O26 2.051910 1_554
In6 O25 2.112040 1_554
In6 O24 2.113093 1_554
In6 O62 2.189431 1_555
In6 O61 2.190382 1_555
In6 O60 2.233282 1_555
In7 O28 2.048728 1_555
In7 O29 2.109472 1_555
In7 O27 2.113196 1_555
In7 O64 2.205344 1_555
In7 O65 2.208276 1_555
In7 O63 2.231637 1_555
In8 O32 2.107163 1_555
In8 O31 2.109732 1_555
In8 O30 2.113061 1_555
In8 O66 2.231285 1_555
In8 O68 2.256244 1_555
In8 O67 2.257411 1_555
O0 P0 1.527053 1_545
O1 P1 1.527665 1_555
O2 P2 1.526848 1_655
O3 P3 1.515081 1_555
O4 P4 1.527129 1_655
O5 P5 1.529520 1_545
O6 P5 1.561054 1_555
O7 P3 1.548722 1_555
O8 P4 1.552428 1_555
O9 P1 1.558815 1_555
O10 P2 1.559220 1_555
O11 P0 1.550205 1_555
O12 P6 1.551121 1_555
O13 P7 1.536336 1_555
O14 P8 1.543854 1_555
O15 P9 1.553497 1_555
O16 P10 1.545821 1_555
O17 P11 1.550387 1_555
O18 P11 1.546846 1_555
O18 Sn0 2.066214 1_554
O19 P9 1.557694 1_555
O19 Sn0 2.074631 1_554
O20 P10 1.553450 1_555
O20 Sn0 2.079927 1_554
O21 P7 1.550166 1_555
O21 Sn1 2.059668 1_555
O22 P8 1.555975 1_555
O22 Sn1 2.076993 1_555
O23 P6 1.560892 1_555
O23 Sn1 2.077815 1_555
O24 P12 1.538672 1_555
O25 P13 1.539082 1_555
O26 P14 1.521692 1_555
O27 P15 1.541944 1_555
O28 P16 1.524377 1_555
O29 P17 1.541822 1_555
O30 P17 1.555044 1_555
O31 P15 1.554181 1_555
O32 P16 1.557414 1_555
O33 P13 1.574491 1_555
O33 Sn2 2.073800 1_555
O34 P14 1.565185 1_555
O34 Sn2 2.021360 1_555
O35 P12 1.573394 1_555
O35 Sn2 2.070493 1_555
O36 P17 1.537562 1_555
O37 P15 1.539502 1_555
O38 P16 1.535747 1_555
O39 P13 1.533013 1_555
O40 P14 1.530070 1_555
O41 P12 1.534921 1_555
O42 P6 1.551676 1_555
O43 P7 1.551463 1_555
O44 P8 1.564859 1_555
O45 P9 1.550248 1_555
O46 P10 1.565012 1_555
O47 P11 1.551505 1_555
O48 P5 1.552536 1_545
O49 P3 1.554404 1_555
O50 P4 1.568138 1_655
O51 P1 1.563431 1_555
O52 P2 1.563933 1_655
O53 P0 1.562416 1_545
O54 P12 1.568342 1_555
O54 Sn0 2.088278 1_555
O55 P13 1.570200 1_655
O55 Sn0 2.084672 1_555
O56 P14 1.568909 1_545
O56 Sn0 2.061183 1_555
O57 P15 1.565435 1_545
O57 Sn1 2.075020 1_555
O58 P16 1.565640 1_555
O58 Sn1 2.056663 1_555
O59 P17 1.566329 1_655
O59 Sn1 2.070873 1_555
O60 P11 1.560267 1_555
O61 P9 1.546062 1_455
O62 P10 1.549378 1_565
O63 P7 1.562628 1_565
O64 P8 1.552050 1_555
O65 P6 1.549036 1_455
O66 P0 1.563293 1_555
O67 P1 1.564476 1_555
O68 P2 1.565573 1_555
O69 P3 1.594530 1_555
O69 Sn2 2.133717 1_555
O70 P4 1.575197 1_555
O70 Sn2 2.114765 1_555
O71 P5 1.573109 1_555
O71 Sn2 2.120876 1_555
