# generated using pymatgen
data_LaGa3Pd2
_symmetry_space_group_name_H-M   'P 1'
_cell_length_a   5.44368062
_cell_length_b   5.44368109
_cell_length_c   4.29021420
_cell_angle_alpha   90.00000000
_cell_angle_beta   90.00000000
_cell_angle_gamma   120.00000337
_symmetry_Int_Tables_number   1
_chemical_formula_structural   LaGa3Pd2
_chemical_formula_sum   'La1 Ga3 Pd2'
_cell_volume   110.10192309
_cell_formula_units_Z   1
loop_
 _symmetry_equiv_pos_site_id
 _symmetry_equiv_pos_as_xyz
  1  'x, y, z'
loop_
 _atom_site_type_symbol
 _atom_site_label
 _atom_site_symmetry_multiplicity
 _atom_site_fract_x
 _atom_site_fract_y
 _atom_site_fract_z
 _atom_site_occupancy
  La  La0  1  0.00000000  -0.00000000  -0.00000000  1
  Ga  Ga0  1  0.50000000  -0.00000000  0.50000000  1
  Ga  Ga1  1  0.50000000  0.50000000  0.50000000  1
  Ga  Ga2  1  0.00000000  0.50000000  0.50000000  1
  Pd  Pd0  1  0.66666700  0.33333300  -0.00000000  1
  Pd  Pd1  1  0.33333300  0.66666700  0.00000000  1
loop_
_geom_bond_atom_site_label_1
_geom_bond_atom_site_label_2
_geom_bond_distance
_geom_bond_site_symmetry_2
La0 Pd0 3.142908 1_455
La0 Pd1 3.142908 1_545
La0 Pd1 3.142912 1_445
La0 Pd0 3.142912 1_555
La0 Pd0 3.142912 1_445
La0 Pd1 3.142912 1_555
Ga0 Pd0 2.659126 1_556
Ga0 Pd1 2.659126 1_546
Ga0 Pd1 2.659126 1_545
Ga0 Pd0 2.659126 1_555
Ga0 La0 3.465530 1_555
Ga0 La0 3.465530 1_556
Ga0 La0 3.465530 1_655
Ga0 La0 3.465530 1_656
Ga1 Pd1 2.659129 1_555
Ga1 Pd0 2.659129 1_555
Ga1 Pd1 2.659129 1_556
Ga1 Pd0 2.659129 1_556
Ga1 La0 3.465530 1_555
Ga1 La0 3.465530 1_556
Ga1 La0 3.465530 1_666
Ga1 La0 3.465530 1_665
Ga2 Pd1 2.659126 1_556
Ga2 Pd0 2.659126 1_455
Ga2 Pd0 2.659126 1_456
Ga2 Pd1 2.659126 1_555
Ga2 La0 3.465530 1_555
Ga2 La0 3.465530 1_556
Ga2 La0 3.465530 1_565
Ga2 La0 3.465530 1_566
