# generated using pymatgen
data_Na3P6N11
_symmetry_space_group_name_H-M   'P 1'
_cell_length_a   10.19146400
_cell_length_b   10.19146400
_cell_length_c   10.19146400
_cell_angle_alpha   90.00000000
_cell_angle_beta   90.00000000
_cell_angle_gamma   90.00000000
_symmetry_Int_Tables_number   1
_chemical_formula_structural   Na3P6N11
_chemical_formula_sum   'Na12 P24 N44'
_cell_volume   1058.54597267
_cell_formula_units_Z   4
loop_
 _symmetry_equiv_pos_site_id
 _symmetry_equiv_pos_as_xyz
  1  'x, y, z'
loop_
 _atom_site_type_symbol
 _atom_site_label
 _atom_site_symmetry_multiplicity
 _atom_site_fract_x
 _atom_site_fract_y
 _atom_site_fract_z
 _atom_site_occupancy
  Na  Na0  1  0.52203000  0.52203000  0.52203000  1
  Na  Na1  1  0.97797000  0.47797000  0.02203000  1
  Na  Na2  1  0.02203000  0.97797000  0.47797000  1
  Na  Na3  1  0.47797000  0.02203000  0.97797000  1
  Na  Na4  1  0.87351900  0.87351900  0.87351900  1
  Na  Na5  1  0.62648100  0.12648100  0.37351900  1
  Na  Na6  1  0.37351900  0.62648100  0.12648100  1
  Na  Na7  1  0.12648100  0.37351900  0.62648100  1
  Na  Na8  1  0.21937400  0.21937400  0.21937400  1
  Na  Na9  1  0.28062600  0.78062600  0.71937400  1
  Na  Na10  1  0.71937400  0.28062600  0.78062600  1
  Na  Na11  1  0.78062600  0.71937400  0.28062600  1
  P  P0  1  0.93701400  0.01609100  0.17401400  1
  P  P1  1  0.67401400  0.56298600  0.98390900  1
  P  P2  1  0.82598600  0.43701400  0.48390900  1
  P  P3  1  0.56298600  0.98390900  0.67401400  1
  P  P4  1  0.48390900  0.82598600  0.43701400  1
  P  P5  1  0.98390900  0.67401400  0.56298600  1
  P  P6  1  0.17401400  0.93701400  0.01609100  1
  P  P7  1  0.01609100  0.17401400  0.93701400  1
  P  P8  1  0.43701400  0.48390900  0.82598600  1
  P  P9  1  0.06298600  0.51609100  0.32598600  1
  P  P10  1  0.51609100  0.32598600  0.06298600  1
  P  P11  1  0.32598600  0.06298600  0.51609100  1
  P  P12  1  0.31102600  0.92563700  0.26654000  1
  P  P13  1  0.81102600  0.57436300  0.73346000  1
  P  P14  1  0.68897400  0.42563700  0.23346000  1
  P  P15  1  0.57436300  0.73346000  0.81102600  1
  P  P16  1  0.23346000  0.68897400  0.42563700  1
  P  P17  1  0.73346000  0.81102600  0.57436300  1
  P  P18  1  0.92563700  0.26654000  0.31102600  1
  P  P19  1  0.26654000  0.31102600  0.92563700  1
  P  P20  1  0.42563700  0.23346000  0.68897400  1
  P  P21  1  0.07436300  0.76654000  0.18897400  1
  P  P22  1  0.76654000  0.18897400  0.07436300  1
  P  P23  1  0.18897400  0.07436300  0.76654000  1
  N  N0  1  0.71114300  0.71114300  0.71114300  1
  N  N1  1  0.87882700  0.78602300  0.52122100  1
  N  N2  1  0.97877900  0.12117300  0.28602300  1
  N  N3  1  0.12117300  0.28602300  0.97877900  1
  N  N4  1  0.47877900  0.37882700  0.71397700  1
  N  N5  1  0.02122100  0.62117300  0.21397700  1
  N  N6  1  0.62117300  0.21397700  0.02122100  1
  N  N7  1  0.21397700  0.02122100  0.62117300  1
  N  N8  1  0.46087200  0.87507000  0.28709500  1
  N  N9  1  0.96087200  0.62493000  0.71290500  1
  N  N10  1  0.53912800  0.37507000  0.21290500  1
  N  N11  1  0.62493000  0.71290500  0.96087200  1
  N  N12  1  0.96387900  0.53612100  0.46387900  1
  N  N13  1  0.53612100  0.46387900  0.96387900  1
  N  N14  1  0.46387900  0.96387900  0.53612100  1
  N  N15  1  0.03612100  0.03612100  0.03612100  1
  N  N16  1  0.28885700  0.21114300  0.78885700  1
  N  N17  1  0.21114300  0.78885700  0.28885700  1
  N  N18  1  0.78885700  0.28885700  0.21114300  1
  N  N19  1  0.37882700  0.71397700  0.47877900  1
  N  N20  1  0.46086700  0.62907600  0.77227700  1
  N  N21  1  0.78602300  0.52122100  0.87882700  1
  N  N22  1  0.71397700  0.47877900  0.37882700  1
  N  N23  1  0.52122100  0.87882700  0.78602300  1
  N  N24  1  0.27227700  0.03913300  0.37092400  1
  N  N25  1  0.37092400  0.27227700  0.03913300  1
  N  N26  1  0.03913300  0.37092400  0.27227700  1
  N  N27  1  0.21290500  0.53912800  0.37507000  1
  N  N28  1  0.87092400  0.22772300  0.96086700  1
  N  N29  1  0.96086700  0.87092400  0.22772300  1
  N  N30  1  0.12907500  0.72772300  0.53913300  1
  N  N31  1  0.62907600  0.77227700  0.46086700  1
  N  N32  1  0.53913300  0.12907500  0.72772300  1
  N  N33  1  0.77227700  0.46086700  0.62907600  1
  N  N34  1  0.72772300  0.53913300  0.12907500  1
  N  N35  1  0.22772300  0.96086700  0.87092400  1
  N  N36  1  0.03912800  0.12493000  0.78709500  1
  N  N37  1  0.78709500  0.03912800  0.12493000  1
  N  N38  1  0.12493000  0.78709500  0.03912800  1
  N  N39  1  0.37507000  0.21290500  0.53912800  1
  N  N40  1  0.28709500  0.46087200  0.87507000  1
  N  N41  1  0.87507000  0.28709500  0.46087200  1
  N  N42  1  0.71290500  0.96087200  0.62493000  1
  N  N43  1  0.28602300  0.97877900  0.12117300  1
loop_
_geom_bond_atom_site_label_1
_geom_bond_atom_site_label_2
_geom_bond_distance
_geom_bond_site_symmetry_2
N0 P13 1.741024 1_555
N0 P17 1.741024 1_555
N0 P15 1.741024 1_555
N0 Na4 2.866283 1_555
N1 P17 1.597844 1_555
N1 P5 1.622094 1_555
N1 Na2 2.480138 1_655
N1 Na11 2.734115 1_555
N2 P18 1.597844 1_555
N2 P0 1.622094 1_555
N2 Na2 2.480138 1_645
N2 Na8 2.734115 1_655
N3 P19 1.597844 1_555
N3 P7 1.622094 1_555
N3 Na1 2.480138 1_456
N3 Na8 2.734115 1_556
N4 P20 1.597844 1_555
N4 P8 1.622094 1_555
N4 Na0 2.480138 1_555
N4 Na10 2.734115 1_555
N5 P21 1.597844 1_555
N5 P9 1.622094 1_555
N5 Na1 2.480138 1_455
N5 Na11 2.734115 1_455
N6 P22 1.597844 1_555
N6 P10 1.622094 1_555
N6 Na3 2.480138 1_554
N6 Na10 2.734115 1_554
N7 P23 1.597844 1_555
N7 P11 1.622094 1_555
N7 Na2 2.480138 1_545
N7 Na9 2.734115 1_545
N8 P4 1.624752 1_555
N8 P12 1.625318 1_555
N9 P5 1.624752 1_555
N9 P13 1.625318 1_555
N10 P10 1.624752 1_555
N10 P14 1.625318 1_555
N11 P1 1.624752 1_555
N11 P15 1.625318 1_555
N12 P2 1.742647 1_555
N12 P5 1.742647 1_555
N12 P9 1.742647 1_655
N12 Na7 2.870272 1_655
N13 P8 1.742647 1_555
N13 P1 1.742647 1_555
N13 P10 1.742647 1_556
N13 Na6 2.870272 1_556
N14 P4 1.742647 1_555
N14 P3 1.742647 1_555
N14 P11 1.742647 1_565
N14 Na5 2.870272 1_565
N15 P0 1.742647 1_455
N15 P7 1.742647 1_554
N15 P6 1.742647 1_545
N15 Na4 2.870272 1_444
N16 P19 1.741024 1_555
N16 P20 1.741024 1_555
N16 P23 1.741024 1_555
N16 Na7 2.866283 1_555
N17 P12 1.741024 1_555
N17 P16 1.741024 1_555
N17 P21 1.741024 1_555
N17 Na6 2.866283 1_555
N18 P18 1.741024 1_555
N18 P14 1.741024 1_555
N18 P22 1.741024 1_555
N18 Na5 2.866283 1_555
N19 P16 1.597844 1_555
N19 P4 1.622094 1_555
N19 Na0 2.480138 1_555
N19 Na9 2.734115 1_555
N20 P8 1.596098 1_555
N20 P15 1.620374 1_555
N20 Na9 2.459776 1_555
N20 Na0 2.843096 1_555
N21 P13 1.597844 1_555
N21 P1 1.622094 1_555
N21 Na1 2.480138 1_556
N21 Na10 2.734115 1_555
N22 P14 1.597844 1_555
N22 P2 1.622094 1_555
N22 Na0 2.480138 1_555
N22 Na11 2.734115 1_555
N23 P15 1.597844 1_555
N23 P3 1.622094 1_555
N23 Na3 2.480138 1_565
N23 Na9 2.734115 1_555
N24 P11 1.596098 1_555
N24 P12 1.620374 1_545
N24 Na8 2.459776 1_555
N24 Na2 2.843096 1_545
N25 P10 1.596098 1_555
N25 P19 1.620374 1_554
N25 Na8 2.459776 1_555
N25 Na3 2.843096 1_554
N26 P9 1.596098 1_555
N26 P18 1.620374 1_455
N26 Na8 2.459776 1_555
N26 Na1 2.843096 1_455
N27 P9 1.624752 1_555
N27 P16 1.625318 1_555
N28 P7 1.596098 1_655
N28 P22 1.620374 1_556
N28 Na10 2.459776 1_555
N28 Na1 2.843096 1_556
N29 P0 1.596098 1_565
N29 P21 1.620374 1_655
N29 Na11 2.459776 1_555
N29 Na2 2.843096 1_655
N30 P5 1.596088 1_455
N30 P16 1.620380 1_555
N30 Na9 2.459782 1_555
N30 Na2 2.843092 1_555
N31 P4 1.596098 1_555
N31 P17 1.620374 1_555
N31 Na11 2.459776 1_555
N31 Na0 2.843096 1_555
N32 P3 1.596088 1_545
N32 P20 1.620380 1_555
N32 Na10 2.459782 1_555
N32 Na3 2.843092 1_555
N33 P2 1.596098 1_555
N33 P13 1.620374 1_555
N33 Na10 2.459776 1_555
N33 Na0 2.843096 1_555
N34 P1 1.596088 1_554
N34 P14 1.620380 1_555
N34 Na11 2.459782 1_555
N34 Na1 2.843092 1_555
N35 P6 1.596098 1_556
N35 P23 1.620374 1_565
N35 Na9 2.459776 1_555
N35 Na3 2.843096 1_565
N36 P7 1.624752 1_555
N36 P23 1.625318 1_555
N37 P0 1.624752 1_555
N37 P22 1.625318 1_555
N38 P6 1.624752 1_555
N38 P21 1.625318 1_555
N39 P11 1.624752 1_555
N39 P20 1.625318 1_555
N40 P8 1.624752 1_555
N40 P19 1.625318 1_555
N41 P2 1.624752 1_555
N41 P18 1.625318 1_555
N42 P3 1.624752 1_555
N42 P17 1.625318 1_555
N43 P12 1.597844 1_555
N43 P6 1.622094 1_555
N43 Na3 2.480138 1_564
N43 Na8 2.734115 1_565
