# generated using pymatgen
data_MgTiVO4
_symmetry_space_group_name_H-M   'P 1'
_cell_length_a   3.02738045
_cell_length_b   5.33760327
_cell_length_c   5.33760327
_cell_angle_alpha   74.18652637
_cell_angle_beta   90.00000000
_cell_angle_gamma   90.00000000
_symmetry_Int_Tables_number   1
_chemical_formula_structural   MgTiVO4
_chemical_formula_sum   'Mg1 Ti1 V1 O4'
_cell_volume   82.98586865
_cell_formula_units_Z   1
loop_
 _symmetry_equiv_pos_site_id
 _symmetry_equiv_pos_as_xyz
  1  'x, y, z'
loop_
 _atom_site_type_symbol
 _atom_site_label
 _atom_site_symmetry_multiplicity
 _atom_site_fract_x
 _atom_site_fract_y
 _atom_site_fract_z
 _atom_site_occupancy
  Mg  Mg0  1  0.50000000  0.79798182  0.79798182  1
  Ti  Ti0  1  0.50000000  0.46726383  0.46726383  1
  V  V0  1  0.00000000  0.08450593  0.08450593  1
  O  O0  1  0.00000000  0.32445604  0.32445604  1
  O  O1  1  0.50000000  0.79358183  0.18369491  1
  O  O2  1  0.50000000  0.18369491  0.79358183  1
  O  O3  1  0.00000000  0.64944164  0.64944164  1
loop_
_geom_bond_atom_site_label_1
_geom_bond_atom_site_label_2
_geom_bond_distance
_geom_bond_site_symmetry_2
Mg0 O3 1.972581 1_555
Mg0 O3 1.972581 1_655
Mg0 O2 2.052508 1_565
Mg0 O1 2.052508 1_556
O0 Ti0 1.941644 1_555
O0 Ti0 1.941644 1_455
O0 V0 2.043206 1_555
O1 Ti0 1.971757 1_555
O1 V0 2.129505 1_665
O1 V0 2.129505 1_565
O2 Ti0 1.971757 1_555
O2 V0 2.129505 1_556
O2 V0 2.129505 1_656
O3 Ti0 2.167415 1_455
O3 Ti0 2.167415 1_555
