# generated using pymatgen
data_Fe4(PO4)3
_symmetry_space_group_name_H-M   'P 1'
_cell_length_a   8.72137267
_cell_length_b   8.72137299
_cell_length_c   6.58488701
_cell_angle_alpha   73.82290639
_cell_angle_beta   106.17708806
_cell_angle_gamma   87.13217950
_symmetry_Int_Tables_number   1
_chemical_formula_structural   Fe4(PO4)3
_chemical_formula_sum   'Fe8 P6 O24'
_cell_volume   457.53835138
_cell_formula_units_Z   2
loop_
 _symmetry_equiv_pos_site_id
 _symmetry_equiv_pos_as_xyz
  1  'x, y, z'
loop_
 _atom_site_type_symbol
 _atom_site_label
 _atom_site_symmetry_multiplicity
 _atom_site_fract_x
 _atom_site_fract_y
 _atom_site_fract_z
 _atom_site_occupancy
  Fe  Fe0  1  0.75355000  0.75355000  0.75000000  1
  Fe  Fe1  1  0.94359600  0.36116000  0.38052000  1
  Fe  Fe2  1  0.49510400  0.49510400  0.25000000  1
  Fe  Fe3  1  0.63884000  0.05640400  0.88052000  1
  Fe  Fe4  1  0.36116000  0.94359600  0.11948000  1
  Fe  Fe5  1  0.50489600  0.50489600  0.75000000  1
  Fe  Fe6  1  0.24645000  0.24645000  0.25000000  1
  Fe  Fe7  1  0.05640400  0.63884000  0.61948000  1
  P  P0  1  0.12217900  0.65088800  0.12882300  1
  P  P1  1  0.29176900  0.29176900  0.75000000  1
  P  P2  1  0.34911200  0.87782100  0.62882300  1
  P  P3  1  0.65088800  0.12217900  0.37117700  1
  P  P4  1  0.70823100  0.70823100  0.25000000  1
  P  P5  1  0.87782100  0.34911200  0.87117700  1
  O  O0  1  0.48926900  0.73910800  0.67142400  1
  O  O1  1  0.81408900  0.73905600  0.46224800  1
  O  O2  1  0.80722600  0.19151000  0.36702700  1
  O  O3  1  0.72913200  0.52567500  0.26209500  1
  O  O4  1  0.80849000  0.19277400  0.86702700  1
  O  O5  1  0.73910800  0.48926900  0.82857600  1
  O  O6  1  0.00222800  0.32664200  0.10338800  1
  O  O7  1  0.96069500  0.40707300  0.68856800  1
  O  O8  1  0.99777200  0.67335800  0.89661200  1
  O  O9  1  0.03930500  0.59292700  0.31143200  1
  O  O10  1  0.26094400  0.18591100  0.96224800  1
  O  O11  1  0.18591100  0.26094400  0.53775200  1
  O  O12  1  0.19277400  0.80849000  0.63297300  1
  O  O13  1  0.27086800  0.47432500  0.73790500  1
  O  O14  1  0.59292700  0.03930500  0.18856800  1
  O  O15  1  0.26089200  0.51073100  0.17142400  1
  O  O16  1  0.40707300  0.96069500  0.81143200  1
  O  O17  1  0.32664200  0.00222800  0.39661200  1
  O  O18  1  0.47432500  0.27086800  0.76209500  1
  O  O19  1  0.19151000  0.80722600  0.13297300  1
  O  O20  1  0.51073100  0.26089200  0.32857600  1
  O  O21  1  0.52567500  0.72913200  0.23790500  1
  O  O22  1  0.67335800  0.99777200  0.60338800  1
  O  O23  1  0.73905600  0.81408900  0.03775200  1
loop_
_geom_bond_atom_site_label_1
_geom_bond_atom_site_label_2
_geom_bond_distance
_geom_bond_site_symmetry_2
Fe0 O8 2.070453 1_555
Fe0 O22 2.070453 1_555
Fe0 O1 2.137593 1_555
Fe0 O23 2.137593 1_556
Fe0 O0 2.235386 1_555
Fe0 O5 2.235387 1_555
Fe1 O2 1.949878 1_555
Fe1 O11 2.096121 1_655
Fe1 O3 2.111987 1_555
Fe1 O6 2.119667 1_655
Fe1 O7 2.141786 1_555
Fe1 O9 2.203974 1_655
Fe2 O15 1.950037 1_555
Fe2 O20 1.950037 1_555
Fe2 O3 2.054021 1_555
Fe2 O21 2.054021 1_555
Fe3 O4 1.949877 1_555
Fe3 O23 2.096121 1_546
Fe3 O18 2.111987 1_555
Fe3 O22 2.119667 1_545
Fe3 O14 2.141786 1_556
Fe3 O16 2.203974 1_545
Fe4 O19 1.949877 1_555
Fe4 O10 2.096121 1_564
Fe4 O21 2.111987 1_555
Fe4 O17 2.119667 1_565
Fe4 O16 2.141786 1_554
Fe4 O14 2.203974 1_565
Fe5 O5 1.950037 1_555
Fe5 O0 1.950037 1_555
Fe5 O13 2.054021 1_555
Fe5 O18 2.054021 1_555
Fe6 O6 2.070453 1_555
Fe6 O17 2.070453 1_555
Fe6 O11 2.137593 1_555
Fe6 O10 2.137593 1_554
Fe6 O20 2.235386 1_555
Fe6 O15 2.235387 1_555
Fe7 O12 1.949878 1_555
Fe7 O1 2.096121 1_455
Fe7 O13 2.111987 1_555
Fe7 O8 2.119667 1_455
Fe7 O9 2.141786 1_555
Fe7 O7 2.203974 1_455
O0 P2 1.583748 1_555
O1 P4 1.546997 1_555
O2 P3 1.522990 1_555
O3 P4 1.570570 1_555
O4 P5 1.522990 1_555
O5 P5 1.583748 1_555
O6 P5 1.562379 1_454
O7 P5 1.551123 1_555
O8 P0 1.562379 1_656
O9 P0 1.551123 1_555
O10 P1 1.546996 1_555
O11 P1 1.546997 1_555
O12 P2 1.522990 1_555
O13 P1 1.570570 1_555
O14 P3 1.551123 1_555
O15 P0 1.583748 1_555
O16 P2 1.551123 1_555
O17 P2 1.562379 1_545
O18 P1 1.570570 1_555
O19 P0 1.522990 1_555
O20 P3 1.583748 1_555
O21 P4 1.570570 1_555
O22 P3 1.562379 1_565
O23 P4 1.546996 1_555
