# generated using pymatgen
data_K2RbTbMgV2O8
_symmetry_space_group_name_H-M   'P 1'
_cell_length_a   6.24093782
_cell_length_b   5.82697288
_cell_length_c   8.28618569
_cell_angle_alpha   90.00000002
_cell_angle_beta   89.90477522
_cell_angle_gamma   117.82902866
_symmetry_Int_Tables_number   1
_chemical_formula_structural   K2RbTbMgV2O8
_chemical_formula_sum   'K2 Rb1 Tb1 Mg1 V2 O8'
_cell_volume   266.48223332
_cell_formula_units_Z   1
loop_
 _symmetry_equiv_pos_site_id
 _symmetry_equiv_pos_as_xyz
  1  'x, y, z'
loop_
 _atom_site_type_symbol
 _atom_site_label
 _atom_site_symmetry_multiplicity
 _atom_site_fract_x
 _atom_site_fract_y
 _atom_site_fract_z
 _atom_site_occupancy
  K  K0  1  0.71665491  0.35832695  0.80032732  1
  K  K1  1  0.16244901  0.58122501  0.27600828  1
  Rb  Rb0  1  0.88736985  0.94368493  0.46325877  1
  Tb  Tb0  1  0.06445581  0.03222791  0.99201127  1
  Mg  Mg0  1  0.55315018  0.77657509  0.02985385  1
  V  V0  1  0.61443324  0.30721612  0.24029536  1
  V  V1  1  0.39338957  0.69669528  0.74543250  1
  O  O0  1  0.75515940  0.12466340  0.12613726  1
  O  O1  1  0.75515940  0.63049600  0.12613726  1
  O  O2  1  0.28508143  0.14254072  0.21669923  1
  O  O3  1  0.72930335  0.86465167  0.80985398  1
  O  O4  1  0.29848201  0.42004757  0.88888519  1
  O  O5  1  0.29848201  0.87843444  0.88888519  1
  O  O6  1  0.36738642  0.68369371  0.54068359  1
  O  O7  1  0.74404339  0.37202119  0.43052996  1
loop_
_geom_bond_atom_site_label_1
_geom_bond_atom_site_label_2
_geom_bond_distance
_geom_bond_site_symmetry_2
K0 O5 2.889426 1_545
K0 O4 2.889429 1_555
K0 O3 2.915392 1_545
K0 O3 2.915398 1_555
K0 O7 3.067652 1_555
K0 O0 3.083457 1_556
K0 O1 3.083459 1_556
K1 O6 2.469527 1_555
K1 O7 2.638349 1_455
K1 O1 2.962701 1_455
K1 O0 2.962704 1_455
K1 Mg0 2.965391 1_555
K1 O2 3.030965 1_565
K1 O2 3.030970 1_555
Mg0 O0 1.988915 1_565
Mg0 O1 1.988915 1_555
Mg0 O3 2.064394 1_554
Mg0 O4 2.264895 1_554
Mg0 O5 2.264895 1_554
O0 V0 1.914985 1_555
O0 Tb0 2.492983 1_654
O0 Rb0 3.227438 1_545
O1 V0 1.914989 1_555
O1 Tb0 2.492983 1_664
O1 Rb0 3.227438 1_555
O2 V0 1.828589 1_555
O2 Tb0 2.226555 1_554
O2 Rb0 2.995878 1_445
O3 V1 1.930238 1_555
O3 Tb0 2.389631 1_665
O3 Rb0 2.999960 1_555
O4 V1 1.862408 1_555
O4 Tb0 2.210063 1_555
O5 V1 1.862404 1_555
O5 Tb0 2.210063 1_565
O6 V1 1.702915 1_555
O6 Rb0 2.939520 1_555
O7 V0 1.732261 1_555
O7 Rb0 3.031251 1_545
O7 Rb0 3.031257 1_555
