# generated using pymatgen
data_BaGdFe2O5
_symmetry_space_group_name_H-M   'P 1'
_cell_length_a   3.99556500
_cell_length_b   3.99556500
_cell_length_c   7.62924300
_cell_angle_alpha   90.00000000
_cell_angle_beta   90.00000000
_cell_angle_gamma   90.00000000
_symmetry_Int_Tables_number   1
_chemical_formula_structural   BaGdFe2O5
_chemical_formula_sum   'Ba1 Gd1 Fe2 O5'
_cell_volume   121.79735252
_cell_formula_units_Z   1
loop_
 _symmetry_equiv_pos_site_id
 _symmetry_equiv_pos_as_xyz
  1  'x, y, z'
loop_
 _atom_site_type_symbol
 _atom_site_label
 _atom_site_symmetry_multiplicity
 _atom_site_fract_x
 _atom_site_fract_y
 _atom_site_fract_z
 _atom_site_occupancy
  Ba  Ba0  1  0.00000000  0.00000000  0.00000000  1
  Gd  Gd0  1  0.00000000  0.00000000  0.50000000  1
  Fe  Fe0  1  0.50000000  0.50000000  0.26675000  1
  Fe  Fe1  1  0.50000000  0.50000000  0.73325000  1
  O  O0  1  0.50000000  0.00000000  0.30986600  1
  O  O1  1  0.50000000  0.00000000  0.69013400  1
  O  O2  1  0.00000000  0.50000000  0.30986600  1
  O  O3  1  0.00000000  0.50000000  0.69013400  1
  O  O4  1  0.50000000  0.50000000  0.00000000  1
loop_
_geom_bond_atom_site_label_1
_geom_bond_atom_site_label_2
_geom_bond_distance
_geom_bond_site_symmetry_2
Ba0 O4 2.825291 1_545
Ba0 O4 2.825291 1_455
Ba0 O4 2.825291 1_555
Ba0 O4 2.825291 1_445
Ba0 O0 3.095131 1_455
Ba0 O0 3.095131 1_555
Ba0 O2 3.095131 1_555
Ba0 O3 3.095131 1_554
Ba0 O2 3.095131 1_545
Ba0 O1 3.095131 1_554
Ba0 O3 3.095131 1_544
Ba0 O1 3.095131 1_454
Gd0 O0 2.468869 1_455
Gd0 O3 2.468869 1_555
Gd0 O0 2.468869 1_555
Gd0 O2 2.468869 1_555
Gd0 O1 2.468869 1_455
Gd0 O2 2.468869 1_545
Gd0 O1 2.468869 1_555
Gd0 O3 2.468869 1_545
Fe0 O2 2.024682 1_555
Fe0 O2 2.024682 1_655
Fe0 O0 2.024682 1_565
Fe0 O0 2.024682 1_555
Fe0 O4 2.035101 1_555
Fe1 O3 2.024682 1_655
Fe1 O1 2.024682 1_565
Fe1 O3 2.024682 1_555
Fe1 O1 2.024682 1_555
Fe1 O4 2.035101 1_556
