# generated using pymatgen
data_Li2FePCO7
_symmetry_space_group_name_H-M   'P 1'
_cell_length_a   5.09404801
_cell_length_b   10.68373931
_cell_length_c   10.68358230
_cell_angle_alpha   73.62442870
_cell_angle_beta   87.02213151
_cell_angle_gamma   87.02298368
_symmetry_Int_Tables_number   1
_chemical_formula_structural   Li2FePCO7
_chemical_formula_sum   'Li8 Fe4 P4 C4 O28'
_cell_volume   556.67595461
_cell_formula_units_Z   4
loop_
 _symmetry_equiv_pos_site_id
 _symmetry_equiv_pos_as_xyz
  1  'x, y, z'
loop_
 _atom_site_type_symbol
 _atom_site_label
 _atom_site_symmetry_multiplicity
 _atom_site_fract_x
 _atom_site_fract_y
 _atom_site_fract_z
 _atom_site_occupancy
  Li  Li0  1  0.78514300  0.40023800  0.38766400  1
  Li  Li1  1  0.78514500  0.90023800  0.88766400  1
  Li  Li2  1  0.21485800  0.59976300  0.61233500  1
  Li  Li3  1  0.21485600  0.09976300  0.11233500  1
  Li  Li4  1  0.21485100  0.36233500  0.84976500  1
  Li  Li5  1  0.21484900  0.86233600  0.34976500  1
  Li  Li6  1  0.78515100  0.63766600  0.15023400  1
  Li  Li7  1  0.78515300  0.13766400  0.65023400  1
  Fe  Fe0  1  0.78607100  0.05164300  0.30152400  1
  Fe  Fe1  1  0.21393100  0.94835700  0.69847600  1
  Fe  Fe2  1  0.78625700  0.55174100  0.80141400  1
  Fe  Fe3  1  0.21370700  0.44826400  0.19860400  1
  P  P0  1  0.72736400  0.33715400  0.08711500  1
  P  P1  1  0.72738900  0.83714500  0.58712500  1
  P  P2  1  0.27263400  0.66284500  0.91288400  1
  P  P3  1  0.27261200  0.16285400  0.41287400  1
  C  C0  1  0.74287800  0.40489600  0.65489900  1
  C  C1  1  0.74289900  0.90489400  0.15489500  1
  C  C2  1  0.25712500  0.59510400  0.34510100  1
  C  C3  1  0.25710300  0.09510500  0.84510500  1
  O  O0  1  0.97386000  0.43491700  0.68492000  1
  O  O1  1  0.97385900  0.93491200  0.18491500  1
  O  O2  1  0.02614100  0.56508200  0.31507900  1
  O  O3  1  0.02614200  0.06508700  0.81508400  1
  O  O4  1  0.45788300  0.54197600  0.29197800  1
  O  O5  1  0.45790300  0.04197900  0.79198200  1
  O  O6  1  0.54211900  0.45802200  0.70802300  1
  O  O7  1  0.54209900  0.95802000  0.20801800  1
  O  O8  1  0.16907200  0.57901900  0.82901100  1
  O  O9  1  0.16907600  0.07902300  0.32901100  1
  O  O10  1  0.83093000  0.42098000  0.17098900  1
  O  O11  1  0.83092600  0.92097700  0.67098900  1
  O  O12  1  0.42062000  0.34732400  0.09734100  1
  O  O13  1  0.42062700  0.84730700  0.59733000  1
  O  O14  1  0.57938000  0.65267600  0.90265900  1
  O  O15  1  0.57937400  0.15269300  0.40266900  1
  O  O16  1  0.71388600  0.83203300  0.08203400  1
  O  O17  1  0.71389400  0.33203400  0.58203300  1
  O  O18  1  0.28611500  0.16796500  0.91796600  1
  O  O19  1  0.28610600  0.66796500  0.41796700  1
  O  O20  1  0.17198400  0.80598600  0.86302400  1
  O  O21  1  0.17199000  0.30598700  0.36302300  1
  O  O22  1  0.17188700  0.61304000  0.05598200  1
  O  O23  1  0.17189100  0.11305000  0.55597600  1
  O  O24  1  0.82811400  0.38696000  0.94401800  1
  O  O25  1  0.82810900  0.88695000  0.44402300  1
  O  O26  1  0.82801700  0.19401300  0.13697500  1
  O  O27  1  0.82801100  0.69401200  0.63697600  1
loop_
_geom_bond_atom_site_label_1
_geom_bond_atom_site_label_2
_geom_bond_distance
_geom_bond_site_symmetry_2
Li0 O17 2.017609 1_555
Li0 O2 2.136755 1_655
Li0 O21 2.203644 1_655
Li0 O10 2.263212 1_555
Li0 O4 2.271397 1_555
Li1 O16 2.017627 1_556
Li1 O3 2.136787 1_665
Li1 O20 2.203612 1_655
Li1 O11 2.263216 1_555
Li1 O5 2.271334 1_565
Li2 O19 2.017597 1_555
Li2 O0 2.136771 1_455
Li2 O27 2.203635 1_455
Li2 O8 2.263219 1_555
Li2 O6 2.271423 1_555
Li3 O18 2.017615 1_554
Li3 O1 2.136803 1_445
Li3 O26 2.203602 1_455
Li3 O9 2.263225 1_555
Li3 O7 2.271352 1_545
Li4 O18 2.017662 1_555
Li4 O0 2.136742 1_455
Li4 O24 2.203119 1_455
Li4 O8 2.263320 1_555
Li4 O6 2.271417 1_555
Li5 O19 2.017667 1_555
Li5 O1 2.136773 1_455
Li5 O25 2.203132 1_455
Li5 O9 2.263350 1_565
Li5 O7 2.271368 1_555
Li6 O16 2.017632 1_555
Li6 O2 2.136741 1_655
Li6 O22 2.203112 1_655
Li6 O10 2.263339 1_555
Li6 O4 2.271437 1_555
Li7 O17 2.017658 1_555
Li7 O3 2.136771 1_655
Li7 O23 2.203124 1_655
Li7 O11 2.263348 1_545
Li7 O5 2.271376 1_555
Fe0 O15 1.965543 1_555
Fe0 O26 1.984107 1_555
Fe0 O25 1.985908 1_545
Fe0 O9 2.036082 1_655
Fe0 O7 2.089152 1_545
Fe0 O1 2.156559 1_545
Fe1 O13 1.965548 1_555
Fe1 O20 1.984106 1_555
Fe1 O23 1.985914 1_565
Fe1 O11 2.036082 1_455
Fe1 O5 2.089145 1_565
Fe1 O3 2.156545 1_565
Fe2 O14 1.965875 1_555
Fe2 O27 1.982668 1_555
Fe2 O24 1.987025 1_555
Fe2 O8 2.035161 1_655
Fe2 O6 2.089567 1_555
Fe2 O0 2.156029 1_555
Fe3 O12 1.966129 1_555
Fe3 O21 1.982547 1_555
Fe3 O22 1.987071 1_555
Fe3 O10 2.035033 1_455
Fe3 O4 2.089527 1_555
Fe3 O2 2.155766 1_555
C0 O17 1.264658 1_555
C0 O0 1.314010 1_555
C0 O6 1.323321 1_555
C1 O16 1.264633 1_555
C1 O1 1.313891 1_555
C1 O7 1.323468 1_555
C2 O19 1.264646 1_555
C2 O2 1.314027 1_555
C2 O4 1.323323 1_555
C3 O18 1.264624 1_555
C3 O3 1.313900 1_555
C3 O5 1.323468 1_555
O8 P2 1.560123 1_555
O9 P3 1.560030 1_555
O10 P0 1.560139 1_555
O11 P1 1.560048 1_555
O12 P0 1.560988 1_555
O13 P1 1.561067 1_555
O14 P2 1.560997 1_555
O15 P3 1.561067 1_555
O20 P2 1.540430 1_555
O21 P3 1.540305 1_555
O22 P2 1.540097 1_554
O23 P3 1.540094 1_555
O24 P0 1.540093 1_556
O25 P1 1.540093 1_555
O26 P0 1.540435 1_555
O27 P1 1.540305 1_555
