# generated using pymatgen
data_Sr4MgMn4O10
_symmetry_space_group_name_H-M   'P 1'
_cell_length_a   5.75200169
_cell_length_b   5.73685708
_cell_length_c   9.13041096
_cell_angle_alpha   110.41541062
_cell_angle_beta   103.37940234
_cell_angle_gamma   96.19044227
_symmetry_Int_Tables_number   1
_chemical_formula_structural   Sr4MgMn4O10
_chemical_formula_sum   'Sr4 Mg1 Mn4 O10'
_cell_volume   268.76275764
_cell_formula_units_Z   1
loop_
 _symmetry_equiv_pos_site_id
 _symmetry_equiv_pos_as_xyz
  1  'x, y, z'
loop_
 _atom_site_type_symbol
 _atom_site_label
 _atom_site_symmetry_multiplicity
 _atom_site_fract_x
 _atom_site_fract_y
 _atom_site_fract_z
 _atom_site_occupancy
  Sr  Sr0  1  0.62895465  0.11976394  0.23282320  1
  Sr  Sr1  1  0.51030503  0.85968775  0.82064844  1
  Sr  Sr2  1  0.09659104  0.65778767  0.22215293  1
  Sr  Sr3  1  0.88561596  0.43089306  0.78683117  1
  Mg  Mg0  1  0.12427722  0.00712077  0.65145730  1
  Mn  Mn0  1  0.05466369  0.02233823  0.02270141  1
  Mn  Mn1  1  0.49851264  0.48345201  0.99254472  1
  Mn  Mn2  1  0.21334185  0.35673087  0.50128493  1
  Mn  Mn3  1  0.63495715  0.78698898  0.47653429  1
  O  O0  1  0.23801590  0.18427572  0.91222877  1
  O  O1  1  0.25782247  0.76357932  0.99887800  1
  O  O2  1  0.81579724  0.24414689  0.02038211  1
  O  O3  1  0.77507731  0.75307736  0.02383750  1
  O  O4  1  0.20621866  0.14889100  0.27364097  1
  O  O5  1  0.85259220  0.78580082  0.68394478  1
  O  O6  1  0.56352638  0.59085286  0.23514567  1
  O  O7  1  0.41455473  0.36186265  0.72839944  1
  O  O8  1  0.88873171  0.12797033  0.50687196  1
  O  O9  1  0.28749317  0.74335077  0.52398042  1
loop_
_geom_bond_atom_site_label_1
_geom_bond_atom_site_label_2
_geom_bond_distance
_geom_bond_site_symmetry_2
Mg0 O8 2.018012 1_455
Mg0 O9 2.027126 1_545
Mg0 O5 2.047330 1_445
Mg0 O0 2.139482 1_555
Mg0 O7 2.269339 1_555
Mn0 O1 1.970529 1_544
Mn0 O2 1.972264 1_455
Mn0 O0 1.981785 1_554
Mn0 O4 2.077308 1_555
Mn0 O3 2.110837 1_445
Mn1 O0 1.946141 1_555
Mn1 O3 1.988850 1_556
Mn1 O6 2.010155 1_556
Mn1 O7 2.179684 1_555
Mn1 O1 2.225918 1_555
Mn1 O2 2.418504 1_556
Mn2 O4 1.991118 1_555
Mn2 O7 2.116544 1_555
Mn2 O9 2.139798 1_555
Mn2 O8 2.184835 1_455
Mn3 O6 2.010848 1_555
Mn3 O5 2.016710 1_555
Mn3 O9 2.147845 1_555
Mn3 O8 2.202972 1_565
O0 Sr1 2.601625 1_545
O0 Sr3 2.845319 1_455
O1 Sr3 2.568499 1_455
O1 Sr1 2.570650 1_555
O1 Sr2 2.645942 1_556
O1 Sr0 2.683107 1_566
O2 Sr1 2.480537 1_544
O2 Sr2 2.525894 1_655
O2 Sr0 2.681697 1_555
O2 Sr3 2.784525 1_554
O3 Sr1 2.412500 1_554
O3 Sr2 2.521197 1_655
O3 Sr3 2.569656 1_554
O3 Sr0 2.663798 1_565
O4 Sr0 2.557921 1_555
O4 Sr2 2.666825 1_545
O5 Sr3 2.529675 1_555
O5 Sr1 2.561652 1_555
O6 Sr2 2.735300 1_555
O6 Sr0 2.762071 1_555
O7 Sr3 2.595242 1_555
O7 Sr1 2.633840 1_555
O8 Sr3 2.546192 1_555
O8 Sr0 2.582281 1_555
O9 Sr1 2.524428 1_555
O9 Sr2 2.565299 1_555
