# generated using pymatgen
data_ZnCoPO5
_symmetry_space_group_name_H-M   'P 1'
_cell_length_a   5.50486482
_cell_length_b   6.99773480
_cell_length_c   8.07620663
_cell_angle_alpha   89.61687141
_cell_angle_beta   40.66390889
_cell_angle_gamma   73.32399745
_symmetry_Int_Tables_number   1
_chemical_formula_structural   ZnCoPO5
_chemical_formula_sum   'Zn2 Co2 P2 O10'
_cell_volume   182.76922566
_cell_formula_units_Z   2
loop_
 _symmetry_equiv_pos_site_id
 _symmetry_equiv_pos_as_xyz
  1  'x, y, z'
loop_
 _atom_site_type_symbol
 _atom_site_label
 _atom_site_symmetry_multiplicity
 _atom_site_fract_x
 _atom_site_fract_y
 _atom_site_fract_z
 _atom_site_occupancy
  Zn  Zn0  1  0.37378300  0.23929500  0.74484400  1
  Zn  Zn1  1  0.62040700  0.73202300  0.24843200  1
  Co  Co0  1  0.49800100  0.48595300  0.99644500  1
  Co  Co1  1  0.49987700  0.98593800  0.99488400  1
  P  P0  1  0.55225000  0.22813700  0.32518400  1
  P  P1  1  0.44715700  0.74233000  0.66610500  1
  O  O0  1  0.52030400  0.05117500  0.23746700  1
  O  O1  1  0.70371600  0.36331800  0.13352500  1
  O  O2  1  0.48112000  0.91987200  0.75150400  1
  O  O3  1  0.29041400  0.61035900  0.86159800  1
  O  O4  1  0.85788000  0.59997100  0.36574000  1
  O  O5  1  0.14883200  0.83601600  0.66865900  1
  O  O6  1  0.14124200  0.36799100  0.62704300  1
  O  O7  1  0.85236700  0.13378400  0.32075900  1
  O  O8  1  0.48505500  0.73687500  0.08248800  1
  O  O9  1  0.51432400  0.23409100  0.90734000  1
loop_
_geom_bond_atom_site_label_1
_geom_bond_atom_site_label_2
_geom_bond_distance
_geom_bond_site_symmetry_2
Co0 O8 1.854851 1_556
Co0 O9 1.860159 1_555
Co0 O4 2.103105 1_456
Co0 O6 2.109301 1_655
Co0 O3 2.134047 1_555
Co0 O1 2.139164 1_556
Co1 O9 1.870617 1_565
Co1 O8 1.876803 1_556
Co1 O7 2.095307 1_466
Co1 O5 2.100286 1_655
Co1 O0 2.105934 1_566
Co1 O2 2.106034 1_555
O0 P0 1.546600 1_555
O0 Zn1 2.159719 1_545
O1 P0 1.568787 1_555
O1 Zn0 2.201348 1_654
O1 Zn1 2.536871 1_555
O2 P1 1.547441 1_555
O2 Zn0 2.153351 1_565
O3 P1 1.568817 1_555
O3 Zn1 2.200221 1_456
O3 Zn0 2.556251 1_555
O4 P1 1.551717 1_555
O4 Zn1 2.152745 1_555
O5 P1 1.567821 1_555
O5 Zn1 2.090354 1_555
O6 P0 1.553465 1_555
O6 Zn0 2.128235 1_555
O7 P0 1.565685 1_555
O7 Zn0 2.108281 1_555
O8 Zn1 1.962715 1_555
O9 Zn0 1.961034 1_555
