# generated using pymatgen
data_Na5CaZr3SiP5O24
_symmetry_space_group_name_H-M   'P 1'
_cell_length_a   9.19091253
_cell_length_b   9.15604181
_cell_length_c   22.95735880
_cell_angle_alpha   89.95015248
_cell_angle_beta   90.11717811
_cell_angle_gamma   119.94682450
_symmetry_Int_Tables_number   1
_chemical_formula_structural   Na5CaZr3SiP5O24
_chemical_formula_sum   'Na15 Ca3 Zr9 Si3 P15 O72'
_cell_volume   1673.98089906
_cell_formula_units_Z   3
loop_
 _symmetry_equiv_pos_site_id
 _symmetry_equiv_pos_as_xyz
  1  'x, y, z'
loop_
 _atom_site_type_symbol
 _atom_site_label
 _atom_site_symmetry_multiplicity
 _atom_site_fract_x
 _atom_site_fract_y
 _atom_site_fract_z
 _atom_site_occupancy
  Na  Na0  1  0.64630021  0.01445839  0.24161122  1
  Na  Na1  1  0.36906505  0.35431544  0.24142056  1
  Na  Na2  1  0.98704478  0.63448173  0.24210585  1
  Na  Na3  1  0.63340347  0.62471014  0.74620166  1
  Na  Na4  1  0.98991452  0.36610141  0.74681847  1
  Na  Na5  1  0.38093115  0.01217176  0.74200256  1
  Na  Na6  1  0.65877897  0.97620259  0.58422953  1
  Na  Na7  1  0.33103156  0.30444864  0.92431224  1
  Na  Na8  1  0.32562842  0.03245370  0.41312475  1
  Na  Na9  1  0.99910918  0.00040842  0.49407078  1
  Na  Na10  1  0.98103968  0.98684237  0.00368307  1
  Na  Na11  1  0.68122134  0.33673929  0.84033236  1
  Na  Na12  1  0.68171436  0.34730637  0.33115440  1
  Na  Na13  1  0.33347466  0.66797508  0.15732122  1
  Na  Na14  1  0.32020600  0.66190629  0.66041838  1
  Ca  Ca0  1  0.99066870  0.99908983  0.35506053  1
  Ca  Ca1  1  0.66574607  0.33465991  0.67973686  1
  Ca  Ca2  1  0.66816691  0.33397876  0.17426523  1
  Zr  Zr0  1  0.99223228  0.99388013  0.85813770  1
  Zr  Zr1  1  0.00978315  0.00087260  0.64340676  1
  Zr  Zr2  1  0.99981335  0.00124728  0.14557067  1
  Zr  Zr3  1  0.67673437  0.33712174  0.98442693  1
  Zr  Zr4  1  0.66705173  0.33875277  0.48380817  1
  Zr  Zr5  1  0.33474644  0.66531848  0.01654440  1
  Zr  Zr6  1  0.32761386  0.65954602  0.51842046  1
  Zr  Zr7  1  0.33307853  0.66333492  0.31585507  1
  Zr  Zr8  1  0.33176446  0.66535774  0.81870865  1
  Si  Si0  1  0.36773709  0.03190932  0.58437669  1
  Si  Si1  1  0.62661276  0.66109479  0.91655798  1
  Si  Si2  1  0.03485879  0.37326365  0.91530317  1
  P  P0  1  0.29392333  0.99655057  0.25316112  1
  P  P1  1  0.70260542  0.70597878  0.25032954  1
  P  P2  1  0.00376575  0.29859105  0.25018432  1
  P  P3  1  0.28633562  0.29292523  0.75220396  1
  P  P4  1  0.00737595  0.71434047  0.75092905  1
  P  P5  1  0.70793230  0.99484480  0.74967365  1
  P  P6  1  0.96518420  0.33260727  0.58597130  1
  P  P7  1  0.66713878  0.63584166  0.58572044  1
  P  P8  1  0.97269438  0.63927955  0.08517115  1
  P  P9  1  0.66608393  0.02859996  0.08560708  1
  P  P10  1  0.36128242  0.33148957  0.08335785  1
  P  P11  1  0.33750337  0.96358976  0.91611639  1
  P  P12  1  0.62252251  0.96382780  0.41935802  1
  P  P13  1  0.34344628  0.37495965  0.41704782  1
  P  P14  1  0.03673835  0.65795361  0.41670475  1
  O  O0  1  0.22355064  0.02111472  0.31001448  1
  O  O1  1  0.80785471  0.78006176  0.30457545  1
  O  O2  1  0.97548022  0.19375459  0.30433698  1
  O  O3  1  0.19936403  0.19006285  0.80710284  1
  O  O4  1  0.99427261  0.80748404  0.80445152  1
  O  O5  1  0.81858289  0.00576263  0.80231165  1
  O  O6  1  0.78904318  0.97480687  0.69320291  1
  O  O7  1  0.17579926  0.20015035  0.69800803  1
  O  O8  1  0.02315802  0.82064764  0.69584117  1
  O  O9  1  0.79221722  0.82258090  0.19656097  1
  O  O10  1  0.02825126  0.20808910  0.19615452  1
  O  O11  1  0.17316033  0.97319321  0.20096741  1
  O  O12  1  0.90851542  0.36531302  0.64428911  1
  O  O13  1  0.47247746  0.09363490  0.64422866  1
  O  O14  1  0.64003173  0.54809313  0.64410456  1
  O  O15  1  0.91246817  0.55127663  0.14355962  1
  O  O16  1  0.64256862  0.08986548  0.14447046  1
  O  O17  1  0.45200467  0.35589035  0.14107376  1
  O  O18  1  0.45768785  0.31186476  0.03069556  1
  O  O19  1  0.84730317  0.53458100  0.03508766  1
  O  O20  1  0.68566180  0.15347826  0.03578751  1
  O  O21  1  0.47195358  0.15868412  0.52922312  1
  O  O22  1  0.69027179  0.53740879  0.53490907  1
  O  O23  1  0.84011455  0.30975238  0.53605774  1
  O  O24  1  0.53027296  0.69000970  0.96994626  1
  O  O25  1  0.16544890  0.47103641  0.96761165  1
  O  O26  1  0.30975577  0.84845627  0.96788288  1
  O  O27  1  0.52321463  0.85769893  0.47279173  1
  O  O28  1  0.33451828  0.47520167  0.46911802  1
  O  O29  1  0.14911414  0.66590748  0.46833454  1
  O  O30  1  0.12357993  0.64182006  0.35974478  1
  O  O31  1  0.51281096  0.87134675  0.36367266  1
  O  O32  1  0.35393243  0.47455351  0.35984980  1
  O  O33  1  0.11910370  0.48443312  0.85473173  1
  O  O34  1  0.36030389  0.88215060  0.85913061  1
  O  O35  1  0.51127130  0.63468511  0.85679525  1
  O  O36  1  0.03363756  0.82271659  0.41765759  1
  O  O37  1  0.79560443  0.98412264  0.41978740  1
  O  O38  1  0.19399521  0.19651715  0.41815987  1
  O  O39  1  0.02847010  0.19072452  0.91001635  1
  O  O40  1  0.18235270  0.98805630  0.90989195  1
  O  O41  1  0.81492726  0.82376761  0.91088804  1
  O  O42  1  0.96558082  0.16185407  0.58742686  1
  O  O43  1  0.18246204  0.01847922  0.58712686  1
  O  O44  1  0.82529484  0.81635006  0.58670010  1
  O  O45  1  0.98285238  0.81476119  0.08666153  1
  O  O46  1  0.82972506  0.01562714  0.08639319  1
  O  O47  1  0.18412224  0.16812281  0.08608713  1
  O  O48  1  0.69204241  0.15425297  0.75041709  1
  O  O49  1  0.46322742  0.31533875  0.74879708  1
  O  O50  1  0.85166894  0.53763973  0.74920058  1
  O  O51  1  0.66890640  0.52504363  0.24283822  1
  O  O52  1  0.85668637  0.33214036  0.24351390  1
  O  O53  1  0.47244565  0.14587630  0.24463291  1
  O  O54  1  0.63144822  0.48575386  0.92376161  1
  O  O55  1  0.84857686  0.34839947  0.92411864  1
  O  O56  1  0.49201157  0.14110521  0.92288257  1
  O  O57  1  0.62654585  0.13691523  0.42159704  1
  O  O58  1  0.50832847  0.36480336  0.42035616  1
  O  O59  1  0.86154653  0.49949300  0.42179803  1
  O  O60  1  0.33640916  0.48601610  0.07436285  1
  O  O61  1  0.14896195  0.66481033  0.07291866  1
  O  O62  1  0.51220173  0.85263039  0.07428993  1
  O  O63  1  0.34411919  0.84315814  0.57362324  1
  O  O64  1  0.51570997  0.66416682  0.57491703  1
  O  O65  1  0.14530410  0.47699753  0.57390161  1
  O  O66  1  0.30274140  0.82760434  0.25508726  1
  O  O67  1  0.52672492  0.69957392  0.25519006  1
  O  O68  1  0.17344993  0.47469451  0.25416403  1
  O  O69  1  0.29808562  0.47050017  0.75323258  1
  O  O70  1  0.17253589  0.70389767  0.75286461  1
  O  O71  1  0.52950530  0.83327555  0.75425701  1
loop_
_geom_bond_atom_site_label_1
_geom_bond_atom_site_label_2
_geom_bond_distance
_geom_bond_site_symmetry_2
Na0 O16 2.339197 1_555
Na0 O53 2.434354 1_555
Na0 O67 2.540398 1_545
Na0 O52 2.566317 1_555
Na0 O66 2.757322 1_545
Na0 O9 2.883723 1_545
Na1 O51 2.395397 1_555
Na1 O17 2.425792 1_555
Na1 O53 2.521993 1_555
Na1 O68 2.552243 1_555
Na1 O67 2.760319 1_555
Na1 O10 2.913133 1_555
Na1 O32 2.963605 1_555
Na2 O15 2.375666 1_555
Na2 O52 2.405907 1_555
Na2 O66 2.551359 1_655
Na2 O51 2.574683 1_555
Na2 O68 2.766232 1_655
Na2 O11 2.853229 1_655
Na2 O1 2.958127 1_555
Na2 O30 2.962294 1_655
Na3 O14 2.456768 1_555
Na3 O49 2.459753 1_555
Na3 O50 2.502121 1_555
Na3 O71 2.532730 1_555
Na3 O69 2.678582 1_555
Na3 O35 2.798031 1_555
Na4 O48 2.441963 1_555
Na4 O50 2.465176 1_555
Na4 O12 2.467302 1_555
Na4 O69 2.500643 1_655
Na4 O70 2.686866 1_655
Na4 O33 2.725708 1_655
Na5 O13 2.383462 1_555
Na5 O48 2.488006 1_555
Na5 O49 2.491113 1_555
Na5 O70 2.510151 1_545
Na5 O71 2.618693 1_545
Na5 O34 2.907718 1_545
Na6 O42 2.461694 1_565
Na6 O64 2.487257 1_555
Na6 O63 2.527310 1_555
Na6 O44 2.592967 1_555
Na6 O6 2.774030 1_555
Na6 O13 2.799217 1_565
Na6 O27 2.813672 1_555
Na6 O23 2.871850 1_565
Na7 O54 2.409049 1_555
Na7 O39 2.455776 1_555
Na7 O40 2.533086 1_545
Na7 O56 2.576126 1_555
Na7 O18 2.689644 1_556
Na7 O25 2.820817 1_555
Na7 O3 2.920282 1_555
Na8 O38 2.355609 1_555
Na8 O36 2.399196 1_545
Na8 O57 2.441080 1_555
Na8 O0 2.527533 1_555
Na8 O58 2.646752 1_555
Na8 O21 2.947404 1_555
Na8 O31 2.994840 1_545
Na9 O37 2.477453 1_545
Na9 O38 2.503153 1_655
Na9 O36 2.519481 1_645
Na9 O43 2.671814 1_655
Na9 O44 2.689608 1_545
Na9 O42 2.708577 1_555
Na10 O46 2.446761 1_565
Na10 O45 2.476386 1_555
Na10 O47 2.591451 1_665
Na10 O41 2.610538 1_554
Na10 O39 2.735535 1_664
Na10 O40 2.838226 1_654
Na11 O55 2.429301 1_555
Na11 O54 2.523990 1_555
Na11 O56 2.592647 1_555
Na11 O48 2.689866 1_555
Na11 O50 2.710075 1_555
Na11 O49 2.839034 1_555
Na12 O59 2.587539 1_555
Na12 O52 2.624925 1_555
Na12 O51 2.637710 1_555
Na12 O58 2.650959 1_555
Na12 O57 2.702075 1_555
Na12 O53 2.737770 1_555
Na13 O62 2.534712 1_555
Na13 O60 2.540491 1_555
Na13 O61 2.562974 1_555
Na13 O68 2.765091 1_555
Na13 O66 2.770202 1_555
Na13 O67 2.785375 1_555
Na14 O63 2.530750 1_555
Na14 O65 2.582832 1_555
Na14 O70 2.651095 1_555
Na14 O64 2.656930 1_555
Na14 O69 2.700443 1_555
Na14 O71 2.789050 1_555
Ca0 O2 2.190076 1_565
Ca0 O1 2.195478 1_555
Ca0 O37 2.281732 1_555
Ca0 O0 2.295465 1_665
Ca0 O36 2.336520 1_655
Ca0 O38 2.340756 1_665
Ca1 O13 2.184812 1_555
Ca1 O14 2.236396 1_555
Ca1 O12 2.258628 1_555
Ca1 O49 2.385855 1_555
Ca1 O50 2.395912 1_555
Ca1 O48 2.410839 1_555
Ca2 O17 2.226982 1_555
Ca2 O16 2.235158 1_555
Ca2 O15 2.245188 1_555
Ca2 O51 2.351934 1_555
Ca2 O52 2.355329 1_555
Ca2 O53 2.392847 1_555
O0 P0 1.523704 1_545
O1 P1 1.512668 1_555
O2 P2 1.511497 1_655
O3 P3 1.537803 1_555
O3 Zr0 2.194266 1_445
O4 P4 1.535114 1_655
O4 Zr0 2.113706 1_555
O5 P5 1.548621 1_545
O5 Zr0 2.089578 1_545
O6 P5 1.552748 1_555
O6 Zr1 2.237291 1_665
O7 P3 1.561018 1_555
O7 Zr1 2.108362 1_555
O8 P4 1.557402 1_555
O8 Zr1 2.094179 1_565
O9 P1 1.570294 1_555
O9 Zr2 2.139260 1_565
O10 P2 1.570015 1_555
O10 Zr2 2.124130 1_455
O11 P0 1.572080 1_555
O11 Zr2 2.149750 1_465
O12 P6 1.520743 1_555
O13 Si0 1.608376 1_555
O14 P7 1.517808 1_555
O15 P8 1.519308 1_555
O16 P9 1.520221 1_555
O17 P10 1.520137 1_555
O18 P10 1.562928 1_555
O18 Zr3 2.185951 1_554
O19 P8 1.569276 1_555
O19 Zr3 2.060442 1_554
O20 P9 1.562366 1_555
O20 Zr3 2.087625 1_554
O21 Si0 1.661445 1_555
O21 Zr4 2.018330 1_555
O22 P7 1.553168 1_555
O22 Zr4 2.084550 1_555
O23 P6 1.559830 1_555
O23 Zr4 2.110136 1_555
O24 Si1 1.611021 1_555
O24 Zr5 2.006687 1_556
O25 Si2 1.614711 1_555
O25 Zr5 2.019973 1_556
O26 P11 1.522927 1_555
O26 Zr5 2.119596 1_556
O27 P12 1.548908 1_555
O27 Zr6 2.090180 1_555
O28 P13 1.534795 1_555
O28 Zr6 2.060233 1_555
O29 P14 1.548224 1_555
O29 Zr6 2.025977 1_555
O30 P14 1.578334 1_555
O30 Zr7 2.095335 1_555
O31 P12 1.584993 1_555
O31 Zr7 2.101515 1_555
O32 P13 1.573463 1_555
O32 Zr7 2.090802 1_555
O33 Si2 1.668630 1_555
O33 Zr8 2.004985 1_555
O34 P11 1.571703 1_555
O34 Zr8 2.086246 1_555
O35 Si1 1.674317 1_555
O35 Zr8 2.005393 1_555
O36 P14 1.523180 1_555
O37 P12 1.506660 1_555
O38 P13 1.521928 1_555
O39 Si2 1.647388 1_555
O39 Zr0 2.044638 1_445
O40 P11 1.556294 1_555
O40 Zr0 2.133608 1_455
O41 Si1 1.630280 1_555
O41 Zr0 2.004692 1_555
O42 P6 1.565574 1_555
O42 Zr1 2.140470 1_655
O43 Si0 1.646258 1_555
O43 Zr1 1.991670 1_555
O44 P7 1.564091 1_555
O44 Zr1 2.135170 1_665
O45 P8 1.562609 1_555
O45 Zr2 2.122772 1_565
O46 P9 1.566757 1_555
O46 Zr2 2.122101 1_555
O47 P10 1.568818 1_555
O47 Zr2 2.119111 1_455
O48 P5 1.537780 1_545
O49 P3 1.535849 1_555
O50 P4 1.534730 1_655
O51 P1 1.535576 1_555
O52 P2 1.535839 1_655
O53 P0 1.536538 1_545
O54 Si1 1.636297 1_555
O54 Zr3 2.127145 1_555
O55 Si2 1.623658 1_655
O55 Zr3 2.065889 1_555
O56 P11 1.541950 1_545
O56 Zr3 2.247716 1_555
O57 P12 1.567550 1_545
O57 Zr4 2.215652 1_555
O58 P13 1.565605 1_555
O58 Zr4 2.155243 1_555
O59 P14 1.542542 1_655
O59 Zr4 2.183626 1_555
O60 P10 1.555292 1_555
O60 Zr5 2.116239 1_555
O61 P8 1.543376 1_455
O61 Zr5 2.142834 1_555
O62 P9 1.545275 1_565
O62 Zr5 2.135720 1_555
O63 Si0 1.649476 1_565
O63 Zr6 2.050290 1_555
O64 P7 1.557126 1_555
O64 Zr6 2.142567 1_555
O65 P6 1.543148 1_455
O65 Zr6 2.105346 1_555
O66 P0 1.589462 1_555
O66 Zr7 2.167857 1_555
O67 P1 1.592185 1_555
O67 Zr7 2.153396 1_555
O68 P2 1.590439 1_555
O68 Zr7 2.146462 1_555
O69 P3 1.574951 1_555
O69 Zr8 2.233784 1_555
O70 P4 1.568431 1_555
O70 Zr8 2.248729 1_555
O71 P5 1.570720 1_555
O71 Zr8 2.252433 1_555
