# generated using pymatgen
data_USnPd
_symmetry_space_group_name_H-M   'P 1'
_cell_length_a   4.95711421
_cell_length_b   4.95711916
_cell_length_c   5.90824110
_cell_angle_alpha   89.99976176
_cell_angle_beta   89.99980348
_cell_angle_gamma   120.00031294
_symmetry_Int_Tables_number   1
_chemical_formula_structural   USnPd
_chemical_formula_sum   'U2 Sn2 Pd2'
_cell_volume   125.73198028
_cell_formula_units_Z   2
loop_
 _symmetry_equiv_pos_site_id
 _symmetry_equiv_pos_as_xyz
  1  'x, y, z'
loop_
 _atom_site_type_symbol
 _atom_site_label
 _atom_site_symmetry_multiplicity
 _atom_site_fract_x
 _atom_site_fract_y
 _atom_site_fract_z
 _atom_site_occupancy
  U  U0  1  0.00000089  -0.00000050  -0.00001497  1
  U  U1  1  0.00000110  0.99999940  0.50001430  1
  Sn  Sn0  1  0.66666242  0.33333563  0.74990062  1
  Sn  Sn1  1  0.33333746  0.66666517  0.25009906  1
  Pd  Pd0  1  0.66667126  0.33333002  0.25004973  1
  Pd  Pd1  1  0.33332886  0.66667028  0.74995025  1
loop_
_geom_bond_atom_site_label_1
_geom_bond_atom_site_label_2
_geom_bond_distance
_geom_bond_site_symmetry_2
U0 U1 2.953948 1_544
U0 U1 2.954293 1_545
Sn0 U1 3.220334 1_655
Sn0 U1 3.220340 1_545
Sn0 U1 3.220397 1_645
Sn0 U0 3.220861 1_556
Sn0 U0 3.220889 1_666
Sn0 U0 3.220932 1_656
Sn1 U1 3.220420 1_545
Sn1 U1 3.220427 1_655
Sn1 U1 3.220459 1_555
Sn1 U0 3.220948 1_665
Sn1 U0 3.220976 1_555
Sn1 U0 3.220998 1_565
Pd0 Sn1 2.861977 1_545
Pd0 Sn1 2.861980 1_655
Pd0 Sn1 2.862007 1_555
Pd0 Sn0 2.953240 1_555
Pd0 Sn0 2.955002 1_554
Pd0 U1 3.220553 1_645
Pd0 U1 3.220569 1_545
Pd0 U1 3.220586 1_655
Pd0 U0 3.220824 1_655
Pd0 U0 3.220839 1_665
Pd0 U0 3.220858 1_555
Pd1 Sn0 2.861979 1_565
Pd1 Sn0 2.861981 1_455
Pd1 Sn0 2.862004 1_555
Pd1 Sn1 2.953241 1_555
Pd1 Sn1 2.955000 1_556
Pd1 U1 3.220462 1_555
Pd1 U1 3.220499 1_655
Pd1 U1 3.220514 1_545
Pd1 U0 3.220732 1_566
Pd1 U0 3.220763 1_556
Pd1 U0 3.220783 1_666
