# generated using pymatgen
data_HS7N
_symmetry_space_group_name_H-M   'P 1'
_cell_length_a   8.06140000
_cell_length_b   8.56557100
_cell_length_c   13.85305400
_cell_angle_alpha   90.00000000
_cell_angle_beta   90.00000000
_cell_angle_gamma   90.00000000
_symmetry_Int_Tables_number   1
_chemical_formula_structural   HS7N
_chemical_formula_sum   'H4 S28 N4'
_cell_volume   956.56022293
_cell_formula_units_Z   4
loop_
 _symmetry_equiv_pos_site_id
 _symmetry_equiv_pos_as_xyz
  1  'x, y, z'
loop_
 _atom_site_type_symbol
 _atom_site_label
 _atom_site_symmetry_multiplicity
 _atom_site_fract_x
 _atom_site_fract_y
 _atom_site_fract_z
 _atom_site_occupancy
  H  H0  1  0.20844300  0.37312400  0.25000000  1
  H  H1  1  0.70844200  0.12687600  0.75000000  1
  H  H2  1  0.29155800  0.87312400  0.25000000  1
  H  H3  1  0.79155800  0.62687600  0.75000000  1
  S  S0  1  0.77994000  0.11990500  0.25000000  1
  S  S1  1  0.27994000  0.38009500  0.75000000  1
  S  S2  1  0.72006000  0.61990500  0.25000000  1
  S  S3  1  0.22006000  0.88009500  0.75000000  1
  S  S4  1  0.25622400  0.16744000  0.14259700  1
  S  S5  1  0.75622400  0.33256000  0.85740300  1
  S  S6  1  0.24377600  0.66744000  0.35740300  1
  S  S7  1  0.74377600  0.83256000  0.64259700  1
  S  S8  1  0.74377600  0.83256000  0.85740300  1
  S  S9  1  0.24377600  0.66744000  0.14259700  1
  S  S10  1  0.75622400  0.33256000  0.64259700  1
  S  S11  1  0.25622400  0.16744000  0.35740300  1
  S  S12  1  0.48891200  0.21529700  0.08785000  1
  S  S13  1  0.98891200  0.28470300  0.91215000  1
  S  S14  1  0.01108800  0.71529700  0.41215000  1
  S  S15  1  0.51108800  0.78470300  0.58785000  1
  S  S16  1  0.51108800  0.78470300  0.91215000  1
  S  S17  1  0.01108800  0.71529700  0.08785000  1
  S  S18  1  0.98891200  0.28470300  0.58785000  1
  S  S19  1  0.48891200  0.21529700  0.41215000  1
  S  S20  1  0.65526500  0.04271800  0.12946300  1
  S  S21  1  0.15526500  0.45728200  0.87053700  1
  S  S22  1  0.84473500  0.54271800  0.37053700  1
  S  S23  1  0.34473500  0.95728200  0.62946300  1
  S  S24  1  0.34473500  0.95728200  0.87053700  1
  S  S25  1  0.84473500  0.54271800  0.12946300  1
  S  S26  1  0.15526500  0.45728200  0.62946300  1
  S  S27  1  0.65526500  0.04271800  0.37053700  1
  N  N0  1  0.22547100  0.25443600  0.25000000  1
  N  N1  1  0.72547100  0.24556400  0.75000000  1
  N  N2  1  0.27452900  0.75443600  0.25000000  1
  N  N3  1  0.77452900  0.74556400  0.75000000  1
loop_
_geom_bond_atom_site_label_1
_geom_bond_atom_site_label_2
_geom_bond_distance
_geom_bond_site_symmetry_2
H0 N0 1.025856 1_555
H1 N1 1.025857 1_555
H2 N2 1.025857 1_555
H3 N3 1.025857 1_555
S0 S20 2.058035 1_555
S0 S27 2.058035 1_555
S1 S21 2.058035 1_555
S1 S26 2.058035 1_555
S2 S22 2.058035 1_555
S2 S25 2.058035 1_555
S10 S18 2.064417 1_555
S11 S19 2.064417 1_555
S12 S4 2.064417 1_555
S12 S20 2.077471 1_555
S13 S5 2.064417 1_555
S13 S21 2.077471 1_655
S14 S6 2.064417 1_555
S14 S22 2.077471 1_455
S15 S7 2.064417 1_555
S15 S23 2.077471 1_555
S16 S8 2.064417 1_555
S16 S24 2.077471 1_555
S17 S9 2.064417 1_555
S17 S25 2.077471 1_455
S18 S26 2.077471 1_655
S19 S27 2.077471 1_555
S23 S3 2.058035 1_555
S24 S3 2.058035 1_555
N0 S4 1.682399 1_555
N0 S11 1.682399 1_555
N1 S10 1.682399 1_555
N1 S5 1.682399 1_555
N2 S9 1.682399 1_555
N2 S6 1.682399 1_555
N3 S8 1.682399 1_555
N3 S7 1.682399 1_555
