# generated using pymatgen
data_NaZrTi(PO4)3
_symmetry_space_group_name_H-M   'P 1'
_cell_length_a   8.76096514
_cell_length_b   8.76096485
_cell_length_c   22.76961562
_cell_angle_alpha   90.00000000
_cell_angle_beta   90.00000000
_cell_angle_gamma   120.00000109
_symmetry_Int_Tables_number   1
_chemical_formula_structural   NaZrTi(PO4)3
_chemical_formula_sum   'Na6 Zr6 Ti6 P18 O72'
_cell_volume   1513.52715204
_cell_formula_units_Z   6
loop_
 _symmetry_equiv_pos_site_id
 _symmetry_equiv_pos_as_xyz
  1  'x, y, z'
loop_
 _atom_site_type_symbol
 _atom_site_label
 _atom_site_symmetry_multiplicity
 _atom_site_fract_x
 _atom_site_fract_y
 _atom_site_fract_z
 _atom_site_occupancy
  Na  Na0  1  -0.00000000  0.00000000  0.49773290  1
  Na  Na1  1  -0.00000000  0.00000000  0.99699360  1
  Na  Na2  1  0.66666700  0.33333300  0.83655923  1
  Na  Na3  1  0.66666700  0.33333300  0.33076933  1
  Na  Na4  1  0.33333300  0.66666700  0.16376495  1
  Na  Na5  1  0.33333300  0.66666700  0.66898263  1
  Zr  Zr0  1  -0.00000000  -0.00000000  0.64866073  1
  Zr  Zr1  1  -0.00000000  0.00000000  0.14297797  1
  Zr  Zr2  1  0.66666700  0.33333300  0.69037870  1
  Zr  Zr3  1  0.66666700  0.33333300  0.47864316  1
  Zr  Zr4  1  0.33333300  0.66666700  0.51850802  1
  Zr  Zr5  1  0.33333300  0.66666700  0.31118042  1
  Ti  Ti0  1  -0.00000000  0.00000000  0.35113797  1
  Ti  Ti1  1  -0.00000000  0.00000000  0.85447194  1
  Ti  Ti2  1  0.66666700  0.33333300  0.18578380  1
  Ti  Ti3  1  0.66666700  0.33333300  0.97954482  1
  Ti  Ti4  1  0.33333300  0.66666700  0.01833453  1
  Ti  Ti5  1  0.33333300  0.66666700  0.81634514  1
  P  P0  1  0.29326438  0.00976677  0.24977563  1
  P  P1  1  0.71650239  0.70673562  0.24977563  1
  P  P2  1  0.99023323  0.28349761  0.24977563  1
  P  P3  1  0.28492876  0.29334768  0.75498876  1
  P  P4  1  0.00841891  0.71507124  0.75498876  1
  P  P5  1  0.70665232  0.99158109  0.75498876  1
  P  P6  1  0.95905631  0.33388035  0.58394841  1
  P  P7  1  0.37482503  0.04094369  0.58394841  1
  P  P8  1  0.66611965  0.62517497  0.58394841  1
  P  P9  1  0.95259335  0.60973390  0.08139961  1
  P  P10  1  0.65714154  0.04740665  0.08139961  1
  P  P11  1  0.39026610  0.34285846  0.08139961  1
  P  P12  1  0.62022014  0.66684234  0.91728142  1
  P  P13  1  0.04662120  0.37977986  0.91728142  1
  P  P14  1  0.33315766  0.95337880  0.91728142  1
  P  P15  1  0.63545472  0.95940078  0.41476015  1
  P  P16  1  0.32394506  0.36454528  0.41476015  1
  P  P17  1  0.04059922  0.67605494  0.41476015  1
  O  O0  1  0.19943278  0.03023815  0.30430583  1
  O  O1  1  0.83080537  0.80056722  0.30430583  1
  O  O2  1  0.96976185  0.16919463  0.30430583  1
  O  O3  1  0.19063971  0.17119169  0.80769538  1
  O  O4  1  0.98055198  0.80936029  0.80769538  1
  O  O5  1  0.82880831  0.01944802  0.80769538  1
  O  O6  1  0.78592468  0.96551506  0.69821245  1
  O  O7  1  0.17959038  0.21407532  0.69821245  1
  O  O8  1  0.03448494  0.82040962  0.69821245  1
  O  O9  1  0.79624431  0.81927127  0.19465628  1
  O  O10  1  0.02302696  0.20375569  0.19465628  1
  O  O11  1  0.18072873  0.97697304  0.19465628  1
  O  O12  1  0.87129282  0.35716186  0.63914419  1
  O  O13  1  0.48587004  0.12870718  0.63914419  1
  O  O14  1  0.64283814  0.51412996  0.63914419  1
  O  O15  1  0.86409714  0.50055184  0.13759537  1
  O  O16  1  0.63645570  0.13590286  0.13759537  1
  O  O17  1  0.49944816  0.36354430  0.13759537  1
  O  O18  1  0.47716500  0.31382440  0.02673598  1
  O  O19  1  0.83666040  0.52283500  0.02673598  1
  O  O20  1  0.68617560  0.16333960  0.02673598  1
  O  O21  1  0.46065934  0.15163941  0.52871071  1
  O  O22  1  0.69098107  0.53934066  0.52871071  1
  O  O23  1  0.84836059  0.30901893  0.52871071  1
  O  O24  1  0.53094277  0.69535358  0.97181905  1
  O  O25  1  0.16440981  0.46905723  0.97181905  1
  O  O26  1  0.30464642  0.83559019  0.97181905  1
  O  O27  1  0.54881737  0.84795712  0.46993633  1
  O  O28  1  0.29913875  0.45118263  0.46993633  1
  O  O29  1  0.15204288  0.70086125  0.46993633  1
  O  O30  1  0.12703392  0.64320404  0.36125404  1
  O  O31  1  0.51616912  0.87296608  0.36125404  1
  O  O32  1  0.35679596  0.48383088  0.36125404  1
  O  O33  1  0.13491800  0.49697071  0.86276562  1
  O  O34  1  0.36205172  0.86508200  0.86276562  1
  O  O35  1  0.50302929  0.63794828  0.86276562  1
  O  O36  1  0.02357753  0.84104605  0.40623239  1
  O  O37  1  0.81746852  0.97642247  0.40623239  1
  O  O38  1  0.15895395  0.18253148  0.40623239  1
  O  O39  1  0.02722161  0.19512542  0.90937576  1
  O  O40  1  0.16790382  0.97277839  0.90937576  1
  O  O41  1  0.80487458  0.83209618  0.90937576  1
  O  O42  1  0.97715101  0.16932409  0.58907749  1
  O  O43  1  0.19217309  0.02284899  0.58907749  1
  O  O44  1  0.83067591  0.80782691  0.58907749  1
  O  O45  1  0.97168406  0.79483535  0.08635332  1
  O  O46  1  0.82315129  0.02831594  0.08635332  1
  O  O47  1  0.20516465  0.17684871  0.08635332  1
  O  O48  1  0.69064511  0.15873263  0.74921153  1
  O  O49  1  0.46808852  0.30935489  0.74921153  1
  O  O50  1  0.84126737  0.53191148  0.74921153  1
  O  O51  1  0.69866873  0.52349614  0.24164562  1
  O  O52  1  0.82482842  0.30133127  0.24164562  1
  O  O53  1  0.47650386  0.17517158  0.24164562  1
  O  O54  1  0.63991205  0.50192482  0.92505943  1
  O  O55  1  0.86201377  0.36008795  0.92505943  1
  O  O56  1  0.49807518  0.13798623  0.92505943  1
  O  O57  1  0.65281933  0.14226069  0.42051103  1
  O  O58  1  0.48944235  0.34718067  0.42051103  1
  O  O59  1  0.85773931  0.51055765  0.42051103  1
  O  O60  1  0.36866240  0.50633006  0.07427263  1
  O  O61  1  0.13766666  0.63133760  0.07427263  1
  O  O62  1  0.49366994  0.86233334  0.07427263  1
  O  O63  1  0.35689608  0.85814202  0.57882561  1
  O  O64  1  0.50124495  0.64310392  0.57882561  1
  O  O65  1  0.14185798  0.49875505  0.57882561  1
  O  O66  1  0.31430094  0.84500644  0.25506150  1
  O  O67  1  0.53070450  0.68569906  0.25506150  1
  O  O68  1  0.15499356  0.46929550  0.25506150  1
  O  O69  1  0.30639199  0.47787839  0.76246523  1
  O  O70  1  0.17148540  0.69360801  0.76246523  1
  O  O71  1  0.52212161  0.82851460  0.76246523  1
loop_
_geom_bond_atom_site_label_1
_geom_bond_atom_site_label_2
_geom_bond_distance
_geom_bond_site_symmetry_2
Na0 O38 2.571054 1_555
Na0 O36 2.571054 1_545
Na0 O37 2.571054 1_445
Na0 O42 2.619835 1_455
Na0 O44 2.619835 1_445
Na0 O43 2.619835 1_555
Na1 O39 2.559620 1_555
Na1 O41 2.559620 1_445
Na1 O40 2.559620 1_545
Na1 O45 2.643176 1_446
Na1 O47 2.643176 1_556
Na1 O46 2.643177 1_456
Na2 O56 2.577490 1_555
Na2 O54 2.577490 1_555
Na2 O55 2.577490 1_555
Na2 O50 2.580886 1_555
Na2 O48 2.580886 1_555
Na2 O49 2.580886 1_555
Na3 O51 2.550533 1_555
Na3 O53 2.550533 1_555
Na3 O52 2.550533 1_555
Na3 O57 2.605619 1_555
Na3 O59 2.605620 1_555
Na3 O58 2.605620 1_555
Na4 O62 2.579928 1_555
Na4 O60 2.579928 1_555
Na4 O61 2.579929 1_555
Na4 O68 2.655344 1_555
Na4 O66 2.655344 1_555
Na4 O67 2.655344 1_555
Na5 O63 2.593164 1_555
Na5 O65 2.593164 1_555
Na5 O64 2.593164 1_555
Na5 O69 2.632816 1_555
Na5 O71 2.632816 1_555
Na5 O70 2.632816 1_555
O0 P0 1.548233 1_555
O0 Ti0 1.948642 1_555
O1 P1 1.548233 1_555
O1 Ti0 1.948642 1_665
O2 P2 1.548233 1_555
O2 Ti0 1.948642 1_655
O3 P3 1.543996 1_555
O3 Ti1 1.915304 1_555
O4 P4 1.543996 1_655
O4 Ti1 1.915304 1_665
O5 P5 1.543996 1_545
O5 Ti1 1.915304 1_655
O6 P5 1.537644 1_555
O6 Zr0 2.077299 1_665
O7 P3 1.537644 1_555
O7 Zr0 2.077299 1_555
O8 P4 1.537644 1_555
O8 Zr0 2.077299 1_565
O9 P1 1.531818 1_555
O9 Zr1 2.061979 1_665
O10 P2 1.531818 1_455
O10 Zr1 2.061979 1_555
O11 P0 1.531818 1_565
O11 Zr1 2.061979 1_565
O12 P6 1.539202 1_555
O12 Zr2 2.060122 1_555
O13 P7 1.539202 1_555
O13 Zr2 2.060122 1_555
O14 P8 1.539202 1_555
O14 Zr2 2.060122 1_555
O15 P9 1.552973 1_555
O15 Ti2 1.951397 1_555
O16 P10 1.552973 1_555
O16 Ti2 1.951397 1_555
O17 P11 1.552973 1_555
O17 Ti2 1.951397 1_555
O18 P11 1.545045 1_555
O18 Ti3 1.912169 1_554
O19 P9 1.545045 1_555
O19 Ti3 1.912169 1_554
O20 P10 1.545045 1_555
O20 Ti3 1.912169 1_554
O21 P7 1.535785 1_555
O21 Zr3 2.053767 1_555
O22 P8 1.535785 1_555
O22 Zr3 2.053767 1_555
O23 P6 1.535785 1_555
O23 Zr3 2.053767 1_555
O24 P12 1.552933 1_555
O24 Ti4 1.935736 1_556
O25 P13 1.552933 1_555
O25 Ti4 1.935735 1_556
O26 P14 1.552933 1_555
O26 Ti4 1.935735 1_556
O27 P15 1.538409 1_555
O27 Zr4 2.076372 1_555
O28 P16 1.538409 1_555
O28 Zr4 2.076372 1_555
O29 P17 1.538409 1_555
O29 Zr4 2.076372 1_555
O30 P17 1.535738 1_555
O30 Zr5 2.058473 1_555
O31 P15 1.535738 1_555
O31 Zr5 2.058473 1_555
O32 P16 1.535738 1_555
O32 Zr5 2.058473 1_555
O33 P13 1.548915 1_555
O33 Ti5 1.940322 1_555
O34 P14 1.548915 1_555
O34 Ti5 1.940322 1_555
O35 P12 1.548915 1_555
O35 Ti5 1.940322 1_555
O36 P17 1.537829 1_555
O36 Ti0 1.960446 1_565
O37 P15 1.537838 1_555
O37 Ti0 1.960446 1_665
O38 P16 1.537834 1_555
O38 Ti0 1.960446 1_555
O39 P13 1.550308 1_555
O39 Ti1 2.033317 1_555
O40 P14 1.550300 1_555
O40 Ti1 2.033317 1_565
O41 P12 1.550305 1_555
O41 Ti1 2.033317 1_665
O42 P6 1.531578 1_555
O42 Zr0 2.092422 1_655
O43 P7 1.531587 1_555
O43 Zr0 2.092422 1_555
O44 P8 1.531583 1_555
O44 Zr0 2.092422 1_665
O45 P9 1.548958 1_555
O45 Zr1 2.123389 1_665
O46 P10 1.548950 1_555
O46 Zr1 2.123390 1_655
O47 P11 1.548955 1_555
O47 Zr1 2.123389 1_555
O48 P5 1.544937 1_545
O48 Zr2 2.121293 1_555
O49 P3 1.544946 1_555
O49 Zr2 2.121293 1_555
O50 P4 1.544942 1_655
O50 Zr2 2.121293 1_555
O51 P1 1.544352 1_555
O51 Ti2 2.001243 1_555
O52 P2 1.544343 1_555
O52 Ti2 2.001243 1_555
O53 P0 1.544348 1_555
O53 Ti2 2.001243 1_555
O54 P12 1.548530 1_555
O54 Ti3 2.030242 1_555
O55 P13 1.548513 1_655
O55 Ti3 2.030242 1_555
O56 P14 1.548520 1_545
O56 Ti3 2.030242 1_555
O57 P15 1.537228 1_545
O57 Zr3 2.089467 1_555
O58 P16 1.537245 1_555
O58 Zr3 2.089468 1_555
O59 P17 1.537235 1_655
O59 Zr3 2.089467 1_555
O60 P11 1.544128 1_555
O60 Ti4 2.031273 1_555
O61 P9 1.544111 1_455
O61 Ti4 2.031273 1_555
O62 P10 1.544118 1_565
O62 Ti4 2.031273 1_555
O63 P7 1.533487 1_565
O63 Zr4 2.096806 1_555
O64 P8 1.533505 1_555
O64 Zr4 2.096806 1_555
O65 P6 1.533495 1_455
O65 Zr4 2.096806 1_555
O66 P0 1.548566 1_565
O66 Zr5 2.088608 1_555
O67 P1 1.548575 1_555
O67 Zr5 2.088608 1_555
O68 P2 1.548572 1_455
O68 Zr5 2.088608 1_555
O69 P3 1.540765 1_555
O69 Ti5 1.976371 1_555
O70 P4 1.540756 1_555
O70 Ti5 1.976371 1_555
O71 P5 1.540761 1_555
O71 Ti5 1.976371 1_555
