# generated using pymatgen
data_HfCuSi
_symmetry_space_group_name_H-M   'P 1'
_cell_length_a   3.86984772
_cell_length_b   6.41340148
_cell_length_c   7.21642365
_cell_angle_alpha   90.00000000
_cell_angle_beta   90.00000000
_cell_angle_gamma   90.00000000
_symmetry_Int_Tables_number   1
_chemical_formula_structural   HfCuSi
_chemical_formula_sum   'Hf4 Cu4 Si4'
_cell_volume   179.10360380
_cell_formula_units_Z   4
loop_
 _symmetry_equiv_pos_site_id
 _symmetry_equiv_pos_as_xyz
  1  'x, y, z'
loop_
 _atom_site_type_symbol
 _atom_site_label
 _atom_site_symmetry_multiplicity
 _atom_site_fract_x
 _atom_site_fract_y
 _atom_site_fract_z
 _atom_site_occupancy
  Hf  Hf0  1  0.25000000  0.50955949  0.30804003  1
  Hf  Hf1  1  0.75000000  0.49044051  0.69195997  1
  Hf  Hf2  1  0.25000000  0.00955949  0.19195997  1
  Hf  Hf3  1  0.75000000  0.99044051  0.80804003  1
  Cu  Cu0  1  0.75000000  0.83083349  0.42219067  1
  Cu  Cu1  1  0.25000000  0.16916651  0.57780933  1
  Cu  Cu2  1  0.75000000  0.33083349  0.07780933  1
  Cu  Cu3  1  0.25000000  0.66916651  0.92219067  1
  Si  Si0  1  0.25000000  0.27983503  0.89906845  1
  Si  Si1  1  0.75000000  0.72016497  0.10093155  1
  Si  Si2  1  0.25000000  0.77983503  0.60093155  1
  Si  Si3  1  0.75000000  0.22016497  0.39906845  1
loop_
_geom_bond_atom_site_label_1
_geom_bond_atom_site_label_2
_geom_bond_distance
_geom_bond_site_symmetry_2
Hf0 Si2 2.733506 1_555
Hf0 Si3 2.760470 1_455
Hf0 Si3 2.760470 1_555
Hf0 Si1 2.793222 1_555
Hf0 Si1 2.793222 1_455
Hf1 Si3 2.733506 1_555
Hf1 Si2 2.760470 1_555
Hf1 Si2 2.760470 1_655
Hf1 Si0 2.793222 1_655
Hf1 Si0 2.793222 1_555
Hf2 Si0 2.733506 1_554
Hf2 Si1 2.760470 1_545
Hf2 Si1 2.760470 1_445
Hf2 Si3 2.793222 1_455
Hf2 Si3 2.793222 1_555
Hf3 Si1 2.733506 1_556
Hf3 Si0 2.760470 1_565
Hf3 Si0 2.760470 1_665
Hf3 Si2 2.793222 1_655
Hf3 Si2 2.793222 1_555
Cu0 Si2 2.348334 1_655
Cu0 Si2 2.348334 1_555
Cu0 Si1 2.424556 1_555
Cu0 Si3 2.502508 1_565
Cu0 Hf2 2.796103 1_565
Cu0 Hf2 2.796103 1_665
Cu0 Hf1 2.925019 1_555
Cu0 Hf0 2.944147 1_655
Cu0 Hf0 2.944147 1_555
Cu0 Hf3 2.966645 1_555
Cu1 Si3 2.348334 1_455
Cu1 Si3 2.348334 1_555
Cu1 Si0 2.424556 1_555
Cu1 Si2 2.502508 1_545
Cu1 Hf3 2.796103 1_545
Cu1 Hf3 2.796103 1_445
Cu1 Hf0 2.925019 1_555
Cu1 Hf1 2.944147 1_555
Cu1 Hf1 2.944147 1_455
Cu1 Hf2 2.966645 1_555
Cu2 Si0 2.348334 1_654
Cu2 Si0 2.348334 1_554
Cu2 Si3 2.424556 1_555
Cu2 Si1 2.502508 1_555
Cu2 Hf0 2.796103 1_555
Cu2 Hf0 2.796103 1_655
Cu2 Hf3 2.925019 1_544
Cu2 Hf2 2.944147 1_555
Cu2 Hf2 2.944147 1_655
Cu2 Hf1 2.966645 1_554
Cu3 Si1 2.348334 1_456
Cu3 Si1 2.348334 1_556
Cu3 Si2 2.424556 1_555
Cu3 Si0 2.502508 1_555
Cu3 Hf1 2.796103 1_555
Cu3 Hf1 2.796103 1_455
Cu3 Hf2 2.925019 1_566
Cu3 Hf3 2.944147 1_555
Cu3 Hf3 2.944147 1_455
Cu3 Hf0 2.966645 1_556
