# generated using pymatgen
data_MgFe3Pb4ClO8
_symmetry_space_group_name_H-M   'P 1'
_cell_length_a   4.04454349
_cell_length_b   4.00654407
_cell_length_c   17.62126858
_cell_angle_alpha   90.05260258
_cell_angle_beta   90.07962249
_cell_angle_gamma   90.46061562
_symmetry_Int_Tables_number   1
_chemical_formula_structural   MgFe3Pb4ClO8
_chemical_formula_sum   'Mg1 Fe3 Pb4 Cl1 O8'
_cell_volume   285.53671728
_cell_formula_units_Z   1
loop_
 _symmetry_equiv_pos_site_id
 _symmetry_equiv_pos_as_xyz
  1  'x, y, z'
loop_
 _atom_site_type_symbol
 _atom_site_label
 _atom_site_symmetry_multiplicity
 _atom_site_fract_x
 _atom_site_fract_y
 _atom_site_fract_z
 _atom_site_occupancy
  Mg  Mg0  1  0.86718300  0.99796900  0.11873400  1
  Fe  Fe0  1  0.49388500  0.49414400  0.84717000  1
  Fe  Fe1  1  0.48846200  0.48901400  0.39042900  1
  Fe  Fe2  1  0.48679400  0.50551400  0.61874200  1
  Pb  Pb0  1  0.04660600  0.95783900  0.72153000  1
  Pb  Pb1  1  0.98790800  0.98946900  0.28402400  1
  Pb  Pb2  1  0.03511300  0.94640100  0.51603800  1
  Pb  Pb3  1  0.99444100  0.99503400  0.95369200  1
  Cl  Cl0  1  0.48722300  0.49362100  0.11879500  1
  O  O0  1  0.43124600  0.02184800  0.61912200  1
  O  O1  1  0.44543900  0.53515500  0.73642200  1
  O  O2  1  0.99059400  0.49539300  0.89310300  1
  O  O3  1  0.45195400  0.54240000  0.50116600  1
  O  O4  1  0.48446700  0.99230500  0.34325800  1
  O  O5  1  0.96690400  0.55631500  0.61838800  1
  O  O6  1  0.98525200  0.49058900  0.34480000  1
  O  O7  1  0.48986500  0.99698800  0.89425500  1
loop_
_geom_bond_atom_site_label_1
_geom_bond_atom_site_label_2
_geom_bond_distance
_geom_bond_site_symmetry_2
Mg0 Pb1 2.952867 1_555
Mg0 Pb3 2.954177 1_554
Fe0 O1 1.968214 1_555
Fe0 O7 2.158423 1_545
Fe0 O2 2.164806 1_555
Fe0 O7 2.178311 1_555
Fe0 O2 2.191684 1_455
Fe1 O3 1.968698 1_555
Fe1 O4 2.155929 1_545
Fe1 O6 2.165192 1_555
Fe1 O4 2.181935 1_555
Fe1 O6 2.187339 1_455
Fe2 O0 1.949033 1_555
Fe2 O5 1.950855 1_555
Fe2 O3 2.081897 1_555
Fe2 O0 2.082679 1_565
Fe2 O1 2.083992 1_555
Fe2 O5 2.114175 1_455
Cl0 Mg0 2.520778 1_545
Cl0 Mg0 2.528819 1_555
O0 Pb0 2.396794 1_545
O0 Pb2 2.437422 1_545
O1 Pb0 2.362722 1_555
O2 Pb3 2.267817 1_555
O2 Pb3 2.272307 1_545
O3 Pb2 2.361226 1_555
O4 Pb1 2.262051 1_455
O4 Pb1 2.289525 1_555
O5 Pb2 2.402316 1_655
O5 Pb0 2.445374 1_655
O6 Pb1 2.268437 1_555
O6 Pb1 2.274770 1_545
O7 Pb3 2.262229 1_455
O7 Pb3 2.292624 1_555
