# generated using pymatgen
data_NaMgV4O10
_symmetry_space_group_name_H-M   'P 1'
_cell_length_a   4.06714000
_cell_length_b   6.31371484
_cell_length_c   8.83260475
_cell_angle_alpha   78.43434128
_cell_angle_beta   90.00000000
_cell_angle_gamma   71.21077174
_symmetry_Int_Tables_number   1
_chemical_formula_structural   NaMgV4O10
_chemical_formula_sum   'Na1 Mg1 V4 O10'
_cell_volume   209.85326677
_cell_formula_units_Z   1
loop_
 _symmetry_equiv_pos_site_id
 _symmetry_equiv_pos_as_xyz
  1  'x, y, z'
loop_
 _atom_site_type_symbol
 _atom_site_label
 _atom_site_symmetry_multiplicity
 _atom_site_fract_x
 _atom_site_fract_y
 _atom_site_fract_z
 _atom_site_occupancy
  Na  Na0  1  0.50000000  0.00000000  0.50000000  1
  Mg  Mg0  1  0.00000000  0.00000000  0.50000000  1
  V  V0  1  0.09594300  0.80811600  0.14820500  1
  V  V1  1  0.21088800  0.57822400  0.84721300  1
  V  V2  1  0.78911200  0.42177600  0.15278700  1
  V  V3  1  0.90405700  0.19188400  0.85179500  1
  O  O0  1  0.06585700  0.86828500  0.91773200  1
  O  O1  1  0.08707100  0.82586000  0.34332200  1
  O  O2  1  0.14100100  0.71799700  0.65539300  1
  O  O3  1  0.62949500  0.74100900  0.14854500  1
  O  O4  1  0.74461500  0.51077000  0.88754500  1
  O  O5  1  0.25538500  0.48923000  0.11245500  1
  O  O6  1  0.37050500  0.25899100  0.85145500  1
  O  O7  1  0.85899900  0.28200300  0.34460700  1
  O  O8  1  0.91292900  0.17414000  0.65667800  1
  O  O9  1  0.93414300  0.13171500  0.08226800  1
loop_
_geom_bond_atom_site_label_1
_geom_bond_atom_site_label_2
_geom_bond_distance
_geom_bond_site_symmetry_2
Na0 O1 2.782811 1_545
Na0 O8 2.782811 1_555
Na0 O1 2.782817 1_645
Na0 O8 2.782817 1_455
Na0 O2 2.807237 1_645
Na0 O7 2.807237 1_455
Na0 O2 2.807240 1_545
Na0 O7 2.807240 1_555
Mg0 O8 1.899643 1_455
Mg0 O1 1.899643 1_545
Mg0 O2 1.935247 1_545
Mg0 O7 1.935247 1_455
Mg0 Na0 2.033570 1_555
Mg0 Na0 2.033570 1_455
O0 V3 1.898241 1_465
O0 V1 1.962477 1_555
O0 V0 1.990787 1_556
O1 V0 1.748927 1_555
O2 V1 1.723081 1_555
O3 V2 1.900555 1_555
O3 V0 2.072625 1_555
O3 V0 2.072637 1_655
O4 V3 1.996925 1_555
O4 V1 2.089028 1_655
O4 V1 2.089028 1_555
O4 V2 2.289919 1_556
O5 V0 1.996925 1_555
O5 V2 2.089028 1_455
O5 V2 2.089028 1_555
O5 V1 2.289919 1_554
O6 V1 1.900555 1_555
O6 V3 2.072625 1_555
O6 V3 2.072637 1_455
O7 V2 1.723081 1_555
O8 V3 1.748927 1_555
O9 V0 1.898241 1_645
O9 V2 1.962477 1_555
O9 V3 1.990787 1_554
