# generated using pymatgen
data_MgNiP2O7
_symmetry_space_group_name_H-M   'P 1'
_cell_length_a   5.31491793
_cell_length_b   5.28094352
_cell_length_c   4.53365905
_cell_angle_alpha   81.77252185
_cell_angle_beta   98.19335702
_cell_angle_gamma   75.79459586
_symmetry_Int_Tables_number   1
_chemical_formula_structural   MgNiP2O7
_chemical_formula_sum   'Mg1 Ni1 P2 O7'
_cell_volume   119.97843306
_cell_formula_units_Z   1
loop_
 _symmetry_equiv_pos_site_id
 _symmetry_equiv_pos_as_xyz
  1  'x, y, z'
loop_
 _atom_site_type_symbol
 _atom_site_label
 _atom_site_symmetry_multiplicity
 _atom_site_fract_x
 _atom_site_fract_y
 _atom_site_fract_z
 _atom_site_occupancy
  Mg  Mg0  1  0.75810000  0.76479800  0.00457900  1
  Ni  Ni0  1  0.13541800  0.13550600  0.00104300  1
  P  P0  1  0.23599400  0.67389000  0.59397100  1
  P  P1  1  0.67343500  0.23615800  0.40747600  1
  O  O0  1  0.82672000  0.06970500  0.71567200  1
  O  O1  1  0.08423600  0.51703200  0.77551200  1
  O  O2  1  0.83831300  0.37231400  0.21786200  1
  O  O3  1  0.37066800  0.84067000  0.78274800  1
  O  O4  1  0.47482500  0.47799000  0.49684900  1
  O  O5  1  0.06765500  0.82912100  0.28749000  1
  O  O6  1  0.51969500  0.08037400  0.22721500  1
loop_
_geom_bond_atom_site_label_1
_geom_bond_atom_site_label_2
_geom_bond_distance
_geom_bond_site_symmetry_2
Mg0 O0 2.064484 1_564
Mg0 O5 2.065162 1_655
Mg0 O2 2.070743 1_555
Mg0 O3 2.074036 1_554
Mg0 O6 2.282821 1_565
Mg0 O1 2.363049 1_654
Ni0 O1 2.059383 1_554
Ni0 O5 2.062055 1_545
Ni0 O0 2.071226 1_454
Ni0 O6 2.081675 1_555
Ni0 O3 2.192106 1_544
Ni0 O2 2.201988 1_455
O0 P1 1.536645 1_555
O1 P0 1.528451 1_555
O2 P1 1.539799 1_555
O3 P0 1.539837 1_555
O4 P1 1.586762 1_555
O4 P0 1.587641 1_555
O5 P0 1.537157 1_555
O6 P1 1.531141 1_555
