# generated using pymatgen
data_Pr(GePt)2
_symmetry_space_group_name_H-M   'P 1'
_cell_length_a   4.38269630
_cell_length_b   4.38329374
_cell_length_c   9.96814626
_cell_angle_alpha   90.00000000
_cell_angle_beta   90.00000000
_cell_angle_gamma   90.00000000
_symmetry_Int_Tables_number   1
_chemical_formula_structural   Pr(GePt)2
_chemical_formula_sum   'Pr2 Ge4 Pt4'
_cell_volume   191.49452166
_cell_formula_units_Z   2
loop_
 _symmetry_equiv_pos_site_id
 _symmetry_equiv_pos_as_xyz
  1  'x, y, z'
loop_
 _atom_site_type_symbol
 _atom_site_label
 _atom_site_symmetry_multiplicity
 _atom_site_fract_x
 _atom_site_fract_y
 _atom_site_fract_z
 _atom_site_occupancy
  Pr  Pr0  1  0.25444724  0.00000000  0.74555099  1
  Pr  Pr1  1  0.75444724  0.50000000  0.25444901  1
  Ge  Ge0  1  0.25381542  0.00000000  0.12915855  1
  Ge  Ge1  1  0.75381542  0.50000000  0.87084145  1
  Ge  Ge2  1  0.25513268  0.50000000  0.49999183  1
  Ge  Ge3  1  0.75513268  0.00000000  0.50000817  1
  Pt  Pt0  1  0.25505087  0.00000000  0.37735760  1
  Pt  Pt1  1  0.75505087  0.50000000  0.62264240  1
  Pt  Pt2  1  0.25355379  0.50000000  -0.00000276  1
  Pt  Pt3  1  0.75355379  0.00000000  0.00000276  1
loop_
_geom_bond_atom_site_label_1
_geom_bond_atom_site_label_2
_geom_bond_distance
_geom_bond_site_symmetry_2
Pr0 Pt1 3.330883 1_445
Pr0 Pt1 3.330883 1_455
Pr0 Pt1 3.334362 1_555
Pr0 Pt1 3.334362 1_545
Pr0 Pt3 3.349365 1_556
Pr0 Pt2 3.352080 1_546
Pr0 Pt2 3.352080 1_556
Pr0 Pt3 3.354485 1_456
Pr1 Pt0 3.330883 1_565
Pr1 Pt0 3.330883 1_555
Pr1 Pt0 3.334362 1_655
Pr1 Pt0 3.334362 1_665
Pr1 Pt2 3.349365 1_655
Pr1 Pt3 3.352080 1_555
Pr1 Pt3 3.352080 1_565
Pr1 Pt2 3.354485 1_555
Ge0 Pt0 2.474090 1_555
Ge0 Pt3 2.540570 1_555
Ge0 Pt2 2.541844 1_545
Ge0 Pt2 2.541844 1_555
Ge0 Pt3 2.542547 1_455
Ge0 Pr1 3.339608 1_455
Ge0 Pr1 3.339608 1_445
Ge0 Pr1 3.343240 1_545
Ge0 Pr1 3.343240 1_555
Ge1 Pt1 2.474090 1_555
Ge1 Pt2 2.540570 1_656
Ge1 Pt3 2.541844 1_556
Ge1 Pt3 2.541844 1_566
Ge1 Pt2 2.542547 1_556
Ge1 Pr0 3.339608 1_565
Ge1 Pr0 3.339608 1_555
Ge1 Pr0 3.343240 1_655
Ge1 Pr0 3.343240 1_665
Ge2 Pt1 2.509020 1_555
Ge2 Pt0 2.509515 1_555
Ge2 Pt0 2.509515 1_565
Ge2 Pt1 2.509647 1_455
Ge2 Pr1 3.283234 1_555
Ge2 Pr0 3.285559 1_555
Ge2 Pr0 3.285559 1_565
Ge2 Pr1 3.287242 1_455
Ge3 Pt0 2.509020 1_655
Ge3 Pt1 2.509515 1_545
Ge3 Pt1 2.509515 1_555
Ge3 Pt0 2.509647 1_555
Ge3 Pr0 3.283234 1_655
Ge3 Pr1 3.285559 1_545
Ge3 Pr1 3.285559 1_555
Ge3 Pr0 3.287242 1_555
