# generated using pymatgen
data_MgMn6O11F
_symmetry_space_group_name_H-M   'P 1'
_cell_length_a   8.06192044
_cell_length_b   5.84680995
_cell_length_c   5.68970114
_cell_angle_alpha   66.90649264
_cell_angle_beta   64.75004643
_cell_angle_gamma   62.81558198
_symmetry_Int_Tables_number   1
_chemical_formula_structural   MgMn6O11F
_chemical_formula_sum   'Mg1 Mn6 O11 F1'
_cell_volume   209.18213204
_cell_formula_units_Z   1
loop_
 _symmetry_equiv_pos_site_id
 _symmetry_equiv_pos_as_xyz
  1  'x, y, z'
loop_
 _atom_site_type_symbol
 _atom_site_label
 _atom_site_symmetry_multiplicity
 _atom_site_fract_x
 _atom_site_fract_y
 _atom_site_fract_z
 _atom_site_occupancy
  Mg  Mg0  1  0.32825287  0.17469340  0.66611905  1
  Mn  Mn0  1  0.83192439  0.67045898  0.67240291  1
  Mn  Mn1  1  0.33233563  0.66343308  0.66236861  1
  Mn  Mn2  1  0.66970441  0.35102449  0.33779157  1
  Mn  Mn3  1  0.11469637  0.31291443  0.31061611  1
  Mn  Mn4  1  0.53842142  0.02300267  0.03166611  1
  Mn  Mn5  1  0.97662890  0.99355265  0.00823389  1
  O  O0  1  0.63010503  0.03143738  0.64612586  1
  O  O1  1  0.30956702  0.33543690  0.94834469  1
  O  O2  1  0.60875492  0.53697024  0.58877355  1
  O  O3  1  0.94562166  0.18604897  0.24520323  1
  O  O4  1  0.70786934  0.15274480  0.09442814  1
  O  O5  1  0.38798216  0.49264908  0.41215195  1
  O  O6  1  0.05152685  0.80037478  0.75701818  1
  O  O7  1  0.02679230  0.30278811  0.69834878  1
  O  O8  1  0.34764859  0.00237828  0.39522128  1
  O  O9  1  0.69549260  0.65623863  0.04674049  1
  O  O10  1  0.97400484  0.68448890  0.29857109  1
  F  F0  1  0.28192769  0.85436423  0.92987150  1
loop_
_geom_bond_atom_site_label_1
_geom_bond_atom_site_label_2
_geom_bond_distance
_geom_bond_site_symmetry_2
Mg0 O5 1.973039 1_555
Mg0 O8 2.069735 1_555
Mg0 O1 2.081506 1_555
Mg0 O7 2.136711 1_555
Mg0 O0 2.147704 1_555
Mn0 O9 1.923300 1_556
Mn0 O10 1.926994 1_555
Mn0 O0 1.986571 1_565
Mn0 O7 1.993540 1_655
Mn0 O6 2.487154 1_655
Mn0 O2 2.525341 1_555
Mn1 O5 1.840146 1_555
Mn1 O2 1.905089 1_555
Mn1 O6 1.923041 1_555
Mn1 O8 1.988313 1_565
Mn1 O1 1.994469 1_555
Mn2 O2 1.895731 1_555
Mn2 O3 1.895888 1_555
Mn2 O9 1.922791 1_555
Mn2 O5 1.939006 1_555
Mn2 O4 1.981370 1_555
Mn2 O0 2.041283 1_555
Mn3 O10 1.925888 1_455
Mn3 O1 1.986841 1_554
Mn3 O7 1.993643 1_555
Mn3 O8 2.006328 1_555
Mn3 O3 2.029745 1_455
Mn4 O9 1.917434 1_545
Mn4 O8 1.979491 1_555
Mn4 O0 1.981378 1_554
Mn4 O1 1.988243 1_554
Mn4 O4 2.035843 1_555
Mn5 O4 1.846714 1_565
Mn5 O6 1.894812 1_654
Mn5 O10 1.912620 1_555
Mn5 O3 1.947533 1_565
Mn5 O7 2.024917 1_664
F0 Mg0 1.963519 1_565
F0 Mn1 2.029420 1_555
F0 Mn5 2.106484 1_456
