# generated using pymatgen
data_NaCeP2O7
_symmetry_space_group_name_H-M   'P 1'
_cell_length_a   5.33270600
_cell_length_b   8.71844600
_cell_length_c   12.76231200
_cell_angle_alpha   90.00000000
_cell_angle_beta   90.00000000
_cell_angle_gamma   90.00000000
_symmetry_Int_Tables_number   1
_chemical_formula_structural   NaCeP2O7
_chemical_formula_sum   'Na4 Ce4 P8 O28'
_cell_volume   593.35701421
_cell_formula_units_Z   4
loop_
 _symmetry_equiv_pos_site_id
 _symmetry_equiv_pos_as_xyz
  1  'x, y, z'
loop_
 _atom_site_type_symbol
 _atom_site_label
 _atom_site_symmetry_multiplicity
 _atom_site_fract_x
 _atom_site_fract_y
 _atom_site_fract_z
 _atom_site_occupancy
  Na  Na0  1  0.75000000  0.61876200  0.92134400  1
  Na  Na1  1  0.25000000  0.38123800  0.07865600  1
  Na  Na2  1  0.75000000  0.11876200  0.57865600  1
  Na  Na3  1  0.25000000  0.88123800  0.42134400  1
  Ce  Ce0  1  0.25000000  0.81300000  0.73621600  1
  Ce  Ce1  1  0.75000000  0.18700000  0.26378400  1
  Ce  Ce2  1  0.25000000  0.31300000  0.76378400  1
  Ce  Ce3  1  0.75000000  0.68700000  0.23621600  1
  P  P0  1  0.75000000  0.01322400  0.81789300  1
  P  P1  1  0.25000000  0.98677600  0.18210700  1
  P  P2  1  0.75000000  0.51322400  0.68210700  1
  P  P3  1  0.25000000  0.48677600  0.31789300  1
  P  P4  1  0.25000000  0.73700300  0.03356900  1
  P  P5  1  0.75000000  0.26299700  0.96643100  1
  P  P6  1  0.25000000  0.23700300  0.46643100  1
  P  P7  1  0.75000000  0.76299700  0.53356900  1
  O  O0  1  0.25000000  0.73552700  0.91438700  1
  O  O1  1  0.75000000  0.26447300  0.08561300  1
  O  O2  1  0.25000000  0.23552700  0.58561300  1
  O  O3  1  0.75000000  0.76447300  0.41438700  1
  O  O4  1  0.48686200  0.16310200  0.42057200  1
  O  O5  1  0.98686200  0.83689800  0.57942800  1
  O  O6  1  0.01313800  0.66310200  0.07942800  1
  O  O7  1  0.51313800  0.33689800  0.92057200  1
  O  O8  1  0.51313800  0.83689800  0.57942800  1
  O  O9  1  0.01313800  0.16310200  0.42057200  1
  O  O10  1  0.98686200  0.33689800  0.92057200  1
  O  O11  1  0.48686200  0.66310200  0.07942800  1
  O  O12  1  0.75000000  0.83947200  0.82357600  1
  O  O13  1  0.25000000  0.16052800  0.17642400  1
  O  O14  1  0.75000000  0.33947200  0.67642400  1
  O  O15  1  0.25000000  0.66052800  0.32357600  1
  O  O16  1  0.75000000  0.58138700  0.56424600  1
  O  O17  1  0.25000000  0.41861300  0.43575400  1
  O  O18  1  0.75000000  0.08138700  0.93575400  1
  O  O19  1  0.25000000  0.91861300  0.06424600  1
  O  O20  1  0.49304800  0.93108900  0.23557400  1
  O  O21  1  0.99304800  0.06891100  0.76442600  1
  O  O22  1  0.00695200  0.43108900  0.26442600  1
  O  O23  1  0.50695200  0.56891100  0.73557400  1
  O  O24  1  0.50695200  0.06891100  0.76442600  1
  O  O25  1  0.00695200  0.93108900  0.23557400  1
  O  O26  1  0.99304800  0.56891100  0.73557400  1
  O  O27  1  0.49304800  0.43108900  0.26442600  1
loop_
_geom_bond_atom_site_label_1
_geom_bond_atom_site_label_2
_geom_bond_distance
_geom_bond_site_symmetry_2
Na0 O12 2.293382 1_555
Na0 O6 2.487749 1_656
Na0 O11 2.487749 1_556
Na0 O26 2.736738 1_555
Na0 O23 2.736738 1_555
Na0 O10 2.763051 1_555
Na0 O7 2.763051 1_555
Na0 O0 2.855462 1_655
Na0 O0 2.855462 1_555
Na1 O13 2.293382 1_555
Na1 O7 2.487749 1_554
Na1 O10 2.487749 1_454
Na1 O27 2.736738 1_555
Na1 O22 2.736738 1_555
Na1 O11 2.763051 1_555
Na1 O6 2.763051 1_555
Na1 O1 2.855462 1_455
Na1 O1 2.855462 1_555
Na2 O14 2.293382 1_555
Na2 O9 2.487749 1_655
Na2 O4 2.487749 1_555
Na2 O21 2.736738 1_555
Na2 O24 2.736738 1_555
Na2 O5 2.763051 1_545
Na2 O8 2.763051 1_545
Na2 O2 2.855462 1_655
Na2 O2 2.855462 1_555
Na3 O15 2.293382 1_555
Na3 O8 2.487749 1_555
Na3 O5 2.487749 1_455
Na3 O25 2.736738 1_555
Na3 O20 2.736738 1_555
Na3 O4 2.763051 1_565
Na3 O9 2.763051 1_565
Na3 O3 2.855462 1_455
Na3 O3 2.855462 1_555
Ce0 O0 2.372072 1_555
Ce0 O8 2.452835 1_555
Ce0 O5 2.452835 1_455
Ce0 O23 2.531079 1_555
Ce0 O26 2.531079 1_455
Ce0 O24 2.642956 1_565
Ce0 O21 2.642956 1_465
Ce0 O12 2.899266 1_455
Ce0 O12 2.899266 1_555
Ce1 O1 2.372072 1_555
Ce1 O9 2.452835 1_655
Ce1 O4 2.452835 1_555
Ce1 O22 2.531079 1_655
Ce1 O27 2.531079 1_555
Ce1 O25 2.642956 1_645
Ce1 O20 2.642956 1_545
Ce1 O13 2.899266 1_555
Ce1 O13 2.899266 1_655
Ce2 O2 2.372072 1_555
Ce2 O7 2.452835 1_555
Ce2 O10 2.452835 1_455
Ce2 O24 2.531079 1_555
Ce2 O21 2.531079 1_455
Ce2 O23 2.642956 1_555
Ce2 O26 2.642956 1_455
Ce2 O14 2.899266 1_555
Ce2 O14 2.899266 1_455
Ce3 O3 2.372072 1_555
Ce3 O6 2.452835 1_655
Ce3 O11 2.452835 1_555
Ce3 O25 2.531079 1_655
Ce3 O20 2.531079 1_555
Ce3 O22 2.642956 1_655
Ce3 O27 2.642956 1_555
Ce3 O15 2.899266 1_655
Ce3 O15 2.899266 1_555
O0 P4 1.521092 1_556
O1 P5 1.521092 1_554
O2 P6 1.521092 1_555
O3 P7 1.521092 1_555
O4 P6 1.533989 1_555
O5 P7 1.533989 1_555
O6 P4 1.533989 1_555
O7 P5 1.533989 1_555
O8 P7 1.533989 1_555
O9 P6 1.533989 1_555
O10 P5 1.533989 1_555
O11 P4 1.533989 1_555
O12 P0 1.516583 1_565
O13 P1 1.516583 1_545
O14 P2 1.516583 1_555
O15 P3 1.516583 1_555
O16 P2 1.617318 1_555
O16 P7 1.631042 1_555
O17 P3 1.617318 1_555
O17 P6 1.631042 1_555
O18 P0 1.617318 1_555
O18 P5 1.631042 1_555
O19 P1 1.617318 1_555
O19 P4 1.631042 1_555
O20 P1 1.543119 1_555
O21 P0 1.543119 1_555
O22 P3 1.543119 1_555
O23 P2 1.543119 1_555
O24 P0 1.543119 1_555
O25 P1 1.543119 1_555
O26 P2 1.543119 1_555
O27 P3 1.543119 1_555
