# generated using pymatgen
data_Na3Hf2Al2P5SO24
_symmetry_space_group_name_H-M   'P 1'
_cell_length_a   8.66703672
_cell_length_b   8.64236864
_cell_length_c   22.33704610
_cell_angle_alpha   90.13870086
_cell_angle_beta   89.86806443
_cell_angle_gamma   120.17270096
_symmetry_Int_Tables_number   1
_chemical_formula_structural   Na3Hf2Al2P5SO24
_chemical_formula_sum   'Na9 Hf6 Al6 P15 S3 O72'
_cell_volume   1446.43781298
_cell_formula_units_Z   3
loop_
 _symmetry_equiv_pos_site_id
 _symmetry_equiv_pos_as_xyz
  1  'x, y, z'
loop_
 _atom_site_type_symbol
 _atom_site_label
 _atom_site_symmetry_multiplicity
 _atom_site_fract_x
 _atom_site_fract_y
 _atom_site_fract_z
 _atom_site_occupancy
  Na  Na0  1  0.00105888  0.36323583  0.75165519  1
  Na  Na1  1  0.66748739  0.97206431  0.58348943  1
  Na  Na2  1  0.02946437  0.33391214  0.08347915  1
  Na  Na3  1  0.00688907  0.99484247  0.50363630  1
  Na  Na4  1  0.00553505  0.99419314  0.00310033  1
  Na  Na5  1  0.65739683  0.32750874  0.83369414  1
  Na  Na6  1  0.67728578  0.33726457  0.33290478  1
  Na  Na7  1  0.34350710  0.67159913  0.16744570  1
  Na  Na8  1  0.33376317  0.66700318  0.66648655  1
  Hf  Hf0  1  0.98702797  0.99171477  0.35608373  1
  Hf  Hf1  1  0.00620460  0.00340803  0.85587172  1
  Hf  Hf2  1  0.66220264  0.33484328  0.68446482  1
  Hf  Hf3  1  0.67029463  0.33719312  0.18525872  1
  Hf  Hf4  1  0.66607459  0.32874554  0.98021304  1
  Hf  Hf5  1  0.67303509  0.33434577  0.47986066  1
  Al  Al0  1  0.00359941  0.99827694  0.64888157  1
  Al  Al1  1  0.99001918  0.99761186  0.14786671  1
  Al  Al2  1  0.32895480  0.66970570  0.02010193  1
  Al  Al3  1  0.32916647  0.67105478  0.51993604  1
  Al  Al4  1  0.33176753  0.66478881  0.31272128  1
  Al  Al5  1  0.33196966  0.67492114  0.81180544  1
  P  P0  1  0.70164545  0.71420356  0.24845066  1
  P  P1  1  0.01138889  0.29595125  0.24879634  1
  P  P2  1  0.28810108  0.29500315  0.74911365  1
  P  P3  1  0.00848984  0.71716897  0.74881103  1
  P  P4  1  0.70407356  0.98751916  0.74868949  1
  P  P5  1  0.97466097  0.33611633  0.58414466  1
  P  P6  1  0.36068600  0.03204480  0.58242381  1
  P  P7  1  0.66534325  0.63501119  0.58232333  1
  P  P8  1  0.96887002  0.64091375  0.08277989  1
  P  P9  1  0.66173528  0.02623801  0.08356350  1
  P  P10  1  0.36545502  0.33304922  0.08331292  1
  P  P11  1  0.05788833  0.39330036  0.91665042  1
  P  P12  1  0.33390803  0.94067952  0.91688708  1
  P  P13  1  0.60341400  0.94019389  0.41687374  1
  P  P14  1  0.06125012  0.66693919  0.41589717  1
  S  S0  1  0.28407065  0.99197792  0.24916771  1
  S  S1  1  0.60801205  0.66538479  0.91671543  1
  S  S2  1  0.33468128  0.38995852  0.41676268  1
  O  O0  1  0.20736058  0.02418622  0.30417992  1
  O  O1  1  0.81939890  0.79252650  0.30531925  1
  O  O2  1  0.98036280  0.17788961  0.30466907  1
  O  O3  1  0.20710543  0.18009584  0.80595017  1
  O  O4  1  0.97216310  0.79380895  0.80584768  1
  O  O5  1  0.82700486  0.02981380  0.80399936  1
  O  O6  1  0.79247479  0.96645855  0.69167729  1
  O  O7  1  0.16547325  0.20533115  0.69495924  1
  O  O8  1  0.03227925  0.83177673  0.69382636  1
  O  O9  1  0.79717840  0.83075441  0.19404530  1
  O  O10  1  0.03377325  0.20698429  0.19194312  1
  O  O11  1  0.17543739  0.96936318  0.19597850  1
  O  O12  1  0.88969356  0.36983709  0.64041865  1
  O  O13  1  0.48888277  0.11645897  0.63685651  1
  O  O14  1  0.63060946  0.51441050  0.63750593  1
  O  O15  1  0.88333367  0.51071052  0.13696930  1
  O  O16  1  0.62883090  0.11493329  0.13849878  1
  O  O17  1  0.48660937  0.36727881  0.13818051  1
  O  O18  1  0.45269653  0.29909707  0.02797175  1
  O  O19  1  0.84685002  0.55141208  0.02774493  1
  O  O20  1  0.70677732  0.15657286  0.02916726  1
  O  O21  1  0.45149344  0.15395786  0.52742830  1
  O  O22  1  0.69968734  0.54707623  0.52740783  1
  O  O23  1  0.84268519  0.29392012  0.53046260  1
  O  O24  1  0.52884058  0.68854781  0.97134069  1
  O  O25  1  0.16463960  0.47492488  0.97405542  1
  O  O26  1  0.31250581  0.83454663  0.97332152  1
  O  O27  1  0.52623163  0.83589982  0.47499947  1
  O  O28  1  0.31008444  0.46931767  0.47114759  1
  O  O29  1  0.16611217  0.68840187  0.47276811  1
  O  O30  1  0.14299068  0.64034624  0.35904180  1
  O  O31  1  0.49718753  0.85209782  0.36041341  1
  O  O32  1  0.35834477  0.49197633  0.36171352  1
  O  O33  1  0.14277979  0.49697868  0.85863469  1
  O  O34  1  0.36025228  0.85949098  0.85976483  1
  O  O35  1  0.50617645  0.64227636  0.86173669  1
  O  O36  1  0.03998510  0.83599041  0.41178243  1
  O  O37  1  0.79683625  0.96782007  0.41342540  1
  O  O38  1  0.17459234  0.20645432  0.41225855  1
  O  O39  1  0.03052960  0.20056224  0.91338343  1
  O  O40  1  0.16581083  0.96256473  0.91336277  1
  O  O41  1  0.79104265  0.82648753  0.91290616  1
  O  O42  1  0.98122474  0.16286593  0.59263869  1
  O  O43  1  0.17978403  0.01697509  0.59304583  1
  O  O44  1  0.83152166  0.82115458  0.59196117  1
  O  O45  1  0.98584556  0.82231533  0.09454651  1
  O  O46  1  0.83492886  0.01942586  0.09227553  1
  O  O47  1  0.17862871  0.16720036  0.09301150  1
  O  O48  1  0.69018501  0.16079930  0.74298046  1
  O  O49  1  0.47405770  0.31447374  0.74366473  1
  O  O50  1  0.84365410  0.52388437  0.74329607  1
  O  O51  1  0.68124635  0.52527042  0.24309887  1
  O  O52  1  0.84072973  0.31214334  0.24359696  1
  O  O53  1  0.46556198  0.15413229  0.24411663  1
  O  O54  1  0.63096478  0.50524621  0.92079824  1
  O  O55  1  0.86805568  0.37163583  0.92094968  1
  O  O56  1  0.49974519  0.13416735  0.92123195  1
  O  O57  1  0.62856186  0.13180679  0.42081404  1
  O  O58  1  0.49495836  0.36835879  0.42100206  1
  O  O59  1  0.86773333  0.50131145  0.42085243  1
  O  O60  1  0.34364341  0.49804707  0.07394192  1
  O  O61  1  0.14913565  0.64863542  0.07445418  1
  O  O62  1  0.49827021  0.84407299  0.07266202  1
  O  O63  1  0.35153768  0.85063086  0.57433113  1
  O  O64  1  0.50064490  0.65611987  0.57351559  1
  O  O65  1  0.15561717  0.50154758  0.57271423  1
  O  O66  1  0.30319997  0.83267163  0.25580131  1
  O  O67  1  0.51827860  0.69695936  0.25808090  1
  O  O68  1  0.17673565  0.48228759  0.25760908  1
  O  O69  1  0.30370953  0.47964403  0.75794559  1
  O  O70  1  0.17122349  0.69060302  0.75613995  1
  O  O71  1  0.51976802  0.82305374  0.75820392  1
loop_
_geom_bond_atom_site_label_1
_geom_bond_atom_site_label_2
_geom_bond_distance
_geom_bond_site_symmetry_2
Na0 O69 2.293632 1_555
Na0 O48 2.370711 1_455
Na0 O50 2.393740 1_455
Na0 O70 2.448388 1_555
Na0 O33 2.669821 1_555
Na0 O12 2.678745 1_455
Na0 O7 2.726688 1_555
Na0 O5 2.754032 1_455
Na1 O44 2.371560 1_555
Na1 O64 2.371889 1_555
Na1 O42 2.376653 1_565
Na1 O63 2.398858 1_555
Na1 O6 2.661042 1_555
Na1 O23 2.684742 1_565
Na1 O13 2.701967 1_565
Na1 O27 2.703312 1_555
Na2 O60 2.363965 1_555
Na2 O46 2.379709 1_455
Na2 O47 2.380692 1_555
Na2 O61 2.383363 1_555
Na2 O10 2.670012 1_555
Na2 O15 2.701069 1_455
Na2 O20 2.709314 1_455
Na2 O25 2.719909 1_554
Na3 O43 2.448356 1_565
Na3 O44 2.482517 1_455
Na3 O42 2.533604 1_465
Na3 O36 2.560503 1_555
Na3 O38 2.637372 1_565
Na3 O37 2.648874 1_455
Na4 O45 2.483198 1_455
Na4 O47 2.502845 1_565
Na4 O40 2.527544 1_554
Na4 O46 2.551496 1_465
Na4 O39 2.621231 1_564
Na4 O41 2.628720 1_454
Na5 O56 2.488133 1_555
Na5 O49 2.532864 1_555
Na5 O54 2.556317 1_555
Na5 O55 2.567203 1_555
Na5 O48 2.580142 1_555
Na5 O50 2.609815 1_555
Na6 O59 2.498571 1_555
Na6 O52 2.515428 1_555
Na6 O57 2.538976 1_555
Na6 O51 2.573836 1_555
Na6 O58 2.617579 1_555
Na6 O53 2.624442 1_555
Na7 O67 2.473752 1_555
Na7 O66 2.535214 1_555
Na7 O68 2.539202 1_555
Na7 O62 2.548706 1_555
Na7 O60 2.568764 1_555
Na7 O61 2.621062 1_555
Na8 O70 2.512045 1_555
Na8 O71 2.535986 1_555
Na8 O69 2.540252 1_555
Na8 O64 2.556457 1_555
Na8 O63 2.558940 1_555
Na8 O65 2.568468 1_555
Hf0 O1 1.960626 1_555
Hf0 O2 2.003451 1_565
Hf0 O37 2.012411 1_555
Hf0 O36 2.049751 1_655
Hf0 O0 2.126566 1_665
Hf0 O38 2.150999 1_665
Hf1 O3 1.983332 1_555
Hf1 O4 2.017767 1_445
Hf1 O5 2.042713 1_455
Hf1 O40 2.046577 1_545
Hf1 O39 2.056091 1_555
Hf1 O41 2.137928 1_445
Hf2 O14 2.004975 1_555
Hf2 O13 2.024162 1_555
Hf2 O49 2.035015 1_555
Hf2 O50 2.070191 1_555
Hf2 O12 2.083277 1_555
Hf2 O48 2.099378 1_555
Hf3 O15 2.009193 1_555
Hf3 O17 2.032994 1_555
Hf3 O51 2.038519 1_555
Hf3 O16 2.051310 1_555
Hf3 O52 2.063652 1_555
Hf3 O53 2.134814 1_555
Hf4 O20 2.017813 1_556
Hf4 O18 2.034627 1_556
Hf4 O56 2.050095 1_555
Hf4 O19 2.062094 1_556
Hf4 O55 2.072127 1_555
Hf4 O54 2.158466 1_555
Hf5 O23 2.021770 1_555
Hf5 O22 2.031300 1_555
Hf5 O59 2.053851 1_555
Hf5 O21 2.058102 1_555
Hf5 O57 2.065198 1_555
Hf5 O58 2.159690 1_555
Al0 O8 1.872953 1_555
Al0 O43 1.912464 1_565
Al0 O7 1.924540 1_565
Al0 O6 1.955785 1_455
Al0 O44 1.971921 1_455
Al0 O42 1.981485 1_465
Al1 O9 1.874413 1_555
Al1 O46 1.909927 1_565
Al1 O45 1.910853 1_555
Al1 O10 1.921105 1_665
Al1 O47 1.978076 1_665
Al1 O11 2.049553 1_655
Al2 O26 1.831338 1_554
Al2 O25 1.873044 1_554
Al2 O62 1.891863 1_555
Al2 O61 1.908696 1_555
Al2 O60 1.965348 1_555
Al2 O24 1.980579 1_554
Al3 O29 1.830370 1_555
Al3 O27 1.872801 1_555
Al3 O65 1.893032 1_555
Al3 O63 1.900511 1_555
Al3 O64 1.964587 1_555
Al3 O28 1.989100 1_555
Al4 O30 1.854166 1_555
Al4 O31 1.864556 1_555
Al4 O68 1.917414 1_555
Al4 O67 1.928931 1_555
Al4 O32 1.958598 1_555
Al4 O66 2.038245 1_555
Al5 O34 1.830849 1_555
Al5 O33 1.900767 1_555
Al5 O71 1.904092 1_555
Al5 O70 1.924578 1_555
Al5 O69 1.982817 1_555
Al5 O35 2.010141 1_555
O0 S0 1.486638 1_545
O1 P0 1.555873 1_555
O2 P1 1.549125 1_655
O3 P2 1.546610 1_555
O4 P3 1.537752 1_655
O5 P4 1.551627 1_545
O6 P4 1.541585 1_555
O7 P2 1.538458 1_555
O8 P3 1.526914 1_555
O9 P0 1.529687 1_555
O10 P1 1.544551 1_555
O11 S0 1.468088 1_555
O12 P5 1.554660 1_555
O13 P6 1.559547 1_555
O14 P7 1.544479 1_555
O15 P8 1.563604 1_555
O16 P9 1.545394 1_555
O17 P10 1.544047 1_555
O18 P10 1.550121 1_555
O19 P8 1.551466 1_555
O20 P9 1.568423 1_555
O21 P6 1.551401 1_555
O22 P7 1.546615 1_555
O23 P5 1.569741 1_555
O24 S1 1.460400 1_555
O25 P11 1.530636 1_555
O26 P12 1.516010 1_555
O27 P13 1.530103 1_555
O28 S2 1.460589 1_555
O29 P14 1.519491 1_555
O30 P14 1.525019 1_555
O31 P13 1.521150 1_555
O32 S2 1.467562 1_555
O33 P11 1.536910 1_555
O34 P12 1.525732 1_555
O35 S1 1.467530 1_555
O36 P14 1.564720 1_555
O37 P13 1.571752 1_555
O38 S2 1.496105 1_555
O39 P11 1.561606 1_555
O40 P12 1.562734 1_555
O41 S1 1.497325 1_555
O42 P5 1.538886 1_555
O43 P6 1.524693 1_555
O44 P7 1.542525 1_555
O45 P8 1.521465 1_555
O46 P9 1.544279 1_555
O47 P10 1.546014 1_555
O48 P4 1.567039 1_545
O49 P2 1.538591 1_555
O50 P3 1.564435 1_655
O51 P0 1.555842 1_555
O52 P1 1.558771 1_655
O53 S0 1.494996 1_545
O54 S1 1.496907 1_555
O55 P11 1.562353 1_655
O56 P12 1.566964 1_545
O57 P13 1.560166 1_545
O58 S2 1.494940 1_555
O59 P14 1.568711 1_655
O60 P10 1.544523 1_555
O61 P8 1.540763 1_455
O62 P9 1.517458 1_565
O63 P6 1.539752 1_565
O64 P7 1.540397 1_555
O65 P5 1.521493 1_455
O66 S0 1.474968 1_555
O67 P0 1.534499 1_555
O68 P1 1.538087 1_555
O69 P2 1.544407 1_555
O70 P3 1.547756 1_555
O71 P4 1.527965 1_555
