# generated using pymatgen
data_CuW3Br7
_symmetry_space_group_name_H-M   'P 1'
_cell_length_a   13.77470400
_cell_length_b   13.77470400
_cell_length_c   13.77470400
_cell_angle_alpha   90.00000000
_cell_angle_beta   90.00000000
_cell_angle_gamma   90.00000000
_symmetry_Int_Tables_number   1
_chemical_formula_structural   CuW3Br7
_chemical_formula_sum   'Cu8 W24 Br56'
_cell_volume   2613.64636444
_cell_formula_units_Z   8
loop_
 _symmetry_equiv_pos_site_id
 _symmetry_equiv_pos_as_xyz
  1  'x, y, z'
loop_
 _atom_site_type_symbol
 _atom_site_label
 _atom_site_symmetry_multiplicity
 _atom_site_fract_x
 _atom_site_fract_y
 _atom_site_fract_z
 _atom_site_occupancy
  Cu  Cu0  1  0.68799400  0.68799400  0.68799400  1
  Cu  Cu1  1  0.31200600  0.31200600  0.68799400  1
  Cu  Cu2  1  0.68799400  0.31200600  0.31200600  1
  Cu  Cu3  1  0.31200600  0.68799400  0.31200600  1
  Cu  Cu4  1  0.81200600  0.81200600  0.81200600  1
  Cu  Cu5  1  0.18799400  0.18799400  0.81200600  1
  Cu  Cu6  1  0.81200600  0.18799400  0.18799400  1
  Cu  Cu7  1  0.18799400  0.81200600  0.18799400  1
  W  W0  1  0.27394400  0.88084400  0.77979500  1
  W  W1  1  0.77979500  0.27394400  0.88084400  1
  W  W2  1  0.88084400  0.77979500  0.27394400  1
  W  W3  1  0.11915600  0.22020500  0.27394400  1
  W  W4  1  0.77979500  0.72605600  0.11915600  1
  W  W5  1  0.11915600  0.77979500  0.72605600  1
  W  W6  1  0.22020500  0.72605600  0.88084400  1
  W  W7  1  0.22020500  0.27394400  0.11915600  1
  W  W8  1  0.88084400  0.22020500  0.72605600  1
  W  W9  1  0.27394400  0.11915600  0.22020500  1
  W  W10  1  0.72605600  0.88084400  0.22020500  1
  W  W11  1  0.72605600  0.11915600  0.77979500  1
  W  W12  1  0.22605600  0.61915600  0.72020500  1
  W  W13  1  0.72020500  0.22605600  0.61915600  1
  W  W14  1  0.61915600  0.72020500  0.22605600  1
  W  W15  1  0.38084400  0.27979500  0.22605600  1
  W  W16  1  0.72020500  0.77394400  0.38084400  1
  W  W17  1  0.38084400  0.72020500  0.77394400  1
  W  W18  1  0.27979500  0.77394400  0.61915600  1
  W  W19  1  0.27979500  0.22605600  0.38084400  1
  W  W20  1  0.61915600  0.27979500  0.77394400  1
  W  W21  1  0.22605600  0.38084400  0.27979500  1
  W  W22  1  0.77394400  0.61915600  0.27979500  1
  W  W23  1  0.77394400  0.38084400  0.72020500  1
  Br  Br0  1  0.17409500  0.93393000  0.62465200  1
  Br  Br1  1  0.62465200  0.17409500  0.93393000  1
  Br  Br2  1  0.93393000  0.62465200  0.17409500  1
  Br  Br3  1  0.06607000  0.37534800  0.17409500  1
  Br  Br4  1  0.62465200  0.82590500  0.06607000  1
  Br  Br5  1  0.06607000  0.62465200  0.82590500  1
  Br  Br6  1  0.37534800  0.82590500  0.93393000  1
  Br  Br7  1  0.37534800  0.17409500  0.06607000  1
  Br  Br8  1  0.93393000  0.37534800  0.82590500  1
  Br  Br9  1  0.17409500  0.06607000  0.37534800  1
  Br  Br10  1  0.82590500  0.93393000  0.37534800  1
  Br  Br11  1  0.82590500  0.06607000  0.62465200  1
  Br  Br12  1  0.32590500  0.56607000  0.87534800  1
  Br  Br13  1  0.87534800  0.32590500  0.56607000  1
  Br  Br14  1  0.56607000  0.87534800  0.32590500  1
  Br  Br15  1  0.43393000  0.12465200  0.32590500  1
  Br  Br16  1  0.87534800  0.67409500  0.43393000  1
  Br  Br17  1  0.43393000  0.87534800  0.67409500  1
  Br  Br18  1  0.12465200  0.67409500  0.56607000  1
  Br  Br19  1  0.12465200  0.32590500  0.43393000  1
  Br  Br20  1  0.56607000  0.12465200  0.67409500  1
  Br  Br21  1  0.32590500  0.43393000  0.12465200  1
  Br  Br22  1  0.67409500  0.56607000  0.12465200  1
  Br  Br23  1  0.67409500  0.43393000  0.87534800  1
  Br  Br24  1  0.56464100  0.67350500  0.81053700  1
  Br  Br25  1  0.81053700  0.56464100  0.67350500  1
  Br  Br26  1  0.67350500  0.81053700  0.56464100  1
  Br  Br27  1  0.32649500  0.18946300  0.56464100  1
  Br  Br28  1  0.81053700  0.43535900  0.32649500  1
  Br  Br29  1  0.32649500  0.81053700  0.43535900  1
  Br  Br30  1  0.18946300  0.43535900  0.67350500  1
  Br  Br31  1  0.18946300  0.56464100  0.32649500  1
  Br  Br32  1  0.67350500  0.18946300  0.43535900  1
  Br  Br33  1  0.56464100  0.32649500  0.18946300  1
  Br  Br34  1  0.43535900  0.67350500  0.18946300  1
  Br  Br35  1  0.43535900  0.32649500  0.81053700  1
  Br  Br36  1  0.93535900  0.82649500  0.68946300  1
  Br  Br37  1  0.68946300  0.93535900  0.82649500  1
  Br  Br38  1  0.82649500  0.68946300  0.93535900  1
  Br  Br39  1  0.17350500  0.31053700  0.93535900  1
  Br  Br40  1  0.68946300  0.06464100  0.17350500  1
  Br  Br41  1  0.17350500  0.68946300  0.06464100  1
  Br  Br42  1  0.31053700  0.06464100  0.82649500  1
  Br  Br43  1  0.31053700  0.93535900  0.17350500  1
  Br  Br44  1  0.82649500  0.31053700  0.06464100  1
  Br  Br45  1  0.93535900  0.17350500  0.31053700  1
  Br  Br46  1  0.06464100  0.82649500  0.31053700  1
  Br  Br47  1  0.06464100  0.17350500  0.68946300  1
  Br  Br48  1  0.38663100  0.38663100  0.38663100  1
  Br  Br49  1  0.61336900  0.61336900  0.38663100  1
  Br  Br50  1  0.38663100  0.61336900  0.61336900  1
  Br  Br51  1  0.61336900  0.38663100  0.61336900  1
  Br  Br52  1  0.11336900  0.11336900  0.11336900  1
  Br  Br53  1  0.88663100  0.88663100  0.11336900  1
  Br  Br54  1  0.11336900  0.88663100  0.88663100  1
  Br  Br55  1  0.88663100  0.11336900  0.88663100  1
loop_
_geom_bond_atom_site_label_1
_geom_bond_atom_site_label_2
_geom_bond_distance
_geom_bond_site_symmetry_2
Br0 W18 2.642382 1_555
Br0 W0 2.644503 1_555
Br0 W5 2.651717 1_555
Br1 W20 2.642382 1_555
Br1 W1 2.644503 1_555
Br1 W11 2.651717 1_555
Br2 W22 2.642382 1_555
Br2 W2 2.644503 1_555
Br2 W4 2.651717 1_555
Br3 W21 2.642382 1_555
Br3 W3 2.644503 1_555
Br3 W7 2.651717 1_555
Br4 W14 2.642382 1_555
Br4 W4 2.644503 1_555
Br4 W10 2.651717 1_555
Br5 W12 2.642382 1_555
Br5 W5 2.644503 1_555
Br5 W6 2.651717 1_555
Br6 W17 2.642382 1_555
Br6 W6 2.644503 1_555
Br6 W0 2.651717 1_555
Br7 W15 2.642382 1_555
Br7 W7 2.644503 1_555
Br7 W9 2.651717 1_555
Br8 W23 2.642382 1_555
Br8 W8 2.644503 1_555
Br8 W1 2.651717 1_555
Br9 W19 2.642382 1_555
Br9 W9 2.644503 1_555
Br9 W3 2.651717 1_555
Br10 W16 2.642382 1_555
Br10 W10 2.644503 1_555
Br10 W2 2.651717 1_555
Br11 W13 2.642382 1_555
Br11 W11 2.644503 1_555
Br11 W8 2.651717 1_555
Br12 W6 2.642382 1_555
Br12 W12 2.644503 1_555
Br12 W17 2.651717 1_555
Br13 W8 2.642382 1_555
Br13 W13 2.644503 1_555
Br13 W23 2.651717 1_555
Br14 W10 2.642382 1_555
Br14 W14 2.644503 1_555
Br14 W16 2.651717 1_555
Br15 W9 2.642382 1_555
Br15 W15 2.644503 1_555
Br15 W19 2.651717 1_555
Br16 W2 2.642382 1_555
Br16 W16 2.644503 1_555
Br16 W22 2.651717 1_555
Br17 W0 2.642382 1_555
Br17 W17 2.644503 1_555
Br17 W18 2.651717 1_555
Br18 W5 2.642382 1_555
Br18 W18 2.644503 1_555
Br18 W12 2.651717 1_555
Br19 W3 2.642382 1_555
Br19 W19 2.644503 1_555
Br19 W21 2.651717 1_555
Br20 W11 2.642382 1_555
Br20 W20 2.644503 1_555
Br20 W13 2.651717 1_555
Br21 W7 2.642382 1_555
Br21 W21 2.644503 1_555
Br21 W15 2.651717 1_555
Br22 W4 2.642382 1_555
Br22 W22 2.644503 1_555
Br22 W14 2.651717 1_555
Br23 W1 2.642382 1_555
Br23 W23 2.644503 1_555
Br23 W20 2.651717 1_555
Br24 Cu0 2.403387 1_555
Br24 W17 2.660383 1_555
Br25 Cu0 2.403387 1_555
Br25 W23 2.660383 1_555
Br26 Cu0 2.403387 1_555
Br26 W16 2.660383 1_555
Br27 Cu1 2.403387 1_555
Br27 W19 2.660383 1_555
Br28 Cu2 2.403387 1_555
Br28 W22 2.660383 1_555
Br29 Cu3 2.403387 1_555
Br29 W18 2.660383 1_555
Br30 Cu1 2.403387 1_555
Br30 W12 2.660383 1_555
Br31 Cu3 2.403387 1_555
Br31 W21 2.660383 1_555
Br32 Cu2 2.403387 1_555
Br32 W13 2.660383 1_555
Br33 Cu2 2.403387 1_555
Br33 W15 2.660383 1_555
Br34 Cu3 2.403387 1_555
Br34 W14 2.660383 1_555
Br35 Cu1 2.403387 1_555
Br35 W20 2.660383 1_555
Br36 Cu4 2.403387 1_555
Br36 W5 2.660383 1_655
Br37 Cu4 2.403387 1_555
Br37 W11 2.660383 1_565
Br38 Cu4 2.403387 1_555
Br38 W4 2.660383 1_556
Br39 Cu5 2.403387 1_555
Br39 W7 2.660383 1_556
Br40 Cu6 2.403387 1_555
Br40 W10 2.660383 1_545
Br41 Cu7 2.403387 1_555
Br41 W6 2.660383 1_554
Br42 Cu5 2.403387 1_555
Br42 W0 2.660383 1_545
Br43 Cu7 2.403387 1_555
Br43 W9 2.660383 1_565
Br44 Cu6 2.403387 1_555
Br44 W1 2.660383 1_554
Br45 Cu6 2.403387 1_555
Br45 W3 2.660383 1_655
Br46 Cu7 2.403387 1_555
Br46 W2 2.660383 1_455
Br47 Cu5 2.403387 1_555
Br47 W8 2.660383 1_455
Br48 W19 2.657902 1_555
Br48 W15 2.657902 1_555
Br48 W21 2.657902 1_555
Br49 W16 2.657902 1_555
Br49 W22 2.657902 1_555
Br49 W14 2.657902 1_555
Br50 W17 2.657902 1_555
Br50 W18 2.657902 1_555
Br50 W12 2.657902 1_555
Br51 W23 2.657902 1_555
Br51 W20 2.657902 1_555
Br51 W13 2.657902 1_555
Br52 W9 2.657902 1_555
Br52 W3 2.657902 1_555
Br52 W7 2.657902 1_555
Br53 W2 2.657902 1_555
Br53 W10 2.657902 1_555
Br53 W4 2.657902 1_555
Br54 W0 2.657902 1_555
Br54 W6 2.657902 1_555
Br54 W5 2.657902 1_555
Br55 W1 2.657902 1_555
Br55 W8 2.657902 1_555
Br55 W11 2.657902 1_555
