# generated using pymatgen
data_NaB(H4O)2
_symmetry_space_group_name_H-M   'P 1'
_cell_length_a   6.89343900
_cell_length_b   10.32036600
_cell_length_c   12.06755500
_cell_angle_alpha   90.00000000
_cell_angle_beta   90.00000000
_cell_angle_gamma   90.00000000
_symmetry_Int_Tables_number   1
_chemical_formula_structural   NaB(H4O)2
_chemical_formula_sum   'Na8 B8 H64 O16'
_cell_volume   858.51981451
_cell_formula_units_Z   8
loop_
 _symmetry_equiv_pos_site_id
 _symmetry_equiv_pos_as_xyz
  1  'x, y, z'
loop_
 _atom_site_type_symbol
 _atom_site_label
 _atom_site_symmetry_multiplicity
 _atom_site_fract_x
 _atom_site_fract_y
 _atom_site_fract_z
 _atom_site_occupancy
  Na  Na0  1  0.95258900  0.82933100  0.01214700  1
  Na  Na1  1  0.45258900  0.17066900  0.48785300  1
  Na  Na2  1  0.54741100  0.32933100  0.98785300  1
  Na  Na3  1  0.04741100  0.67066900  0.51214700  1
  Na  Na4  1  0.04741100  0.17066900  0.98785300  1
  Na  Na5  1  0.54741100  0.82933100  0.51214700  1
  Na  Na6  1  0.45258900  0.67066900  0.01214700  1
  Na  Na7  1  0.95258900  0.32933100  0.48785300  1
  B  B0  1  0.09771500  0.61230000  0.14992300  1
  B  B1  1  0.59771500  0.38770000  0.35007700  1
  B  B2  1  0.40228500  0.11230000  0.85007700  1
  B  B3  1  0.90228500  0.88770000  0.64992300  1
  B  B4  1  0.90228500  0.38770000  0.85007700  1
  B  B5  1  0.40228500  0.61230000  0.64992300  1
  B  B6  1  0.59771500  0.88770000  0.14992300  1
  B  B7  1  0.09771500  0.11230000  0.35007700  1
  H  H0  1  0.26894100  0.61000000  0.17729300  1
  H  H1  1  0.76894100  0.39000000  0.32270700  1
  H  H2  1  0.23105900  0.11000000  0.82270700  1
  H  H3  1  0.73105900  0.89000000  0.67729300  1
  H  H4  1  0.73105900  0.39000000  0.82270700  1
  H  H5  1  0.23105900  0.61000000  0.67729300  1
  H  H6  1  0.76894100  0.89000000  0.17729300  1
  H  H7  1  0.26894100  0.11000000  0.32270700  1
  H  H8  1  0.01883700  0.51150000  0.18331600  1
  H  H9  1  0.51883700  0.48850000  0.31668400  1
  H  H10  1  0.48116300  0.01150000  0.81668400  1
  H  H11  1  0.98116300  0.98850000  0.68331600  1
  H  H12  1  0.98116300  0.48850000  0.81668400  1
  H  H13  1  0.48116300  0.51150000  0.68331600  1
  H  H14  1  0.51883700  0.98850000  0.18331600  1
  H  H15  1  0.01883700  0.01150000  0.31668400  1
  H  H16  1  0.89403100  0.49021300  0.68145200  1
  H  H17  1  0.39403100  0.50978700  0.81854800  1
  H  H18  1  0.60596900  0.99021300  0.31854800  1
  H  H19  1  0.10596900  0.00978700  0.18145200  1
  H  H20  1  0.10596900  0.50978700  0.31854800  1
  H  H21  1  0.60596900  0.49021300  0.18145200  1
  H  H22  1  0.39403100  0.00978700  0.68145200  1
  H  H23  1  0.89403100  0.99021300  0.81854800  1
  H  H24  1  0.01651100  0.20510200  0.30739700  1
  H  H25  1  0.21260100  0.47530400  0.88813600  1
  H  H26  1  0.78739900  0.02469600  0.38813600  1
  H  H27  1  0.28739900  0.97530400  0.11186400  1
  H  H28  1  0.28739900  0.47530400  0.38813600  1
  H  H29  1  0.78739900  0.52469600  0.11186400  1
  H  H30  1  0.21260100  0.97530400  0.61186400  1
  H  H31  1  0.71260100  0.02469600  0.88813600  1
  H  H32  1  0.01651100  0.70510200  0.19260300  1
  H  H33  1  0.51651100  0.29489800  0.30739700  1
  H  H34  1  0.48348900  0.20510200  0.80739700  1
  H  H35  1  0.98348900  0.79489800  0.69260300  1
  H  H36  1  0.98348900  0.29489800  0.80739700  1
  H  H37  1  0.48348900  0.70510200  0.69260300  1
  H  H38  1  0.51651100  0.79489800  0.19260300  1
  H  H39  1  0.08251400  0.11437900  0.45122600  1
  H  H40  1  0.23318100  0.26715300  0.67758200  1
  H  H41  1  0.73318100  0.73284700  0.82241800  1
  H  H42  1  0.26681900  0.76715300  0.32241800  1
  H  H43  1  0.76681900  0.23284700  0.17758200  1
  H  H44  1  0.76681900  0.73284700  0.32241800  1
  H  H45  1  0.26681900  0.26715300  0.17758200  1
  H  H46  1  0.73318100  0.23284700  0.67758200  1
  H  H47  1  0.23318100  0.76715300  0.82241800  1
  H  H48  1  0.30647700  0.39427700  0.62366100  1
  H  H49  1  0.80647700  0.60572300  0.87633900  1
  H  H50  1  0.19352300  0.89427700  0.37633900  1
  H  H51  1  0.69352300  0.10572300  0.12366100  1
  H  H52  1  0.69352300  0.60572300  0.37633900  1
  H  H53  1  0.19352300  0.39427700  0.12366100  1
  H  H54  1  0.80647700  0.10572300  0.62366100  1
  H  H55  1  0.30647700  0.89427700  0.87633900  1
  H  H56  1  0.08251400  0.61437900  0.04877400  1
  H  H57  1  0.58251400  0.38562100  0.45122600  1
  H  H58  1  0.41748600  0.11437900  0.95122600  1
  H  H59  1  0.91748600  0.88562100  0.54877400  1
  H  H60  1  0.91748600  0.38562100  0.95122600  1
  H  H61  1  0.41748600  0.61437900  0.54877400  1
  H  H62  1  0.58251400  0.88562100  0.04877400  1
  H  H63  1  0.71260100  0.52469600  0.61186400  1
  O  O0  1  0.24935600  0.80945800  0.89441900  1
  O  O1  1  0.74935600  0.19054200  0.60558100  1
  O  O2  1  0.25064400  0.30945800  0.10558100  1
  O  O3  1  0.75064400  0.69054200  0.39441900  1
  O  O4  1  0.75064400  0.19054200  0.10558100  1
  O  O5  1  0.25064400  0.80945800  0.39441900  1
  O  O6  1  0.74935600  0.69054200  0.89441900  1
  O  O7  1  0.24935600  0.30945800  0.60558100  1
  O  O8  1  0.85280500  0.00920700  0.89504300  1
  O  O9  1  0.35280500  0.99079300  0.60495700  1
  O  O10  1  0.64719500  0.50920700  0.10495700  1
  O  O11  1  0.14719500  0.49079300  0.39504300  1
  O  O12  1  0.14719500  0.99079300  0.10495700  1
  O  O13  1  0.64719500  0.00920700  0.39504300  1
  O  O14  1  0.35280500  0.49079300  0.89504300  1
  O  O15  1  0.85280500  0.50920700  0.60495700  1
loop_
_geom_bond_atom_site_label_1
_geom_bond_atom_site_label_2
_geom_bond_distance
_geom_bond_site_symmetry_2
Na0 O12 2.414689 1_655
Na0 O8 2.432351 1_564
Na0 O6 2.456160 1_554
Na0 O0 2.499099 1_654
Na1 O13 2.414689 1_555
Na1 O9 2.432351 1_545
Na1 O7 2.456160 1_555
Na1 O1 2.499099 1_555
Na2 O14 2.414689 1_555
Na2 O10 2.432351 1_556
Na2 O4 2.456160 1_556
Na2 O2 2.499099 1_556
Na3 O15 2.414689 1_455
Na3 O11 2.432351 1_555
Na3 O5 2.456160 1_555
Na3 O3 2.499099 1_455
Na4 O8 2.414689 1_455
Na4 O12 2.432351 1_546
Na4 O2 2.456160 1_556
Na4 O4 2.499099 1_456
Na5 O9 2.414689 1_555
Na5 O13 2.432351 1_565
Na5 O3 2.456160 1_555
Na5 O5 2.499099 1_555
Na6 O10 2.414689 1_555
Na6 O14 2.432351 1_554
Na6 O0 2.456160 1_554
Na6 O6 2.499099 1_554
Na7 O11 2.414689 1_655
Na7 O15 2.432351 1_555
Na7 O1 2.456160 1_555
Na7 O7 2.499099 1_655
B0 H32 1.223071 1_555
B0 H56 1.225299 1_555
B0 H0 1.225907 1_555
B0 H8 1.241068 1_555
B1 H33 1.223071 1_555
B1 H57 1.225299 1_555
B1 H1 1.225907 1_555
B1 H9 1.241068 1_555
B2 H34 1.223071 1_555
B2 H58 1.225299 1_555
B2 H2 1.225907 1_555
B2 H10 1.241068 1_555
B3 H35 1.223071 1_555
B3 H59 1.225299 1_555
B3 H3 1.225907 1_555
B3 H11 1.241068 1_555
B4 H36 1.223071 1_555
B4 H60 1.225299 1_555
B4 H4 1.225907 1_555
B4 H12 1.241068 1_555
B5 H37 1.223071 1_555
B5 H61 1.225299 1_555
B5 H5 1.225907 1_555
B5 H13 1.241068 1_555
B6 H38 1.223071 1_555
B6 H62 1.225299 1_555
B6 H6 1.225907 1_555
B6 H14 1.241068 1_555
B7 H24 1.223071 1_555
B7 H39 1.225299 1_555
B7 H7 1.225907 1_555
B7 H15 1.241068 1_555
H0 Na6 2.442619 1_555
H1 Na7 2.442619 1_555
H2 Na4 2.442619 1_555
H3 Na5 2.442619 1_555
H4 Na2 2.442619 1_555
H5 Na3 2.442619 1_555
H6 Na0 2.442619 1_555
H7 Na1 2.442619 1_555
H16 O15 0.985554 1_555
H17 O14 0.985554 1_555
H18 O13 0.985554 1_565
H19 O12 0.985554 1_545
H20 O11 0.985554 1_555
H21 O10 0.985554 1_555
H22 O9 0.985554 1_545
H23 O8 0.985554 1_565
H24 Na7 2.565177 1_455
H25 O14 0.983157 1_555
H26 O13 0.983157 1_555
H27 O12 0.983157 1_555
H28 O11 0.983157 1_555
H29 O10 0.983157 1_555
H30 O9 0.983157 1_555
H31 O8 0.983157 1_555
H32 Na0 2.565177 1_455
H33 Na1 2.565177 1_555
H34 Na2 2.565177 1_555
H35 Na3 2.565177 1_655
H36 Na4 2.565177 1_655
H37 Na5 2.565177 1_555
H38 Na6 2.565177 1_555
H39 Na7 2.432846 1_455
H39 Na1 2.653470 1_555
H40 O7 0.978775 1_555
H41 O6 0.978775 1_555
H42 O5 0.978775 1_555
H43 O4 0.978775 1_555
H44 O3 0.978775 1_555
H45 O2 0.978775 1_555
H46 O1 0.978775 1_555
H47 O0 0.978775 1_555
H48 O7 0.984333 1_555
H49 O6 0.984333 1_555
H50 O5 0.984333 1_555
H51 O4 0.984333 1_555
H52 O3 0.984333 1_555
H53 O2 0.984333 1_555
H54 O1 0.984333 1_555
H55 O0 0.984333 1_555
H56 Na0 2.432846 1_455
H56 Na6 2.653470 1_555
H57 Na1 2.432846 1_555
H57 Na7 2.653470 1_555
H58 Na2 2.432846 1_555
H58 Na4 2.653470 1_555
H59 Na3 2.432846 1_655
H59 Na5 2.653470 1_555
H60 Na4 2.432846 1_655
H60 Na2 2.653470 1_555
H61 Na5 2.432846 1_555
H61 Na3 2.653470 1_555
H62 Na6 2.432846 1_555
H62 Na0 2.653470 1_555
H63 O15 0.983157 1_555
