# generated using pymatgen
data_Na3Hf2Ta2Si3(PO8)3
_symmetry_space_group_name_H-M   'P 1'
_cell_length_a   8.92798040
_cell_length_b   8.88365204
_cell_length_c   22.94476939
_cell_angle_alpha   90.01802271
_cell_angle_beta   90.04774182
_cell_angle_gamma   119.80021068
_symmetry_Int_Tables_number   1
_chemical_formula_structural   Na3Hf2Ta2Si3(PO8)3
_chemical_formula_sum   'Na9 Hf6 Ta6 Si9 P9 O72'
_cell_volume   1579.17261058
_cell_formula_units_Z   3
loop_
 _symmetry_equiv_pos_site_id
 _symmetry_equiv_pos_as_xyz
  1  'x, y, z'
loop_
 _atom_site_type_symbol
 _atom_site_label
 _atom_site_symmetry_multiplicity
 _atom_site_fract_x
 _atom_site_fract_y
 _atom_site_fract_z
 _atom_site_occupancy
  Na  Na0  1  0.99915029  0.63400794  0.25112159  1
  Na  Na1  1  0.66527975  0.96493642  0.58422502  1
  Na  Na2  1  0.66751589  0.69947931  0.08223598  1
  Na  Na3  1  0.01066011  0.99967126  0.50037842  1
  Na  Na4  1  0.00752186  0.00701847  0.99850863  1
  Na  Na5  1  0.66812154  0.33458847  0.83324135  1
  Na  Na6  1  0.66105813  0.32807124  0.33379794  1
  Na  Na7  1  0.33332229  0.66666550  0.16666962  1
  Na  Na8  1  0.32622690  0.66413477  0.66765192  1
  Hf  Hf0  1  0.00621958  0.99641654  0.64776615  1
  Hf  Hf1  1  0.00081135  0.00097965  0.14565749  1
  Hf  Hf2  1  0.66588844  0.33235939  0.18753024  1
  Hf  Hf3  1  0.32586666  0.66373095  0.01790691  1
  Hf  Hf4  1  0.32948828  0.66931304  0.51918912  1
  Hf  Hf5  1  0.34018264  0.66994167  0.31566449  1
  Ta  Ta0  1  0.99380078  0.99372953  0.35523189  1
  Ta  Ta1  1  0.99058574  0.99433440  0.85354271  1
  Ta  Ta2  1  0.66626512  0.33026986  0.68971381  1
  Ta  Ta3  1  0.67297377  0.33925316  0.97709920  1
  Ta  Ta4  1  0.66408922  0.33239175  0.47794870  1
  Ta  Ta5  1  0.33240784  0.66544315  0.81312077  1
  Si  Si0  1  0.70521424  0.71017748  0.24883347  1
  Si  Si1  1  0.00109428  0.70874620  0.75055869  1
  Si  Si2  1  0.70894150  0.99641272  0.74861201  1
  Si  Si3  1  0.37562627  0.04694984  0.58326289  1
  Si  Si4  1  0.96076872  0.62270532  0.08422225  1
  Si  Si5  1  0.62108219  0.66708109  0.91760585  1
  Si  Si6  1  0.04488558  0.37498239  0.91571877  1
  Si  Si7  1  0.62472537  0.95783409  0.41816460  1
  Si  Si8  1  0.04168228  0.66514158  0.41535603  1
  P  P0  1  0.28788622  0.00152420  0.25117139  1
  P  P1  1  0.00103095  0.28786409  0.25062441  1
  P  P2  1  0.28778603  0.28809183  0.75091087  1
  P  P3  1  0.95209773  0.33562304  0.58376952  1
  P  P4  1  0.66597269  0.61787907  0.58382687  1
  P  P5  1  0.66588742  0.04603033  0.08245023  1
  P  P6  1  0.37935224  0.33177833  0.08186149  1
  P  P7  1  0.33275050  0.95703134  0.91557784  1
  P  P8  1  0.33198031  0.37460938  0.41712904  1
  O  O0  1  0.19869302  0.02677123  0.30513551  1
  O  O1  1  0.83788091  0.81077427  0.30465732  1
  O  O2  1  0.98009655  0.17509895  0.30466566  1
  O  O3  1  0.20443257  0.17392818  0.80467087  1
  O  O4  1  0.97417054  0.80514612  0.80696583  1
  O  O5  1  0.83512738  0.02932710  0.80528815  1
  O  O6  1  0.79094252  0.96953644  0.68935937  1
  O  O7  1  0.17775975  0.20965101  0.69580699  1
  O  O8  1  0.03545695  0.82780241  0.69326535  1
  O  O9  1  0.79786439  0.82450288  0.19063587  1
  O  O10  1  0.02703244  0.20438751  0.19577590  1
  O  O11  1  0.17399055  0.97200514  0.19656742  1
  O  O12  1  0.86239384  0.35944308  0.63841466  1
  O  O13  1  0.50424965  0.14510786  0.63944662  1
  O  O14  1  0.64659666  0.50623344  0.63799975  1
  O  O15  1  0.86852591  0.50870311  0.14246504  1
  O  O16  1  0.63958513  0.12904633  0.13734134  1
  O  O17  1  0.49287186  0.36118087  0.13655302  1
  O  O18  1  0.46886063  0.30671483  0.02776626  1
  O  O19  1  0.82807295  0.52170880  0.02812325  1
  O  O20  1  0.68659568  0.15902228  0.02831021  1
  O  O21  1  0.47970784  0.16874833  0.52699159  1
  O  O22  1  0.69104618  0.53074450  0.52913973  1
  O  O23  1  0.83625313  0.31002154  0.52967996  1
  O  O24  1  0.54607025  0.70110873  0.97718950  1
  O  O25  1  0.15980555  0.46111726  0.97336106  1
  O  O26  1  0.30153995  0.84531338  0.97030388  1
  O  O27  1  0.54685030  0.84294913  0.47695115  1
  O  O28  1  0.30162104  0.45520769  0.47165275  1
  O  O29  1  0.16186072  0.69805616  0.47234943  1
  O  O30  1  0.11815347  0.63071172  0.35594795  1
  O  O31  1  0.50597388  0.87273484  0.36117790  1
  O  O32  1  0.36529409  0.48745840  0.36276453  1
  O  O33  1  0.13608080  0.50036274  0.85956474  1
  O  O34  1  0.36208574  0.86915206  0.86195728  1
  O  O35  1  0.49909837  0.64019541  0.86115094  1
  O  O36  1  0.02400994  0.84081424  0.40743575  1
  O  O37  1  0.82005904  0.98672132  0.40695178  1
  O  O38  1  0.17381558  0.19221142  0.40742910  1
  O  O39  1  0.02524368  0.18411517  0.90650049  1
  O  O40  1  0.17435728  0.98005464  0.90642897  1
  O  O41  1  0.81606469  0.83331008  0.90716772  1
  O  O42  1  0.95918256  0.16618026  0.58871691  1
  O  O43  1  0.18781717  0.03080939  0.58672327  1
  O  O44  1  0.82492905  0.80262032  0.58847112  1
  O  O45  1  0.96550469  0.80983805  0.08690729  1
  O  O46  1  0.83038990  0.02868666  0.08728258  1
  O  O47  1  0.19899056  0.17294749  0.08794808  1
  O  O48  1  0.68870068  0.17123582  0.74226496  1
  O  O49  1  0.47137860  0.31035569  0.74184941  1
  O  O50  1  0.82670528  0.51867698  0.74169158  1
  O  O51  1  0.70065436  0.52308516  0.24625090  1
  O  O52  1  0.83648548  0.30527458  0.24587239  1
  O  O53  1  0.46821249  0.16024066  0.24521918  1
  O  O54  1  0.63925249  0.49111021  0.92430396  1
  O  O55  1  0.84972026  0.35056235  0.92514740  1
  O  O56  1  0.49624943  0.13761497  0.92420231  1
  O  O57  1  0.64884365  0.15270198  0.42652374  1
  O  O58  1  0.49504365  0.35514259  0.42541690  1
  O  O59  1  0.84718946  0.50107965  0.42703728  1
  O  O60  1  0.37069242  0.50102542  0.07650812  1
  O  O61  1  0.15088864  0.64597760  0.07838440  1
  O  O62  1  0.51023295  0.86084131  0.07687609  1
  O  O63  1  0.37094909  0.86019847  0.57928284  1
  O  O64  1  0.50339705  0.63667086  0.57876638  1
  O  O65  1  0.13248515  0.49447538  0.57830179  1
  O  O66  1  0.29647479  0.83219973  0.25667938  1
  O  O67  1  0.51534043  0.68744509  0.25508809  1
  O  O68  1  0.15693929  0.47294837  0.25626113  1
  O  O69  1  0.31121153  0.47191792  0.75921493  1
  O  O70  1  0.16940731  0.68498387  0.75995503  1
  O  O71  1  0.51767353  0.83011981  0.76034985  1
loop_
_geom_bond_atom_site_label_1
_geom_bond_atom_site_label_2
_geom_bond_distance
_geom_bond_site_symmetry_2
Na0 O51 2.339829 1_555
Na0 O66 2.348716 1_655
Na0 O68 2.459449 1_655
Na0 O52 2.536936 1_555
Na0 O30 2.634663 1_655
Na0 O15 2.741861 1_555
Na0 O1 2.880436 1_555
Na0 O11 2.892452 1_655
Na1 O63 2.313658 1_555
Na1 O42 2.329951 1_565
Na1 O44 2.482554 1_555
Na1 O64 2.533566 1_555
Na1 O6 2.651289 1_555
Na1 O27 2.684362 1_555
Na1 O13 2.919440 1_565
Na1 O23 2.940874 1_565
Na2 O45 2.336139 1_555
Na2 O60 2.345981 1_555
Na2 O62 2.458131 1_555
Na2 O46 2.540373 1_565
Na2 O24 2.645089 1_554
Na2 O9 2.735475 1_555
Na2 O19 2.888290 1_555
Na2 O17 2.892119 1_555
Na3 O43 2.462258 1_565
Na3 O36 2.592152 1_555
Na3 O44 2.649932 1_455
Na3 O38 2.669627 1_565
Na3 O42 2.680115 1_465
Na3 O37 2.702478 1_455
Na4 O45 2.583298 1_446
Na4 O39 2.590790 1_555
Na4 O47 2.606544 1_556
Na4 O46 2.644735 1_456
Na4 O41 2.658136 1_445
Na4 O40 2.664443 1_545
Na5 O54 2.592452 1_555
Na5 O48 2.600147 1_555
Na5 O50 2.607146 1_555
Na5 O55 2.619369 1_555
Na5 O56 2.666690 1_555
Na5 O49 2.673330 1_555
Na6 O51 2.560469 1_555
Na6 O53 2.599762 1_555
Na6 O57 2.607523 1_555
Na6 O52 2.623802 1_555
Na6 O58 2.651979 1_555
Na6 O59 2.674684 1_555
Na7 O67 2.546914 1_555
Na7 O61 2.546916 1_555
Na7 O68 2.642176 1_555
Na7 O62 2.648520 1_555
Na7 O66 2.648788 1_555
Na7 O60 2.653954 1_555
Na8 O63 2.572291 1_555
Na8 O70 2.596607 1_555
Na8 O65 2.620580 1_555
Na8 O71 2.665797 1_555
Na8 O64 2.666377 1_555
Na8 O69 2.668852 1_555
Hf0 O8 1.947025 1_555
Hf0 O43 2.048261 1_565
Hf0 O6 2.051551 1_455
Hf0 O7 2.064268 1_565
Hf0 O44 2.158669 1_455
Hf0 O42 2.217273 1_465
Hf1 O9 1.996650 1_445
Hf1 O11 2.052815 1_545
Hf1 O10 2.054324 1_555
Hf1 O45 2.065346 1_445
Hf1 O47 2.129848 1_555
Hf1 O46 2.130410 1_455
Hf2 O15 1.995858 1_555
Hf2 O17 2.051832 1_555
Hf2 O16 2.054299 1_555
Hf2 O51 2.063390 1_555
Hf2 O53 2.127836 1_555
Hf2 O52 2.128550 1_555
Hf3 O25 1.956127 1_554
Hf3 O61 2.037094 1_555
Hf3 O26 2.047253 1_554
Hf3 O24 2.050008 1_554
Hf3 O60 2.152351 1_555
Hf3 O62 2.176289 1_555
Hf4 O29 1.958902 1_555
Hf4 O27 2.028127 1_555
Hf4 O63 2.070647 1_555
Hf4 O28 2.096945 1_555
Hf4 O65 2.153033 1_555
Hf4 O64 2.192649 1_555
Hf5 O31 1.967943 1_555
Hf5 O67 2.040486 1_555
Hf5 O32 2.051376 1_555
Hf5 O30 2.054697 1_555
Hf5 O66 2.149688 1_555
Hf5 O68 2.178503 1_555
O0 P0 1.548076 1_555
O0 Ta0 2.055153 1_445
O1 Si0 1.669377 1_555
O1 Ta0 1.916586 1_555
O2 P1 1.546301 1_655
O2 Ta0 2.038143 1_545
O3 P2 1.534951 1_555
O3 Ta1 2.103582 1_445
O4 Si1 1.634222 1_655
O4 Ta1 1.934443 1_555
O5 Si2 1.647933 1_545
O5 Ta1 1.917122 1_545
O6 Si2 1.617566 1_555
O7 P2 1.538211 1_555
O8 Si1 1.618614 1_555
O9 Si0 1.632942 1_555
O10 P1 1.535781 1_555
O11 P0 1.550835 1_565
O12 P3 1.558267 1_555
O12 Ta2 2.017743 1_555
O13 Si3 1.656033 1_555
O13 Ta2 1.938910 1_555
O14 P4 1.545717 1_555
O14 Ta2 2.038633 1_555
O15 Si4 1.632009 1_555
O16 P5 1.535357 1_555
O17 P6 1.550707 1_555
O18 P6 1.551483 1_555
O18 Ta3 2.058173 1_554
O19 Si4 1.674985 1_555
O19 Ta3 1.918468 1_554
O20 P5 1.549710 1_555
O20 Ta3 2.038016 1_554
O21 Si3 1.644618 1_555
O21 Ta4 1.927421 1_555
O22 P4 1.547861 1_555
O22 Ta4 2.029586 1_555
O23 P3 1.557420 1_555
O23 Ta4 2.027732 1_555
O24 Si5 1.615990 1_555
O25 Si6 1.613754 1_555
O26 P7 1.538130 1_555
O27 Si7 1.625278 1_555
O28 P8 1.531052 1_555
O29 Si8 1.622463 1_555
O30 Si8 1.620673 1_555
O31 Si7 1.614203 1_555
O32 P8 1.534434 1_555
O33 Si6 1.632445 1_555
O33 Ta5 1.951337 1_555
O34 P7 1.547546 1_555
O34 Ta5 2.030367 1_555
O35 Si5 1.630934 1_555
O35 Ta5 1.951607 1_555
O36 Si8 1.654784 1_555
O36 Ta0 1.928084 1_455
O37 Si7 1.652064 1_555
O37 Ta0 1.930121 1_555
O38 P8 1.547284 1_555
O38 Ta0 2.074888 1_445
O39 Si6 1.629327 1_555
O39 Ta1 1.973373 1_445
O40 P7 1.540352 1_555
O40 Ta1 2.093840 1_455
O41 Si5 1.647493 1_555
O41 Ta1 1.943413 1_555
O42 P3 1.541901 1_555
O43 Si3 1.612338 1_555
O44 P4 1.550309 1_555
O45 Si4 1.642953 1_555
O46 P5 1.554894 1_555
O47 P6 1.531512 1_555
O48 Si2 1.656786 1_545
O48 Ta2 1.942157 1_555
O49 P2 1.564415 1_555
O49 Ta2 2.046298 1_555
O50 Si1 1.644008 1_655
O50 Ta2 1.971916 1_555
O51 Si0 1.643260 1_555
O52 P1 1.555484 1_655
O53 P0 1.530637 1_555
O54 Si5 1.657078 1_555
O54 Ta3 1.944763 1_555
O55 Si6 1.659782 1_655
O55 Ta3 1.940797 1_555
O56 P7 1.554111 1_545
O56 Ta3 2.087454 1_555
O57 Si7 1.645967 1_545
O57 Ta4 1.934304 1_555
O58 P8 1.560545 1_555
O58 Ta4 2.017863 1_555
O59 Si8 1.642184 1_655
O59 Ta4 1.962634 1_555
O60 P6 1.548327 1_555
O61 Si4 1.610404 1_455
O62 P5 1.543132 1_565
O63 Si3 1.641194 1_565
O64 P4 1.545541 1_555
O65 P3 1.530478 1_455
O66 P0 1.548960 1_565
O67 Si0 1.610963 1_555
O68 P1 1.543518 1_555
O69 P2 1.551499 1_555
O69 Ta5 2.048465 1_555
O70 Si1 1.632152 1_555
O70 Ta5 1.970863 1_555
O71 Si2 1.632340 1_555
O71 Ta5 1.985306 1_555
