# generated using pymatgen
data_Ga2CuCl8
_symmetry_space_group_name_H-M   'P 1'
_cell_length_a   7.43465843
_cell_length_b   6.70449094
_cell_length_c   12.37205672
_cell_angle_alpha   85.66036556
_cell_angle_beta   90.00000000
_cell_angle_gamma   90.00000000
_symmetry_Int_Tables_number   1
_chemical_formula_structural   Ga2CuCl8
_chemical_formula_sum   'Ga4 Cu2 Cl16'
_cell_volume   614.92455091
_cell_formula_units_Z   2
loop_
 _symmetry_equiv_pos_site_id
 _symmetry_equiv_pos_as_xyz
  1  'x, y, z'
loop_
 _atom_site_type_symbol
 _atom_site_label
 _atom_site_symmetry_multiplicity
 _atom_site_fract_x
 _atom_site_fract_y
 _atom_site_fract_z
 _atom_site_occupancy
  Ga  Ga0  1  0.23617648  0.19232019  0.31413797  1
  Ga  Ga1  1  0.73617648  0.80767981  0.18586203  1
  Ga  Ga2  1  0.26382352  0.19232019  0.81413797  1
  Ga  Ga3  1  0.76382352  0.80767981  0.68586203  1
  Cu  Cu0  1  -0.00000000  0.00000000  -0.00000000  1
  Cu  Cu1  1  0.50000000  0.00000000  0.50000000  1
  Cl  Cl0  1  0.98751231  0.63756681  0.63933650  1
  Cl  Cl1  1  0.48751231  0.36243319  0.86066350  1
  Cl  Cl2  1  0.01248769  0.36243319  0.36066350  1
  Cl  Cl3  1  0.51248769  0.63756681  0.13933650  1
  Cl  Cl4  1  0.74071259  0.11189885  0.59454225  1
  Cl  Cl5  1  0.24071259  0.88810115  0.90545775  1
  Cl  Cl6  1  0.99337684  0.70667799  0.10923132  1
  Cl  Cl7  1  0.49337684  0.29332201  0.39076868  1
  Cl  Cl8  1  0.00662316  0.29332201  0.89076868  1
  Cl  Cl9  1  0.50662316  0.70667799  0.60923132  1
  Cl  Cl10  1  0.77233810  0.83844362  0.35624421  1
  Cl  Cl11  1  0.27233810  0.16155638  0.14375579  1
  Cl  Cl12  1  0.22766190  0.16155638  0.64375579  1
  Cl  Cl13  1  0.72766190  0.83844362  0.85624421  1
  Cl  Cl14  1  0.75928741  0.11189885  0.09454225  1
  Cl  Cl15  1  0.25928741  0.88810115  0.40545775  1
loop_
_geom_bond_atom_site_label_1
_geom_bond_atom_site_label_2
_geom_bond_distance
_geom_bond_site_symmetry_2
Cl0 Ga3 2.120663 1_555
Cl1 Ga2 2.120663 1_555
Cl2 Ga0 2.120663 1_555
Cl3 Ga1 2.120663 1_555
Cl4 Ga3 2.262159 1_545
Cl4 Cu1 2.294890 1_555
Cl5 Ga2 2.262159 1_565
Cl5 Cu0 2.294890 1_566
Cl6 Ga1 2.260766 1_555
Cl6 Cu0 2.300862 1_665
Cl7 Ga0 2.260766 1_555
Cl7 Cu1 2.300862 1_555
Cl8 Ga2 2.260766 1_555
Cl8 Cu0 2.300862 1_556
Cl9 Ga3 2.260766 1_555
Cl9 Cu1 2.300862 1_565
Cl10 Ga1 2.150393 1_555
Cl10 Cu1 2.954251 1_565
Cl11 Ga0 2.150393 1_555
Cl11 Cu0 2.954251 1_555
Cl12 Ga2 2.150393 1_555
Cl12 Cu1 2.954251 1_555
Cl13 Ga3 2.150393 1_555
Cl13 Cu0 2.954251 1_666
Cl14 Ga1 2.262159 1_545
Cl14 Cu0 2.294890 1_655
Cl15 Ga0 2.262159 1_565
Cl15 Cu1 2.294890 1_565
