# generated using pymatgen
data_Na4Mg(CuO2)4
_symmetry_space_group_name_H-M   'P 1'
_cell_length_a   5.70171500
_cell_length_b   5.72003214
_cell_length_c   6.91351049
_cell_angle_alpha   98.00530567
_cell_angle_beta   83.12015535
_cell_angle_gamma   77.52794860
_symmetry_Int_Tables_number   1
_chemical_formula_structural   Na4Mg(CuO2)4
_chemical_formula_sum   'Na4 Mg1 Cu4 O8'
_cell_volume   215.37622420
_cell_formula_units_Z   1
loop_
 _symmetry_equiv_pos_site_id
 _symmetry_equiv_pos_as_xyz
  1  'x, y, z'
loop_
 _atom_site_type_symbol
 _atom_site_label
 _atom_site_symmetry_multiplicity
 _atom_site_fract_x
 _atom_site_fract_y
 _atom_site_fract_z
 _atom_site_occupancy
  Na  Na0  1  0.50000000  -0.00000000  0.50000000  1
  Na  Na1  1  0.57611770  0.21882823  0.06762903  1
  Na  Na2  1  0.50000000  0.50000000  0.50000000  1
  Na  Na3  1  0.42388230  0.78117177  0.93237097  1
  Mg  Mg0  1  -0.00000000  0.50000000  -0.00000000  1
  Cu  Cu0  1  0.03788895  0.33569565  0.29905412  1
  Cu  Cu1  1  0.03357389  0.84924056  0.28172655  1
  Cu  Cu2  1  0.96642611  0.15075944  0.71827345  1
  Cu  Cu3  1  0.96211105  0.66430435  0.70094588  1
  O  O0  1  0.26891754  0.03802908  0.23714526  1
  O  O1  1  0.19356212  0.36476844  0.71410157  1
  O  O2  1  0.24831339  0.53060115  0.18761391  1
  O  O3  1  0.19631339  0.84610421  0.66141654  1
  O  O4  1  0.80368661  0.15389579  0.33858346  1
  O  O5  1  0.75168661  0.46939885  0.81238609  1
  O  O6  1  0.80643788  0.63523156  0.28589843  1
  O  O7  1  0.73108246  0.96197092  0.76285474  1
loop_
_geom_bond_atom_site_label_1
_geom_bond_atom_site_label_2
_geom_bond_distance
_geom_bond_site_symmetry_2
Na0 O4 2.342546 1_555
Na0 O3 2.342546 1_545
Na0 O7 2.376053 1_545
Na0 O0 2.376053 1_555
Na0 O1 2.557883 1_555
Na0 O6 2.557883 1_545
Na1 O2 2.266852 1_555
Na1 O7 2.347347 1_544
Na1 O4 2.428690 1_555
Na1 O0 2.477737 1_555
Na1 O5 2.659177 1_554
Na2 O4 2.367271 1_555
Na2 O3 2.367271 1_555
Na2 O1 2.474909 1_555
Na2 O6 2.474909 1_555
Na2 O5 2.737431 1_555
Na2 O2 2.737431 1_555
Na3 O5 2.266852 1_555
Na3 O0 2.347347 1_566
Na3 O3 2.428690 1_555
Na3 O7 2.477737 1_555
Na3 O2 2.659177 1_556
Mg0 O2 2.049712 1_555
Mg0 O5 2.049712 1_454
Mg0 O6 2.099038 1_455
Mg0 O1 2.099038 1_554
Cu0 O0 1.873666 1_555
Cu0 O4 1.879034 1_455
Cu0 O6 1.944461 1_455
Cu0 O2 1.967615 1_555
Cu1 O4 1.899618 1_465
Cu1 O0 1.918652 1_565
Cu1 O2 1.938913 1_555
Cu1 O6 1.965242 1_455
Cu2 O3 1.899618 1_645
Cu2 O7 1.918652 1_545
Cu2 O5 1.938913 1_555
Cu2 O1 1.965242 1_655
Cu3 O7 1.873666 1_555
Cu3 O3 1.879034 1_655
Cu3 O1 1.944461 1_655
Cu3 O5 1.967615 1_555
