# generated using pymatgen
data_Na8Y2Zr2Si5SO24
_symmetry_space_group_name_H-M   'P 1'
_cell_length_a   9.42377275
_cell_length_b   9.41002076
_cell_length_c   22.95685814
_cell_angle_alpha   90.07470692
_cell_angle_beta   89.81285287
_cell_angle_gamma   119.94350842
_symmetry_Int_Tables_number   1
_chemical_formula_structural   Na8Y2Zr2Si5SO24
_chemical_formula_sum   'Na24 Y6 Zr6 Si15 S3 O72'
_cell_volume   1764.01819354
_cell_formula_units_Z   3
loop_
 _symmetry_equiv_pos_site_id
 _symmetry_equiv_pos_as_xyz
  1  'x, y, z'
loop_
 _atom_site_type_symbol
 _atom_site_label
 _atom_site_symmetry_multiplicity
 _atom_site_fract_x
 _atom_site_fract_y
 _atom_site_fract_z
 _atom_site_occupancy
  Na  Na0  1  0.64905108  0.00794198  0.25401511  1
  Na  Na1  1  0.35065223  0.35943898  0.24624994  1
  Na  Na2  1  0.00017630  0.64202876  0.24976256  1
  Na  Na3  1  0.63641953  0.63492474  0.74445212  1
  Na  Na4  1  0.99005568  0.35461714  0.74836424  1
  Na  Na5  1  0.36886123  0.01254403  0.74842636  1
  Na  Na6  1  0.30032192  0.33807015  0.59017883  1
  Na  Na7  1  0.03940740  0.70288318  0.58306074  1
  Na  Na8  1  0.66458044  0.95833904  0.58358565  1
  Na  Na9  1  0.27727626  0.96438740  0.07985495  1
  Na  Na10  1  0.67204275  0.68172364  0.09176559  1
  Na  Na11  1  0.05322880  0.34149755  0.09011603  1
  Na  Na12  1  0.98641038  0.67056365  0.91533243  1
  Na  Na13  1  0.70800932  0.05343255  0.90226012  1
  Na  Na14  1  0.31252211  0.27550274  0.91869288  1
  Na  Na15  1  0.95232323  0.29337139  0.40843759  1
  Na  Na16  1  0.32665109  0.01199605  0.41556020  1
  Na  Na17  1  0.71840552  0.68669079  0.41939455  1
  Na  Na18  1  0.98368436  0.98095183  0.50307165  1
  Na  Na19  1  0.03615393  0.01449624  0.99951635  1
  Na  Na20  1  0.66838236  0.31858415  0.82937983  1
  Na  Na21  1  0.67852186  0.32886570  0.33213067  1
  Na  Na22  1  0.31796414  0.64607942  0.16829534  1
  Na  Na23  1  0.33717362  0.66669913  0.66324351  1
  Y  Y0  1  0.99779506  0.99630479  0.34513239  1
  Y  Y1  1  0.00703760  0.00396712  0.84475282  1
  Y  Y2  1  0.00322850  0.99912382  0.15556540  1
  Y  Y3  1  0.66643655  0.33478573  0.98038678  1
  Y  Y4  1  0.31808579  0.65693749  0.01842460  1
  Y  Y5  1  0.33567397  0.67556940  0.52071078  1
  Zr  Zr0  1  0.00024881  0.00061503  0.64963159  1
  Zr  Zr1  1  0.66875664  0.33351166  0.68352107  1
  Zr  Zr2  1  0.66704590  0.34313281  0.18516106  1
  Zr  Zr3  1  0.67566998  0.33057499  0.48551752  1
  Zr  Zr4  1  0.33048371  0.67762403  0.31658965  1
  Zr  Zr5  1  0.31987506  0.66693775  0.81065881  1
  Si  Si0  1  0.31252200  0.00382165  0.25046266  1
  Si  Si1  1  0.68577864  0.69175928  0.25036868  1
  Si  Si2  1  0.00069752  0.31106210  0.25026393  1
  Si  Si3  1  0.30465096  0.30475294  0.74918368  1
  Si  Si4  1  0.99486414  0.69786854  0.74986335  1
  Si  Si5  1  0.69721105  0.99740010  0.75031792  1
  Si  Si6  1  0.96245933  0.32568267  0.58519066  1
  Si  Si7  1  0.36984274  0.04489528  0.58397342  1
  Si  Si8  1  0.67228467  0.62831858  0.58373940  1
  Si  Si9  1  0.96532692  0.63632576  0.08263392  1
  Si  Si10  1  0.36679649  0.33389435  0.08303424  1
  Si  Si11  1  0.03210353  0.36181121  0.91527297  1
  Si  Si12  1  0.33474421  0.96580168  0.91660685  1
  Si  Si13  1  0.63625826  0.97226703  0.41809594  1
  Si  Si14  1  0.02662272  0.66270321  0.41893598  1
  S  S0  1  0.66975845  0.03792447  0.08449328  1
  S  S1  1  0.62505102  0.66797772  0.91491365  1
  S  S2  1  0.33872461  0.37202020  0.41648245  1
  O  O0  1  0.23860304  0.04844947  0.30769580  1
  O  O1  1  0.80798240  0.77249029  0.30605068  1
  O  O2  1  0.96382202  0.19429068  0.30752073  1
  O  O3  1  0.23449692  0.19359923  0.80784314  1
  O  O4  1  0.95672770  0.76632181  0.80918640  1
  O  O5  1  0.80498730  0.03483725  0.80930110  1
  O  O6  1  0.79691914  0.97237265  0.69514801  1
  O  O7  1  0.17779952  0.20877851  0.69406656  1
  O  O8  1  0.02322604  0.82326923  0.69497991  1
  O  O9  1  0.75933031  0.80959817  0.19305815  1
  O  O10  1  0.03764499  0.23242937  0.19265280  1
  O  O11  1  0.19157182  0.96143164  0.19447955  1
  O  O12  1  0.86853451  0.34764790  0.64118570  1
  O  O13  1  0.48319748  0.14072371  0.64010372  1
  O  O14  1  0.65670678  0.51745441  0.64055129  1
  O  O15  1  0.85943049  0.51835944  0.13842270  1
  O  O16  1  0.65346803  0.12379278  0.13633149  1
  O  O17  1  0.47916088  0.33500617  0.13886343  1
  O  O18  1  0.44783726  0.31006856  0.02314723  1
  O  O19  1  0.86515303  0.54753289  0.02312355  1
  O  O20  1  0.68460984  0.13227641  0.03041746  1
  O  O21  1  0.46292426  0.15670207  0.52537917  1
  O  O22  1  0.69265637  0.53555324  0.52513266  1
  O  O23  1  0.84745041  0.30348857  0.52667616  1
  O  O24  1  0.54827356  0.68260383  0.96991669  1
  O  O25  1  0.13806083  0.44234784  0.97503330  1
  O  O26  1  0.32717131  0.86942399  0.97707824  1
  O  O27  1  0.55586554  0.85978249  0.47587220  1
  O  O28  1  0.31932341  0.44965998  0.47025398  1
  O  O29  1  0.13276382  0.68012027  0.47697695  1
  O  O30  1  0.12433771  0.64275983  0.36172006  1
  O  O31  1  0.51766333  0.87063777  0.36172608  1
  O  O32  1  0.35127050  0.47256636  0.36457137  1
  O  O33  1  0.14238413  0.48013119  0.85945690  1
  O  O34  1  0.34393890  0.85846613  0.86014370  1
  O  O35  1  0.52531393  0.65685598  0.86360395  1
  O  O36  1  0.01130786  0.82909341  0.41437071  1
  O  O37  1  0.82455432  0.00722883  0.41257272  1
  O  O38  1  0.19223349  0.20561830  0.41233683  1
  O  O39  1  0.00177569  0.17458293  0.91299938  1
  O  O40  1  0.16481144  0.97499649  0.91493949  1
  O  O41  1  0.79088485  0.81447311  0.91172151  1
  O  O42  1  0.96775832  0.15394986  0.58846792  1
  O  O43  1  0.18956831  0.03311106  0.58790589  1
  O  O44  1  0.84112962  0.80917794  0.58744939  1
  O  O45  1  0.97616406  0.81603126  0.08617552  1
  O  O46  1  0.81802556  0.02365854  0.08829987  1
  O  O47  1  0.17960149  0.17727592  0.08696707  1
  O  O48  1  0.66946815  0.15581536  0.74220755  1
  O  O49  1  0.48912577  0.33088101  0.74049287  1
  O  O50  1  0.84049725  0.51163498  0.74177985  1
  O  O51  1  0.66412305  0.50660007  0.24283689  1
  O  O52  1  0.83869212  0.33305368  0.24298883  1
  O  O53  1  0.50000445  0.15588383  0.24100777  1
  O  O54  1  0.63699582  0.51560600  0.91603820  1
  O  O55  1  0.85596702  0.35958572  0.91237537  1
  O  O56  1  0.49973773  0.14885982  0.91183519  1
  O  O57  1  0.63587364  0.14965380  0.41948802  1
  O  O58  1  0.49059114  0.36138887  0.41857255  1
  O  O59  1  0.84242305  0.49426637  0.41948873  1
  O  O60  1  0.37120530  0.51179432  0.08725942  1
  O  O61  1  0.14884889  0.65469620  0.08725871  1
  O  O62  1  0.52070473  0.87209200  0.08247736  1
  O  O63  1  0.35120345  0.86193289  0.58388767  1
  O  O64  1  0.50658778  0.64326275  0.58288089  1
  O  O65  1  0.14626042  0.48498188  0.58288140  1
  O  O66  1  0.33171520  0.83912589  0.25845585  1
  O  O67  1  0.49971833  0.65950327  0.26149178  1
  O  O68  1  0.16306927  0.49453130  0.25837809  1
  O  O69  1  0.32294563  0.48842038  0.75335959  1
  O  O70  1  0.16517511  0.68561703  0.75194053  1
  O  O71  1  0.51633375  0.82878320  0.75370712  1
loop_
_geom_bond_atom_site_label_1
_geom_bond_atom_site_label_2
_geom_bond_distance
_geom_bond_site_symmetry_2
Na0 O53 2.440473 1_555
Na0 O66 2.594797 1_545
Na0 O52 2.675499 1_555
Na0 O31 2.776328 1_545
Na0 O67 2.855537 1_545
Na0 O2 2.865010 1_555
Na0 O9 2.905489 1_545
Na0 O16 2.907012 1_555
Na1 O67 2.471736 1_555
Na1 O51 2.562292 1_555
Na1 O68 2.656621 1_555
Na1 O17 2.802488 1_555
Na1 O10 2.853708 1_555
Na1 O53 2.890334 1_555
Na1 O32 2.915108 1_555
Na1 O0 2.930006 1_555
Na2 O52 2.525221 1_455
Na2 O68 2.540005 1_555
Na2 O66 2.731219 1_555
Na2 O51 2.766287 1_455
Na2 O30 2.826051 1_555
Na2 O15 2.849597 1_455
Na2 O11 2.912151 1_555
Na2 O1 2.942377 1_455
Na3 O49 2.481176 1_555
Na3 O69 2.569107 1_555
Na3 O71 2.590720 1_555
Na3 O14 2.673748 1_555
Na3 O50 2.697182 1_555
Na3 O35 2.969267 1_555
Na3 O6 2.975820 1_555
Na3 O4 3.024459 1_555
Na4 O50 2.504649 1_555
Na4 O48 2.647060 1_555
Na4 O70 2.701937 1_655
Na4 O12 2.704208 1_555
Na4 O69 2.738353 1_655
Na4 O33 2.878086 1_655
Na4 O5 2.968080 1_555
Na4 O7 2.995393 1_655
Na5 O48 2.459310 1_555
Na5 O49 2.627143 1_555
Na5 O70 2.694392 1_545
Na5 O71 2.708669 1_545
Na5 O13 2.737269 1_555
Na5 O34 2.898397 1_545
Na5 O3 2.915964 1_555
Na6 O65 2.460265 1_555
Na6 O43 2.517348 1_555
Na6 O64 2.545660 1_555
Na6 O7 2.662424 1_555
Na6 O42 2.721276 1_455
Na6 O28 2.920762 1_555
Na7 O44 2.523150 1_455
Na7 O63 2.546390 1_555
Na7 O29 2.631269 1_555
Na7 O65 2.698055 1_555
Na7 O43 2.698411 1_565
Na7 O8 2.840816 1_555
Na8 O42 2.512997 1_565
Na8 O64 2.569190 1_555
Na8 O63 2.621021 1_555
Na8 O44 2.660573 1_555
Na8 O27 2.662014 1_555
Na8 O6 2.826250 1_555
Na9 O45 2.462765 1_455
Na9 O61 2.542678 1_555
Na9 O47 2.593460 1_565
Na9 O26 2.644474 1_554
Na9 O11 2.746151 1_555
Na9 O62 2.830267 1_555
Na10 O60 2.465948 1_555
Na10 O45 2.491912 1_555
Na10 O9 2.559091 1_555
Na10 O46 2.798743 1_565
Na10 O62 2.800335 1_555
Na11 O47 2.376526 1_555
Na11 O10 2.543512 1_555
Na11 O60 2.599382 1_555
Na11 O61 2.617486 1_555
Na11 O46 2.691145 1_455
Na11 O25 2.784764 1_554
Na12 O40 2.495028 1_655
Na12 O55 2.547145 1_555
Na12 O4 2.662686 1_555
Na12 O19 2.727231 1_556
Na12 O41 2.779943 1_555
Na12 O54 2.859288 1_555
Na13 O5 2.359219 1_555
Na13 O39 2.424354 1_655
Na13 O55 2.507590 1_555
Na13 O56 2.542241 1_555
Na13 O41 2.732938 1_545
Na14 O40 2.451936 1_545
Na14 O56 2.579584 1_555
Na14 O39 2.592379 1_555
Na14 O3 2.655531 1_555
Na14 O18 2.661934 1_556
Na14 O54 2.749678 1_555
Na15 O37 2.339295 1_555
Na15 O2 2.518306 1_555
Na15 O59 2.581133 1_555
Na15 O57 2.599296 1_555
Na15 O38 2.768867 1_655
Na15 O23 2.903346 1_555
Na16 O57 2.531968 1_555
Na16 O36 2.586231 1_545
Na16 O38 2.689735 1_555
Na16 O0 2.690283 1_555
Na16 O21 2.850581 1_555
Na16 O58 2.851412 1_555
Na16 O31 2.984702 1_545
Na16 O29 3.062279 1_545
Na17 O36 2.394528 1_655
Na17 O59 2.599464 1_555
Na17 O37 2.666678 1_565
Na17 O58 2.723837 1_555
Na17 O1 2.728680 1_555
Na17 O22 2.763067 1_555
Na18 O44 2.448066 1_555
Na18 O36 2.572272 1_655
Na18 O42 2.597995 1_565
Na18 O43 2.621009 1_665
Na18 O37 2.649174 1_565
Na18 O38 2.916800 1_665
Na19 O40 2.410534 1_545
Na19 O47 2.479258 1_556
Na19 O45 2.591049 1_446
Na19 O39 2.611186 1_555
Na19 O46 2.921679 1_456
Na19 O41 2.936807 1_445
Na20 O56 2.472650 1_555
Na20 O55 2.498651 1_555
Na20 O48 2.521588 1_555
Na20 O50 2.649874 1_555
Na20 O49 2.692436 1_555
Na20 O54 2.831329 1_555
Na21 O57 2.520755 1_555
Na21 O52 2.527516 1_555
Na21 O59 2.538157 1_555
Na21 O53 2.671364 1_555
Na21 O51 2.693517 1_555
Na21 O58 2.772126 1_555
Na22 O60 2.435160 1_555
Na22 O61 2.481153 1_555
Na22 O68 2.520115 1_555
Na22 O67 2.708204 1_555
Na22 O66 2.712517 1_555
Na22 O62 2.825730 1_555
Na23 O64 2.516398 1_555
Na23 O63 2.544818 1_555
Na23 O65 2.550805 1_555
Na23 O69 2.625812 1_555
Na23 O71 2.633194 1_555
Na23 O70 2.659060 1_555
O0 Si0 1.634789 1_555
O0 Y0 2.237396 1_445
O1 Si1 1.634340 1_555
O1 Y0 2.164473 1_555
O2 Si2 1.635695 1_655
O2 Y0 2.218207 1_545
O3 Si3 1.628519 1_555
O3 Y1 2.161138 1_555
O4 Si4 1.619999 1_555
O4 Y1 2.198089 1_665
O5 Si5 1.624721 1_545
O5 Y1 2.221523 1_655
O6 Si5 1.659764 1_555
O6 Zr0 2.076853 1_665
O7 Si3 1.665778 1_555
O7 Zr0 2.100285 1_555
O8 Si4 1.654748 1_455
O8 Zr0 2.069398 1_565
O9 Si1 1.634495 1_555
O9 Y2 2.259042 1_655
O10 Si2 1.633880 1_555
O10 Y2 2.221715 1_545
O11 Si0 1.632285 1_565
O11 Y2 2.171128 1_555
O12 Si6 1.628839 1_555
O12 Zr1 2.060352 1_555
O13 Si7 1.630651 1_555
O13 Zr1 2.045034 1_555
O14 Si8 1.631041 1_555
O14 Zr1 2.045340 1_555
O15 Si9 1.660689 1_555
O15 Zr2 2.040738 1_555
O16 S0 1.487549 1_555
O16 Zr2 2.294403 1_555
O17 Si10 1.661867 1_555
O17 Zr2 2.036512 1_555
O18 Si10 1.639180 1_555
O18 Y3 2.184150 1_554
O19 Si9 1.635161 1_555
O19 Y3 2.177508 1_554
O20 S0 1.492201 1_555
O20 Y3 2.304921 1_554
O21 Si7 1.661458 1_555
O21 Zr3 2.061829 1_555
O22 Si8 1.664803 1_555
O22 Zr3 2.064293 1_555
O23 Si6 1.674984 1_555
O23 Zr3 2.000214 1_555
O24 S1 1.493264 1_555
O24 Y4 2.337927 1_556
O25 Si11 1.644480 1_555
O25 Y4 2.129287 1_556
O26 Si12 1.640977 1_555
O26 Y4 2.177109 1_556
O27 Si13 1.627924 1_555
O27 Y5 2.184047 1_555
O28 S2 1.490141 1_555
O28 Y5 2.356331 1_555
O29 Si14 1.627032 1_555
O29 Y5 2.181894 1_555
O30 Si14 1.665059 1_555
O30 Zr4 2.075212 1_555
O31 Si13 1.666582 1_555
O31 Zr4 2.071886 1_555
O32 S2 1.489865 1_555
O32 Zr4 2.315024 1_555
O33 Si11 1.673764 1_555
O33 Zr5 2.049485 1_555
O34 Si12 1.670648 1_555
O34 Zr5 2.044145 1_555
O35 S1 1.480050 1_555
O35 Zr5 2.330984 1_555
O36 Si14 1.646042 1_555
O36 Y0 2.286124 1_455
O37 Si13 1.639778 1_545
O37 Y0 2.285493 1_545
O38 S2 1.486345 1_555
O38 Y0 2.454560 1_445
O39 Si11 1.638783 1_555
O39 Y1 2.259895 1_555
O40 Si12 1.646873 1_555
O40 Y1 2.302732 1_565
O41 S1 1.482176 1_555
O41 Y1 2.460307 1_665
O42 Si6 1.643332 1_555
O42 Zr0 2.143911 1_655
O43 Si7 1.648499 1_555
O43 Zr0 2.173589 1_555
O44 Si8 1.653065 1_555
O44 Zr0 2.200471 1_665
O45 Si9 1.644361 1_555
O45 Y2 2.264473 1_655
O46 S0 1.471734 1_555
O46 Y2 2.429974 1_645
O47 Si10 1.641965 1_555
O47 Y2 2.293713 1_545
O48 Si5 1.647812 1_545
O48 Zr1 2.151343 1_555
O49 Si3 1.641227 1_555
O49 Zr1 2.126161 1_555
O50 Si4 1.636367 1_555
O50 Zr1 2.125499 1_555
O51 Si1 1.658859 1_555
O51 Zr2 2.038819 1_555
O52 Si2 1.648845 1_655
O52 Zr2 2.134330 1_555
O53 Si0 1.640327 1_555
O53 Zr2 2.109531 1_555
O54 S1 1.493458 1_555
O54 Y3 2.373794 1_555
O55 Si11 1.651075 1_655
O55 Y3 2.291061 1_555
O56 Si12 1.649987 1_545
O56 Y3 2.295789 1_555
O57 Si13 1.671289 1_545
O57 Zr3 2.167117 1_555
O58 S2 1.484556 1_555
O58 Zr3 2.451844 1_555
O59 Si14 1.666988 1_655
O59 Zr3 2.171146 1_555
O60 Si10 1.656418 1_555
O60 Y4 2.303575 1_555
O61 Si9 1.653758 1_455
O61 Y4 2.234080 1_555
O62 S0 1.490753 1_565
O62 Y4 2.461408 1_555
O63 Si7 1.641076 1_565
O63 Y5 2.222356 1_555
O64 Si8 1.636408 1_555
O64 Y5 2.286607 1_555
O65 Si6 1.630220 1_455
O65 Y5 2.287761 1_555
O66 Si0 1.658020 1_565
O66 Zr4 2.019502 1_555
O67 Si1 1.642465 1_555
O67 Zr4 2.104804 1_555
O68 Si2 1.649394 1_555
O68 Zr4 2.130149 1_555
O69 Si3 1.651726 1_555
O69 Zr5 2.143725 1_555
O70 Si4 1.666352 1_455
O70 Zr5 2.059753 1_555
O71 Si5 1.651849 1_555
O71 Zr5 2.151982 1_555
