# generated using pymatgen
data_Na2La4In4SiS11O48
_symmetry_space_group_name_H-M   'P 1'
_cell_length_a   18.37244726
_cell_length_b   9.21977089
_cell_length_c   24.37219450
_cell_angle_alpha   90.01337355
_cell_angle_beta   89.99815898
_cell_angle_gamma   120.10759008
_symmetry_Int_Tables_number   1
_chemical_formula_structural   Na2La4In4SiS11O48
_chemical_formula_sum   'Na6 La12 In12 Si3 S33 O144'
_cell_volume   3571.41673920
_cell_formula_units_Z   3
loop_
 _symmetry_equiv_pos_site_id
 _symmetry_equiv_pos_as_xyz
  1  'x, y, z'
loop_
 _atom_site_type_symbol
 _atom_site_label
 _atom_site_symmetry_multiplicity
 _atom_site_fract_x
 _atom_site_fract_y
 _atom_site_fract_z
 _atom_site_occupancy
  Na  Na0  1  0.00265684  0.98141741  0.49464153  1
  Na  Na1  1  0.50144685  0.02411959  0.99584512  1
  Na  Na2  1  0.34476805  0.33554223  0.83704982  1
  Na  Na3  1  0.84302385  0.35584822  0.82913581  1
  Na  Na4  1  0.33014471  0.32865563  0.33511561  1
  Na  Na5  1  0.84857270  0.35785074  0.33357776  1
  La  La0  1  0.99929044  0.99124477  0.85648715  1
  La  La1  1  0.49978417  0.00848448  0.85700439  1
  La  La2  1  0.99946489  0.98659442  0.65122865  1
  La  La3  1  0.50072783  0.00197439  0.64075351  1
  La  La4  1  0.33751454  0.33660829  0.68248422  1
  La  La5  1  0.83909762  0.35149990  0.68256405  1
  La  La6  1  0.34083657  0.33569049  0.98478279  1
  La  La7  1  0.83985111  0.34584534  0.47475510  1
  La  La8  1  0.66117817  0.65395517  0.02472042  1
  La  La9  1  0.16011378  0.67057707  0.51195789  1
  La  La10  1  0.15695768  0.66085462  0.81117554  1
  La  La11  1  0.66449967  0.66053135  0.81866319  1
  In  In0  1  0.00123214  0.99450854  0.34727800  1
  In  In1  1  0.50060918  -0.00007396  0.35061903  1
  In  In2  1  0.99888784  0.99764760  0.14901605  1
  In  In3  1  0.50031288  0.00242095  0.15612426  1
  In  In4  1  0.32655533  0.32646879  0.18153192  1
  In  In5  1  0.84087603  0.34099897  0.18485414  1
  In  In6  1  0.83527804  0.33555048  0.98947730  1
  In  In7  1  0.33481702  0.33498106  0.47871085  1
  In  In8  1  0.16425325  0.66229342  0.02254073  1
  In  In9  1  0.66531635  0.66868076  0.51179555  1
  In  In10  1  0.16663541  0.66860702  0.31512691  1
  In  In11  1  0.66306486  0.66330025  0.31153963  1
  Si  Si0  1  0.99285773  0.69116535  0.75168311  1
  Si  Si1  1  0.51306483  0.36330472  0.91873520  1
  Si  Si2  1  0.01876233  0.67642695  0.40661578  1
  S  S0  1  0.14899839  0.00693692  0.24740404  1
  S  S1  1  0.64704003  0.00318632  0.25268081  1
  S  S2  1  0.35309370  0.70522827  0.25307395  1
  S  S3  1  0.85244625  0.70360827  0.24846321  1
  S  S4  1  0.99884377  0.28550069  0.25089862  1
  S  S5  1  0.49776364  0.29106053  0.25071330  1
  S  S6  1  0.15529866  0.29853626  0.75132374  1
  S  S7  1  0.64925289  0.29608048  0.74946235  1
  S  S8  1  0.49892409  0.70269042  0.75102236  1
  S  S9  1  0.35169737  0.00379820  0.74958363  1
  S  S10  1  0.84901989  0.00566906  0.75161420  1
  S  S11  1  0.48486593  0.34848918  0.57313322  1
  S  S12  1  0.98502139  0.32532577  0.58015591  1
  S  S13  1  0.18784178  0.04955895  0.57545320  1
  S  S14  1  0.68700704  0.02101416  0.57783117  1
  S  S15  1  0.33319339  0.62083117  0.57569597  1
  S  S16  1  0.82457121  0.63849152  0.57620087  1
  S  S17  1  0.47629681  0.64041678  0.09395983  1
  S  S18  1  0.98024848  0.63044717  0.08545474  1
  S  S19  1  0.33452662  0.02654598  0.08916809  1
  S  S20  1  0.84213447  0.05849327  0.08862817  1
  S  S21  1  0.18060810  0.33258863  0.08763039  1
  S  S22  1  0.68701246  0.31139370  0.08948872  1
  S  S23  1  0.30944811  0.66646931  0.92348363  1
  S  S24  1  0.81495708  0.64398182  0.92258518  1
  S  S25  1  0.01389610  0.37639608  0.92638630  1
  S  S26  1  0.16743199  0.95342225  0.92420722  1
  S  S27  1  0.67729314  0.98535237  0.92284185  1
  S  S28  1  0.32131740  0.97669969  0.41035784  1
  S  S29  1  0.80948647  0.94314958  0.41079124  1
  S  S30  1  0.17063548  0.36558258  0.41113758  1
  S  S31  1  0.65854191  0.37483604  0.41013055  1
  S  S32  1  0.51975567  0.66686815  0.41291699  1
  O  O0  1  0.11241566  0.04274425  0.29643465  1
  O  O1  1  0.60808827  0.03574216  0.30160810  1
  O  O2  1  0.40956076  0.78234380  0.30173214  1
  O  O3  1  0.90668552  0.77869598  0.29731330  1
  O  O4  1  0.48246995  0.18137792  0.29909470  1
  O  O5  1  0.98158850  0.17579806  0.30041402  1
  O  O6  1  0.11035439  0.20268198  0.80086479  1
  O  O7  1  0.60587705  0.19855561  0.79920431  1
  O  O8  1  0.49256513  0.78571702  0.80133352  1
  O  O9  1  0.98901254  0.79414614  0.80468274  1
  O  O10  1  0.40116710  0.01812156  0.79918997  1
  O  O11  1  0.90053113  0.02416681  0.80105841  1
  O  O12  1  0.39701357  0.00423496  0.69912679  1
  O  O13  1  0.89286334  0.00059247  0.70106859  1
  O  O14  1  0.10868097  0.21517767  0.70065168  1
  O  O15  1  0.60089868  0.20797621  0.69943887  1
  O  O16  1  0.99446371  0.78175812  0.69387648  1
  O  O17  1  0.49744345  0.79337232  0.70108507  1
  O  O18  1  0.39038404  0.81087111  0.20325154  1
  O  O19  1  0.89063068  0.80702074  0.19838523  1
  O  O20  1  0.00833743  0.20469839  0.20084900  1
  O  O21  1  0.51409201  0.21842353  0.20034017  1
  O  O22  1  0.09648830  0.98067934  0.19766181  1
  O  O23  1  0.59390499  0.97177582  0.20287871  1
  O  O24  1  0.44914767  0.37616515  0.62405990  1
  O  O25  1  0.94337370  0.33369567  0.63114602  1
  O  O26  1  0.23235305  0.13419424  0.62663572  1
  O  O27  1  0.73587702  0.09500546  0.62859440  1
  O  O28  1  0.32380898  0.52409394  0.62660557  1
  O  O29  1  0.81575508  0.54732208  0.62794360  1
  O  O30  1  0.43154408  0.52813178  0.14161374  1
  O  O31  1  0.94416667  0.52103466  0.13496094  1
  O  O32  1  0.32008072  0.10922369  0.13757159  1
  O  O33  1  0.82694386  0.13519317  0.13832117  1
  O  O34  1  0.23702411  0.36897235  0.13683142  1
  O  O35  1  0.73846541  0.33060005  0.13891952  1
  O  O36  1  0.21697813  0.29722015  0.03906902  1
  O  O37  1  0.72454144  0.28525777  0.03871303  1
  O  O38  1  0.42832077  0.57320469  0.04258876  1
  O  O39  1  0.92396153  0.55550201  0.03705559  1
  O  O40  1  0.35361742  0.13166688  0.03944624  1
  O  O41  1  0.85701875  0.16506670  0.03908049  1
  O  O42  1  0.23375165  0.15008634  0.52610169  1
  O  O43  1  0.72844383  0.12900759  0.52969995  1
  O  O44  1  0.34453723  0.53561139  0.52693170  1
  O  O45  1  0.83553674  0.54916545  0.52923962  1
  O  O46  1  0.42904462  0.32041660  0.52518336  1
  O  O47  1  0.93391713  0.31742280  0.53168908  1
  O  O48  1  0.26459361  0.67529633  0.97329847  1
  O  O49  1  0.76980861  0.65776822  0.97058122  1
  O  O50  1  0.06670800  0.46387007  0.97503312  1
  O  O51  1  0.56273017  0.46466363  0.97444303  1
  O  O52  1  0.16435261  0.85692203  0.97414065  1
  O  O53  1  0.67037013  0.88204735  0.97092508  1
  O  O54  1  0.28601240  0.87895959  0.46086392  1
  O  O55  1  0.77115375  0.84361511  0.46163350  1
  O  O56  1  0.15960066  0.43753342  0.46224151  1
  O  O57  1  0.64802056  0.45266206  0.46067969  1
  O  O58  1  0.06618892  0.69342235  0.46497338  1
  O  O59  1  0.57115769  0.69481750  0.46284570  1
  O  O60  1  0.06777480  0.65199312  0.35457285  1
  O  O61  1  0.55752871  0.63333614  0.36375647  1
  O  O62  1  0.26704522  0.89710218  0.36170599  1
  O  O63  1  0.75770790  0.85758869  0.36148174  1
  O  O64  1  0.18691776  0.47599862  0.36280447  1
  O  O65  1  0.67211584  0.48179998  0.36089887  1
  O  O66  1  0.04945604  0.47415973  0.87537914  1
  O  O67  1  0.56092774  0.46177517  0.86302625  1
  O  O68  1  0.17703021  0.87618860  0.87364771  1
  O  O69  1  0.68666831  0.91239944  0.87112024  1
  O  O70  1  0.26647944  0.66341015  0.87216654  1
  O  O71  1  0.76791500  0.62292952  0.87109511  1
  O  O72  1  0.01104213  0.84711973  0.40425093  1
  O  O73  1  0.51174170  0.81823849  0.40448599  1
  O  O74  1  0.40619099  0.99696114  0.40191314  1
  O  O75  1  0.89486455  0.96376186  0.40598037  1
  O  O76  1  0.09381689  0.19875468  0.40309282  1
  O  O77  1  0.58052697  0.20884693  0.40358852  1
  O  O78  1  0.00504047  0.20975477  0.92198547  1
  O  O79  1  0.50382215  0.17758866  0.92244026  1
  O  O80  1  0.09069149  0.96516879  0.92259128  1
  O  O81  1  0.60085281  0.00179884  0.92097968  1
  O  O82  1  0.39562454  0.81516051  0.92528873  1
  O  O83  1  0.89902004  0.79396219  0.92003227  1
  O  O84  1  0.49306465  0.19830845  0.57939621  1
  O  O85  1  0.99321800  0.17359685  0.57910962  1
  O  O86  1  0.10274976  0.03038012  0.57449696  1
  O  O87  1  0.60175739  0.00025410  0.58359456  1
  O  O88  1  0.40947258  0.78751959  0.57996787  1
  O  O89  1  0.89951885  0.80996409  0.57783164  1
  O  O90  1  0.48383343  0.80836615  0.10151730  1
  O  O91  1  0.98859912  0.79751413  0.09540838  1
  O  O92  1  0.41038111  0.00834539  0.09897737  1
  O  O93  1  0.91925588  0.04600284  0.09604769  1
  O  O94  1  0.09667628  0.18441775  0.09878601  1
  O  O95  1  0.60115620  0.15784215  0.09499621  1
  O  O96  1  0.34130337  0.15438307  0.74957059  1
  O  O97  1  0.83663750  0.15289703  0.74990743  1
  O  O98  1  0.23942496  0.31062146  0.75079526  1
  O  O99  1  0.73277149  0.30855250  0.74833350  1
  O  O100  1  0.42347583  0.52957839  0.75085492  1
  O  O101  1  0.90981215  0.50416034  0.75284253  1
  O  O102  1  0.34308217  0.53443978  0.24551600  1
  O  O103  1  0.84330158  0.53127570  0.24151120  1
  O  O104  1  0.42168705  0.30889840  0.24307277  1
  O  O105  1  0.92180414  0.30631225  0.24560894  1
  O  O106  1  0.23544853  0.16411178  0.24092215  1
  O  O107  1  0.73241538  0.15326670  0.24542854  1
  O  O108  1  0.31517038  0.51146572  0.92533207  1
  O  O109  1  0.82281244  0.48983237  0.92787241  1
  O  O110  1  0.41949455  0.34503524  0.91620748  1
  O  O111  1  0.92885517  0.36064466  0.93240129  1
  O  O112  1  0.24196117  0.12437021  0.92712572  1
  O  O113  1  0.75379290  0.15609724  0.92792197  1
  O  O114  1  0.33069921  0.14933021  0.41599062  1
  O  O115  1  0.81546899  0.10918539  0.41451044  1
  O  O116  1  0.24696082  0.34265050  0.41603920  1
  O  O117  1  0.73240640  0.35211035  0.41450056  1
  O  O118  1  0.43369097  0.51476168  0.41952806  1
  O  O119  1  0.92416403  0.50820220  0.40756344  1
  O  O120  1  0.17180199  0.48302412  0.07911612  1
  O  O121  1  0.67908472  0.46145972  0.08439526  1
  O  O122  1  0.06408013  0.64967711  0.07556898  1
  O  O123  1  0.56021823  0.65895772  0.09044862  1
  O  O124  1  0.25916694  0.85939976  0.08093627  1
  O  O125  1  0.76821028  0.89201107  0.08121551  1
  O  O126  1  0.18313305  0.88616111  0.57391911  1
  O  O127  1  0.67816942  0.85282379  0.56965039  1
  O  O128  1  0.25838990  0.63635401  0.56939895  1
  O  O129  1  0.74674917  0.64667039  0.56883976  1
  O  O130  1  0.06835556  0.47750626  0.57742793  1
  O  O131  1  0.56802849  0.49868409  0.56468928  1
  O  O132  1  0.16059434  0.86146234  0.25493910  1
  O  O133  1  0.65417386  0.85058832  0.26143425  1
  O  O134  1  0.26932672  0.68969379  0.26251321  1
  O  O135  1  0.76780053  0.68373560  0.25682900  1
  O  O136  1  0.07488926  0.45031541  0.25817899  1
  O  O137  1  0.57351580  0.45969686  0.25887582  1
  O  O138  1  0.16740013  0.46819596  0.75290372  1
  O  O139  1  0.65833140  0.46351343  0.75122361  1
  O  O140  1  0.07623800  0.67549523  0.75321214  1
  O  O141  1  0.57615416  0.69295595  0.75136987  1
  O  O142  1  0.26958778  0.85054427  0.75102047  1
  O  O143  1  0.76745968  0.85017815  0.75477802  1
loop_
_geom_bond_atom_site_label_1
_geom_bond_atom_site_label_2
_geom_bond_distance
_geom_bond_site_symmetry_2
Na0 O86 2.557420 1_565
Na0 O72 2.569090 1_555
Na0 O89 2.682617 1_455
Na0 O85 2.777444 1_465
Na0 O75 2.880026 1_455
Na0 O76 2.904072 1_565
Na1 O79 2.268010 1_555
Na1 O82 2.586409 1_545
Na1 O81 2.661542 1_555
Na1 O95 2.906634 1_556
Na1 O92 2.982311 1_556
Na2 O110 2.343943 1_555
Na2 O100 2.666622 1_555
Na2 O96 2.689078 1_555
Na2 O98 2.787796 1_555
Na2 O108 2.905027 1_555
Na2 O112 2.913786 1_555
Na3 O101 2.269509 1_555
Na3 O97 2.649854 1_555
Na3 O99 2.699109 1_555
Na3 O109 2.813096 1_555
Na3 O111 2.958585 1_555
Na3 O113 2.974697 1_555
Na4 O116 2.537668 1_555
Na4 O114 2.576295 1_555
Na4 O118 2.742186 1_555
Na4 O106 2.819448 1_555
Na4 O102 2.823891 1_555
Na4 O104 2.863753 1_555
Na5 O119 2.273633 1_555
Na5 O105 2.696932 1_555
Na5 O103 2.785309 1_555
Na5 O115 2.849562 1_555
Na5 O117 2.886893 1_555
Na5 O107 2.947492 1_555
La0 O9 2.141658 1_555
La0 O83 2.395863 1_555
La0 O11 2.400465 1_565
La0 O6 2.410803 1_665
La0 O80 2.424614 1_655
La0 O78 2.530436 1_665
La1 O79 2.205118 1_555
La1 O7 2.329989 1_555
La1 O10 2.331918 1_555
La1 O8 2.408804 1_545
La1 O81 2.449085 1_555
La1 O82 2.487557 1_545
La2 O16 2.117134 1_555
La2 O13 2.362494 1_565
La2 O14 2.382258 1_665
La2 O89 2.494512 1_555
La2 O85 2.505038 1_565
La2 O86 2.548092 1_665
La3 O87 2.327152 1_555
La3 O15 2.352055 1_555
La3 O88 2.363929 1_545
La3 O12 2.386419 1_555
La3 O17 2.397828 1_545
La3 O84 2.406180 1_555
La4 O28 2.311689 1_555
La4 O26 2.334521 1_555
La4 O100 2.369834 1_555
La4 O24 2.369958 1_555
La4 O96 2.370544 1_555
La4 O98 2.375669 1_555
La5 O101 2.183401 1_555
La5 O25 2.362827 1_555
La5 O99 2.401322 1_555
La5 O97 2.442770 1_555
La5 O29 2.448187 1_555
La5 O27 2.533453 1_555
La6 O110 2.182704 1_555
La6 O112 2.349191 1_555
La6 O108 2.390814 1_555
La6 O40 2.410966 1_556
La6 O38 2.414786 1_556
La6 O36 2.498977 1_556
La7 O119 2.235322 1_555
La7 O45 2.330561 1_555
La7 O47 2.331427 1_555
La7 O43 2.423902 1_555
La7 O115 2.476976 1_555
La7 O117 2.484213 1_555
La8 O51 2.156639 1_554
La8 O49 2.378024 1_554
La8 O53 2.411418 1_554
La8 O121 2.441378 1_555
La8 O123 2.468710 1_555
La8 O125 2.499751 1_555
La9 O58 2.167565 1_555
La9 O130 2.355261 1_555
La9 O126 2.359099 1_555
La9 O128 2.427238 1_555
La9 O56 2.462374 1_555
La9 O54 2.476826 1_555
La10 O140 2.101030 1_555
La10 O138 2.355767 1_555
La10 O68 2.379052 1_555
La10 O142 2.420815 1_555
La10 O66 2.429529 1_555
La10 O70 2.492325 1_555
La11 O67 2.156488 1_555
La11 O143 2.396381 1_555
La11 O139 2.409575 1_555
La11 O141 2.429195 1_555
La11 O71 2.454452 1_555
La11 O69 2.498532 1_555
In0 O72 2.013397 1_555
In0 O5 2.198787 1_465
In0 O3 2.234015 1_455
In0 O0 2.234879 1_565
In0 O76 2.252858 1_565
In0 O75 2.321752 1_455
In1 O74 2.127225 1_545
In1 O77 2.166635 1_555
In1 O1 2.186548 1_555
In1 O2 2.207828 1_545
In1 O73 2.217254 1_545
In1 O4 2.246573 1_555
In2 O94 2.142146 1_665
In2 O93 2.158833 1_565
In2 O91 2.190078 1_555
In2 O22 2.219733 1_655
In2 O20 2.221834 1_665
In2 O19 2.233035 1_555
In3 O90 2.125894 1_545
In3 O21 2.164408 1_555
In3 O92 2.182561 1_555
In3 O23 2.196072 1_545
In3 O18 2.222523 1_545
In3 O95 2.245633 1_555
In4 O30 2.127631 1_555
In4 O106 2.150530 1_555
In4 O34 2.166377 1_555
In4 O32 2.221227 1_555
In4 O104 2.369610 1_555
In4 O102 2.369631 1_555
In5 O33 2.112796 1_555
In5 O35 2.149839 1_555
In5 O31 2.162349 1_555
In5 O103 2.215127 1_555
In5 O105 2.232253 1_555
In5 O107 2.384732 1_555
In6 O111 2.131976 1_555
In6 O109 2.158238 1_555
In6 O41 2.173129 1_556
In6 O113 2.177931 1_555
In6 O39 2.189957 1_556
In6 O37 2.201778 1_556
In7 O44 2.121867 1_555
In7 O42 2.124382 1_555
In7 O46 2.128695 1_555
In7 O116 2.249052 1_555
In7 O118 2.260092 1_555
In7 O114 2.267394 1_555
In8 O50 2.146884 1_554
In8 O52 2.146901 1_554
In8 O48 2.152068 1_554
In8 O122 2.203673 1_555
In8 O120 2.209836 1_555
In8 O124 2.277847 1_555
In9 O131 2.122138 1_555
In9 O129 2.125401 1_555
In9 O127 2.126751 1_555
In9 O55 2.175176 1_555
In9 O59 2.211896 1_555
In9 O57 2.232394 1_555
In10 O60 1.991870 1_555
In10 O134 2.207643 1_555
In10 O62 2.286934 1_555
In10 O64 2.303796 1_555
In10 O136 2.326710 1_555
In10 O132 2.350518 1_555
In11 O65 2.134292 1_555
In11 O63 2.141977 1_555
In11 O137 2.186006 1_555
In11 O133 2.187147 1_555
In11 O61 2.217677 1_555
In11 O135 2.269905 1_555
O0 S0 1.486972 1_555
O1 S1 1.496492 1_555
O2 S2 1.499279 1_555
O3 S3 1.482350 1_555
O4 S5 1.485754 1_555
O5 S4 1.502904 1_555
O6 S6 1.479544 1_555
O7 S7 1.481502 1_555
O8 S8 1.480690 1_555
O9 Si0 1.625334 1_555
O10 S9 1.478107 1_555
O11 S10 1.488276 1_555
O12 S9 1.483924 1_555
O13 S10 1.485385 1_555
O14 S6 1.479413 1_555
O15 S7 1.486974 1_555
O16 Si0 1.630722 1_555
O17 S8 1.484698 1_555
O18 S2 1.491164 1_555
O19 S3 1.490063 1_555
O20 S4 1.484352 1_455
O21 S5 1.498964 1_555
O22 S0 1.491540 1_565
O23 S1 1.492124 1_565
O24 S11 1.484624 1_555
O25 S12 1.481546 1_555
O26 S13 1.480929 1_555
O27 S14 1.478986 1_555
O28 S15 1.486931 1_555
O29 S16 1.478851 1_555
O30 S17 1.497741 1_555
O31 S18 1.497496 1_555
O32 S19 1.498571 1_555
O33 S20 1.497454 1_555
O34 S21 1.508594 1_555
O35 S22 1.486071 1_555
O36 S21 1.473767 1_555
O37 S22 1.493791 1_555
O38 S17 1.476559 1_555
O39 S18 1.490345 1_555
O40 S19 1.479988 1_555
O41 S20 1.493142 1_555
O42 S13 1.494446 1_555
O43 S14 1.478864 1_555
O44 S15 1.495700 1_555
O45 S16 1.481500 1_555
O46 S11 1.489345 1_555
O47 S12 1.487815 1_555
O48 S23 1.492296 1_555
O49 S24 1.475876 1_555
O50 S25 1.487331 1_555
O51 Si1 1.641134 1_555
O52 S26 1.491926 1_555
O53 S27 1.475007 1_555
O54 S28 1.470395 1_555
O55 S29 1.491870 1_555
O56 S30 1.472071 1_555
O57 S31 1.486190 1_555
O58 Si2 1.633932 1_555
O59 S32 1.481492 1_555
O60 Si2 1.635163 1_555
O61 S32 1.492573 1_555
O62 S28 1.484705 1_555
O63 S29 1.489393 1_555
O64 S30 1.486100 1_555
O65 S31 1.492738 1_555
O66 S25 1.481349 1_555
O67 Si1 1.624976 1_555
O68 S26 1.477205 1_555
O69 S27 1.478826 1_555
O70 S23 1.471732 1_555
O71 S24 1.480252 1_555
O72 Si2 1.650488 1_555
O73 S32 1.489257 1_555
O74 S28 1.488805 1_555
O75 S29 1.487049 1_555
O76 S30 1.489344 1_555
O77 S31 1.490351 1_555
O78 S25 1.465478 1_555
O79 Si1 1.636212 1_555
O80 S26 1.467762 1_555
O81 S27 1.486954 1_545
O82 S23 1.486763 1_555
O83 S24 1.469261 1_555
O84 S11 1.473954 1_555
O85 S12 1.480404 1_555
O86 S13 1.482745 1_555
O87 S14 1.486179 1_555
O88 S15 1.475084 1_555
O89 S16 1.487611 1_555
O90 S17 1.495184 1_555
O91 S18 1.489199 1_555
O92 S19 1.504056 1_555
O93 S20 1.489066 1_555
O94 S21 1.484839 1_555
O95 S22 1.506685 1_555
O96 S9 1.493316 1_555
O97 S10 1.485219 1_555
O98 S6 1.492884 1_555
O99 S7 1.480361 1_555
O100 S8 1.499758 1_555
O101 Si0 1.631637 1_555
O102 S2 1.502171 1_555
O103 S3 1.521018 1_555
O104 S5 1.498657 1_555
O105 S4 1.526206 1_555
O106 S0 1.529238 1_555
O107 S1 1.492940 1_555
O108 S23 1.485316 1_555
O109 S24 1.504385 1_555
O110 Si1 1.642259 1_555
O111 S25 1.502020 1_655
O112 S26 1.482869 1_545
O113 S27 1.499697 1_545
O114 S28 1.518703 1_545
O115 S29 1.481491 1_545
O116 S30 1.524087 1_555
O117 S31 1.477218 1_555
O118 S32 1.506089 1_555
O119 Si2 1.649966 1_655
O120 S21 1.489368 1_555
O121 S22 1.467365 1_555
O122 S18 1.479093 1_455
O123 S17 1.466082 1_555
O124 S19 1.480315 1_565
O125 S20 1.463449 1_565
O126 S13 1.465476 1_565
O127 S14 1.489286 1_565
O128 S15 1.459504 1_555
O129 S16 1.479979 1_555
O130 S12 1.470383 1_455
O131 S11 1.473721 1_555
O132 S0 1.471339 1_565
O133 S1 1.492398 1_565
O134 S2 1.490244 1_555
O135 S3 1.485855 1_555
O136 S4 1.470541 1_455
O137 S5 1.490932 1_555
O138 S6 1.465869 1_555
O139 S7 1.467755 1_555
O140 Si0 1.609666 1_455
O141 S8 1.466008 1_555
O142 S9 1.461160 1_565
O143 S10 1.466763 1_565
