# generated using pymatgen
data_MgTe2Mo3W(Se2S)2
_symmetry_space_group_name_H-M   'P 1'
_cell_length_a   6.67651400
_cell_length_b   6.67578474
_cell_length_c   76.07603800
_cell_angle_alpha   90.00003548
_cell_angle_beta   89.99997229
_cell_angle_gamma   120.00286941
_symmetry_Int_Tables_number   1
_chemical_formula_structural   MgTe2Mo3W(Se2S)2
_chemical_formula_sum   'Mg8 Te16 Mo24 W8 Se32 S16'
_cell_volume   2936.41915610
_cell_formula_units_Z   8
loop_
 _symmetry_equiv_pos_site_id
 _symmetry_equiv_pos_as_xyz
  1  'x, y, z'
loop_
 _atom_site_type_symbol
 _atom_site_label
 _atom_site_symmetry_multiplicity
 _atom_site_fract_x
 _atom_site_fract_y
 _atom_site_fract_z
 _atom_site_occupancy
  Mg  Mg0_0  1  0.33870950  0.19970100  0.44041900  1
  Mg  Mg0_1  1  0.33870950  0.19970100  0.94041900  1
  Mg  Mg0_2  1  0.33870950  0.69970100  0.44041900  1
  Mg  Mg0_3  1  0.33870950  0.69970100  0.94041900  1
  Mg  Mg0_4  1  0.83870950  0.19970100  0.44041900  1
  Mg  Mg0_5  1  0.83870950  0.19970100  0.94041900  1
  Mg  Mg0_6  1  0.83870950  0.69970100  0.44041900  1
  Mg  Mg0_7  1  0.83870950  0.69970100  0.94041900  1
  Te  Te0_0  1  0.16667600  0.33335200  0.35369900  1
  Te  Te0_1  1  0.16667600  0.33335200  0.85369900  1
  Te  Te0_2  1  0.16667600  0.83335200  0.35369900  1
  Te  Te0_3  1  0.16667600  0.83335200  0.85369900  1
  Te  Te0_4  1  0.66667600  0.33335200  0.35369900  1
  Te  Te0_5  1  0.66667600  0.33335200  0.85369900  1
  Te  Te0_6  1  0.66667600  0.83335200  0.35369900  1
  Te  Te0_7  1  0.66667600  0.83335200  0.85369900  1
  Te  Te1_0  1  0.16667800  0.33335550  0.30383100  1
  Te  Te1_1  1  0.16667800  0.33335550  0.80383100  1
  Te  Te1_2  1  0.16667800  0.83335550  0.30383100  1
  Te  Te1_3  1  0.16667800  0.83335550  0.80383100  1
  Te  Te1_4  1  0.66667800  0.33335550  0.30383100  1
  Te  Te1_5  1  0.66667800  0.33335550  0.80383100  1
  Te  Te1_6  1  0.66667800  0.83335550  0.30383100  1
  Te  Te1_7  1  0.66667800  0.83335550  0.80383100  1
  Mo  Mo0_0  1  0.16665550  0.33331200  0.04693000  1
  Mo  Mo0_1  1  0.16665550  0.33331200  0.54693000  1
  Mo  Mo0_2  1  0.16665550  0.83331200  0.04693000  1
  Mo  Mo0_3  1  0.16665550  0.83331200  0.54693000  1
  Mo  Mo0_4  1  0.66665550  0.33331200  0.04693000  1
  Mo  Mo0_5  1  0.66665550  0.33331200  0.54693000  1
  Mo  Mo0_6  1  0.66665550  0.83331200  0.04693000  1
  Mo  Mo0_7  1  0.66665550  0.83331200  0.54693000  1
  Mo  Mo1_0  1  0.16665900  0.33331700  0.23482650  1
  Mo  Mo1_1  1  0.16665900  0.33331700  0.73482650  1
  Mo  Mo1_2  1  0.16665900  0.83331700  0.23482650  1
  Mo  Mo1_3  1  0.16665900  0.83331700  0.73482650  1
  Mo  Mo1_4  1  0.66665900  0.33331700  0.23482650  1
  Mo  Mo1_5  1  0.66665900  0.33331700  0.73482650  1
  Mo  Mo1_6  1  0.66665900  0.83331700  0.23482650  1
  Mo  Mo1_7  1  0.66665900  0.83331700  0.73482650  1
  Mo  Mo2_0  1  0.33334500  0.16669000  0.32879550  1
  Mo  Mo2_1  1  0.33334500  0.16669000  0.82879550  1
  Mo  Mo2_2  1  0.33334500  0.66669000  0.32879550  1
  Mo  Mo2_3  1  0.33334500  0.66669000  0.82879550  1
  Mo  Mo2_4  1  0.83334500  0.16669000  0.32879550  1
  Mo  Mo2_5  1  0.83334500  0.16669000  0.82879550  1
  Mo  Mo2_6  1  0.83334500  0.66669000  0.32879550  1
  Mo  Mo2_7  1  0.83334500  0.66669000  0.82879550  1
  W  W0_0  1  0.33334250  0.16668500  0.14090600  1
  W  W0_1  1  0.33334250  0.16668500  0.64090600  1
  W  W0_2  1  0.33334250  0.66668500  0.14090600  1
  W  W0_3  1  0.33334250  0.66668500  0.64090600  1
  W  W0_4  1  0.83334250  0.16668500  0.14090600  1
  W  W0_5  1  0.83334250  0.16668500  0.64090600  1
  W  W0_6  1  0.83334250  0.66668500  0.14090600  1
  W  W0_7  1  0.83334250  0.66668500  0.64090600  1
  Se  Se0_0  1  0.16667600  0.33335150  0.16293400  1
  Se  Se0_1  1  0.16667600  0.33335150  0.66293400  1
  Se  Se0_2  1  0.16667600  0.83335150  0.16293400  1
  Se  Se0_3  1  0.16667600  0.83335150  0.66293400  1
  Se  Se0_4  1  0.66667600  0.33335150  0.16293400  1
  Se  Se0_5  1  0.66667600  0.33335150  0.66293400  1
  Se  Se0_6  1  0.66667600  0.83335150  0.16293400  1
  Se  Se0_7  1  0.66667600  0.83335150  0.66293400  1
  Se  Se1_0  1  0.33332450  0.16665000  0.02503850  1
  Se  Se1_1  1  0.33332450  0.16665000  0.52503850  1
  Se  Se1_2  1  0.33332450  0.66665000  0.02503850  1
  Se  Se1_3  1  0.33332450  0.66665000  0.52503850  1
  Se  Se1_4  1  0.83332450  0.16665000  0.02503850  1
  Se  Se1_5  1  0.83332450  0.16665000  0.52503850  1
  Se  Se1_6  1  0.83332450  0.66665000  0.02503850  1
  Se  Se1_7  1  0.83332450  0.66665000  0.52503850  1
  Se  Se2_0  1  0.33332500  0.16664950  0.06886850  1
  Se  Se2_1  1  0.33332500  0.16664950  0.56886850  1
  Se  Se2_2  1  0.33332500  0.66664950  0.06886850  1
  Se  Se2_3  1  0.33332500  0.66664950  0.56886850  1
  Se  Se2_4  1  0.83332500  0.16664950  0.06886850  1
  Se  Se2_5  1  0.83332500  0.16664950  0.56886850  1
  Se  Se2_6  1  0.83332500  0.66664950  0.06886850  1
  Se  Se2_7  1  0.83332500  0.66664950  0.56886850  1
  Se  Se3_0  1  0.16667450  0.33334950  0.11888750  1
  Se  Se3_1  1  0.16667450  0.33334950  0.61888750  1
  Se  Se3_2  1  0.16667450  0.83334950  0.11888750  1
  Se  Se3_3  1  0.16667450  0.83334950  0.61888750  1
  Se  Se3_4  1  0.66667450  0.33334950  0.11888750  1
  Se  Se3_5  1  0.66667450  0.33334950  0.61888750  1
  Se  Se3_6  1  0.66667450  0.83334950  0.11888750  1
  Se  Se3_7  1  0.66667450  0.83334950  0.61888750  1
  S  S0_0  1  0.33332050  0.16664200  0.21490150  1
  S  S0_1  1  0.33332050  0.16664200  0.71490150  1
  S  S0_2  1  0.33332050  0.66664200  0.21490150  1
  S  S0_3  1  0.33332050  0.66664200  0.71490150  1
  S  S0_4  1  0.83332050  0.16664200  0.21490150  1
  S  S0_5  1  0.83332050  0.16664200  0.71490150  1
  S  S0_6  1  0.83332050  0.66664200  0.21490150  1
  S  S0_7  1  0.83332050  0.66664200  0.71490150  1
  S  S1_0  1  0.33332100  0.16664300  0.25475650  1
  S  S1_1  1  0.33332100  0.16664300  0.75475650  1
  S  S1_2  1  0.33332100  0.66664300  0.25475650  1
  S  S1_3  1  0.33332100  0.66664300  0.75475650  1
  S  S1_4  1  0.83332100  0.16664300  0.25475650  1
  S  S1_5  1  0.83332100  0.16664300  0.75475650  1
  S  S1_6  1  0.83332100  0.66664300  0.25475650  1
  S  S1_7  1  0.83332100  0.66664300  0.75475650  1
loop_
_geom_bond_atom_site_label_1
_geom_bond_atom_site_label_2
_geom_bond_distance
_geom_bond_site_symmetry_2
Mg0_0 Mg0_2 3.337892 1_545
Mg0_0 Mg0_2 3.337892 1_555
Mg0_0 Mg0_6 3.337930 1_555
Mg0_0 Mg0_6 3.337930 1_445
Mg0_0 Mg0_4 3.338257 1_455
Mg0_0 Mg0_4 3.338257 1_555
Mg0_1 Mg0_3 3.337892 1_545
Mg0_1 Mg0_3 3.337892 1_555
Mg0_1 Mg0_7 3.337930 1_445
Mg0_1 Mg0_7 3.337930 1_555
Mg0_1 Mg0_5 3.338257 1_555
Mg0_1 Mg0_5 3.338257 1_455
Mg0_2 Mg0_4 3.337930 1_455
Mg0_2 Mg0_4 3.337930 1_565
Mg0_2 Mg0_6 3.338257 1_555
Mg0_2 Mg0_6 3.338257 1_455
Mg0_3 Mg0_5 3.337930 1_565
Mg0_3 Mg0_5 3.337930 1_455
Mg0_3 Mg0_7 3.338257 1_455
Mg0_3 Mg0_7 3.338257 1_555
Mg0_4 Mg0_6 3.337892 1_545
Mg0_4 Mg0_6 3.337892 1_555
Mg0_5 Mg0_7 3.337892 1_555
Mg0_5 Mg0_7 3.337892 1_545
Mo0_0 Se1_2 2.547028 1_555
Mo0_0 Se1_0 2.547139 1_555
Mo0_0 Se1_4 2.547157 1_455
Mo0_0 Se2_2 2.549364 1_555
Mo0_0 Se2_0 2.549484 1_555
Mo0_0 Se2_4 2.549493 1_455
Mo0_1 Se1_3 2.547028 1_555
Mo0_1 Se1_1 2.547139 1_555
Mo0_1 Se1_5 2.547157 1_455
Mo0_1 Se2_3 2.549364 1_555
Mo0_1 Se2_1 2.549484 1_555
Mo0_1 Se2_5 2.549493 1_455
Mo0_2 Se1_0 2.547028 1_565
Mo0_2 Se1_2 2.547139 1_555
Mo0_2 Se1_6 2.547157 1_455
Mo0_2 Se2_0 2.549364 1_565
Mo0_2 Se2_2 2.549484 1_555
Mo0_2 Se2_6 2.549493 1_455
Mo0_3 Se1_1 2.547028 1_565
Mo0_3 Se1_3 2.547139 1_555
Mo0_3 Se1_7 2.547157 1_455
Mo0_3 Se2_1 2.549364 1_565
Mo0_3 Se2_3 2.549484 1_555
Mo0_3 Se2_7 2.549493 1_455
Mo0_4 Se1_6 2.547028 1_555
Mo0_4 Se1_4 2.547139 1_555
Mo0_4 Se1_0 2.547157 1_555
Mo0_4 Se2_6 2.549364 1_555
Mo0_4 Se2_4 2.549484 1_555
Mo0_4 Se2_0 2.549493 1_555
Mo0_5 Se1_7 2.547028 1_555
Mo0_5 Se1_5 2.547139 1_555
Mo0_5 Se1_1 2.547157 1_555
Mo0_5 Se2_7 2.549364 1_555
Mo0_5 Se2_5 2.549484 1_555
Mo0_5 Se2_1 2.549493 1_555
Mo0_6 Se1_4 2.547028 1_565
Mo0_6 Se1_6 2.547139 1_555
Mo0_6 Se1_2 2.547157 1_555
Mo0_6 Se2_4 2.549364 1_565
Mo0_6 Se2_6 2.549484 1_555
Mo0_6 Se2_2 2.549493 1_555
Mo0_7 Se1_5 2.547028 1_565
Mo0_7 Se1_7 2.547139 1_555
Mo0_7 Se1_3 2.547157 1_555
Mo0_7 Se2_5 2.549364 1_565
Mo0_7 Se2_7 2.549484 1_555
Mo0_7 Se2_3 2.549493 1_555
Mo1_0 S0_2 2.451762 1_555
Mo1_0 S0_0 2.451962 1_555
Mo1_0 S0_4 2.451989 1_455
Mo1_0 S1_2 2.452001 1_555
Mo1_0 S1_0 2.452196 1_555
Mo1_0 S1_4 2.452221 1_455
Mo1_1 S0_3 2.451762 1_555
Mo1_1 S0_1 2.451962 1_555
Mo1_1 S0_5 2.451989 1_455
Mo1_1 S1_3 2.452001 1_555
Mo1_1 S1_1 2.452196 1_555
Mo1_1 S1_5 2.452221 1_455
Mo1_2 S0_0 2.451762 1_565
Mo1_2 S0_2 2.451962 1_555
Mo1_2 S0_6 2.451989 1_455
Mo1_2 S1_0 2.452001 1_565
Mo1_2 S1_2 2.452196 1_555
Mo1_2 S1_6 2.452221 1_455
Mo1_3 S0_1 2.451762 1_565
Mo1_3 S0_3 2.451962 1_555
Mo1_3 S0_7 2.451989 1_455
Mo1_3 S1_1 2.452001 1_565
Mo1_3 S1_3 2.452196 1_555
Mo1_3 S1_7 2.452221 1_455
Mo1_4 S0_6 2.451762 1_555
Mo1_4 S0_4 2.451962 1_555
Mo1_4 S0_0 2.451989 1_555
Mo1_4 S1_6 2.452001 1_555
Mo1_4 S1_4 2.452196 1_555
Mo1_4 S1_0 2.452221 1_555
Mo1_5 S0_7 2.451762 1_555
Mo1_5 S0_5 2.451962 1_555
Mo1_5 S0_1 2.451989 1_555
Mo1_5 S1_7 2.452001 1_555
Mo1_5 S1_5 2.452196 1_555
Mo1_5 S1_1 2.452221 1_555
Mo1_6 S0_4 2.451762 1_565
Mo1_6 S0_6 2.451962 1_555
Mo1_6 S0_2 2.451989 1_555
Mo1_6 S1_4 2.452001 1_565
Mo1_6 S1_6 2.452196 1_555
Mo1_6 S1_2 2.452221 1_555
Mo1_7 S0_5 2.451762 1_565
Mo1_7 S0_7 2.451962 1_555
Mo1_7 S0_3 2.451989 1_555
Mo1_7 S1_5 2.452001 1_565
Mo1_7 S1_7 2.452196 1_555
Mo1_7 S1_3 2.452221 1_555
Mo2_0 Te0_2 2.702423 1_545
Mo2_0 Te0_0 2.702527 1_555
Mo2_0 Te0_4 2.702544 1_555
Mo2_0 Te1_2 2.705663 1_545
Mo2_0 Te1_0 2.705791 1_555
Mo2_0 Te1_4 2.705807 1_555
Mo2_1 Te0_3 2.702423 1_545
Mo2_1 Te0_1 2.702527 1_555
Mo2_1 Te0_5 2.702544 1_555
Mo2_1 Te1_3 2.705663 1_545
Mo2_1 Te1_1 2.705791 1_555
Mo2_1 Te1_5 2.705807 1_555
Mo2_2 Te0_0 2.702423 1_555
Mo2_2 Te0_2 2.702527 1_555
Mo2_2 Te0_6 2.702544 1_555
Mo2_2 Te1_0 2.705663 1_555
Mo2_2 Te1_2 2.705791 1_555
Mo2_2 Te1_6 2.705807 1_555
Mo2_3 Te0_1 2.702423 1_555
Mo2_3 Te0_3 2.702527 1_555
Mo2_3 Te0_7 2.702544 1_555
Mo2_3 Te1_1 2.705663 1_555
Mo2_3 Te1_3 2.705791 1_555
Mo2_3 Te1_7 2.705807 1_555
Mo2_4 Te0_6 2.702423 1_545
Mo2_4 Te0_4 2.702527 1_555
Mo2_4 Te0_0 2.702544 1_655
Mo2_4 Te1_6 2.705663 1_545
Mo2_4 Te1_4 2.705791 1_555
Mo2_4 Te1_0 2.705807 1_655
Mo2_5 Te0_7 2.702423 1_545
Mo2_5 Te0_5 2.702527 1_555
Mo2_5 Te0_1 2.702544 1_655
Mo2_5 Te1_7 2.705663 1_545
Mo2_5 Te1_5 2.705791 1_555
Mo2_5 Te1_1 2.705807 1_655
Mo2_6 Te0_4 2.702423 1_555
Mo2_6 Te0_6 2.702527 1_555
Mo2_6 Te0_2 2.702544 1_655
Mo2_6 Te1_4 2.705663 1_555
Mo2_6 Te1_6 2.705791 1_555
Mo2_6 Te1_2 2.705807 1_655
Mo2_7 Te0_5 2.702423 1_555
Mo2_7 Te0_7 2.702527 1_555
Mo2_7 Te0_3 2.702544 1_655
Mo2_7 Te1_5 2.705663 1_555
Mo2_7 Te1_7 2.705791 1_555
Mo2_7 Te1_3 2.705807 1_655
Se0_0 W0_2 2.553811 1_555
Se0_0 W0_0 2.553950 1_555
Se0_0 W0_4 2.553969 1_455
Se0_1 W0_3 2.553811 1_555
Se0_1 W0_1 2.553950 1_555
Se0_1 W0_5 2.553969 1_455
Se0_2 W0_0 2.553811 1_565
Se0_2 W0_2 2.553950 1_555
Se0_2 W0_6 2.553969 1_455
Se0_3 W0_1 2.553811 1_565
Se0_3 W0_3 2.553950 1_555
Se0_3 W0_7 2.553969 1_455
Se0_4 W0_6 2.553811 1_555
Se0_4 W0_4 2.553950 1_555
Se0_4 W0_0 2.553969 1_555
Se0_5 W0_7 2.553811 1_555
Se0_5 W0_5 2.553950 1_555
Se0_5 W0_1 2.553969 1_555
Se0_6 W0_4 2.553811 1_565
Se0_6 W0_6 2.553950 1_555
Se0_6 W0_2 2.553969 1_555
Se0_7 W0_5 2.553811 1_565
Se0_7 W0_7 2.553950 1_555
Se0_7 W0_3 2.553969 1_555
Se3_0 W0_2 2.553344 1_555
Se3_0 W0_0 2.553475 1_555
Se3_0 W0_4 2.553488 1_455
Se3_1 W0_3 2.553344 1_555
Se3_1 W0_1 2.553475 1_555
Se3_1 W0_5 2.553488 1_455
Se3_2 W0_0 2.553344 1_565
Se3_2 W0_2 2.553475 1_555
Se3_2 W0_6 2.553488 1_455
Se3_3 W0_1 2.553344 1_565
Se3_3 W0_3 2.553475 1_555
Se3_3 W0_7 2.553488 1_455
Se3_4 W0_6 2.553344 1_555
Se3_4 W0_4 2.553475 1_555
Se3_4 W0_0 2.553488 1_555
Se3_5 W0_7 2.553344 1_555
Se3_5 W0_5 2.553475 1_555
Se3_5 W0_1 2.553488 1_555
Se3_6 W0_4 2.553344 1_565
Se3_6 W0_6 2.553475 1_555
Se3_6 W0_2 2.553488 1_555
Se3_7 W0_5 2.553344 1_565
Se3_7 W0_7 2.553475 1_555
Se3_7 W0_3 2.553488 1_555
