# generated using pymatgen
data_Pb7(ClF6)2
_symmetry_space_group_name_H-M   'P 1'
_cell_length_a   10.24008143
_cell_length_b   10.24010576
_cell_length_c   3.96080885
_cell_angle_alpha   89.99999582
_cell_angle_beta   90.00000682
_cell_angle_gamma   120.00004417
_symmetry_Int_Tables_number   1
_chemical_formula_structural   Pb7(ClF6)2
_chemical_formula_sum   'Pb7 Cl2 F12'
_cell_volume   359.68487390
_cell_formula_units_Z   1
loop_
 _symmetry_equiv_pos_site_id
 _symmetry_equiv_pos_as_xyz
  1  'x, y, z'
loop_
 _atom_site_type_symbol
 _atom_site_label
 _atom_site_symmetry_multiplicity
 _atom_site_fract_x
 _atom_site_fract_y
 _atom_site_fract_z
 _atom_site_occupancy
  Pb  Pb0  1  0.97163983  0.22488746  0.49999993  1
  Pb  Pb1  1  0.77511224  0.74675183  0.50000003  1
  Pb  Pb2  1  0.25324853  0.02836147  0.50000003  1
  Pb  Pb3  1  0.06676826  0.62061683  -0.00000004  1
  Pb  Pb4  1  0.55384826  0.93323150  -0.00000005  1
  Pb  Pb5  1  0.37938330  0.44615101  0.00000003  1
  Pb  Pb6  1  0.66666655  0.33333401  0.49999992  1
  Cl  Cl0  1  -0.00000034  -0.00000011  -0.00000005  1
  Cl  Cl1  1  0.33333361  0.66666645  0.49999998  1
  F  F0  1  0.74664588  0.20398008  -0.00000010  1
  F  F1  1  0.71679841  0.95133852  0.49999996  1
  F  F2  1  0.79602018  0.54266542  0.00000010  1
  F  F3  1  0.23453990  0.28320100  0.50000012  1
  F  F4  1  0.94423066  0.44772679  0.49999998  1
  F  F5  1  0.04866069  0.76545996  0.50000010  1
  F  F6  1  0.27842815  0.90715956  0.00000016  1
  F  F7  1  0.45733539  0.25335444  0.00000001  1
  F  F8  1  0.09284152  0.37126814  -0.00000010  1
  F  F9  1  0.50349664  0.05577116  0.50000016  1
  F  F10  1  0.62873170  0.72157243  -0.00000003  1
  F  F11  1  0.55227266  0.49650206  0.49999987  1
loop_
_geom_bond_atom_site_label_1
_geom_bond_atom_site_label_2
_geom_bond_distance
_geom_bond_site_symmetry_2
Cl0 Pb1 3.158849 1_444
Cl0 Pb0 3.158850 1_454
Cl0 Pb1 3.158850 1_445
Cl0 Pb0 3.158850 1_455
Cl0 Pb2 3.158851 1_554
Cl0 Pb2 3.158851 1_555
Cl1 Pb4 3.210633 1_556
Cl1 Pb4 3.210634 1_555
Cl1 Pb3 3.210636 1_555
Cl1 Pb3 3.210636 1_556
Cl1 Pb5 3.210639 1_556
Cl1 Pb5 3.210639 1_555
F0 Pb4 2.472003 1_545
F0 Pb6 2.726198 1_554
F0 Pb6 2.726198 1_555
F1 Pb1 2.448786 1_555
F1 Pb4 2.535999 1_555
F1 Pb4 2.535999 1_556
F1 Pb0 2.710464 1_565
F2 Pb3 2.471993 1_655
F2 Pb6 2.726186 1_555
F2 Pb6 2.726188 1_554
F3 Pb0 2.448777 1_455
F3 Pb5 2.536000 1_556
F3 Pb5 2.536000 1_555
F3 Pb2 2.710455 1_555
F4 Pb0 2.434400 1_555
F4 Pb6 2.474122 1_555
F4 Pb3 2.531672 1_656
F4 Pb3 2.531672 1_655
F5 Pb2 2.448794 1_565
F5 Pb3 2.536003 1_556
F5 Pb3 2.536004 1_555
F5 Pb1 2.710454 1_455
F6 Pb2 2.418445 1_565
F6 Pb2 2.418445 1_564
F6 Pb3 2.635846 1_555
F6 Pb4 2.696764 1_555
F7 Pb5 2.472003 1_555
F7 Pb6 2.726181 1_555
F7 Pb6 2.726181 1_554
F8 Pb0 2.418440 1_454
F8 Pb0 2.418441 1_455
F8 Pb5 2.635832 1_555
F8 Pb3 2.696784 1_555
F9 Pb2 2.434388 1_555
F9 Pb6 2.474116 1_555
F9 Pb4 2.531681 1_546
F9 Pb4 2.531682 1_545
F10 Pb1 2.418438 1_554
F10 Pb1 2.418438 1_555
F10 Pb4 2.635844 1_555
F10 Pb5 2.696776 1_555
F11 Pb1 2.434405 1_555
F11 Pb6 2.474106 1_555
F11 Pb5 2.531668 1_555
F11 Pb5 2.531669 1_556
