# generated using pymatgen
data_Sr2MgGaSbO6
_symmetry_space_group_name_H-M   'P 1'
_cell_length_a   5.76614744
_cell_length_b   6.35285437
_cell_length_c   6.35285494
_cell_angle_alpha   55.23173984
_cell_angle_beta   63.01074457
_cell_angle_gamma   63.01074393
_symmetry_Int_Tables_number   1
_chemical_formula_structural   Sr2MgGaSbO6
_chemical_formula_sum   'Sr2 Mg1 Ga1 Sb1 O6'
_cell_volume   164.18994714
_cell_formula_units_Z   1
loop_
 _symmetry_equiv_pos_site_id
 _symmetry_equiv_pos_as_xyz
  1  'x, y, z'
loop_
 _atom_site_type_symbol
 _atom_site_label
 _atom_site_symmetry_multiplicity
 _atom_site_fract_x
 _atom_site_fract_y
 _atom_site_fract_z
 _atom_site_occupancy
  Sr  Sr0  1  0.18331100  0.31668900  0.31668900  1
  Sr  Sr1  1  0.81668900  0.68331100  0.68331100  1
  Mg  Mg0  1  0.50000000  0.00000000  0.00000000  1
  Ga  Ga0  1  0.00000000  0.00000000  0.00000000  1
  Sb  Sb0  1  0.50000000  0.50000000  0.50000000  1
  O  O0  1  0.25299300  0.74700700  0.74700700  1
  O  O1  1  0.23883400  0.77204900  0.22795100  1
  O  O2  1  0.76116600  0.22795100  0.77204900  1
  O  O3  1  0.23883400  0.22795100  0.77204900  1
  O  O4  1  0.74700700  0.25299300  0.25299300  1
  O  O5  1  0.76116600  0.77204900  0.22795100  1
loop_
_geom_bond_atom_site_label_1
_geom_bond_atom_site_label_2
_geom_bond_distance
_geom_bond_site_symmetry_2
Mg0 O2 2.017481 1_554
Mg0 O1 2.017481 1_545
Mg0 O3 2.017481 1_554
Mg0 O5 2.017481 1_545
Mg0 Sr1 3.062219 1_544
Mg0 Sr0 3.062219 1_555
Ga0 O3 1.923272 1_554
Ga0 O5 1.923272 1_445
Ga0 O1 1.923272 1_545
Ga0 O2 1.923272 1_454
Ga0 O4 2.446312 1_455
Ga0 O0 2.446312 1_544
O0 Sb0 2.388430 1_555
O0 Sr1 2.948127 1_555
O0 Sr1 2.948128 1_455
O0 Sr0 3.020912 1_565
O0 Sr0 3.020912 1_556
O1 Sb0 2.198876 1_555
O1 Sr0 2.757833 1_555
O1 Sr1 2.757833 1_455
O2 Sb0 2.198876 1_555
O2 Sr1 2.757833 1_555
O2 Sr0 2.757833 1_655
O3 Sb0 2.198876 1_555
O3 Sr1 2.757833 1_455
O3 Sr0 2.757833 1_555
O4 Sb0 2.388430 1_555
O4 Sr0 2.948127 1_555
O4 Sr0 2.948128 1_655
O4 Sr1 3.020912 1_545
O4 Sr1 3.020912 1_554
O5 Sb0 2.198876 1_555
O5 Sr0 2.757833 1_655
O5 Sr1 2.757833 1_555
