# generated using pymatgen
data_Na10Ca4Nb4Si7S5O48
_symmetry_space_group_name_H-M   'P 1'
_cell_length_a   18.54149253
_cell_length_b   9.29334945
_cell_length_c   22.81752330
_cell_angle_alpha   89.82546412
_cell_angle_beta   90.89562194
_cell_angle_gamma   120.09423449
_symmetry_Int_Tables_number   1
_chemical_formula_structural   Na10Ca4Nb4Si7S5O48
_chemical_formula_sum   'Na30 Ca12 Nb12 Si21 S15 O144'
_cell_volume   3401.28633384
_cell_formula_units_Z   3
loop_
 _symmetry_equiv_pos_site_id
 _symmetry_equiv_pos_as_xyz
  1  'x, y, z'
loop_
 _atom_site_type_symbol
 _atom_site_label
 _atom_site_symmetry_multiplicity
 _atom_site_fract_x
 _atom_site_fract_y
 _atom_site_fract_z
 _atom_site_occupancy
  Na  Na0  1  0.32304332  0.02659997  0.25132817  1
  Na  Na1  1  0.82127118  0.02652270  0.24080344  1
  Na  Na2  1  0.17297824  0.32748964  0.25424058  1
  Na  Na3  1  0.67417566  0.33153645  0.25421776  1
  Na  Na4  1  0.82657581  0.62441204  0.74961657  1
  Na  Na5  1  0.49931732  0.36245978  0.73762669  1
  Na  Na6  1  0.17566204  0.01504806  0.75425859  1
  Na  Na7  1  0.67118436  0.02031529  0.75454539  1
  Na  Na8  1  0.66369562  0.96452175  0.07192905  1
  Na  Na9  1  0.83255280  0.69744496  0.07054497  1
  Na  Na10  1  0.00758201  0.34976564  0.08595816  1
  Na  Na11  1  0.49736238  0.70293050  0.90832628  1
  Na  Na12  1  0.99746578  0.69766650  0.91091947  1
  Na  Na13  1  0.16280122  0.30141368  0.90526609  1
  Na  Na14  1  0.50171350  0.29804717  0.41228382  1
  Na  Na15  1  0.00114636  0.29675423  0.41235402  1
  Na  Na16  1  0.16322160  0.02533393  0.40611267  1
  Na  Na17  1  0.66243036  0.02432368  0.40576714  1
  Na  Na18  1  0.98832936  0.00266788  0.49697010  1
  Na  Na19  1  0.48884711  0.00330517  0.49701936  1
  Na  Na20  1  0.99734198  0.97803503  0.99129350  1
  Na  Na21  1  0.49279006  0.99193416  0.99001726  1
  Na  Na22  1  0.33649425  0.36873552  0.81989938  1
  Na  Na23  1  0.83466354  0.34718824  0.82772775  1
  Na  Na24  1  0.34372631  0.34290115  0.32303140  1
  Na  Na25  1  0.84378100  0.34276255  0.32287088  1
  Na  Na26  1  0.15124071  0.68582995  0.16499488  1
  Na  Na27  1  0.64749468  0.66582896  0.16105954  1
  Na  Na28  1  0.14655502  0.61688794  0.66362854  1
  Na  Na29  1  0.65284020  0.64039569  0.65964925  1
  Ca  Ca0  1  0.99836100  0.99615557  0.35181180  1
  Ca  Ca1  1  0.49676768  0.99565777  0.35248113  1
  Ca  Ca2  1  0.99727455  0.99902785  0.85092389  1
  Ca  Ca3  1  0.49992263  0.99908955  0.85217904  1
  Ca  Ca4  1  0.33660763  0.34799894  0.68269837  1
  Ca  Ca5  1  0.83992878  0.33952045  0.68311747  1
  Ca  Ca6  1  0.33865832  0.33914598  0.18256184  1
  Ca  Ca7  1  0.83683482  0.33490703  0.18423476  1
  Ca  Ca8  1  0.17153089  0.68402356  0.01965394  1
  Ca  Ca9  1  0.66577079  0.66467284  0.01722801  1
  Ca  Ca10  1  0.16667909  0.65724464  0.52183401  1
  Ca  Ca11  1  0.66621127  0.65526387  0.52182311  1
  Nb  Nb0  1  0.01053037  0.01720909  0.64820289  1
  Nb  Nb1  1  0.50718669  0.01042396  0.64737357  1
  Nb  Nb2  1  0.00812526  0.00688342  0.14566725  1
  Nb  Nb3  1  0.50547879  0.99925758  0.14954766  1
  Nb  Nb4  1  0.33682113  0.34467792  0.97677650  1
  Nb  Nb5  1  0.83789453  0.33475777  0.97853218  1
  Nb  Nb6  1  0.33491179  0.32726043  0.48054955  1
  Nb  Nb7  1  0.83450038  0.32459452  0.48026746  1
  Nb  Nb8  1  0.16976479  0.66607854  0.31374315  1
  Nb  Nb9  1  0.67058384  0.66639345  0.31334841  1
  Nb  Nb10  1  0.17358996  0.67750473  0.81156952  1
  Nb  Nb11  1  0.67199441  0.67745311  0.81616335  1
  Si  Si0  1  0.14784495  0.98993067  0.25461571  1
  Si  Si1  1  0.64789000  0.98924518  0.25623512  1
  Si  Si2  1  0.00561830  0.30403446  0.25290745  1
  Si  Si3  1  0.50393222  0.30269345  0.25349272  1
  Si  Si4  1  0.14986155  0.30889631  0.75594950  1
  Si  Si5  1  0.64933101  0.30725092  0.75273766  1
  Si  Si6  1  0.00473643  0.70735420  0.75277752  1
  Si  Si7  1  0.50377870  0.70601432  0.75415589  1
  Si  Si8  1  0.48071803  0.32113252  0.59007650  1
  Si  Si9  1  0.98253899  0.32177526  0.58693670  1
  Si  Si10  1  0.48087424  0.63962755  0.08542502  1
  Si  Si11  1  0.98263611  0.63675739  0.08416012  1
  Si  Si12  1  0.83663501  0.03701847  0.08753454  1
  Si  Si13  1  0.31302894  0.66643436  0.92057414  1
  Si  Si14  1  0.81519739  0.65772099  0.92249411  1
  Si  Si15  1  0.16937381  0.96448706  0.91761475  1
  Si  Si16  1  0.67196085  0.97433650  0.92148475  1
  Si  Si17  1  0.31329692  0.96230933  0.42068257  1
  Si  Si18  1  0.81285828  0.96059347  0.42072078  1
  Si  Si19  1  0.17062757  0.37386531  0.41887312  1
  Si  Si20  1  0.67086176  0.37397655  0.41879050  1
  S  S0  1  0.34794457  0.70967046  0.24813676  1
  S  S1  1  0.84786168  0.71010465  0.24747405  1
  S  S2  1  0.34933411  0.98724273  0.74724626  1
  S  S3  1  0.84819912  0.98700118  0.74834498  1
  S  S4  1  0.18275670  0.04601096  0.58346973  1
  S  S5  1  0.68094393  0.04305977  0.58373169  1
  S  S6  1  0.34422323  0.63980903  0.58224984  1
  S  S7  1  0.84335242  0.63779071  0.58477348  1
  S  S8  1  0.34325024  0.04901696  0.08549832  1
  S  S9  1  0.18222695  0.32074749  0.08260470  1
  S  S10  1  0.68116881  0.31733443  0.08444264  1
  S  S11  1  0.01877347  0.38358167  0.91728999  1
  S  S12  1  0.51519922  0.37937823  0.91465056  1
  S  S13  1  0.01760104  0.64981161  0.41596371  1
  S  S14  1  0.51782643  0.64985791  0.41611653  1
  O  O0  1  0.11020773  0.01208985  0.31331067  1
  O  O1  1  0.60544357  0.00440091  0.31332491  1
  O  O2  1  0.39439099  0.77263658  0.30240097  1
  O  O3  1  0.89613551  0.77726843  0.30092445  1
  O  O4  1  0.49473230  0.20388068  0.31261024  1
  O  O5  1  0.99844792  0.20425096  0.31114305  1
  O  O6  1  0.10815018  0.21198520  0.81395975  1
  O  O7  1  0.60200179  0.18623332  0.80415515  1
  O  O8  1  0.49469671  0.77957798  0.81423862  1
  O  O9  1  0.99548130  0.78823023  0.81151817  1
  O  O10  1  0.39725711  0.01776215  0.80145605  1
  O  O11  1  0.89513478  0.02041947  0.80267393  1
  O  O12  1  0.39440648  0.96973746  0.69616125  1
  O  O13  1  0.89334434  0.96909520  0.69735543  1
  O  O14  1  0.08249356  0.19529693  0.69659370  1
  O  O15  1  0.58318461  0.19730899  0.69164801  1
  O  O16  1  0.01598041  0.84532925  0.69623152  1
  O  O17  1  0.51428688  0.84249371  0.69739408  1
  O  O18  1  0.39506562  0.81762995  0.19685723  1
  O  O19  1  0.89149604  0.81308575  0.19467393  1
  O  O20  1  0.01779197  0.19539356  0.19454528  1
  O  O21  1  0.51392846  0.18472271  0.19720272  1
  O  O22  1  0.08293356  0.97554567  0.19639499  1
  O  O23  1  0.58336056  0.97257244  0.19555419  1
  O  O24  1  0.43783020  0.32061074  0.64942887  1
  O  O25  1  0.93312068  0.31833615  0.64224254  1
  O  O26  1  0.22806081  0.12044029  0.63734346  1
  O  O27  1  0.72406578  0.11857168  0.63865152  1
  O  O28  1  0.33421881  0.55184119  0.63676931  1
  O  O29  1  0.83346109  0.55350173  0.64095476  1
  O  O30  1  0.43538000  0.54393811  0.14206829  1
  O  O31  1  0.93168903  0.53282192  0.13839270  1
  O  O32  1  0.33328827  0.11459056  0.14125585  1
  O  O33  1  0.81734726  0.10517318  0.14573507  1
  O  O34  1  0.22584138  0.33739620  0.13781582  1
  O  O35  1  0.72403944  0.33927812  0.14097966  1
  O  O36  1  0.22834698  0.30777756  0.03095599  1
  O  O37  1  0.72798475  0.29503076  0.03527740  1
  O  O38  1  0.41849406  0.52818231  0.02459405  1
  O  O39  1  0.92006905  0.53634275  0.02340848  1
  O  O40  1  0.34900359  0.15961064  0.03503193  1
  O  O41  1  0.85072831  0.17790148  0.03208067  1
  O  O42  1  0.22729602  0.15513198  0.53072922  1
  O  O43  1  0.72729949  0.15306431  0.53157828  1
  O  O44  1  0.34880642  0.53930134  0.53119283  1
  O  O45  1  0.84740892  0.53311804  0.53509534  1
  O  O46  1  0.41450518  0.30855854  0.53085785  1
  O  O47  1  0.91805204  0.30812093  0.52572806  1
  O  O48  1  0.26273210  0.64661233  0.97722709  1
  O  O49  1  0.77304917  0.65948791  0.98165043  1
  O  O50  1  0.06189021  0.44638274  0.97361965  1
  O  O51  1  0.56081310  0.44649909  0.96832706  1
  O  O52  1  0.13751752  0.82777438  0.96706241  1
  O  O53  1  0.65719705  0.86465835  0.97795461  1
  O  O54  1  0.26065442  0.87014780  0.47523272  1
  O  O55  1  0.76118276  0.86861201  0.47567905  1
  O  O56  1  0.13873742  0.45217237  0.46575345  1
  O  O57  1  0.63842651  0.45072724  0.46597249  1
  O  O58  1  0.06412982  0.67829938  0.47012059  1
  O  O59  1  0.56475719  0.67883037  0.47018580  1
  O  O60  1  0.06350006  0.62805530  0.36428102  1
  O  O61  1  0.56284115  0.62747486  0.36434725  1
  O  O62  1  0.25237207  0.86630536  0.35845230  1
  O  O63  1  0.75117898  0.86289911  0.35911111  1
  O  O64  1  0.18496775  0.50078406  0.35606394  1
  O  O65  1  0.68473570  0.49985115  0.35605572  1
  O  O66  1  0.06502617  0.49839336  0.86743245  1
  O  O67  1  0.55974173  0.48890715  0.86232126  1
  O  O68  1  0.18470066  0.87110229  0.85643938  1
  O  O69  1  0.68158868  0.86045415  0.86184739  1
  O  O70  1  0.25035876  0.64207657  0.86085853  1
  O  O71  1  0.75084682  0.64315354  0.86263348  1
  O  O72  1  0.00096888  0.78515186  0.40567955  1
  O  O73  1  0.50033386  0.78401527  0.40608576  1
  O  O74  1  0.40790311  0.00704262  0.41757252  1
  O  O75  1  0.90766308  0.00668882  0.41668272  1
  O  O76  1  0.09936366  0.18092622  0.41239277  1
  O  O77  1  0.59959130  0.18098768  0.41194419  1
  O  O78  1  0.00327435  0.21533076  0.90840735  1
  O  O79  1  0.49335013  0.20675979  0.90577780  1
  O  O80  1  0.09949155  0.01916253  0.91196065  1
  O  O81  1  0.59414170  0.00204583  0.91414814  1
  O  O82  1  0.40734732  0.81020982  0.91695270  1
  O  O83  1  0.90865151  0.80957535  0.91617242  1
  O  O84  1  0.48093689  0.13583610  0.59040445  1
  O  O85  1  0.98400128  0.13727747  0.58969683  1
  O  O86  1  0.09868301  0.04197019  0.58516737  1
  O  O87  1  0.59622503  0.03608587  0.58371244  1
  O  O88  1  0.42573234  0.80234728  0.58311726  1
  O  O89  1  0.92429571  0.80057205  0.58437893  1
  O  O90  1  0.48444934  0.82992696  0.09027353  1
  O  O91  1  0.98510298  0.82286444  0.08970079  1
  O  O92  1  0.42370447  0.04500665  0.08666525  1
  O  O93  1  0.92945639  0.04315994  0.09189202  1
  O  O94  1  0.09853267  0.15502386  0.08301618  1
  O  O95  1  0.59822105  0.15107933  0.08585951  1
  O  O96  1  0.32837419  0.11954842  0.73978598  1
  O  O97  1  0.81974879  0.10791443  0.74034869  1
  O  O98  1  0.23597464  0.31181600  0.74607570  1
  O  O99  1  0.74115701  0.33469006  0.74504263  1
  O  O100  1  0.43306944  0.51405356  0.74761880  1
  O  O101  1  0.92367799  0.52708867  0.74689297  1
  O  O102  1  0.32137655  0.53292536  0.24053479  1
  O  O103  1  0.82150893  0.53299922  0.24146770  1
  O  O104  1  0.42280385  0.32068122  0.24731150  1
  O  O105  1  0.92549756  0.32508626  0.24772408  1
  O  O106  1  0.23908551  0.15133939  0.24555843  1
  O  O107  1  0.73733816  0.15585655  0.24978575  1
  O  O108  1  0.31444818  0.47509207  0.92267949  1
  O  O109  1  0.81929634  0.47772938  0.92283265  1
  O  O110  1  0.43311393  0.38501507  0.91621955  1
  O  O111  1  0.93539461  0.38116532  0.91750222  1
  O  O112  1  0.26099371  0.14430560  0.93139045  1
  O  O113  1  0.76371637  0.15256539  0.92513953  1
  O  O114  1  0.31625696  0.15628136  0.42465594  1
  O  O115  1  0.81401978  0.15323889  0.42418018  1
  O  O116  1  0.26190862  0.37706237  0.42945757  1
  O  O117  1  0.76246362  0.37876336  0.42971156  1
  O  O118  1  0.43546025  0.48368422  0.41829811  1
  O  O119  1  0.93503120  0.48487429  0.41732705  1
  O  O120  1  0.16062277  0.45167651  0.07666719  1
  O  O121  1  0.66474509  0.45290916  0.07550202  1
  O  O122  1  0.07154923  0.64664384  0.08304341  1
  O  O123  1  0.57521952  0.68044160  0.08091680  1
  O  O124  1  0.27294005  0.87944386  0.07899600  1
  O  O125  1  0.76322305  0.84760190  0.07976464  1
  O  O126  1  0.16572719  0.87617026  0.57613712  1
  O  O127  1  0.66589197  0.87495734  0.57709486  1
  O  O128  1  0.27503174  0.67103249  0.57510421  1
  O  O129  1  0.77326903  0.66665521  0.57719729  1
  O  O130  1  0.07468796  0.47416222  0.58313585  1
  O  O131  1  0.57237148  0.47578102  0.58444098  1
  O  O132  1  0.15435752  0.81637812  0.25587010  1
  O  O133  1  0.65512397  0.81734810  0.25597935  1
  O  O134  1  0.26879502  0.72292139  0.24944509  1
  O  O135  1  0.76760162  0.72012966  0.25020085  1
  O  O136  1  0.09757575  0.48697334  0.25425840  1
  O  O137  1  0.59590195  0.48377347  0.25442184  1
  O  O138  1  0.15427079  0.49302865  0.75750480  1
  O  O139  1  0.64940793  0.48717914  0.75664774  1
  O  O140  1  0.09611782  0.70841497  0.75514352  1
  O  O141  1  0.59841744  0.71282537  0.75590306  1
  O  O142  1  0.26631306  0.82376433  0.75005904  1
  O  O143  1  0.76830632  0.81355122  0.75212394  1
loop_
_geom_bond_atom_site_label_1
_geom_bond_atom_site_label_2
_geom_bond_distance
_geom_bond_site_symmetry_2
Na0 O106 2.363666 1_555
Na0 O104 2.415209 1_555
Na0 O134 2.476076 1_545
Na0 O32 2.619048 1_555
Na0 O132 2.736973 1_545
Na0 O62 2.833933 1_545
Na1 O33 2.298656 1_555
Na1 O107 2.407465 1_555
Na1 O105 2.464561 1_555
Na1 O135 2.511055 1_545
Na1 O133 2.722622 1_545
Na2 O102 2.463497 1_555
Na2 O136 2.495878 1_555
Na2 O106 2.498667 1_555
Na2 O64 2.772848 1_555
Na2 O20 2.826125 1_555
Na2 O34 2.831207 1_555
Na2 O0 2.892496 1_555
Na3 O103 2.438232 1_555
Na3 O107 2.443261 1_555
Na3 O137 2.483418 1_555
Na3 O35 2.746434 1_555
Na3 O65 2.754160 1_555
Na3 O21 2.864733 1_555
Na3 O1 2.971374 1_555
Na4 O99 2.342828 1_555
Na4 O101 2.387531 1_555
Na4 O143 2.483385 1_555
Na4 O29 2.588857 1_555
Na4 O139 2.873504 1_555
Na5 O24 2.233690 1_555
Na5 O100 2.300365 1_555
Na5 O139 2.450900 1_555
Na5 O141 2.852463 1_555
Na6 O98 2.408781 1_555
Na6 O140 2.466150 1_545
Na6 O96 2.517788 1_555
Na6 O68 2.728955 1_545
Na6 O26 2.851445 1_555
Na6 O16 2.865972 1_545
Na7 O141 2.474175 1_545
Na7 O97 2.476477 1_555
Na7 O99 2.543549 1_555
Na7 O7 2.709970 1_555
Na7 O27 2.820739 1_555
Na7 O17 2.822730 1_545
Na7 O69 2.913647 1_545
Na8 O53 2.316375 1_554
Na8 O123 2.316691 1_555
Na8 O125 2.572438 1_555
Na8 O95 2.589762 1_565
Na8 O37 2.810409 1_565
Na8 O90 2.942231 1_555
Na8 O33 2.964791 1_565
Na9 O49 2.236067 1_554
Na9 O125 2.335209 1_555
Na9 O91 2.491646 1_555
Na9 O121 2.788657 1_555
Na9 O93 2.825069 1_565
Na9 O39 2.920986 1_555
Na9 O19 3.019155 1_555
Na10 O122 2.396436 1_555
Na10 O93 2.469861 1_455
Na10 O120 2.513241 1_555
Na10 O50 2.747830 1_554
Na10 O41 2.786107 1_455
Na10 O20 2.910154 1_555
Na10 O31 2.961654 1_455
Na11 O8 2.267478 1_555
Na11 O82 2.344890 1_555
Na11 O81 2.440756 1_565
Na11 O110 2.579626 1_555
Na12 O83 2.352064 1_555
Na12 O9 2.422967 1_555
Na12 O52 2.569619 1_655
Na12 O111 2.570327 1_555
Na12 O80 2.614739 1_665
Na12 O66 2.891343 1_655
Na12 O109 2.901402 1_555
Na12 O39 2.971403 1_556
Na13 O6 2.271124 1_555
Na13 O80 2.279696 1_555
Na13 O108 2.467137 1_555
Na13 O78 2.650917 1_555
Na14 O74 2.375082 1_555
Na14 O4 2.417514 1_555
Na14 O57 2.499219 1_555
Na14 O77 2.541146 1_555
Na14 O118 2.576081 1_555
Na15 O75 2.366176 1_455
Na15 O5 2.457667 1_455
Na15 O56 2.509461 1_555
Na15 O76 2.537893 1_555
Na15 O119 2.593624 1_455
Na16 O76 2.288402 1_555
Na16 O0 2.297912 1_555
Na16 O114 2.492809 1_555
Na16 O72 2.701462 1_545
Na16 O116 2.880714 1_555
Na16 O62 2.935150 1_545
Na17 O77 2.281381 1_555
Na17 O1 2.310065 1_555
Na17 O115 2.470031 1_555
Na18 O75 2.358916 1_555
Na18 O85 2.483963 1_555
Na18 O89 2.594202 1_545
Na18 O76 2.718744 1_655
Na18 O86 2.737924 1_655
Na18 O72 2.999364 1_645
Na19 O74 2.346633 1_555
Na19 O84 2.507147 1_555
Na19 O88 2.564078 1_545
Na19 O87 2.691085 1_555
Na19 O77 2.723239 1_555
Na19 O73 2.996420 1_545
Na20 O83 2.332309 1_555
Na20 O80 2.527268 1_665
Na20 O91 2.615514 1_556
Na20 O94 2.721984 1_666
Na20 O93 2.842936 1_566
Na20 O78 2.861819 1_665
Na21 O82 2.322242 1_555
Na21 O81 2.541799 1_565
Na21 O90 2.698222 1_556
Na21 O92 2.734197 1_566
Na21 O79 2.763508 1_565
Na21 O95 2.788894 1_566
Na22 O100 2.324636 1_555
Na22 O98 2.347240 1_555
Na22 O108 2.663309 1_555
Na22 O110 2.769417 1_555
Na22 O96 2.897343 1_555
Na23 O101 2.496066 1_555
Na23 O99 2.505201 1_555
Na23 O109 2.577621 1_555
Na23 O111 2.660264 1_555
Na23 O113 2.760991 1_555
Na23 O97 2.896436 1_555
Na24 O104 2.358499 1_555
Na24 O106 2.550813 1_555
Na24 O118 2.645757 1_555
Na24 O102 2.742793 1_555
Na24 O114 2.787613 1_555
Na24 O116 2.983627 1_555
Na25 O105 2.365431 1_555
Na25 O107 2.483964 1_555
Na25 O119 2.629528 1_555
Na25 O103 2.726593 1_555
Na25 O115 2.791186 1_555
Na25 O117 2.992332 1_555
Na26 O122 2.278310 1_555
Na26 O132 2.390844 1_555
Na26 O136 2.598100 1_555
Na26 O134 2.775250 1_555
Na26 O124 2.867934 1_555
Na27 O123 2.294048 1_555
Na27 O133 2.550078 1_555
Na27 O137 2.595083 1_555
Na27 O125 2.714601 1_555
Na27 O135 2.844073 1_555
Na27 O121 2.916605 1_555
Na28 O130 2.252567 1_555
Na28 O138 2.464595 1_555
Na28 O140 2.613047 1_555
Na28 O142 2.849765 1_555
Na28 O128 2.991657 1_555
Na28 O126 3.008618 1_555
Na29 O131 2.271184 1_555
Na29 O139 2.612355 1_555
Na29 O141 2.656010 1_555
Na29 O127 2.796221 1_555
Na29 O143 2.837219 1_555
Na29 O129 2.857808 1_555
Ca0 O5 2.141747 1_565
Ca0 O0 2.200580 1_665
Ca0 O76 2.252802 1_665
Ca0 O3 2.271061 1_555
Ca0 O75 2.296165 1_565
Ca0 O72 2.331715 1_655
Ca1 O4 2.152924 1_565
Ca1 O1 2.181003 1_565
Ca1 O77 2.254436 1_565
Ca1 O74 2.276890 1_565
Ca1 O2 2.281639 1_555
Ca1 O73 2.341413 1_555
Ca2 O9 2.142844 1_555
Ca2 O6 2.195067 1_665
Ca2 O80 2.264965 1_665
Ca2 O11 2.269189 1_565
Ca2 O83 2.275022 1_555
Ca2 O78 2.358137 1_665
Ca3 O7 2.135400 1_565
Ca3 O8 2.174933 1_555
Ca3 O81 2.219653 1_565
Ca3 O82 2.292123 1_555
Ca3 O10 2.292244 1_565
Ca3 O79 2.343112 1_565
Ca4 O24 2.165244 1_555
Ca4 O28 2.181629 1_555
Ca4 O100 2.222126 1_555
Ca4 O98 2.266721 1_555
Ca4 O26 2.296472 1_555
Ca4 O96 2.427309 1_555
Ca5 O25 2.070499 1_555
Ca5 O101 2.190372 1_555
Ca5 O29 2.262377 1_555
Ca5 O99 2.313121 1_555
Ca5 O27 2.319825 1_555
Ca5 O97 2.380886 1_555
Ca6 O30 2.076121 1_555
Ca6 O104 2.200294 1_555
Ca6 O32 2.248094 1_555
Ca6 O34 2.305975 1_555
Ca6 O106 2.314561 1_555
Ca6 O102 2.387891 1_555
Ca7 O31 2.090938 1_555
Ca7 O33 2.165259 1_555
Ca7 O105 2.210140 1_555
Ca7 O35 2.317353 1_555
Ca7 O107 2.324209 1_555
Ca7 O103 2.392925 1_555
Ca8 O52 2.105692 1_554
Ca8 O48 2.135503 1_554
Ca8 O122 2.254834 1_555
Ca8 O124 2.275521 1_555
Ca8 O50 2.357617 1_554
Ca8 O120 2.439036 1_555
Ca9 O53 2.136387 1_554
Ca9 O49 2.182817 1_554
Ca9 O125 2.246058 1_555
Ca9 O51 2.265414 1_554
Ca9 O123 2.297070 1_555
Ca9 O121 2.364042 1_555
Ca10 O56 2.131173 1_555
Ca10 O54 2.160852 1_555
Ca10 O130 2.215951 1_555
Ca10 O128 2.279573 1_555
Ca10 O58 2.312481 1_555
Ca10 O126 2.393124 1_555
Ca11 O57 2.124800 1_555
Ca11 O55 2.164366 1_555
Ca11 O131 2.236902 1_555
Ca11 O129 2.293377 1_555
Ca11 O59 2.305879 1_555
Ca11 O127 2.405640 1_555
Nb0 O14 1.867923 1_555
Nb0 O85 1.946793 1_455
Nb0 O16 1.977482 1_545
Nb0 O86 2.118377 1_555
Nb0 O13 2.297319 1_445
Nb0 O89 2.333989 1_445
Nb1 O15 1.880025 1_555
Nb1 O84 1.955727 1_555
Nb1 O17 1.986471 1_545
Nb1 O87 2.137848 1_555
Nb1 O12 2.243268 1_545
Nb1 O88 2.277976 1_545
Nb2 O22 1.923895 1_545
Nb2 O91 2.000446 1_445
Nb2 O20 2.008941 1_555
Nb2 O93 2.044880 1_455
Nb2 O94 2.120723 1_555
Nb2 O19 2.308239 1_445
Nb3 O23 1.886507 1_555
Nb3 O90 1.959278 1_555
Nb3 O21 1.978125 1_565
Nb3 O95 2.166103 1_565
Nb3 O18 2.190457 1_555
Nb3 O92 2.261225 1_565
Nb4 O108 1.908850 1_555
Nb4 O38 1.939531 1_556
Nb4 O112 1.964027 1_555
Nb4 O110 2.154124 1_555
Nb4 O36 2.252681 1_556
Nb4 O40 2.267650 1_556
Nb5 O113 1.966604 1_555
Nb5 O109 1.983700 1_555
Nb5 O39 1.994996 1_556
Nb5 O41 2.000599 1_556
Nb5 O111 2.164830 1_555
Nb5 O37 2.300180 1_556
Nb6 O114 1.928308 1_555
Nb6 O46 1.931032 1_555
Nb6 O116 1.995275 1_555
Nb6 O42 2.170392 1_555
Nb6 O44 2.186384 1_555
Nb6 O118 2.226850 1_555
Nb7 O47 1.919897 1_555
Nb7 O115 1.925812 1_555
Nb7 O117 1.997682 1_555
Nb7 O43 2.178650 1_555
Nb7 O45 2.217664 1_555
Nb7 O119 2.245430 1_555
Nb8 O64 1.946375 1_555
Nb8 O62 1.988395 1_555
Nb8 O136 2.031515 1_555
Nb8 O132 2.038020 1_555
Nb8 O60 2.169575 1_555
Nb8 O134 2.215802 1_555
Nb9 O65 1.950393 1_555
Nb9 O63 1.970915 1_555
Nb9 O133 2.035710 1_555
Nb9 O137 2.050495 1_555
Nb9 O135 2.176496 1_555
Nb9 O61 2.195745 1_555
Nb10 O70 1.953720 1_555
Nb10 O68 1.990122 1_555
Nb10 O138 1.993118 1_555
Nb10 O140 2.038947 1_555
Nb10 O142 2.119775 1_555
Nb10 O66 2.270348 1_555
Nb11 O69 1.926706 1_555
Nb11 O71 1.944304 1_555
Nb11 O141 2.061096 1_555
Nb11 O139 2.097755 1_555
Nb11 O143 2.174649 1_555
Nb11 O67 2.216173 1_555
O0 Si0 1.580530 1_545
O1 Si1 1.574948 1_545
O2 S0 1.443207 1_555
O3 S1 1.445138 1_555
O4 Si3 1.592013 1_555
O5 Si2 1.586717 1_655
O6 Si4 1.577192 1_555
O7 Si5 1.563903 1_555
O8 Si7 1.582273 1_555
O9 Si6 1.591693 1_655
O10 S2 1.454315 1_545
O11 S3 1.445031 1_545
O12 S2 1.500509 1_555
O13 S3 1.501100 1_555
O14 Si4 1.772693 1_555
O15 Si5 1.785967 1_555
O16 Si6 1.755732 1_555
O17 Si7 1.753334 1_555
O18 S0 1.511542 1_555
O19 S1 1.506286 1_555
O20 Si2 1.757788 1_555
O21 Si3 1.762329 1_555
O22 Si0 1.738086 1_555
O23 Si1 1.770944 1_555
O24 Si8 1.579934 1_555
O25 Si9 1.561935 1_555
O26 S4 1.444079 1_555
O27 S5 1.453765 1_555
O28 S6 1.448867 1_555
O29 S7 1.465507 1_555
O30 Si10 1.564487 1_555
O31 Si11 1.571890 1_555
O32 S8 1.465965 1_555
O33 Si12 1.593664 1_555
O34 S9 1.452174 1_555
O35 S10 1.464446 1_555
O36 S9 1.506775 1_555
O37 S10 1.505738 1_555
O38 Si10 1.759054 1_555
O39 Si11 1.734977 1_555
O40 S8 1.510098 1_555
O41 Si12 1.743749 1_555
O42 S4 1.530476 1_555
O43 S5 1.530808 1_555
O44 S6 1.525193 1_555
O45 S7 1.523013 1_555
O46 Si8 1.775360 1_555
O47 Si9 1.786912 1_555
O48 Si13 1.561606 1_555
O49 Si14 1.574465 1_555
O50 S11 1.461603 1_555
O51 S12 1.430961 1_555
O52 Si15 1.579752 1_555
O53 Si16 1.580288 1_555
O54 Si17 1.558421 1_555
O55 Si18 1.559152 1_555
O56 Si19 1.574646 1_555
O57 Si20 1.576246 1_555
O58 S13 1.442566 1_555
O59 S14 1.444046 1_555
O60 S13 1.536623 1_555
O61 S14 1.530251 1_555
O62 Si17 1.742175 1_555
O63 Si18 1.739152 1_555
O64 Si19 1.789676 1_555
O65 Si20 1.784148 1_555
O66 S11 1.507838 1_555
O67 S12 1.524550 1_555
O68 Si15 1.746283 1_555
O69 Si16 1.791513 1_555
O70 Si13 1.716582 1_555
O71 Si14 1.759472 1_555
O72 S13 1.455011 1_555
O73 S14 1.453784 1_555
O74 Si17 1.589738 1_545
O75 Si18 1.591101 1_545
O76 Si19 1.613185 1_555
O77 Si20 1.614249 1_555
O78 S11 1.455348 1_555
O79 S12 1.458167 1_555
O80 Si15 1.615039 1_545
O81 Si16 1.594068 1_545
O82 Si13 1.584605 1_555
O83 Si14 1.602862 1_555
O84 Si8 1.724056 1_555
O85 Si9 1.729298 1_555
O86 S4 1.541461 1_555
O87 S5 1.539332 1_555
O88 S6 1.508641 1_555
O89 S7 1.504825 1_555
O90 Si10 1.740026 1_555
O91 Si11 1.712093 1_555
O92 S8 1.510595 1_555
O93 Si12 1.694498 1_555
O94 S9 1.543950 1_555
O95 S10 1.540082 1_555
O96 S2 1.472309 1_545
O97 S3 1.471198 1_545
O98 Si4 1.602684 1_555
O99 Si5 1.602605 1_555
O100 Si7 1.604245 1_555
O101 Si6 1.597954 1_655
O102 S0 1.469135 1_555
O103 S1 1.469455 1_555
O104 Si3 1.598742 1_555
O105 Si2 1.595299 1_655
O106 Si0 1.618311 1_545
O107 Si1 1.612669 1_545
O108 Si13 1.792038 1_555
O109 Si14 1.712086 1_555
O110 S12 1.549881 1_555
O111 S11 1.534915 1_655
O112 Si15 1.707874 1_545
O113 Si16 1.677876 1_545
O114 Si17 1.778314 1_545
O115 Si18 1.781597 1_545
O116 Si19 1.691318 1_555
O117 Si20 1.691101 1_555
O118 S14 1.535064 1_555
O119 S13 1.530420 1_655
O120 S9 1.464730 1_555
O121 S10 1.450196 1_555
O122 Si11 1.605089 1_455
O123 Si10 1.598280 1_555
O124 S8 1.462906 1_565
O125 Si12 1.604483 1_565
O126 S4 1.455734 1_565
O127 S5 1.450614 1_565
O128 S6 1.457102 1_555
O129 S7 1.460368 1_555
O130 Si9 1.584195 1_455
O131 Si8 1.589465 1_555
O132 Si0 1.676819 1_555
O133 Si1 1.668829 1_555
O134 S0 1.533750 1_555
O135 S1 1.539183 1_555
O136 Si2 1.700041 1_555
O137 Si3 1.691609 1_555
O138 Si4 1.672170 1_555
O139 Si5 1.674071 1_555
O140 Si6 1.689443 1_555
O141 Si7 1.723706 1_555
O142 S2 1.529382 1_555
O143 S3 1.551980 1_555
