# generated using pymatgen
data_Sm2InPd2
_symmetry_space_group_name_H-M   'P 1'
_cell_length_a   7.79639258
_cell_length_b   7.79639258
_cell_length_c   3.78567260
_cell_angle_alpha   90.00000000
_cell_angle_beta   90.00000000
_cell_angle_gamma   90.00000000
_symmetry_Int_Tables_number   1
_chemical_formula_structural   Sm2InPd2
_chemical_formula_sum   'Sm4 In2 Pd4'
_cell_volume   230.10732868
_cell_formula_units_Z   2
loop_
 _symmetry_equiv_pos_site_id
 _symmetry_equiv_pos_as_xyz
  1  'x, y, z'
loop_
 _atom_site_type_symbol
 _atom_site_label
 _atom_site_symmetry_multiplicity
 _atom_site_fract_x
 _atom_site_fract_y
 _atom_site_fract_z
 _atom_site_occupancy
  Sm  Sm0  1  0.32469082  0.82469082  0.50000000  1
  Sm  Sm1  1  0.82469082  0.67530918  0.50000000  1
  Sm  Sm2  1  0.17530918  0.32469082  0.50000000  1
  Sm  Sm3  1  0.67530918  0.17530918  0.50000000  1
  In  In0  1  0.00000000  -0.00000000  0.00000000  1
  In  In1  1  0.50000000  0.50000000  0.00000000  1
  Pd  Pd0  1  0.37266021  0.12733979  -0.00000000  1
  Pd  Pd1  1  0.87266021  0.37266021  -0.00000000  1
  Pd  Pd2  1  0.12733979  0.62733979  0.00000000  1
  Pd  Pd3  1  0.62733979  0.87266021  0.00000000  1
loop_
_geom_bond_atom_site_label_1
_geom_bond_atom_site_label_2
_geom_bond_distance
_geom_bond_site_symmetry_2
In0 Pd2 3.070344 1_545
In0 Pd3 3.070344 1_445
In0 Pd0 3.070344 1_555
In0 Pd1 3.070344 1_455
In0 Sm0 3.443688 1_545
In0 Sm3 3.443688 1_455
In0 Sm1 3.443688 1_444
In0 Sm1 3.443688 1_445
In0 Sm0 3.443688 1_544
In0 Sm3 3.443688 1_454
In0 Sm2 3.443688 1_555
In0 Sm2 3.443688 1_554
In1 Pd0 3.070344 1_555
In1 Pd2 3.070344 1_555
In1 Pd1 3.070344 1_555
In1 Pd3 3.070344 1_555
In1 Sm0 3.443688 1_554
In1 Sm2 3.443688 1_554
In1 Sm2 3.443688 1_555
In1 Sm3 3.443688 1_554
In1 Sm3 3.443688 1_555
In1 Sm0 3.443688 1_555
In1 Sm1 3.443688 1_554
In1 Sm1 3.443688 1_555
Pd0 Pd3 2.808037 1_545
Pd0 Sm2 2.884020 1_555
Pd0 Sm2 2.884020 1_554
Pd0 Sm0 3.047994 1_545
Pd0 Sm0 3.047994 1_544
Pd0 Sm3 3.047994 1_554
Pd0 Sm3 3.047994 1_555
Pd1 Pd2 2.808037 1_655
Pd1 Sm3 2.884020 1_554
Pd1 Sm3 2.884020 1_555
Pd1 Sm2 3.047994 1_654
Pd1 Sm2 3.047994 1_655
Pd1 Sm1 3.047994 1_555
Pd1 Sm1 3.047994 1_554
Pd2 Sm0 2.884020 1_554
Pd2 Sm0 2.884020 1_555
Pd2 Sm1 3.047994 1_455
Pd2 Sm1 3.047994 1_454
Pd2 Sm2 3.047994 1_555
Pd2 Sm2 3.047994 1_554
Pd3 Sm1 2.884020 1_555
Pd3 Sm1 2.884020 1_554
Pd3 Sm3 3.047994 1_565
Pd3 Sm3 3.047994 1_564
Pd3 Sm0 3.047994 1_554
Pd3 Sm0 3.047994 1_555
