# generated using pymatgen
data_HgP14Pb
_symmetry_space_group_name_H-M   'P 1'
_cell_length_a   9.85931554
_cell_length_b   11.04056212
_cell_length_c   13.21364566
_cell_angle_alpha   90.00000000
_cell_angle_beta   90.00000000
_cell_angle_gamma   90.00000000
_symmetry_Int_Tables_number   1
_chemical_formula_structural   HgP14Pb
_chemical_formula_sum   'Hg4 P56 Pb4'
_cell_volume   1438.33685362
_cell_formula_units_Z   4
loop_
 _symmetry_equiv_pos_site_id
 _symmetry_equiv_pos_as_xyz
  1  'x, y, z'
loop_
 _atom_site_type_symbol
 _atom_site_label
 _atom_site_symmetry_multiplicity
 _atom_site_fract_x
 _atom_site_fract_y
 _atom_site_fract_z
 _atom_site_occupancy
  Hg  Hg0  1  0.25000000  0.00044297  0.18578457  1
  Hg  Hg1  1  0.25000000  0.49955703  0.68578457  1
  Hg  Hg2  1  0.75000000  0.50044297  0.31421543  1
  Hg  Hg3  1  0.75000000  0.99955703  0.81421543  1
  P  P0  1  0.92297623  0.67425246  0.82195533  1
  P  P1  1  0.54828826  0.63597406  0.36184354  1
  P  P2  1  0.04828826  0.36402594  0.63815646  1
  P  P3  1  0.45171174  0.13597406  0.13815646  1
  P  P4  1  0.75000000  0.33972527  0.47160478  1
  P  P5  1  0.25000000  0.66027473  0.52839522  1
  P  P6  1  0.25000000  0.83972527  0.02839522  1
  P  P7  1  0.75000000  0.16027473  0.97160478  1
  P  P8  1  0.07684682  0.34710474  0.47495401  1
  P  P9  1  0.57684682  0.65289526  0.52504599  1
  P  P10  1  0.92315318  0.84710474  0.02504599  1
  P  P11  1  0.42315318  0.15289526  0.97495401  1
  P  P12  1  0.92315318  0.65289526  0.52504599  1
  P  P13  1  0.42315318  0.34710474  0.47495401  1
  P  P14  1  0.07684682  0.15289526  0.97495401  1
  P  P15  1  0.57684682  0.84710474  0.02504599  1
  P  P16  1  0.25000000  0.22354924  0.45011306  1
  P  P17  1  0.75000000  0.77645076  0.54988694  1
  P  P18  1  0.75000000  0.72354924  0.04988694  1
  P  P19  1  0.25000000  0.27645076  0.95011306  1
  P  P20  1  0.58315020  0.21363690  0.43997936  1
  P  P21  1  0.08315020  0.78636310  0.56002064  1
  P  P22  1  0.41684980  0.71363690  0.06002064  1
  P  P23  1  0.91684980  0.28636310  0.93997936  1
  P  P24  1  0.41684980  0.78636310  0.56002064  1
  P  P25  1  0.91684980  0.21363690  0.43997936  1
  P  P26  1  0.58315020  0.28636310  0.93997936  1
  P  P27  1  0.08315020  0.71363690  0.06002064  1
  P  P28  1  0.25000000  0.39306616  0.08849500  1
  P  P29  1  0.75000000  0.60693384  0.91150500  1
  P  P30  1  0.75000000  0.89306616  0.41150500  1
  P  P31  1  0.25000000  0.10693384  0.58849500  1
  P  P32  1  0.57859745  0.40988117  0.07937213  1
  P  P33  1  0.07859745  0.59011883  0.92062787  1
  P  P34  1  0.42140255  0.90988117  0.42062787  1
  P  P35  1  0.92140255  0.09011883  0.57937213  1
  P  P36  1  0.42140255  0.59011883  0.92062787  1
  P  P37  1  0.92140255  0.40988117  0.07937213  1
  P  P38  1  0.57859745  0.09011883  0.57937213  1
  P  P39  1  0.07859745  0.90988117  0.42062787  1
  P  P40  1  0.75000000  0.34627811  0.17174913  1
  P  P41  1  0.25000000  0.65372189  0.82825087  1
  P  P42  1  0.25000000  0.84627811  0.32825087  1
  P  P43  1  0.75000000  0.15372189  0.67174913  1
  P  P44  1  0.07702377  0.32574754  0.17804467  1
  P  P45  1  0.57702377  0.67425246  0.82195533  1
  P  P46  1  0.92297623  0.82574754  0.32195533  1
  P  P47  1  0.42297623  0.17425246  0.67804467  1
  P  P48  1  0.45171174  0.36402594  0.63815646  1
  P  P49  1  0.42297623  0.32574754  0.17804467  1
  P  P50  1  0.07702377  0.17425246  0.67804467  1
  P  P51  1  0.57702377  0.82574754  0.32195533  1
  P  P52  1  0.04828826  0.13597406  0.13815646  1
  P  P53  1  0.54828826  0.86402594  0.86184354  1
  P  P54  1  0.95171174  0.63597406  0.36184354  1
  P  P55  1  0.95171174  0.86402594  0.86184354  1
  Pb  Pb0  1  0.75000000  0.09122163  0.17406152  1
  Pb  Pb1  1  0.25000000  0.90877837  0.82593848  1
  Pb  Pb2  1  0.25000000  0.59122163  0.32593848  1
  Pb  Pb3  1  0.75000000  0.40877837  0.67406152  1
loop_
_geom_bond_atom_site_label_1
_geom_bond_atom_site_label_2
_geom_bond_distance
_geom_bond_site_symmetry_2
Hg0 P42 2.537880 1_545
Hg0 P3 2.567136 1_555
Hg0 P52 2.567136 1_555
Hg0 P6 2.733796 1_545
Hg1 P41 2.537880 1_555
Hg1 P48 2.567136 1_555
Hg1 P2 2.567136 1_555
Hg1 P5 2.733796 1_555
Hg2 P40 2.537880 1_555
Hg2 P54 2.567136 1_555
Hg2 P1 2.567136 1_555
Hg2 P4 2.733796 1_555
Hg3 P43 2.537880 1_565
Hg3 P55 2.567136 1_555
Hg3 P53 2.567136 1_555
Hg3 P7 2.733796 1_565
P0 P55 2.178980 1_555
P0 P29 2.204774 1_555
P0 P33 2.217411 1_655
P1 P51 2.178980 1_555
P1 P9 2.182813 1_555
P1 Pb2 3.019638 1_555
P2 P50 2.178980 1_555
P2 P8 2.182813 1_555
P2 Pb3 3.019638 1_455
P3 P49 2.178980 1_555
P3 Pb0 3.019638 1_555
P4 Pb3 2.781705 1_555
P5 Pb2 2.781705 1_555
P6 Pb1 2.781705 1_554
P7 Pb0 2.781705 1_556
P10 P55 2.182813 1_554
P10 P27 2.207564 1_655
P10 P18 2.209753 1_555
P11 P3 2.182813 1_556
P11 P26 2.207564 1_555
P11 P19 2.209753 1_555
P12 P54 2.182813 1_555
P12 P21 2.207564 1_655
P12 P17 2.209753 1_555
P13 P48 2.182813 1_555
P13 P20 2.207564 1_555
P13 P16 2.209753 1_555
P14 P52 2.182813 1_556
P14 P23 2.207564 1_455
P14 P19 2.209753 1_555
P15 P53 2.182813 1_554
P15 P22 2.207564 1_555
P15 P18 2.209753 1_555
P16 P8 2.209753 1_555
P16 P31 2.236331 1_555
P17 P9 2.209753 1_555
P17 P30 2.236331 1_555
P18 P29 2.236331 1_554
P19 P28 2.236331 1_556
P20 P4 2.195140 1_555
P20 P38 2.292218 1_555
P21 P5 2.195140 1_555
P21 P39 2.292218 1_555
P22 P6 2.195140 1_555
P22 P36 2.292218 1_554
P23 P7 2.195140 1_555
P23 P37 2.292218 1_556
P24 P5 2.195140 1_555
P24 P9 2.207564 1_555
P24 P34 2.292218 1_555
P25 P4 2.195140 1_555
P25 P8 2.207564 1_655
P25 P35 2.292218 1_555
P26 P7 2.195140 1_555
P26 P32 2.292218 1_556
P27 P6 2.195140 1_555
P27 P33 2.292218 1_554
P28 P49 2.204774 1_555
P28 P44 2.204774 1_555
P29 P45 2.204774 1_555
P30 P46 2.204774 1_555
P30 P51 2.204774 1_555
P31 P50 2.204774 1_555
P31 P47 2.204774 1_555
P32 P40 2.199741 1_555
P32 P49 2.217411 1_555
P33 P41 2.199741 1_555
P34 P42 2.199741 1_555
P34 P51 2.217411 1_555
P35 P43 2.199741 1_555
P35 P50 2.217411 1_655
P36 P41 2.199741 1_555
P36 P45 2.217411 1_555
P37 P40 2.199741 1_555
P37 P44 2.217411 1_655
P38 P43 2.199741 1_555
P38 P47 2.217411 1_555
P39 P42 2.199741 1_555
P39 P46 2.217411 1_455
P40 Pb0 2.816133 1_555
P41 Pb1 2.816133 1_555
P42 Pb2 2.816133 1_555
P43 Pb3 2.816133 1_555
P44 P52 2.178980 1_555
P45 P53 2.178980 1_555
P46 P54 2.178980 1_555
P47 P48 2.178980 1_555
P48 Pb3 3.019638 1_555
P52 Pb0 3.019638 1_455
P53 Pb1 3.019638 1_555
P54 Pb2 3.019638 1_655
P55 Pb1 3.019638 1_655
