# generated using pymatgen
data_Na2Si5Sn4Ge4S7O48
_symmetry_space_group_name_H-M   'P 1'
_cell_length_a   17.29341752
_cell_length_b   8.61360669
_cell_length_c   22.54774139
_cell_angle_alpha   89.90554826
_cell_angle_beta   90.97653411
_cell_angle_gamma   120.05533259
_symmetry_Int_Tables_number   1
_chemical_formula_structural   Na2Si5Sn4Ge4S7O48
_chemical_formula_sum   'Na6 Si15 Sn12 Ge12 S21 O144'
_cell_volume   2906.56665451
_cell_formula_units_Z   3
loop_
 _symmetry_equiv_pos_site_id
 _symmetry_equiv_pos_as_xyz
  1  'x, y, z'
loop_
 _atom_site_type_symbol
 _atom_site_label
 _atom_site_symmetry_multiplicity
 _atom_site_fract_x
 _atom_site_fract_y
 _atom_site_fract_z
 _atom_site_occupancy
  Na  Na0  1  0.99365496  0.00022604  0.49921355  1
  Na  Na1  1  0.49279902  0.98647849  0.99584735  1
  Na  Na2  1  0.34496105  0.35274038  0.83219252  1
  Na  Na3  1  0.83322662  0.34288826  0.83096056  1
  Na  Na4  1  0.33645562  0.32805326  0.33242220  1
  Na  Na5  1  0.83841934  0.33658842  0.33588368  1
  Si  Si0  1  0.14057526  0.00726577  0.24651485  1
  Si  Si1  1  0.50788068  0.29283766  0.25613475  1
  Si  Si2  1  0.64075893  0.27096709  0.74584071  1
  Si  Si3  1  0.00792589  0.72249452  0.75636802  1
  Si  Si4  1  0.49715503  0.71102472  0.74939739  1
  Si  Si5  1  0.97856487  0.32711314  0.58581996  1
  Si  Si6  1  0.33516395  0.63936940  0.58515831  1
  Si  Si7  1  0.48033011  0.63013504  0.08547295  1
  Si  Si8  1  0.83398951  0.03307114  0.08530926  1
  Si  Si9  1  0.30546593  0.67011013  0.91265383  1
  Si  Si10  1  0.02364602  0.37017914  0.91274684  1
  Si  Si11  1  0.52722292  0.38134026  0.92175871  1
  Si  Si12  1  0.80342503  0.93836258  0.41269698  1
  Si  Si13  1  0.02670345  0.66430044  0.42251922  1
  Si  Si14  1  0.52226684  0.67610255  0.41390635  1
  Sn  Sn0  1  0.99802271  0.98147379  0.35581136  1
  Sn  Sn1  1  0.49617120  0.00026434  0.85272604  1
  Sn  Sn2  1  0.00204318  0.99831914  0.65019255  1
  Sn  Sn3  1  0.50097445  0.00499884  0.14947219  1
  Sn  Sn4  1  0.83972368  0.35065333  0.68969022  1
  Sn  Sn5  1  0.34044188  0.32771880  0.18903001  1
  Sn  Sn6  1  0.33635001  0.35539183  0.97602407  1
  Sn  Sn7  1  0.84330524  0.33045202  0.97977006  1
  Sn  Sn8  1  0.34374870  0.35818521  0.48251670  1
  Sn  Sn9  1  0.83474352  0.31467523  0.47780666  1
  Sn  Sn10  1  0.15999340  0.67703110  0.31121074  1
  Sn  Sn11  1  0.65388338  0.63692122  0.80595550  1
  Ge  Ge0  1  0.49885765  0.00731145  0.35990961  1
  Ge  Ge1  1  0.99810378  0.99330411  0.85794905  1
  Ge  Ge2  1  0.49773338  0.98481519  0.65085809  1
  Ge  Ge3  1  0.99969507  0.99637150  0.14400683  1
  Ge  Ge4  1  0.34055054  0.36086556  0.68358327  1
  Ge  Ge5  1  0.83189502  0.32031885  0.18083253  1
  Ge  Ge6  1  0.16794944  0.64687098  0.01068009  1
  Ge  Ge7  1  0.65873954  0.66929291  0.02748062  1
  Ge  Ge8  1  0.15822268  0.65545217  0.53221309  1
  Ge  Ge9  1  0.66584416  0.68895597  0.51469835  1
  Ge  Ge10  1  0.65465461  0.66075087  0.31672445  1
  Ge  Ge11  1  0.15811305  0.65066607  0.81408603  1
  S  S0  1  0.65137359  0.00449297  0.25175576  1
  S  S1  1  0.35375522  0.71223708  0.25428319  1
  S  S2  1  0.85112223  0.69506475  0.24462169  1
  S  S3  1  0.99600426  0.28607476  0.24721150  1
  S  S4  1  0.14914950  0.29574951  0.75248504  1
  S  S5  1  0.34886220  0.00319661  0.74581447  1
  S  S6  1  0.85634276  0.99673544  0.75411467  1
  S  S7  1  0.48474509  0.33773172  0.58403348  1
  S  S8  1  0.19368735  0.04857936  0.58320392  1
  S  S9  1  0.68439316  0.03561705  0.58235846  1
  S  S10  1  0.82411710  0.62276702  0.57920499  1
  S  S11  1  0.98245654  0.62790119  0.08512366  1
  S  S12  1  0.32365007  0.02491089  0.07953117  1
  S  S13  1  0.18433384  0.33452983  0.08308113  1
  S  S14  1  0.69308316  0.34014867  0.08275845  1
  S  S15  1  0.81340454  0.67184682  0.91779537  1
  S  S16  1  0.16277502  0.94620875  0.91788669  1
  S  S17  1  0.66814356  0.95153135  0.91776373  1
  S  S18  1  0.31529116  0.96011253  0.41861853  1
  S  S19  1  0.16798511  0.38352906  0.41675924  1
  S  S20  1  0.66343447  0.38015322  0.41786659  1
  O  O0  1  0.10145950  0.04739787  0.30626158  1
  O  O1  1  0.61169872  0.03914887  0.30360314  1
  O  O2  1  0.41196253  0.79679444  0.30693854  1
  O  O3  1  0.90816293  0.76093866  0.30019723  1
  O  O4  1  0.48841785  0.15452977  0.31143683  1
  O  O5  1  0.97627843  0.17956553  0.30205769  1
  O  O6  1  0.10746601  0.18167365  0.80453347  1
  O  O7  1  0.60300351  0.16244908  0.80718288  1
  O  O8  1  0.47003212  0.77708909  0.80871016  1
  O  O9  1  0.98831978  0.82071575  0.81175333  1
  O  O10  1  0.40587781  0.05598012  0.80122724  1
  O  O11  1  0.91661004  0.03461387  0.80654893  1
  O  O12  1  0.39100406  0.97208569  0.69431242  1
  O  O13  1  0.89254030  0.96692230  0.69849193  1
  O  O14  1  0.09368059  0.22451207  0.69688952  1
  O  O15  1  0.57604751  0.18509906  0.68700269  1
  O  O16  1  0.02306121  0.82977828  0.69356760  1
  O  O17  1  0.50978601  0.82331822  0.68946755  1
  O  O18  1  0.38949633  0.81668991  0.19896783  1
  O  O19  1  0.89366311  0.81093807  0.19297979  1
  O  O20  1  0.00650235  0.19946145  0.19441578  1
  O  O21  1  0.52290718  0.21489057  0.19386935  1
  O  O22  1  0.07573317  0.97175701  0.18847952  1
  O  O23  1  0.59743703  0.97104802  0.19603609  1
  O  O24  1  0.44196200  0.37540584  0.63529399  1
  O  O25  1  0.93682284  0.36651906  0.64344314  1
  O  O26  1  0.24828660  0.13456053  0.63735183  1
  O  O27  1  0.74404634  0.11520587  0.63456040  1
  O  O28  1  0.30953674  0.49416549  0.64006933  1
  O  O29  1  0.81077423  0.51992910  0.63449949  1
  O  O30  1  0.43908823  0.50976725  0.14467789  1
  O  O31  1  0.93999789  0.50924114  0.13810685  1
  O  O32  1  0.31005255  0.09919184  0.13550191  1
  O  O33  1  0.81097053  0.12322194  0.14305055  1
  O  O34  1  0.24209504  0.37178588  0.13641729  1
  O  O35  1  0.74803343  0.36623194  0.13885285  1
  O  O36  1  0.22040405  0.29284828  0.03006359  1
  O  O37  1  0.73296152  0.30621126  0.03033246  1
  O  O38  1  0.41535600  0.55577046  0.02735374  1
  O  O39  1  0.92326789  0.55642834  0.03121613  1
  O  O40  1  0.33887603  0.14156918  0.02803159  1
  O  O41  1  0.86093468  0.16637902  0.02935964  1
  O  O42  1  0.23142521  0.15635355  0.52838972  1
  O  O43  1  0.72184148  0.14691053  0.52792638  1
  O  O44  1  0.36033239  0.56414144  0.52674349  1
  O  O45  1  0.83940920  0.53823701  0.52685099  1
  O  O46  1  0.42593947  0.29173155  0.52875309  1
  O  O47  1  0.91733397  0.27470916  0.52578894  1
  O  O48  1  0.26793538  0.70734590  0.97502306  1
  O  O49  1  0.77596683  0.70228291  0.97095669  1
  O  O50  1  0.07966987  0.45433906  0.97577706  1
  O  O51  1  0.59345684  0.48242962  0.98007369  1
  O  O52  1  0.14574954  0.83329077  0.97257257  1
  O  O53  1  0.66230319  0.85359673  0.97321120  1
  O  O54  1  0.27595915  0.84964940  0.47006740  1
  O  O55  1  0.76518160  0.82338559  0.47390797  1
  O  O56  1  0.16156996  0.47178978  0.47012195  1
  O  O57  1  0.64698472  0.45751851  0.47149139  1
  O  O58  1  0.09589247  0.69971238  0.47830531  1
  O  O59  1  0.58075940  0.70647055  0.47492750  1
  O  O60  1  0.05786878  0.61508819  0.36065138  1
  O  O61  1  0.56210633  0.63086561  0.35601872  1
  O  O62  1  0.26334276  0.88764948  0.36150751  1
  O  O63  1  0.74728478  0.83982468  0.35219238  1
  O  O64  1  0.18485973  0.48887849  0.36106248  1
  O  O65  1  0.68060324  0.48820644  0.36378628  1
  O  O66  1  0.06562787  0.49810024  0.85614630  1
  O  O67  1  0.56059881  0.50145979  0.86259675  1
  O  O68  1  0.18055595  0.87263089  0.86472758  1
  O  O69  1  0.68530037  0.87857602  0.86417755  1
  O  O70  1  0.24681428  0.65304441  0.85372301  1
  O  O71  1  0.76069558  0.64206545  0.86245236  1
  O  O72  1  0.02415551  0.85167268  0.41945612  1
  O  O73  1  0.51517636  0.85582424  0.40197569  1
  O  O74  1  0.40588549  0.98038955  0.41147417  1
  O  O75  1  0.90550851  0.97362620  0.40839728  1
  O  O76  1  0.08320653  0.20921141  0.41205476  1
  O  O77  1  0.58319246  0.19846778  0.41118387  1
  O  O78  1  0.01568786  0.17493652  0.90285306  1
  O  O79  1  0.52352016  0.18926750  0.91716863  1
  O  O80  1  0.08290080  0.96664578  0.91170299  1
  O  O81  1  0.58534196  0.96009791  0.91497475  1
  O  O82  1  0.40495539  0.84165925  0.91224135  1
  O  O83  1  0.90511089  0.83182973  0.91128677  1
  O  O84  1  0.49330866  0.17974197  0.59296385  1
  O  O85  1  0.99275872  0.15300289  0.59116812  1
  O  O86  1  0.10237190  0.02474102  0.58679869  1
  O  O87  1  0.59560402  0.01342040  0.58859205  1
  O  O88  1  0.41927320  0.83875672  0.59735072  1
  O  O89  1  0.90650300  0.80311027  0.58524327  1
  O  O90  1  0.49273906  0.83180130  0.09159136  1
  O  O91  1  0.98936489  0.80550831  0.09295753  1
  O  O92  1  0.40618711  0.01038809  0.08595711  1
  O  O93  1  0.92156602  0.01439415  0.10017460  1
  O  O94  1  0.09362933  0.17740970  0.09130662  1
  O  O95  1  0.60318137  0.17901321  0.08791039  1
  O  O96  1  0.33655452  0.16381121  0.73496958  1
  O  O97  1  0.84793252  0.15851654  0.74867300  1
  O  O98  1  0.23634372  0.30354283  0.74470764  1
  O  O99  1  0.73794138  0.28159721  0.74040253  1
  O  O100  1  0.41032231  0.50340103  0.74092452  1
  O  O101  1  0.91743079  0.52668386  0.75291220  1
  O  O102  1  0.34519244  0.53359271  0.24872842  1
  O  O103  1  0.84387140  0.51060712  0.23600232  1
  O  O104  1  0.41744566  0.30736179  0.25306567  1
  O  O105  1  0.91750973  0.31797886  0.23980307  1
  O  O106  1  0.23830115  0.18644530  0.24062686  1
  O  O107  1  0.74163953  0.17369059  0.24437828  1
  O  O108  1  0.30194719  0.47662224  0.91498313  1
  O  O109  1  0.82199032  0.50598879  0.92355056  1
  O  O110  1  0.42438891  0.34484377  0.92469818  1
  O  O111  1  0.92545184  0.35433825  0.91646766  1
  O  O112  1  0.24286855  0.12569237  0.92617042  1
  O  O113  1  0.74590493  0.14058717  0.92256891  1
  O  O114  1  0.32362330  0.14105125  0.42371790  1
  O  O115  1  0.80312101  0.12742495  0.41475981  1
  O  O116  1  0.24431951  0.34809404  0.42104764  1
  O  O117  1  0.74329355  0.35914346  0.42428964  1
  O  O118  1  0.42382473  0.49625711  0.41721119  1
  O  O119  1  0.92384692  0.49866069  0.42451638  1
  O  O120  1  0.17660386  0.49954585  0.07469638  1
  O  O121  1  0.68768113  0.50341027  0.07858170  1
  O  O122  1  0.06988342  0.64420720  0.07667984  1
  O  O123  1  0.57697290  0.64806427  0.07717669  1
  O  O124  1  0.24281788  0.84566772  0.07224407  1
  O  O125  1  0.75019790  0.83687807  0.06976949  1
  O  O126  1  0.18751376  0.87244311  0.57844157  1
  O  O127  1  0.67897711  0.85551834  0.57478286  1
  O  O128  1  0.24833659  0.65939368  0.56939947  1
  O  O129  1  0.74334937  0.63952248  0.57177783  1
  O  O130  1  0.07519290  0.50678689  0.57839083  1
  O  O131  1  0.57230919  0.50222584  0.57409431  1
  O  O132  1  0.15205603  0.83141157  0.25071342  1
  O  O133  1  0.66194684  0.84550558  0.25780963  1
  O  O134  1  0.26407475  0.69098086  0.26056959  1
  O  O135  1  0.76422837  0.67595646  0.25320222  1
  O  O136  1  0.07942571  0.46144224  0.25247336  1
  O  O137  1  0.59849184  0.48642161  0.26457314  1
  O  O138  1  0.16022795  0.47687155  0.75814815  1
  O  O139  1  0.66046858  0.47529780  0.74904400  1
  O  O140  1  0.09822046  0.71098869  0.76436000  1
  O  O141  1  0.58988763  0.70974733  0.75216213  1
  O  O142  1  0.26232085  0.84283252  0.75508399  1
  O  O143  1  0.76950695  0.83742106  0.76183578  1
loop_
_geom_bond_atom_site_label_1
_geom_bond_atom_site_label_2
_geom_bond_distance
_geom_bond_site_symmetry_2
Na0 O72 2.421895 1_645
Na0 O85 2.461984 1_555
Na0 O75 2.472759 1_545
Na0 O89 2.538225 1_545
Na0 O76 2.607786 1_655
Na0 O86 2.637516 1_655
Na1 O82 2.330121 1_555
Na1 O79 2.360699 1_565
Na1 O81 2.530435 1_555
Na1 O90 2.534714 1_556
Na1 O92 2.613056 1_566
Na1 O95 2.721849 1_566
Na2 O100 2.407863 1_555
Na2 O108 2.454721 1_555
Na2 O110 2.497467 1_555
Na2 O98 2.584196 1_555
Na2 O96 2.690524 1_555
Na2 O112 2.843802 1_555
Na3 O101 2.343654 1_555
Na3 O111 2.451287 1_555
Na3 O99 2.486108 1_555
Na3 O97 2.541577 1_555
Na3 O109 2.582028 1_555
Na3 O113 2.653682 1_555
Na4 O104 2.351931 1_555
Na4 O118 2.398941 1_555
Na4 O102 2.539528 1_555
Na4 O106 2.543168 1_555
Na4 O114 2.554968 1_555
Na4 O116 2.635707 1_555
Na5 O115 2.388803 1_555
Na5 O119 2.442948 1_555
Na5 O107 2.562503 1_555
Na5 O105 2.628966 1_555
Na5 O117 2.674057 1_555
Na5 O103 2.679958 1_555
Ge0 O73 1.742862 1_545
Ge0 O4 1.747339 1_555
Ge0 O74 1.918324 1_545
Ge0 O77 1.928255 1_555
Ge0 O2 2.046779 1_545
Ge0 O1 2.245507 1_555
Ge1 O9 1.752349 1_555
Ge1 O78 1.755981 1_665
Ge1 O83 1.946021 1_555
Ge1 O11 1.975147 1_565
Ge1 O80 1.986946 1_655
Ge1 O6 2.158119 1_665
Ge2 O17 1.736848 1_555
Ge2 O15 1.761037 1_565
Ge2 O88 1.765986 1_555
Ge2 O12 2.058460 1_555
Ge2 O87 2.135078 1_565
Ge2 O84 2.155704 1_565
Ge3 O93 1.729297 1_565
Ge3 O22 1.735860 1_655
Ge3 O91 1.940276 1_555
Ge3 O94 2.001203 1_665
Ge3 O20 2.040008 1_665
Ge3 O19 2.064539 1_555
Ge4 O100 1.761547 1_555
Ge4 O28 1.778717 1_555
Ge4 O96 2.026569 1_555
Ge4 O24 2.030140 1_555
Ge4 O26 2.065622 1_555
Ge4 O98 2.140548 1_555
Ge5 O33 1.765733 1_555
Ge5 O35 1.918871 1_555
Ge5 O105 1.980700 1_555
Ge5 O103 1.983624 1_555
Ge5 O31 2.019912 1_555
Ge5 O107 2.044490 1_555
Ge6 O48 1.746802 1_554
Ge6 O50 1.768506 1_554
Ge6 O120 1.973087 1_555
Ge6 O52 2.016384 1_554
Ge6 O124 2.064273 1_555
Ge6 O122 2.266738 1_555
Ge7 O123 1.755801 1_555
Ge7 O51 1.775446 1_554
Ge7 O125 1.777832 1_555
Ge7 O53 1.979776 1_554
Ge7 O121 2.076283 1_555
Ge7 O49 2.307529 1_554
Ge8 O130 1.729281 1_555
Ge8 O128 1.742206 1_555
Ge8 O58 1.774851 1_555
Ge8 O126 1.968906 1_555
Ge8 O56 2.137264 1_555
Ge8 O54 2.363287 1_555
Ge9 O59 1.780134 1_555
Ge9 O55 1.787640 1_555
Ge9 O127 1.901286 1_555
Ge9 O129 2.035990 1_555
Ge9 O57 2.091381 1_555
Ge9 O131 2.111333 1_555
Ge10 O61 1.745760 1_555
Ge10 O63 1.752206 1_555
Ge10 O137 1.756954 1_555
Ge10 O133 2.027517 1_555
Ge10 O65 2.045208 1_555
Ge10 O135 2.345750 1_555
Ge11 O70 1.753286 1_555
Ge11 O140 1.759951 1_555
Ge11 O66 1.768235 1_555
Ge11 O138 1.973775 1_555
Ge11 O68 2.087749 1_555
Ge11 O142 2.200872 1_555
O0 Si0 1.630558 1_555
O0 Sn0 1.954217 1_445
O1 S0 1.469750 1_555
O2 S1 1.476840 1_555
O3 S2 1.504935 1_555
O3 Sn0 2.140175 1_555
O4 Si1 1.641696 1_555
O5 S3 1.478012 1_555
O5 Sn0 2.267630 1_545
O6 S4 1.475789 1_555
O7 Si2 1.621192 1_555
O7 Sn1 1.973329 1_555
O8 Si4 1.619763 1_555
O8 Sn1 2.001323 1_565
O9 Si3 1.641806 1_655
O10 S5 1.500274 1_555
O10 Sn1 2.168841 1_555
O11 S6 1.486310 1_545
O12 S5 1.475444 1_565
O13 S6 1.489823 1_555
O13 Sn2 2.097978 1_655
O14 S4 1.496673 1_555
O14 Sn2 2.067157 1_545
O15 Si2 1.637979 1_555
O16 Si3 1.641215 1_555
O16 Sn2 1.925599 1_555
O17 Si4 1.613497 1_555
O18 S1 1.487502 1_555
O18 Sn3 2.127943 1_565
O19 S2 1.477537 1_555
O20 S3 1.467184 1_455
O21 Si1 1.636972 1_555
O21 Sn3 1.928915 1_555
O22 Si0 1.634337 1_565
O23 S0 1.491148 1_565
O23 Sn3 2.097274 1_565
O24 S7 1.503157 1_555
O25 Si5 1.613461 1_555
O25 Sn4 1.937789 1_555
O26 S8 1.481178 1_555
O27 S9 1.473932 1_555
O27 Sn4 2.229987 1_555
O28 Si6 1.658929 1_555
O29 S10 1.481131 1_555
O29 Sn4 2.151553 1_555
O30 Si7 1.628767 1_555
O30 Sn5 1.934593 1_555
O31 S11 1.511666 1_555
O32 S12 1.490246 1_555
O32 Sn5 2.134864 1_555
O33 Si8 1.669468 1_555
O34 S13 1.478604 1_555
O34 Sn5 2.240610 1_555
O35 S14 1.516358 1_555
O36 S13 1.482634 1_555
O36 Sn6 2.189619 1_554
O37 S14 1.479607 1_555
O37 Sn7 2.158454 1_554
O38 Si7 1.619188 1_555
O38 Sn6 1.943144 1_554
O39 S11 1.494320 1_555
O39 Sn7 2.074410 1_554
O40 S12 1.472747 1_555
O40 Sn6 2.200208 1_554
O41 Si8 1.614441 1_555
O41 Sn7 1.937842 1_554
O42 S8 1.494018 1_555
O42 Sn8 2.131973 1_555
O43 S9 1.498684 1_555
O43 Sn9 2.102637 1_555
O44 Si6 1.627574 1_555
O44 Sn8 1.926218 1_555
O45 S10 1.483213 1_555
O45 Sn9 2.187682 1_555
O46 S7 1.516450 1_555
O46 Sn8 2.048719 1_555
O47 Si5 1.622198 1_555
O47 Sn9 1.941022 1_555
O48 Si9 1.656159 1_555
O49 S15 1.456777 1_555
O50 Si10 1.654358 1_555
O51 Si11 1.659054 1_555
O52 S16 1.508200 1_555
O53 S17 1.483352 1_555
O54 S18 1.445232 1_555
O55 Si12 1.641223 1_555
O56 S19 1.459464 1_555
O57 S20 1.480284 1_555
O58 Si13 1.640507 1_555
O59 Si14 1.635056 1_555
O60 Si13 1.634793 1_555
O60 Sn10 1.941063 1_555
O61 Si14 1.622150 1_555
O62 S18 1.502142 1_555
O62 Sn10 2.112240 1_555
O63 Si12 1.630149 1_555
O64 S19 1.493054 1_555
O64 Sn10 2.179584 1_555
O65 S20 1.474149 1_555
O66 Si10 1.611074 1_555
O67 Si11 1.614510 1_555
O67 Sn11 1.942888 1_555
O68 S16 1.463959 1_555
O69 S17 1.464334 1_555
O69 Sn11 2.281050 1_555
O70 Si9 1.619055 1_555
O71 S15 1.477123 1_555
O71 Sn11 2.207867 1_555
O72 Si13 1.637776 1_555
O72 Sn0 1.998091 1_455
O73 Si14 1.634474 1_555
O74 S18 1.498458 1_555
O75 Si12 1.639150 1_555
O75 Sn0 1.981450 1_555
O76 S19 1.485065 1_555
O76 Sn0 2.162479 1_445
O77 S20 1.488557 1_555
O78 Si10 1.632581 1_555
O79 Si11 1.626715 1_555
O79 Sn1 2.049022 1_555
O80 S16 1.481666 1_555
O81 S17 1.470562 1_555
O81 Sn1 2.219620 1_565
O82 Si9 1.611720 1_555
O82 Sn1 2.015679 1_565
O83 S15 1.501268 1_555
O84 S7 1.454088 1_555
O85 Si5 1.640450 1_555
O85 Sn2 1.942522 1_645
O86 S8 1.490630 1_555
O86 Sn2 2.189336 1_545
O87 S9 1.458484 1_555
O88 Si6 1.620658 1_555
O89 S10 1.496218 1_555
O89 Sn2 2.201049 1_655
O90 Si7 1.645874 1_555
O90 Sn3 1.932981 1_565
O91 S11 1.484242 1_555
O92 S12 1.498567 1_555
O92 Sn3 2.176253 1_555
O93 Si8 1.630491 1_555
O94 S13 1.486318 1_555
O95 S14 1.483640 1_555
O95 Sn3 2.172684 1_555
O96 S5 1.520247 1_555
O97 S6 1.476464 1_545
O97 Sn4 2.179334 1_555
O98 S4 1.488812 1_555
O99 Si2 1.643392 1_555
O99 Sn4 1.943473 1_555
O100 Si4 1.670655 1_555
O101 Si3 1.628580 1_655
O101 Sn4 2.009434 1_555
O102 S1 1.475532 1_555
O102 Sn5 2.195783 1_555
O103 S2 1.542255 1_555
O104 Si1 1.630517 1_555
O104 Sn5 2.014029 1_555
O105 S3 1.520475 1_555
O106 Si0 1.627905 1_555
O106 Sn5 1.966378 1_555
O107 S0 1.522388 1_555
O108 Si9 1.637787 1_555
O108 Sn6 1.981999 1_555
O109 S15 1.513635 1_555
O109 Sn7 2.136567 1_555
O110 Si11 1.646121 1_555
O110 Sn6 1.965836 1_555
O111 Si10 1.637673 1_655
O111 Sn7 1.968009 1_555
O112 S16 1.480096 1_545
O112 Sn6 2.129118 1_555
O113 S17 1.507996 1_545
O113 Sn7 2.085389 1_555
O114 S18 1.496026 1_545
O114 Sn8 2.171933 1_555
O115 Si12 1.631890 1_545
O115 Sn9 2.004720 1_555
O116 S19 1.498090 1_555
O116 Sn8 2.157442 1_555
O117 S20 1.484731 1_555
O117 Sn9 2.155016 1_555
O118 Si14 1.632728 1_555
O118 Sn8 1.978472 1_555
O119 Si13 1.631571 1_655
O119 Sn9 1.985056 1_555
O120 S13 1.504168 1_555
O121 S14 1.458099 1_555
O122 S11 1.462485 1_455
O123 Si7 1.613709 1_555
O124 S12 1.481869 1_565
O125 Si8 1.615590 1_565
O126 S8 1.470587 1_565
O127 S9 1.516333 1_565
O128 Si6 1.628394 1_555
O129 S10 1.481099 1_555
O130 Si5 1.622897 1_455
O131 S7 1.487350 1_555
O132 Si0 1.625713 1_565
O132 Sn10 1.954052 1_555
O133 S0 1.475407 1_565
O134 S1 1.477101 1_555
O134 Sn10 2.100221 1_555
O135 S2 1.443837 1_555
O136 S3 1.479519 1_455
O136 Sn10 2.120677 1_555
O137 Si1 1.626554 1_555
O138 S4 1.478984 1_555
O139 Si2 1.617948 1_555
O139 Sn11 1.940985 1_555
O140 Si3 1.620477 1_555
O141 Si4 1.609350 1_555
O141 Sn11 1.933028 1_555
O142 S5 1.459621 1_565
O143 S6 1.453430 1_555
O143 Sn11 2.138570 1_555
