# generated using pymatgen
data_Na10Zn3Ge5(PO4)12
_symmetry_space_group_name_H-M   'P 1'
_cell_length_a   17.35066821
_cell_length_b   8.68550582
_cell_length_c   21.80261154
_cell_angle_alpha   89.95802144
_cell_angle_beta   89.94984088
_cell_angle_gamma   120.06277261
_symmetry_Int_Tables_number   1
_chemical_formula_structural   Na10Zn3Ge5(PO4)12
_chemical_formula_sum   'Na30 Zn9 Ge15 P36 O144'
_cell_volume   2843.64153803
_cell_formula_units_Z   3
loop_
 _symmetry_equiv_pos_site_id
 _symmetry_equiv_pos_as_xyz
  1  'x, y, z'
loop_
 _atom_site_type_symbol
 _atom_site_label
 _atom_site_symmetry_multiplicity
 _atom_site_fract_x
 _atom_site_fract_y
 _atom_site_fract_z
 _atom_site_occupancy
  Na  Na0  1  0.31885542  0.00866363  0.24989382  1
  Na  Na1  1  0.68631035  0.36148312  0.24962453  1
  Na  Na2  1  0.31642451  0.62448493  0.74973059  1
  Na  Na3  1  0.81641381  0.62446568  0.74966413  1
  Na  Na4  1  0.15281431  0.34239138  0.58082853  1
  Na  Na5  1  0.65284668  0.34286697  0.58057123  1
  Na  Na6  1  0.01810172  0.69412152  0.58112952  1
  Na  Na7  1  0.51818201  0.69351847  0.58142411  1
  Na  Na8  1  0.32822929  0.96285416  0.58106937  1
  Na  Na9  1  0.82889530  0.96439744  0.58105481  1
  Na  Na10  1  0.15266995  0.96311602  0.08082895  1
  Na  Na11  1  0.65330758  0.96396597  0.08128651  1
  Na  Na12  1  0.32861724  0.69361848  0.08136915  1
  Na  Na13  1  0.82893558  0.69456663  0.08091002  1
  Na  Na14  1  0.01791963  0.34265666  0.08124193  1
  Na  Na15  1  0.51821845  0.34264098  0.08136084  1
  Na  Na16  1  0.66303769  0.02785461  0.41337951  1
  Na  Na17  1  0.35053539  0.67414455  0.41295823  1
  Na  Na18  1  0.00015669  0.99896454  0.49467037  1
  Na  Na19  1  0.49958156  0.01073550  0.49333284  1
  Na  Na20  1  0.00011884  0.00010882  0.99549071  1
  Na  Na21  1  0.50016943  0.99995662  0.99563780  1
  Na  Na22  1  0.33377954  0.32424085  0.83188404  1
  Na  Na23  1  0.83373274  0.32427727  0.83187613  1
  Na  Na24  1  0.33402398  0.33581952  0.32855653  1
  Na  Na25  1  0.84173241  0.33949600  0.32888424  1
  Na  Na26  1  0.16246083  0.65629905  0.16694375  1
  Na  Na27  1  0.66620985  0.67541985  0.16640962  1
  Na  Na28  1  0.16256578  0.66778779  0.66763695  1
  Na  Na29  1  0.66257661  0.66736710  0.66773498  1
  Zn  Zn0  1  0.49964726  0.00536966  0.35082134  1
  Zn  Zn1  1  0.33358975  0.32678177  0.68920238  1
  Zn  Zn2  1  0.83388672  0.32725078  0.68909640  1
  Zn  Zn3  1  0.33240777  0.33888292  0.18619002  1
  Zn  Zn4  1  0.83797744  0.33227621  0.18807299  1
  Zn  Zn5  1  0.16612890  0.66661855  0.01068361  1
  Zn  Zn6  1  0.66627708  0.66681982  0.01060829  1
  Zn  Zn7  1  0.16217888  0.66163756  0.51116562  1
  Zn  Zn8  1  0.66986483  0.66977833  0.51263144  1
  Ge  Ge0  1  0.00019949  0.99916964  0.35194003  1
  Ge  Ge1  1  0.00046536  0.00137002  0.85391162  1
  Ge  Ge2  1  0.50050038  0.00149107  0.85388111  1
  Ge  Ge3  1  0.00109934  0.00157339  0.65129615  1
  Ge  Ge4  1  0.50105184  0.00165953  0.65116943  1
  Ge  Ge5  1  0.00015100  0.00172470  0.15096200  1
  Ge  Ge6  1  0.50036562  0.99789875  0.15177042  1
  Ge  Ge7  1  0.33320483  0.33407084  0.97821096  1
  Ge  Ge8  1  0.83370254  0.33344535  0.97834117  1
  Ge  Ge9  1  0.33191622  0.32309118  0.47921538  1
  Ge  Ge10  1  0.83739816  0.34193179  0.47817151  1
  Ge  Ge11  1  0.16327504  0.66055350  0.31453508  1
  Ge  Ge12  1  0.66637588  0.66993238  0.31514866  1
  Ge  Ge13  1  0.16418438  0.66762096  0.81744888  1
  Ge  Ge14  1  0.66415693  0.66751076  0.81748181  1
  P  P0  1  0.14089385  0.99285279  0.25237107  1
  P  P1  1  0.64592465  0.99300021  0.25205654  1
  P  P2  1  0.35145374  0.70471875  0.25285971  1
  P  P3  1  0.85581113  0.71754309  0.25246456  1
  P  P4  1  0.00268898  0.28862398  0.25280615  1
  P  P5  1  0.50186377  0.29778574  0.25094414  1
  P  P6  1  0.14126118  0.28954750  0.75275836  1
  P  P7  1  0.64132568  0.28957825  0.75278067  1
  P  P8  1  0.00489993  0.71793970  0.75260917  1
  P  P9  1  0.50486099  0.71794438  0.75259571  1
  P  P10  1  0.35538907  0.99780265  0.75312204  1
  P  P11  1  0.85539633  0.99788708  0.75310107  1
  P  P12  1  0.47731190  0.33040482  0.58513892  1
  P  P13  1  0.97714222  0.33073209  0.58449087  1
  P  P14  1  0.18740588  0.04496425  0.58493191  1
  P  P15  1  0.68772688  0.04578034  0.58420168  1
  P  P16  1  0.33482142  0.62507362  0.58501457  1
  P  P17  1  0.83541807  0.62584476  0.58585926  1
  P  P18  1  0.47756650  0.62432970  0.08367703  1
  P  P19  1  0.97724324  0.62459938  0.08413367  1
  P  P20  1  0.33476335  0.04451309  0.08480137  1
  P  P21  1  0.83471349  0.04512352  0.08380327  1
  P  P22  1  0.18734510  0.32988571  0.08352537  1
  P  P23  1  0.68785669  0.33026978  0.08499418  1
  P  P24  1  0.31512146  0.66714965  0.91588764  1
  P  P25  1  0.81514001  0.66682417  0.91589852  1
  P  P26  1  0.01840922  0.36993553  0.91631297  1
  P  P27  1  0.51838466  0.36992029  0.91642174  1
  P  P28  1  0.16656975  0.96304075  0.91623563  1
  P  P29  1  0.66653252  0.96314229  0.91620399  1
  P  P30  1  0.31086758  0.96162066  0.41755838  1
  P  P31  1  0.81685619  0.96293873  0.41633957  1
  P  P32  1  0.16443027  0.36734648  0.41641306  1
  P  P33  1  0.66944154  0.37779833  0.41788590  1
  P  P34  1  0.01939301  0.66900922  0.41581280  1
  P  P35  1  0.51889414  0.65795026  0.41819486  1
  O  O0  1  0.09578029  0.02277568  0.30777217  1
  O  O1  1  0.60589283  0.02614060  0.30878518  1
  O  O2  1  0.40484594  0.78800012  0.31024333  1
  O  O3  1  0.91577838  0.80852512  0.30779692  1
  O  O4  1  0.48460169  0.17930510  0.30556068  1
  O  O5  1  0.98907179  0.16774463  0.30816096  1
  O  O6  1  0.09513630  0.16719274  0.80730097  1
  O  O7  1  0.59514211  0.16725420  0.80731599  1
  O  O8  1  0.48683968  0.81009671  0.80643698  1
  O  O9  1  0.98687512  0.81013522  0.80646110  1
  O  O10  1  0.41591379  0.02218824  0.80774466  1
  O  O11  1  0.91591264  0.02234923  0.80772983  1
  O  O12  1  0.39425878  0.95371699  0.69252163  1
  O  O13  1  0.89431102  0.95390421  0.69249690  1
  O  O14  1  0.08495959  0.21136800  0.69146918  1
  O  O15  1  0.58501132  0.21141951  0.69150556  1
  O  O16  1  0.02152877  0.83096088  0.69105121  1
  O  O17  1  0.52151465  0.83105813  0.69097807  1
  O  O18  1  0.39325948  0.83243775  0.19297323  1
  O  O19  1  0.89517436  0.83108462  0.19172708  1
  O  O20  1  0.02083004  0.21100960  0.19159914  1
  O  O21  1  0.52345518  0.21597982  0.19061896  1
  O  O22  1  0.08431595  0.95947632  0.19172538  1
  O  O23  1  0.58618115  0.95836606  0.19148370  1
  O  O24  1  0.43859261  0.36942040  0.64046815  1
  O  O25  1  0.93909030  0.37025041  0.64013245  1
  O  O26  1  0.24502461  0.12318214  0.64044715  1
  O  O27  1  0.74571302  0.12550315  0.63943783  1
  O  O28  1  0.31799974  0.51431642  0.64238214  1
  O  O29  1  0.81767402  0.51577666  0.64347981  1
  O  O30  1  0.43943067  0.50863677  0.13942483  1
  O  O31  1  0.93888478  0.51065329  0.14032812  1
  O  O32  1  0.31669805  0.11725253  0.14293834  1
  O  O33  1  0.81529225  0.12127700  0.13960388  1
  O  O34  1  0.24395324  0.36637040  0.13972641  1
  O  O35  1  0.74255902  0.36636290  0.14296497  1
  O  O36  1  0.22780759  0.28627915  0.02543144  1
  O  O37  1  0.72980431  0.28820834  0.02742133  1
  O  O38  1  0.41521421  0.54464021  0.02539193  1
  O  O39  1  0.91523403  0.54418727  0.02582641  1
  O  O40  1  0.35552948  0.17071215  0.02742122  1
  O  O41  1  0.85672772  0.16910327  0.02536830  1
  O  O42  1  0.22725103  0.16902537  0.52630842  1
  O  O43  1  0.72671911  0.16445099  0.52407125  1
  O  O44  1  0.35452272  0.54328736  0.52581958  1
  O  O45  1  0.85633473  0.54281158  0.52811087  1
  O  O46  1  0.41515573  0.28466753  0.52656579  1
  O  O47  1  0.91534766  0.28705885  0.52584046  1
  O  O48  1  0.28015760  0.70371660  0.97454315  1
  O  O49  1  0.78012438  0.70340244  0.97450042  1
  O  O50  1  0.07052975  0.43666050  0.97559258  1
  O  O51  1  0.57061266  0.43669246  0.97565149  1
  O  O52  1  0.14798860  0.85907502  0.97562748  1
  O  O53  1  0.64792252  0.85919167  0.97555269  1
  O  O54  1  0.27262101  0.85047762  0.47571398  1
  O  O55  1  0.78371279  0.86268610  0.47643473  1
  O  O56  1  0.14724665  0.43422533  0.47633159  1
  O  O57  1  0.65588473  0.45266671  0.47695230  1
  O  O58  1  0.06902196  0.70523033  0.47619529  1
  O  O59  1  0.57364654  0.69588929  0.47654871  1
  O  O60  1  0.06335919  0.63025936  0.36009391  1
  O  O61  1  0.56370909  0.62648997  0.36083239  1
  O  O62  1  0.25133612  0.87413763  0.35864845  1
  O  O63  1  0.75024459  0.87563180  0.36141875  1
  O  O64  1  0.18680017  0.49991571  0.36138486  1
  O  O65  1  0.68568313  0.49606913  0.35890575  1
  O  O66  1  0.06297032  0.49563421  0.85967938  1
  O  O67  1  0.56282425  0.49564286  0.85975836  1
  O  O68  1  0.18471535  0.87373514  0.85968866  1
  O  O69  1  0.68477717  0.87390210  0.85963803  1
  O  O70  1  0.25426256  0.63252654  0.85763609  1
  O  O71  1  0.75431233  0.63233420  0.85762700  1
  O  O72  1  0.00749932  0.83392986  0.40605331  1
  O  O73  1  0.50568636  0.81926399  0.41172106  1
  O  O74  1  0.40318805  0.98249329  0.41177606  1
  O  O75  1  0.90999442  0.98463764  0.40622802  1
  O  O76  1  0.08274198  0.18006461  0.40653791  1
  O  O77  1  0.59119234  0.18860483  0.41185975  1
  O  O78  1  0.00773661  0.18175814  0.90650745  1
  O  O79  1  0.50768077  0.18177954  0.90654856  1
  O  O80  1  0.08297544  0.98386003  0.90629095  1
  O  O81  1  0.58291632  0.98392206  0.90624243  1
  O  O82  1  0.40949113  0.83404523  0.90650776  1
  O  O83  1  0.90950055  0.83386401  0.90651296  1
  O  O84  1  0.48419489  0.15345949  0.59035112  1
  O  O85  1  0.98417705  0.15435368  0.58983971  1
  O  O86  1  0.09214515  0.03184578  0.58950983  1
  O  O87  1  0.59233307  0.03172617  0.58928539  1
  O  O88  1  0.42335977  0.81582642  0.58934059  1
  O  O89  1  0.92377829  0.81656695  0.58985894  1
  O  O90  1  0.48435312  0.81478641  0.08957734  1
  O  O91  1  0.98464986  0.81546785  0.08949581  1
  O  O92  1  0.42314443  0.03079447  0.08946638  1
  O  O93  1  0.92330663  0.03148684  0.08936813  1
  O  O94  1  0.09195708  0.15318205  0.08903760  1
  O  O95  1  0.59245359  0.15309555  0.08928468  1
  O  O96  1  0.34586683  0.15970583  0.74879091  1
  O  O97  1  0.84583381  0.15973493  0.74859776  1
  O  O98  1  0.23443664  0.31574195  0.74862002  1
  O  O99  1  0.73443933  0.31550961  0.74869214  1
  O  O100  1  0.42100839  0.53714790  0.74821471  1
  O  O101  1  0.92107722  0.53703261  0.74827479  1
  O  O102  1  0.33889969  0.52187929  0.24535250  1
  O  O103  1  0.84238231  0.53119397  0.24880176  1
  O  O104  1  0.42030668  0.31630210  0.24334702  1
  O  O105  1  0.92160651  0.30869716  0.24923408  1
  O  O106  1  0.23433184  0.15158933  0.24884011  1
  O  O107  1  0.73687784  0.15870470  0.24442333  1
  O  O108  1  0.32300260  0.49507490  0.92049208  1
  O  O109  1  0.82303970  0.49478794  0.92066798  1
  O  O110  1  0.42419017  0.35336115  0.92112897  1
  O  O111  1  0.92435943  0.35391250  0.92080556  1
  O  O112  1  0.25274177  0.15113282  0.92081664  1
  O  O113  1  0.75251827  0.15149047  0.92089677  1
  O  O114  1  0.31646650  0.14772063  0.42195803  1
  O  O115  1  0.82152255  0.14997358  0.42088412  1
  O  O116  1  0.25391757  0.36037321  0.42128210  1
  O  O117  1  0.75706376  0.36023979  0.42142358  1
  O  O118  1  0.42305747  0.48656077  0.42267454  1
  O  O119  1  0.92542208  0.49509384  0.42076642  1
  O  O120  1  0.17263967  0.48898834  0.07622284  1
  O  O121  1  0.67337787  0.48955250  0.07678951  1
  O  O122  1  0.07161436  0.65392630  0.07665154  1
  O  O123  1  0.57218566  0.65533462  0.07599545  1
  O  O124  1  0.25492455  0.85621591  0.07686285  1
  O  O125  1  0.75560857  0.85588135  0.07622599  1
  O  O126  1  0.17216286  0.85626257  0.57758244  1
  O  O127  1  0.67258375  0.85649693  0.57742826  1
  O  O128  1  0.25489502  0.65354443  0.57763688  1
  O  O129  1  0.75584361  0.65515583  0.57856635  1
  O  O130  1  0.07184680  0.48927509  0.57682539  1
  O  O131  1  0.57183077  0.48823215  0.57760932  1
  O  O132  1  0.14859178  0.81945893  0.25762534  1
  O  O133  1  0.65184658  0.81873912  0.25652943  1
  O  O134  1  0.25845062  0.70186392  0.25570346  1
  O  O135  1  0.76121438  0.70071703  0.25825238  1
  O  O136  1  0.09036622  0.47418567  0.25871416  1
  O  O137  1  0.59194160  0.48174415  0.25557786  1
  O  O138  1  0.15003341  0.47924623  0.75807505  1
  O  O139  1  0.65010089  0.47929818  0.75814760  1
  O  O140  1  0.09103898  0.70537139  0.75856101  1
  O  O141  1  0.59098088  0.70535601  0.75853786  1
  O  O142  1  0.26279580  0.81917900  0.75808204  1
  O  O143  1  0.76281197  0.81924700  0.75806695  1
loop_
_geom_bond_atom_site_label_1
_geom_bond_atom_site_label_2
_geom_bond_distance
_geom_bond_site_symmetry_2
Na0 O134 2.327306 1_545
Na0 O106 2.348682 1_555
Na0 O104 2.354806 1_555
Na0 O32 2.522109 1_555
Na0 O132 2.567291 1_545
Na0 O62 2.641891 1_545
Na0 O18 2.743931 1_545
Na0 O4 2.770983 1_555
Na1 O107 2.330862 1_555
Na1 O137 2.345672 1_555
Na1 O103 2.346656 1_555
Na1 O35 2.513258 1_555
Na1 O135 2.563303 1_555
Na1 O65 2.657103 1_555
Na1 O21 2.769010 1_555
Na1 O1 2.830830 1_555
Na2 O100 2.290923 1_555
Na2 O142 2.309790 1_555
Na2 O98 2.322365 1_555
Na2 O138 2.511798 1_555
Na2 O28 2.534472 1_555
Na2 O70 2.602740 1_555
Na2 O12 2.771157 1_555
Na2 O8 2.846716 1_555
Na3 O101 2.292815 1_555
Na3 O143 2.310228 1_555
Na3 O99 2.323893 1_555
Na3 O29 2.505017 1_555
Na3 O139 2.510843 1_555
Na3 O71 2.603069 1_555
Na3 O13 2.772129 1_555
Na3 O9 2.848204 1_555
Na4 O130 2.324746 1_555
Na4 O86 2.360782 1_555
Na4 O128 2.376828 1_555
Na4 O56 2.431283 1_555
Na4 O85 2.545192 1_455
Na4 O14 2.673721 1_555
Na4 O42 2.701244 1_555
Na4 O28 2.822591 1_555
Na5 O131 2.313518 1_555
Na5 O87 2.365936 1_555
Na5 O129 2.386595 1_555
Na5 O57 2.441792 1_555
Na5 O84 2.547533 1_555
Na5 O15 2.680173 1_555
Na5 O43 2.748032 1_555
Na5 O29 2.832354 1_555
Na6 O126 2.315689 1_555
Na6 O89 2.364145 1_455
Na6 O130 2.388783 1_555
Na6 O58 2.436150 1_555
Na6 O86 2.552205 1_565
Na6 O16 2.663330 1_555
Na6 O45 2.693236 1_455
Na6 O25 2.752289 1_455
Na7 O127 2.321264 1_555
Na7 O88 2.369787 1_555
Na7 O131 2.390704 1_555
Na7 O59 2.476107 1_555
Na7 O87 2.555039 1_565
Na7 O17 2.659109 1_555
Na7 O44 2.744404 1_555
Na7 O24 2.754100 1_555
Na8 O128 2.327575 1_555
Na8 O84 2.370157 1_565
Na8 O126 2.384145 1_555
Na8 O54 2.494704 1_555
Na8 O88 2.549445 1_555
Na8 O46 2.695893 1_565
Na8 O12 2.705396 1_555
Na8 O26 2.777187 1_565
Na9 O129 2.326615 1_555
Na9 O85 2.359127 1_565
Na9 O127 2.386217 1_555
Na9 O55 2.431077 1_555
Na9 O89 2.552196 1_555
Na9 O13 2.703381 1_555
Na9 O47 2.707999 1_565
Na9 O27 2.772015 1_565
Na10 O122 2.326923 1_555
Na10 O94 2.368395 1_565
Na10 O124 2.380664 1_555
Na10 O52 2.452328 1_554
Na10 O91 2.536151 1_455
Na10 O22 2.685290 1_555
Na10 O36 2.713453 1_565
Na10 O32 2.813852 1_565
Na11 O123 2.323940 1_555
Na11 O95 2.362518 1_565
Na11 O125 2.390257 1_555
Na11 O53 2.463617 1_554
Na11 O90 2.549169 1_555
Na11 O23 2.658846 1_555
Na11 O37 2.705432 1_565
Na11 O33 2.746640 1_565
Na12 O124 2.334116 1_555
Na12 O90 2.364962 1_555
Na12 O120 2.382710 1_555
Na12 O48 2.493252 1_554
Na12 O92 2.546864 1_565
Na12 O18 2.699381 1_555
Na12 O38 2.714468 1_555
Na12 O34 2.768341 1_555
Na13 O125 2.319088 1_555
Na13 O91 2.365562 1_555
Na13 O121 2.376776 1_555
Na13 O49 2.484728 1_554
Na13 O93 2.545411 1_565
Na13 O19 2.684789 1_555
Na13 O39 2.710876 1_555
Na13 O35 2.813021 1_555
Na14 O120 2.326963 1_555
Na14 O93 2.363118 1_455
Na14 O122 2.379708 1_555
Na14 O50 2.460187 1_554
Na14 O94 2.550565 1_555
Na14 O20 2.674545 1_555
Na14 O41 2.713493 1_455
Na14 O31 2.770106 1_455
Na15 O121 2.333088 1_555
Na15 O92 2.368738 1_555
Na15 O123 2.391240 1_555
Na15 O51 2.460711 1_554
Na15 O95 2.554141 1_555
Na15 O21 2.643796 1_555
Na15 O40 2.714060 1_555
Na15 O30 2.743051 1_555
Na16 O77 2.290883 1_555
Na16 O73 2.404573 1_545
Na16 O115 2.406690 1_555
Na16 O1 2.484527 1_555
Na16 O117 2.511808 1_555
Na16 O43 2.673621 1_555
Na16 O63 2.706367 1_545
Na16 O59 2.850570 1_545
Na17 O73 2.331624 1_555
Na17 O74 2.357197 1_555
Na17 O116 2.385738 1_555
Na17 O2 2.437308 1_555
Na17 O118 2.517272 1_555
Na17 O64 2.706658 1_555
Na17 O44 2.725150 1_555
Na17 O54 2.849464 1_555
Na18 O76 2.439714 1_565
Na18 O72 2.447535 1_555
Na18 O75 2.447774 1_455
Na18 O86 2.540574 1_565
Na18 O89 2.541655 1_455
Na18 O85 2.565494 1_465
Na19 O77 2.366286 1_555
Na19 O74 2.369394 1_545
Na19 O73 2.474562 1_545
Na19 O84 2.533115 1_555
Na19 O87 2.590775 1_555
Na19 O88 2.596787 1_545
Na20 O83 2.460746 1_445
Na20 O78 2.461028 1_555
Na20 O80 2.463258 1_545
Na20 O94 2.520648 1_556
Na20 O93 2.529764 1_456
Na20 O91 2.531314 1_446
Na21 O82 2.462957 1_555
Na21 O79 2.464269 1_565
Na21 O81 2.464813 1_555
Na21 O95 2.525394 1_566
Na21 O92 2.529302 1_566
Na21 O90 2.531551 1_556
Na22 O96 2.381532 1_555
Na22 O112 2.422824 1_555
Na22 O110 2.432967 1_555
Na22 O98 2.479970 1_555
Na22 O100 2.494815 1_555
Na22 O108 2.500059 1_555
Na23 O97 2.384741 1_555
Na23 O113 2.424269 1_555
Na23 O111 2.428718 1_555
Na23 O99 2.477366 1_555
Na23 O101 2.493630 1_555
Na23 O109 2.500849 1_555
Na24 O102 2.401663 1_555
Na24 O106 2.410271 1_555
Na24 O104 2.443598 1_555
Na24 O118 2.508872 1_555
Na24 O116 2.521328 1_555
Na24 O114 2.530653 1_555
Na25 O105 2.318577 1_555
Na25 O103 2.407855 1_555
Na25 O119 2.447643 1_555
Na25 O115 2.504317 1_555
Na25 O107 2.512864 1_555
Na25 O117 2.553786 1_555
Na26 O134 2.453943 1_555
Na26 O136 2.465486 1_555
Na26 O120 2.513155 1_555
Na26 O132 2.513959 1_555
Na26 O122 2.516612 1_555
Na26 O124 2.577716 1_555
Na27 O133 2.405368 1_555
Na27 O137 2.467546 1_555
Na27 O125 2.506617 1_555
Na27 O123 2.509726 1_555
Na27 O135 2.533512 1_555
Na27 O121 2.577767 1_555
Na28 O140 2.445219 1_555
Na28 O138 2.500930 1_555
Na28 O126 2.506819 1_555
Na28 O142 2.522026 1_555
Na28 O130 2.523192 1_555
Na28 O128 2.573987 1_555
Na29 O141 2.445136 1_555
Na29 O139 2.498224 1_555
Na29 O127 2.512793 1_555
Na29 O131 2.513255 1_555
Na29 O143 2.520889 1_555
Na29 O129 2.564425 1_555
Ge0 O5 1.836738 1_465
Ge0 O0 1.837353 1_565
Ge0 O3 1.840765 1_455
Ge0 O72 1.909888 1_555
Ge0 O75 1.914445 1_455
Ge0 O76 1.920402 1_565
Ge1 O6 1.851996 1_555
Ge1 O11 1.862628 1_455
Ge1 O9 1.869560 1_445
Ge1 O78 1.894858 1_555
Ge1 O80 1.896719 1_545
Ge1 O83 1.901775 1_445
Ge2 O7 1.851028 1_555
Ge2 O10 1.861381 1_555
Ge2 O8 1.870238 1_545
Ge2 O81 1.895418 1_545
Ge2 O79 1.895665 1_555
Ge2 O82 1.902269 1_545
Ge3 O14 1.884890 1_555
Ge3 O16 1.896771 1_545
Ge3 O13 1.907704 1_445
Ge3 O86 1.989699 1_555
Ge3 O89 2.005635 1_445
Ge3 O85 2.007703 1_455
Ge4 O15 1.886872 1_555
Ge4 O17 1.897555 1_545
Ge4 O12 1.908689 1_545
Ge4 O84 1.991638 1_555
Ge4 O87 1.994588 1_555
Ge4 O88 2.016425 1_545
Ge5 O20 1.888757 1_555
Ge5 O19 1.895970 1_445
Ge5 O22 1.896240 1_545
Ge5 O94 1.996209 1_555
Ge5 O93 1.998963 1_455
Ge5 O91 2.013261 1_445
Ge6 O23 1.897006 1_555
Ge6 O18 1.909252 1_555
Ge6 O21 1.925711 1_565
Ge6 O90 2.001602 1_555
Ge6 O95 2.015338 1_565
Ge6 O92 2.026866 1_565
Ge7 O110 1.949450 1_555
Ge7 O36 1.952427 1_556
Ge7 O108 1.953537 1_555
Ge7 O112 1.955267 1_555
Ge7 O38 1.955950 1_556
Ge7 O40 1.965566 1_556
Ge8 O111 1.948192 1_555
Ge8 O41 1.954028 1_556
Ge8 O113 1.956012 1_555
Ge8 O39 1.958183 1_556
Ge8 O37 1.958455 1_556
Ge8 O109 1.958745 1_555
Ge9 O114 1.882719 1_555
Ge9 O42 1.924258 1_555
Ge9 O46 1.935988 1_555
Ge9 O118 1.944414 1_555
Ge9 O116 1.993293 1_555
Ge9 O44 2.023851 1_555
Ge10 O119 1.904556 1_555
Ge10 O117 1.929691 1_555
Ge10 O45 1.940786 1_555
Ge10 O47 1.945262 1_555
Ge10 O115 1.989769 1_555
Ge10 O43 2.023363 1_555
Ge11 O60 1.897594 1_555
Ge11 O136 1.911978 1_555
Ge11 O64 1.930239 1_555
Ge11 O132 1.964600 1_555
Ge11 O62 1.966292 1_555
Ge11 O134 1.975598 1_555
Ge12 O61 1.905396 1_555
Ge12 O133 1.921460 1_555
Ge12 O63 1.930711 1_555
Ge12 O65 1.951416 1_555
Ge12 O135 1.968029 1_555
Ge12 O137 1.979276 1_555
Ge13 O66 1.878842 1_555
Ge13 O68 1.882531 1_555
Ge13 O70 1.944898 1_555
Ge13 O140 1.945699 1_555
Ge13 O138 2.003529 1_555
Ge13 O142 2.018087 1_555
Ge14 O67 1.880101 1_555
Ge14 O69 1.883258 1_555
Ge14 O71 1.946067 1_555
Ge14 O141 1.947306 1_555
Ge14 O139 2.002377 1_555
Ge14 O143 2.019503 1_555
O0 P0 1.530315 1_545
O1 P1 1.514718 1_545
O1 Zn0 1.983522 1_555
O2 P2 1.509534 1_555
O2 Zn0 1.986544 1_565
O3 P3 1.530438 1_555
O4 P5 1.501807 1_555
O4 Zn0 1.928102 1_555
O5 P4 1.537460 1_655
O6 P6 1.525892 1_555
O7 P7 1.525831 1_555
O8 P9 1.538787 1_555
O9 P8 1.539226 1_655
O10 P10 1.531554 1_545
O11 P11 1.531433 1_545
O12 P10 1.614019 1_555
O13 P11 1.614105 1_555
O14 P6 1.593735 1_555
O15 P7 1.593545 1_555
O16 P8 1.600562 1_555
O17 P9 1.602018 1_555
O18 P2 1.628359 1_555
O19 P3 1.585647 1_555
O20 P4 1.596089 1_555
O21 P5 1.625502 1_555
O22 P0 1.585473 1_555
O23 P1 1.612352 1_555
O24 P12 1.499545 1_555
O24 Zn1 1.976204 1_555
O25 P13 1.500550 1_555
O25 Zn2 1.980916 1_555
O26 P14 1.499618 1_555
O26 Zn1 1.975217 1_555
O27 P15 1.499128 1_555
O27 Zn2 1.975610 1_555
O28 P16 1.513703 1_555
O28 Zn1 2.051288 1_555
O29 P17 1.513153 1_555
O29 Zn2 2.051607 1_555
O30 P18 1.501836 1_555
O30 Zn3 1.978140 1_555
O31 P19 1.503451 1_555
O31 Zn4 1.956025 1_555
O32 P20 1.517539 1_555
O32 Zn3 2.036291 1_555
O33 P21 1.501640 1_555
O33 Zn4 1.977642 1_555
O34 P22 1.502460 1_555
O34 Zn3 1.951445 1_555
O35 P23 1.516959 1_555
O35 Zn4 2.071062 1_555
O36 P22 1.583081 1_555
O37 P23 1.582490 1_555
O38 P18 1.586757 1_555
O39 P19 1.585015 1_555
O40 P20 1.580467 1_555
O41 P21 1.585455 1_555
O42 P14 1.588321 1_555
O43 P15 1.592679 1_555
O44 P16 1.590901 1_555
O45 P17 1.581083 1_555
O46 P12 1.589226 1_555
O47 P13 1.588787 1_555
O48 P24 1.515456 1_555
O48 Zn5 1.999313 1_556
O49 P25 1.514964 1_555
O49 Zn6 1.997677 1_556
O50 P26 1.517286 1_555
O50 Zn5 2.002775 1_556
O51 P27 1.517151 1_555
O51 Zn6 2.002884 1_556
O52 P28 1.517228 1_555
O52 Zn5 2.000775 1_556
O53 P29 1.516318 1_555
O53 Zn6 2.002243 1_556
O54 P30 1.528018 1_555
O54 Zn7 1.950950 1_555
O55 P31 1.516880 1_555
O55 Zn8 2.002860 1_555
O56 P32 1.518843 1_555
O56 Zn7 2.008764 1_555
O57 P33 1.513458 1_555
O57 Zn8 1.940135 1_555
O58 P34 1.518156 1_555
O58 Zn7 1.987988 1_555
O59 P35 1.522768 1_555
O59 Zn8 1.959275 1_555
O60 P34 1.557945 1_555
O61 P35 1.566869 1_555
O62 P30 1.584719 1_555
O63 P31 1.571713 1_555
O64 P32 1.570116 1_555
O65 P33 1.579757 1_555
O66 P26 1.570030 1_555
O67 P27 1.570332 1_555
O68 P28 1.570396 1_555
O69 P29 1.571153 1_555
O70 P24 1.582151 1_555
O71 P25 1.582357 1_555
O72 P34 1.560601 1_555
O73 P35 1.535236 1_555
O73 Zn0 2.133910 1_565
O74 P30 1.524225 1_555
O74 Zn0 2.066213 1_565
O75 P31 1.545893 1_555
O76 P32 1.546720 1_555
O77 P33 1.525187 1_555
O77 Zn0 2.073864 1_555
O78 P26 1.564820 1_555
O79 P27 1.564490 1_555
O80 P28 1.564188 1_555
O81 P29 1.564414 1_555
O82 P24 1.563671 1_555
O83 P25 1.564099 1_555
O84 P12 1.603985 1_555
O85 P13 1.600759 1_555
O86 P14 1.601820 1_555
O87 P15 1.601228 1_555
O88 P16 1.601325 1_555
O89 P17 1.599402 1_555
O90 P18 1.603751 1_555
O91 P19 1.601659 1_555
O92 P20 1.599811 1_555
O93 P21 1.604460 1_555
O94 P22 1.601117 1_555
O95 P23 1.601332 1_555
O96 P10 1.498748 1_545
O96 Zn1 2.036292 1_555
O97 P11 1.498916 1_545
O97 Zn2 2.035363 1_555
O98 P6 1.518120 1_555
O98 Zn1 2.116066 1_555
O99 P7 1.517874 1_555
O99 Zn2 2.120272 1_555
O100 P9 1.517634 1_555
O100 Zn1 2.127129 1_555
O101 P8 1.517873 1_655
O101 Zn2 2.125661 1_555
O102 P2 1.500008 1_555
O102 Zn3 2.006652 1_555
O103 P3 1.517470 1_555
O103 Zn4 2.148284 1_555
O104 P5 1.511325 1_555
O104 Zn3 2.054265 1_555
O105 P4 1.503848 1_655
O105 Zn4 2.055787 1_555
O106 P0 1.515024 1_545
O106 Zn3 2.151050 1_555
O107 P1 1.520890 1_545
O107 Zn4 2.050170 1_555
O108 P24 1.570680 1_555
O109 P25 1.570761 1_555
O110 P27 1.570496 1_555
O111 P26 1.569711 1_655
O112 P28 1.570863 1_545
O113 P29 1.570891 1_545
O114 P30 1.572966 1_545
O115 P31 1.588654 1_545
O116 P32 1.587514 1_555
O117 P33 1.604061 1_555
O118 P35 1.584297 1_555
O119 P34 1.575977 1_655
O120 P22 1.533971 1_555
O120 Zn5 2.146280 1_555
O121 P23 1.535242 1_555
O121 Zn6 2.157511 1_555
O122 P19 1.534334 1_455
O122 Zn5 2.141154 1_555
O123 P18 1.533714 1_555
O123 Zn6 2.130748 1_555
O124 P20 1.534477 1_565
O124 Zn5 2.152395 1_555
O125 P21 1.534044 1_565
O125 Zn6 2.145435 1_555
O126 P14 1.532323 1_565
O126 Zn7 2.166803 1_555
O127 P15 1.536652 1_565
O127 Zn8 2.134231 1_555
O128 P16 1.534302 1_555
O128 Zn7 2.193253 1_555
O129 P17 1.532589 1_555
O129 Zn8 2.121658 1_555
O130 P13 1.535049 1_455
O130 Zn7 2.095026 1_555
O131 P12 1.530494 1_555
O131 Zn8 2.166088 1_555
O132 P0 1.581248 1_555
O133 P1 1.570510 1_555
O134 P2 1.602533 1_555
O135 P3 1.578129 1_555
O136 P4 1.572443 1_555
O137 P5 1.582521 1_555
O138 P6 1.581248 1_555
O139 P7 1.581490 1_555
O140 P8 1.557650 1_555
O141 P9 1.557398 1_555
O142 P10 1.581747 1_555
O143 P11 1.581742 1_555
