# generated using pymatgen
data_Na6La3TaSi2(PO6)4
_symmetry_space_group_name_H-M   'P 1'
_cell_length_a   16.55508950
_cell_length_b   9.45477927
_cell_length_c   9.60183009
_cell_angle_alpha   90.41966683
_cell_angle_beta   125.32025433
_cell_angle_gamma   89.63680432
_symmetry_Int_Tables_number   1
_chemical_formula_structural   Na6La3TaSi2(PO6)4
_chemical_formula_sum   'Na12 La6 Ta2 Si4 P8 O48'
_cell_volume   1226.24849812
_cell_formula_units_Z   2
loop_
 _symmetry_equiv_pos_site_id
 _symmetry_equiv_pos_as_xyz
  1  'x, y, z'
loop_
 _atom_site_type_symbol
 _atom_site_label
 _atom_site_symmetry_multiplicity
 _atom_site_fract_x
 _atom_site_fract_y
 _atom_site_fract_z
 _atom_site_occupancy
  Na  Na0  1  0.25164452  0.75075263  0.99883864  1
  Na  Na1  1  0.74862819  0.75874458  0.50041918  1
  Na  Na2  1  0.75164452  0.25075263  0.99883864  1
  Na  Na3  1  0.24862819  0.25874458  0.50041918  1
  Na  Na4  1  0.50421620  0.06836710  0.75172816  1
  Na  Na5  1  0.50380218  0.91474168  0.24504488  1
  Na  Na6  1  0.00421620  0.56836710  0.75172816  1
  Na  Na7  1  0.00380218  0.41474168  0.24504488  1
  Na  Na8  1  0.18263451  0.91785820  0.30478655  1
  Na  Na9  1  0.81348090  0.09586083  0.70602602  1
  Na  Na10  1  0.68263451  0.41785820  0.30478655  1
  Na  Na11  1  0.31348090  0.59586083  0.70602602  1
  La  La0  1  0.10157674  0.76497379  0.56429526  1
  La  La1  1  0.89804612  0.23795593  0.44027232  1
  La  La2  1  0.10699241  0.25325754  0.05359841  1
  La  La3  1  0.60157674  0.26497379  0.56429526  1
  La  La4  1  0.39804612  0.73795593  0.44027232  1
  La  La5  1  0.60699241  0.75325754  0.05359841  1
  Ta  Ta0  1  0.89738594  0.74516819  0.94945049  1
  Ta  Ta1  1  0.39738594  0.24516819  0.94945049  1
  Si  Si0  1  0.35085054  0.91425977  0.75714438  1
  Si  Si1  1  0.64803901  0.11151304  0.24980910  1
  Si  Si2  1  0.85085054  0.41425977  0.75714438  1
  Si  Si3  1  0.14803901  0.61151304  0.24980910  1
  P  P0  1  0.99379741  0.93332206  0.77055409  1
  P  P1  1  0.99017100  0.04302021  0.22780362  1
  P  P2  1  0.49379741  0.43332206  0.77055409  1
  P  P3  1  0.49017100  0.54302021  0.22780362  1
  P  P4  1  0.66024258  0.89585769  0.74734680  1
  P  P5  1  0.35586171  0.09575831  0.24363233  1
  P  P6  1  0.16024258  0.39585769  0.74734680  1
  P  P7  1  0.85586171  0.59575831  0.24363233  1
  O  O0  1  0.17075585  0.55844265  0.74871365  1
  O  O1  1  0.84891715  0.59053832  0.78351329  1
  O  O2  1  0.85114278  0.43370019  0.21705354  1
  O  O3  1  0.14937701  0.43950269  0.25268629  1
  O  O4  1  0.67075585  0.05844265  0.74871365  1
  O  O5  1  0.34891715  0.09053832  0.78351329  1
  O  O6  1  0.35114278  0.93370019  0.21705354  1
  O  O7  1  0.64937701  0.93950269  0.25268629  1
  O  O8  1  0.42968053  0.52788202  0.60888507  1
  O  O9  1  0.55581565  0.52460093  0.92815108  1
  O  O10  1  0.54356204  0.45729069  0.39339880  1
  O  O11  1  0.43787521  0.43415449  0.07443938  1
  O  O12  1  0.92968053  0.02788202  0.60888507  1
  O  O13  1  0.05581565  0.02460093  0.92815108  1
  O  O14  1  0.04356204  0.95729069  0.39339880  1
  O  O15  1  0.93787521  0.93415449  0.07443938  1
  O  O16  1  0.26463711  0.83641674  0.75842804  1
  O  O17  1  0.75629121  0.82949343  0.77859698  1
  O  O18  1  0.72660575  0.19360951  0.22716677  1
  O  O19  1  0.26897194  0.15096061  0.24347079  1
  O  O20  1  0.76463711  0.33641674  0.75842804  1
  O  O21  1  0.25629121  0.32949343  0.77859698  1
  O  O22  1  0.22660575  0.69360951  0.22716677  1
  O  O23  1  0.76897194  0.65096061  0.24347079  1
  O  O24  1  0.34682354  0.89095298  0.58130854  1
  O  O25  1  0.65079731  0.86022242  0.89247563  1
  O  O26  1  0.66473087  0.16618557  0.42550604  1
  O  O27  1  0.35882785  0.16517566  0.09373800  1
  O  O28  1  0.84682354  0.39095298  0.58130854  1
  O  O29  1  0.15079731  0.36022242  0.89247563  1
  O  O30  1  0.16473087  0.66618557  0.42550604  1
  O  O31  1  0.85882785  0.66517566  0.09373800  1
  O  O32  1  0.45765946  0.86040563  0.91882111  1
  O  O33  1  0.56839298  0.83999690  0.57545403  1
  O  O34  1  0.53015917  0.16929176  0.08756282  1
  O  O35  1  0.45378266  0.13367155  0.41317228  1
  O  O36  1  0.95765946  0.36040563  0.91882111  1
  O  O37  1  0.06839298  0.33999690  0.57545403  1
  O  O38  1  0.03015917  0.66929176  0.08756282  1
  O  O39  1  0.95378266  0.63367155  0.41317228  1
  O  O40  1  0.05790600  0.82052477  0.75996079  1
  O  O41  1  0.91493518  0.84668683  0.77946413  1
  O  O42  1  0.91269256  0.14363539  0.21440404  1
  O  O43  1  0.07229026  0.12524673  0.23287866  1
  O  O44  1  0.55790600  0.32052477  0.75996079  1
  O  O45  1  0.41493518  0.34668683  0.77946413  1
  O  O46  1  0.41269256  0.64363539  0.21440404  1
  O  O47  1  0.57229026  0.62524673  0.23287866  1
loop_
_geom_bond_atom_site_label_1
_geom_bond_atom_site_label_2
_geom_bond_distance
_geom_bond_site_symmetry_2
Na0 O46 2.456378 1_556
Na0 O6 2.467318 1_556
Na0 O22 2.518175 1_556
Na0 O16 2.575772 1_555
Na0 O0 2.667465 1_555
Na0 O40 2.733529 1_555
Na1 O7 2.604495 1_555
Na1 O41 2.630036 1_555
Na1 O17 2.679731 1_555
Na1 O1 2.736051 1_555
Na1 O47 2.835905 1_555
Na1 O23 2.856309 1_555
Na2 O42 2.456378 1_556
Na2 O2 2.467318 1_556
Na2 O18 2.518175 1_556
Na2 O20 2.575772 1_555
Na2 O4 2.667465 1_555
Na2 O44 2.733529 1_555
Na3 O3 2.604495 1_555
Na3 O45 2.630036 1_555
Na3 O21 2.679731 1_555
Na3 O5 2.736051 1_555
Na3 O43 2.835905 1_555
Na3 O19 2.856309 1_555
Na4 O44 2.534375 1_555
Na4 O24 2.714003 1_545
Na4 O5 2.765248 1_555
Na4 O4 2.774902 1_555
Na4 O25 2.788248 1_545
Na4 O32 2.920530 1_545
Na4 O35 2.920661 1_555
Na5 O7 2.381334 1_555
Na5 O6 2.387699 1_555
Na5 O33 2.794359 1_555
Na6 O40 2.534375 1_555
Na6 O28 2.714003 1_455
Na6 O1 2.765248 1_455
Na6 O0 2.774902 1_555
Na6 O29 2.788248 1_555
Na6 O36 2.920530 1_455
Na6 O39 2.920661 1_455
Na7 O3 2.381334 1_555
Na7 O2 2.387699 1_455
Na7 O37 2.794359 1_555
Na8 O24 2.481711 1_555
Na8 O22 2.483006 1_555
Na8 O43 2.484867 1_565
Na8 O30 2.745923 1_555
Na8 O19 2.877303 1_565
Na8 O14 2.900578 1_555
Na9 O26 2.469246 1_555
Na9 O20 2.551528 1_555
Na9 O4 2.647389 1_555
Na9 O12 2.652160 1_555
Na9 O41 2.733706 1_545
Na9 O17 2.922890 1_545
Na10 O28 2.481711 1_555
Na10 O18 2.483006 1_555
Na10 O47 2.484867 1_555
Na10 O26 2.745923 1_555
Na10 O23 2.877303 1_555
Na10 O10 2.900578 1_555
Na11 O30 2.469246 1_555
Na11 O16 2.551528 1_555
Na11 O0 2.647389 1_555
Na11 O8 2.652160 1_555
Na11 O45 2.733706 1_555
Na11 O21 2.922890 1_555
La0 O14 2.262868 1_555
La0 O30 2.306915 1_555
La0 O16 2.324732 1_555
La0 O39 2.353751 1_455
La0 O40 2.424777 1_555
La0 O0 2.436724 1_555
La1 O18 2.388614 1_555
La1 O12 2.427740 1_555
La1 O28 2.434969 1_555
La1 O42 2.476795 1_555
La1 O37 2.520347 1_655
La1 O2 2.595648 1_555
La2 O36 2.258536 1_454
La2 O29 2.296002 1_554
La2 O13 2.376457 1_554
La2 O3 2.379657 1_555
La2 O19 2.406272 1_555
La2 O43 2.437425 1_555
La3 O10 2.262868 1_555
La3 O26 2.306915 1_555
La3 O20 2.324732 1_555
La3 O35 2.353751 1_555
La3 O44 2.424777 1_555
La3 O4 2.436724 1_555
La4 O22 2.388614 1_555
La4 O8 2.427740 1_555
La4 O24 2.434969 1_555
La4 O46 2.476795 1_555
La4 O33 2.520347 1_555
La4 O6 2.595648 1_555
La5 O32 2.258536 1_554
La5 O25 2.296002 1_554
La5 O9 2.376457 1_554
La5 O7 2.379657 1_555
La5 O23 2.406272 1_555
La5 O47 2.437425 1_555
O0 P6 1.547229 1_555
O1 Si2 1.686845 1_555
O1 Ta0 1.955081 1_555
O2 P7 1.546505 1_555
O3 Si3 1.626550 1_555
O4 P4 1.547229 1_545
O5 Si0 1.686845 1_545
O5 Ta1 1.955081 1_555
O6 P5 1.546505 1_565
O7 Si1 1.626550 1_565
O8 P2 1.561651 1_555
O9 P2 1.511429 1_555
O10 P3 1.533348 1_555
O11 P3 1.578741 1_555
O11 Ta1 2.033700 1_554
O12 P0 1.561651 1_545
O13 P0 1.511429 1_445
O14 P1 1.533348 1_465
O15 P1 1.578741 1_565
O15 Ta0 2.033700 1_554
O16 Si0 1.616393 1_555
O17 P4 1.565425 1_555
O17 Ta0 2.085122 1_555
O18 Si1 1.638222 1_555
O19 P5 1.526274 1_555
O20 Si2 1.616393 1_555
O21 P6 1.565425 1_555
O21 Ta1 2.085122 1_555
O22 Si3 1.638222 1_555
O23 P7 1.526274 1_555
O24 Si0 1.663761 1_555
O25 P4 1.529483 1_555
O26 Si1 1.624675 1_555
O27 P5 1.612641 1_555
O27 Ta1 1.985680 1_554
O28 Si2 1.663761 1_555
O29 P6 1.529483 1_555
O30 Si3 1.624675 1_555
O31 P7 1.612641 1_555
O31 Ta0 1.985680 1_554
O32 Si0 1.619254 1_555
O33 P4 1.552636 1_555
O34 Si1 1.737057 1_555
O34 Ta1 1.930864 1_554
O35 P5 1.534234 1_555
O36 Si2 1.619254 1_555
O37 P6 1.552636 1_555
O38 Si3 1.737057 1_555
O38 Ta0 1.930864 1_454
O39 P7 1.534234 1_555
O40 P0 1.543698 1_455
O41 P0 1.589505 1_555
O41 Ta0 2.060218 1_555
O42 P1 1.536958 1_555
O43 P1 1.546363 1_455
O44 P2 1.543698 1_555
O45 P2 1.589505 1_555
O45 Ta1 2.060218 1_555
O46 P3 1.536958 1_555
O47 P3 1.546363 1_555
