# generated using pymatgen
data_Na4MgTiSi2SO12
_symmetry_space_group_name_H-M   'P 1'
_cell_length_a   9.11884184
_cell_length_b   9.05913967
_cell_length_c   22.04802638
_cell_angle_alpha   91.00429725
_cell_angle_beta   90.00000000
_cell_angle_gamma   120.21824486
_symmetry_Int_Tables_number   1
_chemical_formula_structural   Na4MgTiSi2SO12
_chemical_formula_sum   'Na24 Mg6 Ti6 Si12 S6 O72'
_cell_volume   1573.54197756
_cell_formula_units_Z   6
loop_
 _symmetry_equiv_pos_site_id
 _symmetry_equiv_pos_as_xyz
  1  'x, y, z'
loop_
 _atom_site_type_symbol
 _atom_site_label
 _atom_site_symmetry_multiplicity
 _atom_site_fract_x
 _atom_site_fract_y
 _atom_site_fract_z
 _atom_site_occupancy
  Na  Na0  1  0.64385325  0.01787409  0.25339558  1
  Na  Na1  1  0.36515470  0.35653203  0.24611667  1
  Na  Na2  1  0.99230817  0.62223734  0.24235684  1
  Na  Na3  1  0.62992916  0.62223734  0.74235684  1
  Na  Na4  1  0.99137733  0.35653203  0.74611667  1
  Na  Na5  1  0.37402084  0.01787409  0.75339558  1
  Na  Na6  1  0.31052025  0.35120709  0.58672858  1
  Na  Na7  1  0.03182170  0.68986503  0.57944967  1
  Na  Na8  1  0.65897517  0.95557034  0.57568984  1
  Na  Na9  1  0.29659616  0.95557034  0.07568984  1
  Na  Na10  1  0.65804433  0.68986503  0.07944967  1
  Na  Na11  1  0.04068784  0.35120709  0.08672858  1
  Na  Na12  1  0.97718625  0.68454109  0.92006258  1
  Na  Na13  1  0.69848770  0.02319903  0.91278367  1
  Na  Na14  1  0.32564117  0.28890434  0.90902384  1
  Na  Na15  1  0.96326216  0.28890434  0.40902384  1
  Na  Na16  1  0.32471033  0.02319903  0.41278367  1
  Na  Na17  1  0.70735384  0.68454109  0.42006258  1
  Na  Na18  1  0.98534746  0.98781880  0.49583848  1
  Na  Na19  1  0.00247134  0.98781880  0.99583848  1
  Na  Na20  1  0.65201446  0.32115180  0.82917148  1
  Na  Na21  1  0.66913834  0.32115180  0.32917148  1
  Na  Na22  1  0.31868046  0.65448580  0.16250548  1
  Na  Na23  1  0.33580434  0.65448580  0.66250548  1
  Mg  Mg0  1  0.99946578  0.00234748  0.35109754  1
  Mg  Mg1  1  0.00288170  0.00234748  0.85109754  1
  Mg  Mg2  1  0.66613278  0.33568048  0.68443054  1
  Mg  Mg3  1  0.66954870  0.33568048  0.18443054  1
  Mg  Mg4  1  0.33279878  0.66901448  0.01776454  1
  Mg  Mg5  1  0.33621470  0.66901448  0.51776454  1
  Ti  Ti0  1  0.98145232  0.01069550  0.64731081  1
  Ti  Ti1  1  0.02924318  0.01069550  0.14731081  1
  Ti  Ti2  1  0.64811932  0.34402850  0.98064381  1
  Ti  Ti3  1  0.69591018  0.34402850  0.48064381  1
  Ti  Ti4  1  0.31478532  0.67736250  0.31397781  1
  Ti  Ti5  1  0.36257618  0.67736250  0.81397781  1
  Si  Si0  1  0.29857088  0.00486991  0.25353885  1
  Si  Si1  1  0.00184238  0.29276578  0.25264096  1
  Si  Si2  1  0.29092341  0.29276578  0.75264096  1
  Si  Si3  1  0.70629903  0.00486991  0.75353885  1
  Si  Si4  1  0.96523788  0.33820291  0.58687185  1
  Si  Si5  1  0.66850938  0.62609878  0.58597396  1
  Si  Si6  1  0.95759041  0.62609878  0.08597396  1
  Si  Si7  1  0.37296603  0.33820291  0.08687185  1
  Si  Si8  1  0.63190388  0.67153691  0.92020585  1
  Si  Si9  1  0.33517538  0.95943278  0.91930796  1
  Si  Si10  1  0.62425641  0.95943278  0.41930796  1
  Si  Si11  1  0.03963203  0.67153691  0.42020585  1
  S  S0  1  0.70754443  0.71024918  0.25019102  1
  S  S1  1  0.00270475  0.71024918  0.75019102  1
  S  S2  1  0.37421143  0.04358218  0.58352402  1
  S  S3  1  0.66937175  0.04358218  0.08352402  1
  S  S4  1  0.04087743  0.37691618  0.91685802  1
  S  S5  1  0.33603775  0.37691618  0.41685802  1
  O  O0  1  0.20880959  0.02904968  0.31160599  1
  O  O1  1  0.80902366  0.79011446  0.30526219  1
  O  O2  1  0.96935444  0.17863502  0.31102052  1
  O  O3  1  0.20928058  0.17863502  0.81102052  1
  O  O4  1  0.98109081  0.79011446  0.80526219  1
  O  O5  1  0.82024009  0.02904968  0.81160599  1
  O  O6  1  0.79678895  0.97032683  0.69151674  1
  O  O7  1  0.16052081  0.19032463  0.69195737  1
  O  O8  1  0.02663140  0.81514757  0.69553297  1
  O  O9  1  0.78851617  0.81514757  0.19553297  1
  O  O10  1  0.02980382  0.19032463  0.19195737  1
  O  O11  1  0.17353787  0.97032683  0.19151674  1
  O  O12  1  0.87547659  0.36238268  0.64493899  1
  O  O13  1  0.47569066  0.12344746  0.63859519  1
  O  O14  1  0.63602144  0.51196802  0.64435352  1
  O  O15  1  0.87594758  0.51196802  0.14435352  1
  O  O16  1  0.64775781  0.12344746  0.13859519  1
  O  O17  1  0.48690709  0.36238268  0.14493899  1
  O  O18  1  0.46345595  0.30365983  0.02484974  1
  O  O19  1  0.82718781  0.52365763  0.02529037  1
  O  O20  1  0.69329840  0.14848057  0.02886597  1
  O  O21  1  0.45518317  0.14848057  0.52886597  1
  O  O22  1  0.69647082  0.52365763  0.52529037  1
  O  O23  1  0.84020487  0.30365983  0.52484974  1
  O  O24  1  0.54214259  0.69571668  0.97827299  1
  O  O25  1  0.14235666  0.45678146  0.97192919  1
  O  O26  1  0.30268744  0.84530202  0.97768752  1
  O  O27  1  0.54261358  0.84530202  0.47768752  1
  O  O28  1  0.31442381  0.45678146  0.47192919  1
  O  O29  1  0.15357309  0.69571668  0.47827299  1
  O  O30  1  0.13012195  0.63699383  0.35818374  1
  O  O31  1  0.49385381  0.85699163  0.35862437  1
  O  O32  1  0.35996440  0.48181457  0.36219997  1
  O  O33  1  0.12184917  0.48181457  0.86219997  1
  O  O34  1  0.36313682  0.85699163  0.85862437  1
  O  O35  1  0.50687087  0.63699383  0.85818374  1
  O  O36  1  0.01035434  0.83142366  0.41198491  1
  O  O37  1  0.81472251  0.99018045  0.41179565  1
  O  O38  1  0.18348579  0.20346221  0.41216893  1
  O  O39  1  0.01997642  0.20346221  0.91216893  1
  O  O40  1  0.17545794  0.99018045  0.91179565  1
  O  O41  1  0.82106932  0.83142366  0.91198491  1
  O  O42  1  0.97272778  0.15566726  0.58781985  1
  O  O43  1  0.20108854  0.02543499  0.58737208  1
  O  O44  1  0.85212774  0.81484315  0.58947605  1
  O  O45  1  0.96271541  0.81484315  0.08947605  1
  O  O46  1  0.82434645  0.02543499  0.08737208  1
  O  O47  1  0.18293948  0.15566726  0.08781985  1
  O  O48  1  0.67702134  0.16475666  0.74531791  1
  O  O49  1  0.48138951  0.32351345  0.74512865  1
  O  O50  1  0.85015279  0.53679521  0.74550193  1
  O  O51  1  0.68664342  0.53679521  0.24550193  1
  O  O52  1  0.84212494  0.32351345  0.24512865  1
  O  O53  1  0.48773632  0.16475666  0.24531791  1
  O  O54  1  0.63939478  0.48900026  0.92115285  1
  O  O55  1  0.86775554  0.35876799  0.92070508  1
  O  O56  1  0.51879474  0.14817615  0.92280905  1
  O  O57  1  0.62938241  0.14817615  0.42280905  1
  O  O58  1  0.49101345  0.35876799  0.42070508  1
  O  O59  1  0.84960648  0.48900026  0.42115285  1
  O  O60  1  0.34368734  0.49809066  0.07865191  1
  O  O61  1  0.14805551  0.65684745  0.07846265  1
  O  O62  1  0.51681879  0.87012921  0.07883593  1
  O  O63  1  0.35330942  0.87012921  0.57883593  1
  O  O64  1  0.50879094  0.65684745  0.57846265  1
  O  O65  1  0.15440232  0.49809066  0.57865191  1
  O  O66  1  0.30606078  0.82233426  0.25448685  1
  O  O67  1  0.53442154  0.69210199  0.25403908  1
  O  O68  1  0.18546074  0.48151015  0.25614305  1
  O  O69  1  0.29604841  0.48151015  0.75614305  1
  O  O70  1  0.15767945  0.69210199  0.75403908  1
  O  O71  1  0.51627248  0.82233426  0.75448685  1
loop_
_geom_bond_atom_site_label_1
_geom_bond_atom_site_label_2
_geom_bond_distance
_geom_bond_site_symmetry_2
Na0 O53 2.396671 1_555
Na0 O52 2.438681 1_555
Na0 O67 2.596676 1_545
Na0 O66 2.671270 1_545
Na0 O16 2.715352 1_555
Na0 O31 2.736746 1_545
Na0 O2 2.851186 1_555
Na1 O68 2.423719 1_555
Na1 O17 2.481266 1_555
Na1 O53 2.494349 1_555
Na1 O51 2.538327 1_555
Na1 O67 2.629185 1_555
Na1 O32 2.791624 1_555
Na1 O10 2.889055 1_555
Na1 O0 2.968419 1_555
Na2 O52 2.340500 1_555
Na2 O15 2.377001 1_555
Na2 O51 2.490626 1_555
Na2 O66 2.511107 1_655
Na2 O68 2.663418 1_655
Na2 O30 2.817403 1_655
Na2 O11 2.968115 1_655
Na3 O49 2.340500 1_555
Na3 O14 2.377003 1_555
Na3 O50 2.490635 1_555
Na3 O71 2.511114 1_555
Na3 O69 2.663426 1_555
Na3 O35 2.817407 1_555
Na3 O6 2.968115 1_555
Na4 O69 2.423710 1_655
Na4 O12 2.481262 1_555
Na4 O48 2.494342 1_555
Na4 O50 2.538319 1_555
Na4 O70 2.629185 1_655
Na4 O33 2.791622 1_655
Na4 O7 2.889055 1_655
Na4 O5 2.968419 1_555
Na5 O48 2.396679 1_555
Na5 O49 2.438680 1_555
Na5 O70 2.596678 1_545
Na5 O71 2.671262 1_545
Na5 O13 2.715354 1_555
Na5 O34 2.736743 1_545
Na5 O3 2.851186 1_555
Na6 O65 2.396684 1_555
Na6 O64 2.438685 1_555
Na6 O43 2.596676 1_555
Na6 O42 2.671270 1_455
Na6 O28 2.715336 1_555
Na6 O7 2.736746 1_555
Na6 O14 2.851186 1_555
Na7 O44 2.423719 1_455
Na7 O29 2.481241 1_555
Na7 O65 2.494334 1_555
Na7 O63 2.538320 1_555
Na7 O43 2.629185 1_565
Na7 O8 2.791624 1_555
Na7 O22 2.889055 1_455
Na7 O12 2.968419 1_455
Na8 O64 2.340493 1_555
Na8 O27 2.376981 1_555
Na8 O63 2.490638 1_555
Na8 O42 2.511107 1_565
Na8 O44 2.663418 1_555
Na8 O6 2.817403 1_555
Na8 O23 2.968115 1_565
Na9 O61 2.340493 1_555
Na9 O26 2.376977 1_554
Na9 O62 2.490621 1_555
Na9 O47 2.511114 1_565
Na9 O45 2.663426 1_455
Na9 O11 2.817407 1_555
Na9 O18 2.968115 1_565
Na10 O45 2.423710 1_555
Na10 O24 2.481249 1_554
Na10 O60 2.494348 1_555
Na10 O62 2.538335 1_555
Na10 O46 2.629185 1_565
Na10 O9 2.791622 1_555
Na10 O19 2.889055 1_555
Na10 O17 2.968419 1_555
Na11 O60 2.396669 1_555
Na11 O61 2.438688 1_555
Na11 O46 2.596678 1_455
Na11 O47 2.671262 1_555
Na11 O25 2.715333 1_554
Na11 O10 2.736743 1_555
Na11 O15 2.851186 1_455
Na12 O41 2.396671 1_555
Na12 O40 2.438681 1_655
Na12 O55 2.596686 1_555
Na12 O54 2.671262 1_555
Na12 O4 2.715352 1_555
Na12 O19 2.736727 1_556
Na12 O26 2.851186 1_655
Na13 O56 2.423701 1_555
Na13 O5 2.481266 1_555
Na13 O41 2.494349 1_545
Na13 O39 2.538327 1_655
Na13 O55 2.629176 1_555
Na13 O20 2.791599 1_556
Na13 O34 2.889055 1_545
Na13 O24 2.968419 1_545
Na14 O40 2.340500 1_545
Na14 O3 2.377001 1_555
Na14 O39 2.490626 1_555
Na14 O54 2.511111 1_555
Na14 O56 2.663431 1_555
Na14 O18 2.817389 1_556
Na14 O35 2.968115 1_555
Na15 O37 2.340500 1_545
Na15 O2 2.377003 1_555
Na15 O38 2.490635 1_655
Na15 O59 2.511097 1_555
Na15 O57 2.663414 1_555
Na15 O23 2.817381 1_555
Na15 O30 2.968115 1_655
Na16 O57 2.423718 1_555
Na16 O0 2.481262 1_555
Na16 O36 2.494342 1_545
Na16 O38 2.538319 1_555
Na16 O58 2.629176 1_555
Na16 O21 2.791603 1_555
Na16 O31 2.889055 1_545
Na16 O29 2.968419 1_545
Na17 O36 2.396679 1_655
Na17 O37 2.438680 1_555
Na17 O58 2.596682 1_555
Na17 O59 2.671277 1_555
Na17 O1 2.715354 1_555
Na17 O22 2.736731 1_555
Na17 O27 2.851186 1_555
Na18 O36 2.389729 1_655
Na18 O37 2.426873 1_555
Na18 O44 2.528000 1_555
Na18 O42 2.550726 1_565
Na18 O38 2.656567 1_665
Na18 O43 2.713000 1_665
Na19 O41 2.389729 1_455
Na19 O40 2.426873 1_555
Na19 O45 2.528000 1_456
Na19 O47 2.550726 1_566
Na19 O39 2.656567 1_565
Na19 O46 2.713000 1_466
Na20 O48 2.389729 1_555
Na20 O49 2.426873 1_555
Na20 O56 2.528000 1_555
Na20 O54 2.550726 1_555
Na20 O50 2.656567 1_555
Na20 O55 2.713000 1_555
Na21 O53 2.389729 1_555
Na21 O52 2.426873 1_555
Na21 O57 2.528000 1_555
Na21 O59 2.550726 1_555
Na21 O51 2.656567 1_555
Na21 O58 2.713000 1_555
Na22 O60 2.389729 1_555
Na22 O61 2.426873 1_555
Na22 O68 2.528000 1_555
Na22 O66 2.550726 1_555
Na22 O62 2.656567 1_555
Na22 O67 2.713000 1_555
Na23 O65 2.389729 1_555
Na23 O64 2.426873 1_555
Na23 O69 2.528000 1_555
Na23 O71 2.550726 1_555
Na23 O63 2.656567 1_555
Na23 O70 2.713000 1_555
Mg0 O2 1.974208 1_555
Mg0 O0 2.000848 1_655
Mg0 O1 2.074767 1_545
Mg0 O36 2.106480 1_645
Mg0 O37 2.111732 1_545
Mg0 O38 2.187444 1_655
Mg1 O3 1.974208 1_555
Mg1 O5 2.000848 1_455
Mg1 O4 2.074767 1_445
Mg1 O41 2.106480 1_445
Mg1 O40 2.111732 1_545
Mg1 O39 2.187444 1_555
Mg2 O14 1.974208 1_555
Mg2 O12 2.000848 1_555
Mg2 O13 2.074767 1_555
Mg2 O48 2.106480 1_555
Mg2 O49 2.111732 1_555
Mg2 O50 2.187444 1_555
Mg3 O15 1.974208 1_555
Mg3 O17 2.000848 1_555
Mg3 O16 2.074767 1_555
Mg3 O53 2.106480 1_555
Mg3 O52 2.111732 1_555
Mg3 O51 2.187444 1_555
Mg4 O26 1.974208 1_554
Mg4 O24 2.000848 1_554
Mg4 O25 2.074767 1_554
Mg4 O60 2.106480 1_555
Mg4 O61 2.111732 1_555
Mg4 O62 2.187444 1_555
Mg5 O27 1.974208 1_555
Mg5 O29 2.000848 1_555
Mg5 O28 2.074767 1_555
Mg5 O65 2.106480 1_555
Mg5 O64 2.111732 1_555
Mg5 O63 2.187444 1_555
O0 Si0 1.589868 1_555
O1 S0 1.466071 1_555
O2 Si1 1.597456 1_655
O3 Si2 1.597456 1_555
O4 S1 1.466071 1_655
O5 Si3 1.589868 1_555
O6 Si3 1.701088 1_565
O6 Ti0 1.819858 1_565
O7 Si2 1.706173 1_555
O7 Ti0 1.884818 1_455
O8 S1 1.494779 1_555
O8 Ti0 2.288883 1_465
O9 S0 1.494779 1_555
O9 Ti1 2.288883 1_665
O10 Si1 1.706173 1_555
O10 Ti1 1.884818 1_555
O11 Si0 1.701088 1_565
O11 Ti1 1.819858 1_565
O12 Si4 1.589868 1_555
O13 S2 1.466071 1_555
O14 Si5 1.597456 1_555
O15 Si6 1.597456 1_555
O16 S3 1.466071 1_555
O17 Si7 1.589868 1_555
O18 Si7 1.701088 1_555
O18 Ti2 1.819858 1_554
O19 Si6 1.706173 1_555
O19 Ti2 1.884818 1_554
O20 S3 1.494779 1_555
O20 Ti2 2.288883 1_554
O21 S2 1.494779 1_555
O21 Ti3 2.288883 1_555
O22 Si5 1.706173 1_555
O22 Ti3 1.884818 1_555
O23 Si4 1.701088 1_555
O23 Ti3 1.819858 1_555
O24 Si8 1.589868 1_555
O25 S4 1.466071 1_555
O26 Si9 1.597456 1_555
O27 Si10 1.597456 1_555
O28 S5 1.466071 1_555
O29 Si11 1.589868 1_555
O30 Si11 1.701088 1_555
O30 Ti4 1.819858 1_555
O31 Si10 1.706173 1_555
O31 Ti4 1.884818 1_555
O32 S5 1.494779 1_555
O32 Ti4 2.288883 1_555
O33 S4 1.494779 1_555
O33 Ti5 2.288883 1_555
O34 Si9 1.706173 1_555
O34 Ti5 1.884818 1_555
O35 Si8 1.701088 1_555
O35 Ti5 1.819858 1_555
O36 Si11 1.612623 1_555
O37 Si10 1.623651 1_555
O38 S5 1.486260 1_555
O39 S4 1.486264 1_555
O40 Si9 1.623642 1_555
O41 Si8 1.612628 1_555
O42 Si4 1.689510 1_555
O42 Ti0 1.901879 1_555
O43 S2 1.505225 1_555
O43 Ti0 2.347889 1_455
O44 Si5 1.687215 1_555
O44 Ti0 1.994801 1_565
O45 Si6 1.687219 1_555
O45 Ti1 1.994801 1_665
O46 S3 1.505216 1_555
O46 Ti1 2.347889 1_655
O47 Si7 1.689515 1_555
O47 Ti1 1.901879 1_555
O48 Si3 1.612623 1_555
O49 Si2 1.623651 1_555
O50 S1 1.486260 1_655
O51 S0 1.486264 1_555
O52 Si1 1.623642 1_655
O53 Si0 1.612628 1_555
O54 Si8 1.689523 1_555
O54 Ti2 1.901879 1_555
O55 S4 1.505211 1_655
O55 Ti2 2.347889 1_555
O56 Si9 1.687214 1_545
O56 Ti2 1.994801 1_555
O57 Si10 1.687205 1_545
O57 Ti3 1.994801 1_555
O58 S5 1.505229 1_555
O58 Ti3 2.347889 1_555
O59 Si11 1.689514 1_655
O59 Ti3 1.901879 1_555
O60 Si7 1.612635 1_555
O61 Si6 1.623636 1_455
O62 S3 1.486257 1_565
O63 S2 1.486250 1_565
O64 Si5 1.623654 1_555
O65 Si4 1.612623 1_455
O66 Si0 1.689510 1_565
O66 Ti4 1.901879 1_555
O67 S0 1.505225 1_555
O67 Ti4 2.347889 1_555
O68 Si1 1.687215 1_555
O68 Ti4 1.994801 1_555
O69 Si2 1.687219 1_555
O69 Ti5 1.994801 1_555
O70 S1 1.505216 1_555
O70 Ti5 2.347889 1_555
O71 Si3 1.689515 1_565
O71 Ti5 1.901879 1_555
