# generated using pymatgen
data_Na2Ti4Si5Ge4S7O48
_symmetry_space_group_name_H-M   'P 1'
_cell_length_a   17.14492997
_cell_length_b   8.55484663
_cell_length_c   22.23911342
_cell_angle_alpha   90.02694558
_cell_angle_beta   90.58107023
_cell_angle_gamma   120.04386266
_symmetry_Int_Tables_number   1
_chemical_formula_structural   Na2Ti4Si5Ge4S7O48
_chemical_formula_sum   'Na6 Ti12 Si15 Ge12 S21 O144'
_cell_volume   2823.40167224
_cell_formula_units_Z   3
loop_
 _symmetry_equiv_pos_site_id
 _symmetry_equiv_pos_as_xyz
  1  'x, y, z'
loop_
 _atom_site_type_symbol
 _atom_site_label
 _atom_site_symmetry_multiplicity
 _atom_site_fract_x
 _atom_site_fract_y
 _atom_site_fract_z
 _atom_site_occupancy
  Na  Na0  1  0.99703446  0.99968910  0.50005097  1
  Na  Na1  1  0.49652882  0.99621256  0.99631876  1
  Na  Na2  1  0.33691428  0.33961826  0.83350668  1
  Na  Na3  1  0.83268334  0.33764876  0.83158358  1
  Na  Na4  1  0.33418602  0.33042367  0.33223074  1
  Na  Na5  1  0.83369662  0.33265753  0.33539759  1
  Ti  Ti0  1  0.00151477  0.98920871  0.35807916  1
  Ti  Ti1  1  0.49937846  0.99868402  0.85316298  1
  Ti  Ti2  1  0.00046227  0.99615476  0.64718253  1
  Ti  Ti3  1  0.49966386  0.00532686  0.14575226  1
  Ti  Ti4  1  0.83995304  0.34887352  0.69113456  1
  Ti  Ti5  1  0.34152242  0.33192795  0.19001095  1
  Ti  Ti6  1  0.34155592  0.35944841  0.97434081  1
  Ti  Ti7  1  0.84197706  0.32329394  0.97787453  1
  Ti  Ti8  1  0.34362948  0.36124648  0.48093307  1
  Ti  Ti9  1  0.83950799  0.32046155  0.47669114  1
  Ti  Ti10  1  0.15997673  0.67692376  0.30952361  1
  Ti  Ti11  1  0.65366492  0.64164915  0.80578690  1
  Si  Si0  1  0.14150701  0.00804568  0.24733955  1
  Si  Si1  1  0.50727543  0.29343610  0.25388070  1
  Si  Si2  1  0.64064614  0.27487022  0.74698277  1
  Si  Si3  1  0.00729593  0.72083797  0.75396351  1
  Si  Si4  1  0.49681535  0.71066247  0.74887609  1
  Si  Si5  1  0.97981244  0.33360835  0.58535287  1
  Si  Si6  1  0.33499989  0.63678676  0.58583900  1
  Si  Si7  1  0.48066657  0.62555269  0.08431947  1
  Si  Si8  1  0.83416864  0.03408776  0.08486346  1
  Si  Si9  1  0.30787563  0.67285619  0.91434111  1
  Si  Si10  1  0.02613253  0.37272095  0.91450470  1
  Si  Si11  1  0.52709552  0.38062383  0.91897388  1
  Si  Si12  1  0.80617052  0.94213469  0.41453081  1
  Si  Si13  1  0.02597348  0.66373566  0.42012314  1
  Si  Si14  1  0.52478523  0.67774992  0.41524191  1
  Ge  Ge0  1  0.49761380  0.00192596  0.35629714  1
  Ge  Ge1  1  0.99594373  0.99216609  0.85597844  1
  Ge  Ge2  1  0.50308903  0.98985476  0.64799140  1
  Ge  Ge3  1  0.00290574  0.00275789  0.14328170  1
  Ge  Ge4  1  0.33820517  0.35275459  0.68463081  1
  Ge  Ge5  1  0.83236398  0.32514245  0.18080512  1
  Ge  Ge6  1  0.16898405  0.65250932  0.01472359  1
  Ge  Ge7  1  0.66163457  0.66749705  0.02396915  1
  Ge  Ge8  1  0.16194575  0.66065440  0.52721850  1
  Ge  Ge9  1  0.66812701  0.68607716  0.51731219  1
  Ge  Ge10  1  0.65793368  0.66149304  0.31616089  1
  Ge  Ge11  1  0.16000802  0.65558016  0.81455418  1
  S  S0  1  0.64640664  0.00174923  0.25009120  1
  S  S1  1  0.35542708  0.71307212  0.25082118  1
  S  S2  1  0.85347563  0.70708245  0.24806506  1
  S  S3  1  0.99856400  0.28760951  0.24890699  1
  S  S4  1  0.14531900  0.28939492  0.75056978  1
  S  S5  1  0.35244553  0.99856278  0.74826951  1
  S  S6  1  0.85586527  0.99745907  0.75086108  1
  S  S7  1  0.48136596  0.33505025  0.58337502  1
  S  S8  1  0.19204716  0.04808464  0.58336423  1
  S  S9  1  0.68793464  0.04268486  0.58300620  1
  S  S10  1  0.82852161  0.61929423  0.58164014  1
  S  S11  1  0.98045633  0.62505224  0.08323668  1
  S  S12  1  0.32820730  0.03754503  0.08170129  1
  S  S13  1  0.18807972  0.33478532  0.08352447  1
  S  S14  1  0.69100126  0.33704416  0.08249926  1
  S  S15  1  0.81086450  0.66867482  0.91719698  1
  S  S16  1  0.16476027  0.95123786  0.91698636  1
  S  S17  1  0.66704213  0.95274685  0.91669172  1
  S  S18  1  0.31112292  0.95369502  0.41724379  1
  S  S19  1  0.16773868  0.38198417  0.41640725  1
  S  S20  1  0.66508708  0.37876219  0.41698566  1
  O  O0  1  0.09473078  0.03385989  0.30704280  1
  O  O1  1  0.60830303  0.03780264  0.30451452  1
  O  O2  1  0.41394037  0.79050550  0.30583772  1
  O  O3  1  0.91102328  0.78392441  0.30272821  1
  O  O4  1  0.48324464  0.15602346  0.31106851  1
  O  O5  1  0.98039638  0.17707671  0.30304471  1
  O  O6  1  0.10623019  0.17709218  0.80492306  1
  O  O7  1  0.59712048  0.15866255  0.80754448  1
  O  O8  1  0.47780014  0.79510775  0.80845667  1
  O  O9  1  0.98327450  0.81005632  0.81106510  1
  O  O10  1  0.40979108  0.04012363  0.80296136  1
  O  O11  1  0.91541400  0.04024962  0.80578585  1
  O  O12  1  0.39168505  0.96685366  0.69393862  1
  O  O13  1  0.89876527  0.97180169  0.69673129  1
  O  O14  1  0.08866246  0.20804439  0.69564563  1
  O  O15  1  0.57668529  0.19416776  0.68692874  1
  O  O16  1  0.01699381  0.84021709  0.69368553  1
  O  O17  1  0.51725799  0.83076852  0.68957842  1
  O  O18  1  0.39716945  0.82494746  0.19694582  1
  O  O19  1  0.89337176  0.81885452  0.19389606  1
  O  O20  1  0.01385567  0.20871935  0.19429191  1
  O  O21  1  0.51704673  0.19353501  0.19381840  1
  O  O22  1  0.07577562  0.96247550  0.18851761  1
  O  O23  1  0.59033406  0.97197526  0.19545640  1
  O  O24  1  0.44068673  0.37090867  0.63764555  1
  O  O25  1  0.92917420  0.36307305  0.64143756  1
  O  O26  1  0.24733357  0.12644910  0.63962458  1
  O  O27  1  0.74432901  0.12175550  0.63677156  1
  O  O28  1  0.31156833  0.49337568  0.64094834  1
  O  O29  1  0.81516849  0.51347196  0.63673754  1
  O  O30  1  0.42974489  0.49623079  0.14159343  1
  O  O31  1  0.94030080  0.51052713  0.13909835  1
  O  O32  1  0.31532929  0.11709102  0.13724737  1
  O  O33  1  0.81354584  0.12858492  0.14278820  1
  O  O34  1  0.24342256  0.36559439  0.13779316  1
  O  O35  1  0.74667441  0.36993136  0.14016328  1
  O  O36  1  0.22520904  0.29867946  0.02947528  1
  O  O37  1  0.73139576  0.30304029  0.03008881  1
  O  O38  1  0.41449894  0.53523616  0.02579014  1
  O  O39  1  0.92108454  0.54208676  0.03015645  1
  O  O40  1  0.34584485  0.15091279  0.02864385  1
  O  O41  1  0.85207188  0.17123140  0.02766124  1
  O  O42  1  0.23129792  0.15869205  0.52936442  1
  O  O43  1  0.72796459  0.15280676  0.52840565  1
  O  O44  1  0.35163576  0.53488031  0.52723593  1
  O  O45  1  0.84571990  0.54045812  0.52806224  1
  O  O46  1  0.42169415  0.30250880  0.52922954  1
  O  O47  1  0.91533516  0.29533648  0.52519086  1
  O  O48  1  0.26910704  0.71057409  0.97690823  1
  O  O49  1  0.77391848  0.70379655  0.97204160  1
  O  O50  1  0.08199648  0.46021594  0.97711639  1
  O  O51  1  0.59145296  0.47536096  0.97813552  1
  O  O52  1  0.14670728  0.83773277  0.97231256  1
  O  O53  1  0.65315664  0.84642091  0.97253143  1
  O  O54  1  0.27292543  0.84238345  0.47107054  1
  O  O55  1  0.76852983  0.82551018  0.47629869  1
  O  O56  1  0.15223194  0.46002245  0.47117126  1
  O  O57  1  0.64727385  0.45602583  0.47162421  1
  O  O58  1  0.09302679  0.70782852  0.47720348  1
  O  O59  1  0.58337153  0.70481849  0.47629583  1
  O  O60  1  0.06874815  0.63093219  0.35907560  1
  O  O61  1  0.56209566  0.62607525  0.35655895  1
  O  O62  1  0.25553302  0.87077196  0.36182174  1
  O  O63  1  0.74518484  0.85479504  0.35390986  1
  O  O64  1  0.18370978  0.48998357  0.36188441  1
  O  O65  1  0.68408040  0.49168731  0.36197100  1
  O  O66  1  0.06353841  0.50109795  0.85657600  1
  O  O67  1  0.56750611  0.50627493  0.85993388  1
  O  O68  1  0.18384314  0.87611203  0.86249481  1
  O  O69  1  0.68602191  0.87983426  0.86315859  1
  O  O70  1  0.24437181  0.63387358  0.85485804  1
  O  O71  1  0.75669798  0.63957701  0.86257518  1
  O  O72  1  0.01522672  0.84184872  0.41086805  1
  O  O73  1  0.51165031  0.85124554  0.40345367  1
  O  O74  1  0.40186878  0.97217146  0.40967460  1
  O  O75  1  0.90796523  0.97788214  0.40582945  1
  O  O76  1  0.08512851  0.20099255  0.41077744  1
  O  O77  1  0.58336205  0.19722932  0.40901274  1
  O  O78  1  0.01177696  0.17209804  0.90387414  1
  O  O79  1  0.51431704  0.18226225  0.91120359  1
  O  O80  1  0.08348993  0.96933633  0.90947245  1
  O  O81  1  0.58677313  0.97202010  0.91263833  1
  O  O82  1  0.40809350  0.84147368  0.90983715  1
  O  O83  1  0.90323183  0.83195671  0.91086123  1
  O  O84  1  0.48693877  0.17120670  0.58989611  1
  O  O85  1  0.98907751  0.15379380  0.59300912  1
  O  O86  1  0.10080927  0.02836269  0.58987066  1
  O  O87  1  0.59756790  0.02347182  0.58813636  1
  O  O88  1  0.42362052  0.83205505  0.59463587  1
  O  O89  1  0.91075886  0.80298659  0.58919230  1
  O  O90  1  0.48922924  0.82348566  0.09453189  1
  O  O91  1  0.98610216  0.80267428  0.09064470  1
  O  O92  1  0.41048495  0.01830084  0.08998894  1
  O  O93  1  0.92448967  0.02179325  0.09699795  1
  O  O94  1  0.09574365  0.17226550  0.09078436  1
  O  O95  1  0.60067407  0.17227220  0.09031894  1
  O  O96  1  0.34287658  0.16553956  0.74039250  1
  O  O97  1  0.84753264  0.16076407  0.74414528  1
  O  O98  1  0.23480758  0.30051408  0.74355319  1
  O  O99  1  0.74102620  0.30073856  0.73855196  1
  O  O100  1  0.40868277  0.50375870  0.74235989  1
  O  O101  1  0.91623071  0.52349434  0.74456082  1
  O  O102  1  0.34616288  0.53270124  0.24411799  1
  O  O103  1  0.84630018  0.52018451  0.24099524  1
  O  O104  1  0.41635130  0.30905351  0.24457883  1
  O  O105  1  0.91634947  0.31196317  0.24205595  1
  O  O106  1  0.24123515  0.17919551  0.23976984  1
  O  O107  1  0.73830477  0.17180175  0.24369798  1
  O  O108  1  0.31259142  0.48620662  0.92190048  1
  O  O109  1  0.82086427  0.50587668  0.92525913  1
  O  O110  1  0.42514074  0.35377923  0.92593435  1
  O  O111  1  0.92628945  0.35644272  0.92392325  1
  O  O112  1  0.24486581  0.13089348  0.92517486  1
  O  O113  1  0.74746208  0.14004846  0.92483919  1
  O  O114  1  0.31946286  0.13381214  0.42320054  1
  O  O115  1  0.81370390  0.14017890  0.42161006  1
  O  O116  1  0.24650157  0.35379195  0.42355535  1
  O  O117  1  0.74486776  0.35852054  0.42414780  1
  O  O118  1  0.42502480  0.49443110  0.42371638  1
  O  O119  1  0.92382519  0.49477773  0.42463728  1
  O  O120  1  0.17833320  0.50056113  0.07740085  1
  O  O121  1  0.68247809  0.49777660  0.07792327  1
  O  O122  1  0.07040940  0.64444194  0.07624559  1
  O  O123  1  0.57732134  0.64455299  0.07518023  1
  O  O124  1  0.24615017  0.85489258  0.07585773  1
  O  O125  1  0.74802350  0.84161492  0.06961633  1
  O  O126  1  0.18254358  0.86767497  0.57749173  1
  O  O127  1  0.67979870  0.85766400  0.57683260  1
  O  O128  1  0.24733958  0.65143925  0.56912488  1
  O  O129  1  0.74631625  0.63710374  0.57513959  1
  O  O130  1  0.07559925  0.50923995  0.57466375  1
  O  O131  1  0.57117245  0.49930399  0.57488154  1
  O  O132  1  0.15339206  0.83030015  0.25856648  1
  O  O133  1  0.65583779  0.84056476  0.25577144  1
  O  O134  1  0.26672667  0.69475707  0.25884324  1
  O  O135  1  0.76463104  0.68701013  0.25648674  1
  O  O136  1  0.08018763  0.46631149  0.25598835  1
  O  O137  1  0.59603029  0.49091828  0.26109157  1
  O  O138  1  0.15469314  0.46990148  0.75574306  1
  O  O139  1  0.65655296  0.47698231  0.75777217  1
  O  O140  1  0.09562157  0.70084098  0.76100908  1
  O  O141  1  0.58680206  0.69624938  0.75771908  1
  O  O142  1  0.26319850  0.83822932  0.75711164  1
  O  O143  1  0.76884209  0.83879095  0.75853353  1
loop_
_geom_bond_atom_site_label_1
_geom_bond_atom_site_label_2
_geom_bond_distance
_geom_bond_site_symmetry_2
Na0 O85 2.492717 1_565
Na0 O72 2.507194 1_655
Na0 O75 2.531200 1_555
Na0 O89 2.553406 1_555
Na0 O76 2.578397 1_665
Na0 O86 2.589643 1_665
Na1 O82 2.383052 1_555
Na1 O79 2.395369 1_565
Na1 O81 2.505731 1_555
Na1 O90 2.606364 1_556
Na1 O92 2.625364 1_566
Na1 O95 2.656179 1_566
Na2 O100 2.432653 1_555
Na2 O108 2.479686 1_555
Na2 O110 2.506207 1_555
Na2 O98 2.553513 1_555
Na2 O96 2.582665 1_555
Na2 O112 2.661189 1_555
Na3 O101 2.470564 1_555
Na3 O99 2.507244 1_555
Na3 O111 2.548138 1_555
Na3 O97 2.555184 1_555
Na3 O109 2.598074 1_555
Na3 O113 2.623957 1_555
Na4 O104 2.476071 1_555
Na4 O118 2.505707 1_555
Na4 O106 2.511601 1_555
Na4 O102 2.555780 1_555
Na4 O114 2.563997 1_555
Na4 O116 2.605257 1_555
Na5 O115 2.440491 1_555
Na5 O119 2.457488 1_555
Na5 O107 2.530497 1_555
Na5 O105 2.580517 1_555
Na5 O117 2.581073 1_555
Na5 O103 2.587120 1_555
Ge0 O73 1.768093 1_545
Ge0 O4 1.769661 1_555
Ge0 O74 1.946789 1_545
Ge0 O77 1.957271 1_555
Ge0 O2 1.988942 1_545
Ge0 O1 2.117380 1_555
Ge1 O9 1.768404 1_555
Ge1 O78 1.775345 1_665
Ge1 O83 1.937597 1_555
Ge1 O11 1.964517 1_565
Ge1 O80 1.990952 1_655
Ge1 O6 2.101714 1_665
Ge2 O17 1.759051 1_555
Ge2 O15 1.779059 1_565
Ge2 O88 1.791837 1_555
Ge2 O87 2.013973 1_565
Ge2 O12 2.096292 1_555
Ge2 O84 2.139544 1_565
Ge3 O93 1.756367 1_455
Ge3 O22 1.760006 1_545
Ge3 O94 1.930662 1_555
Ge3 O91 1.969939 1_445
Ge3 O20 2.022194 1_555
Ge3 O19 2.086862 1_445
Ge4 O28 1.772486 1_555
Ge4 O100 1.783557 1_555
Ge4 O24 1.991807 1_555
Ge4 O26 2.030647 1_555
Ge4 O96 2.058554 1_555
Ge4 O98 2.076972 1_555
Ge5 O33 1.759631 1_555
Ge5 O35 1.912897 1_555
Ge5 O31 1.974214 1_555
Ge5 O105 2.016063 1_555
Ge5 O107 2.051085 1_555
Ge5 O103 2.055518 1_555
Ge6 O48 1.754013 1_554
Ge6 O50 1.773880 1_554
Ge6 O120 1.965743 1_555
Ge6 O52 2.036269 1_554
Ge6 O124 2.064956 1_555
Ge6 O122 2.159445 1_555
Ge7 O123 1.781764 1_555
Ge7 O51 1.783724 1_554
Ge7 O125 1.789409 1_555
Ge7 O53 1.973246 1_554
Ge7 O121 2.046472 1_555
Ge7 O49 2.140766 1_554
Ge8 O130 1.759434 1_555
Ge8 O128 1.762452 1_555
Ge8 O58 1.802086 1_555
Ge8 O126 1.968532 1_555
Ge8 O56 2.057874 1_555
Ge8 O54 2.164388 1_555
Ge9 O59 1.782098 1_555
Ge9 O55 1.787401 1_555
Ge9 O127 1.909338 1_555
Ge9 O129 2.038233 1_555
Ge9 O57 2.078371 1_555
Ge9 O131 2.083479 1_555
Ge10 O61 1.769331 1_555
Ge10 O63 1.781388 1_555
Ge10 O137 1.782370 1_555
Ge10 O65 1.998321 1_555
Ge10 O133 2.051305 1_555
Ge10 O135 2.192010 1_555
Ge11 O70 1.781233 1_555
Ge11 O140 1.785576 1_555
Ge11 O66 1.788652 1_555
Ge11 O68 2.019972 1_555
Ge11 O138 2.023067 1_555
Ge11 O142 2.117338 1_555
O0 Si0 1.628959 1_555
O0 Ti0 1.847766 1_545
O1 S0 1.484670 1_555
O2 S1 1.500381 1_555
O3 S2 1.486240 1_555
O3 Ti0 2.058502 1_655
O4 Si1 1.642012 1_555
O5 S3 1.467812 1_555
O5 Ti0 2.188071 1_645
O6 S4 1.485286 1_555
O7 Si2 1.624179 1_555
O7 Ti1 1.857367 1_545
O8 Si4 1.620968 1_555
O8 Ti1 1.871939 1_555
O9 Si3 1.639890 1_655
O10 S5 1.482483 1_545
O10 Ti1 2.059647 1_545
O11 S6 1.506128 1_545
O12 S5 1.478184 1_555
O13 S6 1.489181 1_555
O13 Ti2 1.993284 1_655
O14 S4 1.489327 1_555
O14 Ti2 1.988589 1_545
O15 Si2 1.635301 1_555
O16 Si3 1.644212 1_555
O16 Ti2 1.817539 1_555
O17 Si4 1.602394 1_555
O18 S1 1.482002 1_555
O18 Ti3 2.022951 1_565
O19 S2 1.481989 1_555
O20 S3 1.477264 1_455
O21 Si1 1.639965 1_555
O21 Ti3 1.826280 1_555
O22 Si0 1.631859 1_565
O23 S0 1.481962 1_565
O23 Ti3 2.032094 1_565
O24 S7 1.506043 1_555
O25 Si5 1.616719 1_555
O25 Ti4 1.850558 1_555
O26 S8 1.500740 1_555
O27 S9 1.463897 1_555
O27 Ti4 2.166226 1_555
O28 Si6 1.639056 1_555
O29 S10 1.473965 1_555
O29 Ti4 2.053569 1_555
O30 Si7 1.632564 1_555
O30 Ti5 1.824430 1_555
O31 S11 1.523255 1_555
O32 S12 1.480872 1_555
O32 Ti5 2.029105 1_555
O33 Si8 1.653015 1_555
O34 S13 1.467112 1_555
O34 Ti5 2.169356 1_555
O35 S14 1.529941 1_555
O36 S13 1.468849 1_555
O36 Ti6 2.182790 1_554
O37 S14 1.463073 1_555
O37 Ti7 2.165360 1_554
O38 Si7 1.633898 1_555
O38 Ti6 1.794676 1_554
O39 S11 1.478110 1_555
O39 Ti7 2.029481 1_554
O40 S12 1.462522 1_555
O40 Ti6 2.185871 1_554
O41 Si8 1.654613 1_555
O41 Ti7 1.780746 1_554
O42 S8 1.473175 1_555
O42 Ti8 2.138701 1_555
O43 S9 1.484433 1_555
O43 Ti9 2.082481 1_555
O44 Si6 1.671936 1_555
O44 Ti8 1.754185 1_555
O45 S10 1.472084 1_555
O45 Ti9 2.157173 1_555
O46 S7 1.504544 1_555
O46 Ti8 1.960168 1_555
O47 Si5 1.651217 1_555
O47 Ti9 1.775183 1_555
O48 Si9 1.647761 1_555
O49 S15 1.478201 1_555
O50 Si10 1.634191 1_555
O51 Si11 1.636924 1_555
O52 S16 1.503489 1_555
O53 S17 1.488761 1_555
O54 S18 1.470083 1_555
O55 Si12 1.635050 1_555
O56 S19 1.477564 1_555
O57 S20 1.488480 1_555
O58 Si13 1.615880 1_555
O59 Si14 1.626430 1_555
O60 Si13 1.638808 1_555
O60 Ti10 1.798548 1_555
O61 Si14 1.614727 1_555
O62 S18 1.493017 1_555
O62 Ti10 2.006471 1_555
O63 Si12 1.630107 1_555
O64 S19 1.467419 1_555
O64 Ti10 2.173213 1_555
O65 S20 1.493450 1_555
O66 Si10 1.609328 1_555
O67 Si11 1.622804 1_555
O67 Ti11 1.815964 1_555
O68 S16 1.485435 1_555
O69 S17 1.456957 1_555
O69 Ti11 2.222371 1_555
O70 Si9 1.628915 1_555
O71 S15 1.464705 1_555
O71 Ti11 2.168390 1_555
O72 Si13 1.636678 1_555
O72 Ti0 1.820786 1_555
O73 Si14 1.629795 1_555
O74 S18 1.494330 1_555
O75 Si12 1.627693 1_555
O75 Ti0 1.894358 1_655
O76 S19 1.489773 1_555
O76 Ti0 2.018493 1_545
O77 S20 1.490739 1_555
O78 Si10 1.624070 1_555
O79 Si11 1.607543 1_555
O79 Ti1 1.945952 1_545
O80 S16 1.484827 1_555
O81 S17 1.467638 1_555
O81 Ti1 2.085418 1_555
O82 Si9 1.601543 1_555
O82 Ti1 1.944412 1_555
O83 S15 1.506193 1_555
O84 S7 1.459045 1_555
O85 Si5 1.632460 1_555
O85 Ti2 1.889065 1_645
O86 S8 1.495553 1_555
O86 Ti2 2.056817 1_545
O87 S9 1.479551 1_555
O88 Si6 1.609203 1_555
O89 S10 1.503991 1_555
O89 Ti2 2.042605 1_655
O90 Si7 1.640244 1_555
O90 Ti3 1.861461 1_565
O91 S11 1.482444 1_555
O92 S12 1.509401 1_555
O92 Ti3 2.004886 1_555
O93 Si8 1.623738 1_555
O94 S13 1.505567 1_555
O95 S14 1.495111 1_555
O95 Ti3 2.031500 1_555
O96 S5 1.527225 1_545
O97 S6 1.481242 1_545
O97 Ti4 2.050482 1_555
O98 S4 1.498710 1_555
O99 Si2 1.634387 1_555
O99 Ti4 1.869665 1_555
O100 Si4 1.659644 1_555
O101 Si3 1.638676 1_655
O101 Ti4 1.834171 1_555
O102 S1 1.477271 1_555
O102 Ti5 2.064854 1_555
O103 S2 1.548772 1_555
O104 Si1 1.640979 1_555
O104 Ti5 1.837643 1_555
O105 S3 1.530758 1_555
O106 Si0 1.610874 1_555
O106 Ti5 1.917951 1_555
O107 S0 1.525986 1_555
O108 Si9 1.647327 1_555
O108 Ti6 1.819689 1_555
O109 S15 1.496627 1_555
O109 Ti7 2.121138 1_555
O110 Si11 1.654022 1_555
O110 Ti6 1.820913 1_555
O111 Si10 1.661968 1_655
O111 Ti7 1.798497 1_555
O112 S16 1.470574 1_545
O112 Ti6 2.117141 1_555
O113 S17 1.511233 1_545
O113 Ti7 1.972390 1_555
O114 S18 1.480234 1_545
O114 Ti8 2.187550 1_555
O115 Si12 1.640771 1_545
O115 Ti9 1.838179 1_555
O116 S19 1.492908 1_555
O116 Ti8 2.062975 1_555
O117 S20 1.469390 1_555
O117 Ti9 2.143636 1_555
O118 Si14 1.655692 1_555
O118 Ti8 1.819347 1_555
O119 Si13 1.623389 1_655
O119 Ti9 1.879008 1_555
O120 S13 1.514840 1_555
O121 S14 1.457216 1_555
O122 S11 1.476116 1_455
O123 Si7 1.597181 1_555
O124 S12 1.494199 1_565
O125 Si8 1.600549 1_565
O126 S8 1.474174 1_565
O127 S9 1.523801 1_565
O128 Si6 1.609358 1_555
O129 S10 1.497144 1_555
O130 Si5 1.596408 1_455
O131 S7 1.490180 1_555
O132 Si0 1.650946 1_565
O132 Ti10 1.779255 1_555
O133 S0 1.471904 1_565
O134 S1 1.461517 1_555
O134 Ti10 2.098980 1_555
O135 S2 1.459011 1_555
O136 S3 1.474246 1_455
O136 Ti10 2.008004 1_555
O137 Si1 1.617417 1_555
O138 S4 1.474647 1_555
O139 Si2 1.627156 1_555
O139 Ti11 1.787903 1_555
O140 Si3 1.612962 1_555
O141 Si4 1.618182 1_555
O141 Ti11 1.785170 1_555
O142 S5 1.471782 1_555
O143 S6 1.440540 1_555
O143 Ti11 2.134737 1_555
