# generated using pymatgen
data_NaZr4P5SO24
_symmetry_space_group_name_H-M   'P 1'
_cell_length_a   8.94575508
_cell_length_b   8.95478287
_cell_length_c   23.32752074
_cell_angle_alpha   90.01972211
_cell_angle_beta   89.94214806
_cell_angle_gamma   120.03248802
_symmetry_Int_Tables_number   1
_chemical_formula_structural   NaZr4P5SO24
_chemical_formula_sum   'Na3 Zr12 P15 S3 O72'
_cell_volume   1617.81471657
_cell_formula_units_Z   3
loop_
 _symmetry_equiv_pos_site_id
 _symmetry_equiv_pos_as_xyz
  1  'x, y, z'
loop_
 _atom_site_type_symbol
 _atom_site_label
 _atom_site_symmetry_multiplicity
 _atom_site_fract_x
 _atom_site_fract_y
 _atom_site_fract_z
 _atom_site_occupancy
  Na  Na0  1  0.67035600  0.33760748  0.83466347  1
  Na  Na1  1  0.66717433  0.33397187  0.33093831  1
  Na  Na2  1  0.33349189  0.66736051  0.16740243  1
  Zr  Zr0  1  0.00083650  0.00009991  0.35481118  1
  Zr  Zr1  1  0.99358361  0.99968147  0.85566488  1
  Zr  Zr2  1  0.00542156  0.99914676  0.64748581  1
  Zr  Zr3  1  0.99913079  0.00010722  0.14452493  1
  Zr  Zr4  1  0.66203125  0.32639854  0.68882366  1
  Zr  Zr5  1  0.66671314  0.33266865  0.18697213  1
  Zr  Zr6  1  0.67265468  0.33926094  0.98281547  1
  Zr  Zr7  1  0.65891370  0.32777926  0.47698018  1
  Zr  Zr8  1  0.33541892  0.66029308  0.02125480  1
  Zr  Zr9  1  0.33328489  0.67233100  0.51842013  1
  Zr  Zr10  1  0.33272105  0.66607865  0.31229030  1
  Zr  Zr11  1  0.33126316  0.65931044  0.80972411  1
  P  P0  1  0.28820881  -0.00006718  0.24983526  1
  P  P1  1  0.71193594  0.71143014  0.25002274  1
  P  P2  1  -0.00040526  0.28788133  0.25002333  1
  P  P3  1  0.28689914  0.28536604  0.75065161  1
  P  P4  1  0.99904705  0.71117529  0.75076643  1
  P  P5  1  0.71210994  -0.00096370  0.74990379  1
  P  P6  1  0.37774085  0.04383661  0.58326796  1
  P  P7  1  0.95870434  0.62443233  0.08421885  1
  P  P8  1  0.66544935  0.04324633  0.08346101  1
  P  P9  1  0.37767143  0.33186791  0.08380994  1
  P  P10  1  0.62034409  0.66373014  0.91596323  1
  P  P11  1  0.04374300  0.37892156  0.91610812  1
  P  P12  1  0.62291416  0.95455987  0.41609411  1
  P  P13  1  0.33149042  0.37889414  0.41673525  1
  P  P14  1  0.04308828  0.66606611  0.41639522  1
  S  S0  1  0.95586063  0.33304952  0.58322490  1
  S  S1  1  0.66629180  0.62229095  0.58333249  1
  S  S2  1  0.33395967  0.95597240  0.91616362  1
  O  O0  1  0.20512632  0.02683728  0.30380162  1
  O  O1  1  0.82196153  0.79507582  0.30385110  1
  O  O2  1  0.97293749  0.17797383  0.30387363  1
  O  O3  1  0.20567772  0.17294810  0.80361077  1
  O  O4  1  0.96885921  0.79528876  0.80348229  1
  O  O5  1  0.82620091  0.03182209  0.80316705  1
  O  O6  1  0.79707395  0.97453628  0.69609556  1
  O  O7  1  0.17733320  0.20306838  0.69640608  1
  O  O8  1  0.02517063  0.82204450  0.69653188  1
  O  O9  1  0.79483921  0.82181417  0.19640082  1
  O  O10  1  0.02721439  0.20528618  0.19638427  1
  O  O11  1  0.17790654  0.97278382  0.19632749  1
  O  O12  1  0.87526221  0.36171478  0.63467372  1
  O  O13  1  0.49316041  0.13242259  0.63627979  1
  O  O14  1  0.64037463  0.51414142  0.63469243  1
  O  O15  1  0.87314585  0.50783948  0.13665185  1
  O  O16  1  0.63529170  0.12791684  0.13651007  1
  O  O17  1  0.49286523  0.36441536  0.13668929  1
  O  O18  1  0.46324142  0.30794198  0.02964318  1
  O  O19  1  0.84622231  0.53888013  0.03013017  1
  O  O20  1  0.69128833  0.15533025  0.02965058  1
  O  O21  1  0.46558211  0.15990852  0.53065413  1
  O  O22  1  0.69583004  0.54251173  0.53223090  1
  O  O23  1  0.84745850  0.30652577  0.53223622  1
  O  O24  1  0.53707812  0.69276683  0.96951872  1
  O  O25  1  0.15499770  0.46484674  0.96955306  1
  O  O26  1  0.30794012  0.85124995  0.96788208  1
  O  O27  1  0.53707000  0.84478210  0.47037198  1
  O  O28  1  0.30903302  0.46505589  0.47087753  1
  O  O29  1  0.15494307  0.69133936  0.47041888  1
  O  O30  1  0.12660592  0.63396872  0.36371706  1
  O  O31  1  0.50704373  0.87289781  0.36354702  1
  O  O32  1  0.36511680  0.49333998  0.36367153  1
  O  O33  1  0.12921725  0.49318685  0.86293035  1
  O  O34  1  0.36208276  0.87656484  0.86479583  1
  O  O35  1  0.50726796  0.63840669  0.86287702  1
  O  O36  1  0.02413298  0.82452563  0.40812562  1
  O  O37  1  0.80117968  0.97567266  0.40815350  1
  O  O38  1  0.17531930  0.19978775  0.40821368  1
  O  O39  1  0.02651914  0.20084528  0.90686508  1
  O  O40  1  0.18054068  0.97468809  0.90820388  1
  O  O41  1  0.80012958  0.82327832  0.90701703  1
  O  O42  1  0.97282296  0.17897473  0.59187220  1
  O  O43  1  0.19919143  0.02545285  0.59306243  1
  O  O44  1  0.81948367  0.79475881  0.59177238  1
  O  O45  1  0.97570054  0.80096008  0.09236947  1
  O  O46  1  0.82422492  0.02440185  0.09221851  1
  O  O47  1  0.19935604  0.17470265  0.09222135  1
  O  O48  1  0.69323874  0.16216433  0.74218258  1
  O  O49  1  0.47041043  0.30933391  0.74202917  1
  O  O50  1  0.83841715  0.52974291  0.74107633  1
  O  O51  1  0.69053372  0.52926216  0.24328251  1
  O  O52  1  0.83877311  0.30945784  0.24339312  1
  O  O53  1  0.47063094  0.16107467  0.24331340  1
  O  O54  1  0.64028270  0.50243630  0.92310146  1
  O  O55  1  0.86080180  0.35598291  0.92307356  1
  O  O56  1  0.48897017  0.13084359  0.92271098  1
  O  O57  1  0.64260764  0.13651335  0.42497191  1
  O  O58  1  0.49515477  0.36010776  0.42479948  1
  O  O59  1  0.86253848  0.50429382  0.42614231  1
  O  O60  1  0.35862021  0.49456169  0.07635823  1
  O  O61  1  0.13876366  0.64345034  0.07515814  1
  O  O62  1  0.50322748  0.86290706  0.07515643  1
  O  O63  1  0.35867924  0.86548287  0.57403351  1
  O  O64  1  0.51241390  0.63953822  0.57530157  1
  O  O65  1  0.12820470  0.48596561  0.57531206  1
  O  O66  1  0.30944720  0.83901023  0.25710822  1
  O  O67  1  0.52962294  0.69052094  0.25717005  1
  O  O68  1  0.16083971  0.47023939  0.25708131  1
  O  O69  1  0.30828970  0.46534809  0.75822747  1
  O  O70  1  0.15867184  0.69263912  0.75959683  1
  O  O71  1  0.53245645  0.84318782  0.75977167  1
loop_
_geom_bond_atom_site_label_1
_geom_bond_atom_site_label_2
_geom_bond_distance
_geom_bond_site_symmetry_2
Na0 O54 2.627044 1_555
Na0 O55 2.628555 1_555
Na0 O56 2.695980 1_555
Na0 O50 2.719085 1_555
Na0 O48 2.735501 1_555
Na0 O49 2.736267 1_555
Na1 O52 2.627919 1_555
Na1 O51 2.630377 1_555
Na1 O53 2.635700 1_555
Na1 O58 2.751416 1_555
Na1 O57 2.756682 1_555
Na1 O59 2.765903 1_555
Na2 O66 2.667538 1_555
Na2 O68 2.672969 1_555
Na2 O67 2.673831 1_555
Na2 O60 2.701950 1_555
Na2 O62 2.708675 1_555
Na2 O61 2.710103 1_555
O0 P0 1.540265 1_555
O0 Zr0 2.090674 1_555
O1 P1 1.539622 1_555
O1 Zr0 2.099060 1_665
O2 P2 1.539107 1_655
O2 Zr0 2.100268 1_655
O3 P3 1.527889 1_555
O3 Zr1 2.128773 1_445
O4 P4 1.534537 1_555
O4 Zr1 2.115296 1_555
O5 P5 1.540797 1_555
O5 Zr1 2.063981 1_545
O6 P5 1.538244 1_565
O6 Zr2 2.095948 1_655
O7 P3 1.543987 1_555
O7 Zr2 2.047682 1_545
O8 P4 1.552074 1_455
O8 Zr2 2.034076 1_555
O9 P1 1.535229 1_555
O9 Zr3 2.104657 1_565
O10 P2 1.534737 1_555
O10 Zr3 2.106998 1_455
O11 P0 1.533923 1_565
O11 Zr3 2.115103 1_465
O12 S0 1.486428 1_555
O12 Zr4 2.173894 1_555
O13 P6 1.551343 1_555
O13 Zr4 2.043863 1_555
O14 S1 1.484111 1_555
O14 Zr4 2.187800 1_555
O15 P7 1.539814 1_555
O15 Zr5 2.084718 1_555
O16 P8 1.543536 1_555
O16 Zr5 2.075995 1_555
O17 P9 1.539539 1_555
O17 Zr5 2.078895 1_555
O18 P9 1.546134 1_555
O18 Zr6 2.061937 1_554
O19 P7 1.556185 1_555
O19 Zr6 2.012033 1_554
O20 P8 1.550664 1_555
O20 Zr6 2.051994 1_554
O21 P6 1.544536 1_555
O21 Zr7 2.052590 1_555
O22 S1 1.479519 1_555
O22 Zr7 2.198002 1_555
O23 S0 1.477550 1_555
O23 Zr7 2.206460 1_555
O24 P10 1.541107 1_555
O24 Zr8 2.065487 1_556
O25 P11 1.540206 1_555
O25 Zr8 2.073079 1_556
O26 S2 1.473383 1_555
O26 Zr8 2.226533 1_556
O27 P12 1.550004 1_555
O27 Zr9 2.035559 1_555
O28 P13 1.544286 1_555
O28 Zr9 2.078021 1_555
O29 P14 1.554458 1_555
O29 Zr9 2.025757 1_555
O30 P14 1.537448 1_555
O30 Zr10 2.094453 1_555
O31 P12 1.534589 1_555
O31 Zr10 2.098288 1_555
O32 P13 1.537717 1_555
O32 Zr10 2.089025 1_555
O33 P11 1.544765 1_555
O33 Zr11 2.079826 1_555
O34 S2 1.477390 1_555
O34 Zr11 2.230104 1_555
O35 P10 1.543031 1_555
O35 Zr11 2.085812 1_555
O36 P14 1.523335 1_555
O36 Zr0 2.095701 1_565
O37 P12 1.520138 1_555
O37 Zr0 2.095460 1_665
O38 P13 1.523522 1_555
O38 Zr0 2.096259 1_555
O39 P11 1.538499 1_555
O39 Zr1 2.055788 1_445
O40 S2 1.475452 1_555
O40 Zr1 2.174482 1_455
O41 P10 1.539777 1_555
O41 Zr1 2.045961 1_555
O42 S0 1.475508 1_555
O42 Zr2 2.198521 1_645
O43 P6 1.538385 1_555
O43 Zr2 2.063745 1_545
O44 S1 1.477763 1_555
O44 Zr2 2.181984 1_655
O45 P7 1.522289 1_555
O45 Zr3 2.080693 1_565
O46 P8 1.525839 1_555
O46 Zr3 2.080652 1_555
O47 P9 1.521882 1_555
O47 Zr3 2.082090 1_455
O48 P5 1.562657 1_555
O48 Zr4 2.050156 1_555
O49 P3 1.558269 1_555
O49 Zr4 2.058130 1_555
O50 P4 1.555331 1_555
O50 Zr4 2.101803 1_555
O51 P1 1.552318 1_555
O51 Zr5 2.119802 1_555
O52 P2 1.552334 1_655
O52 Zr5 2.114037 1_555
O53 P0 1.552737 1_555
O53 Zr5 2.112847 1_555
O54 P10 1.550418 1_555
O54 Zr6 2.141295 1_555
O55 P11 1.552377 1_655
O55 Zr6 2.130878 1_555
O56 S2 1.491659 1_545
O56 Zr6 2.254381 1_555
O57 P12 1.562444 1_545
O57 Zr7 2.043411 1_555
O58 P13 1.566654 1_555
O58 Zr7 2.034680 1_555
O59 P14 1.554473 1_655
O59 Zr7 2.082746 1_555
O60 P9 1.559024 1_555
O60 Zr8 2.051365 1_555
O61 P7 1.546932 1_455
O61 Zr8 2.104481 1_555
O62 P8 1.551101 1_565
O62 Zr8 2.098181 1_555
O63 P6 1.534112 1_565
O63 Zr9 2.081351 1_555
O64 S1 1.472142 1_555
O64 Zr9 2.211406 1_555
O65 S0 1.473936 1_455
O65 Zr9 2.200927 1_555
O66 P0 1.554261 1_565
O66 Zr10 2.103114 1_555
O67 P1 1.554536 1_555
O67 Zr10 2.100857 1_555
O68 P2 1.554634 1_555
O68 Zr10 2.098011 1_555
O69 P3 1.535119 1_555
O69 Zr11 2.035651 1_555
O70 P4 1.531973 1_455
O70 Zr11 2.074943 1_555
O71 P5 1.529024 1_565
O71 Zr11 2.083043 1_555
