# generated using pymatgen
data_Er2MgV2O8
_symmetry_space_group_name_H-M   'P 1'
_cell_length_a   5.94941938
_cell_length_b   6.20426656
_cell_length_c   5.94942058
_cell_angle_alpha   104.59597171
_cell_angle_beta   106.58061168
_cell_angle_gamma   115.67591180
_symmetry_Int_Tables_number   1
_chemical_formula_structural   Er2MgV2O8
_chemical_formula_sum   'Er2 Mg1 V2 O8'
_cell_volume   170.81369265
_cell_formula_units_Z   1
loop_
 _symmetry_equiv_pos_site_id
 _symmetry_equiv_pos_as_xyz
  1  'x, y, z'
loop_
 _atom_site_type_symbol
 _atom_site_label
 _atom_site_symmetry_multiplicity
 _atom_site_fract_x
 _atom_site_fract_y
 _atom_site_fract_z
 _atom_site_occupancy
  Er  Er0  1  0.15774300  0.92813100  0.30200200  1
  Er  Er1  1  0.87387100  0.07186900  0.72961200  1
  Mg  Mg0  1  0.74198200  0.50000000  0.74198200  1
  V  V0  1  0.35020000  0.64520300  0.75739300  1
  V  V1  1  0.61219000  0.35479700  0.20499700  1
  O  O0  1  0.76944600  0.33074200  0.99607300  1
  O  O1  1  0.73911900  0.80014800  0.94722000  1
  O  O2  1  0.38485800  0.79366200  0.54231100  1
  O  O3  1  0.83432900  0.71425500  0.46029800  1
  O  O4  1  0.24864900  0.20633800  0.09119600  1
  O  O5  1  0.16533100  0.66925800  0.93870400  1
  O  O6  1  0.24604300  0.28574500  0.62007400  1
  O  O7  1  0.64707100  0.19985200  0.43897000  1
loop_
_geom_bond_atom_site_label_1
_geom_bond_atom_site_label_2
_geom_bond_distance
_geom_bond_site_symmetry_2
Er0 O2 2.245282 1_555
Er0 O6 2.255260 1_565
Er0 O4 2.348193 1_565
Er0 O5 2.371126 1_554
Er0 O7 2.383697 1_565
Er0 O1 2.393733 1_454
Er0 O3 2.408632 1_455
Er1 O4 2.245282 1_656
Er1 O3 2.255260 1_545
Er1 O2 2.348192 1_545
Er1 O0 2.371126 1_555
Er1 O1 2.383701 1_545
Er1 O7 2.393740 1_555
Er1 O6 2.408632 1_655
Mg0 O1 1.962745 1_555
Mg0 O7 1.962746 1_555
Mg0 O5 2.054866 1_655
Mg0 O0 2.054866 1_555
Mg0 O6 2.427500 1_555
Mg0 O3 2.427500 1_555
O0 V1 1.770250 1_556
O1 V0 1.894028 1_555
O2 V0 1.763052 1_555
O3 V1 1.902714 1_555
O4 V1 1.763051 1_555
O5 V0 1.770250 1_555
O6 V0 1.902714 1_555
O7 V1 1.894022 1_555
