# generated using pymatgen
data_K2Na2La2MgNb2O10
_symmetry_space_group_name_H-M   'P 1'
_cell_length_a   5.71619577
_cell_length_b   5.71619577
_cell_length_c   9.40403974
_cell_angle_alpha   90.00000000
_cell_angle_beta   90.00000000
_cell_angle_gamma   90.00000000
_symmetry_Int_Tables_number   1
_chemical_formula_structural   K2Na2La2MgNb2O10
_chemical_formula_sum   'K2 Na2 La2 Mg1 Nb2 O10'
_cell_volume   307.27600244
_cell_formula_units_Z   1
loop_
 _symmetry_equiv_pos_site_id
 _symmetry_equiv_pos_as_xyz
  1  'x, y, z'
loop_
 _atom_site_type_symbol
 _atom_site_label
 _atom_site_symmetry_multiplicity
 _atom_site_fract_x
 _atom_site_fract_y
 _atom_site_fract_z
 _atom_site_occupancy
  K  K0  1  0.25000000  0.75000000  0.04971907  1
  K  K1  1  0.75000000  0.25000000  0.04971907  1
  Na  Na0  1  0.75000000  0.75000000  0.22738692  1
  Na  Na1  1  0.25000000  0.25000000  0.84217833  1
  La  La0  1  0.75000000  0.25000000  0.47199916  1
  La  La1  1  0.25000000  0.75000000  0.47199916  1
  Mg  Mg0  1  0.25000000  0.25000000  0.59508119  1
  Nb  Nb0  1  0.75000000  0.75000000  0.72187933  1
  Nb  Nb1  1  0.25000000  0.25000000  0.27211272  1
  O  O0  1  0.75000000  0.75000000  0.92162031  1
  O  O1  1  0.25000000  0.25000000  0.06295320  1
  O  O2  1  0.51156371  0.98843629  0.65513156  1
  O  O3  1  0.98843629  0.51156371  0.65513156  1
  O  O4  1  0.49237108  0.00762892  0.31187832  1
  O  O5  1  0.98843629  0.98843629  0.65513156  1
  O  O6  1  0.51156371  0.51156371  0.65513156  1
  O  O7  1  0.49237108  0.49237108  0.31187832  1
  O  O8  1  0.00762892  0.49237108  0.31187832  1
  O  O9  1  0.00762892  0.00762892  0.31187832  1
loop_
_geom_bond_atom_site_label_1
_geom_bond_atom_site_label_2
_geom_bond_distance
_geom_bond_site_symmetry_2
K0 O1 2.860806 1_555
K0 O1 2.860806 1_565
K0 O0 3.101596 1_554
K0 O0 3.101596 1_454
K0 O8 3.188439 1_555
K0 O9 3.188439 1_565
K0 O7 3.188439 1_555
K0 O4 3.188439 1_565
K1 O1 2.860806 1_555
K1 O1 2.860806 1_655
K1 O0 3.101596 1_554
K1 O0 3.101596 1_544
K1 O8 3.188439 1_655
K1 O7 3.188439 1_555
K1 O9 3.188439 1_655
K1 O4 3.188439 1_555
Na0 O9 2.229073 1_665
Na0 O4 2.229073 1_565
Na0 O7 2.229073 1_555
Na0 O8 2.229073 1_655
Na0 O0 2.875441 1_554
Na1 O1 2.076176 1_556
Na1 O6 2.750456 1_555
Na1 O2 2.750456 1_545
Na1 O3 2.750456 1_455
Na1 O5 2.750456 1_445
La0 O4 2.521021 1_555
La0 O8 2.521021 1_655
La0 O9 2.521021 1_655
La0 O7 2.521021 1_555
La0 O6 2.656881 1_555
La0 O3 2.656881 1_555
La0 O5 2.656881 1_545
La0 O2 2.656881 1_545
La1 O4 2.521021 1_565
La1 O8 2.521021 1_555
La1 O9 2.521021 1_565
La1 O7 2.521021 1_555
La1 O3 2.656881 1_455
La1 O6 2.656881 1_555
La1 O5 2.656881 1_455
La1 O2 2.656881 1_555
Mg0 O6 2.188572 1_555
Mg0 O2 2.188572 1_545
Mg0 O3 2.188572 1_455
Mg0 O5 2.188572 1_445
Nb0 O0 1.878372 1_555
Nb0 O2 2.027132 1_555
Nb0 O5 2.027132 1_555
Nb0 O6 2.027132 1_555
Nb0 O3 2.027132 1_555
Nb1 O1 1.966944 1_555
Nb1 O9 1.994677 1_555
Nb1 O4 1.994677 1_555
Nb1 O8 1.994677 1_555
Nb1 O7 1.994677 1_555
