# generated using pymatgen
data_MgTe4Mo3WS4
_symmetry_space_group_name_H-M   'P 1'
_cell_length_a   6.71049001
_cell_length_b   6.71048700
_cell_length_c   78.13248803
_cell_angle_alpha   89.99937471
_cell_angle_beta   90.00325053
_cell_angle_gamma   120.00353845
_symmetry_Int_Tables_number   1
_chemical_formula_structural   MgTe4Mo3WS4
_chemical_formula_sum   'Mg8 Te32 Mo24 W8 S32'
_cell_volume   3046.87805024
_cell_formula_units_Z   8
loop_
 _symmetry_equiv_pos_site_id
 _symmetry_equiv_pos_as_xyz
  1  'x, y, z'
loop_
 _atom_site_type_symbol
 _atom_site_label
 _atom_site_symmetry_multiplicity
 _atom_site_fract_x
 _atom_site_fract_y
 _atom_site_fract_z
 _atom_site_occupancy
  Mg  Mg0_0  1  0.18600300  0.38250500  0.43791800  1
  Mg  Mg0_1  1  0.18600300  0.38250500  0.93791800  1
  Mg  Mg0_2  1  0.18600300  0.88250500  0.43791800  1
  Mg  Mg0_3  1  0.18600300  0.88250500  0.93791800  1
  Mg  Mg0_4  1  0.68600300  0.38250500  0.43791800  1
  Mg  Mg0_5  1  0.68600300  0.38250500  0.93791800  1
  Mg  Mg0_6  1  0.68600300  0.88250500  0.43791800  1
  Mg  Mg0_7  1  0.68600300  0.88250500  0.93791800  1
  Te  Te0_0  1  0.16669050  0.33334450  0.35307800  1
  Te  Te0_1  1  0.16669050  0.33334450  0.85307800  1
  Te  Te0_2  1  0.16669050  0.83334450  0.35307800  1
  Te  Te0_3  1  0.16669050  0.83334450  0.85307800  1
  Te  Te0_4  1  0.66669050  0.33334450  0.35307800  1
  Te  Te0_5  1  0.66669050  0.33334450  0.85307800  1
  Te  Te0_6  1  0.66669050  0.83334450  0.35307800  1
  Te  Te0_7  1  0.66669050  0.83334450  0.85307800  1
  Te  Te1_0  1  0.33328000  0.16661650  0.02262350  1
  Te  Te1_1  1  0.33328000  0.16661650  0.52262350  1
  Te  Te1_2  1  0.33328000  0.66661650  0.02262350  1
  Te  Te1_3  1  0.33328000  0.66661650  0.52262350  1
  Te  Te1_4  1  0.83328000  0.16661650  0.02262350  1
  Te  Te1_5  1  0.83328000  0.16661650  0.52262350  1
  Te  Te1_6  1  0.83328000  0.66661650  0.02262350  1
  Te  Te1_7  1  0.83328000  0.66661650  0.52262350  1
  Te  Te2_0  1  0.33331950  0.16662700  0.07102100  1
  Te  Te2_1  1  0.33331950  0.16662700  0.57102100  1
  Te  Te2_2  1  0.33331950  0.66662700  0.07102100  1
  Te  Te2_3  1  0.33331950  0.66662700  0.57102100  1
  Te  Te2_4  1  0.83331950  0.16662700  0.07102100  1
  Te  Te2_5  1  0.83331950  0.16662700  0.57102100  1
  Te  Te2_6  1  0.83331950  0.66662700  0.07102100  1
  Te  Te2_7  1  0.83331950  0.66662700  0.57102100  1
  Te  Te3_0  1  0.16664650  0.33333050  0.30441900  1
  Te  Te3_1  1  0.16664650  0.33333050  0.80441900  1
  Te  Te3_2  1  0.16664650  0.83333050  0.30441900  1
  Te  Te3_3  1  0.16664650  0.83333050  0.80441900  1
  Te  Te3_4  1  0.66664650  0.33333050  0.30441900  1
  Te  Te3_5  1  0.66664650  0.33333050  0.80441900  1
  Te  Te3_6  1  0.66664650  0.83333050  0.30441900  1
  Te  Te3_7  1  0.66664650  0.83333050  0.80441900  1
  Mo  Mo0_0  1  0.16662850  0.33328150  0.04679550  1
  Mo  Mo0_1  1  0.16662850  0.33328150  0.54679550  1
  Mo  Mo0_2  1  0.16662850  0.83328150  0.04679550  1
  Mo  Mo0_3  1  0.16662850  0.83328150  0.54679550  1
  Mo  Mo0_4  1  0.66662850  0.33328150  0.04679550  1
  Mo  Mo0_5  1  0.66662850  0.33328150  0.54679550  1
  Mo  Mo0_6  1  0.66662850  0.83328150  0.04679550  1
  Mo  Mo0_7  1  0.66662850  0.83328150  0.54679550  1
  Mo  Mo1_0  1  0.16658200  0.33330600  0.23472500  1
  Mo  Mo1_1  1  0.16658200  0.33330600  0.73472500  1
  Mo  Mo1_2  1  0.16658200  0.83330600  0.23472500  1
  Mo  Mo1_3  1  0.16658200  0.83330600  0.73472500  1
  Mo  Mo1_4  1  0.66658200  0.33330600  0.23472500  1
  Mo  Mo1_5  1  0.66658200  0.33330600  0.73472500  1
  Mo  Mo1_6  1  0.66658200  0.83330600  0.23472500  1
  Mo  Mo1_7  1  0.66658200  0.83330600  0.73472500  1
  Mo  Mo2_0  1  0.33331350  0.16664000  0.14086800  1
  Mo  Mo2_1  1  0.33331350  0.16664000  0.64086800  1
  Mo  Mo2_2  1  0.33331350  0.66664000  0.14086800  1
  Mo  Mo2_3  1  0.33331350  0.66664000  0.64086800  1
  Mo  Mo2_4  1  0.83331350  0.16664000  0.14086800  1
  Mo  Mo2_5  1  0.83331350  0.16664000  0.64086800  1
  Mo  Mo2_6  1  0.83331350  0.66664000  0.14086800  1
  Mo  Mo2_7  1  0.83331350  0.66664000  0.64086800  1
  W  W0_0  1  0.33333500  0.16667000  0.32876800  1
  W  W0_1  1  0.33333500  0.16667000  0.82876800  1
  W  W0_2  1  0.33333500  0.66667000  0.32876800  1
  W  W0_3  1  0.33333500  0.66667000  0.82876800  1
  W  W0_4  1  0.83333500  0.16667000  0.32876800  1
  W  W0_5  1  0.83333500  0.16667000  0.82876800  1
  W  W0_6  1  0.83333500  0.66667000  0.32876800  1
  W  W0_7  1  0.83333500  0.66667000  0.82876800  1
  S  S0_0  1  0.16669200  0.33331800  0.16021500  1
  S  S0_1  1  0.16669200  0.33331800  0.66021500  1
  S  S0_2  1  0.16669200  0.83331800  0.16021500  1
  S  S0_3  1  0.16669200  0.83331800  0.66021500  1
  S  S0_4  1  0.66669200  0.33331800  0.16021500  1
  S  S0_5  1  0.66669200  0.33331800  0.66021500  1
  S  S0_6  1  0.66669200  0.83331800  0.16021500  1
  S  S0_7  1  0.66669200  0.83331800  0.66021500  1
  S  S1_0  1  0.33323150  0.16663100  0.21534950  1
  S  S1_1  1  0.33323150  0.16663100  0.71534950  1
  S  S1_2  1  0.33323150  0.66663100  0.21534950  1
  S  S1_3  1  0.33323150  0.66663100  0.71534950  1
  S  S1_4  1  0.83323150  0.16663100  0.21534950  1
  S  S1_5  1  0.83323150  0.16663100  0.71534950  1
  S  S1_6  1  0.83323150  0.66663100  0.21534950  1
  S  S1_7  1  0.83323150  0.66663100  0.71534950  1
  S  S2_0  1  0.33326600  0.16664250  0.25411500  1
  S  S2_1  1  0.33326600  0.16664250  0.75411500  1
  S  S2_2  1  0.33326600  0.66664250  0.25411500  1
  S  S2_3  1  0.33326600  0.66664250  0.75411500  1
  S  S2_4  1  0.83326600  0.16664250  0.25411500  1
  S  S2_5  1  0.83326600  0.16664250  0.75411500  1
  S  S2_6  1  0.83326600  0.66664250  0.25411500  1
  S  S2_7  1  0.83326600  0.66664250  0.75411500  1
  S  S3_0  1  0.16665050  0.33330650  0.12151700  1
  S  S3_1  1  0.16665050  0.33330650  0.62151700  1
  S  S3_2  1  0.16665050  0.83330650  0.12151700  1
  S  S3_3  1  0.16665050  0.83330650  0.62151700  1
  S  S3_4  1  0.66665050  0.33330650  0.12151700  1
  S  S3_5  1  0.66665050  0.33330650  0.62151700  1
  S  S3_6  1  0.66665050  0.83330650  0.12151700  1
  S  S3_7  1  0.66665050  0.83330650  0.62151700  1
loop_
_geom_bond_atom_site_label_1
_geom_bond_atom_site_label_2
_geom_bond_distance
_geom_bond_site_symmetry_2
Mg0_0 Mg0_6 3.355065 1_555
Mg0_0 Mg0_6 3.355065 1_445
Mg0_0 Mg0_2 3.355244 1_545
Mg0_0 Mg0_2 3.355244 1_555
Mg0_0 Mg0_4 3.355245 1_455
Mg0_0 Mg0_4 3.355245 1_555
Mg0_1 Mg0_7 3.355065 1_555
Mg0_1 Mg0_7 3.355065 1_445
Mg0_1 Mg0_3 3.355244 1_545
Mg0_1 Mg0_3 3.355244 1_555
Mg0_1 Mg0_5 3.355245 1_455
Mg0_1 Mg0_5 3.355245 1_555
Mg0_2 Mg0_4 3.355065 1_565
Mg0_2 Mg0_4 3.355065 1_455
Mg0_2 Mg0_6 3.355245 1_555
Mg0_2 Mg0_6 3.355245 1_455
Mg0_3 Mg0_5 3.355065 1_565
Mg0_3 Mg0_5 3.355065 1_455
Mg0_3 Mg0_7 3.355245 1_455
Mg0_3 Mg0_7 3.355245 1_555
Mg0_4 Mg0_6 3.355244 1_545
Mg0_4 Mg0_6 3.355244 1_555
Mg0_5 Mg0_7 3.355244 1_555
Mg0_5 Mg0_7 3.355244 1_545
Te0_0 W0_2 2.712928 1_555
Te0_0 W0_4 2.712946 1_455
Te0_0 W0_0 2.713001 1_555
Te0_1 W0_3 2.712928 1_555
Te0_1 W0_5 2.712946 1_455
Te0_1 W0_1 2.713001 1_555
Te0_2 W0_0 2.712928 1_565
Te0_2 W0_6 2.712946 1_455
Te0_2 W0_2 2.713001 1_555
Te0_3 W0_1 2.712928 1_565
Te0_3 W0_7 2.712946 1_455
Te0_3 W0_3 2.713001 1_555
Te0_4 W0_6 2.712928 1_555
Te0_4 W0_0 2.712946 1_555
Te0_4 W0_4 2.713001 1_555
Te0_5 W0_7 2.712928 1_555
Te0_5 W0_1 2.712946 1_555
Te0_5 W0_5 2.713001 1_555
Te0_6 W0_4 2.712928 1_565
Te0_6 W0_2 2.712946 1_555
Te0_6 W0_6 2.713001 1_555
Te0_7 W0_5 2.712928 1_565
Te0_7 W0_3 2.712946 1_555
Te0_7 W0_7 2.713001 1_555
Te3_0 W0_4 2.715058 1_455
Te3_0 W0_2 2.715066 1_555
Te3_0 W0_0 2.715154 1_555
Te3_1 W0_5 2.715058 1_455
Te3_1 W0_3 2.715066 1_555
Te3_1 W0_1 2.715154 1_555
Te3_2 W0_6 2.715058 1_455
Te3_2 W0_0 2.715066 1_565
Te3_2 W0_2 2.715154 1_555
Te3_3 W0_7 2.715058 1_455
Te3_3 W0_1 2.715066 1_565
Te3_3 W0_3 2.715154 1_555
Te3_4 W0_0 2.715058 1_555
Te3_4 W0_6 2.715066 1_555
Te3_4 W0_4 2.715154 1_555
Te3_5 W0_1 2.715058 1_555
Te3_5 W0_7 2.715066 1_555
Te3_5 W0_5 2.715154 1_555
Te3_6 W0_2 2.715058 1_555
Te3_6 W0_4 2.715066 1_565
Te3_6 W0_6 2.715154 1_555
Te3_7 W0_3 2.715058 1_555
Te3_7 W0_5 2.715066 1_565
Te3_7 W0_7 2.715154 1_555
Mo0_0 Te1_4 2.705379 1_455
Mo0_0 Te1_2 2.705430 1_555
Mo0_0 Te1_0 2.705453 1_555
Mo0_0 Te2_4 2.708295 1_455
Mo0_0 Te2_2 2.708339 1_555
Mo0_0 Te2_0 2.708387 1_555
Mo0_1 Te1_5 2.705379 1_455
Mo0_1 Te1_3 2.705430 1_555
Mo0_1 Te1_1 2.705453 1_555
Mo0_1 Te2_5 2.708295 1_455
Mo0_1 Te2_3 2.708339 1_555
Mo0_1 Te2_1 2.708387 1_555
Mo0_2 Te1_6 2.705379 1_455
Mo0_2 Te1_0 2.705430 1_565
Mo0_2 Te1_2 2.705453 1_555
Mo0_2 Te2_6 2.708295 1_455
Mo0_2 Te2_0 2.708339 1_565
Mo0_2 Te2_2 2.708387 1_555
Mo0_3 Te1_7 2.705379 1_455
Mo0_3 Te1_1 2.705430 1_565
Mo0_3 Te1_3 2.705453 1_555
Mo0_3 Te2_7 2.708295 1_455
Mo0_3 Te2_1 2.708339 1_565
Mo0_3 Te2_3 2.708387 1_555
Mo0_4 Te1_0 2.705379 1_555
Mo0_4 Te1_6 2.705430 1_555
Mo0_4 Te1_4 2.705453 1_555
Mo0_4 Te2_0 2.708295 1_555
Mo0_4 Te2_6 2.708339 1_555
Mo0_4 Te2_4 2.708387 1_555
Mo0_5 Te1_1 2.705379 1_555
Mo0_5 Te1_7 2.705430 1_555
Mo0_5 Te1_5 2.705453 1_555
Mo0_5 Te2_1 2.708295 1_555
Mo0_5 Te2_7 2.708339 1_555
Mo0_5 Te2_5 2.708387 1_555
Mo0_6 Te1_2 2.705379 1_555
Mo0_6 Te1_4 2.705430 1_565
Mo0_6 Te1_6 2.705453 1_555
Mo0_6 Te2_2 2.708295 1_555
Mo0_6 Te2_4 2.708339 1_565
Mo0_6 Te2_6 2.708387 1_555
Mo0_7 Te1_3 2.705379 1_555
Mo0_7 Te1_5 2.705430 1_565
Mo0_7 Te1_7 2.705453 1_555
Mo0_7 Te2_3 2.708295 1_555
Mo0_7 Te2_5 2.708339 1_565
Mo0_7 Te2_7 2.708387 1_555
Mo1_0 S1_2 2.458450 1_555
Mo1_0 S1_4 2.458473 1_455
Mo1_0 S1_0 2.458552 1_555
Mo1_0 S2_2 2.459152 1_555
Mo1_0 S2_4 2.459154 1_455
Mo1_0 S2_0 2.459262 1_555
Mo1_1 S1_3 2.458450 1_555
Mo1_1 S1_5 2.458473 1_455
Mo1_1 S1_1 2.458552 1_555
Mo1_1 S2_3 2.459152 1_555
Mo1_1 S2_5 2.459154 1_455
Mo1_1 S2_1 2.459262 1_555
Mo1_2 S1_0 2.458450 1_565
Mo1_2 S1_6 2.458473 1_455
Mo1_2 S1_2 2.458552 1_555
Mo1_2 S2_0 2.459152 1_565
Mo1_2 S2_6 2.459154 1_455
Mo1_2 S2_2 2.459262 1_555
Mo1_3 S1_1 2.458450 1_565
Mo1_3 S1_7 2.458473 1_455
Mo1_3 S1_3 2.458552 1_555
Mo1_3 S2_1 2.459152 1_565
Mo1_3 S2_7 2.459154 1_455
Mo1_3 S2_3 2.459262 1_555
Mo1_4 S1_6 2.458450 1_555
Mo1_4 S1_0 2.458473 1_555
Mo1_4 S1_4 2.458552 1_555
Mo1_4 S2_6 2.459152 1_555
Mo1_4 S2_0 2.459154 1_555
Mo1_4 S2_4 2.459262 1_555
Mo1_5 S1_7 2.458450 1_555
Mo1_5 S1_1 2.458473 1_555
Mo1_5 S1_5 2.458552 1_555
Mo1_5 S2_7 2.459152 1_555
Mo1_5 S2_1 2.459154 1_555
Mo1_5 S2_5 2.459262 1_555
Mo1_6 S1_4 2.458450 1_565
Mo1_6 S1_2 2.458473 1_555
Mo1_6 S1_6 2.458552 1_555
Mo1_6 S2_4 2.459152 1_565
Mo1_6 S2_2 2.459154 1_555
Mo1_6 S2_6 2.459262 1_555
Mo1_7 S1_5 2.458450 1_565
Mo1_7 S1_3 2.458473 1_555
Mo1_7 S1_7 2.458552 1_555
Mo1_7 S2_5 2.459152 1_565
Mo1_7 S2_3 2.459154 1_555
Mo1_7 S2_7 2.459262 1_555
Mo2_0 S0_2 2.457066 1_545
Mo2_0 S0_0 2.457067 1_555
Mo2_0 S0_4 2.457231 1_555
Mo2_0 S3_2 2.457263 1_545
Mo2_0 S3_0 2.457304 1_555
Mo2_0 S3_4 2.457374 1_555
Mo2_1 S0_3 2.457066 1_545
Mo2_1 S0_1 2.457067 1_555
Mo2_1 S0_5 2.457231 1_555
Mo2_1 S3_3 2.457263 1_545
Mo2_1 S3_1 2.457304 1_555
Mo2_1 S3_5 2.457374 1_555
Mo2_2 S0_0 2.457066 1_555
Mo2_2 S0_2 2.457067 1_555
Mo2_2 S0_6 2.457231 1_555
Mo2_2 S3_0 2.457263 1_555
Mo2_2 S3_2 2.457304 1_555
Mo2_2 S3_6 2.457374 1_555
Mo2_3 S0_1 2.457066 1_555
Mo2_3 S0_3 2.457067 1_555
Mo2_3 S0_7 2.457231 1_555
Mo2_3 S3_1 2.457263 1_555
Mo2_3 S3_3 2.457304 1_555
Mo2_3 S3_7 2.457374 1_555
Mo2_4 S0_6 2.457066 1_545
Mo2_4 S0_4 2.457067 1_555
Mo2_4 S0_0 2.457231 1_655
Mo2_4 S3_6 2.457263 1_545
Mo2_4 S3_4 2.457304 1_555
Mo2_4 S3_0 2.457374 1_655
Mo2_5 S0_7 2.457066 1_545
Mo2_5 S0_5 2.457067 1_555
Mo2_5 S0_1 2.457231 1_655
Mo2_5 S3_7 2.457263 1_545
Mo2_5 S3_5 2.457304 1_555
Mo2_5 S3_1 2.457374 1_655
Mo2_6 S0_4 2.457066 1_555
Mo2_6 S0_6 2.457067 1_555
Mo2_6 S0_2 2.457231 1_655
Mo2_6 S3_4 2.457263 1_555
Mo2_6 S3_6 2.457304 1_555
Mo2_6 S3_2 2.457374 1_655
Mo2_7 S0_5 2.457066 1_555
Mo2_7 S0_7 2.457067 1_555
Mo2_7 S0_3 2.457231 1_655
Mo2_7 S3_5 2.457263 1_555
Mo2_7 S3_7 2.457304 1_555
Mo2_7 S3_3 2.457374 1_655
