# generated using pymatgen
data_Tm2GeO5
_symmetry_space_group_name_H-M   'P 1'
_cell_length_a   6.80657035
_cell_length_b   6.65311672
_cell_length_c   9.16954750
_cell_angle_alpha   82.03505722
_cell_angle_beta   90.00000000
_cell_angle_gamma   90.00000000
_symmetry_Int_Tables_number   1
_chemical_formula_structural   Tm2GeO5
_chemical_formula_sum   'Tm8 Ge4 O20'
_cell_volume   411.23628145
_cell_formula_units_Z   4
loop_
 _symmetry_equiv_pos_site_id
 _symmetry_equiv_pos_as_xyz
  1  'x, y, z'
loop_
 _atom_site_type_symbol
 _atom_site_label
 _atom_site_symmetry_multiplicity
 _atom_site_fract_x
 _atom_site_fract_y
 _atom_site_fract_z
 _atom_site_occupancy
  Tm  Tm0  1  0.88059837  0.27333146  0.03186097  1
  Tm  Tm1  1  0.61940163  0.77333146  0.03186097  1
  Tm  Tm2  1  0.85653315  0.52578710  0.34781193  1
  Tm  Tm3  1  0.64346685  0.02578710  0.34781193  1
  Tm  Tm4  1  0.35653315  0.97421290  0.65218807  1
  Tm  Tm5  1  0.14346685  0.47421290  0.65218807  1
  Tm  Tm6  1  0.38059837  0.22666854  0.96813903  1
  Tm  Tm7  1  0.11940163  0.72666854  0.96813903  1
  Ge  Ge0  1  0.39648694  0.52078634  0.30043028  1
  Ge  Ge1  1  0.10351306  0.02078634  0.30043028  1
  Ge  Ge2  1  0.89648694  0.97921366  0.69956972  1
  Ge  Ge3  1  0.60351306  0.47921366  0.69956972  1
  O  O0  1  0.14788700  0.03113049  0.10733411  1
  O  O1  1  0.61973942  0.08811282  0.10474857  1
  O  O2  1  0.35211300  0.53113049  0.10733411  1
  O  O3  1  0.88026058  0.58811282  0.10474857  1
  O  O4  1  0.93175845  0.22671941  0.28069284  1
  O  O5  1  0.31670655  0.01535685  0.40357986  1
  O  O6  1  0.56824155  0.72671941  0.28069284  1
  O  O7  1  0.57426064  0.34186149  0.36378904  1
  O  O8  1  0.18329345  0.51535685  0.40357986  1
  O  O9  1  0.92573936  0.84186149  0.36378904  1
  O  O10  1  0.07426064  0.15813851  0.63621096  1
  O  O11  1  0.81670655  0.48464315  0.59642014  1
  O  O12  1  0.42573936  0.65813851  0.63621096  1
  O  O13  1  0.43175845  0.27328059  0.71930716  1
  O  O14  1  0.68329345  0.98464315  0.59642014  1
  O  O15  1  0.06824155  0.77328059  0.71930716  1
  O  O16  1  0.11973942  0.41188718  0.89525143  1
  O  O17  1  0.64788700  0.46886951  0.89266589  1
  O  O18  1  0.38026058  0.91188718  0.89525143  1
  O  O19  1  0.85211300  0.96886951  0.89266589  1
loop_
_geom_bond_atom_site_label_1
_geom_bond_atom_site_label_2
_geom_bond_distance
_geom_bond_site_symmetry_2
Ge0 O8 1.729792 1_555
Ge0 O7 1.739858 1_555
Ge0 O2 1.788080 1_555
Ge0 O6 1.791062 1_555
Ge1 O5 1.729792 1_555
Ge1 O9 1.739858 1_445
Ge1 O0 1.788080 1_555
Ge1 O4 1.791062 1_455
Ge2 O14 1.729792 1_555
Ge2 O10 1.739858 1_665
Ge2 O19 1.788080 1_555
Ge2 O15 1.791062 1_655
Ge3 O11 1.729792 1_555
Ge3 O12 1.739858 1_555
Ge3 O17 1.788080 1_555
Ge3 O13 1.791062 1_555
O0 Tm6 2.317391 1_554
O0 Tm0 2.465034 1_455
O0 Tm7 2.546826 1_544
O1 Tm6 2.179079 1_554
O1 Tm0 2.211233 1_555
O1 Tm3 2.215709 1_555
O1 Tm1 2.284862 1_545
O2 Tm7 2.317391 1_554
O2 Tm1 2.465034 1_555
O2 Tm6 2.546826 1_554
O3 Tm7 2.179079 1_654
O3 Tm1 2.211233 1_555
O3 Tm2 2.215709 1_555
O3 Tm0 2.284862 1_555
O4 Tm2 2.222467 1_555
O4 Tm0 2.286346 1_555
O4 Tm3 2.405910 1_555
O5 Tm4 2.274241 1_545
O5 Tm3 2.281047 1_555
O6 Tm3 2.222467 1_565
O6 Tm1 2.286346 1_555
O6 Tm2 2.405910 1_555
O7 Tm3 2.179642 1_555
O7 Tm2 2.271694 1_555
O8 Tm5 2.274241 1_555
O8 Tm2 2.281047 1_455
O9 Tm2 2.179642 1_555
O9 Tm3 2.271694 1_565
O10 Tm5 2.179642 1_555
O10 Tm4 2.271694 1_545
O11 Tm2 2.274241 1_555
O11 Tm5 2.281047 1_655
O12 Tm4 2.179642 1_555
O12 Tm5 2.271694 1_555
O13 Tm4 2.222467 1_545
O13 Tm6 2.286346 1_555
O13 Tm5 2.405910 1_555
O14 Tm3 2.274241 1_565
O14 Tm4 2.281047 1_555
O15 Tm5 2.222467 1_555
O15 Tm7 2.286346 1_555
O15 Tm4 2.405910 1_555
O16 Tm0 2.179079 1_456
O16 Tm6 2.211233 1_555
O16 Tm5 2.215709 1_555
O16 Tm7 2.284862 1_555
O17 Tm0 2.317391 1_556
O17 Tm6 2.465034 1_555
O17 Tm1 2.546826 1_556
O18 Tm1 2.179079 1_556
O18 Tm7 2.211233 1_555
O18 Tm4 2.215709 1_555
O18 Tm6 2.284862 1_565
O19 Tm1 2.317391 1_556
O19 Tm7 2.465034 1_655
O19 Tm0 2.546826 1_566
