# generated using pymatgen
data_MgFe8(OF)8
_symmetry_space_group_name_H-M   'P 1'
_cell_length_a   9.78779676
_cell_length_b   9.82122021
_cell_length_c   3.14158100
_cell_angle_alpha   90.00000000
_cell_angle_beta   90.00000000
_cell_angle_gamma   94.93331193
_symmetry_Int_Tables_number   1
_chemical_formula_structural   MgFe8(OF)8
_chemical_formula_sum   'Mg1 Fe8 O8 F8'
_cell_volume   300.87548782
_cell_formula_units_Z   1
loop_
 _symmetry_equiv_pos_site_id
 _symmetry_equiv_pos_as_xyz
  1  'x, y, z'
loop_
 _atom_site_type_symbol
 _atom_site_label
 _atom_site_symmetry_multiplicity
 _atom_site_fract_x
 _atom_site_fract_y
 _atom_site_fract_z
 _atom_site_occupancy
  Mg  Mg0  1  0.47900100  0.73719200  0.00000000  1
  Fe  Fe0  1  0.00855100  0.01352100  0.00000000  1
  Fe  Fe1  1  0.01932900  0.47635900  0.00000000  1
  Fe  Fe2  1  0.22612700  0.25842000  0.50000000  1
  Fe  Fe3  1  0.11653900  0.73204300  0.50000000  1
  Fe  Fe4  1  0.54548600  0.45846600  0.00000000  1
  Fe  Fe5  1  0.48103000  0.03330700  0.00000000  1
  Fe  Fe6  1  0.76615100  0.26886400  0.50000000  1
  Fe  Fe7  1  0.77532600  0.70978000  0.50000000  1
  O  O0  1  0.10656600  0.40195300  0.50000000  1
  O  O1  1  0.07061600  0.91452600  0.50000000  1
  O  O2  1  0.14656300  0.15972800  0.00000000  1
  O  O3  1  0.16405500  0.64444200  0.00000000  1
  O  O4  1  0.61144300  0.36485900  0.50000000  1
  O  O5  1  0.66496600  0.64707000  0.00000000  1
  O  O6  1  0.86070200  0.34657700  0.00000000  1
  O  O7  1  0.93654400  0.61645400  0.50000000  1
  F  F0  1  0.34632600  0.35345500  0.00000000  1
  F  F1  1  0.34453500  0.87140800  0.00000000  1
  F  F2  1  0.38885600  0.12872100  0.50000000  1
  F  F3  1  0.43259400  0.61832400  0.50000000  1
  F  F4  1  0.56362100  0.87232800  0.50000000  1
  F  F5  1  0.66635200  0.13295400  0.00000000  1
  F  F6  1  0.84097500  0.85005000  0.00000000  1
  F  F7  1  0.89608000  0.09753000  0.50000000  1
loop_
_geom_bond_atom_site_label_1
_geom_bond_atom_site_label_2
_geom_bond_distance
_geom_bond_site_symmetry_2
Mg0 O5 2.091313 1_555
Fe0 O2 1.884950 1_555
Fe0 O1 1.970602 1_545
Fe0 O1 1.970602 1_544
Fe1 O6 1.922206 1_455
Fe1 O0 1.959025 1_555
Fe1 O0 1.959025 1_554
Fe1 O3 2.080744 1_555
Fe1 O7 2.282280 1_454
Fe1 O7 2.282280 1_455
Fe2 O0 1.907971 1_555
Fe2 O2 1.970664 1_555
Fe2 O2 1.970664 1_556
Fe3 O3 1.868876 1_555
Fe3 O3 1.868876 1_556
Fe3 O1 1.884832 1_555
Fe3 O7 2.012096 1_455
Fe4 O4 1.957397 1_554
Fe4 O4 1.957397 1_555
Fe4 O5 2.103837 1_555
Fe6 O4 1.851308 1_555
Fe6 O6 1.945477 1_555
Fe6 O6 1.945477 1_556
Fe7 O7 1.891786 1_555
Fe7 O5 1.974607 1_556
Fe7 O5 1.974607 1_555
F0 Fe4 2.125510 1_555
F0 Fe2 2.129271 1_554
F0 Fe2 2.129271 1_555
F1 Mg0 1.941167 1_555
F1 Fe5 1.986893 1_565
F2 Fe5 2.074811 1_555
F2 Fe5 2.074811 1_556
F2 Fe2 2.123299 1_555
F3 Mg0 1.986300 1_555
F3 Mg0 1.986300 1_556
F3 Fe4 2.540000 1_556
F3 Fe4 2.540000 1_555
F4 Mg0 2.173883 1_555
F4 Mg0 2.173883 1_556
F4 Fe5 2.416667 1_565
F4 Fe5 2.416667 1_566
F5 Fe5 1.985613 1_555
F5 Fe6 2.231365 1_554
F5 Fe6 2.231365 1_555
F6 Fe7 2.150781 1_555
F6 Fe7 2.150781 1_554
F6 Fe0 2.194294 1_665
F7 Fe0 2.125135 1_656
F7 Fe0 2.125135 1_655
F7 Fe6 2.194728 1_555
