# generated using pymatgen
data_Sr2MgTiFeO6
_symmetry_space_group_name_H-M   'P 1'
_cell_length_a   6.23782678
_cell_length_b   6.24336292
_cell_length_c   6.24574704
_cell_angle_alpha   56.14520152
_cell_angle_beta   56.16839656
_cell_angle_gamma   56.17936655
_symmetry_Int_Tables_number   1
_chemical_formula_structural   Sr2MgTiFeO6
_chemical_formula_sum   'Sr2 Mg1 Ti1 Fe1 O6'
_cell_volume   156.72464727
_cell_formula_units_Z   1
loop_
 _symmetry_equiv_pos_site_id
 _symmetry_equiv_pos_as_xyz
  1  'x, y, z'
loop_
 _atom_site_type_symbol
 _atom_site_label
 _atom_site_symmetry_multiplicity
 _atom_site_fract_x
 _atom_site_fract_y
 _atom_site_fract_z
 _atom_site_occupancy
  Sr  Sr0  1  0.27919606  0.27935524  0.27941394  1
  Sr  Sr1  1  0.70135909  0.70063657  0.70036558  1
  Mg  Mg0  1  0.92441508  0.92421862  0.92413653  1
  Ti  Ti0  1  0.49187808  0.49190588  0.49191007  1
  Fe  Fe0  1  0.08718119  0.08705350  0.08699803  1
  O  O0  1  0.70604332  0.24803735  0.24803841  1
  O  O1  1  0.71408431  0.25585003  0.71429584  1
  O  O2  1  0.71417668  0.71431734  0.25603348  1
  O  O3  1  0.25552782  0.71402596  0.71411690  1
  O  O4  1  0.24763771  0.70592677  0.24788094  1
  O  O5  1  0.24754865  0.24772075  0.70585827  1
loop_
_geom_bond_atom_site_label_1
_geom_bond_atom_site_label_2
_geom_bond_distance
_geom_bond_site_symmetry_2
Mg0 O3 1.895425 1_655
Mg0 O1 1.895597 1_565
Mg0 O2 1.895687 1_556
Fe0 O0 1.864893 1_455
Fe0 O4 1.864997 1_545
Fe0 O5 1.865091 1_554
Fe0 Sr0 3.021856 1_555
O0 Ti0 2.115832 1_555
O0 Sr0 2.459313 1_555
O0 Sr1 2.987293 1_545
O0 Sr1 2.989362 1_554
O1 Ti0 1.900386 1_555
O1 Sr1 2.686729 1_555
O1 Sr0 3.048849 1_655
O1 Sr0 3.051356 1_556
O2 Ti0 1.900220 1_555
O2 Sr1 2.685474 1_555
O2 Sr0 3.048720 1_655
O2 Sr0 3.050546 1_565
O3 Ti0 1.900769 1_555
O3 Sr1 2.689176 1_555
O3 Sr0 3.050850 1_565
O3 Sr0 3.051417 1_556
O4 Ti0 2.116594 1_555
O4 Sr0 2.458768 1_555
O4 Sr1 2.982886 1_455
O4 Sr1 2.991671 1_554
O5 Ti0 2.116986 1_555
O5 Sr0 2.458420 1_555
O5 Sr1 2.983706 1_455
O5 Sr1 2.990017 1_545
