# generated using pymatgen
data_K2Na2Nd2MgNb2O10
_symmetry_space_group_name_H-M   'P 1'
_cell_length_a   5.79768100
_cell_length_b   5.71655200
_cell_length_c   9.35092300
_cell_angle_alpha   90.00000000
_cell_angle_beta   90.00000000
_cell_angle_gamma   90.00000000
_symmetry_Int_Tables_number   1
_chemical_formula_structural   K2Na2Nd2MgNb2O10
_chemical_formula_sum   'K2 Na2 Nd2 Mg1 Nb2 O10'
_cell_volume   309.91525572
_cell_formula_units_Z   1
loop_
 _symmetry_equiv_pos_site_id
 _symmetry_equiv_pos_as_xyz
  1  'x, y, z'
loop_
 _atom_site_type_symbol
 _atom_site_label
 _atom_site_symmetry_multiplicity
 _atom_site_fract_x
 _atom_site_fract_y
 _atom_site_fract_z
 _atom_site_occupancy
  K  K0  1  0.25000000  0.75000000  0.00545800  1
  K  K1  1  0.75000000  0.25000000  0.08127100  1
  Na  Na0  1  0.25000000  0.25000000  0.75565500  1
  Na  Na1  1  0.75000000  0.75000000  0.24145900  1
  Nd  Nd0  1  0.25000000  0.75000000  0.51560800  1
  Nd  Nd1  1  0.75000000  0.25000000  0.45672900  1
  Mg  Mg0  1  0.75000000  0.25000000  0.74900700  1
  Nb  Nb0  1  0.25000000  0.25000000  0.26755900  1
  Nb  Nb1  1  0.75000000  0.75000000  0.74318400  1
  O  O0  1  0.97457200  0.99503400  0.65419000  1
  O  O1  1  0.52542800  0.50496600  0.65419000  1
  O  O2  1  0.75000000  0.75000000  0.94581300  1
  O  O3  1  0.48155700  0.01524100  0.33154100  1
  O  O4  1  0.48155700  0.48475900  0.33154100  1
  O  O5  1  0.25000000  0.25000000  0.06877200  1
  O  O6  1  0.52542800  0.99503400  0.65419000  1
  O  O7  1  0.97457200  0.50496600  0.65419000  1
  O  O8  1  0.01844300  0.01524100  0.33154100  1
  O  O9  1  0.01844300  0.48475900  0.33154100  1
loop_
_geom_bond_atom_site_label_1
_geom_bond_atom_site_label_2
_geom_bond_distance
_geom_bond_site_symmetry_2
K0 O5 2.918948 1_565
K0 O5 2.918948 1_555
K0 O2 2.952007 1_554
K0 O2 2.952007 1_454
K1 O5 2.901196 1_555
K1 O5 2.901196 1_655
K1 Mg0 3.106975 1_554
K1 O8 3.114484 1_655
K1 O9 3.114484 1_655
K1 O4 3.114484 1_555
K1 O3 3.114484 1_555
K1 O2 3.126366 1_554
K1 O2 3.126366 1_544
Na0 O6 2.361037 1_545
Na0 O1 2.361037 1_555
Na0 O7 2.361037 1_455
Na0 O0 2.361037 1_445
Na0 O5 2.927933 1_556
Na1 O8 2.330413 1_665
Na1 O9 2.330413 1_655
Na1 O3 2.330413 1_565
Na1 O4 2.330413 1_555
Na1 O2 2.764563 1_554
Nd0 O1 2.488230 1_555
Nd0 O6 2.488230 1_555
Nd0 O0 2.488230 1_455
Nd0 O7 2.488230 1_455
Nd0 O3 2.657793 1_565
Nd0 O4 2.657793 1_555
Nd0 O9 2.657793 1_555
Nd0 O8 2.657793 1_565
Nd1 O8 2.365073 1_655
Nd1 O9 2.365073 1_655
Nd1 O3 2.365073 1_555
Nd1 O4 2.365073 1_555
Nd1 O0 2.688667 1_545
Nd1 O6 2.688667 1_545
Nd1 O1 2.688667 1_555
Nd1 O7 2.688667 1_555
Mg0 O7 2.146086 1_555
Mg0 O1 2.146086 1_555
Mg0 O6 2.146086 1_545
Mg0 O0 2.146086 1_545
Nb0 O5 1.858842 1_555
Nb0 O4 1.990286 1_555
Nb0 O3 1.990286 1_555
Nb0 O8 1.990286 1_555
Nb0 O9 1.990286 1_555
Nb1 O2 1.894768 1_555
Nb1 O1 2.085620 1_555
Nb1 O0 2.085620 1_555
Nb1 O6 2.085620 1_555
Nb1 O7 2.085620 1_555
