# generated using pymatgen
data_Na7Mg3TaSi3(SO8)3
_symmetry_space_group_name_H-M   'P 1'
_cell_length_a   9.09403361
_cell_length_b   9.11971560
_cell_length_c   22.23786895
_cell_angle_alpha   89.67479023
_cell_angle_beta   90.49550582
_cell_angle_gamma   120.29031966
_symmetry_Int_Tables_number   1
_chemical_formula_structural   Na7Mg3TaSi3(SO8)3
_chemical_formula_sum   'Na21 Mg9 Ta3 Si9 S9 O72'
_cell_volume   1592.45419015
_cell_formula_units_Z   3
loop_
 _symmetry_equiv_pos_site_id
 _symmetry_equiv_pos_as_xyz
  1  'x, y, z'
loop_
 _atom_site_type_symbol
 _atom_site_label
 _atom_site_symmetry_multiplicity
 _atom_site_fract_x
 _atom_site_fract_y
 _atom_site_fract_z
 _atom_site_occupancy
  Na  Na0  1  0.63418352  0.00182994  0.23746082  1
  Na  Na1  1  0.38138528  0.35135523  0.25542235  1
  Na  Na2  1  0.98851917  0.65793913  0.25124686  1
  Na  Na3  1  0.66522612  0.63926107  0.75195824  1
  Na  Na4  1  0.98025313  0.34468013  0.75050811  1
  Na  Na5  1  0.35971279  0.01507426  0.75015629  1
  Na  Na6  1  0.29263787  0.32879564  0.58802876  1
  Na  Na7  1  0.03775492  0.70877400  0.58763873  1
  Na  Na8  1  0.67340722  0.96856083  0.59512465  1
  Na  Na9  1  0.31015793  0.96929073  0.09328509  1
  Na  Na10  1  0.66758156  0.72321888  0.08079609  1
  Na  Na11  1  0.02427192  0.31963350  0.08055119  1
  Na  Na12  1  0.98211902  0.31238188  0.42103388  1
  Na  Na13  1  0.31470800  0.03694292  0.41259519  1
  Na  Na14  1  0.71043855  0.65751674  0.40803721  1
  Na  Na15  1  0.01540624  0.00104315  0.49421236  1
  Na  Na16  1  0.97270013  0.98941329  0.99012114  1
  Na  Na17  1  0.66704866  0.33941102  0.81979685  1
  Na  Na18  1  0.65427816  0.34364323  0.33307602  1
  Na  Na19  1  0.35876924  0.69423867  0.16452077  1
  Na  Na20  1  0.32891679  0.66697081  0.66823964  1
  Mg  Mg0  1  0.00867149  0.98779946  0.35051215  1
  Mg  Mg1  1  0.98601973  0.98557649  0.84470837  1
  Mg  Mg2  1  0.99847012  0.99462817  0.66839211  1
  Mg  Mg3  1  0.98476077  0.98512353  0.15332627  1
  Mg  Mg4  1  0.66389230  0.33387485  0.68876878  1
  Mg  Mg5  1  0.65633447  0.32556653  0.18688066  1
  Mg  Mg6  1  0.66636734  0.34325849  0.47803027  1
  Mg  Mg7  1  0.35470127  0.68310155  0.01444363  1
  Mg  Mg8  1  0.32436253  0.65709684  0.51337615  1
  Ta  Ta0  1  0.66841248  0.32823884  0.97486064  1
  Ta  Ta1  1  0.33044643  0.66313785  0.31636319  1
  Ta  Ta2  1  0.34615122  0.66227858  0.81183246  1
  Si  Si0  1  0.29668255  0.00108423  0.24931497  1
  Si  Si1  1  0.70154090  0.70346511  0.24987174  1
  Si  Si2  1  0.28963800  0.28608799  0.74952327  1
  Si  Si3  1  0.00257848  0.70373677  0.74864595  1
  Si  Si4  1  0.70884350  0.00491420  0.74832924  1
  Si  Si5  1  0.66820581  0.03903409  0.08628809  1
  Si  Si6  1  0.63983083  0.67671786  0.92234998  1
  Si  Si7  1  0.32668065  0.36319502  0.42104009  1
  Si  Si8  1  0.03509047  0.66639399  0.42157593  1
  S  S0  1  0.00330873  0.29560259  0.25018910  1
  S  S1  1  0.95781638  0.33175357  0.58150517  1
  S  S2  1  0.37745185  0.04045652  0.58059228  1
  S  S3  1  0.66730148  0.63126830  0.58119968  1
  S  S4  1  0.95659110  0.61901939  0.08228704  1
  S  S5  1  0.37525370  0.33337992  0.08232290  1
  S  S6  1  0.04479396  0.37804718  0.92085651  1
  S  S7  1  0.33107787  0.95841642  0.91947566  1
  S  S8  1  0.62352414  0.95723315  0.41871570  1
  O  O0  1  0.21461095  0.03555940  0.30756200  1
  O  O1  1  0.81245652  0.79153876  0.30961801  1
  O  O2  1  0.97786258  0.19332988  0.30421203  1
  O  O3  1  0.20283432  0.16456516  0.80570547  1
  O  O4  1  0.95712437  0.78866023  0.80202345  1
  O  O5  1  0.83500988  0.04921121  0.80386448  1
  O  O6  1  0.76413042  0.94386926  0.68780046  1
  O  O7  1  0.17820383  0.23012823  0.68707196  1
  O  O8  1  0.06051504  0.81764937  0.68662060  1
  O  O9  1  0.76616468  0.81996759  0.18928616  1
  O  O10  1  0.03467493  0.22233174  0.19588296  1
  O  O11  1  0.17849396  0.95739870  0.18842147  1
  O  O12  1  0.87235502  0.34701584  0.63508626  1
  O  O13  1  0.47705858  0.12619151  0.63505581  1
  O  O14  1  0.64553965  0.52777064  0.63526947  1
  O  O15  1  0.87960533  0.52138517  0.13744645  1
  O  O16  1  0.64620161  0.13145369  0.14405891  1
  O  O17  1  0.47993848  0.36517983  0.13709669  1
  O  O18  1  0.46907287  0.31511051  0.02960854  1
  O  O19  1  0.84176818  0.52649236  0.02908064  1
  O  O20  1  0.68458385  0.17095187  0.02821274  1
  O  O21  1  0.46420804  0.14057494  0.52589830  1
  O  O22  1  0.68263566  0.54585316  0.52681319  1
  O  O23  1  0.85684206  0.31637583  0.52625050  1
  O  O24  1  0.54693485  0.68021886  0.98255275  1
  O  O25  1  0.13693181  0.46564249  0.97566507  1
  O  O26  1  0.31557077  0.86287391  0.97447810  1
  O  O27  1  0.54603006  0.85110127  0.47198626  1
  O  O28  1  0.30624536  0.45367159  0.47963298  1
  O  O29  1  0.15830596  0.70469449  0.47876906  1
  O  O30  1  0.14523759  0.64847979  0.36150668  1
  O  O31  1  0.51216845  0.86923882  0.36332226  1
  O  O32  1  0.35414652  0.49702280  0.36164062  1
  O  O33  1  0.12215294  0.48391756  0.86655270  1
  O  O34  1  0.35941284  0.88041593  0.86610524  1
  O  O35  1  0.50696876  0.64467598  0.86376868  1
  O  O36  1  0.00684629  0.82741413  0.41448661  1
  O  O37  1  0.79363045  0.98023576  0.41003783  1
  O  O38  1  0.15054493  0.18403731  0.41121204  1
  O  O39  1  0.02180377  0.20889953  0.91642669  1
  O  O40  1  0.19073387  0.99118785  0.91392698  1
  O  O41  1  0.82604248  0.83411407  0.91346066  1
  O  O42  1  0.97591056  0.17814902  0.58321348  1
  O  O43  1  0.20447591  0.02082731  0.58138469  1
  O  O44  1  0.82413218  0.80253811  0.58383018  1
  O  O45  1  0.97360250  0.78910420  0.08231110  1
  O  O46  1  0.84413886  0.02991518  0.08321262  1
  O  O47  1  0.20865368  0.17341961  0.08507493  1
  O  O48  1  0.66397850  0.15450279  0.74027415  1
  O  O49  1  0.48594742  0.33193494  0.74257508  1
  O  O50  1  0.84619903  0.51010921  0.74056806  1
  O  O51  1  0.68277700  0.51563854  0.24328393  1
  O  O52  1  0.86070398  0.32761243  0.24320952  1
  O  O53  1  0.49205844  0.15973851  0.24645811  1
  O  O54  1  0.64652372  0.49016514  0.92679744  1
  O  O55  1  0.86474042  0.36104725  0.92380730  1
  O  O56  1  0.49775976  0.13603785  0.92447561  1
  O  O57  1  0.63158961  0.12264692  0.42117229  1
  O  O58  1  0.49696323  0.34643490  0.41820738  1
  O  O59  1  0.85571113  0.48523280  0.41849827  1
  O  O60  1  0.34475959  0.47777920  0.07559379  1
  O  O61  1  0.12512535  0.63284366  0.07462808  1
  O  O62  1  0.49351244  0.85254423  0.08031827  1
  O  O63  1  0.36341744  0.86827383  0.57937270  1
  O  O64  1  0.51385630  0.65332331  0.57763439  1
  O  O65  1  0.13216310  0.48913346  0.58017919  1
  O  O66  1  0.31256379  0.82247370  0.25837541  1
  O  O67  1  0.50299913  0.67580844  0.25870380  1
  O  O68  1  0.16447123  0.47090351  0.25596016  1
  O  O69  1  0.30691858  0.48237551  0.76082997  1
  O  O70  1  0.17561637  0.68654157  0.76613079  1
  O  O71  1  0.51285650  0.82707434  0.76105238  1
loop_
_geom_bond_atom_site_label_1
_geom_bond_atom_site_label_2
_geom_bond_distance
_geom_bond_site_symmetry_2
Na0 O16 2.359932 1_555
Na0 O53 2.381122 1_555
Na0 O66 2.575895 1_545
Na0 O67 2.627191 1_545
Na0 O52 2.629220 1_555
Na0 O9 2.718362 1_545
Na1 O51 2.386561 1_555
Na1 O53 2.426532 1_555
Na1 O67 2.585269 1_555
Na1 O68 2.692596 1_555
Na1 O0 2.743201 1_555
Na1 O17 2.768752 1_555
Na1 O32 2.789837 1_555
Na2 O51 2.408417 1_555
Na2 O66 2.548485 1_655
Na2 O52 2.632174 1_555
Na2 O11 2.762941 1_655
Na2 O15 2.772069 1_555
Na2 O1 2.784740 1_555
Na2 O30 2.848131 1_655
Na2 O68 2.868645 1_655
Na3 O49 2.438883 1_555
Na3 O50 2.475082 1_555
Na3 O4 2.541670 1_555
Na3 O71 2.701401 1_555
Na3 O14 2.763639 1_555
Na3 O69 2.829938 1_555
Na3 O6 2.831647 1_555
Na3 O35 2.896726 1_555
Na4 O50 2.378654 1_555
Na4 O48 2.508675 1_555
Na4 O69 2.585153 1_655
Na4 O5 2.610326 1_555
Na4 O70 2.722344 1_655
Na4 O12 2.743775 1_555
Na4 O33 2.874664 1_655
Na4 O7 2.877454 1_655
Na5 O48 2.404073 1_555
Na5 O49 2.519519 1_555
Na5 O70 2.616110 1_545
Na5 O71 2.708504 1_545
Na5 O3 2.726089 1_555
Na5 O13 2.764799 1_555
Na5 O8 2.768008 1_545
Na5 O34 2.849095 1_545
Na6 O7 2.411688 1_555
Na6 O42 2.489928 1_455
Na6 O43 2.506776 1_555
Na6 O65 2.538439 1_555
Na6 O64 2.618004 1_555
Na6 O28 2.637149 1_555
Na6 O14 2.963899 1_555
Na7 O8 2.383983 1_555
Na7 O43 2.462412 1_565
Na7 O44 2.486869 1_455
Na7 O65 2.553020 1_555
Na7 O63 2.565414 1_555
Na7 O29 2.674454 1_555
Na8 O6 2.265279 1_555
Na8 O42 2.448269 1_565
Na8 O63 2.508375 1_555
Na8 O64 2.513270 1_555
Na8 O44 2.517566 1_555
Na9 O62 2.408261 1_555
Na9 O11 2.414857 1_555
Na9 O47 2.465290 1_565
Na9 O45 2.654342 1_455
Na9 O61 2.685551 1_555
Na9 O26 2.829145 1_554
Na9 O16 2.863786 1_565
Na10 O24 2.380086 1_554
Na10 O62 2.404143 1_555
Na10 O46 2.423630 1_565
Na10 O45 2.533545 1_555
Na10 O9 2.567415 1_555
Na10 O60 2.647728 1_555
Na11 O46 2.302545 1_455
Na11 O60 2.519948 1_555
Na11 O61 2.524396 1_555
Na11 O47 2.617391 1_555
Na11 O25 2.625435 1_554
Na11 O10 2.725596 1_555
Na12 O38 2.362389 1_655
Na12 O59 2.373900 1_555
Na12 O23 2.619702 1_555
Na12 O37 2.633775 1_545
Na12 O57 2.755286 1_555
Na12 O2 2.813733 1_555
Na12 O28 2.857992 1_655
Na12 O30 2.957874 1_655
Na13 O58 2.451612 1_555
Na13 O38 2.459305 1_555
Na13 O36 2.468984 1_545
Na13 O0 2.497261 1_555
Na13 O57 2.582973 1_555
Na13 O21 2.785982 1_555
Na14 O36 2.338787 1_655
Na14 O1 2.450632 1_555
Na14 O58 2.512551 1_555
Na14 O59 2.520417 1_555
Na14 O37 2.644051 1_555
Na14 O22 2.792637 1_555
Na14 O32 2.980033 1_555
Na15 O36 2.358344 1_545
Na15 O38 2.374352 1_555
Na15 O43 2.525900 1_555
Na15 O44 2.667783 1_445
Na15 O37 2.675851 1_445
Na15 O42 2.699766 1_455
Na16 O41 2.184831 1_555
Na16 O39 2.442428 1_665
Na16 O46 2.505002 1_566
Na16 O40 2.613080 1_655
Na16 O45 2.740874 1_556
Na16 O47 2.865055 1_666
Na17 O49 2.346304 1_555
Na17 O50 2.375282 1_555
Na17 O48 2.440742 1_555
Na17 O54 2.809012 1_555
Na17 O55 2.862921 1_555
Na17 O56 2.891618 1_555
Na18 O58 2.390702 1_555
Na18 O51 2.465355 1_555
Na18 O53 2.488182 1_555
Na18 O59 2.492598 1_555
Na18 O57 2.735901 1_555
Na18 O52 2.807887 1_555
Na19 O62 2.305736 1_555
Na19 O67 2.511203 1_555
Na19 O66 2.537499 1_555
Na19 O61 2.750156 1_555
Na19 O60 2.758630 1_555
Na19 O68 2.791060 1_555
Na20 O71 2.588556 1_555
Na20 O65 2.591296 1_555
Na20 O69 2.596463 1_555
Na20 O63 2.600502 1_555
Na20 O70 2.649940 1_555
Na20 O64 2.678882 1_555
Mg0 O0 1.952631 1_565
Mg0 O1 1.995802 1_455
Mg0 O36 2.028773 1_555
Mg0 O38 2.087473 1_565
Mg0 O2 2.270411 1_465
Mg0 O37 2.342861 1_455
Mg1 O4 1.932368 1_555
Mg1 O5 1.955522 1_565
Mg1 O3 2.017736 1_665
Mg1 O41 2.085523 1_555
Mg1 O40 2.386012 1_655
Mg1 O39 2.481274 1_665
Mg2 O7 1.978372 1_665
Mg2 O6 1.990130 1_555
Mg2 O8 1.998736 1_655
Mg2 O44 2.510526 1_555
Mg2 O42 2.595158 1_565
Mg2 O43 2.629904 1_665
Mg3 O9 1.962980 1_555
Mg3 O11 2.049478 1_655
Mg3 O46 2.172216 1_565
Mg3 O10 2.192408 1_665
Mg3 O45 2.355037 1_555
Mg3 O47 2.427943 1_665
Mg4 O50 1.989644 1_555
Mg4 O48 1.991933 1_555
Mg4 O49 2.013722 1_555
Mg4 O13 2.155269 1_555
Mg4 O14 2.200104 1_555
Mg4 O12 2.200398 1_555
Mg5 O16 1.975389 1_555
Mg5 O53 2.001650 1_555
Mg5 O51 2.057846 1_555
Mg5 O17 2.116317 1_555
Mg5 O15 2.208809 1_555
Mg5 O52 2.224554 1_555
Mg6 O58 2.037917 1_555
Mg6 O59 2.040820 1_555
Mg6 O22 2.087253 1_555
Mg6 O21 2.124421 1_555
Mg6 O23 2.145624 1_555
Mg6 O57 2.264202 1_555
Mg7 O24 1.904673 1_554
Mg7 O62 2.037965 1_555
Mg7 O26 2.042276 1_554
Mg7 O25 2.150949 1_554
Mg7 O60 2.272883 1_555
Mg7 O61 2.331562 1_555
Mg8 O29 1.923155 1_555
Mg8 O28 1.933193 1_555
Mg8 O27 2.111140 1_555
Mg8 O65 2.219580 1_555
Mg8 O64 2.242641 1_555
Mg8 O63 2.306972 1_555
O0 Si0 1.609889 1_555
O1 Si1 1.612290 1_555
O2 S0 1.463247 1_655
O3 Si2 1.590951 1_555
O4 Si3 1.587931 1_655
O5 Si4 1.586950 1_555
O6 Si4 1.636181 1_565
O7 Si2 1.636496 1_555
O8 Si3 1.644223 1_555
O9 Si1 1.630029 1_555
O10 S0 1.481110 1_555
O11 Si0 1.642143 1_565
O12 S1 1.473146 1_555
O13 S2 1.475150 1_555
O14 S3 1.476013 1_555
O15 S4 1.470100 1_555
O16 Si5 1.608649 1_555
O17 S5 1.476319 1_555
O18 S5 1.514198 1_555
O18 Ta0 2.144856 1_554
O19 S4 1.517719 1_555
O19 Ta0 2.079575 1_554
O20 Si5 1.715329 1_555
O20 Ta0 1.917618 1_554
O21 S2 1.487539 1_555
O22 S3 1.487334 1_555
O23 S1 1.491720 1_555
O24 Si6 1.598217 1_555
O25 S6 1.464220 1_555
O26 S7 1.463586 1_555
O27 S8 1.466335 1_555
O28 Si7 1.607543 1_555
O29 Si8 1.606477 1_555
O30 Si8 1.733538 1_555
O30 Ta1 1.913929 1_555
O31 S8 1.535176 1_555
O31 Ta1 2.052659 1_555
O32 Si7 1.725298 1_555
O32 Ta1 1.914037 1_555
O33 S6 1.483810 1_555
O33 Ta2 2.225770 1_555
O34 S7 1.476748 1_555
O34 Ta2 2.282852 1_555
O35 Si6 1.692125 1_555
O35 Ta2 1.924588 1_555
O36 Si8 1.619985 1_555
O37 S8 1.466851 1_555
O38 Si7 1.625104 1_555
O39 S6 1.452238 1_555
O40 S7 1.454342 1_555
O41 Si6 1.586712 1_555
O42 S1 1.490858 1_555
O43 S2 1.491046 1_555
O44 S3 1.493176 1_555
O45 S4 1.479143 1_555
O46 Si5 1.645473 1_555
O47 S5 1.482667 1_555
O48 Si4 1.617730 1_555
O49 Si2 1.623839 1_555
O50 Si3 1.624438 1_655
O51 Si1 1.640809 1_555
O52 S0 1.472764 1_655
O53 Si0 1.631560 1_555
O54 Si6 1.735044 1_555
O54 Ta0 1.907261 1_555
O55 S6 1.566884 1_655
O55 Ta0 2.014569 1_555
O56 S7 1.567226 1_545
O56 Ta0 1.996096 1_555
O57 S8 1.474200 1_545
O58 Si7 1.632764 1_555
O59 Si8 1.635835 1_655
O60 S5 1.482871 1_555
O61 S4 1.484348 1_455
O62 Si5 1.645394 1_565
O63 S2 1.510294 1_565
O64 S3 1.508316 1_555
O65 S1 1.509787 1_455
O66 Si0 1.716909 1_565
O66 Ta1 2.003571 1_555
O67 Si1 1.705394 1_555
O67 Ta1 1.992496 1_555
O68 S0 1.534860 1_555
O68 Ta1 2.116199 1_555
O69 Si2 1.735792 1_555
O69 Ta2 1.878587 1_555
O70 Si3 1.699908 1_555
O70 Ta2 1.950213 1_555
O71 Si4 1.724710 1_565
O71 Ta2 1.882592 1_555
