# generated using pymatgen
data_Mn2Cu(PO4)3
_symmetry_space_group_name_H-M   'P 1'
_cell_length_a   8.80139027
_cell_length_b   8.27206421
_cell_length_c   8.54674127
_cell_angle_alpha   60.83225738
_cell_angle_beta   58.85744293
_cell_angle_gamma   60.51165993
_symmetry_Int_Tables_number   1
_chemical_formula_structural   Mn2Cu(PO4)3
_chemical_formula_sum   'Mn4 Cu2 P6 O24'
_cell_volume   440.36965996
_cell_formula_units_Z   2
loop_
 _symmetry_equiv_pos_site_id
 _symmetry_equiv_pos_as_xyz
  1  'x, y, z'
loop_
 _atom_site_type_symbol
 _atom_site_label
 _atom_site_symmetry_multiplicity
 _atom_site_fract_x
 _atom_site_fract_y
 _atom_site_fract_z
 _atom_site_occupancy
  Mn  Mn0  1  0.14812800  0.13847400  0.14286900  1
  Mn  Mn1  1  0.35671400  0.35961800  0.35787300  1
  Mn  Mn2  1  0.64328600  0.64038200  0.64212700  1
  Mn  Mn3  1  0.85187200  0.86152600  0.85713100  1
  Cu  Cu0  1  0.00000000  0.00000000  0.00000000  1
  Cu  Cu1  1  0.50000000  0.50000000  0.50000000  1
  P  P0  1  0.03254000  0.75226100  0.45660600  1
  P  P1  1  0.45827000  0.05069000  0.74719800  1
  P  P2  1  0.74576800  0.45547700  0.03597900  1
  P  P3  1  0.25423200  0.54452300  0.96402100  1
  P  P4  1  0.54173000  0.94931000  0.25280200  1
  P  P5  1  0.96746000  0.24773900  0.54339400  1
  O  O0  1  0.12620600  0.30467500  0.50878800  1
  O  O1  1  0.31754000  0.50094000  0.12124700  1
  O  O2  1  0.05691900  0.91451300  0.25675000  1
  O  O3  1  0.50561200  0.11306600  0.31692800  1
  O  O4  1  0.99820700  0.81489300  0.61554000  1
  O  O5  1  0.22567400  0.58580600  0.44202100  1
  O  O6  1  0.26092900  0.06507800  0.91207400  1
  O  O7  1  0.43911500  0.25425900  0.57898800  1
  O  O8  1  0.18432700  0.39029100  0.99753800  1
  O  O9  1  0.57385100  0.45399500  0.23570000  1
  O  O10  1  0.10109300  0.74783500  0.94627400  1
  O  O11  1  0.39196800  0.97439200  0.19838100  1
  O  O12  1  0.60803200  0.02560800  0.80161900  1
  O  O13  1  0.89890700  0.25216500  0.05372600  1
  O  O14  1  0.42614900  0.54600500  0.76430000  1
  O  O15  1  0.81567300  0.60970900  0.00246200  1
  O  O16  1  0.56088500  0.74574100  0.42101200  1
  O  O17  1  0.73907100  0.93492200  0.08792600  1
  O  O18  1  0.77432600  0.41419400  0.55797900  1
  O  O19  1  0.00179300  0.18510700  0.38446000  1
  O  O20  1  0.49438800  0.88693400  0.68307200  1
  O  O21  1  0.94308100  0.08548700  0.74325000  1
  O  O22  1  0.68246000  0.49906000  0.87875300  1
  O  O23  1  0.87379400  0.69532500  0.49121200  1
loop_
_geom_bond_atom_site_label_1
_geom_bond_atom_site_label_2
_geom_bond_distance
_geom_bond_site_symmetry_2
Mn0 O19 1.899380 1_555
Mn0 O8 1.924958 1_554
Mn0 O6 1.947701 1_554
Mn0 O2 1.980488 1_545
Mn0 O11 2.056930 1_545
Mn0 O13 2.296864 1_455
Mn1 O3 1.894579 1_555
Mn1 O1 1.896169 1_555
Mn1 O0 1.901559 1_555
Mn1 O5 1.917663 1_555
Mn1 O9 1.990558 1_555
Mn1 O7 2.011686 1_555
Mn2 O20 1.894579 1_555
Mn2 O22 1.896169 1_555
Mn2 O23 1.901559 1_555
Mn2 O18 1.917663 1_555
Mn2 O14 1.990558 1_555
Mn2 O16 2.011686 1_555
Mn3 O4 1.899380 1_555
Mn3 O15 1.924958 1_556
Mn3 O17 1.947701 1_556
Mn3 O21 1.980488 1_565
Mn3 O12 2.056930 1_565
Mn3 O10 2.296864 1_655
Cu0 O13 2.009339 1_455
Cu0 O10 2.009339 1_544
Cu0 O2 2.200466 1_545
Cu0 O21 2.200466 1_454
Cu0 O17 2.272959 1_445
Cu0 O6 2.272959 1_554
Cu1 O16 2.058086 1_555
Cu1 O7 2.058086 1_555
Cu1 O14 2.178456 1_555
Cu1 O9 2.178456 1_555
Cu1 O18 2.405499 1_555
Cu1 O5 2.405499 1_555
O0 P5 1.531683 1_455
O1 P3 1.533178 1_554
O2 P0 1.560409 1_555
O3 P4 1.534891 1_545
O4 P0 1.520589 1_655
O5 P0 1.563589 1_555
O6 P1 1.563652 1_555
O7 P1 1.594475 1_555
O8 P3 1.523996 1_555
O9 P2 1.590511 1_555
O10 P3 1.548970 1_555
O11 P4 1.505869 1_555
O12 P1 1.505869 1_555
O13 P2 1.548970 1_555
O14 P3 1.590511 1_555
O15 P2 1.523996 1_555
O16 P4 1.594475 1_555
O17 P4 1.563652 1_555
O18 P5 1.563589 1_555
O19 P5 1.520589 1_455
O20 P1 1.534891 1_565
O21 P5 1.560409 1_555
O22 P2 1.533178 1_556
O23 P0 1.531683 1_655
