# generated using pymatgen
data_CrPO4
_symmetry_space_group_name_H-M   'P 1'
_cell_length_a   5.97598700
_cell_length_b   7.71282100
_cell_length_c   11.10066600
_cell_angle_alpha   90.00000000
_cell_angle_beta   90.00000000
_cell_angle_gamma   90.00000000
_symmetry_Int_Tables_number   1
_chemical_formula_structural   CrPO4
_chemical_formula_sum   'Cr8 P8 O32'
_cell_volume   511.64876721
_cell_formula_units_Z   8
loop_
 _symmetry_equiv_pos_site_id
 _symmetry_equiv_pos_as_xyz
  1  'x, y, z'
loop_
 _atom_site_type_symbol
 _atom_site_label
 _atom_site_symmetry_multiplicity
 _atom_site_fract_x
 _atom_site_fract_y
 _atom_site_fract_z
 _atom_site_occupancy
  Cr  Cr0  1  0.60706300  0.82881500  0.43333200  1
  Cr  Cr1  1  0.10706300  0.82881500  0.06666800  1
  Cr  Cr2  1  0.60706300  0.67118500  0.93333200  1
  Cr  Cr3  1  0.10706300  0.67118500  0.56666800  1
  Cr  Cr4  1  0.89293700  0.32881500  0.43333200  1
  Cr  Cr5  1  0.39293700  0.32881500  0.06666800  1
  Cr  Cr6  1  0.89293700  0.17118500  0.93333200  1
  Cr  Cr7  1  0.39293700  0.17118500  0.56666800  1
  P  P0  1  0.89337300  0.05183000  0.64299600  1
  P  P1  1  0.39337300  0.05183000  0.85700400  1
  P  P2  1  0.89337300  0.44817000  0.14299600  1
  P  P3  1  0.39337300  0.44817000  0.35700400  1
  P  P4  1  0.60662700  0.55183000  0.64299600  1
  P  P5  1  0.10662700  0.55183000  0.85700400  1
  P  P6  1  0.60662700  0.94817000  0.14299600  1
  P  P7  1  0.10662700  0.94817000  0.35700400  1
  O  O0  1  0.82280800  0.53600500  0.55873600  1
  O  O1  1  0.82280800  0.96399500  0.05873600  1
  O  O2  1  0.67818400  0.90223000  0.26927200  1
  O  O3  1  0.17818400  0.90223000  0.23072800  1
  O  O4  1  0.51137300  0.87721300  0.85485200  1
  O  O5  1  0.01137300  0.87721300  0.64514800  1
  O  O6  1  0.96807200  0.79784500  0.42112200  1
  O  O7  1  0.46807200  0.79784500  0.07887800  1
  O  O8  1  0.67719200  0.03600500  0.55873600  1
  O  O9  1  0.17719200  0.03600500  0.94126400  1
  O  O10  1  0.32181600  0.09777000  0.73072800  1
  O  O11  1  0.82181600  0.09777000  0.76927200  1
  O  O12  1  0.48862700  0.12278700  0.14514800  1
  O  O13  1  0.98862700  0.12278700  0.35485200  1
  O  O14  1  0.03192800  0.20215500  0.57887800  1
  O  O15  1  0.53192800  0.20215500  0.92112200  1
  O  O16  1  0.03192800  0.29784500  0.07887800  1
  O  O17  1  0.53192800  0.29784500  0.42112200  1
  O  O18  1  0.48862700  0.37721300  0.64514800  1
  O  O19  1  0.96807200  0.70215500  0.92112200  1
  O  O20  1  0.32181600  0.40223000  0.23072800  1
  O  O21  1  0.82181600  0.40223000  0.26927200  1
  O  O22  1  0.67719200  0.46399500  0.05873600  1
  O  O23  1  0.17719200  0.46399500  0.44126400  1
  O  O24  1  0.98862700  0.37721300  0.85485200  1
  O  O25  1  0.32280800  0.53600500  0.94126400  1
  O  O26  1  0.17818400  0.59777000  0.73072800  1
  O  O27  1  0.67818400  0.59777000  0.76927200  1
  O  O28  1  0.01137300  0.62278700  0.14514800  1
  O  O29  1  0.51137300  0.62278700  0.35485200  1
  O  O30  1  0.46807200  0.70215500  0.57887800  1
  O  O31  1  0.32280800  0.96399500  0.44126400  1
loop_
_geom_bond_atom_site_label_1
_geom_bond_atom_site_label_2
_geom_bond_distance
_geom_bond_site_symmetry_2
Cr0 O29 1.900279 1_555
Cr0 O2 1.953956 1_555
Cr0 O31 1.995095 1_555
Cr0 O30 2.062669 1_555
Cr0 O8 2.160360 1_565
Cr0 O6 2.174796 1_555
Cr1 O28 1.900279 1_555
Cr1 O3 1.953956 1_555
Cr1 O1 1.995095 1_455
Cr1 O19 2.062669 1_454
Cr1 O9 2.160360 1_564
Cr1 O7 2.174796 1_555
Cr2 O4 1.900279 1_555
Cr2 O27 1.953956 1_555
Cr2 O25 1.995095 1_555
Cr2 O7 2.062669 1_556
Cr2 O22 2.160360 1_556
Cr2 O19 2.174796 1_555
Cr3 O5 1.900279 1_555
Cr3 O26 1.953956 1_555
Cr3 O0 1.995095 1_455
Cr3 O6 2.062669 1_455
Cr3 O23 2.160360 1_555
Cr3 O30 2.174796 1_555
Cr4 O13 1.900279 1_555
Cr4 O21 1.953956 1_555
Cr4 O23 1.995095 1_655
Cr4 O14 2.062669 1_655
Cr4 O0 2.160360 1_555
Cr4 O17 2.174796 1_555
Cr5 O12 1.900279 1_555
Cr5 O20 1.953956 1_555
Cr5 O22 1.995095 1_555
Cr5 O15 2.062669 1_554
Cr5 O25 2.160360 1_554
Cr5 O16 2.174796 1_555
Cr6 O24 1.900279 1_555
Cr6 O11 1.953956 1_555
Cr6 O9 1.995095 1_655
Cr6 O16 2.062669 1_656
Cr6 O1 2.160360 1_546
Cr6 O15 2.174796 1_555
Cr7 O18 1.900279 1_555
Cr7 O10 1.953956 1_555
Cr7 O8 1.995095 1_555
Cr7 O17 2.062669 1_555
Cr7 O31 2.160360 1_545
Cr7 O14 2.174796 1_555
O0 P4 1.599611 1_555
O1 P6 1.599611 1_555
O2 P6 1.507749 1_555
O3 P7 1.507749 1_555
O4 P1 1.520419 1_565
O5 P0 1.520419 1_465
O6 P7 1.592626 1_655
O7 P6 1.592626 1_555
O8 P0 1.599611 1_555
O9 P1 1.599611 1_555
O10 P1 1.507749 1_555
O11 P0 1.507749 1_555
O12 P6 1.520419 1_545
O13 P7 1.520419 1_645
O14 P0 1.592626 1_455
O15 P1 1.592626 1_555
O16 P2 1.592626 1_455
O17 P3 1.592626 1_555
O18 P4 1.520419 1_555
O19 P5 1.592626 1_655
O20 P3 1.507749 1_555
O21 P2 1.507749 1_555
O22 P2 1.599611 1_555
O23 P3 1.599611 1_555
O24 P5 1.520419 1_655
O25 P5 1.599611 1_555
O26 P5 1.507749 1_555
O27 P4 1.507749 1_555
O28 P2 1.520419 1_455
O29 P3 1.520419 1_555
O30 P4 1.592626 1_555
O31 P7 1.599611 1_555
