# generated using pymatgen
data_Na2Te2O5
_symmetry_space_group_name_H-M   'P 1'
_cell_length_a   11.96096353
_cell_length_b   11.96096353
_cell_length_c   9.69013719
_cell_angle_alpha   77.80150558
_cell_angle_beta   77.80150558
_cell_angle_gamma   23.50885744
_symmetry_Int_Tables_number   1
_chemical_formula_structural   Na2Te2O5
_chemical_formula_sum   'Na8 Te8 O20'
_cell_volume   539.95596531
_cell_formula_units_Z   4
loop_
 _symmetry_equiv_pos_site_id
 _symmetry_equiv_pos_as_xyz
  1  'x, y, z'
loop_
 _atom_site_type_symbol
 _atom_site_label
 _atom_site_symmetry_multiplicity
 _atom_site_fract_x
 _atom_site_fract_y
 _atom_site_fract_z
 _atom_site_occupancy
  Na  Na0  1  0.83602083  0.82287056  0.20677166  1
  Na  Na1  1  0.17712944  0.16397917  0.29322834  1
  Na  Na2  1  0.16397917  0.17712944  0.79322834  1
  Na  Na3  1  0.82287056  0.83602083  0.70677166  1
  Na  Na4  1  0.93158289  0.96608064  0.41101758  1
  Na  Na5  1  0.03391936  0.06841711  0.08898242  1
  Na  Na6  1  0.06841711  0.03391936  0.58898242  1
  Na  Na7  1  0.96608064  0.93158289  0.91101758  1
  Te  Te0  1  0.44381675  0.43665970  0.17682727  1
  Te  Te1  1  0.56334030  0.55618325  0.32317273  1
  Te  Te2  1  0.55618325  0.56334030  0.82317273  1
  Te  Te3  1  0.43665970  0.44381675  0.67682727  1
  Te  Te4  1  0.39737006  0.22318947  0.45430174  1
  Te  Te5  1  0.77681053  0.60262994  0.04569826  1
  Te  Te6  1  0.60262994  0.77681053  0.54569826  1
  Te  Te7  1  0.22318947  0.39737006  0.95430174  1
  O  O0  1  0.50084702  0.00511112  0.36515751  1
  O  O1  1  0.99488888  0.49915298  0.13484249  1
  O  O2  1  0.49915298  0.99488888  0.63484249  1
  O  O3  1  0.00511112  0.50084702  0.86515751  1
  O  O4  1  0.35733268  0.35077072  0.24791159  1
  O  O5  1  0.64922928  0.64266732  0.25208841  1
  O  O6  1  0.64266732  0.64922928  0.75208841  1
  O  O7  1  0.35077072  0.35733268  0.74791159  1
  O  O8  1  0.42416333  0.48468302  0.36103687  1
  O  O9  1  0.51531698  0.57583667  0.13896313  1
  O  O10  1  0.57583667  0.51531698  0.63896313  1
  O  O11  1  0.48468302  0.42416333  0.86103687  1
  O  O12  1  0.82909251  0.06617547  0.15480035  1
  O  O13  1  0.93382453  0.17090749  0.34519965  1
  O  O14  1  0.17090749  0.93382453  0.84519965  1
  O  O15  1  0.06617547  0.82909251  0.65480035  1
  O  O16  1  0.95063516  0.75418672  0.96207805  1
  O  O17  1  0.24581328  0.04936484  0.53792195  1
  O  O18  1  0.04936484  0.24581328  0.03792195  1
  O  O19  1  0.75418672  0.95063516  0.46207805  1
loop_
_geom_bond_atom_site_label_1
_geom_bond_atom_site_label_2
_geom_bond_distance
_geom_bond_site_symmetry_2
Na0 O16 2.358064 1_554
Na0 O0 2.442510 1_565
Na0 O1 2.485119 1_555
Na0 O4 2.539588 1_655
Na0 O4 2.570209 1_565
Na0 O19 2.691641 1_555
Na0 O12 2.772277 1_565
Na1 O17 2.358064 1_555
Na1 O1 2.442510 1_455
Na1 O0 2.485119 1_555
Na1 O5 2.539588 1_545
Na1 O5 2.570209 1_455
Na1 O18 2.691641 1_555
Na1 O13 2.772277 1_455
Na2 O18 2.358064 1_556
Na2 O2 2.442510 1_545
Na2 O3 2.485119 1_555
Na2 O6 2.539588 1_455
Na2 O6 2.570209 1_545
Na2 O17 2.691641 1_555
Na2 O14 2.772277 1_545
Na3 O19 2.358064 1_555
Na3 O3 2.442510 1_655
Na3 O2 2.485119 1_555
Na3 O7 2.539588 1_565
Na3 O7 2.570209 1_655
Na3 O16 2.691641 1_555
Na3 O15 2.772277 1_655
Na4 O19 2.240027 1_555
Na4 O8 2.420053 1_655
Na4 O13 2.421271 1_565
Na4 O15 2.447550 1_655
Na4 O12 2.537463 1_565
Na4 O8 2.544534 1_565
Na5 O18 2.240027 1_555
Na5 O9 2.420053 1_545
Na5 O12 2.421271 1_455
Na5 O14 2.447550 1_544
Na5 O13 2.537463 1_455
Na5 O9 2.544534 1_455
Na6 O17 2.240027 1_555
Na6 O10 2.420053 1_455
Na6 O15 2.421271 1_545
Na6 O13 2.447550 1_455
Na6 O14 2.537463 1_545
Na6 O10 2.544534 1_545
Na7 O16 2.240027 1_555
Na7 O11 2.420053 1_565
Na7 O14 2.421271 1_655
Na7 O12 2.447550 1_566
Na7 O15 2.537463 1_655
Na7 O11 2.544534 1_655
O0 Te4 1.913488 1_555
O0 Te6 2.187165 1_545
O1 Te5 1.913488 1_555
O1 Te7 2.187165 1_654
O2 Te6 1.913488 1_555
O2 Te4 2.187165 1_565
O3 Te7 1.913488 1_555
O3 Te5 2.187165 1_456
O4 Te0 1.987134 1_555
O4 Te4 2.081479 1_555
O5 Te1 1.987134 1_555
O5 Te5 2.081479 1_555
O6 Te2 1.987134 1_555
O6 Te6 2.081479 1_555
O7 Te3 1.987134 1_555
O7 Te7 2.081479 1_555
O8 Te0 1.892040 1_555
O8 Te1 2.420222 1_555
O9 Te1 1.892040 1_555
O9 Te0 2.420222 1_555
O10 Te2 1.892040 1_555
O10 Te3 2.420222 1_555
O11 Te3 1.892040 1_555
O11 Te2 2.420222 1_555
O12 Te0 1.857640 1_555
O13 Te1 1.857640 1_555
O14 Te2 1.857640 1_555
O15 Te3 1.857640 1_555
O16 Te7 1.833905 1_655
O17 Te6 1.833905 1_545
O18 Te5 1.833905 1_455
O19 Te4 1.833905 1_565
