# generated using pymatgen
data_MgZn(CoO2)4
_symmetry_space_group_name_H-M   'P 1'
_cell_length_a   2.96335061
_cell_length_b   7.50416138
_cell_length_c   7.93772950
_cell_angle_alpha   66.55791707
_cell_angle_beta   79.30667054
_cell_angle_gamma   78.39753881
_symmetry_Int_Tables_number   1
_chemical_formula_structural   MgZn(CoO2)4
_chemical_formula_sum   'Mg1 Zn1 Co4 O8'
_cell_volume   157.53906834
_cell_formula_units_Z   1
loop_
 _symmetry_equiv_pos_site_id
 _symmetry_equiv_pos_as_xyz
  1  'x, y, z'
loop_
 _atom_site_type_symbol
 _atom_site_label
 _atom_site_symmetry_multiplicity
 _atom_site_fract_x
 _atom_site_fract_y
 _atom_site_fract_z
 _atom_site_occupancy
  Mg  Mg0  1  0.31771800  0.17556600  0.25005800  1
  Zn  Zn0  1  0.54125500  0.04035300  0.94975100  1
  Co  Co0  1  0.61371900  0.24717300  0.57103900  1
  Co  Co1  1  0.16678500  0.60943000  0.19117800  1
  Co  Co2  1  0.87580200  0.43541200  0.87854800  1
  Co  Co3  1  0.28157700  0.87136100  0.62635000  1
  O  O0  1  0.83133500  0.69021500  0.70947600  1
  O  O1  1  0.46650800  0.36530600  0.75988400  1
  O  O2  1  0.58270800  0.77508500  0.14930600  1
  O  O3  1  0.13719800  0.37834800  0.38744500  1
  O  O4  1  0.13619200  0.03537900  0.75767300  1
  O  O5  1  0.91573800  0.17119200  0.06440700  1
  O  O6  1  0.79015500  0.03000600  0.44780400  1
  O  O7  1  0.28534900  0.48484900  0.01472900  1
loop_
_geom_bond_atom_site_label_1
_geom_bond_atom_site_label_2
_geom_bond_distance
_geom_bond_site_symmetry_2
Mg0 O5 2.073004 1_455
Mg0 O5 2.087857 1_555
Mg0 O6 2.110252 1_555
Mg0 O6 2.124402 1_455
Mg0 O3 2.137165 1_555
Mg0 O7 2.326514 1_555
Co0 O1 1.970338 1_555
Co0 O3 2.032984 1_655
Co0 O3 2.037146 1_555
Co0 O6 2.149853 1_555
Co0 O4 2.230797 1_555
Co0 O4 2.259615 1_655
Co1 O3 1.817362 1_555
Co1 O2 1.819458 1_555
Co1 O2 1.915939 1_455
Co1 O7 1.919947 1_555
Co2 O0 1.843120 1_555
Co2 O1 1.907903 1_655
Co2 O1 1.926126 1_555
Co2 O7 1.929690 1_556
Co2 O5 1.940319 1_556
Co2 O7 1.940630 1_656
Co3 O4 1.851485 1_565
Co3 O0 1.931774 1_555
Co3 O0 1.937148 1_455
Co3 O6 2.067049 1_465
Co3 O6 2.069740 1_565
O1 Zn0 2.291133 1_555
O2 Zn0 1.987911 1_564
O4 Zn0 2.110798 1_455
O4 Zn0 2.123507 1_555
O5 Zn0 2.132564 1_554
O5 Zn0 2.140347 1_654
