# generated using pymatgen
data_CsPuO3
_symmetry_space_group_name_H-M   'P 1'
_cell_length_a   6.29590300
_cell_length_b   6.29465100
_cell_length_c   8.78397600
_cell_angle_alpha   90.00000000
_cell_angle_beta   90.00000000
_cell_angle_gamma   90.00000000
_symmetry_Int_Tables_number   1
_chemical_formula_structural   CsPuO3
_chemical_formula_sum   'Cs4 Pu4 O12'
_cell_volume   348.11346728
_cell_formula_units_Z   4
loop_
 _symmetry_equiv_pos_site_id
 _symmetry_equiv_pos_as_xyz
  1  'x, y, z'
loop_
 _atom_site_type_symbol
 _atom_site_label
 _atom_site_symmetry_multiplicity
 _atom_site_fract_x
 _atom_site_fract_y
 _atom_site_fract_z
 _atom_site_occupancy
  Cs  Cs0  1  0.99996000  0.00005100  0.75000000  1
  Cs  Cs1  1  0.49996000  0.49994900  0.75000000  1
  Cs  Cs2  1  0.50004000  0.50005100  0.25000000  1
  Cs  Cs3  1  0.00004000  0.99994900  0.25000000  1
  Pu  Pu0  1  0.50000000  0.00000000  0.00000000  1
  Pu  Pu1  1  0.00000000  0.50000000  0.50000000  1
  Pu  Pu2  1  0.00000000  0.50000000  0.00000000  1
  Pu  Pu3  1  0.50000000  0.00000000  0.50000000  1
  O  O0  1  0.49987300  0.00022300  0.75000000  1
  O  O1  1  0.99987300  0.49977700  0.75000000  1
  O  O2  1  0.00012700  0.50022300  0.25000000  1
  O  O3  1  0.50012700  0.99977700  0.25000000  1
  O  O4  1  0.77533000  0.27528600  0.00017500  1
  O  O5  1  0.27533000  0.22471400  0.49982500  1
  O  O6  1  0.72467000  0.77528600  0.99982500  1
  O  O7  1  0.22467100  0.72471400  0.50017500  1
  O  O8  1  0.22467100  0.72471400  0.99982500  1
  O  O9  1  0.72467000  0.77528600  0.50017500  1
  O  O10  1  0.27533000  0.22471400  0.00017500  1
  O  O11  1  0.77533000  0.27528600  0.49982500  1
loop_
_geom_bond_atom_site_label_1
_geom_bond_atom_site_label_2
_geom_bond_distance
_geom_bond_site_symmetry_2
Cs0 O8 3.133846 1_645
Cs0 O7 3.133846 1_645
Cs0 O6 3.133900 1_545
Cs0 O9 3.133900 1_545
Cs0 O4 3.135415 1_556
Cs0 O11 3.135415 1_555
Cs0 O10 3.136042 1_656
Cs0 O5 3.136042 1_655
Cs0 O1 3.145601 1_555
Cs0 O0 3.147404 1_655
Cs0 O0 3.148499 1_555
Cs0 O1 3.149050 1_545
Cs1 O6 3.133843 1_555
Cs1 O9 3.133843 1_555
Cs1 O8 3.133896 1_555
Cs1 O7 3.133896 1_555
Cs1 O10 3.135415 1_556
Cs1 O5 3.135415 1_555
Cs1 O4 3.136042 1_556
Cs1 O11 3.136042 1_555
Cs1 O0 3.145601 1_555
Cs1 O1 3.147404 1_555
Cs1 O1 3.148499 1_455
Cs1 O0 3.149050 1_565
Cs2 O5 3.133843 1_555
Cs2 O10 3.133843 1_555
Cs2 O11 3.133900 1_555
Cs2 O4 3.133900 1_555
Cs2 O9 3.135415 1_555
Cs2 O6 3.135415 1_554
Cs2 O7 3.136039 1_555
Cs2 O8 3.136039 1_554
Cs2 O3 3.145601 1_555
Cs2 O2 3.147404 1_555
Cs2 O2 3.148499 1_655
Cs2 O3 3.149050 1_545
Cs3 O11 3.133843 1_465
Cs3 O4 3.133843 1_465
Cs3 O5 3.133900 1_565
Cs3 O10 3.133900 1_565
Cs3 O7 3.135418 1_555
Cs3 O8 3.135418 1_554
Cs3 O9 3.136042 1_455
Cs3 O6 3.136042 1_454
Cs3 O2 3.145601 1_555
Cs3 O3 3.147404 1_455
Cs3 O3 3.148499 1_555
Cs3 O2 3.149050 1_565
O0 Pu0 2.195995 1_556
O0 Pu3 2.195995 1_555
O1 Pu1 2.195995 1_655
O1 Pu2 2.195995 1_656
O2 Pu1 2.195995 1_555
O2 Pu2 2.195995 1_555
O3 Pu3 2.195995 1_565
O3 Pu0 2.195995 1_565
O4 Pu2 2.000403 1_655
O4 Pu0 2.451031 1_555
O5 Pu3 2.000403 1_555
O5 Pu1 2.451031 1_555
O6 Pu0 2.000403 1_566
O6 Pu2 2.451031 1_656
O7 Pu1 2.000408 1_555
O7 Pu3 2.451026 1_565
O8 Pu2 2.000408 1_556
O8 Pu0 2.451026 1_566
O9 Pu3 2.000403 1_565
O9 Pu1 2.451031 1_655
O10 Pu0 2.000403 1_555
O10 Pu2 2.451031 1_555
O11 Pu1 2.000403 1_655
O11 Pu3 2.451031 1_555
