# generated using pymatgen
data_Sr4Y2Mg(RuO6)2
_symmetry_space_group_name_H-M   'P 1'
_cell_length_a   5.74125607
_cell_length_b   6.06480045
_cell_length_c   8.61369505
_cell_angle_alpha   85.77123268
_cell_angle_beta   90.99874356
_cell_angle_gamma   89.88978071
_symmetry_Int_Tables_number   1
_chemical_formula_structural   Sr4Y2Mg(RuO6)2
_chemical_formula_sum   'Sr4 Y2 Mg1 Ru2 O12'
_cell_volume   299.06166599
_cell_formula_units_Z   1
loop_
 _symmetry_equiv_pos_site_id
 _symmetry_equiv_pos_as_xyz
  1  'x, y, z'
loop_
 _atom_site_type_symbol
 _atom_site_label
 _atom_site_symmetry_multiplicity
 _atom_site_fract_x
 _atom_site_fract_y
 _atom_site_fract_z
 _atom_site_occupancy
  Sr  Sr0  1  0.49702900  0.36901700  0.16886000  1
  Sr  Sr1  1  0.00251700  0.92108300  0.21864700  1
  Sr  Sr2  1  0.01724600  0.98956000  0.76088700  1
  Sr  Sr3  1  0.48408900  0.54453800  0.76010600  1
  Y  Y0  1  0.50079900  0.08111000  0.52343800  1
  Y  Y1  1  0.99869900  0.47555700  0.98408800  1
  Mg  Mg0  1  0.47303500  0.67857600  0.38464500  1
  Ru  Ru0  1  0.50790600  0.96577200  0.99872800  1
  Ru  Ru1  1  0.99601500  0.54842600  0.51108500  1
  O  O0  1  0.91223400  0.54333800  0.74050600  1
  O  O1  1  0.57558600  0.98621500  0.76916200  1
  O  O2  1  0.15008200  0.54021600  0.29024400  1
  O  O3  1  0.44041500  0.97423700  0.24993600  1
  O  O4  1  0.78779100  0.82038000  0.46866500  1
  O  O5  1  0.78114700  0.17423000  0.02433400  1
  O  O6  1  0.19101700  0.28530000  0.57069300  1
  O  O7  1  0.24668400  0.75459900  0.96862000  1
  O  O8  1  0.28253900  0.22908200  0.95440000  1
  O  O9  1  0.26501000  0.76375000  0.55415900  1
  O  O10  1  0.71538900  0.69688800  0.05081400  1
  O  O11  1  0.67476800  0.39770900  0.44642100  1
loop_
_geom_bond_atom_site_label_1
_geom_bond_atom_site_label_2
_geom_bond_distance
_geom_bond_site_symmetry_2
Mg0 O9 1.998729 1_555
Mg0 O3 2.069070 1_555
Mg0 O11 2.088877 1_555
Mg0 O4 2.140366 1_555
Mg0 O2 2.203924 1_555
O0 Ru1 2.040034 1_555
O0 Y1 2.157155 1_555
O0 Sr3 2.466849 1_555
O0 Sr2 2.791189 1_655
O1 Ru0 2.016762 1_555
O1 Y0 2.187067 1_565
O1 Sr2 2.538004 1_655
O1 Sr3 2.737184 1_555
O2 Ru1 2.115638 1_455
O2 Sr1 2.489543 1_555
O2 Sr0 2.522639 1_555
O2 Y1 2.817368 1_454
O3 Ru0 2.209179 1_554
O3 Sr0 2.467826 1_565
O3 Y0 2.507585 1_565
O3 Sr1 2.547448 1_555
O4 Ru1 2.042378 1_555
O4 Y0 2.359030 1_565
O4 Sr1 2.536173 1_655
O4 Sr2 3.065051 1_655
O5 Ru0 2.035841 1_544
O5 Y1 2.224947 1_554
O5 Sr0 2.426194 1_555
O5 Sr1 2.512610 1_645
O5 Sr2 2.952538 1_644
O6 Ru1 1.978859 1_455
O6 Y0 2.225656 1_555
O6 Sr2 2.554760 1_545
O6 Sr3 2.873633 1_555
O7 Ru0 1.999887 1_555
O7 Y1 2.211657 1_455
O7 Sr2 2.549925 1_555
O7 Sr3 2.668857 1_555
O7 Sr1 2.836076 1_556
O7 Sr0 3.132899 1_556
O8 Ru0 2.062767 1_545
O8 Y1 2.239868 1_455
O8 Sr0 2.409382 1_556
O8 Sr3 2.721024 1_555
O8 Sr2 2.735985 1_545
O9 Ru1 2.070590 1_455
O9 Y0 2.356812 1_565
O9 Sr3 2.462612 1_555
O9 Sr2 2.740487 1_555
O10 Ru0 2.036062 1_554
O10 Y1 2.217170 1_554
O10 Sr0 2.513053 1_555
O10 Sr1 2.621379 1_655
O10 Sr3 3.019531 1_554
O11 Ru1 2.143174 1_555
O11 Y0 2.228709 1_555
O11 Sr0 2.600889 1_555
O11 Sr3 3.121917 1_555
