# generated using pymatgen
data_MgMn6(O2F)4
_symmetry_space_group_name_H-M   'P 1'
_cell_length_a   7.65824575
_cell_length_b   5.67209224
_cell_length_c   5.93877595
_cell_angle_alpha   72.62567040
_cell_angle_beta   66.15968751
_cell_angle_gamma   70.79403714
_symmetry_Int_Tables_number   1
_chemical_formula_structural   MgMn6(O2F)4
_chemical_formula_sum   'Mg1 Mn6 O8 F4'
_cell_volume   218.69012965
_cell_formula_units_Z   1
loop_
 _symmetry_equiv_pos_site_id
 _symmetry_equiv_pos_as_xyz
  1  'x, y, z'
loop_
 _atom_site_type_symbol
 _atom_site_label
 _atom_site_symmetry_multiplicity
 _atom_site_fract_x
 _atom_site_fract_y
 _atom_site_fract_z
 _atom_site_occupancy
  Mg  Mg0  1  0.33628100  0.66413800  0.16344200  1
  Mn  Mn0  1  0.83625500  0.66407800  0.66341700  1
  Mn  Mn1  1  0.69304300  0.36292900  0.31189500  1
  Mn  Mn2  1  0.33635100  0.66403300  0.66337400  1
  Mn  Mn3  1  0.14311500  0.28491900  0.31507200  1
  Mn  Mn4  1  0.52937700  0.04338100  0.01211500  1
  Mn  Mn5  1  0.97943800  0.96548600  0.01517400  1
  O  O0  1  0.34992100  0.38554600  0.99621600  1
  O  O1  1  0.63320300  0.58718100  0.54391400  1
  O  O2  1  0.96783900  0.20357000  0.20204800  1
  O  O3  1  0.70462300  0.12448900  0.12534900  1
  O  O4  1  0.03935700  0.74129600  0.78306100  1
  O  O5  1  0.32255400  0.94276400  0.33068700  1
  O  O6  1  0.63552900  0.67918300  0.01330600  1
  O  O7  1  0.03703800  0.64903800  0.31371600  1
  F  F0  1  0.67338300  0.06455100  0.64947500  1
  F  F1  1  0.28561200  0.92798400  0.88133400  1
  F  F2  1  0.38693300  0.40027700  0.44550000  1
  F  F3  1  0.99903500  0.26420400  0.67804800  1
loop_
_geom_bond_atom_site_label_1
_geom_bond_atom_site_label_2
_geom_bond_distance
_geom_bond_site_symmetry_2
Mg0 O5 2.058871 1_555
Mg0 O0 2.058884 1_554
Mg0 O6 2.117938 1_555
Mg0 O7 2.117964 1_555
Mn0 O7 2.030459 1_655
Mn0 O6 2.031166 1_556
Mn0 O1 2.152963 1_555
Mn0 O4 2.154868 1_655
Mn1 O2 1.913684 1_555
Mn1 O3 1.949575 1_555
Mn1 O1 1.969606 1_555
Mn1 O6 2.183587 1_555
Mn2 O1 2.022484 1_555
Mn2 O4 2.023309 1_555
Mn2 O0 2.146273 1_555
Mn2 O5 2.146536 1_555
Mn3 O2 1.945776 1_455
Mn3 O7 1.953720 1_555
Mn3 O5 1.975935 1_545
Mn3 O0 1.986144 1_554
Mn4 O3 1.945660 1_555
Mn4 O6 1.954312 1_545
Mn4 O0 1.976087 1_554
Mn4 O5 1.985276 1_545
Mn5 O3 1.913447 1_565
Mn5 O2 1.949278 1_565
Mn5 O4 1.969619 1_654
Mn5 O7 2.184142 1_655
F0 Mn4 1.970156 1_556
F0 Mn1 2.191690 1_555
F0 Mn0 2.197612 1_545
F1 Mg0 1.960403 1_556
F1 Mn2 2.106185 1_555
F1 Mn5 2.107402 1_456
F2 Mg0 1.960193 1_555
F2 Mn2 2.105237 1_555
F2 Mn1 2.107140 1_555
F3 Mn3 1.972140 1_655
F3 Mn5 2.190952 1_546
F3 Mn0 2.194437 1_555
