# generated using pymatgen
data_TiCuSi
_symmetry_space_group_name_H-M   'P 1'
_cell_length_a   3.72712520
_cell_length_b   6.17257321
_cell_length_c   7.09204763
_cell_angle_alpha   90.00000000
_cell_angle_beta   90.00000000
_cell_angle_gamma   90.00000000
_symmetry_Int_Tables_number   1
_chemical_formula_structural   TiCuSi
_chemical_formula_sum   'Ti4 Cu4 Si4'
_cell_volume   163.15931558
_cell_formula_units_Z   4
loop_
 _symmetry_equiv_pos_site_id
 _symmetry_equiv_pos_as_xyz
  1  'x, y, z'
loop_
 _atom_site_type_symbol
 _atom_site_label
 _atom_site_symmetry_multiplicity
 _atom_site_fract_x
 _atom_site_fract_y
 _atom_site_fract_z
 _atom_site_occupancy
  Ti  Ti0  1  0.75000000  0.48190563  0.68328991  1
  Ti  Ti1  1  0.25000000  0.01809437  0.18328991  1
  Ti  Ti2  1  0.75000000  0.98190563  0.81671009  1
  Ti  Ti3  1  0.25000000  0.51809437  0.31671009  1
  Cu  Cu0  1  0.25000000  0.65523510  0.93155968  1
  Cu  Cu1  1  0.25000000  0.15523510  0.56844032  1
  Cu  Cu2  1  0.75000000  0.84476490  0.43155968  1
  Cu  Cu3  1  0.75000000  0.34476490  0.06844032  1
  Si  Si0  1  0.25000000  0.26875782  0.88405429  1
  Si  Si1  1  0.25000000  0.76875782  0.61594571  1
  Si  Si2  1  0.75000000  0.73124218  0.11594571  1
  Si  Si3  1  0.75000000  0.23124218  0.38405429  1
loop_
_geom_bond_atom_site_label_1
_geom_bond_atom_site_label_2
_geom_bond_distance
_geom_bond_site_symmetry_2
Cu0 Si2 2.324433 1_456
Cu0 Si2 2.324433 1_556
Cu0 Si1 2.345469 1_555
Cu0 Si0 2.409233 1_555
Cu0 Ti0 2.778081 1_455
Cu0 Ti0 2.778081 1_555
Cu0 Ti3 2.859668 1_556
Cu0 Ti2 2.863942 1_455
Cu0 Ti2 2.863942 1_555
Cu0 Ti1 2.864233 1_566
Cu1 Si3 2.324433 1_555
Cu1 Si3 2.324433 1_455
Cu1 Si0 2.345469 1_555
Cu1 Si1 2.409233 1_545
Cu1 Ti2 2.778081 1_445
Cu1 Ti2 2.778081 1_545
Cu1 Ti1 2.859668 1_555
Cu1 Ti0 2.863942 1_555
Cu1 Ti0 2.863942 1_455
Cu1 Ti3 2.864233 1_555
Cu2 Si1 2.324433 1_555
Cu2 Si1 2.324433 1_655
Cu2 Si2 2.345469 1_555
Cu2 Si3 2.409233 1_565
Cu2 Ti1 2.778081 1_565
Cu2 Ti1 2.778081 1_665
Cu2 Ti2 2.859668 1_555
Cu2 Ti3 2.863942 1_555
Cu2 Ti3 2.863942 1_655
Cu2 Ti0 2.864233 1_555
Cu3 Si0 2.324433 1_654
Cu3 Si0 2.324433 1_554
Cu3 Si3 2.345469 1_555
Cu3 Si2 2.409233 1_555
Cu3 Ti3 2.778081 1_555
Cu3 Ti3 2.778081 1_655
Cu3 Ti0 2.859668 1_554
Cu3 Ti1 2.863942 1_655
Cu3 Ti1 2.863942 1_555
Cu3 Ti2 2.864233 1_544
Si0 Ti2 2.614585 1_445
Si0 Ti2 2.614585 1_545
Si0 Ti1 2.626338 1_556
Si0 Ti0 2.689079 1_555
Si0 Ti0 2.689079 1_455
Si1 Ti0 2.614585 1_455
Si1 Ti0 2.614585 1_555
Si1 Ti3 2.626338 1_555
Si1 Ti2 2.689079 1_455
Si1 Ti2 2.689079 1_555
Si2 Ti1 2.614585 1_565
Si2 Ti1 2.614585 1_665
Si2 Ti2 2.626338 1_554
Si2 Ti3 2.689079 1_655
Si2 Ti3 2.689079 1_555
Si3 Ti3 2.614585 1_655
Si3 Ti3 2.614585 1_555
Si3 Ti0 2.626338 1_555
Si3 Ti1 2.689079 1_555
Si3 Ti1 2.689079 1_655
