# generated using pymatgen
data_CeCrS3
_symmetry_space_group_name_H-M   'P 1'
_cell_length_a   3.77068444
_cell_length_b   7.86657679
_cell_length_c   13.07550999
_cell_angle_alpha   90.00000000
_cell_angle_beta   90.00000000
_cell_angle_gamma   90.00000000
_symmetry_Int_Tables_number   1
_chemical_formula_structural   CeCrS3
_chemical_formula_sum   'Ce4 Cr4 S12'
_cell_volume   387.85072899
_cell_formula_units_Z   4
loop_
 _symmetry_equiv_pos_site_id
 _symmetry_equiv_pos_as_xyz
  1  'x, y, z'
loop_
 _atom_site_type_symbol
 _atom_site_label
 _atom_site_symmetry_multiplicity
 _atom_site_fract_x
 _atom_site_fract_y
 _atom_site_fract_z
 _atom_site_occupancy
  Ce  Ce0  1  0.25000000  0.08484761  0.82785865  1
  Ce  Ce1  1  0.75000000  0.91515239  0.17214135  1
  Ce  Ce2  1  0.25000000  0.58484761  0.67214135  1
  Ce  Ce3  1  0.75000000  0.41515239  0.32785865  1
  Cr  Cr0  1  0.25000000  0.33955568  0.05272763  1
  Cr  Cr1  1  0.75000000  0.66044432  0.94727237  1
  Cr  Cr2  1  0.25000000  0.83955568  0.44727237  1
  Cr  Cr3  1  0.75000000  0.16044432  0.55272763  1
  S  S0  1  0.25000000  0.48598151  0.89338821  1
  S  S1  1  0.75000000  0.51401849  0.10661179  1
  S  S2  1  0.25000000  0.98598151  0.60661179  1
  S  S3  1  0.75000000  0.01401849  0.39338821  1
  S  S4  1  0.25000000  0.33746990  0.49414742  1
  S  S5  1  0.75000000  0.66253010  0.50585258  1
  S  S6  1  0.25000000  0.83746990  0.00585258  1
  S  S7  1  0.75000000  0.16253010  0.99414742  1
  S  S8  1  0.75000000  0.30341109  0.71290456  1
  S  S9  1  0.25000000  0.69658891  0.28709544  1
  S  S10  1  0.75000000  0.80341109  0.78709544  1
  S  S11  1  0.25000000  0.19658891  0.21290456  1
loop_
_geom_bond_atom_site_label_1
_geom_bond_atom_site_label_2
_geom_bond_distance
_geom_bond_site_symmetry_2
Ce0 S7 2.942036 1_455
Ce0 S7 2.942036 1_555
Ce0 S10 2.956373 1_545
Ce0 S10 2.956373 1_445
Ce0 S8 2.961406 1_455
Ce0 S8 2.961406 1_555
Ce0 S2 2.995636 1_545
Ce0 S6 3.033742 1_546
Ce0 S0 3.269811 1_555
Ce1 S6 2.942036 1_555
Ce1 S6 2.942036 1_655
Ce1 S11 2.956373 1_565
Ce1 S11 2.956373 1_665
Ce1 S9 2.961406 1_655
Ce1 S9 2.961406 1_555
Ce1 S3 2.995636 1_565
Ce1 S7 3.033742 1_564
Ce1 S1 3.269811 1_555
Ce2 S5 2.942036 1_555
Ce2 S5 2.942036 1_455
Ce2 S8 2.956373 1_455
Ce2 S8 2.956373 1_555
Ce2 S10 2.961406 1_455
Ce2 S10 2.961406 1_555
Ce2 S0 2.995636 1_555
Ce2 S4 3.033742 1_555
Ce2 S2 3.269811 1_555
Ce3 S4 2.942036 1_655
Ce3 S4 2.942036 1_555
Ce3 S9 2.956373 1_555
Ce3 S9 2.956373 1_655
Ce3 S11 2.961406 1_555
Ce3 S11 2.961406 1_655
Ce3 S1 2.995636 1_555
Ce3 S5 3.033742 1_555
Ce3 S3 3.269811 1_555
Cr0 S11 2.377257 1_555
Cr0 S0 2.380660 1_554
Cr0 S1 2.436078 1_555
Cr0 S1 2.436078 1_455
Cr0 S7 2.465870 1_454
Cr0 S7 2.465870 1_554
Cr1 S10 2.377257 1_555
Cr1 S1 2.380660 1_556
Cr1 S0 2.436078 1_655
Cr1 S0 2.436078 1_555
Cr1 S6 2.465870 1_556
Cr1 S6 2.465870 1_656
Cr2 S9 2.377257 1_555
Cr2 S2 2.380660 1_555
Cr2 S3 2.436078 1_565
Cr2 S3 2.436078 1_465
Cr2 S5 2.465870 1_455
Cr2 S5 2.465870 1_555
Cr3 S8 2.377257 1_555
Cr3 S3 2.380660 1_555
Cr3 S2 2.436078 1_645
Cr3 S2 2.436078 1_545
Cr3 S4 2.465870 1_655
Cr3 S4 2.465870 1_555
