# generated using pymatgen
data_LaIn(SO4)3
_symmetry_space_group_name_H-M   'P 1'
_cell_length_a   9.27623488
_cell_length_b   9.27623455
_cell_length_c   24.05603667
_cell_angle_alpha   90.00000000
_cell_angle_beta   90.00000000
_cell_angle_gamma   120.00000117
_symmetry_Int_Tables_number   1
_chemical_formula_structural   LaIn(SO4)3
_chemical_formula_sum   'La6 In6 S18 O72'
_cell_volume   1792.66096479
_cell_formula_units_Z   6
loop_
 _symmetry_equiv_pos_site_id
 _symmetry_equiv_pos_as_xyz
  1  'x, y, z'
loop_
 _atom_site_type_symbol
 _atom_site_label
 _atom_site_symmetry_multiplicity
 _atom_site_fract_x
 _atom_site_fract_y
 _atom_site_fract_z
 _atom_site_occupancy
  La  La0  1  -0.00000000  0.00000000  0.85129890  1
  La  La1  1  0.66666700  0.33333300  0.98203410  1
  La  La2  1  0.33333300  0.66666700  0.02630402  1
  La  La3  1  0.33333300  0.66666700  0.52209694  1
  La  La4  1  0.33333300  0.66666700  0.31123706  1
  La  La5  1  0.33333300  0.66666700  0.80702998  1
  In  In0  1  -0.00000000  0.00000000  0.35072525  1
  In  In1  1  -0.00000000  0.00000000  0.64552606  1
  In  In2  1  -0.00000000  0.00000000  0.14918340  1
  In  In3  1  0.66666700  0.33333300  0.68414960  1
  In  In4  1  0.66666700  0.33333300  0.18780694  1
  In  In5  1  0.66666700  0.33333300  0.48260775  1
  S  S0  1  0.28964404  0.01187514  0.24786464  1
  S  S1  1  0.72223110  0.71035596  0.24786464  1
  S  S2  1  0.98812486  0.27776890  0.24786464  1
  S  S3  1  0.29854457  0.28563780  0.74355971  1
  S  S4  1  0.98709322  0.70145543  0.74355971  1
  S  S5  1  0.71436220  0.01290678  0.74355971  1
  S  S6  1  0.94443590  0.32145786  0.58546836  1
  S  S7  1  0.37702296  0.05556410  0.58546836  1
  S  S8  1  0.67854214  0.62297704  0.58546836  1
  S  S9  1  0.95230480  0.63187757  0.08977329  1
  S  S10  1  0.67957378  0.04769520  0.08977329  1
  S  S11  1  0.36812243  0.32042622  0.08977329  1
  S  S12  1  0.62612404  0.66666700  0.91666700  1
  S  S13  1  0.04054196  0.37387596  0.91666700  1
  S  S14  1  0.33333300  0.95945804  0.91666700  1
  S  S15  1  0.64117659  0.97451059  0.41666700  1
  S  S16  1  0.33333300  0.35882341  0.41666700  1
  S  S17  1  0.02548941  0.66666700  0.41666700  1
  O  O0  1  0.21320471  0.03721457  0.29898634  1
  O  O1  1  0.82400986  0.78679529  0.29898634  1
  O  O2  1  0.96278543  0.17599014  0.29898634  1
  O  O3  1  0.22765484  0.18858008  0.79534417  1
  O  O4  1  0.96092524  0.77234516  0.79534417  1
  O  O5  1  0.81141992  0.03907476  0.79534417  1
  O  O6  1  0.79828684  0.98470619  0.69551760  1
  O  O7  1  0.18641935  0.20171316  0.69551760  1
  O  O8  1  0.01529381  0.81358065  0.69551760  1
  O  O9  1  0.79884236  0.81643149  0.19822629  1
  O  O10  1  0.01758913  0.20115764  0.19822629  1
  O  O11  1  0.18356851  0.98241087  0.19822629  1
  O  O12  1  0.86782464  0.35092213  0.63510671  1
  O  O13  1  0.48309849  0.13217536  0.63510671  1
  O  O14  1  0.64907787  0.51690151  0.63510671  1
  O  O15  1  0.86838016  0.51975235  0.13781540  1
  O  O16  1  0.65137319  0.13161984  0.13781540  1
  O  O17  1  0.48024765  0.34862681  0.13781540  1
  O  O18  1  0.43901216  0.29425824  0.03798883  1
  O  O19  1  0.85524708  0.56098784  0.03798883  1
  O  O20  1  0.70574176  0.14475292  0.03798883  1
  O  O21  1  0.45346229  0.15734286  0.53434666  1
  O  O22  1  0.70388157  0.54653771  0.53434666  1
  O  O23  1  0.84265714  0.29611843  0.53434666  1
  O  O24  1  0.54517558  0.68651900  0.96693540  1
  O  O25  1  0.14134242  0.45482442  0.96693540  1
  O  O26  1  0.31348100  0.85865758  0.96693540  1
  O  O27  1  0.56353338  0.86547091  0.46594876  1
  O  O28  1  0.30193653  0.43646662  0.46594876  1
  O  O29  1  0.13452909  0.69806347  0.46594876  1
  O  O30  1  0.10313262  0.63527053  0.36738524  1
  O  O31  1  0.53213691  0.89686738  0.36738524  1
  O  O32  1  0.36472947  0.46786309  0.36738524  1
  O  O33  1  0.12149042  0.47467642  0.86639860  1
  O  O34  1  0.35318500  0.87850958  0.86639860  1
  O  O35  1  0.52532358  0.64681500  0.86639860  1
  O  O36  1  0.00853050  0.81652610  0.40679367  1
  O  O37  1  0.80799560  0.99146950  0.40679367  1
  O  O38  1  0.18347390  0.19200440  0.40679367  1
  O  O39  1  0.02341316  0.20748224  0.91144482  1
  O  O40  1  0.18406908  0.97658684  0.91144482  1
  O  O41  1  0.79251776  0.81593092  0.91144482  1
  O  O42  1  0.96235098  0.17181745  0.59325983  1
  O  O43  1  0.20946647  0.03764902  0.59325983  1
  O  O44  1  0.82818255  0.79053353  0.59325983  1
  O  O45  1  0.97075982  0.79899676  0.09736184  1
  O  O46  1  0.82823694  0.02924018  0.09736184  1
  O  O47  1  0.20100324  0.17176306  0.09736184  1
  O  O48  1  0.69590718  0.16156994  0.73597116  1
  O  O49  1  0.46566376  0.30409282  0.73597116  1
  O  O50  1  0.83843006  0.53433624  0.73597116  1
  O  O51  1  0.70431602  0.54279947  0.24007317  1
  O  O52  1  0.83848445  0.29568398  0.24007317  1
  O  O53  1  0.45720053  0.16151555  0.24007317  1
  O  O54  1  0.64325384  0.51740208  0.92188818  1
  O  O55  1  0.87414924  0.35674616  0.92188818  1
  O  O56  1  0.48259792  0.12585076  0.92188818  1
  O  O57  1  0.65813650  0.14132860  0.42653933  1
  O  O58  1  0.48319310  0.34186350  0.42653933  1
  O  O59  1  0.85867140  0.51680690  0.42653933  1
  O  O60  1  0.35167131  0.47020670  0.08380659  1
  O  O61  1  0.11853439  0.64832869  0.08380659  1
  O  O62  1  0.52979330  0.88146561  0.08380659  1
  O  O63  1  0.35865576  0.88844973  0.57857818  1
  O  O64  1  0.52979297  0.64134424  0.57857818  1
  O  O65  1  0.11155027  0.47020703  0.57857818  1
  O  O66  1  0.30801024  0.86312697  0.25475582  1
  O  O67  1  0.55511573  0.69198976  0.25475582  1
  O  O68  1  0.13687303  0.44488427  0.25475582  1
  O  O69  1  0.31499469  0.45186839  0.74952741  1
  O  O70  1  0.13687270  0.68500531  0.74952741  1
  O  O71  1  0.54813161  0.86312730  0.74952741  1
loop_
_geom_bond_atom_site_label_1
_geom_bond_atom_site_label_2
_geom_bond_distance
_geom_bond_site_symmetry_2
La0 O39 2.329570 1_555
La0 O41 2.329570 1_445
La0 O40 2.329570 1_545
La0 O4 2.374320 1_445
La0 O3 2.374320 1_555
La0 O5 2.374320 1_455
La1 O56 2.329570 1_555
La1 O54 2.329570 1_555
La1 O55 2.329570 1_555
La1 O19 2.374320 1_556
La1 O20 2.374320 1_556
La1 O18 2.374320 1_556
La2 O25 2.360792 1_554
La2 O26 2.360792 1_554
La2 O24 2.360792 1_554
La2 O62 2.360849 1_555
La2 O60 2.360849 1_555
La2 O61 2.360849 1_555
La3 O63 2.377087 1_555
La3 O65 2.377087 1_555
La3 O64 2.377087 1_555
La3 O28 2.418100 1_555
La3 O27 2.418100 1_555
La3 O29 2.418100 1_555
La4 O68 2.377087 1_555
La4 O66 2.377087 1_555
La4 O67 2.377087 1_555
La4 O31 2.418100 1_555
La4 O32 2.418100 1_555
La4 O30 2.418100 1_555
La5 O34 2.360792 1_555
La5 O33 2.360792 1_555
La5 O35 2.360792 1_555
La5 O69 2.360849 1_555
La5 O71 2.360849 1_555
La5 O70 2.360849 1_555
In0 O38 2.203810 1_555
In0 O36 2.203810 1_545
In0 O37 2.203810 1_445
In0 O1 2.212914 1_445
In0 O2 2.212914 1_455
In0 O0 2.212914 1_555
In1 O7 2.168426 1_555
In1 O8 2.168426 1_545
In1 O6 2.168426 1_445
In1 O44 2.190823 1_445
In1 O42 2.190823 1_455
In1 O43 2.190823 1_555
In2 O10 2.143815 1_555
In2 O9 2.143815 1_445
In2 O11 2.143815 1_545
In2 O45 2.144401 1_445
In2 O47 2.144401 1_555
In2 O46 2.144401 1_455
In3 O13 2.143815 1_555
In3 O14 2.143815 1_555
In3 O12 2.143815 1_555
In3 O50 2.144401 1_555
In3 O48 2.144401 1_555
In3 O49 2.144401 1_555
In4 O16 2.168426 1_555
In4 O15 2.168426 1_555
In4 O17 2.168426 1_555
In4 O51 2.190823 1_555
In4 O53 2.190823 1_555
In4 O52 2.190823 1_555
In5 O57 2.203810 1_555
In5 O59 2.203810 1_555
In5 O58 2.203810 1_555
In5 O22 2.212914 1_555
In5 O21 2.212914 1_555
In5 O23 2.212914 1_555
O0 S0 1.495684 1_555
O1 S1 1.495684 1_555
O2 S2 1.495684 1_555
O3 S3 1.484187 1_555
O4 S4 1.484187 1_555
O5 S5 1.484187 1_555
O6 S5 1.487886 1_565
O7 S3 1.487886 1_555
O8 S4 1.487886 1_455
O9 S1 1.483193 1_555
O10 S2 1.483193 1_455
O11 S0 1.483193 1_565
O12 S6 1.483193 1_555
O13 S7 1.483193 1_555
O14 S8 1.483193 1_555
O15 S9 1.487886 1_555
O16 S10 1.487886 1_555
O17 S11 1.487886 1_555
O18 S11 1.484187 1_555
O19 S9 1.484187 1_555
O20 S10 1.484187 1_555
O21 S7 1.495684 1_555
O22 S8 1.495684 1_555
O23 S6 1.495684 1_555
O24 S12 1.482681 1_555
O25 S13 1.482681 1_555
O26 S14 1.482681 1_555
O27 S15 1.489561 1_555
O28 S16 1.489561 1_555
O29 S17 1.489561 1_555
O30 S17 1.489561 1_555
O31 S15 1.489561 1_555
O32 S16 1.489561 1_555
O33 S13 1.482681 1_555
O34 S14 1.482681 1_555
O35 S12 1.482681 1_555
O36 S17 1.494090 1_555
O37 S15 1.494099 1_555
O38 S16 1.494095 1_555
O39 S13 1.475870 1_555
O40 S14 1.475861 1_555
O41 S12 1.475866 1_555
O42 S6 1.490050 1_555
O43 S7 1.490059 1_555
O44 S8 1.490055 1_555
O45 S9 1.483400 1_555
O46 S10 1.483391 1_555
O47 S11 1.483396 1_555
O48 S5 1.483391 1_555
O49 S3 1.483400 1_555
O50 S4 1.483396 1_555
O51 S1 1.490059 1_555
O52 S2 1.490050 1_555
O53 S0 1.490055 1_555
O54 S12 1.475874 1_555
O55 S13 1.475855 1_655
O56 S14 1.475863 1_545
O57 S15 1.494082 1_545
O58 S16 1.494101 1_555
O59 S17 1.494090 1_655
O60 S11 1.478630 1_555
O61 S9 1.478612 1_455
O62 S10 1.478620 1_565
O63 S7 1.481715 1_565
O64 S8 1.481733 1_555
O65 S6 1.481722 1_455
O66 S0 1.481721 1_565
O67 S1 1.481730 1_555
O68 S2 1.481726 1_455
O69 S3 1.478627 1_555
O70 S4 1.478618 1_455
O71 S5 1.478624 1_565
