# generated using pymatgen
data_Na3Nb8Zn4P15(SO24)3
_symmetry_space_group_name_H-M   'P 1'
_cell_length_a   8.77487347
_cell_length_b   8.77017647
_cell_length_c   22.75369773
_cell_angle_alpha   89.91186220
_cell_angle_beta   90.15616686
_cell_angle_gamma   119.86623831
_symmetry_Int_Tables_number   1
_chemical_formula_structural   Na3Nb8Zn4P15(SO24)3
_chemical_formula_sum   'Na3 Nb8 Zn4 P15 S3 O72'
_cell_volume   1518.49716312
_cell_formula_units_Z   1
loop_
 _symmetry_equiv_pos_site_id
 _symmetry_equiv_pos_as_xyz
  1  'x, y, z'
loop_
 _atom_site_type_symbol
 _atom_site_label
 _atom_site_symmetry_multiplicity
 _atom_site_fract_x
 _atom_site_fract_y
 _atom_site_fract_z
 _atom_site_occupancy
  Na  Na0  1  0.99987716  0.99706244  0.99361433  1
  Na  Na1  1  0.66371125  0.33316587  0.83947034  1
  Na  Na2  1  0.66326009  0.33417206  0.33753325  1
  Nb  Nb0  1  0.00485573  0.00564936  0.35641753  1
  Nb  Nb1  1  0.00218976  0.00059649  0.64497142  1
  Nb  Nb2  1  0.99979279  0.99882470  0.14637837  1
  Nb  Nb3  1  0.66516490  0.33258404  0.68758942  1
  Nb  Nb4  1  0.66672682  0.33517040  0.18725949  1
  Nb  Nb5  1  0.33972252  0.67479544  0.02243287  1
  Nb  Nb6  1  0.33061168  0.65748940  0.52410250  1
  Nb  Nb7  1  0.34183203  0.67335701  0.81093813  1
  Zn  Zn0  1  0.99943322  0.99335668  0.85247564  1
  Zn  Zn1  1  0.65977831  0.33265693  0.98071818  1
  Zn  Zn2  1  0.66017479  0.33315602  0.48386152  1
  Zn  Zn3  1  0.33533962  0.66120542  0.30931945  1
  P  P0  1  0.28882653  0.99532525  0.25095010  1
  P  P1  1  0.70983503  0.71355779  0.25117661  1
  P  P2  1  0.00288140  0.29154423  0.25043629  1
  P  P3  1  0.28473522  0.28502802  0.75216529  1
  P  P4  1  0.99952449  0.71286929  0.75159311  1
  P  P5  1  0.71834555  0.00275685  0.75162060  1
  P  P6  1  0.94781845  0.32956162  0.58136233  1
  P  P7  1  0.37995649  0.04646251  0.58137782  1
  P  P8  1  0.67078205  0.62089965  0.58177282  1
  P  P9  1  0.95239470  0.61882375  0.08105963  1
  P  P10  1  0.66966531  0.05083649  0.08155887  1
  P  P11  1  0.37832894  0.33244679  0.08157239  1
  P  P12  1  0.62818773  0.66696785  0.91691371  1
  P  P13  1  0.33342033  0.96146394  0.91655418  1
  P  P14  1  0.34293435  0.38344109  0.41453918  1
  S  S0  1  0.04359075  0.37678168  0.91666103  1
  S  S1  1  0.61893935  0.95704118  0.41524363  1
  S  S2  1  0.04259051  0.66154709  0.41514247  1
  O  O0  1  0.19958478  0.03381389  0.30503189  1
  O  O1  1  0.83516733  0.80056545  0.30500888  1
  O  O2  1  0.96554292  0.16554288  0.30479961  1
  O  O3  1  0.21422419  0.17433847  0.80590857  1
  O  O4  1  0.95755921  0.78206468  0.80526679  1
  O  O5  1  0.82600803  0.04076717  0.80604615  1
  O  O6  1  0.79959253  0.97276176  0.69518553  1
  O  O7  1  0.17328434  0.20069265  0.69539640  1
  O  O8  1  0.02786362  0.82612216  0.69527049  1
  O  O9  1  0.80694162  0.82646952  0.19583736  1
  O  O10  1  0.02032713  0.19374757  0.19590590  1
  O  O11  1  0.17414219  0.97851246  0.19606300  1
  O  O12  1  0.86792875  0.36373797  0.63752157  1
  O  O13  1  0.49497220  0.13032506  0.63755526  1
  O  O14  1  0.63523777  0.50510979  0.63762843  1
  O  O15  1  0.86625753  0.50510218  0.13805480  1
  O  O16  1  0.63900297  0.13379098  0.13821637  1
  O  O17  1  0.49407251  0.36162154  0.13816762  1
  O  O18  1  0.44982631  0.29140692  0.02831100  1
  O  O19  1  0.84044342  0.54607646  0.02764111  1
  O  O20  1  0.70663307  0.15977159  0.02753372  1
  O  O21  1  0.45138064  0.15581491  0.52769778  1
  O  O22  1  0.70587883  0.54936335  0.52756772  1
  O  O23  1  0.84253044  0.29742149  0.52685291  1
  O  O24  1  0.52396791  0.68660825  0.97126568  1
  O  O25  1  0.15655755  0.46651360  0.97026954  1
  O  O26  1  0.31101164  0.83748194  0.97141964  1
  O  O27  1  0.53935931  0.84420712  0.46965278  1
  O  O28  1  0.30651083  0.46929641  0.47150891  1
  O  O29  1  0.15580139  0.69639165  0.46985015  1
  O  O30  1  0.12445135  0.63998314  0.36333148  1
  O  O31  1  0.51410206  0.87744276  0.36332738  1
  O  O32  1  0.36214667  0.49219951  0.36151539  1
  O  O33  1  0.13302781  0.48981637  0.86305036  1
  O  O34  1  0.35325183  0.85731537  0.86199958  1
  O  O35  1  0.50411194  0.64438585  0.86182040  1
  O  O36  1  0.02883784  0.82828059  0.40882200  1
  O  O37  1  0.79854044  0.96874776  0.40870082  1
  O  O38  1  0.16671278  0.19648201  0.40710697  1
  O  O39  1  0.03380899  0.20656216  0.91236044  1
  O  O40  1  0.16490233  0.96775464  0.91302798  1
  O  O41  1  0.80020745  0.83758305  0.91320872  1
  O  O42  1  0.98022031  0.17462287  0.59540942  1
  O  O43  1  0.19429150  0.01931242  0.59586333  1
  O  O44  1  0.82605932  0.80694647  0.59586371  1
  O  O45  1  0.98035479  0.80731672  0.09398068  1
  O  O46  1  0.82773947  0.01946427  0.09386104  1
  O  O47  1  0.19110240  0.17195543  0.09448670  1
  O  O48  1  0.68682214  0.16187285  0.73921756  1
  O  O49  1  0.47429515  0.31317338  0.73905792  1
  O  O50  1  0.83791608  0.52416999  0.73849596  1
  O  O51  1  0.69969741  0.53017206  0.24170484  1
  O  O52  1  0.82914197  0.29957566  0.24187717  1
  O  O53  1  0.46985918  0.16915707  0.24190379  1
  O  O54  1  0.63437621  0.49832559  0.92028898  1
  O  O55  1  0.87327532  0.36706489  0.92104366  1
  O  O56  1  0.50406202  0.13349677  0.92018750  1
  O  O57  1  0.64895634  0.13474644  0.42347438  1
  O  O58  1  0.49462857  0.35069731  0.42355641  1
  O  O59  1  0.86675385  0.51197244  0.42345192  1
  O  O60  1  0.35527771  0.49584877  0.07453229  1
  O  O61  1  0.13884371  0.64128827  0.07455277  1
  O  O62  1  0.50481996  0.86275046  0.07544065  1
  O  O63  1  0.35596898  0.85841942  0.57276522  1
  O  O64  1  0.50480731  0.64481569  0.57385105  1
  O  O65  1  0.13754074  0.49653101  0.57394311  1
  O  O66  1  0.30727694  0.83822423  0.25901459  1
  O  O67  1  0.53329737  0.69487513  0.25669538  1
  O  O68  1  0.15901259  0.46829177  0.25716240  1
  O  O69  1  0.30883537  0.47227694  0.75881207  1
  O  O70  1  0.16178630  0.68778902  0.75881318  1
  O  O71  1  0.52937472  0.83892226  0.75786874  1
loop_
_geom_bond_atom_site_label_1
_geom_bond_atom_site_label_2
_geom_bond_distance
_geom_bond_site_symmetry_2
Na0 O40 2.431427 1_655
Na0 O41 2.433709 1_555
Na0 O39 2.516021 1_665
Na0 O45 2.778564 1_556
Na0 O46 2.799781 1_566
Na0 O47 2.804070 1_666
Na1 O54 2.434772 1_555
Na1 O56 2.441933 1_555
Na1 O55 2.520639 1_555
Na1 O49 2.775556 1_555
Na1 O48 2.796058 1_555
Na1 O50 2.806864 1_555
Na2 O58 2.504401 1_555
Na2 O59 2.580529 1_555
Na2 O57 2.582794 1_555
Na2 O53 2.693062 1_555
Na2 O51 2.693749 1_555
Na2 O52 2.721628 1_555
Nb0 O38 1.943736 1_555
Nb0 O0 1.984300 1_555
Nb0 O2 1.984789 1_455
Nb0 O1 2.037181 1_445
Nb0 O36 2.050560 1_545
Nb0 O37 2.055363 1_445
Nb1 O43 1.962426 1_555
Nb1 O44 1.975797 1_445
Nb1 O42 1.981132 1_455
Nb1 O7 2.005700 1_555
Nb1 O8 2.009619 1_545
Nb1 O6 2.025702 1_445
Nb2 O9 1.967886 1_555
Nb2 O11 1.977814 1_655
Nb2 O10 1.980632 1_665
Nb2 O47 1.996088 1_665
Nb2 O45 1.997795 1_555
Nb2 O46 2.000428 1_565
Nb3 O50 1.980519 1_555
Nb3 O49 1.982855 1_555
Nb3 O48 1.983522 1_555
Nb3 O13 2.007859 1_555
Nb3 O14 2.009852 1_555
Nb3 O12 2.015954 1_555
Nb4 O17 1.984149 1_555
Nb4 O15 1.986660 1_555
Nb4 O16 2.000084 1_555
Nb4 O51 2.013697 1_555
Nb4 O52 2.026143 1_555
Nb4 O53 2.037437 1_555
Nb5 O26 1.948802 1_554
Nb5 O24 1.955271 1_554
Nb5 O62 1.972033 1_555
Nb5 O60 2.023282 1_555
Nb5 O61 2.023427 1_555
Nb5 O25 2.097846 1_554
Nb6 O65 1.942342 1_555
Nb6 O64 1.946673 1_555
Nb6 O28 1.964173 1_555
Nb6 O63 1.998748 1_555
Nb6 O29 2.121987 1_555
Nb6 O27 2.142540 1_555
Nb7 O35 1.945033 1_555
Nb7 O34 1.951131 1_555
Nb7 O71 1.974912 1_555
Nb7 O69 2.023995 1_555
Nb7 O70 2.026622 1_555
Nb7 O33 2.103030 1_555
O0 P0 1.584688 1_545
O1 P1 1.565836 1_555
O2 P2 1.579869 1_655
O3 P3 1.490925 1_555
O3 Zn0 2.054412 1_445
O4 P4 1.490866 1_555
O4 Zn0 2.012105 1_555
O5 P5 1.489449 1_555
O5 Zn0 2.055448 1_545
O6 P5 1.555384 1_565
O7 P3 1.564486 1_555
O8 P4 1.562873 1_455
O9 P1 1.566469 1_555
O10 P2 1.560018 1_555
O11 P0 1.562084 1_555
O12 P6 1.558670 1_555
O13 P7 1.565250 1_555
O14 P8 1.557722 1_555
O15 P9 1.580637 1_555
O16 P10 1.569513 1_555
O17 P11 1.578085 1_555
O18 P11 1.490712 1_555
O18 Zn1 2.010854 1_554
O19 P9 1.490338 1_555
O19 Zn1 2.048940 1_554
O20 P10 1.489627 1_555
O20 Zn1 2.053346 1_554
O21 P7 1.485381 1_555
O21 Zn2 1.984386 1_555
O22 P8 1.485442 1_555
O22 Zn2 1.997888 1_555
O23 P6 1.485533 1_555
O23 Zn2 2.026221 1_555
O24 P12 1.599739 1_555
O25 S0 1.519620 1_555
O26 P13 1.601151 1_555
O27 S1 1.520615 1_555
O28 P14 1.610707 1_555
O29 S2 1.523766 1_555
O30 S2 1.442960 1_555
O30 Zn3 2.153624 1_555
O31 S1 1.444321 1_555
O31 Zn3 2.145018 1_555
O32 P14 1.493734 1_555
O32 Zn3 2.000777 1_555
O33 S0 1.520958 1_555
O34 P13 1.602632 1_555
O35 P12 1.604563 1_555
O36 S2 1.532490 1_555
O37 S1 1.535086 1_555
O38 P14 1.606999 1_555
O39 S0 1.455453 1_555
O39 Zn0 2.210851 1_445
O40 P13 1.508873 1_555
O40 Zn0 2.090402 1_455
O41 P12 1.508428 1_555
O41 Zn0 2.112088 1_555
O42 P6 1.553190 1_555
O43 P7 1.560740 1_555
O44 P8 1.551339 1_555
O45 P9 1.573716 1_555
O46 P10 1.567097 1_555
O47 P11 1.569994 1_555
O48 P5 1.576807 1_555
O49 P3 1.584365 1_555
O50 P4 1.581281 1_555
O51 P1 1.580994 1_555
O52 P2 1.572388 1_655
O53 P0 1.574441 1_545
O54 P12 1.508633 1_555
O54 Zn1 2.089511 1_555
O55 S0 1.457625 1_655
O55 Zn1 2.212228 1_555
O56 P13 1.508300 1_545
O56 Zn1 2.105942 1_555
O57 S1 1.457800 1_545
O57 Zn2 2.182102 1_555
O58 P14 1.508448 1_555
O58 Zn2 2.056147 1_555
O59 S2 1.456785 1_655
O59 Zn2 2.193252 1_555
O60 P11 1.551792 1_555
O61 P9 1.554880 1_455
O62 P10 1.567144 1_565
O63 P7 1.567647 1_565
O64 P8 1.581234 1_555
O65 P6 1.586551 1_455
O66 P0 1.476296 1_555
O66 Zn3 2.038321 1_555
O67 P1 1.480040 1_555
O67 Zn3 2.009401 1_555
O68 P2 1.479096 1_555
O68 Zn3 2.013420 1_555
O69 P3 1.555360 1_555
O70 P4 1.553442 1_455
O71 P5 1.569105 1_565
