# generated using pymatgen
data_MgVFeP2(O4F)2
_symmetry_space_group_name_H-M   'P 1'
_cell_length_a   5.21571054
_cell_length_b   5.41534045
_cell_length_c   7.45468189
_cell_angle_alpha   110.17213554
_cell_angle_beta   106.32959436
_cell_angle_gamma   96.91875145
_symmetry_Int_Tables_number   1
_chemical_formula_structural   MgVFeP2(O4F)2
_chemical_formula_sum   'Mg1 V1 Fe1 P2 O8 F2'
_cell_volume   184.06067141
_cell_formula_units_Z   1
loop_
 _symmetry_equiv_pos_site_id
 _symmetry_equiv_pos_as_xyz
  1  'x, y, z'
loop_
 _atom_site_type_symbol
 _atom_site_label
 _atom_site_symmetry_multiplicity
 _atom_site_fract_x
 _atom_site_fract_y
 _atom_site_fract_z
 _atom_site_occupancy
  Mg  Mg0  1  0.08435614  0.43696067  0.83185191  1
  V  V0  1  0.00152711  0.00675662  0.01201887  1
  Fe  Fe0  1  0.48556112  0.49848808  0.48877619  1
  P  P0  1  0.44191156  0.11777417  0.76279794  1
  P  P1  1  0.56675289  0.87957813  0.24039964  1
  O  O0  1  0.29543092  0.17611513  0.92548779  1
  O  O1  1  0.35298760  0.81786071  0.62396750  1
  O  O2  1  0.33906934  0.31504898  0.66202198  1
  O  O3  1  0.25307223  0.78235723  0.09468892  1
  O  O4  1  0.76425223  0.20828497  0.86497320  1
  O  O5  1  0.63030990  0.68353494  0.34392340  1
  O  O6  1  0.62899161  0.17168281  0.39762401  1
  O  O7  1  0.72675959  0.85168409  0.09214638  1
  F  F0  1  0.13201838  0.32983559  0.27054935  1
  F  F1  1  0.85949936  0.66153788  0.73698791  1
loop_
_geom_bond_atom_site_label_1
_geom_bond_atom_site_label_2
_geom_bond_distance
_geom_bond_site_symmetry_2
Mg0 O3 2.053853 1_556
Mg0 O0 2.077775 1_555
Mg0 O4 2.080030 1_455
Mg0 O2 2.093864 1_555
Fe0 O5 1.939757 1_555
Fe0 O6 1.982135 1_555
Fe0 O1 1.990695 1_555
Fe0 O2 2.120238 1_555
O0 P0 1.571409 1_555
O0 V0 2.057286 1_556
O1 P0 1.520968 1_565
O2 P0 1.567918 1_555
O3 P1 1.591390 1_555
O3 V0 2.005932 1_565
O4 P0 1.571892 1_555
O4 V0 2.076491 1_656
O5 P1 1.529229 1_555
O6 P1 1.537852 1_545
O7 P1 1.540972 1_555
O7 V0 1.911331 1_665
F0 Fe0 1.939993 1_555
F0 V0 1.971945 1_555
F1 Mg0 1.955760 1_655
F1 V0 2.101449 1_666
F1 Fe0 2.106240 1_555
