# generated using pymatgen
data_Lu3Ge13Rh4
_symmetry_space_group_name_H-M   'P 1'
_cell_length_a   8.98659200
_cell_length_b   8.98659200
_cell_length_c   8.98659200
_cell_angle_alpha   90.00000000
_cell_angle_beta   90.00000000
_cell_angle_gamma   90.00000000
_symmetry_Int_Tables_number   1
_chemical_formula_structural   Lu3Ge13Rh4
_chemical_formula_sum   'Lu6 Ge26 Rh8'
_cell_volume   725.74670750
_cell_formula_units_Z   2
loop_
 _symmetry_equiv_pos_site_id
 _symmetry_equiv_pos_as_xyz
  1  'x, y, z'
loop_
 _atom_site_type_symbol
 _atom_site_label
 _atom_site_symmetry_multiplicity
 _atom_site_fract_x
 _atom_site_fract_y
 _atom_site_fract_z
 _atom_site_occupancy
  Lu  Lu0  1  0.00000000  0.25000000  0.50000000  1
  Lu  Lu1  1  0.00000000  0.75000000  0.50000000  1
  Lu  Lu2  1  0.50000000  0.00000000  0.75000000  1
  Lu  Lu3  1  0.50000000  0.00000000  0.25000000  1
  Lu  Lu4  1  0.75000000  0.50000000  0.00000000  1
  Lu  Lu5  1  0.25000000  0.50000000  0.00000000  1
  Ge  Ge0  1  0.50000000  0.35468100  0.19011700  1
  Ge  Ge1  1  0.50000000  0.64531900  0.80988300  1
  Ge  Ge2  1  0.35468100  0.19011700  0.50000000  1
  Ge  Ge3  1  0.64531900  0.19011700  0.50000000  1
  Ge  Ge4  1  0.19011700  0.50000000  0.35468100  1
  Ge  Ge5  1  0.80988300  0.50000000  0.35468100  1
  Ge  Ge6  1  0.00000000  0.69011700  0.14531900  1
  Ge  Ge7  1  0.00000000  0.30988300  0.85468100  1
  Ge  Ge8  1  0.00000000  0.69011700  0.85468100  1
  Ge  Ge9  1  0.30988300  0.85468100  0.00000000  1
  Ge  Ge10  1  0.85468100  0.00000000  0.69011700  1
  Ge  Ge11  1  0.85468100  0.00000000  0.30988300  1
  Ge  Ge12  1  0.69011700  0.14531900  0.00000000  1
  Ge  Ge13  1  0.14531900  0.00000000  0.69011700  1
  Ge  Ge14  1  0.00000000  0.00000000  0.00000000  1
  Ge  Ge15  1  0.50000000  0.50000000  0.50000000  1
  Ge  Ge16  1  0.00000000  0.30988300  0.14531900  1
  Ge  Ge17  1  0.50000000  0.35468100  0.80988300  1
  Ge  Ge18  1  0.50000000  0.64531900  0.19011700  1
  Ge  Ge19  1  0.64531900  0.80988300  0.50000000  1
  Ge  Ge20  1  0.35468100  0.80988300  0.50000000  1
  Ge  Ge21  1  0.19011700  0.50000000  0.64531900  1
  Ge  Ge22  1  0.80988300  0.50000000  0.64531900  1
  Ge  Ge23  1  0.14531900  0.00000000  0.30988300  1
  Ge  Ge24  1  0.30988300  0.14531900  0.00000000  1
  Ge  Ge25  1  0.69011700  0.85468100  0.00000000  1
  Rh  Rh0  1  0.75000000  0.25000000  0.25000000  1
  Rh  Rh1  1  0.25000000  0.25000000  0.75000000  1
  Rh  Rh2  1  0.25000000  0.75000000  0.25000000  1
  Rh  Rh3  1  0.75000000  0.75000000  0.75000000  1
  Rh  Rh4  1  0.25000000  0.75000000  0.75000000  1
  Rh  Rh5  1  0.75000000  0.75000000  0.25000000  1
  Rh  Rh6  1  0.75000000  0.25000000  0.75000000  1
  Rh  Rh7  1  0.25000000  0.25000000  0.25000000  1
loop_
_geom_bond_atom_site_label_1
_geom_bond_atom_site_label_2
_geom_bond_distance
_geom_bond_site_symmetry_2
Lu0 Rh1 3.177240 1_555
Lu0 Rh0 3.177240 1_455
Lu0 Rh6 3.177240 1_455
Lu0 Rh7 3.177240 1_555
Lu1 Rh4 3.177240 1_555
Lu1 Rh5 3.177240 1_455
Lu1 Rh2 3.177240 1_555
Lu1 Rh3 3.177240 1_455
Lu2 Rh6 3.177240 1_555
Lu2 Rh1 3.177240 1_555
Lu2 Rh3 3.177240 1_545
Lu2 Rh4 3.177240 1_545
Lu3 Rh2 3.177240 1_545
Lu3 Rh5 3.177240 1_545
Lu3 Rh7 3.177240 1_555
Lu3 Rh0 3.177240 1_555
Lu4 Rh3 3.177240 1_554
Lu4 Rh5 3.177240 1_555
Lu4 Rh6 3.177240 1_554
Lu4 Rh0 3.177240 1_555
Lu5 Rh4 3.177240 1_554
Lu5 Rh1 3.177240 1_554
Lu5 Rh2 3.177240 1_555
Lu5 Rh7 3.177240 1_555
Ge0 Rh7 2.494392 1_555
Ge0 Rh0 2.494392 1_555
Ge0 Ge15 3.075793 1_555
Ge0 Lu4 3.109959 1_555
Ge0 Lu5 3.109959 1_555
Ge0 Lu3 3.232483 1_555
Ge1 Rh3 2.494392 1_555
Ge1 Rh4 2.494392 1_555
Ge1 Ge15 3.075793 1_555
Ge1 Lu4 3.109959 1_556
Ge1 Lu5 3.109959 1_556
Ge1 Lu2 3.232483 1_565
Ge2 Rh7 2.494392 1_555
Ge2 Rh1 2.494392 1_555
Ge2 Lu2 3.109959 1_555
Ge2 Lu3 3.109959 1_555
Ge2 Lu0 3.232483 1_555
Ge3 Rh6 2.494392 1_555
Ge3 Rh0 2.494392 1_555
Ge3 Lu2 3.109959 1_555
Ge3 Lu3 3.109959 1_555
Ge3 Lu0 3.232483 1_655
Ge4 Rh2 2.494392 1_555
Ge4 Rh7 2.494392 1_555
Ge4 Lu1 3.109959 1_555
Ge4 Lu0 3.109959 1_555
Ge4 Lu5 3.232483 1_555
Ge5 Rh5 2.494392 1_555
Ge5 Rh0 2.494392 1_555
Ge5 Lu0 3.109959 1_655
Ge5 Lu1 3.109959 1_655
Ge5 Lu4 3.232483 1_555
Ge6 Rh2 2.494392 1_555
Ge6 Rh5 2.494392 1_455
Ge6 Lu5 3.109959 1_555
Ge6 Lu4 3.109959 1_455
Ge6 Lu1 3.232483 1_555
Ge7 Rh6 2.494392 1_455
Ge7 Rh1 2.494392 1_555
Ge7 Lu4 3.109959 1_456
Ge7 Lu5 3.109959 1_556
Ge7 Lu0 3.232483 1_555
Ge8 Rh3 2.494392 1_455
Ge8 Rh4 2.494392 1_555
Ge8 Lu4 3.109959 1_456
Ge8 Lu5 3.109959 1_556
Ge8 Lu1 3.232483 1_555
Ge9 Rh2 2.494392 1_555
Ge9 Rh4 2.494392 1_554
Ge9 Lu2 3.109959 1_564
Ge9 Lu3 3.109959 1_565
Ge9 Lu5 3.232483 1_555
Ge10 Rh6 2.494392 1_555
Ge10 Rh3 2.494392 1_545
Ge10 Ge14 3.075793 1_656
Ge10 Lu1 3.109959 1_645
Ge10 Lu0 3.109959 1_655
Ge10 Lu2 3.232483 1_555
Ge11 Rh0 2.494392 1_555
Ge11 Rh5 2.494392 1_545
Ge11 Ge14 3.075793 1_655
Ge11 Lu1 3.109959 1_645
Ge11 Lu0 3.109959 1_655
Ge11 Lu3 3.232483 1_555
Ge12 Rh6 2.494392 1_554
Ge12 Rh0 2.494392 1_555
Ge12 Ge14 3.075793 1_655
Ge12 Lu2 3.109959 1_554
Ge12 Lu3 3.109959 1_555
Ge12 Lu4 3.232483 1_555
Ge13 Rh4 2.494392 1_545
Ge13 Rh1 2.494392 1_555
Ge13 Ge14 3.075793 1_556
Ge13 Lu1 3.109959 1_545
Ge13 Lu0 3.109959 1_555
Ge13 Lu2 3.232483 1_555
Ge14 Ge23 3.075793 1_555
Ge14 Ge7 3.075793 1_554
Ge14 Ge6 3.075793 1_545
Ge14 Ge24 3.075793 1_555
Ge14 Ge9 3.075793 1_545
Ge14 Ge25 3.075793 1_445
Ge14 Ge8 3.075793 1_544
Ge14 Ge16 3.075793 1_555
Ge15 Ge20 3.075793 1_555
Ge15 Ge4 3.075793 1_555
Ge15 Ge17 3.075793 1_555
Ge15 Ge3 3.075793 1_555
Ge15 Ge18 3.075793 1_555
Ge15 Ge19 3.075793 1_555
Ge15 Ge5 3.075793 1_555
Ge15 Ge21 3.075793 1_555
Ge15 Ge2 3.075793 1_555
Ge15 Ge22 3.075793 1_555
Ge16 Rh7 2.494392 1_555
Ge16 Rh0 2.494392 1_455
Ge16 Lu5 3.109959 1_555
Ge16 Lu4 3.109959 1_455
Ge16 Lu0 3.232483 1_555
Ge17 Rh6 2.494392 1_555
Ge17 Rh1 2.494392 1_555
Ge17 Lu4 3.109959 1_556
Ge17 Lu5 3.109959 1_556
Ge17 Lu2 3.232483 1_555
Ge18 Rh2 2.494392 1_555
Ge18 Rh5 2.494392 1_555
Ge18 Lu4 3.109959 1_555
Ge18 Lu5 3.109959 1_555
Ge18 Lu3 3.232483 1_565
Ge19 Rh3 2.494392 1_555
Ge19 Rh5 2.494392 1_555
Ge19 Lu2 3.109959 1_565
Ge19 Lu3 3.109959 1_565
Ge19 Lu1 3.232483 1_655
Ge20 Rh2 2.494392 1_555
Ge20 Rh4 2.494392 1_555
Ge20 Lu2 3.109959 1_565
Ge20 Lu3 3.109959 1_565
Ge20 Lu1 3.232483 1_555
Ge21 Rh4 2.494392 1_555
Ge21 Rh1 2.494392 1_555
Ge21 Lu1 3.109959 1_555
Ge21 Lu0 3.109959 1_555
Ge21 Lu5 3.232483 1_556
Ge22 Rh3 2.494392 1_555
Ge22 Rh6 2.494392 1_555
Ge22 Lu0 3.109959 1_655
Ge22 Lu1 3.109959 1_655
Ge22 Lu4 3.232483 1_556
Ge23 Rh7 2.494392 1_555
Ge23 Rh2 2.494392 1_545
Ge23 Lu1 3.109959 1_545
Ge23 Lu0 3.109959 1_555
Ge23 Lu3 3.232483 1_555
Ge24 Rh7 2.494392 1_555
Ge24 Rh1 2.494392 1_554
Ge24 Lu2 3.109959 1_554
Ge24 Lu3 3.109959 1_555
Ge24 Lu5 3.232483 1_555
Ge25 Rh5 2.494392 1_555
Ge25 Rh3 2.494392 1_554
Ge25 Lu2 3.109959 1_564
Ge25 Lu3 3.109959 1_565
Ge25 Lu4 3.232483 1_555
