# generated using pymatgen
data_Na3Ti3AlSi3(SO8)3
_symmetry_space_group_name_H-M   'P 1'
_cell_length_a   8.69980834
_cell_length_b   8.72388691
_cell_length_c   22.27886610
_cell_angle_alpha   89.93513067
_cell_angle_beta   90.06574239
_cell_angle_gamma   120.10513058
_symmetry_Int_Tables_number   1
_chemical_formula_structural   Na3Ti3AlSi3(SO8)3
_chemical_formula_sum   'Na9 Ti9 Al3 Si9 S9 O72'
_cell_volume   1462.79005541
_cell_formula_units_Z   3
loop_
 _symmetry_equiv_pos_site_id
 _symmetry_equiv_pos_as_xyz
  1  'x, y, z'
loop_
 _atom_site_type_symbol
 _atom_site_label
 _atom_site_symmetry_multiplicity
 _atom_site_fract_x
 _atom_site_fract_y
 _atom_site_fract_z
 _atom_site_occupancy
  Na  Na0  1  0.35860497  0.36172512  0.24568315  1
  Na  Na1  1  0.63742554  0.63262122  0.75135490  1
  Na  Na2  1  0.97004927  0.29644092  0.41549568  1
  Na  Na3  1  0.99695421  -0.00169141  0.49903492  1
  Na  Na4  1  0.99877917  0.99396869  0.00065351  1
  Na  Na5  1  0.66638740  0.33125259  0.83286350  1
  Na  Na6  1  0.66832496  0.32788907  0.33080175  1
  Na  Na7  1  0.31985124  0.66608652  0.16517463  1
  Na  Na8  1  0.31435006  0.66012542  0.66566598  1
  Ti  Ti0  1  0.00459780  0.98626074  0.85212870  1
  Ti  Ti1  1  0.01461648  0.01676255  0.64696011  1
  Ti  Ti2  1  0.01415242  0.01556710  0.14241921  1
  Ti  Ti3  1  0.66429957  0.35666465  0.98119944  1
  Ti  Ti4  1  0.66213024  0.31504771  0.47787146  1
  Ti  Ti5  1  0.33974317  0.65910859  0.02605059  1
  Ti  Ti6  1  0.33253523  0.64925085  0.51905920  1
  Ti  Ti7  1  0.33800170  0.66121683  0.31448726  1
  Ti  Ti8  1  0.32414290  0.64979125  0.81120286  1
  Al  Al0  1  0.99263545  0.01285859  0.35364725  1
  Al  Al1  1  0.67936375  0.34203277  0.68872564  1
  Al  Al2  1  0.68870133  0.34312425  0.18200317  1
  Si  Si0  1  0.98669715  0.28712661  0.25083741  1
  Si  Si1  1  0.29515230  0.28374443  0.75007296  1
  Si  Si2  1  0.00343174  0.70938292  0.74693126  1
  Si  Si3  1  0.95240882  0.33444952  0.58573360  1
  Si  Si4  1  0.95681728  0.62576156  0.08545962  1
  Si  Si5  1  0.38972208  0.33599338  0.08780109  1
  Si  Si6  1  0.62446514  0.67312331  0.91617799  1
  Si  Si7  1  0.62108593  0.94512847  0.41640982  1
  Si  Si8  1  0.33651205  0.36904955  0.41548915  1
  S  S0  1  0.28527524  0.99718343  0.25106761  1
  S  S1  1  0.71852447  0.71574182  0.25154040  1
  S  S2  1  0.71241431  0.00569057  0.74968779  1
  S  S3  1  0.38151934  0.04558317  0.58493724  1
  S  S4  1  0.66805438  0.62027527  0.58397740  1
  S  S5  1  0.66647312  0.04998827  0.08379323  1
  S  S6  1  0.04285875  0.37475740  0.91744614  1
  S  S7  1  0.33704487  0.95415157  0.91680023  1
  S  S8  1  0.04630461  0.67416791  0.41597738  1
  O  O0  1  0.19897892  0.02499453  0.30406384  1
  O  O1  1  0.82650980  0.79888328  0.30544162  1
  O  O2  1  0.96798441  0.17318835  0.31091890  1
  O  O3  1  0.19494715  0.16294691  0.80850372  1
  O  O4  1  0.96118467  0.79928179  0.80651256  1
  O  O5  1  0.82116868  0.03420285  0.80396291  1
  O  O6  1  0.79040296  0.96876028  0.69629221  1
  O  O7  1  0.16568261  0.20185762  0.69119952  1
  O  O8  1  0.02878311  0.83866680  0.69029751  1
  O  O9  1  0.79694915  0.82002992  0.19696773  1
  O  O10  1  0.03213071  0.19363435  0.19355196  1
  O  O11  1  0.17773101  0.96941577  0.19566934  1
  O  O12  1  0.85338030  0.35937654  0.64208759  1
  O  O13  1  0.48907057  0.13298709  0.63835817  1
  O  O14  1  0.63777501  0.51444919  0.63962395  1
  O  O15  1  0.87377925  0.49999979  0.14214130  1
  O  O16  1  0.63753692  0.12915225  0.13760670  1
  O  O17  1  0.50179291  0.35866277  0.14774129  1
  O  O18  1  0.47259518  0.30193501  0.02676707  1
  O  O19  1  0.83288168  0.53240711  0.02476307  1
  O  O20  1  0.69527203  0.15463846  0.02892849  1
  O  O21  1  0.46085637  0.15451528  0.52952105  1
  O  O22  1  0.68943126  0.53453782  0.53068032  1
  O  O23  1  0.83566336  0.30769068  0.52338293  1
  O  O24  1  0.52296808  0.69515143  0.97410572  1
  O  O25  1  0.15277308  0.46096378  0.97074025  1
  O  O26  1  0.30616256  0.84735344  0.97102459  1
  O  O27  1  0.51996228  0.82684116  0.47570851  1
  O  O28  1  0.29084275  0.46227926  0.47255649  1
  O  O29  1  0.15388460  0.70261491  0.47061752  1
  O  O30  1  0.12388863  0.63325498  0.36276638  1
  O  O31  1  0.49256567  0.85907818  0.35780884  1
  O  O32  1  0.36493711  0.49626871  0.35657153  1
  O  O33  1  0.12414798  0.48679078  0.86235410  1
  O  O34  1  0.35589300  0.86861170  0.86239155  1
  O  O35  1  0.50286508  0.64308222  0.85593604  1
  O  O36  1  0.02682913  0.82917703  0.40645354  1
  O  O37  1  0.81732777  0.97066304  0.40957515  1
  O  O38  1  0.16070707  0.17750212  0.40742185  1
  O  O39  1  0.02943791  0.20093562  0.91061809  1
  O  O40  1  0.17558841  0.97578483  0.91097003  1
  O  O41  1  0.82109092  0.84971910  0.90931862  1
  O  O42  1  0.97175997  0.15515854  0.59053507  1
  O  O43  1  0.20187114  0.02830015  0.58845097  1
  O  O44  1  0.82545760  0.79885311  0.58915428  1
  O  O45  1  0.97162065  0.81930348  0.09317456  1
  O  O46  1  0.82372761  0.02587585  0.09057062  1
  O  O47  1  0.18789638  0.16331703  0.09105597  1
  O  O48  1  0.68981060  0.16067896  0.74225326  1
  O  O49  1  0.49013013  0.31078600  0.73897093  1
  O  O50  1  0.82489604  0.51758072  0.74239354  1
  O  O51  1  0.68872636  0.53234037  0.24764326  1
  O  O52  1  0.81116699  0.30391771  0.24183187  1
  O  O53  1  0.46177875  0.15990405  0.24567744  1
  O  O54  1  0.64132242  0.49319479  0.92135364  1
  O  O55  1  0.86429317  0.35378996  0.92225736  1
  O  O56  1  0.49775956  0.13141521  0.92147010  1
  O  O57  1  0.64911815  0.14858816  0.42360755  1
  O  O58  1  0.51609909  0.36252005  0.42607147  1
  O  O59  1  0.86781220  0.51038653  0.42245486  1
  O  O60  1  0.36399074  0.50918735  0.07811489  1
  O  O61  1  0.15486938  0.65266649  0.07188519  1
  O  O62  1  0.50494413  0.87039111  0.07845531  1
  O  O63  1  0.36264594  0.86935982  0.57891220  1
  O  O64  1  0.50487273  0.63839503  0.57859812  1
  O  O65  1  0.15087117  0.51236925  0.57597211  1
  O  O66  1  0.30495183  0.83889284  0.25637888  1
  O  O67  1  0.53439973  0.69537634  0.25600940  1
  O  O68  1  0.17332114  0.48672003  0.25724044  1
  O  O69  1  0.31867898  0.48448873  0.75733873  1
  O  O70  1  0.18046096  0.69560952  0.75856061  1
  O  O71  1  0.53401096  0.84230992  0.75572868  1
loop_
_geom_bond_atom_site_label_1
_geom_bond_atom_site_label_2
_geom_bond_distance
_geom_bond_site_symmetry_2
Na0 O53 2.343286 1_555
Na0 O68 2.370355 1_555
Na0 O51 2.485396 1_555
Na0 O17 2.520620 1_555
Na0 O67 2.529676 1_555
Na0 O10 2.717430 1_555
Na0 O32 2.724941 1_555
Na0 O0 2.855306 1_555
Na1 O50 2.313077 1_555
Na1 O69 2.404790 1_555
Na1 O71 2.411826 1_555
Na1 O49 2.448021 1_555
Na1 O35 2.630842 1_555
Na1 O14 2.695939 1_555
Na1 O4 2.728617 1_555
Na1 O6 2.820603 1_555
Na2 O38 2.363867 1_655
Na2 O57 2.424817 1_555
Na2 O59 2.442349 1_555
Na2 O37 2.464207 1_545
Na2 O2 2.563372 1_555
Na2 O23 2.697389 1_555
Na2 O28 2.728279 1_655
Na2 O30 2.802815 1_655
Na3 O37 2.467468 1_545
Na3 O42 2.526693 1_555
Na3 O38 2.530707 1_655
Na3 O44 2.584459 1_545
Na3 O43 2.596177 1_655
Na3 O36 2.625221 1_645
Na4 O41 2.482119 1_554
Na4 O45 2.501862 1_555
Na4 O47 2.550836 1_665
Na4 O40 2.576042 1_654
Na4 O46 2.615968 1_565
Na4 O39 2.620051 1_664
Na5 O54 2.499290 1_555
Na5 O50 2.521247 1_555
Na5 O49 2.545142 1_555
Na5 O56 2.553730 1_555
Na5 O55 2.573504 1_555
Na5 O48 2.577388 1_555
Na6 O52 2.405044 1_555
Na6 O51 2.514135 1_555
Na6 O53 2.515931 1_555
Na6 O57 2.545764 1_555
Na6 O58 2.599890 1_555
Na6 O59 2.635063 1_555
Na7 O61 2.493718 1_555
Na7 O68 2.505661 1_555
Na7 O60 2.513567 1_555
Na7 O66 2.573283 1_555
Na7 O62 2.573426 1_555
Na7 O67 2.675560 1_555
Na8 O65 2.416117 1_555
Na8 O70 2.470730 1_555
Na8 O63 2.543327 1_555
Na8 O69 2.563404 1_555
Na8 O64 2.620960 1_555
Na8 O71 2.674982 1_555
Al0 O2 1.790523 1_555
Al0 O37 1.858555 1_545
Al0 O38 1.878659 1_655
Al0 O1 2.005314 1_545
Al0 O0 2.065834 1_655
Al0 O36 2.124483 1_645
Al1 O12 1.779857 1_555
Al1 O50 1.852975 1_555
Al1 O49 1.894998 1_555
Al1 O48 2.018217 1_555
Al1 O14 2.032572 1_555
Al1 O13 2.073014 1_555
Al2 O15 1.744751 1_555
Al2 O52 1.841213 1_555
Al2 O17 1.860958 1_555
Al2 O16 1.957178 1_555
Al2 O51 2.206466 1_555
Al2 O53 2.302261 1_555
O0 S0 1.483901 1_545
O1 S1 1.471915 1_555
O2 Si0 1.625230 1_555
O3 Si1 1.625737 1_555
O3 Ti0 1.871495 1_545
O4 Si2 1.674756 1_655
O4 Ti0 1.794732 1_655
O5 S2 1.476874 1_555
O5 Ti0 2.130164 1_645
O6 S2 1.483671 1_565
O6 Ti1 2.091084 1_665
O7 Si1 1.640407 1_555
O7 Ti1 1.782634 1_555
O8 Si2 1.631122 1_555
O8 Ti1 1.884082 1_565
O9 S1 1.465653 1_555
O9 Ti2 2.173574 1_665
O10 Si0 1.666496 1_455
O10 Ti2 1.869551 1_555
O11 S0 1.492646 1_555
O11 Ti2 2.040732 1_565
O12 Si3 1.599016 1_555
O13 S3 1.468724 1_555
O14 S4 1.487571 1_555
O15 Si4 1.588744 1_555
O16 S5 1.467879 1_555
O17 Si5 1.605365 1_555
O18 Si5 1.635582 1_555
O18 Ti3 1.801132 1_554
O19 Si4 1.665126 1_555
O19 Ti3 1.785477 1_554
O20 S5 1.469371 1_555
O20 Ti3 2.186565 1_554
O21 S3 1.498348 1_555
O21 Ti4 1.972933 1_555
O22 S4 1.464928 1_555
O22 Ti4 2.157620 1_555
O23 Si3 1.665928 1_555
O23 Ti4 1.845252 1_555
O24 Si6 1.629597 1_555
O24 Ti5 1.865384 1_556
O25 S6 1.472318 1_555
O25 Ti5 2.081316 1_556
O26 S7 1.465170 1_555
O26 Ti5 2.181981 1_556
O27 Si7 1.634937 1_555
O27 Ti6 1.859519 1_555
O28 Si8 1.662371 1_555
O28 Ti6 1.809673 1_555
O29 S8 1.477998 1_555
O29 Ti6 2.125546 1_555
O30 S8 1.494257 1_555
O30 Ti7 2.057768 1_555
O31 Si7 1.635555 1_555
O31 Ti7 1.841608 1_555
O32 Si8 1.654688 1_555
O32 Ti7 1.827400 1_555
O33 S6 1.505904 1_555
O33 Ti8 1.966449 1_555
O34 S7 1.475927 1_555
O34 Ti8 2.120437 1_555
O35 Si6 1.645762 1_555
O35 Ti8 1.871311 1_555
O36 S8 1.459970 1_555
O37 Si7 1.614486 1_555
O38 Si8 1.612476 1_555
O39 S6 1.469392 1_555
O39 Ti0 2.202490 1_545
O40 S7 1.513593 1_555
O40 Ti0 2.017773 1_555
O41 Si6 1.636861 1_555
O41 Ti0 1.919515 1_655
O42 Si3 1.658305 1_555
O42 Ti1 1.903692 1_655
O43 S3 1.495123 1_555
O43 Ti1 2.050188 1_555
O44 S4 1.474941 1_555
O44 Ti1 2.200662 1_665
O45 Si4 1.636893 1_555
O45 Ti2 1.907855 1_665
O46 S5 1.492264 1_555
O46 Ti2 2.057125 1_655
O47 Si5 1.644427 1_555
O47 Ti2 1.817071 1_555
O48 S2 1.469841 1_555
O49 Si1 1.610453 1_555
O50 Si2 1.617204 1_655
O51 S1 1.489574 1_555
O52 Si0 1.617811 1_555
O53 S0 1.483504 1_545
O54 Si6 1.652020 1_555
O54 Ti3 1.863045 1_555
O55 S6 1.474294 1_655
O55 Ti3 2.191207 1_555
O56 S7 1.479242 1_545
O56 Ti3 2.208339 1_555
O57 Si7 1.673912 1_545
O57 Ti4 1.849839 1_555
O58 Si8 1.608801 1_555
O58 Ti4 1.908070 1_555
O59 S8 1.499313 1_655
O59 Ti4 2.138108 1_555
O60 Si5 1.648645 1_555
O60 Ti5 1.836659 1_555
O61 Si4 1.646410 1_455
O61 Ti5 1.883002 1_555
O62 S5 1.495003 1_565
O62 Ti5 2.041964 1_555
O63 S3 1.468203 1_565
O63 Ti6 2.243726 1_555
O64 S4 1.509783 1_555
O64 Ti6 2.038129 1_555
O65 Si3 1.658080 1_455
O65 Ti6 1.907717 1_555
O66 S0 1.478830 1_555
O66 Ti7 2.145438 1_555
O67 S1 1.523886 1_555
O67 Ti7 2.049142 1_555
O68 Si0 1.688872 1_455
O68 Ti7 1.951641 1_555
O69 Si1 1.666141 1_555
O69 Ti8 1.859288 1_555
O70 Si2 1.624252 1_555
O70 Ti8 1.895936 1_555
O71 S2 1.496460 1_565
O71 Ti8 2.146175 1_555
