# generated using pymatgen
data_Nd2Cu2O5
_symmetry_space_group_name_H-M   'P 1'
_cell_length_a   3.79030600
_cell_length_b   5.72467600
_cell_length_c   10.15231300
_cell_angle_alpha   90.00000000
_cell_angle_beta   90.00000000
_cell_angle_gamma   90.00000000
_symmetry_Int_Tables_number   1
_chemical_formula_structural   Nd2Cu2O5
_chemical_formula_sum   'Nd4 Cu4 O10'
_cell_volume   220.28766708
_cell_formula_units_Z   2
loop_
 _symmetry_equiv_pos_site_id
 _symmetry_equiv_pos_as_xyz
  1  'x, y, z'
loop_
 _atom_site_type_symbol
 _atom_site_label
 _atom_site_symmetry_multiplicity
 _atom_site_fract_x
 _atom_site_fract_y
 _atom_site_fract_z
 _atom_site_occupancy
  Nd  Nd0  1  0.50000000  0.15010100  0.85110800  1
  Nd  Nd1  1  0.50000000  0.84989900  0.14889200  1
  Nd  Nd2  1  0.50000000  0.65010100  0.64889200  1
  Nd  Nd3  1  0.50000000  0.34989900  0.35110800  1
  Cu  Cu0  1  0.00000000  0.18854300  0.59484600  1
  Cu  Cu1  1  0.00000000  0.81145700  0.40515400  1
  Cu  Cu2  1  0.00000000  0.68854300  0.90515400  1
  Cu  Cu3  1  0.00000000  0.31145700  0.09484600  1
  O  O0  1  0.00000000  0.50000000  0.50000000  1
  O  O1  1  0.00000000  0.00000000  0.00000000  1
  O  O2  1  0.00000000  0.91012700  0.70721200  1
  O  O3  1  0.00000000  0.08987300  0.29278800  1
  O  O4  1  0.00000000  0.41012700  0.79278800  1
  O  O5  1  0.00000000  0.58987300  0.20721200  1
  O  O6  1  0.50000000  0.22612600  0.60140300  1
  O  O7  1  0.50000000  0.77387400  0.39859700  1
  O  O8  1  0.50000000  0.27387400  0.10140300  1
  O  O9  1  0.50000000  0.72612600  0.89859700  1
loop_
_geom_bond_atom_site_label_1
_geom_bond_atom_site_label_2
_geom_bond_distance
_geom_bond_site_symmetry_2
Nd0 O9 2.474541 1_545
Nd0 O4 2.481530 1_555
Nd0 O4 2.481530 1_655
Nd0 O1 2.571944 1_656
Nd0 O1 2.571944 1_556
Nd0 O6 2.572171 1_555
Nd0 O8 2.638013 1_556
Nd0 O2 2.759170 1_545
Nd0 O2 2.759170 1_645
Nd1 O8 2.474541 1_565
Nd1 O5 2.481530 1_655
Nd1 O5 2.481530 1_555
Nd1 O1 2.571944 1_565
Nd1 O1 2.571944 1_665
Nd1 O7 2.572171 1_555
Nd1 O9 2.638013 1_554
Nd1 O3 2.759170 1_565
Nd1 O3 2.759170 1_665
Nd2 O6 2.474541 1_555
Nd2 O2 2.481530 1_655
Nd2 O2 2.481530 1_555
Nd2 O0 2.571944 1_555
Nd2 O0 2.571944 1_655
Nd2 O9 2.572171 1_555
Nd2 O7 2.638013 1_555
Nd2 O4 2.759170 1_555
Nd2 O4 2.759170 1_655
Nd3 O7 2.474541 1_555
Nd3 O3 2.481530 1_655
Nd3 O3 2.481530 1_555
Nd3 O0 2.571944 1_555
Nd3 O0 2.571944 1_655
Nd3 O8 2.572171 1_555
Nd3 O6 2.638013 1_555
Nd3 O5 2.759170 1_655
Nd3 O5 2.759170 1_555
Cu0 O6 1.908488 1_555
Cu0 O6 1.908488 1_455
Cu0 O2 1.960025 1_545
Cu0 O0 2.026387 1_555
Cu0 O4 2.376437 1_555
Cu1 O7 1.908488 1_455
Cu1 O7 1.908488 1_555
Cu1 O3 1.960025 1_565
Cu1 O0 2.026387 1_555
Cu1 O5 2.376437 1_555
Cu2 O9 1.908488 1_455
Cu2 O9 1.908488 1_555
Cu2 O4 1.960025 1_555
Cu2 O1 2.026387 1_566
Cu2 O2 2.376437 1_555
Cu3 O8 1.908488 1_555
Cu3 O8 1.908488 1_455
Cu3 O5 1.960025 1_555
Cu3 O1 2.026387 1_555
Cu3 O3 2.376437 1_555
