# generated using pymatgen
data_Ce(NiAs)2
_symmetry_space_group_name_H-M   'P 1'
_cell_length_a   4.01429257
_cell_length_b   4.01429221
_cell_length_c   5.78993695
_cell_angle_alpha   110.28323925
_cell_angle_beta   110.28322972
_cell_angle_gamma   89.99999782
_symmetry_Int_Tables_number   1
_chemical_formula_structural   Ce(NiAs)2
_chemical_formula_sum   'Ce1 Ni2 As2'
_cell_volume   81.32034129
_cell_formula_units_Z   1
loop_
 _symmetry_equiv_pos_site_id
 _symmetry_equiv_pos_as_xyz
  1  'x, y, z'
loop_
 _atom_site_type_symbol
 _atom_site_label
 _atom_site_symmetry_multiplicity
 _atom_site_fract_x
 _atom_site_fract_y
 _atom_site_fract_z
 _atom_site_occupancy
  Ce  Ce0  1  -0.00000000  -0.00000000  0.00000000  1
  Ni  Ni0  1  0.75000000  0.25000000  0.50000000  1
  Ni  Ni1  1  0.25000000  0.75000000  0.50000000  1
  As  As0  1  0.63343884  0.63343884  0.26687768  1
  As  As1  1  0.36656116  0.36656116  0.73312232  1
loop_
_geom_bond_atom_site_label_1
_geom_bond_atom_site_label_2
_geom_bond_distance
_geom_bond_site_symmetry_2
Ce0 Ni1 3.224152 1_555
Ce0 Ni0 3.224152 1_444
Ce0 Ni1 3.224153 1_544
Ce0 Ni0 3.224153 1_455
Ce0 Ni1 3.224153 1_444
Ce0 Ni0 3.224153 1_555
Ce0 Ni1 3.224153 1_545
Ce0 Ni0 3.224153 1_454
As0 Ni0 2.326503 1_565
As0 Ni1 2.326503 1_555
As0 Ni0 2.326503 1_555
As0 Ni1 2.326503 1_655
As0 As1 2.693540 1_554
As0 Ce0 3.141824 1_655
As0 Ce0 3.141824 1_555
As0 Ce0 3.141825 1_665
As0 Ce0 3.141825 1_565
As1 Ni1 2.326503 1_545
As1 Ni0 2.326503 1_555
As1 Ni1 2.326503 1_555
As1 Ni0 2.326503 1_455
As1 Ce0 3.141824 1_566
As1 Ce0 3.141824 1_666
As1 Ce0 3.141825 1_556
As1 Ce0 3.141825 1_656
