# generated using pymatgen
data_NaYScP(SO6)2
_symmetry_space_group_name_H-M   'P 1'
_cell_length_a   8.98024795
_cell_length_b   8.98343988
_cell_length_c   23.54495253
_cell_angle_alpha   89.99113837
_cell_angle_beta   89.87568331
_cell_angle_gamma   120.00116086
_symmetry_Int_Tables_number   1
_chemical_formula_structural   NaYScP(SO6)2
_chemical_formula_sum   'Na6 Y6 Sc6 P6 S12 O72'
_cell_volume   1644.95074149
_cell_formula_units_Z   6
loop_
 _symmetry_equiv_pos_site_id
 _symmetry_equiv_pos_as_xyz
  1  'x, y, z'
loop_
 _atom_site_type_symbol
 _atom_site_label
 _atom_site_symmetry_multiplicity
 _atom_site_fract_x
 _atom_site_fract_y
 _atom_site_fract_z
 _atom_site_occupancy
  Na  Na0  1  0.98322660  0.98985080  0.49931015  1
  Na  Na1  1  0.00834340  0.98470792  0.99959926  1
  Na  Na2  1  0.65598827  0.30866625  0.83036994  1
  Na  Na3  1  0.65249403  0.31042450  0.33592243  1
  Na  Na4  1  0.31768672  0.67415227  0.16482829  1
  Na  Na5  1  0.35104565  0.67298849  0.66360126  1
  Y  Y0  1  0.99797873  0.00035204  0.85063834  1
  Y  Y1  1  0.00561130  0.99375338  0.14803887  1
  Y  Y2  1  0.66643518  0.33311665  0.18607374  1
  Y  Y3  1  0.66679343  0.33295292  0.98103968  1
  Y  Y4  1  0.33848762  0.68018672  0.31873938  1
  Y  Y5  1  0.34060608  0.67980602  0.81056293  1
  Sc  Sc0  1  0.00316997  0.00082776  0.35415751  1
  Sc  Sc1  1  0.98455965  0.99175492  0.64550172  1
  Sc  Sc2  1  0.66511290  0.33280396  0.68153695  1
  Sc  Sc3  1  0.66826315  0.33462774  0.48425316  1
  Sc  Sc4  1  0.32375205  0.67479309  0.01745445  1
  Sc  Sc5  1  0.35388920  0.67561894  0.51832001  1
  P  P0  1  0.29496074  0.00401307  0.25365107  1
  P  P1  1  0.70987488  0.01012770  0.74566820  1
  P  P2  1  0.66612163  0.62213427  0.58297494  1
  P  P3  1  0.96944921  0.62963753  0.08222924  1
  P  P4  1  0.32970627  0.96119100  0.91707264  1
  P  P5  1  0.63807909  0.97068519  0.41969825  1
  S  S0  1  0.70844528  0.70770473  0.25323208  1
  S  S1  1  0.00048443  0.29101176  0.25285835  1
  S  S2  1  0.29583879  0.28945537  0.74505996  1
  S  S3  1  0.99141197  0.70120994  0.74541442  1
  S  S4  1  0.96216037  0.33654990  0.58283746  1
  S  S5  1  0.37289028  0.03985746  0.58306520  1
  S  S6  1  0.66071414  0.02712972  0.08245890  1
  S  S7  1  0.36851344  0.34378800  0.08205291  1
  S  S8  1  0.62318412  0.66841044  0.91822008  1
  S  S9  1  0.04581557  0.37604432  0.91700429  1
  S  S10  1  0.33419610  0.36964248  0.41936681  1
  S  S11  1  0.03561194  0.66586997  0.42062834  1
  O  O0  1  0.19359336  0.01238714  0.30603337  1
  O  O1  1  0.81136010  0.80013915  0.30370073  1
  O  O2  1  0.98454271  0.18511436  0.30338118  1
  O  O3  1  0.22143701  0.19238904  0.79841571  1
  O  O4  1  0.97215114  0.77766937  0.79855399  1
  O  O5  1  0.80914421  0.03002698  0.80104228  1
  O  O6  1  0.80787827  0.99071096  0.69445478  1
  O  O7  1  0.18756345  0.19732354  0.69570016  1
  O  O8  1  0.01462759  0.81274305  0.69603733  1
  O  O9  1  0.78482283  0.80489559  0.20054696  1
  O  O10  1  0.01282580  0.21040879  0.20004543  1
  O  O11  1  0.19824366  0.99048058  0.19845137  1
  O  O12  1  0.87917070  0.35873780  0.63401042  1
  O  O13  1  0.47992848  0.11890499  0.63410581  1
  O  O14  1  0.64046506  0.51093791  0.63597357  1
  O  O15  1  0.88216946  0.52583903  0.13647098  1
  O  O16  1  0.63694628  0.10785101  0.13406664  1
  O  O17  1  0.46865820  0.35987475  0.13399682  1
  O  O18  1  0.44958027  0.31604871  0.03179518  1
  O  O19  1  0.86186354  0.54005518  0.02969336  1
  O  O20  1  0.68067359  0.13109974  0.03177161  1
  O  O21  1  0.45596065  0.14638925  0.53210333  1
  O  O22  1  0.69025666  0.53478439  0.53025123  1
  O  O23  1  0.85342164  0.30810255  0.53210731  1
  O  O24  1  0.53187615  0.67743938  0.96912782  1
  O  O25  1  0.14656951  0.46444743  0.96825211  1
  O  O26  1  0.31896461  0.85316514  0.97021822  1
  O  O27  1  0.54407550  0.84875948  0.47093262  1
  O  O28  1  0.30950095  0.45661595  0.46907382  1
  O  O29  1  0.14774671  0.68909635  0.46960877  1
  O  O30  1  0.10606459  0.63508297  0.36796137  1
  O  O31  1  0.52881126  0.89527098  0.36595339  1
  O  O32  1  0.36044254  0.47052530  0.36724094  1
  O  O33  1  0.12974119  0.47116040  0.86481608  1
  O  O34  1  0.34416098  0.87387345  0.86281264  1
  O  O35  1  0.52713614  0.65199079  0.86564528  1
  O  O36  1  0.02028193  0.82353290  0.41449953  1
  O  O37  1  0.81710341  0.98546641  0.41238949  1
  O  O38  1  0.17752956  0.19599098  0.41422998  1
  O  O39  1  0.02768512  0.20226404  0.91600207  1
  O  O40  1  0.16519590  0.97525203  0.91559002  1
  O  O41  1  0.79508097  0.82719328  0.91629914  1
  O  O42  1  0.98225170  0.18137681  0.58862152  1
  O  O43  1  0.20039181  0.02300350  0.58943422  1
  O  O44  1  0.82823866  0.80469445  0.58918325  1
  O  O45  1  0.99141404  0.81184970  0.08433791  1
  O  O46  1  0.81634580  0.01152338  0.08686781  1
  O  O47  1  0.19240840  0.19241986  0.08594289  1
  O  O48  1  0.68932320  0.17059287  0.73869243  1
  O  O49  1  0.47046640  0.31000423  0.73988911  1
  O  O50  1  0.83570131  0.52917868  0.73975782  1
  O  O51  1  0.69839578  0.53760811  0.25089232  1
  O  O52  1  0.84367600  0.30838750  0.25133019  1
  O  O53  1  0.47454340  0.16821315  0.25228912  1
  O  O54  1  0.64640050  0.51618624  0.92011786  1
  O  O55  1  0.87203899  0.35780666  0.91904306  1
  O  O56  1  0.49151928  0.14162717  0.91926504  1
  O  O57  1  0.65832522  0.15059234  0.42934579  1
  O  O58  1  0.48776544  0.34891030  0.42658383  1
  O  O59  1  0.86060676  0.51398505  0.42778079  1
  O  O60  1  0.35769650  0.50201070  0.07640459  1
  O  O61  1  0.15098497  0.64701344  0.07787951  1
  O  O62  1  0.50672333  0.85303519  0.07750033  1
  O  O63  1  0.35338712  0.86524032  0.57649223  1
  O  O64  1  0.50352729  0.64221267  0.57617124  1
  O  O65  1  0.13415039  0.49224344  0.57612930  1
  O  O66  1  0.31293937  0.84138306  0.25557859  1
  O  O67  1  0.53236631  0.68187029  0.25672410  1
  O  O68  1  0.15587777  0.46337251  0.25680294  1
  O  O69  1  0.31057436  0.46161026  0.74860351  1
  O  O70  1  0.14576351  0.68078315  0.74831947  1
  O  O71  1  0.53004255  0.84537668  0.74721520  1
loop_
_geom_bond_atom_site_label_1
_geom_bond_atom_site_label_2
_geom_bond_distance
_geom_bond_site_symmetry_2
Na0 O37 2.523876 1_555
Na0 O36 2.612622 1_655
Na0 O44 2.617739 1_555
Na0 O38 2.690562 1_665
Na0 O42 2.720003 1_565
Na0 O43 2.798576 1_665
Na1 O40 2.451811 1_555
Na1 O45 2.485321 1_456
Na1 O41 2.612252 1_455
Na1 O47 2.697830 1_566
Na1 O39 2.716961 1_565
Na1 O46 2.766391 1_466
Na2 O56 2.565774 1_555
Na2 O48 2.580077 1_555
Na2 O49 2.711031 1_555
Na2 O55 2.734863 1_555
Na2 O50 2.804826 1_555
Na2 O54 2.847631 1_555
Na3 O53 2.456862 1_555
Na3 O52 2.632772 1_555
Na3 O57 2.641506 1_555
Na3 O58 2.713385 1_555
Na3 O51 2.738088 1_555
Na3 O59 2.848787 1_555
Na4 O61 2.477909 1_555
Na4 O66 2.624677 1_555
Na4 O62 2.635837 1_555
Na4 O60 2.721830 1_555
Na4 O68 2.760432 1_555
Na4 O67 2.878804 1_555
Na5 O71 2.526482 1_555
Na5 O64 2.560388 1_555
Na5 O69 2.654981 1_555
Na5 O63 2.674354 1_555
Na5 O70 2.737752 1_555
Na5 O65 2.743648 1_555
O0 P0 1.555338 1_555
O0 Sc0 2.008207 1_555
O1 S0 1.480978 1_555
O1 Sc0 2.129013 1_665
O2 S1 1.484342 1_655
O2 Sc0 2.115475 1_655
O3 S2 1.482684 1_555
O3 Y0 2.245337 1_455
O4 S3 1.478264 1_555
O4 Y0 2.257761 1_565
O5 P1 1.540212 1_555
O5 Y0 2.184245 1_555
O6 P1 1.551763 1_565
O6 Sc1 1.955296 1_555
O7 S2 1.476997 1_555
O7 Sc1 2.184950 1_445
O8 S3 1.479411 1_455
O8 Sc1 2.123638 1_455
O9 S0 1.472624 1_555
O9 Y1 2.227736 1_655
O10 S1 1.470633 1_555
O10 Y1 2.273034 1_545
O11 P0 1.535466 1_565
O11 Y1 2.112346 1_555
O12 S4 1.480401 1_555
O12 Sc2 2.131758 1_555
O13 S5 1.481586 1_555
O13 Sc2 2.125596 1_555
O14 P2 1.541516 1_555
O14 Sc2 2.028646 1_555
O15 P3 1.542486 1_555
O15 Y2 2.179453 1_555
O16 S6 1.483850 1_555
O16 Y2 2.265170 1_555
O17 S7 1.483340 1_555
O17 Y2 2.269805 1_555
O18 S7 1.473123 1_555
O18 Y3 2.224797 1_554
O19 P3 1.529406 1_555
O19 Y3 2.143017 1_554
O20 S6 1.469722 1_555
O20 Y3 2.226324 1_554
O21 S5 1.481198 1_555
O21 Sc3 2.128311 1_555
O22 P2 1.540443 1_555
O22 Sc3 2.022739 1_555
O23 S4 1.483625 1_555
O23 Sc3 2.120228 1_555
O24 S8 1.475769 1_555
O24 Sc4 2.175954 1_556
O25 S9 1.480457 1_555
O25 Sc4 2.108643 1_556
O26 P4 1.556383 1_555
O26 Sc4 1.968502 1_556
O27 P5 1.561420 1_555
O27 Sc5 1.978818 1_555
O28 S10 1.483845 1_555
O28 Sc5 2.142998 1_555
O29 S11 1.477343 1_555
O29 Sc5 2.233907 1_555
O30 S11 1.478571 1_555
O30 Y4 2.237718 1_555
O31 P5 1.537522 1_555
O31 Y4 2.143999 1_555
O32 S10 1.472393 1_555
O32 Y4 2.293934 1_555
O33 S9 1.469577 1_555
O33 Y5 2.273773 1_555
O34 P4 1.538083 1_555
O34 Y5 2.121096 1_555
O35 S8 1.474960 1_555
O35 Y5 2.231196 1_555
O36 S11 1.496948 1_555
O36 Sc0 2.196339 1_565
O37 P5 1.554733 1_555
O37 Sc0 2.109566 1_665
O38 S10 1.494502 1_555
O38 Sc0 2.188872 1_555
O39 S9 1.486633 1_555
O39 Y0 2.290958 1_455
O40 P4 1.544850 1_555
O40 Y0 2.234498 1_465
O41 S8 1.489067 1_555
O41 Y0 2.298339 1_565
O42 S4 1.498623 1_555
O42 Sc1 2.174968 1_545
O43 S5 1.486436 1_555
O43 Sc1 2.241176 1_445
O44 P2 1.563273 1_555
O44 Sc1 2.050012 1_555
O45 P3 1.548537 1_555
O45 Y1 2.174707 1_655
O46 S6 1.476592 1_555
O46 Y1 2.295770 1_645
O47 S7 1.485688 1_555
O47 Y1 2.265247 1_545
O48 P1 1.550858 1_555
O48 Sc2 2.073452 1_555
O49 S2 1.489233 1_555
O49 Sc2 2.148586 1_555
O50 S3 1.483639 1_555
O50 Sc2 2.155295 1_555
O51 S0 1.486023 1_555
O51 Y2 2.293842 1_555
O52 S1 1.492870 1_655
O52 Y2 2.303818 1_555
O53 P0 1.548710 1_555
O53 Y2 2.242638 1_555
O54 S8 1.483459 1_555
O54 Y3 2.258860 1_555
O55 S9 1.486093 1_655
O55 Y3 2.270353 1_555
O56 P4 1.544835 1_545
O56 Y3 2.202822 1_555
O57 P5 1.550208 1_545
O57 Sc3 2.065476 1_555
O58 S10 1.491080 1_555
O58 Sc3 2.169097 1_555
O59 S11 1.488061 1_655
O59 Sc3 2.133958 1_555
O60 S7 1.478353 1_555
O60 Sc4 2.214273 1_555
O61 P3 1.561190 1_455
O61 Sc4 2.024008 1_555
O62 S6 1.486566 1_565
O62 Sc4 2.154584 1_555
O63 S5 1.496920 1_565
O63 Sc5 2.187720 1_555
O64 P2 1.566711 1_555
O64 Sc5 2.040162 1_555
O65 S4 1.485015 1_455
O65 Sc5 2.279725 1_555
O66 P0 1.548702 1_565
O66 Y4 2.166612 1_555
O67 S0 1.481000 1_555
O67 Y4 2.264120 1_555
O68 S1 1.480972 1_555
O68 Y4 2.329504 1_555
O69 S2 1.487177 1_555
O69 Y5 2.348838 1_555
O70 S3 1.488099 1_455
O70 Y5 2.288204 1_555
O71 P1 1.552202 1_565
O71 Y5 2.188352 1_555
