# generated using pymatgen
data_Zr6Ga2Co
_symmetry_space_group_name_H-M   'P 1'
_cell_length_a   7.82657035
_cell_length_b   7.82657154
_cell_length_c   3.35600294
_cell_angle_alpha   90.00000000
_cell_angle_beta   90.00000000
_cell_angle_gamma   119.99999941
_symmetry_Int_Tables_number   1
_chemical_formula_structural   Zr6Ga2Co
_chemical_formula_sum   'Zr6 Ga2 Co1'
_cell_volume   178.03115906
_cell_formula_units_Z   1
loop_
 _symmetry_equiv_pos_site_id
 _symmetry_equiv_pos_as_xyz
  1  'x, y, z'
loop_
 _atom_site_type_symbol
 _atom_site_label
 _atom_site_symmetry_multiplicity
 _atom_site_fract_x
 _atom_site_fract_y
 _atom_site_fract_z
 _atom_site_occupancy
  Zr  Zr0  1  0.24835420  -0.00000000  -0.00000000  1
  Zr  Zr1  1  0.75164580  0.75164580  0.00000000  1
  Zr  Zr2  1  0.00000000  0.24835420  0.00000000  1
  Zr  Zr3  1  0.00000000  0.59485026  0.50000000  1
  Zr  Zr4  1  0.40514974  0.40514974  0.50000000  1
  Zr  Zr5  1  0.59485026  -0.00000000  0.50000000  1
  Ga  Ga0  1  0.33333300  0.66666700  0.00000000  1
  Ga  Ga1  1  0.66666700  0.33333300  0.00000000  1
  Co  Co0  1  0.00000000  -0.00000000  0.50000000  1
loop_
_geom_bond_atom_site_label_1
_geom_bond_atom_site_label_2
_geom_bond_distance
_geom_bond_site_symmetry_2
Ga0 Zr3 2.910560 1_554
Ga0 Zr3 2.910560 1_555
Ga0 Zr5 2.910562 1_565
Ga0 Zr5 2.910562 1_564
Ga0 Zr4 2.910567 1_555
Ga0 Zr4 2.910567 1_554
Ga0 Zr0 2.997265 1_565
Ga0 Zr2 2.997271 1_555
Ga0 Zr1 2.997273 1_555
Ga1 Zr5 2.910560 1_555
Ga1 Zr5 2.910560 1_554
Ga1 Zr3 2.910562 1_654
Ga1 Zr3 2.910562 1_655
Ga1 Zr4 2.910566 1_555
Ga1 Zr4 2.910566 1_554
Ga1 Zr2 2.997265 1_655
Ga1 Zr0 2.997270 1_555
Ga1 Zr1 2.997273 1_555
Co0 Zr0 2.567859 1_555
Co0 Zr0 2.567859 1_556
Co0 Zr1 2.567859 1_445
Co0 Zr1 2.567859 1_446
Co0 Zr2 2.567859 1_556
Co0 Zr2 2.567859 1_555
