# generated using pymatgen
data_Na10ScNb7(SiO4)12
_symmetry_space_group_name_H-M   'P 1'
_cell_length_a   18.14909353
_cell_length_b   9.08368074
_cell_length_c   22.59491782
_cell_angle_alpha   90.00309376
_cell_angle_beta   90.00137683
_cell_angle_gamma   120.04667984
_symmetry_Int_Tables_number   1
_chemical_formula_structural   Na10ScNb7(SiO4)12
_chemical_formula_sum   'Na30 Sc3 Nb21 Si36 O144'
_cell_volume   3224.43571207
_cell_formula_units_Z   3
loop_
 _symmetry_equiv_pos_site_id
 _symmetry_equiv_pos_as_xyz
  1  'x, y, z'
loop_
 _atom_site_type_symbol
 _atom_site_label
 _atom_site_symmetry_multiplicity
 _atom_site_fract_x
 _atom_site_fract_y
 _atom_site_fract_z
 _atom_site_occupancy
  Na  Na0  1  0.81526271  0.01040422  0.24653137  1
  Na  Na1  1  0.18437675  0.36733734  0.24882068  1
  Na  Na2  1  0.68864664  0.36687899  0.24592565  1
  Na  Na3  1  0.99470966  0.61899603  0.24667276  1
  Na  Na4  1  0.31546939  0.62021880  0.74706883  1
  Na  Na5  1  0.81597375  0.62045185  0.74647466  1
  Na  Na6  1  0.99419898  0.36706394  0.74615530  1
  Na  Na7  1  0.49409357  0.36626001  0.74617632  1
  Na  Na8  1  0.18984561  0.01178901  0.74760270  1
  Na  Na9  1  0.68991858  0.01234396  0.74689581  1
  Na  Na10  1  0.15356027  0.33813320  0.58463608  1
  Na  Na11  1  0.65496605  0.33807091  0.58366709  1
  Na  Na12  1  0.33322512  0.97252832  0.58379477  1
  Na  Na13  1  0.83374814  0.97485497  0.58348768  1
  Na  Na14  1  0.65224428  0.96971622  0.08539361  1
  Na  Na15  1  0.83174228  0.69186476  0.08398540  1
  Na  Na16  1  0.01612432  0.33713347  0.08282756  1
  Na  Na17  1  0.48277415  0.29819741  0.41699362  1
  Na  Na18  1  0.99987357  0.98942783  0.49663962  1
  Na  Na19  1  0.50167894  0.98198770  0.49782519  1
  Na  Na20  1  0.00600400  0.99944705  0.99702355  1
  Na  Na21  1  0.49448907  0.00106183  0.99928739  1
  Na  Na22  1  0.33281549  0.33283251  0.83463992  1
  Na  Na23  1  0.83350034  0.33311577  0.83378122  1
  Na  Na24  1  0.33313598  0.33304821  0.33199123  1
  Na  Na25  1  0.83280362  0.33202561  0.33288869  1
  Na  Na26  1  0.17680661  0.68909283  0.16384457  1
  Na  Na27  1  0.65549866  0.65292170  0.16605900  1
  Na  Na28  1  0.16088038  0.66682602  0.66524632  1
  Na  Na29  1  0.66095582  0.66710845  0.66489629  1
  Sc  Sc0  1  0.33423149  0.33384761  0.68612528  1
  Sc  Sc1  1  0.83416199  0.33433031  0.68577662  1
  Sc  Sc2  1  0.83258746  0.33298835  0.18600305  1
  Nb  Nb0  1  0.00044369  0.00100585  0.35698611  1
  Nb  Nb1  1  0.49874094  0.99541727  0.35495468  1
  Nb  Nb2  1  0.00006172  0.00117684  0.85828947  1
  Nb  Nb3  1  0.50005482  0.99942462  0.85818441  1
  Nb  Nb4  1  0.99978251  0.99592055  0.64475517  1
  Nb  Nb5  1  0.50035050  0.99715366  0.64481019  1
  Nb  Nb6  1  0.00338111  0.00049515  0.14440371  1
  Nb  Nb7  1  0.49650809  0.99825104  0.14380372  1
  Nb  Nb8  1  0.33667736  0.33385474  0.18773095  1
  Nb  Nb9  1  0.33267359  0.33280437  0.97696523  1
  Nb  Nb10  1  0.83361713  0.33393531  0.97775483  1
  Nb  Nb11  1  0.33047101  0.33541218  0.47882446  1
  Nb  Nb12  1  0.83436880  0.33405702  0.47754083  1
  Nb  Nb13  1  0.17055443  0.67376001  0.02113472  1
  Nb  Nb14  1  0.66295286  0.65958266  0.01936437  1
  Nb  Nb15  1  0.16428439  0.66603175  0.51839175  1
  Nb  Nb16  1  0.66560607  0.66869142  0.51881837  1
  Nb  Nb17  1  0.16955225  0.67188081  0.31232535  1
  Nb  Nb18  1  0.66454065  0.66629870  0.31194403  1
  Nb  Nb19  1  0.16676633  0.66614080  0.81458660  1
  Nb  Nb20  1  0.66686904  0.66662482  0.81452301  1
  Si  Si0  1  0.14510220  0.00008367  0.25124223  1
  Si  Si1  1  0.64250404  0.99705716  0.24891013  1
  Si  Si2  1  0.35612983  0.71107933  0.24991724  1
  Si  Si3  1  0.85603492  0.71319299  0.25027531  1
  Si  Si4  1  0.00053469  0.28926866  0.25055062  1
  Si  Si5  1  0.49869829  0.28554493  0.25114188  1
  Si  Si6  1  0.14325045  0.28837149  0.75051104  1
  Si  Si7  1  0.64340616  0.28863081  0.75069678  1
  Si  Si8  1  0.00074344  0.71299055  0.75205395  1
  Si  Si9  1  0.50076681  0.71273530  0.75176259  1
  Si  Si10  1  0.35560135  0.99819076  0.75093493  1
  Si  Si11  1  0.85555114  0.99862238  0.75095985  1
  Si  Si12  1  0.47933850  0.33646441  0.58424507  1
  Si  Si13  1  0.97908767  0.33644738  0.58537888  1
  Si  Si14  1  0.18767533  0.04023903  0.58525895  1
  Si  Si15  1  0.68881284  0.04320711  0.58453687  1
  Si  Si16  1  0.33371630  0.62493206  0.58481769  1
  Si  Si17  1  0.83408211  0.62291907  0.58388496  1
  Si  Si18  1  0.47645749  0.62160258  0.08205744  1
  Si  Si19  1  0.97919813  0.62286923  0.08465580  1
  Si  Si20  1  0.33323858  0.04770255  0.08248279  1
  Si  Si21  1  0.83281472  0.04224150  0.08446326  1
  Si  Si22  1  0.19156066  0.33690240  0.08418727  1
  Si  Si23  1  0.68733897  0.33222237  0.08451773  1
  Si  Si24  1  0.31195336  0.66471053  0.91650713  1
  Si  Si25  1  0.81176825  0.66573506  0.91755322  1
  Si  Si26  1  0.02216959  0.37853465  0.91864401  1
  Si  Si27  1  0.51917624  0.37429611  0.91537309  1
  Si  Si28  1  0.16730688  0.95736699  0.91659995  1
  Si  Si29  1  0.66724554  0.95810589  0.91754574  1
  Si  Si30  1  0.31192951  0.95862067  0.41771181  1
  Si  Si31  1  0.81163847  0.95706939  0.41598178  1
  Si  Si32  1  0.16674480  0.37679327  0.41585449  1
  Si  Si33  1  0.66870078  0.37713905  0.41544485  1
  Si  Si34  1  0.02100535  0.66466433  0.41428379  1
  Si  Si35  1  0.52077289  0.66850870  0.41646068  1
  O  O0  1  0.09870506  0.03043517  0.30793484  1
  O  O1  1  0.59056552  0.01954486  0.30527435  1
  O  O2  1  0.41390608  0.80822360  0.30833097  1
  O  O3  1  0.91903889  0.81534517  0.30590004  1
  O  O4  1  0.48657592  0.17496664  0.31152318  1
  O  O5  1  0.99038217  0.16620683  0.30652451  1
  O  O6  1  0.09284165  0.16464221  0.80634881  1
  O  O7  1  0.59298958  0.16425859  0.80629070  1
  O  O8  1  0.48892580  0.81085620  0.80798637  1
  O  O9  1  0.98907808  0.81211517  0.80806860  1
  O  O10  1  0.41763765  0.02055961  0.80648638  1
  O  O11  1  0.91729015  0.02048977  0.80667051  1
  O  O12  1  0.40016760  0.96925011  0.69060437  1
  O  O13  1  0.89993903  0.96916095  0.69072960  1
  O  O14  1  0.08400596  0.20029244  0.69030566  1
  O  O15  1  0.58411750  0.20098983  0.69039234  1
  O  O16  1  0.01548098  0.83765432  0.69342452  1
  O  O17  1  0.51554771  0.83804371  0.69338801  1
  O  O18  1  0.40341850  0.83029790  0.19223346  1
  O  O19  1  0.90089374  0.83291616  0.19077639  1
  O  O20  1  0.01563735  0.19905484  0.19120164  1
  O  O21  1  0.51453856  0.19041547  0.19472027  1
  O  O22  1  0.08237343  0.96880645  0.19327997  1
  O  O23  1  0.58657841  0.97418783  0.18908706  1
  O  O24  1  0.44120933  0.36435508  0.64480074  1
  O  O25  1  0.94287082  0.36553109  0.64672165  1
  O  O26  1  0.24376936  0.11199728  0.64486085  1
  O  O27  1  0.74393415  0.11193205  0.64492484  1
  O  O28  1  0.31200397  0.51029240  0.64381919  1
  O  O29  1  0.81176548  0.51096873  0.64389611  1
  O  O30  1  0.42939890  0.50303452  0.14078708  1
  O  O31  1  0.94254949  0.51116869  0.14467645  1
  O  O32  1  0.32137667  0.14248460  0.14112801  1
  O  O33  1  0.81188321  0.11312145  0.14432269  1
  O  O34  1  0.24665440  0.35807175  0.14451898  1
  O  O35  1  0.74395661  0.37678963  0.14454741  1
  O  O36  1  0.23810330  0.30982471  0.02696544  1
  O  O37  1  0.73730700  0.30270549  0.02878711  1
  O  O38  1  0.41756824  0.52606049  0.02483073  1
  O  O39  1  0.91412041  0.52746500  0.02872376  1
  O  O40  1  0.34591902  0.16571282  0.02494032  1
  O  O41  1  0.84943601  0.17244112  0.02895556  1
  O  O42  1  0.23749995  0.16920500  0.52866306  1
  O  O43  1  0.73684809  0.17117202  0.52854346  1
  O  O44  1  0.34546707  0.52438275  0.52775161  1
  O  O45  1  0.84585892  0.52354250  0.52738612  1
  O  O46  1  0.41765865  0.30488390  0.52614636  1
  O  O47  1  0.91431783  0.30289212  0.52952570  1
  O  O48  1  0.26219244  0.68781477  0.97310262  1
  O  O49  1  0.76356093  0.68844202  0.97515291  1
  O  O50  1  0.08063758  0.46992742  0.97685566  1
  O  O51  1  0.58118876  0.47666242  0.97171918  1
  O  O52  1  0.15655036  0.83426636  0.97272386  1
  O  O53  1  0.65530977  0.84045622  0.97578566  1
  O  O54  1  0.26644400  0.84357351  0.47644745  1
  O  O55  1  0.76472613  0.83918781  0.47449667  1
  O  O56  1  0.15727446  0.47168409  0.47476882  1
  O  O57  1  0.65344138  0.47003215  0.47317164  1
  O  O58  1  0.08277309  0.68688822  0.47118942  1
  O  O59  1  0.58097013  0.68992029  0.47372702  1
  O  O60  1  0.06806410  0.64171294  0.35549733  1
  O  O61  1  0.56908272  0.63822837  0.35982638  1
  O  O62  1  0.25097876  0.85770695  0.36046387  1
  O  O63  1  0.75178986  0.86018668  0.35769935  1
  O  O64  1  0.17853146  0.49426564  0.35722947  1
  O  O65  1  0.67833569  0.49387688  0.35677117  1
  O  O66  1  0.06977559  0.49637696  0.85897153  1
  O  O67  1  0.56783102  0.49267038  0.85631024  1
  O  O68  1  0.17835790  0.86287203  0.85676216  1
  O  O69  1  0.67817405  0.86099890  0.85846512  1
  O  O70  1  0.25343153  0.64254927  0.85669985  1
  O  O71  1  0.75260107  0.64335695  0.85818418  1
  O  O72  1  0.01370713  0.83603705  0.41022515  1
  O  O73  1  0.51166395  0.83694132  0.41171411  1
  O  O74  1  0.40755990  0.98352011  0.41248782  1
  O  O75  1  0.90534819  0.97356660  0.41036888  1
  O  O76  1  0.08195866  0.18920270  0.41152979  1
  O  O77  1  0.57999344  0.19274012  0.41066189  1
  O  O78  1  0.01328805  0.19091395  0.91110020  1
  O  O79  1  0.51307569  0.18955035  0.91102676  1
  O  O80  1  0.08184847  0.97360823  0.91129667  1
  O  O81  1  0.58202728  0.97417302  0.91100550  1
  O  O82  1  0.40503068  0.83666366  0.91111763  1
  O  O83  1  0.90499398  0.83697754  0.91155576  1
  O  O84  1  0.48743420  0.16128403  0.58731898  1
  O  O85  1  0.98755416  0.16171581  0.58789528  1
  O  O86  1  0.09521202  0.03295705  0.58784676  1
  O  O87  1  0.59524385  0.03238592  0.58837869  1
  O  O88  1  0.41761011  0.81767442  0.58739847  1
  O  O89  1  0.91718607  0.81741979  0.58778510  1
  O  O90  1  0.48957993  0.81375521  0.08836491  1
  O  O91  1  0.98468594  0.81045816  0.08846449  1
  O  O92  1  0.41812201  0.02828679  0.09041823  1
  O  O93  1  0.91967015  0.02575922  0.08776117  1
  O  O94  1  0.09449108  0.16718636  0.08993847  1
  O  O95  1  0.59418446  0.15706023  0.08768626  1
  O  O96  1  0.34515861  0.16475278  0.74894717  1
  O  O97  1  0.84486294  0.16486145  0.74924255  1
  O  O98  1  0.23699934  0.30907946  0.74808736  1
  O  O99  1  0.73715658  0.30918759  0.74822352  1
  O  O100  1  0.41737114  0.52598428  0.74814783  1
  O  O101  1  0.91720718  0.52626857  0.74841304  1
  O  O102  1  0.34233888  0.51901101  0.24578322  1
  O  O103  1  0.84630134  0.52632952  0.24864570  1
  O  O104  1  0.41556601  0.30925300  0.24459721  1
  O  O105  1  0.91625714  0.30669717  0.24879237  1
  O  O106  1  0.23736950  0.17283263  0.24476712  1
  O  O107  1  0.73604574  0.16651476  0.24896324  1
  O  O108  1  0.31919196  0.49422336  0.92144718  1
  O  O109  1  0.81895060  0.49441202  0.92306752  1
  O  O110  1  0.42686498  0.35968385  0.92086583  1
  O  O111  1  0.92867837  0.36309716  0.92347169  1
  O  O112  1  0.25204413  0.14362933  0.92181434  1
  O  O113  1  0.75304377  0.14385834  0.92299862  1
  O  O114  1  0.32348940  0.14931790  0.42226225  1
  O  O115  1  0.81938980  0.14308612  0.42324242  1
  O  O116  1  0.25279373  0.36056189  0.42223909  1
  O  O117  1  0.75252224  0.35795980  0.42194920  1
  O  O118  1  0.42953977  0.49184859  0.42262312  1
  O  O119  1  0.92835159  0.49396683  0.42274931  1
  O  O120  1  0.17605820  0.50007409  0.07896924  1
  O  O121  1  0.67734671  0.50108716  0.07395610  1
  O  O122  1  0.07296196  0.64219784  0.07454927  1
  O  O123  1  0.57361321  0.64926483  0.07815805  1
  O  O124  1  0.24905235  0.85742062  0.07774947  1
  O  O125  1  0.75020401  0.84995824  0.07506652  1
  O  O126  1  0.17764983  0.85256390  0.57449582  1
  O  O127  1  0.67856156  0.85413755  0.57436743  1
  O  O128  1  0.25066552  0.65066328  0.57479535  1
  O  O129  1  0.75091549  0.64991961  0.57374992  1
  O  O130  1  0.07714774  0.49535237  0.57570876  1
  O  O131  1  0.57760647  0.49502267  0.57564395  1
  O  O132  1  0.14978482  0.82465243  0.25514066  1
  O  O133  1  0.65273830  0.82711294  0.25581741  1
  O  O134  1  0.26022422  0.68822486  0.25539641  1
  O  O135  1  0.76190080  0.69982782  0.25485944  1
  O  O136  1  0.08803431  0.47692285  0.25500587  1
  O  O137  1  0.58754894  0.47176622  0.25537083  1
  O  O138  1  0.14863617  0.47553503  0.75470305  1
  O  O139  1  0.64930741  0.47625546  0.75484924  1
  O  O140  1  0.08849220  0.70109836  0.75457845  1
  O  O141  1  0.58897008  0.70228662  0.75450805  1
  O  O142  1  0.26180387  0.82204310  0.75462749  1
  O  O143  1  0.76175753  0.82206173  0.75488242  1
loop_
_geom_bond_atom_site_label_1
_geom_bond_atom_site_label_2
_geom_bond_distance
_geom_bond_site_symmetry_2
Na0 O105 2.380312 1_555
Na0 O107 2.474383 1_555
Na0 O135 2.489250 1_545
Na0 O33 2.503037 1_555
Na0 O133 2.568799 1_545
Na0 O63 2.815079 1_545
Na1 O106 2.399312 1_555
Na1 O136 2.410558 1_555
Na1 O102 2.483236 1_555
Na1 O134 2.528856 1_555
Na1 O34 2.633244 1_555
Na1 O64 2.731811 1_555
Na1 O20 2.953297 1_555
Na1 O0 2.966919 1_555
Na2 O107 2.371754 1_555
Na2 O137 2.463844 1_555
Na2 O103 2.477592 1_555
Na2 O35 2.484433 1_555
Na2 O135 2.632228 1_555
Na2 O65 2.802583 1_555
Na3 O103 2.386403 1_555
Na3 O105 2.456078 1_555
Na3 O132 2.486460 1_655
Na3 O31 2.497562 1_555
Na3 O136 2.599759 1_655
Na3 O60 2.754227 1_655
Na4 O100 2.395627 1_555
Na4 O98 2.446614 1_555
Na4 O142 2.475262 1_555
Na4 O28 2.525942 1_555
Na4 O138 2.634400 1_555
Na4 O70 2.770144 1_555
Na5 O101 2.384027 1_555
Na5 O99 2.447836 1_555
Na5 O143 2.482479 1_555
Na5 O29 2.508096 1_555
Na5 O139 2.633167 1_555
Na5 O71 2.824321 1_555
Na6 O97 2.395650 1_555
Na6 O25 2.429515 1_555
Na6 O101 2.463766 1_555
Na6 O138 2.469552 1_655
Na6 O140 2.640378 1_655
Na6 O66 2.853947 1_655
Na7 O96 2.388747 1_555
Na7 O100 2.463547 1_555
Na7 O24 2.480222 1_555
Na7 O139 2.480627 1_555
Na7 O141 2.655924 1_555
Na7 O67 2.786149 1_555
Na8 O98 2.389733 1_555
Na8 O96 2.440280 1_555
Na8 O140 2.484904 1_545
Na8 O26 2.506731 1_555
Na8 O142 2.637367 1_545
Na8 O68 2.770313 1_545
Na9 O99 2.385721 1_555
Na9 O97 2.434883 1_555
Na9 O141 2.480201 1_545
Na9 O27 2.490017 1_555
Na9 O143 2.641376 1_545
Na9 O69 2.827952 1_545
Na10 O86 2.423146 1_555
Na10 O130 2.446808 1_555
Na10 O128 2.490918 1_555
Na10 O85 2.610721 1_455
Na10 O14 2.698063 1_555
Na10 O56 2.749035 1_555
Na10 O28 2.828282 1_555
Na10 O42 2.935276 1_555
Na11 O87 2.425399 1_555
Na11 O131 2.457895 1_555
Na11 O129 2.483399 1_555
Na11 O84 2.634575 1_555
Na11 O15 2.723247 1_555
Na11 O57 2.775673 1_555
Na11 O29 2.817950 1_555
Na11 O43 2.883441 1_555
Na12 O84 2.444111 1_565
Na12 O126 2.474429 1_555
Na12 O128 2.539197 1_555
Na12 O88 2.547182 1_555
Na12 O54 2.702222 1_555
Na12 O12 2.708755 1_555
Na12 O26 2.864327 1_565
Na12 O46 2.920104 1_565
Na13 O85 2.436864 1_565
Na13 O127 2.466717 1_555
Na13 O89 2.552733 1_555
Na13 O129 2.564531 1_555
Na13 O13 2.716510 1_555
Na13 O55 2.757921 1_555
Na13 O47 2.853251 1_565
Na13 O27 2.857786 1_565
Na14 O95 2.409317 1_565
Na14 O125 2.517039 1_555
Na14 O123 2.525177 1_555
Na14 O90 2.557111 1_555
Na14 O23 2.638176 1_555
Na14 O53 2.753236 1_554
Na14 O33 2.843286 1_565
Na14 O37 2.914227 1_565
Na15 O91 2.425127 1_555
Na15 O121 2.458368 1_555
Na15 O125 2.533975 1_555
Na15 O93 2.627923 1_565
Na15 O19 2.725477 1_555
Na15 O49 2.745997 1_554
Na15 O35 2.834849 1_555
Na15 O39 2.874059 1_555
Na16 O122 2.432203 1_555
Na16 O93 2.473580 1_455
Na16 O120 2.514249 1_555
Na16 O94 2.574999 1_555
Na16 O50 2.673077 1_554
Na16 O20 2.749297 1_555
Na16 O41 2.887774 1_455
Na16 O31 2.889460 1_455
Na17 O77 2.396661 1_555
Na17 O118 2.397052 1_555
Na17 O74 2.477276 1_545
Na17 O114 2.507033 1_555
Na17 O4 2.648396 1_555
Na17 O46 2.748625 1_555
Na17 O57 2.966448 1_555
Na17 O61 2.969487 1_555
Na18 O72 2.483320 1_655
Na18 O76 2.550268 1_665
Na18 O75 2.552616 1_555
Na18 O89 2.566521 1_555
Na18 O86 2.590729 1_665
Na18 O85 2.664736 1_565
Na19 O73 2.406923 1_555
Na19 O88 2.524255 1_555
Na19 O87 2.549655 1_565
Na19 O74 2.580626 1_555
Na19 O77 2.615256 1_565
Na19 O84 2.688798 1_565
Na20 O80 2.454673 1_555
Na20 O83 2.560914 1_455
Na20 O78 2.565475 1_565
Na20 O91 2.588601 1_456
Na20 O94 2.618644 1_566
Na20 O93 2.662843 1_466
Na21 O82 2.531097 1_545
Na21 O79 2.538570 1_555
Na21 O92 2.562290 1_556
Na21 O95 2.589067 1_556
Na21 O90 2.608131 1_546
Na21 O81 2.636543 1_545
Na22 O110 2.520250 1_555
Na22 O108 2.533804 1_555
Na22 O112 2.541647 1_555
Na22 O96 2.544093 1_555
Na22 O98 2.553273 1_555
Na22 O100 2.560627 1_555
Na23 O97 2.518416 1_555
Na23 O101 2.537368 1_555
Na23 O99 2.541853 1_555
Na23 O113 2.576441 1_555
Na23 O109 2.583322 1_555
Na23 O111 2.587205 1_555
Na24 O102 2.528514 1_555
Na24 O106 2.547456 1_555
Na24 O104 2.551084 1_555
Na24 O114 2.585354 1_555
Na24 O116 2.590707 1_555
Na24 O118 2.609157 1_555
Na25 O107 2.509122 1_555
Na25 O105 2.511292 1_555
Na25 O103 2.523052 1_555
Na25 O117 2.563528 1_555
Na25 O119 2.595869 1_555
Na25 O115 2.598979 1_555
Na26 O124 2.415403 1_555
Na26 O134 2.565747 1_555
Na26 O120 2.569491 1_555
Na26 O132 2.572273 1_555
Na26 O122 2.645760 1_555
Na26 O136 2.728365 1_555
Na27 O123 2.470790 1_555
Na27 O137 2.503852 1_555
Na27 O133 2.588115 1_555
Na27 O121 2.633944 1_555
Na27 O135 2.666881 1_555
Na27 O125 2.702709 1_555
Na28 O140 2.511320 1_555
Na28 O130 2.541177 1_555
Na28 O126 2.574869 1_555
Na28 O138 2.601532 1_555
Na28 O142 2.614364 1_555
Na28 O128 2.663350 1_555
Na29 O141 2.515315 1_555
Na29 O131 2.535790 1_555
Na29 O127 2.574729 1_555
Na29 O139 2.610475 1_555
Na29 O143 2.623540 1_555
Na29 O129 2.680815 1_555
Nb0 O5 1.964646 1_455
Nb0 O3 1.965686 1_445
Nb0 O0 2.000721 1_555
Nb0 O75 2.016200 1_445
Nb0 O76 2.024104 1_555
Nb0 O72 2.027801 1_545
Nb1 O1 1.928672 1_565
Nb1 O2 1.936420 1_555
Nb1 O4 2.008128 1_565
Nb1 O73 2.027396 1_555
Nb1 O74 2.064251 1_555
Nb1 O77 2.079529 1_565
Nb2 O11 1.977785 1_455
Nb2 O6 1.978386 1_555
Nb2 O9 1.983354 1_445
Nb2 O78 2.009335 1_555
Nb2 O80 2.018089 1_545
Nb2 O83 2.018257 1_445
Nb3 O8 1.978530 1_555
Nb3 O10 1.981481 1_565
Nb3 O7 1.983152 1_565
Nb3 O81 2.007992 1_555
Nb3 O82 2.009356 1_555
Nb3 O79 2.013737 1_565
Nb4 O16 1.941035 1_655
Nb4 O13 1.995191 1_555
Nb4 O14 2.000054 1_665
Nb4 O89 2.024557 1_555
Nb4 O86 2.045215 1_665
Nb4 O85 2.074333 1_565
Nb5 O17 1.941413 1_555
Nb5 O12 1.994855 1_555
Nb5 O15 1.995294 1_565
Nb5 O87 2.035308 1_565
Nb5 O88 2.035621 1_555
Nb5 O84 2.077346 1_565
Nb6 O22 1.941904 1_545
Nb6 O20 2.004680 1_555
Nb6 O94 2.008592 1_555
Nb6 O19 2.009897 1_445
Nb6 O91 2.026269 1_445
Nb6 O93 2.085171 1_455
Nb7 O18 1.948960 1_555
Nb7 O21 1.976198 1_565
Nb7 O92 1.985446 1_565
Nb7 O23 2.030924 1_555
Nb7 O90 2.045065 1_555
Nb7 O95 2.066581 1_565
Nb8 O32 1.929799 1_555
Nb8 O30 1.931091 1_555
Nb8 O34 2.007728 1_555
Nb8 O104 2.017713 1_555
Nb8 O102 2.094412 1_555
Nb8 O106 2.099771 1_555
Nb9 O40 1.975377 1_556
Nb9 O36 1.976653 1_556
Nb9 O38 1.979003 1_556
Nb9 O112 2.031910 1_555
Nb9 O108 2.035407 1_555
Nb9 O110 2.042261 1_555
Nb10 O37 1.992215 1_556
Nb10 O39 1.994740 1_556
Nb10 O41 1.998672 1_556
Nb10 O111 2.023259 1_555
Nb10 O109 2.027657 1_555
Nb10 O113 2.030151 1_555
Nb11 O44 1.942856 1_555
Nb11 O42 1.960564 1_555
Nb11 O116 1.999195 1_555
Nb11 O46 2.040455 1_555
Nb11 O114 2.071756 1_555
Nb11 O118 2.075182 1_555
Nb12 O45 1.978606 1_555
Nb12 O47 1.994121 1_555
Nb12 O43 2.006901 1_555
Nb12 O119 2.017721 1_555
Nb12 O115 2.028757 1_555
Nb12 O117 2.038224 1_555
Nb13 O48 1.935888 1_554
Nb13 O52 1.938571 1_554
Nb13 O50 2.016489 1_554
Nb13 O124 2.017139 1_555
Nb13 O122 2.041474 1_555
Nb13 O120 2.089213 1_555
Nb14 O51 1.911139 1_554
Nb14 O53 1.979048 1_554
Nb14 O49 1.980272 1_554
Nb14 O121 2.009818 1_555
Nb14 O123 2.061678 1_555
Nb14 O125 2.083149 1_555
Nb15 O58 1.908531 1_555
Nb15 O56 1.969569 1_555
Nb15 O54 1.985612 1_555
Nb15 O126 2.031002 1_555
Nb15 O130 2.031480 1_555
Nb15 O128 2.078598 1_555
Nb16 O59 1.931653 1_555
Nb16 O55 1.961606 1_555
Nb16 O57 1.992421 1_555
Nb16 O127 2.017770 1_555
Nb16 O131 2.040895 1_555
Nb16 O129 2.056964 1_555
Nb17 O62 1.928204 1_555
Nb17 O60 1.978370 1_555
Nb17 O64 1.980532 1_555
Nb17 O134 2.034731 1_555
Nb17 O132 2.054925 1_555
Nb17 O136 2.092446 1_555
Nb18 O61 1.948008 1_555
Nb18 O63 1.971059 1_555
Nb18 O65 1.983554 1_555
Nb18 O133 2.025235 1_555
Nb18 O137 2.058165 1_555
Nb18 O135 2.083244 1_555
Nb19 O70 1.939808 1_555
Nb19 O66 1.940183 1_555
Nb19 O68 1.941450 1_555
Nb19 O138 2.089502 1_555
Nb19 O142 2.090509 1_555
Nb19 O140 2.099775 1_555
Nb20 O71 1.941180 1_555
Nb20 O67 1.942979 1_555
Nb20 O69 1.944831 1_555
Nb20 O143 2.083417 1_555
Nb20 O139 2.087504 1_555
Nb20 O141 2.097896 1_555
O0 Si0 1.630479 1_555
O1 Si1 1.656823 1_545
O2 Si2 1.641166 1_555
O3 Si3 1.638733 1_555
O4 Si5 1.642420 1_555
O5 Si4 1.636148 1_655
O6 Si6 1.631705 1_555
O7 Si7 1.629877 1_555
O8 Si9 1.626698 1_555
O9 Si8 1.627337 1_655
O10 Si10 1.629487 1_545
O11 Si11 1.629887 1_545
O12 Si10 1.671673 1_555
O13 Si11 1.669899 1_555
O14 Si6 1.668860 1_555
O15 Si7 1.670392 1_555
O16 Si8 1.675008 1_555
O17 Si9 1.673822 1_555
O18 Si2 1.636326 1_555
O19 Si3 1.663263 1_555
O20 Si4 1.664254 1_555
O21 Si5 1.644158 1_555
O22 Si0 1.663732 1_565
O23 Si1 1.639883 1_555
O24 Si12 1.609580 1_555
O24 Sc0 2.044400 1_555
O25 Si13 1.611470 1_555
O25 Sc1 2.047383 1_555
O26 Si14 1.615619 1_555
O26 Sc0 2.076631 1_555
O27 Si15 1.620714 1_555
O27 Sc1 2.074044 1_555
O28 Si16 1.614367 1_555
O28 Sc0 2.071952 1_555
O29 Si17 1.620025 1_555
O29 Sc1 2.070859 1_555
O30 Si18 1.652088 1_555
O31 Si19 1.623410 1_555
O31 Sc2 2.059129 1_555
O32 Si20 1.651959 1_555
O33 Si21 1.622662 1_555
O33 Sc2 2.065230 1_555
O34 Si22 1.643906 1_555
O35 Si23 1.625666 1_555
O35 Sc2 2.064962 1_555
O36 Si22 1.629035 1_555
O37 Si23 1.650298 1_555
O38 Si18 1.624308 1_555
O39 Si19 1.648627 1_555
O40 Si20 1.626539 1_555
O41 Si21 1.644889 1_555
O42 Si14 1.662752 1_555
O43 Si15 1.642329 1_555
O44 Si16 1.654453 1_555
O45 Si17 1.638090 1_555
O46 Si12 1.654390 1_555
O47 Si13 1.645739 1_555
O48 Si24 1.638521 1_555
O49 Si25 1.637855 1_555
O50 Si26 1.631820 1_555
O51 Si27 1.644383 1_555
O52 Si28 1.636513 1_555
O53 Si29 1.639825 1_555
O54 Si30 1.634367 1_555
O55 Si31 1.645235 1_555
O56 Si32 1.640963 1_555
O57 Si33 1.650429 1_555
O58 Si34 1.650442 1_555
O59 Si35 1.640976 1_555
O60 Si34 1.647895 1_555
O61 Si35 1.650278 1_555
O62 Si30 1.649694 1_555
O63 Si31 1.652590 1_555
O64 Si32 1.646402 1_555
O65 Si33 1.651384 1_555
O66 Si26 1.668619 1_555
O67 Si27 1.663214 1_555
O68 Si28 1.666519 1_555
O69 Si29 1.665690 1_555
O70 Si24 1.667492 1_555
O71 Si25 1.665893 1_555
O72 Si34 1.629648 1_555
O73 Si35 1.622654 1_555
O74 Si30 1.638388 1_555
O75 Si31 1.635807 1_555
O76 Si32 1.629492 1_555
O77 Si33 1.645841 1_555
O78 Si26 1.638442 1_555
O79 Si27 1.628520 1_555
O80 Si28 1.634269 1_555
O81 Si29 1.631335 1_555
O82 Si24 1.632766 1_555
O83 Si25 1.632535 1_555
O84 Si12 1.671149 1_555
O85 Si13 1.670422 1_555
O86 Si14 1.647041 1_555
O87 Si15 1.653451 1_555
O88 Si16 1.648479 1_555
O89 Si17 1.653961 1_555
O90 Si18 1.645395 1_555
O91 Si19 1.658603 1_555
O92 Si20 1.645797 1_555
O93 Si21 1.658065 1_555
O94 Si22 1.666577 1_555
O95 Si23 1.643567 1_555
O96 Si10 1.616867 1_545
O96 Sc0 2.172270 1_555
O97 Si11 1.616405 1_545
O97 Sc1 2.182537 1_555
O98 Si6 1.616429 1_555
O98 Sc0 2.174245 1_555
O99 Si7 1.617059 1_555
O99 Sc1 2.177177 1_555
O100 Si9 1.613701 1_555
O100 Sc0 2.156205 1_555
O101 Si8 1.614630 1_655
O101 Sc1 2.163919 1_555
O102 Si2 1.636456 1_555
O103 Si3 1.616623 1_555
O103 Sc2 2.170647 1_555
O104 Si5 1.634021 1_555
O105 Si4 1.615144 1_655
O105 Sc2 2.176886 1_555
O106 Si0 1.629897 1_555
O107 Si1 1.623166 1_545
O107 Sc2 2.174283 1_555
O108 Si24 1.622281 1_555
O109 Si25 1.630208 1_555
O110 Si27 1.617774 1_555
O111 Si26 1.634737 1_655
O112 Si28 1.623565 1_545
O113 Si29 1.629664 1_545
O114 Si30 1.640506 1_545
O115 Si31 1.632106 1_545
O116 Si32 1.646834 1_555
O117 Si33 1.622238 1_555
O118 Si35 1.635660 1_555
O119 Si34 1.630190 1_655
O120 Si22 1.645481 1_555
O121 Si23 1.649647 1_555
O122 Si19 1.636971 1_455
O123 Si18 1.654207 1_555
O124 Si20 1.639765 1_565
O125 Si21 1.649623 1_565
O126 Si14 1.639467 1_565
O127 Si15 1.648335 1_565
O128 Si16 1.652467 1_555
O129 Si17 1.661804 1_555
O130 Si13 1.651101 1_455
O131 Si12 1.649452 1_555
O132 Si0 1.640139 1_565
O133 Si1 1.651996 1_555
O134 Si2 1.651140 1_555
O135 Si3 1.654258 1_555
O136 Si4 1.651311 1_555
O137 Si5 1.655072 1_555
O138 Si6 1.656064 1_555
O139 Si7 1.655952 1_555
O140 Si8 1.650287 1_555
O141 Si9 1.651543 1_555
O142 Si10 1.654527 1_555
O143 Si11 1.656458 1_555
