# generated using pymatgen
data_MgMn4(OF4)2
_symmetry_space_group_name_H-M   'P 1'
_cell_length_a   3.10622640
_cell_length_b   5.23214781
_cell_length_c   12.64766238
_cell_angle_alpha   87.43427452
_cell_angle_beta   89.96545764
_cell_angle_gamma   107.21900341
_symmetry_Int_Tables_number   1
_chemical_formula_structural   MgMn4(OF4)2
_chemical_formula_sum   'Mg1 Mn4 O2 F8'
_cell_volume   196.12246026
_cell_formula_units_Z   1
loop_
 _symmetry_equiv_pos_site_id
 _symmetry_equiv_pos_as_xyz
  1  'x, y, z'
loop_
 _atom_site_type_symbol
 _atom_site_label
 _atom_site_symmetry_multiplicity
 _atom_site_fract_x
 _atom_site_fract_y
 _atom_site_fract_z
 _atom_site_occupancy
  Mg  Mg0  1  0.80533600  0.61234900  0.11556500  1
  Mn  Mn0  1  0.06547500  0.13019400  0.25374100  1
  Mn  Mn1  1  0.23648500  0.47350300  0.89174600  1
  Mn  Mn2  1  0.76858400  0.53738200  0.40137800  1
  Mn  Mn3  1  0.92299800  0.84702100  0.68199900  1
  O  O0  1  0.33564500  0.67218900  0.75231700  1
  O  O1  1  0.70450900  0.40905300  0.26028200  1
  F  F0  1  0.18659900  0.37395200  0.07923800  1
  F  F1  1  0.13885200  0.27899000  0.42737500  1
  F  F2  1  0.43621200  0.87575200  0.15485500  1
  F  F3  1  0.41121300  0.81973300  0.35903600  1
  F  F4  1  0.61191400  0.22376600  0.86574100  1
  F  F5  1  0.53284000  0.06681800  0.62868100  1
  F  F6  1  0.82317200  0.64648700  0.54152900  1
  F  F7  1  0.85349800  0.70781000  0.96338400  1
loop_
_geom_bond_atom_site_label_1
_geom_bond_atom_site_label_2
_geom_bond_distance
_geom_bond_site_symmetry_2
Mg0 O1 2.051190 1_555
Mn0 O1 2.090944 1_455
Mn0 O1 2.090961 1_555
Mn1 O0 1.982662 1_555
Mn2 O1 1.924471 1_555
Mn3 O0 1.973166 1_655
Mn3 O0 1.973188 1_555
F0 Mg0 2.023321 1_555
F0 Mg0 2.023535 1_455
F0 Mn1 2.399944 1_554
F0 Mn0 2.470249 1_555
F1 Mn2 2.034681 1_455
F1 Mn2 2.038600 1_555
F1 Mn0 2.351460 1_555
F2 Mg0 2.109504 1_455
F2 Mg0 2.111183 1_555
F2 Mn0 2.391163 1_565
F2 Mn0 2.401769 1_665
F3 Mn2 2.145292 1_555
F3 Mn2 2.153092 1_455
F3 Mn0 2.528022 1_665
F3 Mn0 2.531075 1_565
F4 Mn1 2.028708 1_555
F4 Mn1 2.029229 1_655
F5 Mn3 2.000680 1_545
F5 Mn3 2.001233 1_445
F6 Mn2 1.878916 1_555
F6 Mn3 2.080463 1_555
F7 Mg0 1.961069 1_556
F7 Mn1 2.168108 1_655
F7 Mn1 2.169697 1_555
