# generated using pymatgen
data_Sr3Mg(FeO3)2
_symmetry_space_group_name_H-M   'P 1'
_cell_length_a   3.95699888
_cell_length_b   3.95699942
_cell_length_c   11.67553490
_cell_angle_alpha   99.75623720
_cell_angle_beta   99.75623876
_cell_angle_gamma   89.99999485
_symmetry_Int_Tables_number   1
_chemical_formula_structural   Sr3Mg(FeO3)2
_chemical_formula_sum   'Sr3 Mg1 Fe2 O6'
_cell_volume   177.48645977
_cell_formula_units_Z   1
loop_
 _symmetry_equiv_pos_site_id
 _symmetry_equiv_pos_as_xyz
  1  'x, y, z'
loop_
 _atom_site_type_symbol
 _atom_site_label
 _atom_site_symmetry_multiplicity
 _atom_site_fract_x
 _atom_site_fract_y
 _atom_site_fract_z
 _atom_site_occupancy
  Sr  Sr0  1  0.65343200  0.65343300  0.30686600  1
  Sr  Sr1  1  0.34656600  0.34656700  0.69313500  1
  Sr  Sr2  1  0.49999900  0.50000000  0.00000000  1
  Mg  Mg0  1  0.75000000  0.25000000  0.50000000  1
  Fe  Fe0  1  0.92091300  0.92091100  0.84182300  1
  Fe  Fe1  1  0.07908800  0.07908700  0.15817700  1
  O  O0  1  0.78677600  0.78677600  0.57355200  1
  O  O1  1  0.21322500  0.21322400  0.42644700  1
  O  O2  1  0.91417300  0.41417300  0.82834600  1
  O  O3  1  0.42713600  0.92713800  0.85427200  1
  O  O4  1  0.07286400  0.57286300  0.14572700  1
  O  O5  1  0.58582700  0.08582700  0.17165300  1
loop_
_geom_bond_atom_site_label_1
_geom_bond_atom_site_label_2
_geom_bond_distance
_geom_bond_site_symmetry_2
Mg0 O1 2.146991 1_555
Mg0 O0 2.146992 1_545
Mg0 O0 2.146992 1_555
Mg0 O1 2.147002 1_655
Fe0 O3 1.983519 1_655
Fe0 O3 1.983531 1_555
Fe0 O2 1.984387 1_555
Fe0 O2 1.984391 1_565
Fe1 O4 1.983523 1_545
Fe1 O4 1.983530 1_555
Fe1 O5 1.984384 1_455
Fe1 O5 1.984392 1_555
O2 Sr1 2.502694 1_655
O2 Sr1 2.502704 1_555
O2 Sr2 2.774958 1_656
O2 Sr2 2.774963 1_556
O3 Sr2 2.577423 1_566
O3 Sr2 2.577435 1_556
O3 Sr1 2.692705 1_565
O3 Sr1 2.692720 1_555
O4 Sr2 2.577417 1_555
O4 Sr2 2.577426 1_455
O4 Sr0 2.692723 1_555
O4 Sr0 2.692732 1_455
O5 Sr0 2.502711 1_555
O5 Sr0 2.502714 1_545
O5 Sr2 2.774951 1_555
O5 Sr2 2.774954 1_545
