# generated using pymatgen
data_U2InCo2
_symmetry_space_group_name_H-M   'P 1'
_cell_length_a   14.86485000
_cell_length_b   14.86485000
_cell_length_c   6.57566800
_cell_angle_alpha   90.00000000
_cell_angle_beta   90.00000000
_cell_angle_gamma   90.00000000
_symmetry_Int_Tables_number   1
_chemical_formula_structural   U2InCo2
_chemical_formula_sum   'U32 In16 Co32'
_cell_volume   1452.98436211
_cell_formula_units_Z   16
loop_
 _symmetry_equiv_pos_site_id
 _symmetry_equiv_pos_as_xyz
  1  'x, y, z'
loop_
 _atom_site_type_symbol
 _atom_site_label
 _atom_site_symmetry_multiplicity
 _atom_site_fract_x
 _atom_site_fract_y
 _atom_site_fract_z
 _atom_site_occupancy
  U  U0_0  1  0.16704800  0.41704800  0.25000000  1
  U  U0_1  1  0.16704800  0.41704800  0.75000000  1
  U  U0_2  1  0.16704800  0.91704800  0.25000000  1
  U  U0_3  1  0.16704800  0.91704800  0.75000000  1
  U  U0_4  1  0.66704800  0.41704800  0.25000000  1
  U  U0_5  1  0.66704800  0.41704800  0.75000000  1
  U  U0_6  1  0.66704800  0.91704800  0.25000000  1
  U  U0_7  1  0.66704800  0.91704800  0.75000000  1
  U  U1_0  1  0.41704800  0.33295200  0.25000000  1
  U  U1_1  1  0.41704800  0.33295200  0.75000000  1
  U  U1_2  1  0.41704800  0.83295200  0.25000000  1
  U  U1_3  1  0.41704800  0.83295200  0.75000000  1
  U  U1_4  1  0.91704800  0.33295200  0.25000000  1
  U  U1_5  1  0.91704800  0.33295200  0.75000000  1
  U  U1_6  1  0.91704800  0.83295200  0.25000000  1
  U  U1_7  1  0.91704800  0.83295200  0.75000000  1
  U  U2_0  1  0.08295200  0.16704800  0.25000000  1
  U  U2_1  1  0.08295200  0.16704800  0.75000000  1
  U  U2_2  1  0.08295200  0.66704800  0.25000000  1
  U  U2_3  1  0.08295200  0.66704800  0.75000000  1
  U  U2_4  1  0.58295200  0.16704800  0.25000000  1
  U  U2_5  1  0.58295200  0.16704800  0.75000000  1
  U  U2_6  1  0.58295200  0.66704800  0.25000000  1
  U  U2_7  1  0.58295200  0.66704800  0.75000000  1
  U  U3_0  1  0.33295200  0.08295200  0.25000000  1
  U  U3_1  1  0.33295200  0.08295200  0.75000000  1
  U  U3_2  1  0.33295200  0.58295200  0.25000000  1
  U  U3_3  1  0.33295200  0.58295200  0.75000000  1
  U  U3_4  1  0.83295200  0.08295200  0.25000000  1
  U  U3_5  1  0.83295200  0.08295200  0.75000000  1
  U  U3_6  1  0.83295200  0.58295200  0.25000000  1
  U  U3_7  1  0.83295200  0.58295200  0.75000000  1
  In  In0_0  1  0.00000000  0.00000000  0.00000000  1
  In  In0_1  1  0.00000000  0.00000000  0.50000000  1
  In  In0_2  1  0.00000000  0.50000000  0.00000000  1
  In  In0_3  1  0.00000000  0.50000000  0.50000000  1
  In  In0_4  1  0.50000000  0.00000000  0.00000000  1
  In  In0_5  1  0.50000000  0.00000000  0.50000000  1
  In  In0_6  1  0.50000000  0.50000000  0.00000000  1
  In  In0_7  1  0.50000000  0.50000000  0.50000000  1
  In  In1_0  1  0.25000000  0.25000000  0.00000000  1
  In  In1_1  1  0.25000000  0.25000000  0.50000000  1
  In  In1_2  1  0.25000000  0.75000000  0.00000000  1
  In  In1_3  1  0.25000000  0.75000000  0.50000000  1
  In  In1_4  1  0.75000000  0.25000000  0.00000000  1
  In  In1_5  1  0.75000000  0.25000000  0.50000000  1
  In  In1_6  1  0.75000000  0.75000000  0.00000000  1
  In  In1_7  1  0.75000000  0.75000000  0.50000000  1
  Co  Co0_0  1  0.18379200  0.06620800  0.00000000  1
  Co  Co0_1  1  0.18379200  0.06620800  0.50000000  1
  Co  Co0_2  1  0.18379200  0.56620800  0.00000000  1
  Co  Co0_3  1  0.18379200  0.56620800  0.50000000  1
  Co  Co0_4  1  0.68379200  0.06620800  0.00000000  1
  Co  Co0_5  1  0.68379200  0.06620800  0.50000000  1
  Co  Co0_6  1  0.68379200  0.56620800  0.00000000  1
  Co  Co0_7  1  0.68379200  0.56620800  0.50000000  1
  Co  Co1_0  1  0.43379200  0.18379200  0.00000000  1
  Co  Co1_1  1  0.43379200  0.18379200  0.50000000  1
  Co  Co1_2  1  0.43379200  0.68379200  0.00000000  1
  Co  Co1_3  1  0.43379200  0.68379200  0.50000000  1
  Co  Co1_4  1  0.93379200  0.18379200  0.00000000  1
  Co  Co1_5  1  0.93379200  0.18379200  0.50000000  1
  Co  Co1_6  1  0.93379200  0.68379200  0.00000000  1
  Co  Co1_7  1  0.93379200  0.68379200  0.50000000  1
  Co  Co2_0  1  0.06620800  0.31620800  0.00000000  1
  Co  Co2_1  1  0.06620800  0.31620800  0.50000000  1
  Co  Co2_2  1  0.06620800  0.81620800  0.00000000  1
  Co  Co2_3  1  0.06620800  0.81620800  0.50000000  1
  Co  Co2_4  1  0.56620800  0.31620800  0.00000000  1
  Co  Co2_5  1  0.56620800  0.31620800  0.50000000  1
  Co  Co2_6  1  0.56620800  0.81620800  0.00000000  1
  Co  Co2_7  1  0.56620800  0.81620800  0.50000000  1
  Co  Co3_0  1  0.31620800  0.43379200  0.00000000  1
  Co  Co3_1  1  0.31620800  0.43379200  0.50000000  1
  Co  Co3_2  1  0.31620800  0.93379200  0.00000000  1
  Co  Co3_3  1  0.31620800  0.93379200  0.50000000  1
  Co  Co3_4  1  0.81620800  0.43379200  0.00000000  1
  Co  Co3_5  1  0.81620800  0.43379200  0.50000000  1
  Co  Co3_6  1  0.81620800  0.93379200  0.00000000  1
  Co  Co3_7  1  0.81620800  0.93379200  0.50000000  1
loop_
_geom_bond_atom_site_label_1
_geom_bond_atom_site_label_2
_geom_bond_distance
_geom_bond_site_symmetry_2
In0_0 U3_5 3.223185 1_454
In0_0 U1_7 3.223185 1_444
In0_0 U3_4 3.223185 1_455
In0_0 U1_6 3.223185 1_445
In0_0 U0_3 3.223185 1_544
In0_0 U0_2 3.223185 1_545
In0_0 U2_1 3.223185 1_554
In0_0 U2_0 3.223185 1_555
In0_0 In0_1 3.287834 1_555
In0_0 In0_1 3.287834 1_554
In0_1 U1_7 3.223185 1_445
In0_1 U3_4 3.223185 1_455
In0_1 U1_6 3.223185 1_445
In0_1 U3_5 3.223185 1_455
In0_1 U0_2 3.223185 1_545
In0_1 U0_3 3.223185 1_545
In0_1 U2_0 3.223185 1_555
In0_1 U2_1 3.223185 1_555
In0_2 U1_4 3.223185 1_455
In0_2 U3_7 3.223185 1_454
In0_2 U1_5 3.223185 1_454
In0_2 U3_6 3.223185 1_455
In0_2 U2_2 3.223185 1_555
In0_2 U2_3 3.223185 1_554
In0_2 U0_1 3.223185 1_554
In0_2 U0_0 3.223185 1_555
In0_2 In0_3 3.287834 1_555
In0_2 In0_3 3.287834 1_554
In0_3 U1_4 3.223185 1_455
In0_3 U3_6 3.223185 1_455
In0_3 U1_5 3.223185 1_455
In0_3 U3_7 3.223185 1_455
In0_3 U2_2 3.223185 1_555
In0_3 U2_3 3.223185 1_555
In0_3 U0_0 3.223185 1_555
In0_3 U0_1 3.223185 1_555
In0_4 U1_3 3.223185 1_544
In0_4 U1_2 3.223185 1_545
In0_4 U3_0 3.223185 1_555
In0_4 U3_1 3.223185 1_554
In0_4 U0_7 3.223185 1_544
In0_4 U0_6 3.223185 1_545
In0_4 U2_5 3.223185 1_554
In0_4 U2_4 3.223185 1_555
In0_4 In0_5 3.287834 1_555
In0_4 In0_5 3.287834 1_554
In0_5 U1_2 3.223185 1_545
In0_5 U1_3 3.223185 1_545
In0_5 U3_0 3.223185 1_555
In0_5 U0_6 3.223185 1_545
In0_5 U3_1 3.223185 1_555
In0_5 U0_7 3.223185 1_545
In0_5 U2_5 3.223185 1_555
In0_5 U2_4 3.223185 1_555
In0_6 U1_1 3.223185 1_554
In0_6 U3_2 3.223185 1_555
In0_6 U1_0 3.223185 1_555
In0_6 U3_3 3.223185 1_554
In0_6 U2_6 3.223185 1_555
In0_6 U0_5 3.223185 1_554
In0_6 U0_4 3.223185 1_555
In0_6 U2_7 3.223185 1_554
In0_6 In0_7 3.287834 1_555
In0_6 In0_7 3.287834 1_554
In0_7 U3_2 3.223185 1_555
In0_7 U1_0 3.223185 1_555
In0_7 U3_3 3.223185 1_555
In0_7 U1_1 3.223185 1_555
In0_7 U2_6 3.223185 1_555
In0_7 U0_4 3.223185 1_555
In0_7 U0_5 3.223185 1_555
In0_7 U2_7 3.223185 1_555
In1_0 U0_1 3.223185 1_554
In1_0 U0_0 3.223185 1_555
In1_0 U3_1 3.223185 1_554
In1_0 U3_0 3.223185 1_555
In1_0 U1_1 3.223185 1_554
In1_0 U2_1 3.223185 1_554
In1_0 U2_0 3.223185 1_555
In1_0 U1_0 3.223185 1_555
In1_0 In1_1 3.287834 1_555
In1_0 In1_1 3.287834 1_554
In1_1 U0_1 3.223185 1_555
In1_1 U0_0 3.223185 1_555
In1_1 U3_0 3.223185 1_555
In1_1 U1_1 3.223185 1_555
In1_1 U2_0 3.223185 1_555
In1_1 U2_1 3.223185 1_555
In1_1 U1_0 3.223185 1_555
In1_1 U3_1 3.223185 1_555
In1_2 U3_3 3.223185 1_554
In1_2 U2_2 3.223185 1_555
In1_2 U1_2 3.223185 1_555
In1_2 U1_3 3.223185 1_554
In1_2 U2_3 3.223185 1_554
In1_2 U3_2 3.223185 1_555
In1_2 U0_2 3.223185 1_555
In1_2 U0_3 3.223185 1_554
In1_2 In1_3 3.287834 1_555
In1_2 In1_3 3.287834 1_554
In1_3 U3_3 3.223185 1_555
In1_3 U2_2 3.223185 1_555
In1_3 U1_2 3.223185 1_555
In1_3 U2_3 3.223185 1_555
In1_3 U3_2 3.223185 1_555
In1_3 U1_3 3.223185 1_555
In1_3 U0_3 3.223185 1_555
In1_3 U0_2 3.223185 1_555
In1_4 U0_5 3.223185 1_554
In1_4 U2_4 3.223185 1_555
In1_4 U0_4 3.223185 1_555
In1_4 U2_5 3.223185 1_554
In1_4 U3_5 3.223185 1_554
In1_4 U3_4 3.223185 1_555
In1_4 U1_4 3.223185 1_555
In1_4 U1_5 3.223185 1_554
In1_4 In1_5 3.287834 1_555
In1_4 In1_5 3.287834 1_554
In1_5 U0_4 3.223185 1_555
In1_5 U2_4 3.223185 1_555
In1_5 U2_5 3.223185 1_555
In1_5 U0_5 3.223185 1_555
In1_5 U3_4 3.223185 1_555
In1_5 U3_5 3.223185 1_555
In1_5 U1_4 3.223185 1_555
In1_5 U1_5 3.223185 1_555
In1_6 U2_6 3.223185 1_555
In1_6 U2_7 3.223185 1_554
In1_6 U3_6 3.223185 1_555
In1_6 U3_7 3.223185 1_554
In1_6 U0_6 3.223185 1_555
In1_6 U0_7 3.223185 1_554
In1_6 U1_7 3.223185 1_554
In1_6 U1_6 3.223185 1_555
In1_6 In1_7 3.287834 1_555
In1_6 In1_7 3.287834 1_554
In1_7 U2_6 3.223185 1_555
In1_7 U3_6 3.223185 1_555
In1_7 U2_7 3.223185 1_555
In1_7 U3_7 3.223185 1_555
In1_7 U0_6 3.223185 1_555
In1_7 U0_7 3.223185 1_555
In1_7 U1_6 3.223185 1_555
In1_7 U1_7 3.223185 1_555
Co0_0 U2_0 2.682591 1_555
Co0_0 U2_1 2.682591 1_554
Co0_0 U0_3 2.771384 1_544
Co0_0 U0_2 2.771384 1_545
Co0_0 U3_1 2.771384 1_554
Co0_0 U3_0 2.771384 1_555
Co0_0 In0_0 2.903901 1_555
Co0_0 In1_0 2.903901 1_555
Co0_1 U2_0 2.682591 1_555
Co0_1 U2_1 2.682591 1_555
Co0_1 U0_2 2.771384 1_545
Co0_1 U0_3 2.771384 1_545
Co0_1 U3_0 2.771384 1_555
Co0_1 U3_1 2.771384 1_555
Co0_1 In1_1 2.903901 1_555
Co0_1 In0_1 2.903901 1_555
Co0_2 U2_3 2.682591 1_554
Co0_2 U2_2 2.682591 1_555
Co0_2 U3_2 2.771384 1_555
Co0_2 U3_3 2.771384 1_554
Co0_2 U0_0 2.771384 1_555
Co0_2 U0_1 2.771384 1_554
Co0_2 In1_2 2.903901 1_555
Co0_2 In0_2 2.903901 1_555
Co0_3 U2_2 2.682591 1_555
Co0_3 U2_3 2.682591 1_555
Co0_3 U3_2 2.771384 1_555
Co0_3 U0_0 2.771384 1_555
Co0_3 U3_3 2.771384 1_555
Co0_3 U0_1 2.771384 1_555
Co0_3 In1_3 2.903901 1_555
Co0_3 In0_3 2.903901 1_555
Co0_4 U2_4 2.682591 1_555
Co0_4 U2_5 2.682591 1_554
Co0_4 U0_6 2.771384 1_545
Co0_4 U0_7 2.771384 1_544
Co0_4 U3_5 2.771384 1_554
Co0_4 U3_4 2.771384 1_555
Co0_4 In0_4 2.903901 1_555
Co0_4 In1_4 2.903901 1_555
Co0_5 U2_4 2.682591 1_555
Co0_5 U2_5 2.682591 1_555
Co0_5 U0_6 2.771384 1_545
Co0_5 U0_7 2.771384 1_545
Co0_5 U3_4 2.771384 1_555
Co0_5 U3_5 2.771384 1_555
Co0_5 In0_5 2.903901 1_555
Co0_5 In1_5 2.903901 1_555
Co0_6 U2_6 2.682591 1_555
Co0_6 U2_7 2.682591 1_554
Co0_6 U0_4 2.771384 1_555
Co0_6 U0_5 2.771384 1_554
Co0_6 U3_6 2.771384 1_555
Co0_6 U3_7 2.771384 1_554
Co0_6 In1_6 2.903901 1_555
Co0_6 In0_6 2.903901 1_555
Co0_7 U2_6 2.682591 1_555
Co0_7 U2_7 2.682591 1_555
Co0_7 U0_4 2.771384 1_555
Co0_7 U0_5 2.771384 1_555
Co0_7 U3_6 2.771384 1_555
Co0_7 U3_7 2.771384 1_555
Co0_7 In0_7 2.903901 1_555
Co0_7 In1_7 2.903901 1_555
Co1_0 U3_1 2.682591 1_554
Co1_0 U3_0 2.682591 1_555
Co1_0 U2_4 2.771384 1_555
Co1_0 U2_5 2.771384 1_554
Co1_0 U1_0 2.771384 1_555
Co1_0 U1_1 2.771384 1_554
Co1_0 In1_0 2.903901 1_555
Co1_0 In0_4 2.903901 1_555
Co1_1 U3_0 2.682591 1_555
Co1_1 U3_1 2.682591 1_555
Co1_1 U2_4 2.771384 1_555
Co1_1 U2_5 2.771384 1_555
Co1_1 U1_0 2.771384 1_555
Co1_1 U1_1 2.771384 1_555
Co1_1 In1_1 2.903901 1_555
Co1_1 In0_5 2.903901 1_555
Co1_2 U3_2 2.682591 1_555
Co1_2 U3_3 2.682591 1_554
Co1_2 U2_7 2.771384 1_554
Co1_2 U2_6 2.771384 1_555
Co1_2 U1_3 2.771384 1_554
Co1_2 U1_2 2.771384 1_555
Co1_2 In0_6 2.903901 1_555
Co1_2 In1_2 2.903901 1_555
Co1_3 U3_2 2.682591 1_555
Co1_3 U3_3 2.682591 1_555
Co1_3 U2_6 2.771384 1_555
Co1_3 U2_7 2.771384 1_555
Co1_3 U1_2 2.771384 1_555
Co1_3 U1_3 2.771384 1_555
Co1_3 In0_7 2.903901 1_555
Co1_3 In1_3 2.903901 1_555
Co1_4 U3_4 2.682591 1_555
Co1_4 U3_5 2.682591 1_554
Co1_4 U2_1 2.771384 1_654
Co1_4 U2_0 2.771384 1_655
Co1_4 U1_4 2.771384 1_555
Co1_4 U1_5 2.771384 1_554
Co1_4 In0_0 2.903901 1_655
Co1_4 In1_4 2.903901 1_555
Co1_5 U3_4 2.682591 1_555
Co1_5 U3_5 2.682591 1_555
Co1_5 U2_0 2.771384 1_655
Co1_5 U2_1 2.771384 1_655
Co1_5 U1_4 2.771384 1_555
Co1_5 U1_5 2.771384 1_555
Co1_5 In0_1 2.903901 1_655
Co1_5 In1_5 2.903901 1_555
Co1_6 U3_6 2.682591 1_555
Co1_6 U3_7 2.682591 1_554
Co1_6 U2_2 2.771384 1_655
Co1_6 U2_3 2.771384 1_654
Co1_6 U1_6 2.771384 1_555
Co1_6 U1_7 2.771384 1_554
Co1_6 In0_2 2.903901 1_655
Co1_6 In1_6 2.903901 1_555
Co1_7 U3_6 2.682591 1_555
Co1_7 U3_7 2.682591 1_555
Co1_7 U2_2 2.771384 1_655
Co1_7 U2_3 2.771384 1_655
Co1_7 U1_6 2.771384 1_555
Co1_7 U1_7 2.771384 1_555
Co1_7 In0_3 2.903901 1_655
Co1_7 In1_7 2.903901 1_555
Co2_0 U0_0 2.682591 1_555
Co2_0 U0_1 2.682591 1_554
Co2_0 U1_5 2.771384 1_454
Co2_0 U1_4 2.771384 1_455
Co2_0 U2_0 2.771384 1_555
Co2_0 U2_1 2.771384 1_554
Co2_0 In1_0 2.903901 1_555
Co2_0 In0_2 2.903901 1_555
Co2_1 U0_0 2.682591 1_555
Co2_1 U0_1 2.682591 1_555
Co2_1 U1_4 2.771384 1_455
Co2_1 U1_5 2.771384 1_455
Co2_1 U2_0 2.771384 1_555
Co2_1 U2_1 2.771384 1_555
Co2_1 In1_1 2.903901 1_555
Co2_1 In0_3 2.903901 1_555
Co2_2 U0_2 2.682591 1_555
Co2_2 U0_3 2.682591 1_554
Co2_2 U1_6 2.771384 1_455
Co2_2 U1_7 2.771384 1_454
Co2_2 U2_2 2.771384 1_555
Co2_2 U2_3 2.771384 1_554
Co2_2 In1_2 2.903901 1_555
Co2_2 In0_0 2.903901 1_565
Co2_3 U0_2 2.682591 1_555
Co2_3 U0_3 2.682591 1_555
Co2_3 U1_6 2.771384 1_455
Co2_3 U1_7 2.771384 1_455
Co2_3 U2_2 2.771384 1_555
Co2_3 U2_3 2.771384 1_555
Co2_3 In1_3 2.903901 1_555
Co2_3 In0_1 2.903901 1_565
Co2_4 U0_5 2.682591 1_554
Co2_4 U0_4 2.682591 1_555
Co2_4 U2_5 2.771384 1_554
Co2_4 U2_4 2.771384 1_555
Co2_4 U1_0 2.771384 1_555
Co2_4 U1_1 2.771384 1_554
Co2_4 In1_4 2.903901 1_555
Co2_4 In0_6 2.903901 1_555
Co2_5 U0_4 2.682591 1_555
Co2_5 U0_5 2.682591 1_555
Co2_5 U2_4 2.771384 1_555
Co2_5 U2_5 2.771384 1_555
Co2_5 U1_0 2.771384 1_555
Co2_5 U1_1 2.771384 1_555
Co2_5 In1_5 2.903901 1_555
Co2_5 In0_7 2.903901 1_555
Co2_6 U0_6 2.682591 1_555
Co2_6 U0_7 2.682591 1_554
Co2_6 U2_6 2.771384 1_555
Co2_6 U2_7 2.771384 1_554
Co2_6 U1_3 2.771384 1_554
Co2_6 U1_2 2.771384 1_555
Co2_6 In1_6 2.903901 1_555
Co2_6 In0_4 2.903901 1_565
Co2_7 U0_6 2.682591 1_555
Co2_7 U0_7 2.682591 1_555
Co2_7 U2_6 2.771384 1_555
Co2_7 U2_7 2.771384 1_555
Co2_7 U1_2 2.771384 1_555
Co2_7 U1_3 2.771384 1_555
Co2_7 In1_7 2.903901 1_555
Co2_7 In0_5 2.903901 1_565
Co3_0 U1_0 2.682591 1_555
Co3_0 U1_1 2.682591 1_554
Co3_0 U0_0 2.771384 1_555
Co3_0 U0_1 2.771384 1_554
Co3_0 U3_2 2.771384 1_555
Co3_0 U3_3 2.771384 1_554
Co3_0 In0_6 2.903901 1_555
Co3_0 In1_0 2.903901 1_555
Co3_1 U1_0 2.682591 1_555
Co3_1 U1_1 2.682591 1_555
Co3_1 U0_0 2.771384 1_555
Co3_1 U0_1 2.771384 1_555
Co3_1 U3_2 2.771384 1_555
Co3_1 U3_3 2.771384 1_555
Co3_1 In0_7 2.903901 1_555
Co3_1 In1_1 2.903901 1_555
Co3_2 U1_2 2.682591 1_555
Co3_2 U1_3 2.682591 1_554
Co3_2 U3_0 2.771384 1_565
Co3_2 U3_1 2.771384 1_564
Co3_2 U0_2 2.771384 1_555
Co3_2 U0_3 2.771384 1_554
Co3_2 In0_4 2.903901 1_565
Co3_2 In1_2 2.903901 1_555
Co3_3 U1_2 2.682591 1_555
Co3_3 U1_3 2.682591 1_555
Co3_3 U3_0 2.771384 1_565
Co3_3 U3_1 2.771384 1_565
Co3_3 U0_2 2.771384 1_555
Co3_3 U0_3 2.771384 1_555
Co3_3 In0_5 2.903901 1_565
Co3_3 In1_3 2.903901 1_555
Co3_4 U1_5 2.682591 1_554
Co3_4 U1_4 2.682591 1_555
Co3_4 U0_4 2.771384 1_555
Co3_4 U0_5 2.771384 1_554
Co3_4 U3_6 2.771384 1_555
Co3_4 U3_7 2.771384 1_554
Co3_4 In1_4 2.903901 1_555
Co3_4 In0_2 2.903901 1_655
Co3_5 U1_4 2.682591 1_555
Co3_5 U1_5 2.682591 1_555
Co3_5 U0_4 2.771384 1_555
Co3_5 U0_5 2.771384 1_555
Co3_5 U3_6 2.771384 1_555
Co3_5 U3_7 2.771384 1_555
Co3_5 In1_5 2.903901 1_555
Co3_5 In0_3 2.903901 1_655
Co3_6 U1_7 2.682591 1_554
Co3_6 U1_6 2.682591 1_555
Co3_6 U3_4 2.771384 1_565
Co3_6 U3_5 2.771384 1_564
Co3_6 U0_6 2.771384 1_555
Co3_6 U0_7 2.771384 1_554
Co3_6 In1_6 2.903901 1_555
Co3_6 In0_0 2.903901 1_665
Co3_7 U1_6 2.682591 1_555
Co3_7 U1_7 2.682591 1_555
Co3_7 U3_4 2.771384 1_565
Co3_7 U3_5 2.771384 1_565
Co3_7 U0_6 2.771384 1_555
Co3_7 U0_7 2.771384 1_555
Co3_7 In1_7 2.903901 1_555
Co3_7 In0_1 2.903901 1_665
