# generated using pymatgen
data_Na10TaGa7Si6(SO8)6
_symmetry_space_group_name_H-M   'P 1'
_cell_length_a   17.61035124
_cell_length_b   8.86495071
_cell_length_c   22.08584393
_cell_angle_alpha   89.60462008
_cell_angle_beta   89.06803458
_cell_angle_gamma   119.83844081
_symmetry_Int_Tables_number   1
_chemical_formula_structural   Na10TaGa7Si6(SO8)6
_chemical_formula_sum   'Na30 Ta3 Ga21 Si18 S18 O144'
_cell_volume   2990.00102994
_cell_formula_units_Z   3
loop_
 _symmetry_equiv_pos_site_id
 _symmetry_equiv_pos_as_xyz
  1  'x, y, z'
loop_
 _atom_site_type_symbol
 _atom_site_label
 _atom_site_symmetry_multiplicity
 _atom_site_fract_x
 _atom_site_fract_y
 _atom_site_fract_z
 _atom_site_occupancy
  Na  Na0  1  0.31774045  0.00061828  0.25005245  1
  Na  Na1  1  0.81837181  0.00146934  0.25214307  1
  Na  Na2  1  0.18396548  0.36537771  0.25138575  1
  Na  Na3  1  0.68554500  0.37174894  0.24279590  1
  Na  Na4  1  0.99766382  0.63103722  0.24796071  1
  Na  Na5  1  0.49703244  0.61989579  0.25320878  1
  Na  Na6  1  0.31498117  0.62768784  0.74983760  1
  Na  Na7  1  0.80825157  0.61830774  0.74944872  1
  Na  Na8  1  0.99639037  0.35581808  0.74951024  1
  Na  Na9  1  0.68260680  0.00559260  0.75486353  1
  Na  Na10  1  0.16194579  0.34923335  0.58005099  1
  Na  Na11  1  0.01329854  0.69361732  0.57974573  1
  Na  Na12  1  0.33300447  0.96629516  0.58528529  1
  Na  Na13  1  0.82912781  0.96507205  0.57745344  1
  Na  Na14  1  0.83306654  0.68911955  0.07602160  1
  Na  Na15  1  0.16902199  0.30378559  0.91140812  1
  Na  Na16  1  0.67021447  0.30514437  0.91623488  1
  Na  Na17  1  0.35500403  0.66524468  0.41759264  1
  Na  Na18  1  0.99843557  0.99564167  0.49069542  1
  Na  Na19  1  0.51073630  0.99614530  0.49858671  1
  Na  Na20  1  0.99335447  0.98103179  0.99428605  1
  Na  Na21  1  0.49454113  0.97497761  0.99633619  1
  Na  Na22  1  0.33614181  0.32864979  0.83362556  1
  Na  Na23  1  0.83136645  0.33049077  0.83681463  1
  Na  Na24  1  0.33878594  0.33077399  0.33572715  1
  Na  Na25  1  0.83770066  0.33952875  0.33540285  1
  Na  Na26  1  0.16165512  0.66402517  0.16315058  1
  Na  Na27  1  0.65468193  0.64684547  0.16023949  1
  Na  Na28  1  0.16945243  0.67483830  0.66537847  1
  Na  Na29  1  0.65686985  0.63409683  0.66707280  1
  Ta  Ta0  1  0.99854175  0.00547707  0.64429854  1
  Ta  Ta1  1  0.00052633  0.99446958  0.14847884  1
  Ta  Ta2  1  0.49590666  0.00137491  0.14159894  1
  Ga  Ga0  1  0.99743681  0.00080295  0.34136545  1
  Ga  Ga1  1  0.49608164  0.98140208  0.35147469  1
  Ga  Ga2  1  0.99047126  0.00312477  0.85061195  1
  Ga  Ga3  1  0.49749758  0.98918359  0.85206227  1
  Ga  Ga4  1  0.50215168  0.00189276  0.64891796  1
  Ga  Ga5  1  0.31624736  0.31924730  0.68137193  1
  Ga  Ga6  1  0.82491964  0.33125987  0.68321166  1
  Ga  Ga7  1  0.34408713  0.34512523  0.19149036  1
  Ga  Ga8  1  0.84647829  0.36686477  0.18128116  1
  Ga  Ga9  1  0.34418394  0.37200247  0.98125671  1
  Ga  Ga10  1  0.83546111  0.36917910  0.98468173  1
  Ga  Ga11  1  0.34419456  0.36164117  0.48649770  1
  Ga  Ga12  1  0.83869400  0.34341532  0.48500311  1
  Ga  Ga13  1  0.17084049  0.67714790  0.01586657  1
  Ga  Ga14  1  0.66570522  0.65375513  0.02095217  1
  Ga  Ga15  1  0.16888587  0.66726467  0.52377067  1
  Ga  Ga16  1  0.66355375  0.65881883  0.51434818  1
  Ga  Ga17  1  0.16207360  0.66230199  0.30866854  1
  Ga  Ga18  1  0.65880056  0.64027183  0.31659193  1
  Ga  Ga19  1  0.17136736  0.65789058  0.81939085  1
  Ga  Ga20  1  0.67186626  0.65187373  0.81369494  1
  Si  Si0  1  0.14813064  0.00569287  0.25308632  1
  Si  Si1  1  0.35283162  0.70554300  0.25377253  1
  Si  Si2  1  0.85057132  0.70399566  0.25586152  1
  Si  Si3  1  0.99503411  0.28911407  0.25073617  1
  Si  Si4  1  0.50124611  0.28267853  0.25497111  1
  Si  Si5  1  0.14629800  0.28913861  0.75546125  1
  Si  Si6  1  0.63790725  0.28209590  0.75025865  1
  Si  Si7  1  0.84929758  0.00337233  0.75137640  1
  Si  Si8  1  0.97417719  0.33782216  0.58247041  1
  Si  Si9  1  0.19464304  0.04923822  0.57912037  1
  Si  Si10  1  0.34161772  0.64017451  0.58478186  1
  Si  Si11  1  0.82493226  0.61507159  0.58229742  1
  Si  Si12  1  0.48257013  0.62002363  0.08398727  1
  Si  Si13  1  0.98954975  0.63103642  0.08101001  1
  Si  Si14  1  0.69061205  0.33274919  0.08303384  1
  Si  Si15  1  0.31595815  0.67263368  0.91651189  1
  Si  Si16  1  0.81651495  0.67452266  0.91679681  1
  Si  Si17  1  0.52302920  0.66892953  0.41717870  1
  S  S0  1  0.64476925  0.00051086  0.24930285  1
  S  S1  1  0.00426081  0.71407562  0.75247386  1
  S  S2  1  0.49880667  0.70243486  0.75000138  1
  S  S3  1  0.35296000  0.00516614  0.75053419  1
  S  S4  1  0.47909656  0.33659525  0.58516491  1
  S  S5  1  0.68495929  0.04021951  0.58210032  1
  S  S6  1  0.33020687  0.04756075  0.08190088  1
  S  S7  1  0.83433568  0.05158937  0.08324294  1
  S  S8  1  0.18856285  0.33421537  0.08228598  1
  S  S9  1  0.01860334  0.37643254  0.91773937  1
  S  S10  1  0.51911327  0.37494925  0.91585023  1
  S  S11  1  0.16767924  0.95654759  0.91594665  1
  S  S12  1  0.66741548  0.95265394  0.91552734  1
  S  S13  1  0.31000689  0.95909277  0.41683016  1
  S  S14  1  0.81541269  0.96621921  0.41656991  1
  S  S15  1  0.16270204  0.37276422  0.41654033  1
  S  S16  1  0.66977967  0.36811473  0.41785019  1
  S  S17  1  0.02038926  0.66704434  0.41731707  1
  O  O0  1  0.10790439  0.05893592  0.31012579  1
  O  O1  1  0.60710577  0.03359446  0.30465196  1
  O  O2  1  0.41363700  0.77756834  0.31283725  1
  O  O3  1  0.92016864  0.78681678  0.30941553  1
  O  O4  1  0.48583518  0.15730515  0.31292805  1
  O  O5  1  0.97109889  0.16116338  0.30917163  1
  O  O6  1  0.10024764  0.17278338  0.81586943  1
  O  O7  1  0.59732551  0.15578806  0.81144852  1
  O  O8  1  0.47735646  0.77861638  0.80340380  1
  O  O9  1  0.98970516  0.79906934  0.80436291  1
  O  O10  1  0.40606054  0.02243717  0.80365475  1
  O  O11  1  0.91712018  0.05103146  0.80554575  1
  O  O12  1  0.38844557  0.96603960  0.69423789  1
  O  O13  1  0.89652817  0.96275787  0.69158048  1
  O  O14  1  0.08382426  0.19145875  0.69519039  1
  O  O15  1  0.58039428  0.18670722  0.69151919  1
  O  O16  1  0.01518141  0.81426841  0.69422253  1
  O  O17  1  0.51502823  0.81371245  0.69490100  1
  O  O18  1  0.40086535  0.84178549  0.19612286  1
  O  O19  1  0.89582487  0.83012631  0.19303910  1
  O  O20  1  0.01663885  0.19588794  0.19281538  1
  O  O21  1  0.51850154  0.19384316  0.19446407  1
  O  O22  1  0.08017015  0.96203747  0.19490940  1
  O  O23  1  0.58787418  0.97071673  0.19615609  1
  O  O24  1  0.43744479  0.36123986  0.63998866  1
  O  O25  1  0.93406314  0.37604170  0.64349072  1
  O  O26  1  0.25425904  0.11627709  0.63918875  1
  O  O27  1  0.73850635  0.11465963  0.63758487  1
  O  O28  1  0.31669793  0.51174216  0.64466470  1
  O  O29  1  0.81200449  0.51195669  0.64633758  1
  O  O30  1  0.44174111  0.50640458  0.14663233  1
  O  O31  1  0.95326631  0.53098420  0.14637180  1
  O  O32  1  0.32052343  0.12179001  0.13919972  1
  O  O33  1  0.82515995  0.12940472  0.14024238  1
  O  O34  1  0.23809801  0.34961269  0.13725809  1
  O  O35  1  0.75034489  0.36357524  0.14309062  1
  O  O36  1  0.22691973  0.30313889  0.02620023  1
  O  O37  1  0.72659146  0.29062738  0.02080611  1
  O  O38  1  0.42154235  0.54608481  0.02577798  1
  O  O39  1  0.92081038  0.54818055  0.02688879  1
  O  O40  1  0.34159691  0.15423329  0.02779647  1
  O  O41  1  0.84777882  0.15881632  0.02926158  1
  O  O42  1  0.23855206  0.18686162  0.52315317  1
  O  O43  1  0.72702265  0.15009899  0.52759646  1
  O  O44  1  0.35715469  0.56382531  0.52227400  1
  O  O45  1  0.85350476  0.53797468  0.52562455  1
  O  O46  1  0.42428370  0.30296308  0.53049063  1
  O  O47  1  0.90895916  0.27618138  0.52594818  1
  O  O48  1  0.26627140  0.69802014  0.97476377  1
  O  O49  1  0.76978898  0.69843750  0.97811455  1
  O  O50  1  0.07638320  0.46595708  0.96844833  1
  O  O51  1  0.57269907  0.45345710  0.96974118  1
  O  O52  1  0.15269715  0.84899028  0.97116680  1
  O  O53  1  0.65495714  0.84343915  0.96918707  1
  O  O54  1  0.26662302  0.84389271  0.47171367  1
  O  O55  1  0.77422563  0.86175752  0.47346772  1
  O  O56  1  0.15416856  0.45720395  0.47304973  1
  O  O57  1  0.65802785  0.45583740  0.47120227  1
  O  O58  1  0.07079513  0.68193270  0.47262526  1
  O  O59  1  0.58348904  0.69490067  0.47531474  1
  O  O60  1  0.06363996  0.64808186  0.36143641  1
  O  O61  1  0.56574061  0.64362373  0.35375103  1
  O  O62  1  0.25950822  0.87600675  0.36153942  1
  O  O63  1  0.76362506  0.88064832  0.36233620  1
  O  O64  1  0.17487622  0.48453862  0.36168653  1
  O  O65  1  0.68669535  0.47488384  0.36072762  1
  O  O66  1  0.05611000  0.48060371  0.85915956  1
  O  O67  1  0.55812458  0.48641702  0.86065203  1
  O  O68  1  0.17756008  0.86966871  0.86071679  1
  O  O69  1  0.67276768  0.86956815  0.85793649  1
  O  O70  1  0.25615183  0.62694047  0.85484218  1
  O  O71  1  0.75500380  0.62957952  0.85674219  1
  O  O72  1  0.01218607  0.82484585  0.41399106  1
  O  O73  1  0.50902523  0.84197085  0.41336957  1
  O  O74  1  0.39749400  0.97008550  0.41519170  1
  O  O75  1  0.90401324  0.98240691  0.41335418  1
  O  O76  1  0.08320476  0.20087667  0.41389075  1
  O  O77  1  0.59047752  0.19735042  0.41352995  1
  O  O78  1  0.01690911  0.20655578  0.91423033  1
  O  O79  1  0.51476903  0.20312344  0.90997937  1
  O  O80  1  0.09109801  0.98308603  0.91284862  1
  O  O81  1  0.58948730  0.98107664  0.91435635  1
  O  O82  1  0.41302040  0.84682750  0.90941340  1
  O  O83  1  0.91479085  0.84705076  0.91037819  1
  O  O84  1  0.48661097  0.17602800  0.58946890  1
  O  O85  1  0.98839158  0.16487346  0.59002611  1
  O  O86  1  0.09520240  0.02655555  0.58984120  1
  O  O87  1  0.59715982  0.02242652  0.58790930  1
  O  O88  1  0.42339051  0.83957377  0.59351041  1
  O  O89  1  0.91710245  0.81306538  0.59048201  1
  O  O90  1  0.48858131  0.81351688  0.09397896  1
  O  O91  1  0.99166589  0.82411988  0.08762519  1
  O  O92  1  0.41344837  0.03242655  0.08482034  1
  O  O93  1  0.91540884  0.02833164  0.08676673  1
  O  O94  1  0.09836191  0.17450180  0.08709659  1
  O  O95  1  0.59133426  0.16196693  0.08993791  1
  O  O96  1  0.34813957  0.16575712  0.74471843  1
  O  O97  1  0.84199281  0.17801243  0.74110230  1
  O  O98  1  0.24567871  0.31953986  0.74857921  1
  O  O99  1  0.73832914  0.30709299  0.74583670  1
  O  O100  1  0.42224350  0.52707584  0.74388265  1
  O  O101  1  0.92537759  0.53840072  0.74901292  1
  O  O102  1  0.33987214  0.51240635  0.24513532  1
  O  O103  1  0.83708624  0.51013988  0.24713989  1
  O  O104  1  0.41339522  0.29901452  0.24942574  1
  O  O105  1  0.90671496  0.30335700  0.24216214  1
  O  O106  1  0.24333654  0.17210017  0.23849599  1
  O  O107  1  0.73275238  0.15422317  0.24185174  1
  O  O108  1  0.31798839  0.48639251  0.92075204  1
  O  O109  1  0.82179064  0.49164644  0.91938779  1
  O  O110  1  0.42831515  0.34583739  0.92170579  1
  O  O111  1  0.92929110  0.34818394  0.92381963  1
  O  O112  1  0.24814931  0.13031550  0.91980985  1
  O  O113  1  0.74742301  0.12682316  0.91734258  1
  O  O114  1  0.31818558  0.13081398  0.42253009  1
  O  O115  1  0.82125469  0.14011196  0.42015494  1
  O  O116  1  0.24391405  0.36133068  0.41783182  1
  O  O117  1  0.74941072  0.34936643  0.42336021  1
  O  O118  1  0.42274089  0.49211882  0.42150094  1
  O  O119  1  0.93253955  0.50470038  0.41980533  1
  O  O120  1  0.17851061  0.48932462  0.07709268  1
  O  O121  1  0.68425844  0.51054640  0.07954170  1
  O  O122  1  0.08646114  0.65379995  0.07260362  1
  O  O123  1  0.58149954  0.65397411  0.07452670  1
  O  O124  1  0.25554250  0.86911109  0.07870448  1
  O  O125  1  0.75878061  0.87291664  0.08095552  1
  O  O126  1  0.17516511  0.85007476  0.57279186  1
  O  O127  1  0.67789234  0.86648412  0.57765606  1
  O  O128  1  0.25146253  0.65557465  0.57808798  1
  O  O129  1  0.74443971  0.65642673  0.57253842  1
  O  O130  1  0.07350174  0.50225355  0.57510182  1
  O  O131  1  0.56740033  0.49146174  0.57817450  1
  O  O132  1  0.15353584  0.82843342  0.25773612  1
  O  O133  1  0.65343553  0.84272266  0.25349270  1
  O  O134  1  0.25708857  0.69223648  0.25811165  1
  O  O135  1  0.75693444  0.70055512  0.26204236  1
  O  O136  1  0.08241501  0.48001411  0.25600194  1
  O  O137  1  0.58805087  0.47857222  0.25521030  1
  O  O138  1  0.15162570  0.48355887  0.75562946  1
  O  O139  1  0.64983912  0.47740395  0.75479013  1
  O  O140  1  0.08339673  0.69594851  0.75643637  1
  O  O141  1  0.58039147  0.69655446  0.75790904  1
  O  O142  1  0.26284706  0.84622526  0.75683744  1
  O  O143  1  0.75262945  0.82975812  0.75549508  1
loop_
_geom_bond_atom_site_label_1
_geom_bond_atom_site_label_2
_geom_bond_distance
_geom_bond_site_symmetry_2
Na0 O104 2.323736 1_555
Na0 O134 2.393227 1_545
Na0 O106 2.465880 1_555
Na0 O132 2.511727 1_545
Na0 O32 2.656640 1_555
Na0 O62 2.662293 1_545
Na0 O18 2.749850 1_545
Na0 O4 2.947751 1_555
Na1 O135 2.333800 1_545
Na1 O105 2.338509 1_555
Na1 O107 2.489483 1_555
Na1 O133 2.519318 1_545
Na1 O63 2.619113 1_545
Na1 O5 2.677726 1_555
Na1 O33 2.687988 1_555
Na1 O19 2.811178 1_545
Na2 O102 2.383311 1_555
Na2 O106 2.426862 1_555
Na2 O136 2.458723 1_555
Na2 O134 2.524959 1_555
Na2 O0 2.670379 1_555
Na2 O64 2.695758 1_555
Na2 O34 2.709433 1_555
Na2 O20 2.891167 1_555
Na3 O103 2.321243 1_555
Na3 O137 2.350728 1_555
Na3 O107 2.450588 1_555
Na3 O35 2.481803 1_555
Na3 O135 2.577876 1_555
Na3 O65 2.763428 1_555
Na3 O21 2.790874 1_555
Na3 O1 2.919289 1_555
Na4 O31 2.413821 1_555
Na4 O132 2.426550 1_655
Na4 O136 2.458711 1_655
Na4 O103 2.476209 1_555
Na4 O105 2.530200 1_555
Na4 O3 2.729984 1_555
Na4 O60 2.753013 1_655
Na4 O22 2.783638 1_655
Na5 O102 2.448203 1_555
Na5 O133 2.464728 1_555
Na5 O104 2.471052 1_555
Na5 O137 2.478013 1_555
Na5 O61 2.505944 1_555
Na5 O30 2.575506 1_555
Na5 O2 2.801815 1_555
Na5 O23 2.957791 1_555
Na6 O98 2.374252 1_555
Na6 O100 2.459866 1_555
Na6 O138 2.500535 1_555
Na6 O70 2.523181 1_555
Na6 O142 2.527748 1_555
Na6 O28 2.552359 1_555
Na6 O8 2.773288 1_555
Na6 O12 2.866080 1_555
Na7 O99 2.399957 1_555
Na7 O139 2.424101 1_555
Na7 O29 2.483154 1_555
Na7 O101 2.491936 1_555
Na7 O143 2.513441 1_555
Na7 O71 2.555158 1_555
Na8 O97 2.380667 1_555
Na8 O138 2.389045 1_655
Na8 O101 2.489636 1_555
Na8 O140 2.622847 1_655
Na8 O11 2.631543 1_555
Na8 O25 2.644480 1_555
Na8 O66 2.675163 1_655
Na8 O14 2.851240 1_655
Na9 O99 2.350061 1_555
Na9 O141 2.415853 1_545
Na9 O143 2.421476 1_545
Na9 O97 2.450225 1_555
Na9 O69 2.531344 1_545
Na9 O7 2.746259 1_555
Na9 O27 2.747431 1_555
Na9 O17 2.918774 1_545
Na10 O128 2.366010 1_555
Na10 O86 2.499659 1_555
Na10 O130 2.526652 1_555
Na10 O56 2.574770 1_555
Na10 O85 2.657689 1_455
Na10 O42 2.715367 1_555
Na10 O28 2.790489 1_555
Na10 O14 2.870165 1_555
Na11 O130 2.408536 1_555
Na11 O89 2.413038 1_455
Na11 O126 2.474131 1_555
Na11 O86 2.573832 1_565
Na11 O58 2.581281 1_555
Na11 O45 2.742211 1_455
Na11 O16 2.746309 1_555
Na11 O25 2.797717 1_455
Na12 O88 2.369504 1_555
Na12 O128 2.398346 1_555
Na12 O84 2.405917 1_565
Na12 O126 2.458235 1_555
Na12 O12 2.611919 1_555
Na12 O26 2.628883 1_565
Na12 O54 2.776033 1_555
Na12 O46 2.840558 1_565
Na13 O127 2.353792 1_555
Na13 O129 2.381405 1_555
Na13 O85 2.483808 1_565
Na13 O55 2.503624 1_555
Na13 O89 2.526952 1_555
Na13 O47 2.631186 1_565
Na13 O13 2.807754 1_555
Na13 O27 2.851374 1_565
Na14 O121 2.289739 1_555
Na14 O91 2.449493 1_555
Na14 O49 2.468176 1_554
Na14 O125 2.548915 1_555
Na14 O93 2.623646 1_565
Na14 O39 2.647932 1_555
Na14 O19 2.868104 1_555
Na14 O35 2.886553 1_555
Na15 O108 2.311140 1_555
Na15 O78 2.370395 1_555
Na15 O6 2.446459 1_555
Na15 O80 2.466123 1_545
Na15 O112 2.545166 1_555
Na15 O36 2.748994 1_556
Na15 O70 2.763333 1_555
Na15 O50 2.933834 1_555
Na16 O109 2.340838 1_555
Na16 O79 2.425082 1_555
Na16 O81 2.493069 1_545
Na16 O113 2.547092 1_555
Na16 O37 2.556145 1_556
Na16 O7 2.684094 1_555
Na16 O71 2.799728 1_555
Na16 O51 2.876882 1_555
Na17 O73 2.362463 1_555
Na17 O118 2.368372 1_555
Na17 O116 2.416692 1_555
Na17 O74 2.418714 1_555
Na17 O44 2.482550 1_555
Na17 O2 2.505558 1_555
Na18 O76 2.363981 1_665
Na18 O75 2.365902 1_555
Na18 O72 2.368109 1_655
Na18 O89 2.658829 1_555
Na18 O85 2.718751 1_565
Na18 O86 2.727428 1_665
Na19 O73 2.325413 1_555
Na19 O87 2.452258 1_565
Na19 O77 2.461268 1_565
Na19 O88 2.533401 1_555
Na19 O74 2.662642 1_555
Na19 O84 2.728173 1_565
Na20 O83 2.288599 1_555
Na20 O80 2.462896 1_655
Na20 O91 2.470375 1_556
Na20 O78 2.529304 1_665
Na20 O93 2.593303 1_566
Na20 O94 2.752924 1_666
Na21 O82 2.352418 1_555
Na21 O81 2.426331 1_555
Na21 O90 2.551645 1_556
Na21 O92 2.600870 1_566
Na21 O79 2.657590 1_565
Na21 O95 2.697614 1_566
Na22 O98 2.458443 1_555
Na22 O108 2.494482 1_555
Na22 O112 2.502469 1_555
Na22 O110 2.510578 1_555
Na22 O96 2.512929 1_555
Na22 O100 2.553780 1_555
Na23 O109 2.379287 1_555
Na23 O113 2.412979 1_555
Na23 O111 2.556114 1_555
Na23 O99 2.557243 1_555
Na23 O97 2.570788 1_555
Na23 O101 2.590004 1_555
Na24 O104 2.394291 1_555
Na24 O118 2.417550 1_555
Na24 O114 2.497944 1_555
Na24 O116 2.551771 1_555
Na24 O102 2.553394 1_555
Na24 O106 2.687334 1_555
Na25 O103 2.462507 1_555
Na25 O119 2.472582 1_555
Na25 O105 2.477128 1_555
Na25 O115 2.477900 1_555
Na25 O117 2.497563 1_555
Na25 O107 2.744660 1_555
Na26 O122 2.393768 1_555
Na26 O124 2.525699 1_555
Na26 O136 2.531633 1_555
Na26 O120 2.564929 1_555
Na26 O132 2.597744 1_555
Na26 O134 2.643731 1_555
Na27 O123 2.325354 1_555
Na27 O121 2.352348 1_555
Na27 O137 2.477215 1_555
Na27 O125 2.575744 1_555
Na27 O133 2.709867 1_555
Na27 O135 2.796040 1_555
Na28 O128 2.447670 1_555
Na28 O138 2.519977 1_555
Na28 O126 2.529573 1_555
Na28 O140 2.562114 1_555
Na28 O130 2.598162 1_555
Na28 O142 2.599505 1_555
Na29 O139 2.341355 1_555
Na29 O131 2.467512 1_555
Na29 O129 2.522371 1_555
Na29 O141 2.610514 1_555
Na29 O143 2.628551 1_555
Na29 O127 2.728041 1_555
Ga0 O5 1.842421 1_555
Ga0 O3 1.851778 1_545
Ga0 O0 1.865445 1_655
Ga0 O75 2.214852 1_545
Ga0 O76 2.333436 1_655
Ga0 O72 2.335724 1_645
Ga1 O4 1.858938 1_565
Ga1 O2 1.884729 1_555
Ga1 O73 1.927604 1_555
Ga1 O1 2.033127 1_565
Ga1 O74 2.179429 1_555
Ga1 O77 2.291316 1_565
Ga2 O11 1.849735 1_555
Ga2 O83 1.874972 1_545
Ga2 O6 1.905405 1_655
Ga2 O9 2.077853 1_545
Ga2 O78 2.159623 1_655
Ga2 O80 2.334589 1_645
Ga3 O7 1.850180 1_565
Ga3 O82 1.859722 1_555
Ga3 O8 2.036268 1_555
Ga3 O10 2.084899 1_565
Ga3 O81 2.170101 1_555
Ga3 O79 2.190388 1_565
Ga4 O15 1.812479 1_555
Ga4 O88 1.893491 1_545
Ga4 O17 2.055791 1_545
Ga4 O87 2.065976 1_555
Ga4 O12 2.099901 1_545
Ga4 O84 2.141486 1_555
Ga5 O26 1.843588 1_555
Ga5 O28 1.880568 1_555
Ga5 O98 1.921170 1_555
Ga5 O24 2.161136 1_555
Ga5 O96 2.209981 1_555
Ga5 O100 2.341251 1_555
Ga6 O29 1.905655 1_555
Ga6 O25 1.950010 1_555
Ga6 O99 1.971404 1_555
Ga6 O97 1.991414 1_555
Ga6 O27 2.046235 1_555
Ga6 O101 2.345519 1_555
Ga7 O30 1.860489 1_555
Ga7 O102 1.933722 1_555
Ga7 O106 1.946387 1_555
Ga7 O104 1.958093 1_555
Ga7 O32 2.157631 1_555
Ga7 O34 2.250783 1_555
Ga8 O31 1.860760 1_555
Ga8 O35 1.891035 1_555
Ga8 O105 1.969887 1_555
Ga8 O103 1.995746 1_555
Ga8 O33 2.155170 1_555
Ga8 O107 2.339922 1_555
Ga9 O38 1.782342 1_556
Ga9 O108 1.869140 1_555
Ga9 O110 2.064344 1_555
Ga9 O36 2.071933 1_556
Ga9 O40 2.160797 1_556
Ga9 O112 2.408614 1_555
Ga10 O39 1.827211 1_556
Ga10 O37 1.846959 1_556
Ga10 O109 1.888379 1_555
Ga10 O111 2.192963 1_555
Ga10 O41 2.208687 1_556
Ga10 O113 2.456816 1_555
Ga11 O44 1.872777 1_555
Ga11 O42 1.892730 1_555
Ga11 O118 1.905852 1_555
Ga11 O46 1.992870 1_555
Ga11 O116 2.345405 1_555
Ga11 O114 2.349732 1_555
Ga12 O45 1.851763 1_555
Ga12 O47 1.861998 1_555
Ga12 O43 2.062303 1_555
Ga12 O119 2.095657 1_555
Ga12 O117 2.116515 1_555
Ga12 O115 2.211995 1_555
Ga13 O48 1.822431 1_554
Ga13 O122 1.857661 1_555
Ga13 O52 1.967548 1_554
Ga13 O50 2.086522 1_554
Ga13 O124 2.149636 1_555
Ga13 O120 2.194952 1_555
Ga14 O123 1.882775 1_555
Ga14 O49 1.904638 1_554
Ga14 O121 1.948528 1_555
Ga14 O51 2.075735 1_554
Ga14 O53 2.113696 1_554
Ga14 O125 2.270412 1_555
Ga15 O126 1.913255 1_555
Ga15 O130 1.927862 1_555
Ga15 O128 1.941544 1_555
Ga15 O54 1.991229 1_555
Ga15 O56 2.085119 1_555
Ga15 O58 2.135838 1_555
Ga16 O59 1.821550 1_555
Ga16 O129 1.941745 1_555
Ga16 O57 2.001964 1_555
Ga16 O55 2.069161 1_555
Ga16 O131 2.109280 1_555
Ga16 O127 2.234333 1_555
Ga17 O134 1.900061 1_555
Ga17 O132 1.913098 1_555
Ga17 O136 1.937899 1_555
Ga17 O60 2.023303 1_555
Ga17 O64 2.059605 1_555
Ga17 O62 2.181212 1_555
Ga18 O61 1.834444 1_555
Ga18 O135 1.930803 1_555
Ga18 O137 1.936357 1_555
Ga18 O65 2.013374 1_555
Ga18 O63 2.268300 1_555
Ga18 O133 2.304464 1_555
Ga19 O70 1.833125 1_555
Ga19 O138 2.000914 1_555
Ga19 O66 2.027273 1_555
Ga19 O68 2.047617 1_555
Ga19 O142 2.123837 1_555
Ga19 O140 2.242935 1_555
Ga20 O71 1.848546 1_555
Ga20 O139 1.918934 1_555
Ga20 O143 1.960230 1_555
Ga20 O67 2.055942 1_555
Ga20 O69 2.162259 1_555
Ga20 O141 2.227710 1_555
O0 Si0 1.619728 1_555
O1 S0 1.480684 1_555
O2 Si1 1.622522 1_555
O3 Si2 1.613658 1_555
O4 Si4 1.617500 1_555
O5 Si3 1.617474 1_555
O6 Si5 1.617103 1_555
O7 Si6 1.655975 1_555
O8 S2 1.496736 1_555
O9 S1 1.463323 1_655
O10 S3 1.473096 1_555
O11 Si7 1.608623 1_555
O12 S3 1.501039 1_565
O13 Si7 1.683558 1_565
O13 Ta0 1.928158 1_565
O14 Si5 1.687506 1_555
O14 Ta0 1.963071 1_455
O15 Si6 1.621574 1_555
O16 S1 1.512366 1_555
O16 Ta0 2.157273 1_465
O17 S2 1.492437 1_555
O18 Si1 1.649999 1_555
O18 Ta2 1.951296 1_565
O19 Si2 1.693030 1_555
O19 Ta1 1.933610 1_655
O20 Si3 1.666089 1_455
O20 Ta1 1.938195 1_545
O21 Si4 1.654633 1_555
O21 Ta2 1.949296 1_555
O22 Si0 1.681974 1_565
O22 Ta1 1.882919 1_555
O23 S0 1.493529 1_565
O23 Ta2 2.155406 1_565
O24 S4 1.478543 1_555
O25 Si8 1.625912 1_555
O26 Si9 1.628107 1_555
O27 S5 1.501955 1_555
O28 Si10 1.643527 1_555
O29 Si11 1.628646 1_555
O30 Si12 1.635080 1_555
O31 Si13 1.633164 1_555
O32 S6 1.476383 1_555
O33 S7 1.484266 1_555
O34 S8 1.473736 1_555
O35 Si14 1.644656 1_555
O36 S8 1.493056 1_555
O37 Si14 1.626017 1_555
O38 Si12 1.610281 1_555
O39 Si13 1.614942 1_555
O40 S6 1.466363 1_555
O41 S7 1.460224 1_555
O42 Si9 1.619753 1_555
O43 S5 1.477624 1_555
O44 Si10 1.619798 1_555
O45 Si11 1.618799 1_555
O46 S4 1.495081 1_555
O47 Si8 1.614795 1_555
O48 Si15 1.623206 1_555
O49 Si16 1.642364 1_555
O50 S9 1.471475 1_555
O51 S10 1.478491 1_555
O52 S11 1.479623 1_555
O53 S12 1.467772 1_555
O54 S13 1.507420 1_555
O55 S14 1.499559 1_555
O56 S15 1.503096 1_555
O57 S16 1.483542 1_555
O58 S17 1.489434 1_555
O59 Si17 1.624766 1_555
O60 S17 1.493740 1_555
O61 Si17 1.648162 1_555
O62 S13 1.490127 1_555
O63 S14 1.483758 1_555
O64 S15 1.503029 1_555
O65 S16 1.505643 1_555
O66 S9 1.520422 1_555
O67 S10 1.488358 1_555
O68 S11 1.500259 1_555
O69 S12 1.499114 1_555
O70 Si15 1.660781 1_555
O71 Si16 1.648003 1_555
O72 S17 1.477572 1_555
O73 Si17 1.672248 1_555
O74 S13 1.494399 1_555
O75 S14 1.494515 1_555
O76 S15 1.471842 1_555
O77 S16 1.467523 1_555
O78 S9 1.493905 1_555
O79 S10 1.493309 1_555
O80 S11 1.482336 1_555
O81 S12 1.514146 1_555
O82 Si15 1.640795 1_555
O83 Si16 1.646066 1_555
O84 S4 1.496215 1_555
O85 Si8 1.679551 1_555
O85 Ta0 1.923627 1_555
O86 Si9 1.672899 1_555
O86 Ta0 1.998211 1_455
O87 S5 1.477358 1_555
O88 Si10 1.648088 1_555
O89 Si11 1.710825 1_555
O89 Ta0 2.007027 1_565
O90 Si12 1.681510 1_555
O90 Ta2 1.926389 1_565
O91 Si13 1.700800 1_555
O91 Ta1 1.977769 1_655
O92 S6 1.539390 1_555
O92 Ta2 2.051632 1_555
O93 S7 1.543791 1_555
O93 Ta1 2.168688 1_645
O94 S8 1.514448 1_555
O94 Ta1 2.123986 1_545
O95 Si14 1.651108 1_555
O95 Ta2 1.920198 1_555
O96 S3 1.472590 1_555
O97 Si7 1.630696 1_555
O98 Si5 1.637103 1_555
O99 Si6 1.670396 1_555
O100 S2 1.475085 1_555
O101 S1 1.487686 1_655
O102 Si1 1.623886 1_555
O103 Si2 1.626886 1_555
O104 Si4 1.630434 1_555
O105 Si3 1.635704 1_555
O106 Si0 1.614213 1_555
O107 S0 1.473840 1_555
O108 Si15 1.671115 1_555
O109 Si16 1.670010 1_555
O110 S10 1.490724 1_555
O111 S9 1.468069 1_655
O112 S11 1.490598 1_545
O113 S12 1.486138 1_545
O114 S13 1.462546 1_545
O115 S14 1.495782 1_545
O116 S15 1.483919 1_555
O117 S16 1.498722 1_555
O118 Si17 1.680122 1_555
O119 S17 1.499392 1_655
O120 S8 1.475101 1_555
O121 Si14 1.636110 1_555
O122 Si13 1.623049 1_455
O123 Si12 1.623252 1_555
O124 S6 1.473463 1_565
O125 S7 1.479134 1_565
O126 Si9 1.629956 1_565
O127 S5 1.486253 1_565
O128 Si10 1.668599 1_555
O129 Si11 1.648075 1_555
O130 Si8 1.631271 1_455
O131 S4 1.480419 1_555
O132 Si0 1.623524 1_565
O133 S0 1.483091 1_565
O134 Si1 1.631746 1_555
O135 Si2 1.637457 1_555
O136 Si3 1.631721 1_455
O137 Si4 1.646597 1_555
O138 Si5 1.678852 1_555
O139 Si6 1.641020 1_555
O140 S1 1.484002 1_555
O141 S2 1.476482 1_555
O142 S3 1.512629 1_565
O143 Si7 1.631209 1_565
