# generated using pymatgen
data_Na7Nb2Ga2Si5PO24
_symmetry_space_group_name_H-M   'P 1'
_cell_length_a   9.01286289
_cell_length_b   9.01479467
_cell_length_c   22.18504394
_cell_angle_alpha   89.69345983
_cell_angle_beta   90.03259093
_cell_angle_gamma   119.88126494
_symmetry_Int_Tables_number   1
_chemical_formula_structural   Na7Nb2Ga2Si5PO24
_chemical_formula_sum   'Na21 Nb6 Ga6 Si15 P3 O72'
_cell_volume   1562.86121478
_cell_formula_units_Z   3
loop_
 _symmetry_equiv_pos_site_id
 _symmetry_equiv_pos_as_xyz
  1  'x, y, z'
loop_
 _atom_site_type_symbol
 _atom_site_label
 _atom_site_symmetry_multiplicity
 _atom_site_fract_x
 _atom_site_fract_y
 _atom_site_fract_z
 _atom_site_occupancy
  Na  Na0  1  0.64026786  0.01059309  0.24911740  1
  Na  Na1  1  0.37222596  0.36267877  0.24728002  1
  Na  Na2  1  0.98881672  0.62607987  0.24788960  1
  Na  Na3  1  0.63669341  0.62626134  0.74780511  1
  Na  Na4  1  0.98864895  0.36093237  0.74822045  1
  Na  Na5  1  0.37421487  0.01239663  0.74780370  1
  Na  Na6  1  0.30504864  0.34229675  0.58170262  1
  Na  Na7  1  0.03948689  0.69710426  0.58109759  1
  Na  Na8  1  0.65684305  0.96002913  0.58136167  1
  Na  Na9  1  0.30085329  0.96208939  0.08013261  1
  Na  Na10  1  0.04151874  0.34534967  0.08203297  1
  Na  Na11  1  0.97265226  0.67754691  0.91502362  1
  Na  Na12  1  0.32233266  0.29233267  0.91515419  1
  Na  Na13  1  0.32274544  0.02836966  0.41504984  1
  Na  Na14  1  0.70664215  0.67614564  0.41516552  1
  Na  Na15  1  0.99750970  0.00487322  0.49390471  1
  Na  Na16  1  0.98868609  0.99638828  0.99479570  1
  Na  Na17  1  0.66724961  0.32512912  0.82907020  1
  Na  Na18  1  0.67440960  0.33258425  0.32953949  1
  Na  Na19  1  0.33918732  0.66331064  0.16049388  1
  Na  Na20  1  0.33453298  0.66695989  0.66170117  1
  Nb  Nb0  1  0.99932118  0.99934235  0.64657914  1
  Nb  Nb1  1  0.00050214  0.99727681  0.14604849  1
  Nb  Nb2  1  0.66625708  0.33081285  0.97959618  1
  Nb  Nb3  1  0.67397095  0.33202688  0.47954633  1
  Nb  Nb4  1  0.32958949  0.66871410  0.31295612  1
  Nb  Nb5  1  0.33063293  0.66966922  0.81331788  1
  Ga  Ga0  1  0.99305291  0.99787438  0.35049016  1
  Ga  Ga1  1  0.00231114  0.00640833  0.85077659  1
  Ga  Ga2  1  0.66612326  0.33304175  0.68446551  1
  Ga  Ga3  1  0.66822238  0.34109243  0.18533219  1
  Ga  Ga4  1  0.32696941  0.65817241  0.01743410  1
  Ga  Ga5  1  0.33582061  0.67255191  0.51831734  1
  Si  Si0  1  0.29351252  0.00670819  0.25242912  1
  Si  Si1  1  0.71089738  0.70640009  0.25214206  1
  Si  Si2  1  0.99465853  0.28626247  0.25089851  1
  Si  Si3  1  0.29521890  0.28988312  0.75168648  1
  Si  Si4  1  0.99374559  0.70698143  0.75294986  1
  Si  Si5  1  0.71227558  0.00478197  0.75211215  1
  Si  Si6  1  0.96273577  0.33912789  0.58596842  1
  Si  Si7  1  0.37887569  0.04168921  0.58483640  1
  Si  Si8  1  0.66120335  0.62079299  0.58434620  1
  Si  Si9  1  0.95776489  0.62286542  0.08475877  1
  Si  Si10  1  0.38130142  0.34510915  0.08499689  1
  Si  Si11  1  0.04013460  0.36660552  0.91833274  1
  Si  Si12  1  0.33070341  0.95563919  0.91960242  1
  Si  Si13  1  0.63099824  0.95787475  0.41823659  1
  Si  Si14  1  0.04326869  0.67068880  0.41889166  1
  P  P0  1  0.66238871  0.03923418  0.08507799  1
  P  P1  1  0.62321895  0.67291520  0.91907622  1
  P  P2  1  0.32698010  0.37358011  0.41868859  1
  O  O0  1  0.20715534  0.03874571  0.31088421  1
  O  O1  1  0.82984476  0.78837998  0.31078049  1
  O  O2  1  0.96032270  0.16136690  0.30740951  1
  O  O3  1  0.21055855  0.16951758  0.81020987  1
  O  O4  1  0.96334889  0.79482200  0.81128380  1
  O  O5  1  0.83880722  0.03874672  0.80764225  1
  O  O6  1  0.79704002  0.96386685  0.69114306  1
  O  O7  1  0.16578061  0.20245814  0.69207048  1
  O  O8  1  0.03617962  0.83413942  0.69249554  1
  O  O9  1  0.80273864  0.83986240  0.19397072  1
  O  O10  1  0.03546652  0.20241618  0.19024291  1
  O  O11  1  0.16520417  0.96382104  0.19259100  1
  O  O12  1  0.87708523  0.37359795  0.64412551  1
  O  O13  1  0.49743000  0.12643890  0.64340439  1
  O  O14  1  0.62889327  0.50342914  0.64365162  1
  O  O15  1  0.87374528  0.50050014  0.14316566  1
  O  O16  1  0.63240696  0.11973740  0.14139483  1
  O  O17  1  0.48955979  0.35941269  0.14476570  1
  O  O18  1  0.46798663  0.30101520  0.02576791  1
  O  O19  1  0.83485746  0.52889882  0.02486430  1
  O  O20  1  0.69662528  0.16403186  0.02927932  1
  O  O21  1  0.46552565  0.16875529  0.52483062  1
  O  O22  1  0.70098158  0.53299371  0.52492883  1
  O  O23  1  0.82905764  0.29788092  0.52751468  1
  O  O24  1  0.53519899  0.69436577  0.97295426  1
  O  O25  1  0.16021919  0.45546391  0.97630331  1
  O  O26  1  0.30071499  0.83481863  0.97750680  1
  O  O27  1  0.54161545  0.83729062  0.47683578  1
  O  O28  1  0.30628098  0.45866820  0.47496236  1
  O  O29  1  0.16336728  0.70131509  0.47691788  1
  O  O30  1  0.13323292  0.63630412  0.35852555  1
  O  O31  1  0.50003216  0.86418912  0.35897652  1
  O  O32  1  0.36154205  0.49285887  0.36150725  1
  O  O33  1  0.13395675  0.49913551  0.85902246  1
  O  O34  1  0.36419963  0.86591410  0.85880078  1
  O  O35  1  0.50811113  0.63590057  0.86073661  1
  O  O36  1  0.02573000  0.84067213  0.41168514  1
  O  O37  1  0.81535401  0.97223430  0.41104223  1
  O  O38  1  0.17624648  0.19335161  0.41206137  1
  O  O39  1  0.02699346  0.18277166  0.91079897  1
  O  O40  1  0.16078687  0.97380637  0.91217019  1
  O  O41  1  0.80641808  0.82237564  0.91204125  1
  O  O42  1  0.97288485  0.16071554  0.58804701  1
  O  O43  1  0.18787163  0.02775776  0.58837131  1
  O  O44  1  0.83851866  0.81137705  0.58823921  1
  O  O45  1  0.97730596  0.81603288  0.08821000  1
  O  O46  1  0.83301800  0.03442267  0.08764711  1
  O  O47  1  0.18815810  0.16486940  0.08851194  1
  O  O48  1  0.68721190  0.16931523  0.74469333  1
  O  O49  1  0.48387472  0.31266520  0.74452330  1
  O  O50  1  0.83086819  0.51793696  0.74550927  1
  O  O51  1  0.68744091  0.51718496  0.24506213  1
  O  O52  1  0.82883022  0.31046036  0.24344968  1
  O  O53  1  0.48431901  0.16741484  0.24376538  1
  O  O54  1  0.63559725  0.50207562  0.92269792  1
  O  O55  1  0.85538514  0.36547220  0.92211567  1
  O  O56  1  0.50172516  0.15021876  0.92271719  1
  O  O57  1  0.63061337  0.14227468  0.42141273  1
  O  O58  1  0.49768953  0.36366897  0.42118881  1
  O  O59  1  0.84872529  0.49915885  0.42141842  1
  O  O60  1  0.35031295  0.50586977  0.07744101  1
  O  O61  1  0.14981940  0.64927290  0.07852983  1
  O  O62  1  0.50388707  0.86497154  0.07613497  1
  O  O63  1  0.35461134  0.85166124  0.57860866  1
  O  O64  1  0.49457890  0.64357103  0.57718932  1
  O  O65  1  0.15128859  0.50276300  0.57662932  1
  O  O66  1  0.30556197  0.82761072  0.25540318  1
  O  O67  1  0.51962788  0.69075707  0.25635426  1
  O  O68  1  0.17230048  0.47691757  0.25601682  1
  O  O69  1  0.30925293  0.48047693  0.75630724  1
  O  O70  1  0.17296093  0.69474340  0.75561837  1
  O  O71  1  0.52260247  0.82655007  0.75602046  1
loop_
_geom_bond_atom_site_label_1
_geom_bond_atom_site_label_2
_geom_bond_distance
_geom_bond_site_symmetry_2
Na0 O52 2.372881 1_555
Na0 O53 2.442574 1_555
Na0 O67 2.528378 1_545
Na0 O16 2.593935 1_555
Na0 O66 2.623061 1_545
Na0 O31 2.754345 1_545
Na0 O2 2.819341 1_555
Na0 O9 2.877102 1_545
Na1 O53 2.428745 1_555
Na1 O51 2.463785 1_555
Na1 O68 2.489281 1_555
Na1 O17 2.515164 1_555
Na1 O67 2.577528 1_555
Na1 O32 2.820111 1_555
Na1 O0 2.891607 1_555
Na1 O10 2.923455 1_555
Na2 O51 2.385215 1_555
Na2 O52 2.469658 1_555
Na2 O66 2.512579 1_655
Na2 O15 2.571086 1_555
Na2 O68 2.605415 1_655
Na2 O30 2.757953 1_655
Na2 O1 2.872831 1_555
Na2 O11 2.905464 1_655
Na3 O50 2.392157 1_555
Na3 O49 2.452886 1_555
Na3 O71 2.490852 1_555
Na3 O14 2.553390 1_555
Na3 O69 2.570138 1_555
Na3 O35 2.780925 1_555
Na3 O6 2.917169 1_555
Na3 O4 2.918998 1_555
Na4 O48 2.386656 1_555
Na4 O50 2.456340 1_555
Na4 O69 2.538067 1_655
Na4 O12 2.542856 1_555
Na4 O70 2.620307 1_655
Na4 O33 2.777259 1_655
Na4 O5 2.837280 1_555
Na4 O7 2.904344 1_655
Na5 O49 2.375180 1_555
Na5 O48 2.446797 1_555
Na5 O70 2.517898 1_545
Na5 O13 2.548406 1_555
Na5 O71 2.618733 1_545
Na5 O34 2.768098 1_545
Na5 O3 2.864212 1_555
Na5 O8 2.916952 1_545
Na6 O64 2.383031 1_555
Na6 O65 2.453832 1_555
Na6 O43 2.487808 1_555
Na6 O28 2.582654 1_555
Na6 O42 2.603253 1_455
Na6 O7 2.748407 1_555
Na6 O14 2.882757 1_555
Na6 O21 2.899852 1_555
Na7 O65 2.419813 1_555
Na7 O63 2.463184 1_555
Na7 O44 2.495672 1_455
Na7 O29 2.559220 1_555
Na7 O43 2.594693 1_565
Na7 O8 2.775620 1_555
Na7 O12 2.882365 1_455
Na7 O22 2.927031 1_455
Na8 O63 2.393123 1_555
Na8 O64 2.476166 1_555
Na8 O42 2.505250 1_565
Na8 O27 2.561231 1_555
Na8 O44 2.585362 1_555
Na8 O6 2.735571 1_555
Na8 O23 2.892254 1_565
Na8 O13 2.895040 1_565
Na9 O62 2.391715 1_555
Na9 O61 2.445945 1_555
Na9 O47 2.502357 1_565
Na9 O45 2.538037 1_455
Na9 O26 2.554700 1_554
Na9 O11 2.782510 1_555
Na9 O18 2.904413 1_565
Na9 O16 2.929336 1_565
Na10 O61 2.407994 1_555
Na10 O60 2.415778 1_555
Na10 O46 2.480230 1_455
Na10 O25 2.559610 1_554
Na10 O47 2.560148 1_555
Na10 O10 2.706169 1_555
Na10 O15 2.865667 1_455
Na10 O20 2.942397 1_455
Na11 O40 2.344767 1_655
Na11 O41 2.429354 1_555
Na11 O55 2.467620 1_555
Na11 O4 2.546287 1_555
Na11 O54 2.639928 1_555
Na11 O19 2.754345 1_556
Na11 O26 2.917800 1_655
Na11 O33 2.932088 1_655
Na12 O39 2.334828 1_555
Na12 O40 2.491114 1_545
Na12 O54 2.501657 1_555
Na12 O56 2.518917 1_555
Na12 O3 2.564119 1_555
Na12 O18 2.765401 1_556
Na12 O25 2.881391 1_555
Na12 O35 2.940862 1_555
Na13 O36 2.350013 1_545
Na13 O38 2.432147 1_555
Na13 O57 2.436346 1_555
Na13 O0 2.554699 1_555
Na13 O58 2.626107 1_555
Na13 O21 2.756069 1_555
Na13 O29 2.894640 1_545
Na13 O31 2.944421 1_545
Na14 O37 2.341902 1_555
Na14 O58 2.491958 1_555
Na14 O36 2.495082 1_655
Na14 O59 2.497596 1_555
Na14 O1 2.545184 1_555
Na14 O22 2.738357 1_555
Na14 O27 2.893252 1_555
Na14 O32 2.952535 1_555
Na15 O37 2.383759 1_545
Na15 O36 2.446936 1_645
Na15 O38 2.453936 1_655
Na15 O42 2.593764 1_555
Na15 O44 2.636230 1_545
Na15 O43 2.650701 1_655
Na16 O39 2.409156 1_665
Na16 O41 2.447380 1_555
Na16 O40 2.475752 1_655
Na16 O45 2.597466 1_556
Na16 O46 2.611403 1_566
Na16 O47 2.677759 1_666
Na17 O48 2.406182 1_555
Na17 O50 2.459063 1_555
Na17 O49 2.464956 1_555
Na17 O56 2.579287 1_555
Na17 O55 2.580319 1_555
Na17 O54 2.725782 1_555
Na18 O52 2.430685 1_555
Na18 O51 2.463261 1_555
Na18 O53 2.501621 1_555
Na18 O57 2.557761 1_555
Na18 O59 2.560551 1_555
Na18 O58 2.684022 1_555
Na19 O60 2.364187 1_555
Na19 O61 2.453409 1_555
Na19 O62 2.507744 1_555
Na19 O67 2.613330 1_555
Na19 O68 2.650272 1_555
Na19 O66 2.683350 1_555
Na20 O63 2.422931 1_555
Na20 O64 2.439422 1_555
Na20 O65 2.463963 1_555
Na20 O69 2.619979 1_555
Na20 O70 2.626213 1_555
Na20 O71 2.630540 1_555
Nb0 O6 1.954798 1_555
Nb0 O8 1.960175 1_655
Nb0 O7 1.975587 1_665
Nb0 O42 2.045499 1_565
Nb0 O43 2.046041 1_665
Nb0 O44 2.054553 1_555
Nb1 O9 1.945965 1_455
Nb1 O11 1.949791 1_555
Nb1 O10 1.979608 1_565
Nb1 O45 2.010349 1_455
Nb1 O47 2.051383 1_565
Nb1 O46 2.136874 1_465
Nb2 O19 1.954508 1_556
Nb2 O18 1.958456 1_556
Nb2 O20 1.985515 1_556
Nb2 O56 2.013970 1_555
Nb2 O55 2.024085 1_555
Nb2 O54 2.111210 1_555
Nb3 O23 1.898559 1_555
Nb3 O22 1.983654 1_555
Nb3 O21 1.983991 1_555
Nb3 O59 2.007674 1_555
Nb3 O57 2.024618 1_555
Nb3 O58 2.174187 1_555
Nb4 O30 1.929516 1_555
Nb4 O31 1.956433 1_555
Nb4 O66 2.004540 1_555
Nb4 O68 2.043001 1_555
Nb4 O32 2.047571 1_555
Nb4 O67 2.051975 1_555
Nb5 O34 1.929998 1_555
Nb5 O33 1.950311 1_555
Nb5 O70 2.005996 1_555
Nb5 O71 2.038287 1_555
Nb5 O35 2.058610 1_555
Nb5 O69 2.059363 1_555
Ga0 O2 1.894870 1_565
Ga0 O1 1.937723 1_555
Ga0 O0 1.980273 1_665
Ga0 O37 2.013288 1_555
Ga0 O36 2.081582 1_655
Ga0 O38 2.195762 1_665
Ga1 O5 1.896258 1_455
Ga1 O3 1.932012 1_555
Ga1 O4 1.969590 1_445
Ga1 O39 2.005060 1_555
Ga1 O40 2.096032 1_545
Ga1 O41 2.185607 1_445
Ga2 O14 1.946816 1_555
Ga2 O13 1.950722 1_555
Ga2 O12 1.963564 1_555
Ga2 O49 2.050925 1_555
Ga2 O48 2.063501 1_555
Ga2 O50 2.091118 1_555
Ga3 O17 1.921434 1_555
Ga3 O15 1.925257 1_555
Ga3 O51 2.013492 1_555
Ga3 O52 2.055813 1_555
Ga3 O53 2.067383 1_555
Ga3 O16 2.101160 1_555
Ga4 O25 1.926246 1_554
Ga4 O26 1.933022 1_554
Ga4 O60 1.992366 1_555
Ga4 O24 1.997724 1_554
Ga4 O61 2.065542 1_555
Ga4 O62 2.185312 1_555
Ga5 O29 1.929773 1_555
Ga5 O27 1.932702 1_555
Ga5 O63 2.043328 1_555
Ga5 O64 2.046504 1_555
Ga5 O28 2.054678 1_555
Ga5 O65 2.056008 1_555
O0 Si0 1.612484 1_555
O1 Si1 1.614641 1_555
O2 Si2 1.604169 1_555
O3 Si3 1.614427 1_555
O4 Si4 1.613826 1_555
O5 Si5 1.602022 1_555
O6 Si5 1.684195 1_565
O7 Si3 1.680657 1_555
O8 Si4 1.675217 1_455
O9 Si1 1.670469 1_555
O10 Si2 1.675055 1_455
O11 Si0 1.675511 1_565
O12 Si6 1.612941 1_555
O13 Si7 1.615338 1_555
O14 Si8 1.616721 1_555
O15 Si9 1.619490 1_555
O16 P0 1.538231 1_555
O17 Si10 1.613027 1_555
O18 Si10 1.676662 1_555
O19 Si9 1.669027 1_555
O20 P0 1.591513 1_555
O21 Si7 1.669640 1_555
O22 Si8 1.669440 1_555
O23 Si6 1.681827 1_555
O24 P1 1.500617 1_555
O25 Si11 1.616365 1_555
O26 Si12 1.612970 1_555
O27 Si13 1.623025 1_555
O28 P2 1.528026 1_555
O29 Si14 1.615396 1_555
O30 Si14 1.674267 1_555
O31 Si13 1.688719 1_555
O32 P2 1.585757 1_555
O33 Si11 1.688658 1_555
O34 Si12 1.679385 1_555
O35 P1 1.587745 1_555
O36 Si14 1.624006 1_555
O37 Si13 1.608982 1_555
O38 P2 1.519861 1_555
O39 Si11 1.611124 1_555
O40 Si12 1.627462 1_555
O41 P1 1.532111 1_555
O42 Si6 1.656224 1_555
O43 Si7 1.664358 1_555
O44 Si8 1.666982 1_555
O45 Si9 1.662845 1_555
O46 P0 1.560922 1_555
O47 Si10 1.690247 1_555
O48 Si5 1.615332 1_555
O49 Si3 1.615722 1_555
O50 Si4 1.611368 1_555
O51 Si1 1.619387 1_555
O52 Si2 1.622614 1_555
O53 Si0 1.614970 1_555
O54 P1 1.600196 1_555
O55 Si11 1.662220 1_655
O56 Si12 1.662726 1_545
O57 Si13 1.665926 1_545
O58 P2 1.585911 1_555
O59 Si14 1.663200 1_655
O60 Si10 1.614624 1_555
O61 Si9 1.631357 1_455
O62 P0 1.521475 1_565
O63 Si7 1.621947 1_565
O64 Si8 1.621515 1_555
O65 Si6 1.614374 1_455
O66 Si0 1.672245 1_565
O67 Si1 1.660788 1_555
O68 Si2 1.670411 1_455
O69 Si3 1.662504 1_555
O70 Si4 1.673938 1_455
O71 Si5 1.665327 1_565
