# generated using pymatgen
data_CeSiBO5
_symmetry_space_group_name_H-M   'P 1'
_cell_length_a   6.85199907
_cell_length_b   6.85199947
_cell_length_c   6.69212158
_cell_angle_alpha   89.99940003
_cell_angle_beta   90.00024683
_cell_angle_gamma   120.00026060
_symmetry_Int_Tables_number   1
_chemical_formula_structural   CeSiBO5
_chemical_formula_sum   'Ce3 Si3 B3 O15'
_cell_volume   272.09961655
_cell_formula_units_Z   3
loop_
 _symmetry_equiv_pos_site_id
 _symmetry_equiv_pos_as_xyz
  1  'x, y, z'
loop_
 _atom_site_type_symbol
 _atom_site_label
 _atom_site_symmetry_multiplicity
 _atom_site_fract_x
 _atom_site_fract_y
 _atom_site_fract_z
 _atom_site_occupancy
  Ce  Ce0  1  0.41204171  0.41246168  0.50077364  1
  Ce  Ce1  1  0.00042402  0.58796555  0.16739196  1
  Ce  Ce2  1  0.58755526  0.99958428  0.83409146  1
  Si  Si0  1  0.41547594  0.41736147  0.00196331  1
  Si  Si1  1  0.00189036  0.58452314  0.66862797  1
  Si  Si2  1  0.58262840  0.99811536  0.33528566  1
  B  B0  1  0.89941220  0.88470197  0.47295012  1
  B  B1  1  0.98528286  0.10057611  0.13961745  1
  B  B2  1  0.11529852  0.01471516  0.80627981  1
  O  O0  1  0.14911062  0.54442676  0.50442952  1
  O  O1  1  0.39530945  0.85092430  0.17110505  1
  O  O2  1  0.45558124  0.60469210  0.83779915  1
  O  O3  1  0.06129012  0.05381547  0.60693767  1
  O  O4  1  0.94618552  0.00747185  0.94027384  1
  O  O5  1  0.99250623  0.93869546  0.27360781  1
  O  O6  1  0.34920289  0.19564702  0.85854437  1
  O  O7  1  0.80435429  0.15355929  0.19187654  1
  O  O8  1  0.84642842  0.65080104  0.52523065  1
  O  O9  1  0.19161973  0.33134708  0.14846596  1
  O  O10  1  0.66863423  0.86026060  0.48179135  1
  O  O11  1  0.13974862  0.80838273  0.81511878  1
  O  O12  1  0.60927992  0.47269451  0.16281168  1
  O  O13  1  0.52726895  0.13654842  0.49615450  1
  O  O14  1  0.86347051  0.39072863  0.82947175  1
loop_
_geom_bond_atom_site_label_1
_geom_bond_atom_site_label_2
_geom_bond_distance
_geom_bond_site_symmetry_2
Ce0 O13 2.385626 1_555
Ce0 O0 2.386014 1_555
Ce0 O3 2.532531 1_555
Ce0 O2 2.553022 1_555
Ce0 O12 2.560128 1_555
Ce0 O8 2.586898 1_555
Ce0 O10 2.669682 1_555
Ce0 O9 2.703562 1_555
Ce0 O6 2.735894 1_555
Ce1 O12 2.385570 1_455
Ce1 O1 2.385987 1_555
Ce1 O5 2.532585 1_455
Ce1 O0 2.553061 1_555
Ce1 O14 2.559848 1_454
Ce1 O7 2.587020 1_455
Ce1 O9 2.669778 1_555
Ce1 O11 2.703346 1_554
Ce1 O8 2.736369 1_455
Ce2 O14 2.385637 1_565
Ce2 O2 2.385974 1_555
Ce2 O4 2.532493 1_565
Ce2 O1 2.552938 1_556
Ce2 O13 2.559970 1_565
Ce2 O6 2.587075 1_565
Ce2 O11 2.669732 1_555
Ce2 O10 2.703489 1_555
Ce2 O7 2.735955 1_566
B0 O5 1.444778 1_555
B0 O3 1.446288 1_665
B0 O8 1.496983 1_555
B0 O10 1.505724 1_555
B1 O4 1.444818 1_554
B1 O5 1.446272 1_545
B1 O7 1.497029 1_555
B1 O9 1.505693 1_655
B2 O3 1.444810 1_555
B2 O4 1.446295 1_455
B2 O6 1.497004 1_555
B2 O11 1.505730 1_545
O0 Si1 1.605512 1_555
O1 Si2 1.605387 1_555
O2 Si0 1.605395 1_556
O6 Si0 1.656945 1_556
O7 Si2 1.656943 1_545
O8 Si1 1.656980 1_655
O9 Si0 1.660507 1_555
O10 Si2 1.660543 1_555
O11 Si1 1.660493 1_555
O12 Si0 1.600741 1_555
O13 Si2 1.600756 1_545
O14 Si1 1.600616 1_655
