# generated using pymatgen
data_BaCe2CoS5
_symmetry_space_group_name_H-M   'P 1'
_cell_length_a   8.66299872
_cell_length_b   8.66299872
_cell_length_c   8.66299872
_cell_angle_alpha   126.78991660
_cell_angle_beta   126.78991660
_cell_angle_gamma   78.59368750
_symmetry_Int_Tables_number   1
_chemical_formula_structural   BaCe2CoS5
_chemical_formula_sum   'Ba2 Ce4 Co2 S10'
_cell_volume   403.62405936
_cell_formula_units_Z   2
loop_
 _symmetry_equiv_pos_site_id
 _symmetry_equiv_pos_as_xyz
  1  'x, y, z'
loop_
 _atom_site_type_symbol
 _atom_site_label
 _atom_site_symmetry_multiplicity
 _atom_site_fract_x
 _atom_site_fract_y
 _atom_site_fract_z
 _atom_site_occupancy
  Ba  Ba0  1  0.75000000  0.75000000  0.00000000  1
  Ba  Ba1  1  0.25000000  0.25000000  0.00000000  1
  Ce  Ce0  1  0.83795600  0.66204400  0.50000000  1
  Ce  Ce1  1  0.66204400  0.16204400  0.82408900  1
  Ce  Ce2  1  0.33795600  0.83795600  0.17591100  1
  Ce  Ce3  1  0.16204400  0.33795600  0.50000000  1
  Co  Co0  1  0.25000000  0.75000000  0.50000000  1
  Co  Co1  1  0.75000000  0.25000000  0.50000000  1
  S  S0  1  0.98872900  0.48872900  0.20936900  1
  S  S1  1  0.72064000  0.22064000  0.20936900  1
  S  S2  1  0.01127100  0.51127100  0.79063100  1
  S  S3  1  0.51127100  0.72064000  0.50000000  1
  S  S4  1  0.22064000  0.01127100  0.50000000  1
  S  S5  1  0.48872900  0.27936000  0.50000000  1
  S  S6  1  0.77936000  0.98872900  0.50000000  1
  S  S7  1  0.27936000  0.77936000  0.79063100  1
  S  S8  1  0.00000000  0.00000000  0.00000000  1
  S  S9  1  0.50000000  0.50000000  0.00000000  1
loop_
_geom_bond_atom_site_label_1
_geom_bond_atom_site_label_2
_geom_bond_distance
_geom_bond_site_symmetry_2
Ba0 S8 3.352040 1_665
Ba0 S9 3.352040 1_555
Ba0 S4 3.355970 1_665
Ba0 S6 3.355970 1_555
Ba0 S1 3.355970 1_565
Ba0 S7 3.355970 1_554
Ba0 S3 3.355970 1_554
Ba0 S2 3.355970 1_654
Ba0 S5 3.355970 1_554
Ba0 S0 3.355970 1_555
Ba1 S9 3.352040 1_555
Ba1 S8 3.352040 1_555
Ba1 S7 3.355970 1_544
Ba1 S0 3.355970 1_455
Ba1 S6 3.355970 1_444
Ba1 S4 3.355970 1_554
Ba1 S2 3.355970 1_554
Ba1 S1 3.355970 1_555
Ba1 S3 3.355970 1_555
Ba1 S5 3.355970 1_555
Ce0 S3 2.774665 1_555
Ce0 S6 2.774665 1_555
Ce0 S9 2.908136 1_555
Ce0 S8 2.908136 1_666
Ce0 S1 2.989101 1_555
Ce0 S2 2.989101 1_655
Ce0 S0 2.989101 1_555
Ce0 S7 2.989101 1_655
Ce1 S1 2.774656 1_556
Ce1 S0 2.774665 1_556
Ce1 S9 2.908134 1_556
Ce1 S8 2.908134 1_656
Ce1 S3 2.989101 1_545
Ce1 S4 2.989101 1_555
Ce1 S5 2.989109 1_555
Ce1 S6 2.989109 1_545
Ce2 S7 2.774656 1_554
Ce2 S2 2.774665 1_554
Ce2 S9 2.908134 1_555
Ce2 S8 2.908134 1_565
Ce2 S6 2.989101 1_555
Ce2 S5 2.989101 1_565
Ce2 S3 2.989109 1_555
Ce2 S4 2.989109 1_565
Ce3 S5 2.774665 1_555
Ce3 S4 2.774665 1_555
Ce3 S8 2.908136 1_555
Ce3 S9 2.908136 1_556
Ce3 S0 2.989101 1_455
Ce3 S1 2.989101 1_455
Ce3 S2 2.989101 1_555
Ce3 S7 2.989101 1_555
Co0 S7 2.227089 1_555
Co0 S3 2.227089 1_555
Co0 S4 2.227089 1_565
Co0 S0 2.227089 1_455
Co1 S6 2.227089 1_545
Co1 S1 2.227089 1_555
Co1 S2 2.227089 1_655
Co1 S5 2.227089 1_555
