# generated using pymatgen
data_Na30Mg8Ta16Si27(SO16)9
_symmetry_space_group_name_H-M   'P 1'
_cell_length_a   18.00269555
_cell_length_b   8.99815854
_cell_length_c   22.52947392
_cell_angle_alpha   89.96293847
_cell_angle_beta   90.07554102
_cell_angle_gamma   120.06187089
_symmetry_Int_Tables_number   1
_chemical_formula_structural   Na30Mg8Ta16Si27(SO16)9
_chemical_formula_sum   'Na30 Mg8 Ta16 Si27 S9 O144'
_cell_volume   3158.64910874
_cell_formula_units_Z   1
loop_
 _symmetry_equiv_pos_site_id
 _symmetry_equiv_pos_as_xyz
  1  'x, y, z'
loop_
 _atom_site_type_symbol
 _atom_site_label
 _atom_site_symmetry_multiplicity
 _atom_site_fract_x
 _atom_site_fract_y
 _atom_site_fract_z
 _atom_site_occupancy
  Na  Na0  1  0.18211321  0.00448206  0.74217149  1
  Na  Na1  1  0.65665532  0.33786507  0.58795198  1
  Na  Na2  1  0.01215630  0.68040622  0.58858737  1
  Na  Na3  1  0.51016424  0.67614911  0.58856668  1
  Na  Na4  1  0.65647844  0.97527237  0.08673359  1
  Na  Na5  1  0.50890596  0.34417777  0.08795598  1
  Na  Na6  1  0.48207551  0.68031909  0.90944807  1
  Na  Na7  1  0.98394586  0.68232821  0.91053044  1
  Na  Na8  1  0.35500719  0.03271847  0.91669879  1
  Na  Na9  1  0.85515491  0.03333633  0.91428227  1
  Na  Na10  1  0.16066925  0.29036054  0.91662528  1
  Na  Na11  1  0.66114462  0.28953001  0.91412006  1
  Na  Na12  1  0.48287442  0.28539128  0.40792323  1
  Na  Na13  1  0.98378613  0.28898029  0.41602814  1
  Na  Na14  1  0.16101138  0.03395554  0.41557604  1
  Na  Na15  1  0.66052158  0.03198168  0.41379920  1
  Na  Na16  1  0.35628402  0.67721404  0.41486746  1
  Na  Na17  1  0.85502777  0.67826337  0.41457397  1
  Na  Na18  1  0.99981155  0.00984112  0.49568510  1
  Na  Na19  1  0.49584721  0.00163247  0.49390135  1
  Na  Na20  1  0.00079112  0.99949567  0.99306007  1
  Na  Na21  1  0.49481565  0.98879113  0.99321833  1
  Na  Na22  1  0.34409234  0.35892365  0.82700854  1
  Na  Na23  1  0.83798454  0.34511371  0.82373894  1
  Na  Na24  1  0.33924921  0.33151074  0.32302061  1
  Na  Na25  1  0.83239920  0.33274549  0.32660154  1
  Na  Na26  1  0.16674193  0.66662136  0.16090553  1
  Na  Na27  1  0.66980960  0.66293709  0.16687134  1
  Na  Na28  1  0.16845909  0.65371338  0.66522973  1
  Na  Na29  1  0.67051117  0.67750084  0.66850914  1
  Mg  Mg0  1  0.99967608  0.00008023  0.35425039  1
  Mg  Mg1  1  0.49976076  0.00656933  0.35333986  1
  Mg  Mg2  1  0.99823346  0.99154778  0.85438337  1
  Mg  Mg3  1  0.49951870  0.99238186  0.85423794  1
  Mg  Mg4  1  0.34027242  0.34804424  0.68290076  1
  Mg  Mg5  1  0.83770053  0.34250069  0.68379219  1
  Mg  Mg6  1  0.33851944  0.33285275  0.18284352  1
  Mg  Mg7  1  0.83325152  0.33365900  0.17992936  1
  Ta  Ta0  1  0.00075185  0.99538455  0.64369343  1
  Ta  Ta1  1  0.49920780  0.98838393  0.64471624  1
  Ta  Ta2  1  0.00142975  0.99869689  0.14001697  1
  Ta  Ta3  1  0.49752990  0.00923424  0.14389591  1
  Ta  Ta4  1  0.33312253  0.33619342  0.98196159  1
  Ta  Ta5  1  0.83480685  0.33629313  0.98179100  1
  Ta  Ta6  1  0.33413052  0.33229576  0.48182484  1
  Ta  Ta7  1  0.83419724  0.33181378  0.48138345  1
  Ta  Ta8  1  0.16589413  0.66239721  0.02261224  1
  Ta  Ta9  1  0.66873300  0.66737973  0.02085913  1
  Ta  Ta10  1  0.16755521  0.66702354  0.52221290  1
  Ta  Ta11  1  0.66863889  0.67184192  0.52046241  1
  Ta  Ta12  1  0.16714408  0.66780857  0.31395481  1
  Ta  Ta13  1  0.66282134  0.65680931  0.31260417  1
  Ta  Ta14  1  0.16236904  0.66554806  0.81471169  1
  Ta  Ta15  1  0.66325243  0.66882959  0.81337730  1
  Si  Si0  1  0.49490024  0.29129684  0.25429348  1
  Si  Si1  1  0.99553754  0.69946642  0.75377752  1
  Si  Si2  1  0.49600457  0.69866621  0.75471705  1
  Si  Si3  1  0.47801536  0.32998837  0.58465310  1
  Si  Si4  1  0.97741114  0.33086675  0.58556329  1
  Si  Si5  1  0.19178067  0.04687875  0.58802552  1
  Si  Si6  1  0.69274377  0.04516504  0.58714054  1
  Si  Si7  1  0.32947799  0.61696177  0.58558938  1
  Si  Si8  1  0.83160362  0.62032329  0.58521079  1
  Si  Si9  1  0.47759076  0.62490178  0.08532033  1
  Si  Si10  1  0.97808136  0.61601331  0.08697202  1
  Si  Si11  1  0.32812496  0.04120493  0.08560264  1
  Si  Si12  1  0.83353105  0.04654207  0.08597373  1
  Si  Si13  1  0.19359829  0.33914415  0.08785403  1
  Si  Si14  1  0.69132769  0.33990629  0.08644489  1
  Si  Si15  1  0.31056204  0.66586008  0.91600099  1
  Si  Si16  1  0.81098676  0.66451568  0.91483647  1
  Si  Si17  1  0.02012307  0.37407203  0.91710690  1
  Si  Si18  1  0.52016270  0.37546132  0.91679334  1
  Si  Si19  1  0.16777222  0.95951131  0.91777912  1
  Si  Si20  1  0.66793519  0.96058871  0.91731471  1
  Si  Si21  1  0.31190387  0.95836137  0.41670895  1
  Si  Si22  1  0.81091302  0.95762724  0.41386912  1
  Si  Si23  1  0.16758152  0.37735670  0.41649427  1
  Si  Si24  1  0.66780154  0.37592275  0.41737523  1
  Si  Si25  1  0.02073293  0.66587211  0.41663909  1
  Si  Si26  1  0.52029509  0.66516955  0.41622850  1
  S  S0  1  0.14418474  -0.00108431  0.25172048  1
  S  S1  1  0.64717662  0.00164331  0.25139049  1
  S  S2  1  0.35378486  0.70892997  0.25161819  1
  S  S3  1  0.85604570  0.71068285  0.25168615  1
  S  S4  1  0.99996286  0.29001388  0.25150865  1
  S  S5  1  0.14411558  0.29132371  0.75151306  1
  S  S6  1  0.64493789  0.29045659  0.75145931  1
  S  S7  1  0.35558227  0.99918710  0.75170934  1
  S  S8  1  0.85553621  0.99912307  0.75154887  1
  O  O0  1  0.10181718  0.01043040  0.30647288  1
  O  O1  1  0.60390148  0.01291139  0.30521352  1
  O  O2  1  0.40216525  0.79014378  0.30644632  1
  O  O3  1  0.90493662  0.79309385  0.30636014  1
  O  O4  1  0.49147179  0.18829459  0.31296251  1
  O  O5  1  0.99312437  0.19440383  0.30648702  1
  O  O6  1  0.10249147  0.19311927  0.80531131  1
  O  O7  1  0.60153943  0.19326038  0.80468978  1
  O  O8  1  0.49161841  0.79508813  0.81261617  1
  O  O9  1  0.99520097  0.79931592  0.81209977  1
  O  O10  1  0.40419590  0.01789753  0.80578788  1
  O  O11  1  0.90419793  0.01791498  0.80597250  1
  O  O12  1  0.40059991  0.98166492  0.69783976  1
  O  O13  1  0.90118020  0.97819076  0.69833058  1
  O  O14  1  0.08888401  0.20554579  0.69763830  1
  O  O15  1  0.59017877  0.20623598  0.69626465  1
  O  O16  1  0.01352488  0.83366478  0.69386738  1
  O  O17  1  0.50972172  0.82787457  0.69359565  1
  O  O18  1  0.39874531  0.82154251  0.19865400  1
  O  O19  1  0.90080171  0.82189505  0.19883083  1
  O  O20  1  0.01192655  0.20253236  0.19899134  1
  O  O21  1  0.50930687  0.19073719  0.19394417  1
  O  O22  1  0.08712606  0.97296602  0.19907971  1
  O  O23  1  0.59328416  0.97747948  0.19676219  1
  O  O24  1  0.44109332  0.38498331  0.63798438  1
  O  O25  1  0.94089836  0.38845457  0.63846581  1
  O  O26  1  0.24328795  0.11970796  0.64767116  1
  O  O27  1  0.74854492  0.12849824  0.64346533  1
  O  O28  1  0.31267216  0.50515971  0.64221378  1
  O  O29  1  0.80567106  0.49443605  0.63932801  1
  O  O30  1  0.44231631  0.49704340  0.13896682  1
  O  O31  1  0.93915217  0.50613548  0.14427101  1
  O  O32  1  0.31446991  0.12080301  0.14290636  1
  O  O33  1  0.80705803  0.11723790  0.14097913  1
  O  O34  1  0.24941069  0.37024345  0.14436567  1
  O  O35  1  0.74544911  0.36884757  0.14391030  1
  O  O36  1  0.23364436  0.30163974  0.02556761  1
  O  O37  1  0.73183085  0.29847253  0.02564343  1
  O  O38  1  0.41928636  0.53917559  0.02353974  1
  O  O39  1  0.91779023  0.53391443  0.02562370  1
  O  O40  1  0.35163338  0.16704748  0.02493459  1
  O  O41  1  0.84998455  0.16422058  0.02479454  1
  O  O42  1  0.23608942  0.16655566  0.52729833  1
  O  O43  1  0.73303668  0.16662366  0.52544255  1
  O  O44  1  0.35170766  0.53719238  0.52468503  1
  O  O45  1  0.85237808  0.53821392  0.52424750  1
  O  O46  1  0.41941892  0.30003207  0.52295655  1
  O  O47  1  0.91872587  0.29952471  0.52316556  1
  O  O48  1  0.26066754  0.68857846  0.97205647  1
  O  O49  1  0.76032463  0.68640321  0.97186441  1
  O  O50  1  0.08272056  0.46888494  0.97275809  1
  O  O51  1  0.58012791  0.46927483  0.97499897  1
  O  O52  1  0.15331031  0.82870715  0.97151716  1
  O  O53  1  0.65491581  0.83786236  0.97454475  1
  O  O54  1  0.26013594  0.83363100  0.47208247  1
  O  O55  1  0.76230902  0.83477557  0.47142991  1
  O  O56  1  0.15243277  0.47515463  0.47174629  1
  O  O57  1  0.65512093  0.47299750  0.47455295  1
  O  O58  1  0.08034620  0.69390895  0.47446900  1
  O  O59  1  0.58042398  0.69234927  0.47453028  1
  O  O60  1  0.06951160  0.63119057  0.35892857  1
  O  O61  1  0.56853309  0.62958866  0.35944488  1
  O  O62  1  0.24716418  0.86325571  0.35780829  1
  O  O63  1  0.74709029  0.86609375  0.35689112  1
  O  O64  1  0.18524555  0.50753379  0.35787350  1
  O  O65  1  0.68570616  0.50718878  0.36006424  1
  O  O66  1  0.06655023  0.50540392  0.85844528  1
  O  O67  1  0.56866470  0.50723054  0.85948491  1
  O  O68  1  0.18503485  0.86870209  0.85707041  1
  O  O69  1  0.68548863  0.86404834  0.85992577  1
  O  O70  1  0.24652393  0.63085903  0.85747032  1
  O  O71  1  0.74715616  0.62905035  0.85731662  1
  O  O72  1  0.00997500  0.83132120  0.40997177  1
  O  O73  1  0.51022520  0.83109784  0.40967946  1
  O  O74  1  0.40403922  0.97416728  0.41316686  1
  O  O75  1  0.90503530  0.98027222  0.41017802  1
  O  O76  1  0.08467872  0.19033649  0.40983965  1
  O  O77  1  0.58627420  0.18714150  0.41390357  1
  O  O78  1  0.00915474  0.18783802  0.90926987  1
  O  O79  1  0.51044460  0.18971932  0.91002684  1
  O  O80  1  0.08684160  0.98711438  0.91300775  1
  O  O81  1  0.58610552  0.98486047  0.91379147  1
  O  O82  1  0.40369697  0.83352406  0.91253333  1
  O  O83  1  0.90376177  0.83301303  0.91308982  1
  O  O84  1  0.49324709  0.16508105  0.59241124  1
  O  O85  1  0.98825149  0.16091875  0.59319562  1
  O  O86  1  0.09256484  0.02332295  0.59176305  1
  O  O87  1  0.59399702  0.02591283  0.59205857  1
  O  O88  1  0.41955139  0.81236599  0.59114084  1
  O  O89  1  0.91987678  0.81136646  0.59197559  1
  O  O90  1  0.49277070  0.82068446  0.09372236  1
  O  O91  1  0.98874251  0.81412858  0.09351986  1
  O  O92  1  0.41918444  0.02612752  0.09095444  1
  O  O93  1  0.91916242  0.02379986  0.09461614  1
  O  O94  1  0.09416400  0.16200335  0.09500322  1
  O  O95  1  0.59265774  0.16101259  0.09180941  1
  O  O96  1  0.34000153  0.14351127  0.74579109  1
  O  O97  1  0.84243597  0.14494972  0.74443754  1
  O  O98  1  0.22819796  0.30402616  0.74582802  1
  O  O99  1  0.72961424  0.30799583  0.74575764  1
  O  O100  1  0.41583865  0.51041233  0.74729680  1
  O  O101  1  0.91549384  0.51203757  0.74669249  1
  O  O102  1  0.34041688  0.53842233  0.24546030  1
  O  O103  1  0.84434555  0.53856974  0.24680129  1
  O  O104  1  0.41567617  0.32114538  0.24755873  1
  O  O105  1  0.92516271  0.31180209  0.24643019  1
  O  O106  1  0.22835963  0.14587802  0.24651879  1
  O  O107  1  0.73282223  0.15259892  0.24714781  1
  O  O108  1  0.31614276  0.48829874  0.92176732  1
  O  O109  1  0.81657778  0.48807964  0.92295984  1
  O  O110  1  0.42725492  0.36738161  0.92196204  1
  O  O111  1  0.92721239  0.36674650  0.92252948  1
  O  O112  1  0.25749658  0.14542049  0.92261914  1
  O  O113  1  0.75728730  0.14627730  0.92235686  1
  O  O114  1  0.31540896  0.14408024  0.42197950  1
  O  O115  1  0.81630093  0.14539957  0.42209183  1
  O  O116  1  0.25579233  0.36748067  0.42306113  1
  O  O117  1  0.75745816  0.36895388  0.42227622  1
  O  O118  1  0.42693141  0.48767463  0.42205568  1
  O  O119  1  0.92749765  0.48692886  0.42100453  1
  O  O120  1  0.17435666  0.49568751  0.07424908  1
  O  O121  1  0.66893603  0.49370410  0.07544552  1
  O  O122  1  0.07446925  0.65104010  0.07347894  1
  O  O123  1  0.57602838  0.65705365  0.07304654  1
  O  O124  1  0.25057014  0.84742178  0.07309582  1
  O  O125  1  0.75106311  0.85276705  0.07310980  1
  O  O126  1  0.17048815  0.84818092  0.57516970  1
  O  O127  1  0.66995434  0.84636554  0.57507499  1
  O  O128  1  0.25110890  0.65462652  0.57321433  1
  O  O129  1  0.75040443  0.65069171  0.57267028  1
  O  O130  1  0.07353320  0.49803750  0.57213483  1
  O  O131  1  0.57597906  0.49647011  0.57259117  1
  O  O132  1  0.14924489  0.83261354  0.25446333  1
  O  O133  1  0.65369442  0.83910903  0.25375588  1
  O  O134  1  0.26612819  0.70182562  0.25414967  1
  O  O135  1  0.76934186  0.70123499  0.25400170  1
  O  O136  1  0.08223284  0.46698424  0.25442833  1
  O  O137  1  0.59039417  0.48695676  0.25546765  1
  O  O138  1  0.15313240  0.46730099  0.75350998  1
  O  O139  1  0.65207150  0.46624480  0.75304338  1
  O  O140  1  0.09259365  0.69879644  0.75389390  1
  O  O141  1  0.59064592  0.69397064  0.75519711  1
  O  O142  1  0.26835827  0.83465091  0.75273155  1
  O  O143  1  0.76928132  0.83294398  0.75342737  1
loop_
_geom_bond_atom_site_label_1
_geom_bond_atom_site_label_2
_geom_bond_distance
_geom_bond_site_symmetry_2
Na0 O26 2.383282 1_555
Na0 O98 2.391595 1_555
Na0 O140 2.406628 1_545
Na0 O96 2.467384 1_555
Na0 O142 2.679234 1_545
Na0 O16 2.842192 1_545
Na0 O68 2.873383 1_545
Na1 O87 2.447016 1_555
Na1 O129 2.476105 1_555
Na1 O131 2.518067 1_555
Na1 O84 2.549458 1_555
Na1 O29 2.593985 1_555
Na1 O15 2.715444 1_555
Na1 O57 2.834755 1_555
Na1 O43 2.894658 1_555
Na2 O130 2.422724 1_555
Na2 O89 2.473070 1_455
Na2 O126 2.487114 1_555
Na2 O25 2.536406 1_455
Na2 O86 2.673319 1_565
Na2 O16 2.738309 1_555
Na2 O58 2.826736 1_555
Na2 O45 2.883804 1_455
Na3 O131 2.463426 1_555
Na3 O88 2.484009 1_555
Na3 O127 2.510162 1_555
Na3 O24 2.527033 1_555
Na3 O87 2.725849 1_565
Na3 O17 2.734634 1_555
Na3 O59 2.836402 1_555
Na3 O44 2.861877 1_555
Na4 O95 2.459858 1_565
Na4 O125 2.468019 1_555
Na4 O123 2.497357 1_555
Na4 O90 2.557204 1_555
Na4 O33 2.645366 1_565
Na4 O23 2.733074 1_555
Na4 O53 2.808400 1_554
Na4 O37 2.870438 1_565
Na5 O123 2.467891 1_555
Na5 O92 2.484478 1_555
Na5 O30 2.511496 1_555
Na5 O121 2.511549 1_555
Na5 O95 2.736127 1_555
Na5 O21 2.759325 1_555
Na5 O51 2.818921 1_554
Na5 O40 2.836178 1_555
Na6 O8 2.382349 1_555
Na6 O82 2.417739 1_555
Na6 O81 2.425798 1_555
Na6 O110 2.489589 1_555
Na6 O108 2.610841 1_555
Na6 O38 2.839534 1_556
Na6 O67 2.926104 1_555
Na7 O9 2.418958 1_555
Na7 O80 2.421999 1_655
Na7 O83 2.426267 1_555
Na7 O111 2.504775 1_555
Na7 O109 2.633890 1_555
Na7 O39 2.887154 1_556
Na7 O66 2.915784 1_655
Na7 O52 2.981113 1_655
Na8 O82 2.358868 1_545
Na8 O79 2.426737 1_555
Na8 O112 2.431496 1_555
Na8 O110 2.617252 1_555
Na8 O10 2.677752 1_555
Na8 O40 2.736548 1_556
Na8 O48 2.959823 1_545
Na8 O68 2.968744 1_545
Na9 O83 2.365585 1_545
Na9 O78 2.402267 1_655
Na9 O113 2.442348 1_555
Na9 O111 2.611286 1_555
Na9 O11 2.623363 1_555
Na9 O41 2.776497 1_556
Na9 O69 2.912184 1_545
Na9 O49 3.000676 1_545
Na10 O80 2.363320 1_545
Na10 O78 2.407626 1_555
Na10 O108 2.454525 1_555
Na10 O112 2.652273 1_555
Na10 O6 2.688796 1_555
Na10 O36 2.760184 1_556
Na10 O50 2.900823 1_555
Na10 O70 2.967841 1_555
Na11 O81 2.372814 1_545
Na11 O79 2.394540 1_555
Na11 O109 2.460071 1_555
Na11 O113 2.631695 1_555
Na11 O7 2.654163 1_555
Na11 O37 2.797866 1_556
Na11 O71 2.937611 1_555
Na11 O51 2.999317 1_555
Na12 O4 2.345881 1_555
Na12 O74 2.426677 1_545
Na12 O77 2.431614 1_555
Na12 O118 2.503376 1_555
Na12 O114 2.639631 1_555
Na12 O46 2.863213 1_555
Na12 O61 2.894526 1_555
Na13 O76 2.392160 1_655
Na13 O75 2.407897 1_545
Na13 O119 2.453749 1_555
Na13 O115 2.622449 1_555
Na13 O5 2.643895 1_555
Na13 O47 2.706682 1_555
Na13 O56 2.914969 1_655
Na13 O60 2.959310 1_655
Na14 O72 2.401282 1_545
Na14 O76 2.412830 1_555
Na14 O114 2.443032 1_555
Na14 O116 2.610766 1_555
Na14 O0 2.643887 1_555
Na14 O42 2.822268 1_555
Na14 O58 2.963069 1_545
Na14 O62 2.975447 1_545
Na15 O77 2.367607 1_555
Na15 O73 2.386747 1_545
Na15 O115 2.464303 1_555
Na15 O1 2.621439 1_555
Na15 O117 2.640885 1_555
Na15 O43 2.812352 1_555
Na15 O63 2.939242 1_545
Na15 O59 2.979210 1_545
Na16 O74 2.361948 1_555
Na16 O73 2.401550 1_555
Na16 O116 2.454230 1_555
Na16 O118 2.593232 1_555
Na16 O2 2.615852 1_555
Na16 O44 2.758272 1_555
Na17 O75 2.398757 1_555
Na17 O72 2.416671 1_655
Na17 O117 2.442135 1_555
Na17 O3 2.625104 1_555
Na17 O119 2.633773 1_555
Na17 O45 2.762551 1_555
Na17 O65 2.908789 1_555
Na17 O55 2.962004 1_555
Na18 O75 2.496060 1_545
Na18 O76 2.496061 1_655
Na18 O72 2.577267 1_645
Na18 O85 2.646893 1_555
Na18 O86 2.697457 1_655
Na18 O89 2.719358 1_545
Na19 O74 2.384248 1_545
Na19 O77 2.442578 1_555
Na19 O73 2.534776 1_545
Na19 O84 2.676631 1_555
Na19 O88 2.691823 1_545
Na19 O87 2.768369 1_555
Na20 O80 2.417753 1_555
Na20 O83 2.432080 1_455
Na20 O78 2.489850 1_565
Na20 O91 2.754205 1_456
Na20 O94 2.787538 1_566
Na20 O93 2.788157 1_466
Na21 O82 2.376233 1_555
Na21 O81 2.443442 1_555
Na21 O79 2.519559 1_565
Na21 O92 2.698598 1_566
Na21 O90 2.712293 1_556
Na21 O95 2.774392 1_566
Na22 O100 2.233951 1_555
Na22 O110 2.588680 1_555
Na22 O108 2.599797 1_555
Na22 O98 2.626926 1_555
Na22 O96 2.640421 1_555
Na22 O112 2.786396 1_555
Na23 O101 2.262606 1_555
Na23 O99 2.518591 1_555
Na23 O97 2.567404 1_555
Na23 O111 2.692550 1_555
Na23 O109 2.702423 1_555
Na23 O113 2.765383 1_555
Na24 O104 2.219710 1_555
Na24 O106 2.529787 1_555
Na24 O102 2.544973 1_555
Na24 O118 2.686459 1_555
Na24 O114 2.696606 1_555
Na24 O116 2.817635 1_555
Na25 O107 2.475779 1_555
Na25 O103 2.511225 1_555
Na25 O105 2.531899 1_555
Na25 O119 2.644595 1_555
Na25 O117 2.649806 1_555
Na25 O115 2.657363 1_555
Na26 O124 2.526231 1_555
Na26 O120 2.532176 1_555
Na26 O122 2.533202 1_555
Na26 O134 2.671682 1_555
Na26 O136 2.691944 1_555
Na26 O132 2.692615 1_555
Na27 O137 2.504177 1_555
Na27 O121 2.557690 1_555
Na27 O135 2.560431 1_555
Na27 O133 2.625839 1_555
Na27 O125 2.649497 1_555
Na27 O123 2.687498 1_555
Na28 O138 2.525647 1_555
Na28 O128 2.550962 1_555
Na28 O140 2.565831 1_555
Na28 O142 2.613947 1_555
Na28 O130 2.622530 1_555
Na28 O126 2.666783 1_555
Na29 O141 2.474833 1_555
Na29 O143 2.506207 1_555
Na29 O139 2.591450 1_555
Na29 O127 2.598284 1_555
Na29 O129 2.673107 1_555
Na29 O131 2.727089 1_555
Mg0 O72 2.048228 1_645
Mg0 O76 2.052826 1_655
Mg0 O75 2.055102 1_545
Mg0 O3 2.087381 1_545
Mg0 O0 2.093340 1_655
Mg0 O5 2.105509 1_555
Mg1 O4 1.940573 1_555
Mg1 O74 2.091312 1_545
Mg1 O77 2.095102 1_555
Mg1 O73 2.105799 1_545
Mg1 O2 2.136681 1_545
Mg1 O1 2.142871 1_555
Mg2 O9 1.951881 1_555
Mg2 O83 2.061465 1_555
Mg2 O78 2.083664 1_665
Mg2 O80 2.085375 1_655
Mg2 O11 2.123426 1_565
Mg2 O6 2.151068 1_665
Mg3 O8 1.949359 1_555
Mg3 O82 2.068112 1_555
Mg3 O81 2.081988 1_555
Mg3 O79 2.103284 1_565
Mg3 O7 2.136202 1_565
Mg3 O10 2.139758 1_565
Mg4 O28 1.945953 1_555
Mg4 O24 1.956756 1_555
Mg4 O100 2.023944 1_555
Mg4 O26 2.074673 1_555
Mg4 O96 2.319998 1_555
Mg4 O98 2.333207 1_555
Mg5 O25 1.974882 1_555
Mg5 O29 1.997889 1_555
Mg5 O27 2.002892 1_555
Mg5 O101 2.038106 1_555
Mg5 O97 2.276463 1_555
Mg5 O99 2.287573 1_555
Mg6 O32 1.952243 1_555
Mg6 O30 1.971995 1_555
Mg6 O34 1.993698 1_555
Mg6 O104 2.051176 1_555
Mg6 O102 2.313616 1_555
Mg6 O106 2.341608 1_555
Mg7 O31 1.930493 1_555
Mg7 O35 1.937792 1_555
Mg7 O33 1.966178 1_555
Mg7 O107 2.295536 1_555
Mg7 O105 2.310919 1_555
Mg7 O103 2.311543 1_555
O0 S0 1.481871 1_555
O1 S1 1.472898 1_555
O2 S2 1.476186 1_555
O3 S3 1.478607 1_555
O4 Si0 1.597264 1_555
O5 S4 1.477302 1_555
O6 S5 1.465958 1_555
O7 S6 1.459472 1_555
O8 Si2 1.590889 1_555
O9 Si1 1.593985 1_555
O10 S7 1.458944 1_545
O11 S8 1.465769 1_545
O12 S7 1.511782 1_555
O12 Ta1 2.117885 1_555
O13 S8 1.518617 1_555
O13 Ta0 2.116637 1_655
O14 S5 1.512212 1_555
O14 Ta0 2.135986 1_545
O15 S6 1.530344 1_555
O15 Ta1 2.157566 1_545
O16 Si1 1.729770 1_455
O16 Ta0 1.944388 1_555
O17 Si2 1.737846 1_555
O17 Ta1 1.898888 1_555
O18 S2 1.511641 1_555
O18 Ta3 2.128595 1_565
O19 S3 1.503930 1_555
O19 Ta2 2.164412 1_655
O20 S4 1.495893 1_455
O20 Ta2 2.195536 1_545
O21 Si0 1.724030 1_555
O21 Ta3 1.907486 1_555
O22 S0 1.507663 1_565
O22 Ta2 2.134577 1_555
O23 S1 1.513001 1_565
O23 Ta3 2.226988 1_565
O24 Si3 1.569325 1_555
O25 Si4 1.570114 1_555
O26 Si5 1.576101 1_555
O27 Si6 1.557209 1_555
O28 Si7 1.557393 1_555
O29 Si8 1.567643 1_555
O30 Si9 1.567142 1_555
O31 Si10 1.562588 1_555
O32 Si11 1.555184 1_555
O33 Si12 1.572843 1_555
O34 Si13 1.557000 1_555
O35 Si14 1.560833 1_555
O36 Si13 1.688154 1_555
O36 Ta4 1.927548 1_554
O37 Si14 1.680107 1_555
O37 Ta5 1.975087 1_554
O38 Si9 1.679422 1_555
O38 Ta4 1.944098 1_554
O39 Si10 1.681724 1_555
O39 Ta5 1.925095 1_554
O40 Si11 1.687876 1_555
O40 Ta4 1.967299 1_554
O41 Si12 1.671450 1_555
O41 Ta5 1.957521 1_554
O42 Si5 1.675754 1_555
O42 Ta6 1.937676 1_555
O43 Si6 1.690923 1_555
O43 Ta7 1.949912 1_555
O44 Si7 1.687793 1_555
O44 Ta6 1.961822 1_555
O45 Si8 1.688690 1_555
O45 Ta7 1.970142 1_555
O46 Si3 1.682044 1_555
O46 Ta6 1.934687 1_555
O47 Si4 1.694119 1_555
O47 Ta7 1.930037 1_555
O48 Si15 1.621981 1_555
O48 Ta8 1.966196 1_556
O49 Si16 1.644612 1_555
O49 Ta9 1.920512 1_556
O50 Si17 1.613765 1_555
O50 Ta8 1.980284 1_556
O51 Si18 1.637776 1_555
O51 Ta9 1.984645 1_556
O52 Si19 1.615814 1_555
O52 Ta8 1.988128 1_556
O53 Si20 1.636011 1_555
O53 Ta9 1.970642 1_556
O54 Si21 1.624153 1_555
O54 Ta10 1.949461 1_555
O55 Si22 1.643599 1_555
O55 Ta11 1.933729 1_555
O56 Si23 1.625132 1_555
O56 Ta10 1.969357 1_555
O57 Si24 1.636011 1_555
O57 Ta11 1.973798 1_555
O58 Si25 1.624308 1_555
O58 Ta10 2.013991 1_555
O59 Si26 1.639609 1_555
O59 Ta11 1.978893 1_555
O60 Si25 1.684372 1_555
O60 Ta12 1.910127 1_555
O61 Si26 1.665918 1_555
O61 Ta13 1.908613 1_555
O62 Si21 1.688128 1_555
O62 Ta12 1.898569 1_555
O63 Si22 1.641872 1_555
O63 Ta13 1.994885 1_555
O64 Si23 1.686223 1_555
O64 Ta12 1.906113 1_555
O65 Si24 1.668494 1_555
O65 Ta13 1.917878 1_555
O66 Si17 1.689112 1_555
O66 Ta14 1.880208 1_555
O67 Si18 1.673031 1_555
O67 Ta15 1.901341 1_555
O68 Si19 1.700570 1_555
O68 Ta14 1.916450 1_555
O69 Si20 1.674435 1_555
O69 Ta15 1.908532 1_555
O70 Si15 1.673294 1_555
O70 Ta14 1.946855 1_555
O71 Si16 1.652534 1_555
O71 Ta15 1.981653 1_555
O72 Si25 1.601534 1_555
O73 Si26 1.598327 1_555
O74 Si21 1.594308 1_555
O75 Si22 1.604384 1_555
O76 Si23 1.601670 1_555
O77 Si24 1.596199 1_555
O78 Si17 1.595971 1_555
O79 Si18 1.598287 1_555
O80 Si19 1.599410 1_555
O81 Si20 1.595680 1_555
O82 Si15 1.599796 1_555
O83 Si16 1.597791 1_555
O84 Si3 1.647659 1_555
O84 Ta1 2.023923 1_545
O85 Si4 1.644606 1_555
O85 Ta0 1.973970 1_645
O86 Si5 1.692168 1_555
O86 Ta0 1.937124 1_545
O87 Si6 1.701320 1_555
O87 Ta1 1.964932 1_545
O88 Si7 1.697031 1_555
O88 Ta1 1.935016 1_555
O89 Si8 1.663281 1_555
O89 Ta0 1.949851 1_655
O90 Si9 1.652878 1_555
O90 Ta3 2.005032 1_565
O91 Si10 1.701176 1_555
O91 Ta2 1.878642 1_655
O92 Si11 1.715395 1_555
O92 Ta3 1.909236 1_555
O93 Si12 1.664789 1_555
O93 Ta2 1.903047 1_645
O94 Si13 1.706692 1_555
O94 Ta2 1.876069 1_545
O95 Si14 1.701972 1_555
O95 Ta3 1.958338 1_555
O96 S7 1.465461 1_545
O97 S8 1.453531 1_545
O98 S5 1.465585 1_555
O99 S6 1.457624 1_555
O100 Si2 1.590808 1_555
O101 Si1 1.584684 1_555
O102 S2 1.435746 1_555
O103 S3 1.458867 1_555
O104 Si0 1.585085 1_555
O105 S4 1.459087 1_555
O106 S0 1.432276 1_555
O107 S1 1.460636 1_555
O108 Si15 1.655359 1_555
O108 Ta4 2.054626 1_555
O109 Si16 1.650385 1_555
O109 Ta5 2.043392 1_555
O110 Si18 1.641669 1_555
O110 Ta4 2.075304 1_555
O111 Si17 1.645318 1_655
O111 Ta5 2.042973 1_555
O112 Si19 1.646824 1_545
O112 Ta4 2.060212 1_555
O113 Si20 1.642931 1_545
O113 Ta5 2.066739 1_555
O114 Si21 1.644792 1_545
O114 Ta6 2.056600 1_555
O115 Si22 1.653680 1_545
O115 Ta7 2.040132 1_555
O116 Si23 1.640848 1_555
O116 Ta6 2.069734 1_555
O117 Si24 1.649921 1_555
O117 Ta7 2.061719 1_555
O118 Si26 1.644377 1_555
O118 Ta6 2.054860 1_555
O119 Si25 1.646861 1_655
O119 Ta7 2.067512 1_555
O120 Si13 1.638938 1_555
O120 Ta8 1.962925 1_555
O121 Si14 1.642339 1_555
O121 Ta9 1.989441 1_555
O122 Si10 1.629769 1_455
O122 Ta8 1.966987 1_555
O123 Si9 1.669787 1_555
O123 Ta9 2.006500 1_555
O124 Si11 1.621644 1_565
O124 Ta8 1.960718 1_555
O125 Si12 1.653601 1_565
O125 Ta9 1.971325 1_555
O126 Si5 1.655660 1_565
O126 Ta10 1.999885 1_555
O127 Si6 1.645352 1_565
O127 Ta11 1.986383 1_555
O128 Si7 1.631256 1_555
O128 Ta10 1.938737 1_555
O129 Si8 1.640237 1_555
O129 Ta11 1.965273 1_555
O130 Si4 1.655788 1_455
O130 Ta10 1.966309 1_555
O131 Si3 1.667968 1_555
O131 Ta11 2.004396 1_555
O132 S0 1.545253 1_565
O132 Ta12 2.138790 1_555
O133 S1 1.525566 1_565
O133 Ta13 2.177666 1_555
O134 S2 1.548149 1_555
O134 Ta12 2.131644 1_555
O135 S3 1.521062 1_555
O135 Ta13 2.195070 1_555
O136 S4 1.539699 1_455
O136 Ta12 2.151963 1_555
O137 Si0 1.738791 1_555
O137 Ta13 1.922138 1_555
O138 S5 1.509407 1_555
O138 Ta14 2.194630 1_555
O139 S6 1.521942 1_555
O139 Ta15 2.201361 1_555
O140 Si1 1.750298 1_455
O140 Ta14 1.978958 1_555
O141 Si2 1.725372 1_555
O141 Ta15 1.941439 1_555
O142 S7 1.526141 1_555
O142 Ta14 2.236397 1_555
O143 S8 1.524070 1_555
O143 Ta15 2.197420 1_555
