# generated using pymatgen
data_Ta3AlSi3(SO8)3
_symmetry_space_group_name_H-M   'P 1'
_cell_length_a   8.75604601
_cell_length_b   8.78002399
_cell_length_c   22.59828144
_cell_angle_alpha   89.69169358
_cell_angle_beta   89.21537604
_cell_angle_gamma   119.83782669
_symmetry_Int_Tables_number   1
_chemical_formula_structural   Ta3AlSi3(SO8)3
_chemical_formula_sum   'Ta9 Al3 Si9 S9 O72'
_cell_volume   1506.72337449
_cell_formula_units_Z   3
loop_
 _symmetry_equiv_pos_site_id
 _symmetry_equiv_pos_as_xyz
  1  'x, y, z'
loop_
 _atom_site_type_symbol
 _atom_site_label
 _atom_site_symmetry_multiplicity
 _atom_site_fract_x
 _atom_site_fract_y
 _atom_site_fract_z
 _atom_site_occupancy
  Ta  Ta0  1  0.00933974  0.98902456  0.85608045  1
  Ta  Ta1  1  0.01395946  0.01531014  0.64561167  1
  Ta  Ta2  1  0.99784755  0.99458367  0.14025555  1
  Ta  Ta3  1  0.67689877  0.33949998  0.97460320  1
  Ta  Ta4  1  0.66904038  0.32306905  0.47397970  1
  Ta  Ta5  1  0.34281653  0.68782307  0.02608434  1
  Ta  Ta6  1  0.33455174  0.65245863  0.52360905  1
  Ta  Ta7  1  0.34348624  0.67034399  0.31097663  1
  Ta  Ta8  1  0.34056034  0.66956450  0.80643718  1
  Al  Al0  1  0.00527399  0.01515455  0.35881148  1
  Al  Al1  1  0.68532943  0.34719938  0.69688584  1
  Al  Al2  1  0.67499116  0.32502610  0.18472905  1
  Si  Si0  1  0.30425384  0.28876953  0.74890920  1
  Si  Si1  1  0.99403294  0.70480319  0.74786500  1
  Si  Si2  1  0.93957121  0.33322622  0.58778547  1
  Si  Si3  1  0.94346657  0.60240659  0.08690903  1
  Si  Si4  1  0.66585903  0.05920015  0.08749129  1
  Si  Si5  1  0.61653660  0.66904734  0.91576595  1
  Si  Si6  1  0.34002096  0.95493295  0.91562887  1
  Si  Si7  1  0.62867729  0.94694072  0.41501973  1
  Si  Si8  1  0.32733517  0.36934856  0.41532003  1
  S  S0  1  0.28741459  0.00879285  0.25139417  1
  S  S1  1  0.72047144  0.70873108  0.25094560  1
  S  S2  1  0.99310779  0.28317781  0.25105823  1
  S  S3  1  0.71699963  0.00851041  0.74899481  1
  S  S4  1  0.38436371  0.04664989  0.58385836  1
  S  S5  1  0.67028806  0.61725977  0.58461922  1
  S  S6  1  0.38861577  0.33638701  0.08653707  1
  S  S7  1  0.05349932  0.38171367  0.91621295  1
  S  S8  1  0.04989663  0.67570844  0.41522984  1
  O  O0  1  0.19620301  0.02612062  0.30391416  1
  O  O1  1  0.82760700  0.79212727  0.30226336  1
  O  O2  1  0.96841509  0.17155096  0.30337817  1
  O  O3  1  0.19400521  0.16505889  0.80595292  1
  O  O4  1  0.96876199  0.80567313  0.80607517  1
  O  O5  1  0.82205376  0.03464973  0.80189151  1
  O  O6  1  0.79904873  0.97386823  0.69582888  1
  O  O7  1  0.16673728  0.19834051  0.69178964  1
  O  O8  1  0.02609199  0.83702541  0.69080087  1
  O  O9  1  0.80064149  0.82612978  0.19732053  1
  O  O10  1  0.03217518  0.20735092  0.19794506  1
  O  O11  1  0.17629830  0.97695421  0.19821246  1
  O  O12  1  0.83764035  0.35350197  0.64226723  1
  O  O13  1  0.48671783  0.12029946  0.63519240  1
  O  O14  1  0.63112128  0.50757107  0.63662876  1
  O  O15  1  0.85156920  0.49683437  0.14625900  1
  O  O16  1  0.62730869  0.13559494  0.14576485  1
  O  O17  1  0.49259148  0.36237275  0.13945210  1
  O  O18  1  0.45803267  0.29805871  0.03245627  1
  O  O19  1  0.82623858  0.52814518  0.02765983  1
  O  O20  1  0.70021962  0.17409437  0.02757253  1
  O  O21  1  0.46286680  0.15932045  0.52866021  1
  O  O22  1  0.69425823  0.53924561  0.52969719  1
  O  O23  1  0.82863103  0.31160593  0.52643718  1
  O  O24  1  0.51684713  0.68428476  0.97512091  1
  O  O25  1  0.15493014  0.45652428  0.96972009  1
  O  O26  1  0.30136743  0.83203527  0.97551998  1
  O  O27  1  0.52158915  0.82799626  0.47293038  1
  O  O28  1  0.29651448  0.46910052  0.47269002  1
  O  O29  1  0.15731763  0.70239794  0.46799732  1
  O  O30  1  0.12817826  0.63557244  0.36207569  1
  O  O31  1  0.49247103  0.85844128  0.35794320  1
  O  O32  1  0.36050321  0.50543481  0.35829229  1
  O  O33  1  0.13086162  0.49229500  0.86275324  1
  O  O34  1  0.36578477  0.85944184  0.85894970  1
  O  O35  1  0.49531150  0.63514901  0.85851361  1
  O  O36  1  0.02993857  0.82758817  0.40344743  1
  O  O37  1  0.81171401  0.96184661  0.39956492  1
  O  O38  1  0.16692557  0.18315211  0.40117787  1
  O  O39  1  0.02549429  0.20436257  0.90778504  1
  O  O40  1  0.16561879  0.97553423  0.90898421  1
  O  O41  1  0.80370607  0.84753530  0.90560349  1
  O  O42  1  0.96651940  0.16182292  0.59361236  1
  O  O43  1  0.20475545  0.02885775  0.58824277  1
  O  O44  1  0.82178680  0.79594548  0.59019561  1
  O  O45  1  0.98066696  0.80859395  0.09761932  1
  O  O46  1  0.84070832  0.03349666  0.09809208  1
  O  O47  1  0.20791121  0.17468302  0.09621387  1
  O  O48  1  0.68966250  0.15588241  0.73967078  1
  O  O49  1  0.48155239  0.29455060  0.73133433  1
  O  O50  1  0.82596566  0.51918180  0.74160007  1
  O  O51  1  0.68791279  0.53141526  0.24125160  1
  O  O52  1  0.83716635  0.30219615  0.24304805  1
  O  O53  1  0.46209595  0.16391458  0.24245311  1
  O  O54  1  0.64304115  0.50026975  0.92745535  1
  O  O55  1  0.87562616  0.36724815  0.92248274  1
  O  O56  1  0.50769706  0.14585468  0.92862496  1
  O  O57  1  0.64252773  0.14021640  0.42538932  1
  O  O58  1  0.50849004  0.36894890  0.42981164  1
  O  O59  1  0.87294964  0.51599310  0.42416315  1
  O  O60  1  0.35719503  0.48399116  0.07793970  1
  O  O61  1  0.13587637  0.62224875  0.07474265  1
  O  O62  1  0.50234383  0.85860910  0.07716977  1
  O  O63  1  0.35796059  0.86848351  0.57205529  1
  O  O64  1  0.50714048  0.63828892  0.57517064  1
  O  O65  1  0.13645588  0.50636837  0.57306982  1
  O  O66  1  0.30301925  0.84563504  0.25861850  1
  O  O67  1  0.54056237  0.69933132  0.25697094  1
  O  O68  1  0.15229468  0.46332641  0.25927696  1
  O  O69  1  0.31512526  0.47804931  0.75935107  1
  O  O70  1  0.17386062  0.69765701  0.75987509  1
  O  O71  1  0.54231572  0.84408885  0.75439983  1
loop_
_geom_bond_atom_site_label_1
_geom_bond_atom_site_label_2
_geom_bond_distance
_geom_bond_site_symmetry_2
Al0 O38 1.752292 1_555
Al0 O37 1.761504 1_445
Al0 O2 1.998137 1_455
Al0 O36 2.029331 1_545
Al0 O0 2.030990 1_555
Al0 O1 2.222076 1_445
Al1 O50 1.737161 1_555
Al1 O49 1.772203 1_555
Al1 O12 1.784901 1_555
Al1 O48 1.950598 1_555
Al1 O14 2.173549 1_555
Al1 O13 2.363384 1_555
Al2 O15 1.746430 1_555
Al2 O16 1.746635 1_555
Al2 O52 2.031048 1_555
Al2 O17 2.065774 1_555
Al2 O53 2.113558 1_555
Al2 O51 2.180112 1_555
O0 S0 1.471912 1_555
O1 S1 1.454804 1_555
O2 S2 1.474757 1_555
O3 Si0 1.637342 1_555
O3 Ta0 1.931500 1_545
O4 Si1 1.662318 1_555
O4 Ta0 1.859079 1_655
O5 S3 1.466535 1_555
O5 Ta0 2.247821 1_645
O6 S3 1.499963 1_565
O6 Ta1 2.053533 1_665
O7 Si0 1.687806 1_555
O7 Ta1 1.837952 1_555
O8 Si1 1.655039 1_455
O8 Ta1 1.911983 1_565
O9 S1 1.505664 1_555
O9 Ta2 2.051653 1_555
O10 S2 1.491601 1_455
O10 Ta2 2.181269 1_445
O11 S0 1.494694 1_565
O11 Ta2 2.115504 1_455
O12 Si2 1.573047 1_555
O13 S4 1.423711 1_555
O14 S5 1.440356 1_555
O15 Si3 1.587567 1_555
O16 Si4 1.587656 1_555
O17 S6 1.461806 1_555
O18 S6 1.471028 1_555
O18 Ta3 2.178674 1_554
O19 Si3 1.628656 1_555
O19 Ta3 1.949340 1_554
O20 Si4 1.616711 1_555
O20 Ta3 1.966393 1_554
O21 S4 1.514481 1_555
O21 Ta4 2.046947 1_555
O22 S5 1.482815 1_555
O22 Ta4 2.202944 1_555
O23 Si2 1.660687 1_555
O23 Ta4 1.884711 1_555
O24 Si5 1.632495 1_555
O24 Ta5 1.910183 1_556
O25 S7 1.462795 1_555
O25 Ta5 2.283359 1_556
O26 Si6 1.648939 1_555
O26 Ta5 1.869146 1_556
O27 Si7 1.630875 1_555
O27 Ta6 1.946023 1_555
O28 Si8 1.660888 1_555
O28 Ta6 1.877130 1_555
O29 S8 1.475111 1_555
O29 Ta6 2.214614 1_555
O30 S8 1.503075 1_555
O30 Ta7 2.084385 1_555
O31 Si7 1.679451 1_555
O31 Ta7 1.862432 1_555
O32 Si8 1.673525 1_555
O32 Ta7 1.861268 1_555
O33 S7 1.473609 1_555
O33 Ta8 2.117635 1_555
O34 Si6 1.608186 1_555
O34 Ta8 1.974437 1_555
O35 Si5 1.617585 1_555
O35 Ta8 1.938963 1_555
O36 S8 1.452247 1_555
O37 Si7 1.575798 1_555
O38 Si8 1.574965 1_555
O39 S7 1.464794 1_555
O39 Ta0 2.173032 1_545
O40 Si6 1.633422 1_555
O40 Ta0 1.876267 1_555
O41 Si5 1.620068 1_555
O41 Ta0 1.934351 1_655
O42 Si2 1.640089 1_555
O42 Ta1 1.933135 1_655
O43 S4 1.502855 1_555
O43 Ta1 2.056003 1_555
O44 S5 1.473998 1_555
O44 Ta1 2.228888 1_665
O45 Si3 1.691764 1_555
O45 Ta2 1.842306 1_555
O46 Si4 1.674969 1_555
O46 Ta2 1.848767 1_545
O47 S6 1.522781 1_555
O47 Ta2 1.978087 1_445
O48 S3 1.443120 1_555
O49 Si0 1.573166 1_555
O50 Si1 1.569515 1_555
O51 S1 1.454900 1_555
O52 S2 1.469142 1_555
O53 S0 1.466579 1_555
O54 Si5 1.630726 1_555
O54 Ta3 1.903808 1_555
O55 S7 1.502940 1_655
O55 Ta3 1.998351 1_555
O56 Si6 1.618597 1_545
O56 Ta3 1.928693 1_555
O57 Si7 1.658185 1_545
O57 Ta4 1.868738 1_555
O58 Si8 1.625744 1_555
O58 Ta4 1.931932 1_555
O59 S8 1.494689 1_655
O59 Ta4 2.058961 1_555
O60 S6 1.465102 1_555
O60 Ta5 2.190340 1_555
O61 Si3 1.624516 1_455
O61 Ta5 1.929858 1_555
O62 Si4 1.646349 1_565
O62 Ta5 1.873741 1_555
O63 S4 1.489278 1_565
O63 Ta6 2.116536 1_555
O64 S5 1.546211 1_555
O64 Ta6 1.972470 1_555
O65 Si2 1.662685 1_455
O65 Ta6 1.902822 1_555
O66 S0 1.513384 1_565
O66 Ta7 2.104465 1_555
O67 S1 1.539977 1_555
O67 Ta7 2.008460 1_555
O68 S2 1.515097 1_455
O68 Ta7 2.125977 1_555
O69 Si0 1.635239 1_555
O69 Ta8 1.913739 1_555
O70 Si1 1.633013 1_455
O70 Ta8 1.922514 1_555
O71 S3 1.494725 1_565
O71 Ta8 2.020326 1_555
