# generated using pymatgen
data_MgMo2H4(Cl2O3)2
_symmetry_space_group_name_H-M   'P 1'
_cell_length_a   9.87249232
_cell_length_b   3.77338205
_cell_length_c   7.59018458
_cell_angle_alpha   90.33308453
_cell_angle_beta   88.92906363
_cell_angle_gamma   90.34395280
_symmetry_Int_Tables_number   1
_chemical_formula_structural   MgMo2H4(Cl2O3)2
_chemical_formula_sum   'Mg1 Mo2 H4 Cl4 O6'
_cell_volume   282.69567605
_cell_formula_units_Z   1
loop_
 _symmetry_equiv_pos_site_id
 _symmetry_equiv_pos_as_xyz
  1  'x, y, z'
loop_
 _atom_site_type_symbol
 _atom_site_label
 _atom_site_symmetry_multiplicity
 _atom_site_fract_x
 _atom_site_fract_y
 _atom_site_fract_z
 _atom_site_occupancy
  Mg  Mg0  1  0.15264400  0.70648000  0.47535600  1
  Mo  Mo0  1  0.50628300  0.79003200  0.80630700  1
  Mo  Mo1  1  0.97950100  0.20583500  0.26919900  1
  H  H0  1  0.59593300  0.77308900  0.43381900  1
  H  H1  1  0.45765500  0.97304700  0.43136600  1
  H  H2  1  0.89621100  0.13875300  0.90721800  1
  H  H3  1  0.05636500  0.10882400  0.90865500  1
  Cl  Cl0  1  0.74538000  0.78627400  0.76444400  1
  Cl  Cl1  1  0.24663400  0.77875300  0.76673200  1
  Cl  Cl2  1  0.74467100  0.20572700  0.25633500  1
  Cl  Cl3  1  0.27560300  0.21444000  0.31089800  1
  O  O0  1  0.50657300  0.78377200  0.49152500  1
  O  O1  1  0.97813100  0.21437600  0.97046300  1
  O  O2  1  0.49595700  0.79263300  0.03012500  1
  O  O3  1  0.01964500  0.24140000  0.50652400  1
  O  O4  1  0.50097900  0.28975200  0.76069100  1
  O  O5  1  0.03469200  0.71347900  0.24237200  1
loop_
_geom_bond_atom_site_label_1
_geom_bond_atom_site_label_2
_geom_bond_distance
_geom_bond_site_symmetry_2
Mg0 O5 2.135839 1_555
Mg0 O3 2.196663 1_555
Mg0 O3 2.422570 1_565
Mo0 O2 1.699948 1_556
Mo0 O4 1.917838 1_555
Mo0 O4 1.920336 1_565
Mo0 O0 2.389181 1_555
Mo1 O3 1.855571 1_655
Mo1 O5 1.947704 1_645
Mo1 O5 1.998869 1_655
Mo1 O1 2.268172 1_554
H0 O0 0.978536 1_555
H1 O0 0.983870 1_555
H2 O1 0.987978 1_555
H3 O1 0.981450 1_455
Cl0 Mo0 2.375996 1_555
Cl1 Mg0 2.427597 1_555
Cl1 Mo0 2.586561 1_555
Cl2 Mo1 2.322233 1_555
Cl3 Mg0 2.534243 1_555
Cl3 Mg0 2.578533 1_545
