# generated using pymatgen
data_AgO
_symmetry_space_group_name_H-M   'P 1'
_cell_length_a   3.30939580
_cell_length_b   3.30939580
_cell_length_c   5.58085064
_cell_angle_alpha   90.00000000
_cell_angle_beta   90.00000000
_cell_angle_gamma   90.32955786
_symmetry_Int_Tables_number   1
_chemical_formula_structural   AgO
_chemical_formula_sum   'Ag2 O2'
_cell_volume   61.12102638
_cell_formula_units_Z   2
loop_
 _symmetry_equiv_pos_site_id
 _symmetry_equiv_pos_as_xyz
  1  'x, y, z'
loop_
 _atom_site_type_symbol
 _atom_site_label
 _atom_site_symmetry_multiplicity
 _atom_site_fract_x
 _atom_site_fract_y
 _atom_site_fract_z
 _atom_site_occupancy
  Ag  Ag0  1  0.50000000  -0.00000000  -0.00000000  1
  Ag  Ag1  1  -0.00000000  0.50000000  0.50000000  1
  O  O0  1  -0.00000000  0.00000000  0.75000000  1
  O  O1  1  0.00000000  -0.00000000  0.25000000  1
loop_
_geom_bond_atom_site_label_1
_geom_bond_atom_site_label_2
_geom_bond_distance
_geom_bond_site_symmetry_2
Ag0 O0 2.164404 1_654
Ag0 O1 2.164404 1_655
Ag0 O1 2.164404 1_555
Ag0 O0 2.164404 1_554
Ag1 O1 2.164404 1_555
Ag1 O0 2.164404 1_555
Ag1 O0 2.164404 1_565
Ag1 O1 2.164404 1_565
