# generated using pymatgen
data_CsSbSI2
_symmetry_space_group_name_H-M   'P 1'
_cell_length_a   11.52643100
_cell_length_b   11.46993100
_cell_length_c   12.35774400
_cell_angle_alpha   90.00000000
_cell_angle_beta   90.00000000
_cell_angle_gamma   90.00000000
_symmetry_Int_Tables_number   1
_chemical_formula_structural   CsSbSI2
_chemical_formula_sum   'Cs8 Sb8 S8 I16'
_cell_volume   1633.78481170
_cell_formula_units_Z   8
loop_
 _symmetry_equiv_pos_site_id
 _symmetry_equiv_pos_as_xyz
  1  'x, y, z'
loop_
 _atom_site_type_symbol
 _atom_site_label
 _atom_site_symmetry_multiplicity
 _atom_site_fract_x
 _atom_site_fract_y
 _atom_site_fract_z
 _atom_site_occupancy
  Cs  Cs0  1  0.00000000  0.25750100  0.25000000  1
  Cs  Cs1  1  0.00000000  0.74249900  0.25000000  1
  Cs  Cs2  1  0.00000000  0.74249900  0.75000000  1
  Cs  Cs3  1  0.00000000  0.25750100  0.75000000  1
  Cs  Cs4  1  0.50000000  0.75750100  0.25000000  1
  Cs  Cs5  1  0.50000000  0.24249900  0.25000000  1
  Cs  Cs6  1  0.50000000  0.24249900  0.75000000  1
  Cs  Cs7  1  0.50000000  0.75750100  0.75000000  1
  Sb  Sb0  1  0.21718800  0.96984100  0.00000000  1
  Sb  Sb1  1  0.21718800  0.03015900  0.50000000  1
  Sb  Sb2  1  0.78281200  0.96984100  0.50000000  1
  Sb  Sb3  1  0.78281200  0.03015900  0.00000000  1
  Sb  Sb4  1  0.71718800  0.46984100  0.00000000  1
  Sb  Sb5  1  0.71718800  0.53015900  0.50000000  1
  Sb  Sb6  1  0.28281200  0.46984100  0.50000000  1
  Sb  Sb7  1  0.28281200  0.53015900  0.00000000  1
  S  S0  1  0.25000000  0.75000000  0.00000000  1
  S  S1  1  0.25000000  0.25000000  0.50000000  1
  S  S2  1  0.75000000  0.75000000  0.50000000  1
  S  S3  1  0.75000000  0.25000000  0.00000000  1
  S  S4  1  0.00000000  0.00000000  0.00000000  1
  S  S5  1  0.00000000  0.00000000  0.50000000  1
  S  S6  1  0.50000000  0.50000000  0.00000000  1
  S  S7  1  0.50000000  0.50000000  0.50000000  1
  I  I0  1  0.00000000  0.50000000  0.00000000  1
  I  I1  1  0.00000000  0.50000000  0.50000000  1
  I  I2  1  0.50000000  0.00000000  0.00000000  1
  I  I3  1  0.50000000  0.00000000  0.50000000  1
  I  I4  1  0.23835800  0.00000000  0.25000000  1
  I  I5  1  0.76164200  0.00000000  0.25000000  1
  I  I6  1  0.76164200  0.00000000  0.75000000  1
  I  I7  1  0.23835800  0.00000000  0.75000000  1
  I  I8  1  0.73835800  0.50000000  0.25000000  1
  I  I9  1  0.26164200  0.50000000  0.25000000  1
  I  I10  1  0.26164200  0.50000000  0.75000000  1
  I  I11  1  0.73835800  0.50000000  0.75000000  1
  I  I12  1  0.25000000  0.25000000  0.00000000  1
  I  I13  1  0.25000000  0.75000000  0.50000000  1
  I  I14  1  0.75000000  0.25000000  0.50000000  1
  I  I15  1  0.75000000  0.75000000  0.00000000  1
loop_
_geom_bond_atom_site_label_1
_geom_bond_atom_site_label_2
_geom_bond_distance
_geom_bond_site_symmetry_2
Cs0 I5 4.033804 1_455
Cs0 I4 4.033804 1_555
Cs0 I9 4.102619 1_555
Cs0 I8 4.102619 1_455
Cs0 I1 4.157050 1_555
Cs0 I0 4.157050 1_555
Cs0 I12 4.225598 1_555
Cs0 I14 4.225598 1_455
Cs1 I4 4.033804 1_565
Cs1 I5 4.033804 1_465
Cs1 I9 4.102619 1_555
Cs1 I8 4.102619 1_455
Cs1 I1 4.157050 1_555
Cs1 I0 4.157050 1_555
Cs1 I15 4.225598 1_455
Cs1 I13 4.225598 1_555
Cs2 I6 4.033804 1_465
Cs2 I7 4.033804 1_565
Cs2 I10 4.102619 1_555
Cs2 I11 4.102619 1_455
Cs2 I1 4.157050 1_555
Cs2 I0 4.157050 1_556
Cs2 I15 4.225598 1_456
Cs2 I13 4.225598 1_555
Cs3 I6 4.033804 1_455
Cs3 I7 4.033804 1_555
Cs3 I10 4.102619 1_555
Cs3 I11 4.102619 1_455
Cs3 I1 4.157050 1_555
Cs3 I0 4.157050 1_556
Cs3 I12 4.225598 1_556
Cs3 I14 4.225598 1_455
Cs4 I9 4.033804 1_555
Cs4 I8 4.033804 1_555
Cs4 I4 4.102619 1_565
Cs4 I5 4.102619 1_565
Cs4 I3 4.157050 1_565
Cs4 I2 4.157050 1_565
Cs4 I15 4.225598 1_555
Cs4 I13 4.225598 1_555
Cs5 I9 4.033804 1_555
Cs5 I8 4.033804 1_555
Cs5 I4 4.102619 1_555
Cs5 I5 4.102619 1_555
Cs5 I2 4.157050 1_555
Cs5 I3 4.157050 1_555
Cs5 I14 4.225598 1_555
Cs5 I12 4.225598 1_555
Cs6 I11 4.033804 1_555
Cs6 I10 4.033804 1_555
Cs6 I6 4.102619 1_555
Cs6 I7 4.102619 1_555
Cs6 I3 4.157050 1_555
Cs6 I2 4.157050 1_556
Cs6 I14 4.225598 1_555
Cs6 I12 4.225598 1_556
Cs7 I11 4.033804 1_555
Cs7 I10 4.033804 1_555
Cs7 I6 4.102619 1_565
Cs7 I7 4.102619 1_565
Cs7 I2 4.157050 1_566
Cs7 I3 4.157050 1_565
Cs7 I15 4.225598 1_556
Cs7 I13 4.225598 1_555
S0 Sb0 2.549767 1_555
S0 Sb7 2.549767 1_555
S1 Sb6 2.549767 1_555
S1 Sb1 2.549767 1_555
S2 Sb2 2.549767 1_555
S2 Sb5 2.549767 1_555
S3 Sb3 2.549767 1_555
S3 Sb4 2.549767 1_555
S4 Sb0 2.527189 1_545
S4 Sb3 2.527189 1_455
S5 Sb1 2.527189 1_555
S5 Sb2 2.527189 1_445
S6 Sb7 2.527189 1_555
S6 Sb4 2.527189 1_555
S7 Sb6 2.527189 1_555
S7 Sb5 2.527189 1_555
I0 Sb4 3.278116 1_455
I0 Sb7 3.278116 1_555
I1 Sb5 3.278116 1_455
I1 Sb6 3.278116 1_555
I2 Sb3 3.278116 1_555
I2 Sb0 3.278116 1_545
I3 Sb2 3.278116 1_545
I3 Sb1 3.278116 1_555
I4 Sb1 3.118304 1_555
I4 Sb0 3.118304 1_545
I5 Sb2 3.118304 1_545
I5 Sb3 3.118304 1_555
I6 Sb3 3.118304 1_556
I6 Sb2 3.118304 1_545
I7 Sb1 3.118304 1_555
I7 Sb0 3.118304 1_546
I8 Sb5 3.118304 1_555
I8 Sb4 3.118304 1_555
I9 Sb6 3.118304 1_555
I9 Sb7 3.118304 1_555
I10 Sb6 3.118304 1_555
I10 Sb7 3.118304 1_556
I11 Sb5 3.118304 1_555
I11 Sb4 3.118304 1_556
I12 Sb7 3.235584 1_555
I12 Sb0 3.235584 1_545
I13 Sb6 3.235584 1_555
I13 Sb1 3.235584 1_565
I14 Sb5 3.235584 1_555
I14 Sb2 3.235584 1_545
I15 Sb4 3.235584 1_555
I15 Sb3 3.235584 1_565
