# generated using pymatgen
data_Ge2S3I2
_symmetry_space_group_name_H-M   'P 1'
_cell_length_a   11.33557755
_cell_length_b   11.33557755
_cell_length_c   10.01205900
_cell_angle_alpha   90.00000000
_cell_angle_beta   90.00000000
_cell_angle_gamma   119.99999740
_symmetry_Int_Tables_number   1
_chemical_formula_structural   Ge2S3I2
_chemical_formula_sum   'Ge8 S12 I8'
_cell_volume   1114.14405806
_cell_formula_units_Z   4
loop_
 _symmetry_equiv_pos_site_id
 _symmetry_equiv_pos_as_xyz
  1  'x, y, z'
loop_
 _atom_site_type_symbol
 _atom_site_label
 _atom_site_symmetry_multiplicity
 _atom_site_fract_x
 _atom_site_fract_y
 _atom_site_fract_z
 _atom_site_occupancy
  Ge  Ge0  1  0.81150100  0.28163200  0.77022700  1
  Ge  Ge1  1  0.47013100  0.18849900  0.77022700  1
  Ge  Ge2  1  0.33333300  0.66666700  0.94683900  1
  Ge  Ge3  1  0.18849900  0.71836800  0.22977300  1
  Ge  Ge4  1  0.52986900  0.81150100  0.22977300  1
  Ge  Ge5  1  0.28163200  0.47013100  0.22977300  1
  Ge  Ge6  1  0.66666700  0.33333300  0.05316100  1
  Ge  Ge7  1  0.71836800  0.52986900  0.77022700  1
  S  S0  1  0.61075600  0.12086400  0.68617600  1
  S  S1  1  0.17569500  0.72166900  0.00656200  1
  S  S2  1  0.54597400  0.82430500  0.00656200  1
  S  S3  1  0.27833100  0.45402600  0.00656200  1
  S  S4  1  0.45402600  0.17569500  0.99343800  1
  S  S5  1  0.72166900  0.54597400  0.99343800  1
  S  S6  1  0.82430500  0.27833100  0.99343800  1
  S  S7  1  0.12086400  0.51010800  0.31382400  1
  S  S8  1  0.51010800  0.38924400  0.68617600  1
  S  S9  1  0.87913600  0.48989200  0.68617600  1
  S  S10  1  0.38924400  0.87913600  0.31382400  1
  S  S11  1  0.48989200  0.61075600  0.31382400  1
  I  I0  1  0.98344400  0.21791800  0.68757600  1
  I  I1  1  0.78208200  0.76552600  0.68757600  1
  I  I2  1  0.01655600  0.78208200  0.31242400  1
  I  I3  1  0.76552600  0.98344400  0.31242400  1
  I  I4  1  0.21791800  0.23447400  0.31242400  1
  I  I5  1  0.66666700  0.33333300  0.30512900  1
  I  I6  1  0.33333300  0.66666700  0.69487100  1
  I  I7  1  0.23447400  0.01655600  0.68757600  1
loop_
_geom_bond_atom_site_label_1
_geom_bond_atom_site_label_2
_geom_bond_distance
_geom_bond_site_symmetry_2
Ge0 S6 2.241034 1_555
Ge0 S9 2.249255 1_555
Ge0 S0 2.249555 1_555
Ge0 I0 2.532383 1_555
Ge1 S4 2.241034 1_555
Ge1 S0 2.249255 1_555
Ge1 S8 2.249554 1_555
Ge1 I7 2.532384 1_555
Ge2 S1 2.247989 1_556
Ge2 S2 2.247996 1_556
Ge2 S3 2.247999 1_556
Ge2 I6 2.522718 1_555
Ge3 S1 2.241034 1_555
Ge3 S7 2.249255 1_555
Ge3 S10 2.249555 1_555
Ge3 I2 2.532383 1_555
Ge4 S2 2.241034 1_555
Ge4 S10 2.249255 1_555
Ge4 S11 2.249554 1_555
Ge4 I3 2.532384 1_555
Ge5 S3 2.241034 1_555
Ge5 S11 2.249255 1_555
Ge5 S7 2.249554 1_555
Ge5 I4 2.532383 1_555
Ge6 S6 2.247989 1_554
Ge6 S4 2.247996 1_554
Ge6 S5 2.247999 1_554
Ge6 I5 2.522718 1_555
Ge7 S5 2.241034 1_555
Ge7 S8 2.249255 1_555
Ge7 S9 2.249554 1_555
Ge7 I1 2.532383 1_555
