# generated using pymatgen
data_Na5Al2Zn2P3(SO8)3
_symmetry_space_group_name_H-M   'P 1'
_cell_length_a   8.75220807
_cell_length_b   8.77662492
_cell_length_c   21.64419707
_cell_angle_alpha   90.74723067
_cell_angle_beta   90.21206053
_cell_angle_gamma   120.02829986
_symmetry_Int_Tables_number   1
_chemical_formula_structural   Na5Al2Zn2P3(SO8)3
_chemical_formula_sum   'Na15 Al6 Zn6 P9 S9 O72'
_cell_volume   1439.21647752
_cell_formula_units_Z   3
loop_
 _symmetry_equiv_pos_site_id
 _symmetry_equiv_pos_as_xyz
  1  'x, y, z'
loop_
 _atom_site_type_symbol
 _atom_site_label
 _atom_site_symmetry_multiplicity
 _atom_site_fract_x
 _atom_site_fract_y
 _atom_site_fract_z
 _atom_site_occupancy
  Na  Na0  1  0.64734559  0.01765244  0.25344445  1
  Na  Na1  1  0.99727092  0.63322726  0.24273389  1
  Na  Na2  1  0.64182520  0.63676174  0.74311551  1
  Na  Na3  1  0.99058758  0.35274437  0.74605122  1
  Na  Na4  1  0.31250364  0.34883716  0.58611921  1
  Na  Na5  1  0.66349171  0.96556709  0.57721943  1
  Na  Na6  1  0.30480151  0.96295793  0.08046716  1
  Na  Na7  1  0.69327490  0.02169780  0.91030223  1
  Na  Na8  1  0.97026101  0.29548150  0.41296590  1
  Na  Na9  1  0.98306181  0.96480024  0.49508334  1
  Na  Na10  1  0.00820318  0.98843591  0.99604056  1
  Na  Na11  1  0.62579661  0.30828741  0.82995349  1
  Na  Na12  1  0.63176788  0.32031194  0.33145805  1
  Na  Na13  1  0.31541620  0.63006112  0.16170051  1
  Na  Na14  1  0.32287710  0.67503102  0.66301666  1
  Al  Al0  1  0.99194944  0.00291415  0.64850339  1
  Al  Al1  1  0.00526476  0.00009316  0.14929580  1
  Al  Al2  1  0.66645696  0.34414143  0.98114182  1
  Al  Al3  1  0.67102777  0.33261239  0.48287919  1
  Al  Al4  1  0.33509583  0.67397865  0.31385811  1
  Al  Al5  1  0.34116009  0.67803071  0.81443250  1
  Zn  Zn0  1  0.00279198  0.00495143  0.34736352  1
  Zn  Zn1  1  0.02141559  0.01231736  0.84992502  1
  Zn  Zn2  1  0.66413241  0.32856730  0.68163270  1
  Zn  Zn3  1  0.66920251  0.33334783  0.18109188  1
  Zn  Zn4  1  0.31776020  0.66760732  0.01606048  1
  Zn  Zn5  1  0.33889825  0.66794343  0.51440799  1
  P  P0  1  0.29218377  0.99539338  0.25004862  1
  P  P1  1  0.01401006  0.29884191  0.25179856  1
  P  P2  1  0.29252071  0.30095592  0.74950327  1
  P  P3  1  0.70039085  0.99333620  0.75291629  1
  P  P4  1  0.96073866  0.32972031  0.58446737  1
  P  P5  1  0.68145585  0.63053034  0.58489014  1
  P  P6  1  0.95157380  0.63245324  0.08593016  1
  P  P7  1  0.34269857  0.97038560  0.92064687  1
  P  P8  1  0.62359321  0.96768251  0.41828058  1
  S  S0  1  0.69985778  0.70867270  0.25016872  1
  S  S1  1  0.01313671  0.71770820  0.75051987  1
  S  S2  1  0.36449630  0.04021913  0.58229214  1
  S  S3  1  0.68163884  0.04023219  0.08264758  1
  S  S4  1  0.37057530  0.32958131  0.08288917  1
  S  S5  1  0.61889524  0.65400696  0.91718937  1
  S  S6  1  0.03282569  0.37837881  0.91557387  1
  S  S7  1  0.34753342  0.37840224  0.41732143  1
  S  S8  1  0.03434814  0.66082667  0.41625637  1
  O  O0  1  0.21042713  0.01905114  0.30795309  1
  O  O1  1  0.80553664  0.78225333  0.30703982  1
  O  O2  1  0.97037143  0.19349352  0.31169499  1
  O  O3  1  0.21782166  0.19682347  0.80714430  1
  O  O4  1  0.97716197  0.78878936  0.80675946  1
  O  O5  1  0.80914042  0.01835953  0.81178188  1
  O  O6  1  0.79213117  0.96191051  0.69532808  1
  O  O7  1  0.17163128  0.20725044  0.69086594  1
  O  O8  1  0.03399999  0.82602580  0.69545755  1
  O  O9  1  0.78899999  0.82512062  0.19630197  1
  O  O10  1  0.03197831  0.19387554  0.19665647  1
  O  O11  1  0.17297638  0.96228067  0.19113487  1
  O  O12  1  0.88563578  0.35319552  0.64485772  1
  O  O13  1  0.47100404  0.11072249  0.63914752  1
  O  O14  1  0.64310648  0.52449791  0.64415441  1
  O  O15  1  0.87861019  0.53865561  0.14673557  1
  O  O16  1  0.64599157  0.11397475  0.13930961  1
  O  O17  1  0.46851333  0.35336256  0.14050451  1
  O  O18  1  0.46048631  0.29804290  0.02887624  1
  O  O19  1  0.82963984  0.52697276  0.03024496  1
  O  O20  1  0.69743719  0.14866226  0.02749669  1
  O  O21  1  0.45516159  0.15717983  0.52862488  1
  O  O22  1  0.69544671  0.52577841  0.52892566  1
  O  O23  1  0.83654818  0.29870081  0.52756482  1
  O  O24  1  0.53415473  0.68116882  0.97097876  1
  O  O25  1  0.13937379  0.45509182  0.97133696  1
  O  O26  1  0.32526547  0.87853561  0.98201681  1
  O  O27  1  0.54664028  0.87052873  0.47813980  1
  O  O28  1  0.31656087  0.44803621  0.47585870  1
  O  O29  1  0.13701184  0.68172251  0.47216234  1
  O  O30  1  0.12132370  0.63344723  0.35974823  1
  O  O31  1  0.50653830  0.86743367  0.36023944  1
  O  O32  1  0.36172601  0.49178214  0.36432551  1
  O  O33  1  0.12193804  0.48137287  0.85882122  1
  O  O34  1  0.37430669  0.86664398  0.86689467  1
  O  O35  1  0.51306241  0.63055954  0.85875462  1
  O  O36  1  0.00679101  0.81055811  0.41033629  1
  O  O37  1  0.81260385  0.99667028  0.41318532  1
  O  O38  1  0.19353885  0.19893650  0.41083562  1
  O  O39  1  0.99621038  0.19436774  0.91186903  1
  O  O40  1  0.18307423  0.99383778  0.91273164  1
  O  O41  1  0.79727399  0.80958663  0.91250505  1
  O  O42  1  0.97015121  0.15383367  0.58809144  1
  O  O43  1  0.19171713  0.03557887  0.58769737  1
  O  O44  1  0.85284385  0.81547783  0.59044315  1
  O  O45  1  0.96955325  0.82116044  0.08905756  1
  O  O46  1  0.84912752  0.03659998  0.08886390  1
  O  O47  1  0.19375707  0.16119850  0.08623693  1
  O  O48  1  0.68007634  0.15570855  0.74619485  1
  O  O49  1  0.48308109  0.33912602  0.74322878  1
  O  O50  1  0.86240335  0.53567150  0.74387004  1
  O  O51  1  0.66973653  0.52961882  0.24276997  1
  O  O52  1  0.85509484  0.32960612  0.24367007  1
  O  O53  1  0.48161896  0.15059214  0.24337283  1
  O  O54  1  0.63164693  0.49087645  0.92204077  1
  O  O55  1  0.85683591  0.37065554  0.92027896  1
  O  O56  1  0.52026540  0.15536403  0.92485948  1
  O  O57  1  0.63855583  0.15522494  0.42241816  1
  O  O58  1  0.51370295  0.37152876  0.42150463  1
  O  O59  1  0.85862127  0.49153157  0.41991166  1
  O  O60  1  0.34568251  0.48056744  0.07462674  1
  O  O61  1  0.14103734  0.66080463  0.08042446  1
  O  O62  1  0.53013300  0.85880736  0.07670098  1
  O  O63  1  0.33536086  0.86113781  0.57445660  1
  O  O64  1  0.52227228  0.66259495  0.57833519  1
  O  O65  1  0.14920389  0.48506367  0.57720667  1
  O  O66  1  0.30550977  0.82142083  0.25529053  1
  O  O67  1  0.52581962  0.70340194  0.25521579  1
  O  O68  1  0.18587135  0.48367697  0.25836552  1
  O  O69  1  0.29805098  0.48533050  0.75554400  1
  O  O70  1  0.17756821  0.70449677  0.75652842  1
  O  O71  1  0.51690226  0.81982874  0.75722221  1
loop_
_geom_bond_atom_site_label_1
_geom_bond_atom_site_label_2
_geom_bond_distance
_geom_bond_site_symmetry_2
Na0 O53 2.282724 1_555
Na0 O67 2.409703 1_545
Na0 O52 2.425368 1_555
Na0 O66 2.600833 1_545
Na0 O16 2.623311 1_555
Na0 O31 2.659767 1_545
Na0 O2 2.742314 1_555
Na0 O9 2.824131 1_545
Na1 O15 2.271801 1_555
Na1 O52 2.309256 1_555
Na1 O66 2.367085 1_655
Na1 O51 2.536855 1_555
Na1 O68 2.595736 1_655
Na1 O30 2.751494 1_655
Na1 O11 2.757615 1_655
Na1 O1 2.937776 1_555
Na2 O49 2.263153 1_555
Na2 O14 2.348405 1_555
Na2 O71 2.370240 1_555
Na2 O50 2.495777 1_555
Na2 O69 2.627658 1_555
Na2 O6 2.696999 1_555
Na2 O35 2.738726 1_555
Na2 O4 2.880014 1_555
Na3 O69 2.343782 1_655
Na3 O12 2.372751 1_555
Na3 O50 2.375450 1_555
Na3 O48 2.381743 1_555
Na3 O33 2.676206 1_655
Na3 O70 2.680079 1_655
Na3 O7 2.750880 1_655
Na3 O5 2.935966 1_555
Na4 O65 2.285529 1_555
Na4 O43 2.402377 1_555
Na4 O64 2.436491 1_555
Na4 O28 2.545294 1_555
Na4 O7 2.600978 1_555
Na4 O42 2.603714 1_455
Na4 O14 2.790146 1_555
Na4 O21 2.827705 1_555
Na5 O64 2.304652 1_555
Na5 O27 2.328923 1_555
Na5 O42 2.352823 1_565
Na5 O63 2.540497 1_555
Na5 O44 2.599012 1_555
Na5 O23 2.767574 1_565
Na5 O6 2.796541 1_555
Na5 O13 2.894494 1_565
Na6 O26 2.283897 1_554
Na6 O61 2.298386 1_555
Na6 O47 2.382224 1_565
Na6 O62 2.556381 1_555
Na6 O45 2.558915 1_455
Na6 O11 2.661333 1_555
Na6 O18 2.799778 1_565
Na6 O16 2.874454 1_565
Na7 O39 2.303038 1_555
Na7 O56 2.353757 1_555
Na7 O5 2.370745 1_555
Na7 O41 2.448333 1_545
Na7 O34 2.583216 1_545
Na7 O55 2.658622 1_555
Na7 O20 2.749952 1_556
Na7 O24 2.923467 1_545
Na8 O37 2.271639 1_545
Na8 O2 2.357006 1_555
Na8 O59 2.369599 1_555
Na8 O38 2.489140 1_655
Na8 O57 2.533703 1_555
Na8 O23 2.752364 1_555
Na8 O30 2.836981 1_655
Na8 O28 2.948282 1_655
Na9 O36 2.336607 1_655
Na9 O37 2.420152 1_555
Na9 O44 2.422714 1_555
Na9 O43 2.558153 1_665
Na9 O42 2.630592 1_565
Na9 O38 2.697250 1_665
Na10 O40 2.355017 1_555
Na10 O45 2.430671 1_456
Na10 O41 2.478320 1_455
Na10 O47 2.486454 1_566
Na10 O46 2.596365 1_466
Na10 O39 2.621269 1_465
Na11 O49 2.343322 1_555
Na11 O56 2.391505 1_555
Na11 O48 2.425962 1_555
Na11 O54 2.525303 1_555
Na11 O55 2.654366 1_555
Na11 O50 2.780627 1_555
Na12 O58 2.350600 1_555
Na12 O53 2.351350 1_555
Na12 O57 2.477611 1_555
Na12 O51 2.579834 1_555
Na12 O59 2.603127 1_555
Na12 O52 2.703603 1_555
Na13 O60 2.372883 1_555
Na13 O61 2.429276 1_555
Na13 O68 2.437894 1_555
Na13 O67 2.579600 1_555
Na13 O66 2.643842 1_555
Na13 O62 2.700493 1_555
Na14 O65 2.429334 1_555
Na14 O70 2.472931 1_555
Na14 O63 2.501731 1_555
Na14 O71 2.530442 1_555
Na14 O69 2.560869 1_555
Na14 O64 2.574090 1_555
Al0 O6 1.899438 1_545
Al0 O7 1.911485 1_655
Al0 O44 1.922993 1_545
Al0 O42 1.948551 1_555
Al0 O8 2.046638 1_645
Al0 O43 2.096768 1_655
Al1 O10 1.884887 1_555
Al1 O11 1.889528 1_545
Al1 O45 1.927734 1_445
Al1 O46 2.029014 1_455
Al1 O9 2.030243 1_445
Al1 O47 2.077517 1_555
Al2 O19 1.842487 1_556
Al2 O56 1.918403 1_555
Al2 O18 1.943083 1_556
Al2 O54 1.954601 1_555
Al2 O55 2.049882 1_555
Al2 O20 2.128867 1_556
Al3 O22 1.872132 1_555
Al3 O23 1.884501 1_555
Al3 O57 1.928308 1_555
Al3 O21 2.015607 1_555
Al3 O58 2.060649 1_555
Al3 O59 2.067052 1_555
Al4 O31 1.880594 1_555
Al4 O68 1.921145 1_555
Al4 O66 1.929835 1_555
Al4 O30 1.992611 1_555
Al4 O67 2.014183 1_555
Al4 O32 2.054560 1_555
Al5 O34 1.892543 1_555
Al5 O71 1.893780 1_555
Al5 O69 1.982134 1_555
Al5 O35 1.996143 1_555
Al5 O70 2.000470 1_555
Al5 O33 2.079872 1_555
O0 P0 1.508121 1_545
O0 Zn0 1.958199 1_555
O1 S0 1.469944 1_555
O1 Zn0 2.032140 1_665
O2 P1 1.537184 1_655
O2 Zn0 1.978992 1_655
O3 P2 1.502314 1_555
O3 Zn1 1.923397 1_555
O4 S1 1.466177 1_655
O4 Zn1 2.015108 1_665
O5 P3 1.533621 1_545
O5 Zn1 2.055357 1_655
O6 P3 1.579398 1_555
O7 P2 1.580675 1_555
O8 S1 1.488242 1_555
O9 S0 1.500770 1_555
O10 P1 1.554221 1_555
O11 P0 1.573529 1_555
O12 P4 1.522467 1_555
O12 Zn2 2.008763 1_555
O13 S2 1.469876 1_555
O13 Zn2 2.016517 1_555
O14 P5 1.531594 1_555
O14 Zn2 2.000236 1_555
O15 P6 1.525092 1_555
O15 Zn3 1.974495 1_555
O16 S3 1.484761 1_555
O16 Zn3 2.031714 1_555
O17 S4 1.462755 1_555
O17 Zn3 2.046753 1_555
O18 S4 1.509620 1_555
O19 P6 1.556006 1_555
O20 S3 1.499607 1_555
O21 S2 1.501786 1_555
O22 P5 1.553132 1_555
O23 P4 1.567673 1_555
O24 S5 1.462339 1_555
O24 Zn4 2.084306 1_556
O25 S6 1.456614 1_555
O25 Zn4 1.969938 1_556
O26 P7 1.530962 1_555
O26 Zn4 1.971947 1_556
O27 P8 1.523078 1_555
O27 Zn5 1.973532 1_555
O28 S7 1.483380 1_555
O28 Zn5 2.009627 1_555
O29 S8 1.458228 1_555
O29 Zn5 2.043921 1_555
O30 S8 1.521652 1_555
O31 P8 1.568873 1_555
O32 S7 1.492811 1_555
O33 S6 1.504899 1_555
O34 P7 1.576689 1_555
O35 S5 1.514509 1_555
O36 S8 1.457028 1_555
O36 Zn0 2.211308 1_565
O37 P8 1.547359 1_555
O37 Zn0 2.169076 1_665
O38 S7 1.478278 1_555
O38 Zn0 2.156460 1_555
O39 S6 1.481817 1_655
O39 Zn1 2.167541 1_655
O40 P7 1.520020 1_555
O40 Zn1 2.024182 1_565
O41 S5 1.477609 1_555
O41 Zn1 2.331948 1_665
O42 P4 1.589437 1_555
O43 S2 1.497294 1_555
O44 P5 1.567155 1_555
O45 P6 1.583836 1_555
O46 S3 1.487747 1_555
O47 S4 1.516179 1_555
O48 P3 1.530503 1_545
O48 Zn2 2.130626 1_555
O49 P2 1.534915 1_555
O49 Zn2 2.111005 1_555
O50 S1 1.482143 1_655
O50 Zn2 2.211733 1_555
O51 S0 1.463968 1_555
O51 Zn3 2.163661 1_555
O52 P1 1.553588 1_655
O52 Zn3 2.126258 1_555
O53 P0 1.540048 1_545
O53 Zn3 2.126612 1_555
O54 S5 1.495697 1_555
O55 S6 1.511400 1_655
O56 P7 1.590322 1_545
O57 P8 1.585807 1_545
O58 S7 1.487935 1_555
O59 S8 1.515325 1_655
O60 S4 1.459559 1_555
O60 Zn4 2.194279 1_555
O61 P6 1.554057 1_455
O61 Zn4 2.064542 1_555
O62 S3 1.480022 1_565
O62 Zn4 2.190039 1_555
O63 S2 1.468235 1_565
O63 Zn5 2.135553 1_555
O64 P5 1.559597 1_555
O64 Zn5 2.133811 1_555
O65 P4 1.536563 1_455
O65 Zn5 2.141652 1_555
O66 P0 1.593904 1_555
O67 S0 1.505027 1_555
O68 P1 1.569891 1_555
O69 P2 1.598127 1_555
O70 S1 1.505822 1_555
O71 P3 1.569662 1_555
