# generated using pymatgen
data_Na3Ca3Sc(SO4)6
_symmetry_space_group_name_H-M   'P 1'
_cell_length_a   9.16077131
_cell_length_b   9.16546558
_cell_length_c   23.90218756
_cell_angle_alpha   89.93315058
_cell_angle_beta   90.15790155
_cell_angle_gamma   120.18475282
_symmetry_Int_Tables_number   1
_chemical_formula_structural   Na3Ca3Sc(SO4)6
_chemical_formula_sum   'Na9 Ca9 Sc3 S18 O72'
_cell_volume   1734.76900379
_cell_formula_units_Z   3
loop_
 _symmetry_equiv_pos_site_id
 _symmetry_equiv_pos_as_xyz
  1  'x, y, z'
loop_
 _atom_site_type_symbol
 _atom_site_label
 _atom_site_symmetry_multiplicity
 _atom_site_fract_x
 _atom_site_fract_y
 _atom_site_fract_z
 _atom_site_occupancy
  Na  Na0  1  0.63715479  0.99957017  0.24876889  1
  Na  Na1  1  0.36258392  0.36188539  0.24862495  1
  Na  Na2  1  0.03418824  0.69937028  0.58557707  1
  Na  Na3  1  0.99940984  0.01182683  0.49945792  1
  Na  Na4  1  0.00009020  0.99949248  0.99810279  1
  Na  Na5  1  0.66592846  0.33239723  0.83212936  1
  Na  Na6  1  0.68008289  0.34617949  0.33882008  1
  Na  Na7  1  0.31908901  0.66582511  0.15733750  1
  Na  Na8  1  0.34729067  0.66599462  0.67321055  1
  Ca  Ca0  1  0.00026315  0.99484283  0.35312971  1
  Ca  Ca1  1  0.00015432  -0.00044885  0.85051050  1
  Ca  Ca2  1  0.99890014  0.00953465  0.65423490  1
  Ca  Ca3  1  0.99963519  0.99509682  0.14343085  1
  Ca  Ca4  1  0.66199994  0.32836692  0.68730766  1
  Ca  Ca5  1  0.67476622  0.34110992  0.17892282  1
  Ca  Ca6  1  0.33465950  0.66689315  0.01566733  1
  Ca  Ca7  1  0.34124238  0.66597819  0.51538851  1
  Ca  Ca8  1  0.32463467  0.66608667  0.32403721  1
  Sc  Sc0  1  0.66677844  0.33356973  0.98112842  1
  Sc  Sc1  1  0.66207050  0.32891823  0.48405822  1
  Sc  Sc2  1  0.33292426  0.66662896  0.81895520  1
  S  S0  1  0.30123557  0.00119474  0.24969310  1
  S  S1  1  0.69747695  0.70062108  0.25055121  1
  S  S2  1  0.00079506  0.29492490  0.25012827  1
  S  S3  1  0.30041062  0.31040127  0.75300797  1
  S  S4  1  0.00975195  0.69990727  0.75056976  1
  S  S5  1  0.69023640  0.99021676  0.75285273  1
  S  S6  1  0.95565023  0.33356064  0.58099548  1
  S  S7  1  0.37034022  0.03871379  0.58126911  1
  S  S8  1  0.66993697  0.62375456  0.58183329  1
  S  S9  1  0.96047433  0.62621539  0.07977797  1
  S  S10  1  0.66591297  0.04080846  0.08234030  1
  S  S11  1  0.37467390  0.33428200  0.08210676  1
  S  S12  1  0.62513159  0.65862447  0.91712031  1
  S  S13  1  0.03336890  0.37453868  0.91704682  1
  S  S14  1  0.34120259  0.96605856  0.91708672  1
  S  S15  1  0.63677134  0.97852581  0.41712337  1
  S  S16  1  0.34150856  0.36356114  0.41711161  1
  S  S17  1  0.02155879  0.65802914  0.42142178  1
  O  O0  1  0.22008890  0.02153698  0.30003845  1
  O  O1  1  0.79682982  0.78061510  0.30143876  1
  O  O2  1  0.97878415  0.19194721  0.30059064  1
  O  O3  1  0.21565443  0.20401715  0.80164489  1
  O  O4  1  0.98948958  0.78977480  0.79796370  1
  O  O5  1  0.79678938  0.01227991  0.80159953  1
  O  O6  1  0.76161809  0.96421542  0.70061708  1
  O  O7  1  0.20254332  0.23873794  0.70067529  1
  O  O8  1  0.03421308  0.79324678  0.69673030  1
  O  O9  1  0.77959180  0.80293277  0.20030896  1
  O  O10  1  0.02230359  0.21357452  0.19971541  1
  O  O11  1  0.20208968  0.98307908  0.19892792  1
  O  O12  1  0.87741653  0.35348726  0.63176763  1
  O  O13  1  0.46588898  0.11738831  0.63233788  1
  O  O14  1  0.65369471  0.52884716  0.63303704  1
  O  O15  1  0.88589723  0.53732682  0.13262637  1
  O  O16  1  0.65255472  0.11272785  0.13663946  1
  O  O17  1  0.45997710  0.34741181  0.13649415  1
  O  O18  1  0.47675941  0.32566817  0.03430333  1
  O  O19  1  0.85211241  0.52722648  0.03082212  1
  O  O20  1  0.67521939  0.15181139  0.03440100  1
  O  O21  1  0.46323687  0.14289679  0.53088418  1
  O  O22  1  0.68285635  0.53001922  0.53163435  1
  O  O23  1  0.84953975  0.31950875  0.53050957  1
  O  O24  1  0.54882365  0.68074901  0.96775101  1
  O  O25  1  0.13263502  0.45151182  0.96772220  1
  O  O26  1  0.31937352  0.86745999  0.96773746  1
  O  O27  1  0.54654093  0.86892763  0.46467324  1
  O  O28  1  0.32164149  0.45308533  0.46471707  1
  O  O29  1  0.12326513  0.67824736  0.47187605  1
  O  O30  1  0.09812592  0.63369234  0.37045990  1
  O  O31  1  0.54346583  0.90890471  0.36356489  1
  O  O32  1  0.36572196  0.45705495  0.36364180  1
  O  O33  1  0.12036445  0.48282577  0.86670281  1
  O  O34  1  0.36221333  0.87951845  0.86672035  1
  O  O35  1  0.51703144  0.63771759  0.86674114  1
  O  O36  1  0.00157464  0.80792142  0.41621811  1
  O  O37  1  0.80800519  0.00038224  0.41434265  1
  O  O38  1  0.19146132  0.19241197  0.41414118  1
  O  O39  1  0.00905438  0.20383267  0.91040311  1
  O  O40  1  0.19440190  0.98969655  0.91035457  1
  O  O41  1  0.79641151  0.80539330  0.91057572  1
  O  O42  1  0.97400300  0.18241937  0.58235355  1
  O  O43  1  0.19866723  0.02052366  0.58209205  1
  O  O44  1  0.83214165  0.79032574  0.58269857  1
  O  O45  1  0.97147329  0.79339028  0.07935573  1
  O  O46  1  0.82187478  0.02953823  0.08138010  1
  O  O47  1  0.20677986  0.17798889  0.08087336  1
  O  O48  1  0.66795604  0.13909004  0.74813812  1
  O  O49  1  0.47196455  0.33308229  0.74840093  1
  O  O50  1  0.86006242  0.52817583  0.74713950  1
  O  O51  1  0.66843447  0.52524044  0.24662153  1
  O  O52  1  0.84559572  0.30913884  0.24580322  1
  O  O53  1  0.47377831  0.15862181  0.24627630  1
  O  O54  1  0.63702369  0.49973213  0.92224261  1
  O  O55  1  0.86199622  0.36168004  0.92205404  1
  O  O56  1  0.50016088  0.13781491  0.92226146  1
  O  O57  1  0.65179621  0.14941168  0.42480780  1
  O  O58  1  0.49735911  0.34867123  0.42506157  1
  O  O59  1  0.84875378  0.50208215  0.42676812  1
  O  O60  1  0.35696958  0.48565172  0.07764688  1
  O  O61  1  0.13059614  0.64575203  0.07612217  1
  O  O62  1  0.51402476  0.87124892  0.07781475  1
  O  O63  1  0.34581935  0.86536100  0.57632593  1
  O  O64  1  0.52367487  0.64837021  0.57640519  1
  O  O65  1  0.12366084  0.49128484  0.57552571  1
  O  O66  1  0.32922685  0.85426576  0.25424711  1
  O  O67  1  0.52565310  0.68607019  0.25466842  1
  O  O68  1  0.15651152  0.46476968  0.25506369  1
  O  O69  1  0.31715587  0.48297750  0.76057093  1
  O  O70  1  0.16590589  0.68479005  0.75928331  1
  O  O71  1  0.51740246  0.83379529  0.76044210  1
loop_
_geom_bond_atom_site_label_1
_geom_bond_atom_site_label_2
_geom_bond_distance
_geom_bond_site_symmetry_2
Na0 O66 2.443752 1_555
Na0 O52 2.500768 1_565
Na0 O67 2.523488 1_555
Na0 O53 2.561627 1_565
Na0 O16 2.850820 1_565
Na0 O31 2.871669 1_555
Na0 O9 2.944558 1_555
Na0 O2 2.978644 1_565
Na1 O51 2.424131 1_555
Na1 O68 2.503725 1_555
Na1 O53 2.533850 1_555
Na1 O67 2.572444 1_555
Na1 O17 2.851308 1_555
Na1 O32 2.880882 1_555
Na1 O10 2.941802 1_555
Na1 O0 2.974944 1_555
Na2 O44 2.382503 1_455
Na2 O65 2.437423 1_555
Na2 O63 2.479621 1_555
Na2 O43 2.545932 1_565
Na2 O8 2.793577 1_555
Na2 O29 2.874297 1_555
Na3 O42 2.607777 1_555
Na3 O37 2.649585 1_555
Na3 O43 2.659626 1_655
Na3 O38 2.660271 1_655
Na3 O44 2.703211 1_545
Na3 O36 2.738222 1_645
Na4 O45 2.627783 1_456
Na4 O47 2.654735 1_566
Na4 O46 2.678545 1_466
Na4 O41 2.769909 1_455
Na4 O39 2.783099 1_565
Na4 O40 2.785198 1_555
Na5 O49 2.674702 1_555
Na5 O48 2.685405 1_555
Na5 O50 2.704037 1_555
Na5 O55 2.722745 1_555
Na5 O56 2.722795 1_555
Na5 O54 2.735121 1_555
Na6 O59 2.572399 1_555
Na6 O57 2.658615 1_555
Na6 O58 2.666310 1_555
Na6 O51 2.779877 1_555
Na6 O52 2.809849 1_555
Na6 O53 2.852839 1_555
Na7 O61 2.539041 1_555
Na7 O62 2.641245 1_555
Na7 O60 2.657606 1_555
Na7 O66 2.864262 1_555
Na7 O68 2.884357 1_555
Na7 O67 2.941271 1_555
Na8 O71 2.592422 1_555
Na8 O69 2.603754 1_555
Na8 O70 2.707541 1_555
Na8 O64 2.876604 1_555
Na8 O63 2.952388 1_555
Na8 O65 2.982663 1_555
Ca0 O1 2.273377 1_455
Ca0 O36 2.285554 1_555
Ca0 O2 2.286957 1_465
Ca0 O0 2.289850 1_565
Ca0 O38 2.297007 1_565
Ca0 O37 2.312907 1_465
Ca1 O5 2.248841 1_455
Ca1 O3 2.249622 1_555
Ca1 O4 2.258290 1_445
Ca1 O40 2.316889 1_545
Ca1 O41 2.319580 1_445
Ca1 O39 2.326751 1_555
Ca2 O7 2.275669 1_655
Ca2 O6 2.287095 1_545
Ca2 O8 2.388419 1_645
Ca2 O42 2.422752 1_555
Ca2 O43 2.482785 1_655
Ca2 O44 2.490236 1_545
Ca3 O45 2.314044 1_555
Ca3 O11 2.324425 1_655
Ca3 O10 2.334400 1_665
Ca3 O9 2.335179 1_555
Ca3 O46 2.335305 1_565
Ca3 O47 2.336186 1_665
Ca4 O13 2.278741 1_555
Ca4 O14 2.280207 1_555
Ca4 O48 2.283740 1_555
Ca4 O49 2.292310 1_555
Ca4 O12 2.294868 1_555
Ca4 O50 2.311184 1_555
Ca5 O15 2.170036 1_555
Ca5 O17 2.237531 1_555
Ca5 O16 2.240526 1_555
Ca5 O52 2.352999 1_555
Ca5 O51 2.361192 1_555
Ca5 O53 2.385926 1_555
Ca6 O24 2.222260 1_554
Ca6 O25 2.226014 1_554
Ca6 O26 2.228101 1_554
Ca6 O61 2.295679 1_555
Ca6 O62 2.304974 1_555
Ca6 O60 2.308658 1_555
Ca7 O27 2.226202 1_555
Ca7 O28 2.226783 1_555
Ca7 O64 2.281071 1_555
Ca7 O29 2.301258 1_555
Ca7 O63 2.321984 1_555
Ca7 O65 2.324631 1_555
Ca8 O30 2.239951 1_555
Ca8 O31 2.317857 1_555
Ca8 O32 2.329658 1_555
Ca8 O68 2.372770 1_555
Ca8 O66 2.383258 1_555
Ca8 O67 2.418832 1_555
O0 S0 1.476572 1_555
O1 S1 1.473201 1_555
O2 S2 1.481088 1_655
O3 S3 1.464957 1_555
O4 S4 1.467398 1_655
O5 S5 1.465284 1_545
O6 S5 1.484979 1_555
O7 S3 1.484402 1_555
O8 S4 1.498133 1_555
O9 S1 1.476612 1_555
O10 S2 1.482522 1_555
O11 S0 1.472270 1_565
O12 S6 1.468558 1_555
O13 S7 1.462051 1_555
O14 S8 1.464605 1_555
O15 S9 1.472683 1_555
O16 S10 1.489274 1_555
O17 S11 1.488381 1_555
O18 S11 1.505554 1_555
O18 Sc0 2.129788 1_554
O19 S9 1.506066 1_555
O19 Sc0 2.099358 1_554
O20 S10 1.505303 1_555
O20 Sc0 2.127585 1_554
O21 S7 1.507381 1_555
O21 Sc1 2.088370 1_555
O22 S8 1.515657 1_555
O22 Sc1 2.092252 1_555
O23 S6 1.511841 1_555
O23 Sc1 2.080317 1_555
O24 S12 1.463592 1_555
O25 S13 1.463755 1_555
O26 S14 1.462679 1_555
O27 S15 1.466831 1_555
O28 S16 1.467870 1_555
O29 S17 1.475632 1_555
O30 S17 1.479249 1_555
O31 S15 1.491312 1_555
O32 S16 1.491568 1_555
O33 S13 1.508412 1_555
O33 Sc2 2.154358 1_555
O34 S14 1.507481 1_555
O34 Sc2 2.158659 1_555
O35 S12 1.506836 1_555
O35 Sc2 2.158100 1_555
O36 S17 1.479455 1_555
O37 S15 1.479769 1_545
O38 S16 1.478720 1_555
O39 S13 1.474023 1_555
O40 S14 1.474126 1_555
O41 S12 1.474573 1_555
O42 S6 1.477290 1_555
O43 S7 1.495974 1_555
O44 S8 1.502629 1_555
O45 S9 1.484157 1_555
O46 S10 1.483597 1_555
O47 S11 1.484184 1_555
O48 S5 1.481812 1_545
O49 S3 1.482410 1_555
O50 S4 1.481161 1_655
O51 S1 1.494540 1_555
O52 S2 1.494802 1_655
O53 S0 1.514603 1_555
O54 S12 1.518809 1_555
O54 Sc0 2.187480 1_555
O55 S13 1.519134 1_655
O55 Sc0 2.192730 1_555
O56 S14 1.519297 1_545
O56 Sc0 2.183768 1_555
O57 S15 1.513132 1_545
O57 Sc1 2.137848 1_555
O58 S16 1.512438 1_555
O58 Sc1 2.135510 1_555
O59 S17 1.513499 1_655
O59 Sc1 2.144113 1_555
O60 S11 1.479291 1_555
O61 S9 1.479376 1_455
O62 S10 1.479205 1_565
O63 S7 1.493414 1_565
O64 S8 1.471717 1_555
O65 S6 1.496343 1_455
O66 S0 1.495953 1_565
O67 S1 1.514859 1_555
O68 S2 1.496195 1_555
O69 S3 1.521393 1_555
O69 Sc2 2.135772 1_555
O70 S4 1.518710 1_555
O70 Sc2 2.155569 1_555
O71 S5 1.521029 1_555
O71 Sc2 2.136312 1_555
