# generated using pymatgen
data_Sc4BCl6
_symmetry_space_group_name_H-M   'P 1'
_cell_length_a   3.60292348
_cell_length_b   11.85957314
_cell_length_c   12.27958671
_cell_angle_alpha   89.99905886
_cell_angle_beta   90.00002933
_cell_angle_gamma   89.99999560
_symmetry_Int_Tables_number   1
_chemical_formula_structural   Sc4BCl6
_chemical_formula_sum   'Sc8 B2 Cl12'
_cell_volume   524.69611246
_cell_formula_units_Z   2
loop_
 _symmetry_equiv_pos_site_id
 _symmetry_equiv_pos_as_xyz
  1  'x, y, z'
loop_
 _atom_site_type_symbol
 _atom_site_label
 _atom_site_symmetry_multiplicity
 _atom_site_fract_x
 _atom_site_fract_y
 _atom_site_fract_z
 _atom_site_occupancy
  Sc  Sc0  1  0.00000126  0.10530127  0.08370761  1
  Sc  Sc1  1  0.00000475  0.89470064  0.91629270  1
  Sc  Sc2  1  0.00000028  0.60526442  0.41632364  1
  Sc  Sc3  1  -0.00000649  0.39473650  0.58367551  1
  Sc  Sc4  1  0.49999893  0.12493055  0.85315821  1
  Sc  Sc5  1  0.49999946  0.87506978  0.14684316  1
  Sc  Sc6  1  0.49999933  0.62489566  0.64679306  1
  Sc  Sc7  1  0.50000002  0.37510341  0.35320531  1
  B  B0  1  0.49999999  -0.00000109  0.00000021  1
  B  B1  1  0.50000022  0.50000097  0.50000003  1
  Cl  Cl0  1  0.50000041  0.26811665  0.68239109  1
  Cl  Cl1  1  0.50000006  0.73188279  0.31760890  1
  Cl  Cl2  1  0.50000019  0.76806343  0.81756227  1
  Cl  Cl3  1  0.50000031  0.23193697  0.18243769  1
  Cl  Cl4  1  -0.00000004  0.25759352  0.93080227  1
  Cl  Cl5  1  0.00000003  0.74240702  0.06919849  1
  Cl  Cl6  1  0.00000019  0.47963625  0.24239002  1
  Cl  Cl7  1  0.00000028  0.52036341  0.75760924  1
  Cl  Cl8  1  0.00000041  0.97962293  0.25766112  1
  Cl  Cl9  1  -0.00000002  0.02037745  0.74233993  1
  Cl  Cl10  1  0.00000024  0.24244788  0.43083430  1
  Cl  Cl11  1  0.00000019  0.75755160  0.56916522  1
loop_
_geom_bond_atom_site_label_1
_geom_bond_atom_site_label_2
_geom_bond_distance
_geom_bond_site_symmetry_2
B0 Sc5 2.333772 1_545
B0 Sc4 2.333782 1_554
B0 Sc1 2.421010 1_544
B0 Sc1 2.421037 1_644
B0 Sc0 2.421045 1_555
B0 Sc0 2.421051 1_655
B1 Sc6 2.333077 1_555
B1 Sc7 2.333115 1_555
B1 Sc3 2.420614 1_655
B1 Sc2 2.420630 1_555
B1 Sc2 2.420631 1_655
B1 Sc3 2.420651 1_555
Cl0 Sc3 2.639979 1_655
Cl0 Sc3 2.640012 1_555
Cl0 Sc4 2.698280 1_555
Cl1 Sc2 2.639981 1_555
Cl1 Sc2 2.639981 1_655
Cl1 Sc5 2.698273 1_555
Cl2 Sc1 2.640208 1_555
Cl2 Sc1 2.640230 1_655
Cl2 Sc6 2.698206 1_555
Cl3 Sc0 2.640204 1_555
Cl3 Sc0 2.640209 1_655
Cl3 Sc7 2.698181 1_555
Cl4 Sc4 2.574820 1_555
Cl4 Sc4 2.574825 1_455
Cl4 Sc0 2.605263 1_556
Cl5 Sc5 2.574822 1_555
Cl5 Sc5 2.574825 1_455
Cl5 Sc1 2.605279 1_554
Cl6 Sc7 2.575613 1_555
Cl6 Sc7 2.575615 1_455
Cl6 Sc2 2.604166 1_555
Cl7 Sc6 2.575614 1_555
Cl7 Sc6 2.575618 1_455
Cl7 Sc3 2.604158 1_555
Cl8 Sc5 2.575767 1_555
Cl8 Sc5 2.575770 1_455
Cl8 Sc0 2.604666 1_565
Cl9 Sc4 2.575767 1_555
Cl9 Sc4 2.575773 1_455
Cl9 Sc1 2.604648 1_545
Cl10 Sc7 2.574681 1_555
Cl10 Sc7 2.574681 1_455
Cl10 Sc3 2.604709 1_555
Cl11 Sc6 2.574676 1_555
Cl11 Sc6 2.574681 1_455
Cl11 Sc2 2.604700 1_555
