# generated using pymatgen
data_Na3YSc(PO4)3
_symmetry_space_group_name_H-M   'P 1'
_cell_length_a   16.01594252
_cell_length_b   9.18878659
_cell_length_c   9.28916918
_cell_angle_alpha   90.16610181
_cell_angle_beta   125.08922128
_cell_angle_gamma   89.87352259
_symmetry_Int_Tables_number   1
_chemical_formula_structural   Na3YSc(PO4)3
_chemical_formula_sum   'Na12 Y4 Sc4 P12 O48'
_cell_volume   1118.60257084
_cell_formula_units_Z   4
loop_
 _symmetry_equiv_pos_site_id
 _symmetry_equiv_pos_as_xyz
  1  'x, y, z'
loop_
 _atom_site_type_symbol
 _atom_site_label
 _atom_site_symmetry_multiplicity
 _atom_site_fract_x
 _atom_site_fract_y
 _atom_site_fract_z
 _atom_site_occupancy
  Na  Na0  1  0.24362875  0.76927672  0.99671700  1
  Na  Na1  1  0.74735539  0.72897031  0.50607103  1
  Na  Na2  1  0.74797546  0.26872659  0.00680111  1
  Na  Na3  1  0.24355635  0.22937406  0.49792362  1
  Na  Na4  1  0.50361574  0.09218244  0.75377443  1
  Na  Na5  1  0.50145503  0.91581703  0.24063002  1
  Na  Na6  1  0.00427866  0.58992276  0.75193851  1
  Na  Na7  1  0.00053733  0.40167479  0.24178123  1
  Na  Na8  1  0.81662410  0.92528991  0.20263493  1
  Na  Na9  1  0.81587769  0.07694498  0.70439415  1
  Na  Na10  1  0.30866136  0.42400467  0.19104881  1
  Na  Na11  1  0.31517766  0.57216737  0.70819792  1
  Y  Y0  1  0.10350844  0.76077010  0.55423077  1
  Y  Y1  1  0.60283334  0.26042292  0.55510576  1
  Y  Y2  1  0.39733353  0.74899341  0.44136033  1
  Y  Y3  1  0.60457481  0.73990608  0.05561914  1
  Sc  Sc0  1  0.89913554  0.75103104  0.94501304  1
  Sc  Sc1  1  0.89980792  0.24884567  0.44527514  1
  Sc  Sc2  1  0.10174226  0.24168635  0.05270807  1
  Sc  Sc3  1  0.39799341  0.25113435  0.94408635  1
  P  P0  1  0.99748996  0.95514038  0.74981831  1
  P  P1  1  0.99621993  0.05366993  0.24011382  1
  P  P2  1  0.49432865  0.43999545  0.74716985  1
  P  P3  1  0.49463393  0.55122974  0.23861324  1
  P  P4  1  0.35490949  0.90408080  0.76333584  1
  P  P5  1  0.65678302  0.89802420  0.75078670  1
  P  P6  1  0.65295120  0.10578986  0.24781422  1
  P  P7  1  0.35103022  0.10482300  0.24844517  1
  P  P8  1  0.85997019  0.39969324  0.75733282  1
  P  P9  1  0.14969028  0.39196680  0.75065008  1
  P  P10  1  0.14775926  0.59695744  0.24138398  1
  P  P11  1  0.85728880  0.59815676  0.25646480  1
  O  O0  1  0.15509073  0.56162138  0.74607773  1
  O  O1  1  0.85444439  0.56906635  0.75845130  1
  O  O2  1  0.85248683  0.42904702  0.25561163  1
  O  O3  1  0.15112307  0.42792070  0.23102818  1
  O  O4  1  0.66346237  0.06661253  0.74718973  1
  O  O5  1  0.34825781  0.07237778  0.76140053  1
  O  O6  1  0.34519136  0.93629999  0.23955948  1
  O  O7  1  0.65972955  0.93666269  0.24254954  1
  O  O8  1  0.43120084  0.53328953  0.57815880  1
  O  O9  1  0.55189589  0.54137334  0.90718655  1
  O  O10  1  0.55024463  0.45745315  0.40482999  1
  O  O11  1  0.43778910  0.45093088  0.07375767  1
  O  O12  1  0.93326432  0.04947044  0.58038146  1
  O  O13  1  0.05474372  0.05935717  0.90964139  1
  O  O14  1  0.06035457  0.96014316  0.40650606  1
  O  O15  1  0.93123230  0.95167281  0.07801882  1
  O  O16  1  0.26726928  0.82579135  0.75586860  1
  O  O17  1  0.74748614  0.82999129  0.75650208  1
  O  O18  1  0.74458840  0.17164963  0.25463326  1
  O  O19  1  0.25829084  0.17714062  0.23266729  1
  O  O20  1  0.77048897  0.32622540  0.74943425  1
  O  O21  1  0.24263996  0.32944111  0.75916102  1
  O  O22  1  0.23598936  0.66104505  0.23810475  1
  O  O23  1  0.76787619  0.67226389  0.24829909  1
  O  O24  1  0.35682158  0.85895806  0.60441945  1
  O  O25  1  0.66071032  0.86238573  0.91753994  1
  O  O26  1  0.65873421  0.13907856  0.41731207  1
  O  O27  1  0.35986650  0.15821831  0.09945957  1
  O  O28  1  0.86134125  0.35388101  0.59741021  1
  O  O29  1  0.15187737  0.35507461  0.91609410  1
  O  O30  1  0.15926939  0.63092649  0.41608771  1
  O  O31  1  0.86073779  0.64680249  0.09995027  1
  O  O32  1  0.45538388  0.85352788  0.93429034  1
  O  O33  1  0.55468613  0.84437257  0.58376918  1
  O  O34  1  0.54957102  0.16057222  0.08411407  1
  O  O35  1  0.44869424  0.15296194  0.42693461  1
  O  O36  1  0.96042241  0.34609542  0.92708283  1
  O  O37  1  0.04787881  0.33579781  0.58278581  1
  O  O38  1  0.04416003  0.65764158  0.08304247  1
  O  O39  1  0.95562056  0.65042080  0.42985036  1
  O  O40  1  0.07318650  0.85063928  0.75011043  1
  O  O41  1  0.92042350  0.86056319  0.76156207  1
  O  O42  1  0.91914026  0.14791094  0.25316384  1
  O  O43  1  0.06760017  0.15876173  0.22774076  1
  O  O44  1  0.57174395  0.33509400  0.75227926  1
  O  O45  1  0.41514421  0.34661760  0.75368673  1
  O  O46  1  0.41061672  0.64342994  0.23187067  1
  O  O47  1  0.57250085  0.65675141  0.24718387  1
loop_
_geom_bond_atom_site_label_1
_geom_bond_atom_site_label_2
_geom_bond_distance
_geom_bond_site_symmetry_2
Na0 O6 2.421215 1_556
Na0 O40 2.463694 1_555
Na0 O22 2.522061 1_556
Na0 O16 2.529816 1_555
Na0 O46 2.558492 1_556
Na0 O0 2.694950 1_555
Na1 O1 2.445966 1_555
Na1 O17 2.501043 1_555
Na1 O47 2.514421 1_555
Na1 O23 2.647619 1_555
Na1 O41 2.685653 1_555
Na1 O7 2.769381 1_555
Na2 O2 2.420146 1_555
Na2 O18 2.500852 1_555
Na2 O44 2.501375 1_554
Na2 O42 2.602548 1_555
Na2 O20 2.669077 1_554
Na2 O4 2.707250 1_554
Na3 O5 2.484848 1_555
Na3 O43 2.555128 1_555
Na3 O21 2.600462 1_555
Na3 O45 2.617091 1_555
Na3 O19 2.649258 1_555
Na3 O3 2.731526 1_555
Na4 O44 2.490227 1_555
Na4 O5 2.536537 1_555
Na4 O4 2.605825 1_555
Na4 O35 2.690845 1_555
Na4 O45 2.730903 1_555
Na4 O34 2.783352 1_556
Na4 O24 2.880940 1_545
Na4 O25 2.949219 1_545
Na5 O6 2.503677 1_555
Na5 O7 2.532383 1_555
Na5 O32 2.558924 1_554
Na5 O47 2.621919 1_555
Na5 O33 2.864123 1_555
Na5 O46 2.875166 1_555
Na5 O27 2.898090 1_565
Na5 O26 2.915082 1_565
Na6 O1 2.442977 1_455
Na6 O0 2.460298 1_555
Na6 O40 2.644042 1_555
Na6 O39 2.682359 1_455
Na6 O38 2.826129 1_556
Na6 O41 2.849237 1_455
Na6 O28 2.869037 1_455
Na6 O29 2.902150 1_555
Na7 O2 2.459598 1_455
Na7 O3 2.482834 1_555
Na7 O43 2.510298 1_555
Na7 O36 2.655689 1_454
Na7 O42 2.705775 1_455
Na7 O37 2.867593 1_555
Na7 O31 2.902734 1_455
Na7 O30 2.965394 1_555
Na8 O25 2.444900 1_554
Na8 O42 2.494776 1_565
Na8 O23 2.567024 1_555
Na8 O15 2.685987 1_555
Na8 O18 2.704026 1_565
Na8 O7 2.744523 1_555
Na9 O41 2.451130 1_545
Na9 O26 2.461273 1_555
Na9 O20 2.507396 1_555
Na9 O17 2.685199 1_545
Na9 O4 2.691250 1_555
Na9 O12 2.722429 1_555
Na10 O29 2.419508 1_554
Na10 O46 2.484687 1_555
Na10 O19 2.513477 1_555
Na10 O22 2.618805 1_555
Na10 O3 2.753578 1_555
Na10 O11 2.849522 1_555
Na10 O27 2.853471 1_555
Na11 O30 2.470253 1_555
Na11 O45 2.499986 1_555
Na11 O16 2.567648 1_555
Na11 O21 2.682943 1_555
Na11 O8 2.759530 1_555
Na11 O0 2.783081 1_555
O0 P9 1.563560 1_555
O0 Y0 2.350875 1_555
O1 P8 1.558996 1_555
O1 Sc0 2.207642 1_555
O2 P11 1.555757 1_555
O2 Sc1 2.212779 1_555
O3 P10 1.558667 1_555
O3 Sc2 2.186576 1_555
O4 P5 1.554825 1_545
O4 Y1 2.305856 1_555
O5 P4 1.549321 1_545
O5 Sc3 2.155875 1_555
O6 P7 1.550646 1_565
O6 Y2 2.320817 1_555
O7 P6 1.560205 1_565
O7 Y3 2.299900 1_555
O8 P2 1.549503 1_555
O8 Y2 2.248323 1_555
O9 P2 1.532129 1_555
O9 Y3 2.143757 1_556
O10 P3 1.530698 1_555
O10 Y1 2.142897 1_555
O11 P3 1.554340 1_555
O11 Sc3 2.082622 1_554
O12 P0 1.558606 1_545
O12 Sc1 2.110528 1_555
O13 P0 1.546761 1_445
O13 Sc2 1.995551 1_556
O14 P1 1.536605 1_465
O14 Y0 2.153026 1_555
O15 P1 1.556679 1_565
O15 Sc0 2.109640 1_554
O16 P4 1.544268 1_555
O16 Y0 2.257581 1_555
O17 P5 1.552886 1_555
O17 Sc0 2.145155 1_555
O18 P6 1.555980 1_555
O18 Sc1 2.181374 1_555
O19 P7 1.554067 1_555
O19 Sc2 2.147804 1_555
O20 P8 1.548567 1_555
O20 Y1 2.293982 1_555
O21 P9 1.553600 1_555
O21 Sc3 2.178230 1_555
O22 P10 1.548483 1_555
O22 Y2 2.299223 1_555
O23 P11 1.546372 1_555
O23 Y3 2.246685 1_555
O24 P4 1.549319 1_555
O24 Y2 2.203268 1_555
O25 P5 1.549654 1_555
O25 Y3 2.249165 1_556
O26 P6 1.552690 1_555
O26 Y1 2.233392 1_555
O27 P7 1.550968 1_555
O27 Sc3 2.051248 1_554
O28 P8 1.555114 1_555
O28 Sc1 2.073325 1_555
O29 P9 1.555342 1_555
O29 Sc2 2.126882 1_556
O30 P10 1.555129 1_555
O30 Y0 2.274147 1_555
O31 P11 1.553339 1_555
O31 Sc0 2.096437 1_554
O32 P4 1.545990 1_555
O32 Y3 2.229196 1_556
O33 P5 1.551225 1_555
O33 Y2 2.244854 1_555
O34 P6 1.553465 1_555
O34 Sc3 2.155183 1_554
O35 P7 1.551924 1_555
O35 Y1 2.260902 1_555
O36 P8 1.549736 1_555
O36 Sc2 2.089334 1_656
O37 P9 1.559652 1_555
O37 Sc1 2.100886 1_455
O38 P10 1.556358 1_555
O38 Sc0 2.085416 1_454
O39 P11 1.545170 1_555
O39 Y0 2.197882 1_655
O40 P0 1.543682 1_455
O40 Y0 2.287795 1_555
O41 P0 1.565476 1_555
O41 Sc0 2.170864 1_555
O42 P1 1.566942 1_555
O42 Sc1 2.182910 1_555
O43 P1 1.552180 1_455
O43 Sc2 2.134102 1_555
O44 P2 1.547908 1_555
O44 Y1 2.261220 1_555
O45 P2 1.562567 1_555
O45 Sc3 2.131195 1_555
O46 P3 1.559084 1_555
O46 Y2 2.288478 1_555
O47 P3 1.546778 1_555
O47 Y3 2.252737 1_555
