# generated using pymatgen
data_Na2Nb4Si7Ge4S5O48
_symmetry_space_group_name_H-M   'P 1'
_cell_length_a   17.49017602
_cell_length_b   8.67387282
_cell_length_c   22.40472510
_cell_angle_alpha   90.59700269
_cell_angle_beta   89.75407352
_cell_angle_gamma   119.97015704
_symmetry_Int_Tables_number   1
_chemical_formula_structural   Na2Nb4Si7Ge4S5O48
_chemical_formula_sum   'Na6 Nb12 Si21 Ge12 S15 O144'
_cell_volume   2944.31441916
_cell_formula_units_Z   3
loop_
 _symmetry_equiv_pos_site_id
 _symmetry_equiv_pos_as_xyz
  1  'x, y, z'
loop_
 _atom_site_type_symbol
 _atom_site_label
 _atom_site_symmetry_multiplicity
 _atom_site_fract_x
 _atom_site_fract_y
 _atom_site_fract_z
 _atom_site_occupancy
  Na  Na0  1  0.99760682  0.00592852  0.49779804  1
  Na  Na1  1  0.49679412  0.98803780  0.00267631  1
  Na  Na2  1  0.32854580  0.33385438  0.83918758  1
  Na  Na3  1  0.82715851  0.33025807  0.83872633  1
  Na  Na4  1  0.33046747  0.32400533  0.33658899  1
  Na  Na5  1  0.82636409  0.32060527  0.33821859  1
  Nb  Nb0  1  0.50414716  0.01955873  0.35990361  1
  Nb  Nb1  1  0.00539921  0.99878618  0.86174322  1
  Nb  Nb2  1  0.50107506  0.01835873  0.64081101  1
  Nb  Nb3  1  0.00195924  0.98615781  0.14115595  1
  Nb  Nb4  1  0.33161535  0.34091488  0.68831408  1
  Nb  Nb5  1  0.83258845  0.34454663  0.68966129  1
  Nb  Nb6  1  0.33733497  0.32207723  0.19303822  1
  Nb  Nb7  1  0.83181590  0.32330772  0.18950208  1
  Nb  Nb8  1  0.17538221  0.68755963  0.02508425  1
  Nb  Nb9  1  0.66742926  0.68318364  0.02521746  1
  Nb  Nb10  1  0.16853488  0.65374861  0.52393330  1
  Nb  Nb11  1  0.67509952  0.66259389  0.52324511  1
  Si  Si0  1  0.13958913  0.98622859  0.25612694  1
  Si  Si1  1  0.63772145  0.98385568  0.24944651  1
  Si  Si2  1  0.51074751  0.29535868  0.24940649  1
  Si  Si3  1  0.13833726  0.29340528  0.74973694  1
  Si  Si4  1  0.63975619  0.29293261  0.75662644  1
  Si  Si5  1  0.47278485  0.34424625  0.57820657  1
  Si  Si6  1  0.97144233  0.32925807  0.58080064  1
  Si  Si7  1  0.33699441  0.61812249  0.57933805  1
  Si  Si8  1  0.84412672  0.63095845  0.58185062  1
  Si  Si9  1  0.47088669  0.62181806  0.08328258  1
  Si  Si10  1  0.97222843  0.60079008  0.07879427  1
  Si  Si11  1  0.34562576  0.06263716  0.08146439  1
  Si  Si12  1  0.83871157  0.05782433  0.07925317  1
  Si  Si13  1  0.31637868  0.66560117  0.91546093  1
  Si  Si14  1  0.80744049  0.65290455  0.91805447  1
  Si  Si15  1  0.17783182  0.95705307  0.91454059  1
  Si  Si16  1  0.66956026  0.95661668  0.91331027  1
  Si  Si17  1  0.30885804  0.96120296  0.41801501  1
  Si  Si18  1  0.81252159  0.95889150  0.41227614  1
  Si  Si19  1  0.16993594  0.38094696  0.41181126  1
  Si  Si20  1  0.67819536  0.39370014  0.41393812  1
  Ge  Ge0  1  0.00507610  0.01620608  0.35747512  1
  Ge  Ge1  1  0.50728050  0.99566639  0.85899302  1
  Ge  Ge2  1  0.99893231  0.02165312  0.64230093  1
  Ge  Ge3  1  0.50146001  0.99854602  0.14740893  1
  Ge  Ge4  1  0.33714340  0.33898771  0.97954329  1
  Ge  Ge5  1  0.82989457  0.33049258  0.97835740  1
  Ge  Ge6  1  0.33588730  0.33883001  0.47483449  1
  Ge  Ge7  1  0.83919595  0.33938105  0.47610252  1
  Ge  Ge8  1  0.17796077  0.68875229  0.31580519  1
  Ge  Ge9  1  0.66885858  0.67166889  0.31113757  1
  Ge  Ge10  1  0.17839986  0.66153503  0.81684262  1
  Ge  Ge11  1  0.67512642  0.66140346  0.81821796  1
  S  S0  1  0.35257934  0.71493931  0.25038946  1
  S  S1  1  0.85658618  0.71844733  0.25251143  1
  S  S2  1  0.00395307  0.29258326  0.25292483  1
  S  S3  1  0.00596672  0.71820677  0.74974022  1
  S  S4  1  0.50422080  0.71620523  0.75251910  1
  S  S5  1  0.35478210  0.99405442  0.75308017  1
  S  S6  1  0.85383198  0.99177969  0.75028740  1
  S  S7  1  0.18576050  0.04772439  0.58275736  1
  S  S8  1  0.69121399  0.05244313  0.58199491  1
  S  S9  1  0.19179246  0.33184498  0.08244090  1
  S  S10  1  0.68766803  0.32717936  0.08220386  1
  S  S11  1  0.02243536  0.38664448  0.91526404  1
  S  S12  1  0.52169943  0.37580813  0.91499917  1
  S  S13  1  0.02228372  0.66799573  0.41541859  1
  S  S14  1  0.52250230  0.66167370  0.41612692  1
  O  O0  1  0.09084791  0.02553657  0.31155884  1
  O  O1  1  0.59299948  0.02122766  0.30779003  1
  O  O2  1  0.40755703  0.78999442  0.30361531  1
  O  O3  1  0.91318684  0.79731297  0.30502478  1
  O  O4  1  0.48446121  0.16653776  0.30819790  1
  O  O5  1  0.98201895  0.17695078  0.30620927  1
  O  O6  1  0.09263798  0.16576269  0.80723560  1
  O  O7  1  0.59187449  0.15699993  0.81148331  1
  O  O8  1  0.48219463  0.78902553  0.80652758  1
  O  O9  1  0.98549692  0.79372053  0.80395003  1
  O  O10  1  0.41054773  0.02676122  0.80541019  1
  O  O11  1  0.91018063  0.02426340  0.80239806  1
  O  O12  1  0.39553547  0.96861221  0.69747740  1
  O  O13  1  0.89322368  0.96395016  0.69422091  1
  O  O14  1  0.07827535  0.19307816  0.69046330  1
  O  O15  1  0.58133369  0.19654846  0.69560745  1
  O  O16  1  0.01378235  0.81969980  0.69637673  1
  O  O17  1  0.51272447  0.81944962  0.69891666  1
  O  O18  1  0.39135513  0.81915032  0.19557208  1
  O  O19  1  0.89836379  0.82407401  0.19717097  1
  O  O20  1  0.01274952  0.20576172  0.19856878  1
  O  O21  1  0.51766289  0.19390343  0.19022923  1
  O  O22  1  0.08033133  0.96429585  0.19516323  1
  O  O23  1  0.57988898  0.96145087  0.18984260  1
  O  O24  1  0.42607460  0.35776633  0.64061289  1
  O  O25  1  0.92421290  0.35088450  0.64193496  1
  O  O26  1  0.24140806  0.12762366  0.63786490  1
  O  O27  1  0.74379950  0.13009792  0.63749019  1
  O  O28  1  0.31759091  0.49708965  0.64033394  1
  O  O29  1  0.82026796  0.50453677  0.64225436  1
  O  O30  1  0.42423451  0.49931705  0.14180328  1
  O  O31  1  0.92670251  0.49535057  0.14016002  1
  O  O32  1  0.31943720  0.13635293  0.14126458  1
  O  O33  1  0.81763183  0.13868367  0.14006833  1
  O  O34  1  0.24416794  0.36323675  0.13635492  1
  O  O35  1  0.74315011  0.35937823  0.13612624  1
  O  O36  1  0.22720440  0.29340082  0.02802579  1
  O  O37  1  0.72689075  0.29497921  0.02754972  1
  O  O38  1  0.40994394  0.53476508  0.02367825  1
  O  O39  1  0.90884365  0.52258900  0.02154528  1
  O  O40  1  0.35412242  0.17865444  0.02292252  1
  O  O41  1  0.85061111  0.17589499  0.02160540  1
  O  O42  1  0.22425984  0.15778885  0.52988654  1
  O  O43  1  0.72770990  0.16109638  0.52934880  1
  O  O44  1  0.35059165  0.52496381  0.52202001  1
  O  O45  1  0.85607636  0.53323502  0.52414226  1
  O  O46  1  0.40803932  0.29423667  0.52237954  1
  O  O47  1  0.90866949  0.28920954  0.52329202  1
  O  O48  1  0.26803455  0.69791035  0.97310811  1
  O  O49  1  0.76065310  0.68633601  0.97487009  1
  O  O50  1  0.07638679  0.45903764  0.96864276  1
  O  O51  1  0.57520525  0.45282930  0.96869594  1
  O  O52  1  0.15425350  0.83363529  0.97317217  1
  O  O53  1  0.65087849  0.83326229  0.97263137  1
  O  O54  1  0.25861392  0.83611185  0.47538003  1
  O  O55  1  0.76678071  0.83705591  0.47257106  1
  O  O56  1  0.15070991  0.46684456  0.47275620  1
  O  O57  1  0.65577799  0.47177681  0.47480222  1
  O  O58  1  0.07432554  0.69600085  0.46964214  1
  O  O59  1  0.57575248  0.69182630  0.47004772  1
  O  O60  1  0.06173963  0.63632407  0.36162501  1
  O  O61  1  0.56150357  0.62910460  0.36226559  1
  O  O62  1  0.24858455  0.87991339  0.35829792  1
  O  O63  1  0.74805823  0.86722095  0.35538543  1
  O  O64  1  0.18264867  0.50887037  0.35466891  1
  O  O65  1  0.69010069  0.51432686  0.35688079  1
  O  O66  1  0.06387102  0.49445764  0.86121811  1
  O  O67  1  0.56200164  0.48687558  0.86109712  1
  O  O68  1  0.18606120  0.85559305  0.85459101  1
  O  O69  1  0.68318694  0.85633747  0.85438312  1
  O  O70  1  0.25338989  0.61988555  0.85618322  1
  O  O71  1  0.74865545  0.61583672  0.85764414  1
  O  O72  1  0.01044783  0.82592817  0.41027785  1
  O  O73  1  0.51020502  0.81649754  0.40946401  1
  O  O74  1  0.40236784  0.96646736  0.40928818  1
  O  O75  1  0.91050835  0.97149154  0.40446324  1
  O  O76  1  0.08012448  0.18462986  0.40910544  1
  O  O77  1  0.58906213  0.19683957  0.40959265  1
  O  O78  1  0.01080243  0.20327278  0.90786444  1
  O  O79  1  0.51085538  0.19431808  0.90867608  1
  O  O80  1  0.08814516  0.97499258  0.90589678  1
  O  O81  1  0.58129519  0.97645247  0.90945311  1
  O  O82  1  0.41205161  0.85090790  0.90523388  1
  O  O83  1  0.90404913  0.83214333  0.90508619  1
  O  O84  1  0.48475677  0.16822808  0.59150567  1
  O  O85  1  0.98596834  0.15758073  0.58833849  1
  O  O86  1  0.09749337  0.02920847  0.59154948  1
  O  O87  1  0.60183812  0.03082518  0.59212484  1
  O  O88  1  0.42313706  0.80801164  0.59597477  1
  O  O89  1  0.93153049  0.82330870  0.59605917  1
  O  O90  1  0.48687967  0.82248703  0.09225345  1
  O  O91  1  0.98492359  0.80154238  0.09036588  1
  O  O92  1  0.42974690  0.03723048  0.09159729  1
  O  O93  1  0.92354598  0.03885636  0.09529093  1
  O  O94  1  0.10193973  0.17290158  0.09103796  1
  O  O95  1  0.60035946  0.16711399  0.08804518  1
  O  O96  1  0.34436634  0.15347177  0.74546022  1
  O  O97  1  0.84436378  0.15313257  0.74425816  1
  O  O98  1  0.23681992  0.31021117  0.74293264  1
  O  O99  1  0.73790255  0.30970574  0.74657656  1
  O  O100  1  0.42172336  0.53175994  0.74680912  1
  O  O101  1  0.92249438  0.53410833  0.74615562  1
  O  O102  1  0.33935574  0.53187078  0.24404558  1
  O  O103  1  0.84720838  0.53808458  0.24489952  1
  O  O104  1  0.42037623  0.31569744  0.24446206  1
  O  O105  1  0.92223346  0.31255128  0.24701342  1
  O  O106  1  0.23620969  0.16622879  0.24653051  1
  O  O107  1  0.73717373  0.17196600  0.24236176  1
  O  O108  1  0.32615619  0.48955043  0.92452548  1
  O  O109  1  0.82116734  0.48192647  0.92434745  1
  O  O110  1  0.43330371  0.35887531  0.91947174  1
  O  O111  1  0.93380843  0.36474469  0.91917505  1
  O  O112  1  0.26169236  0.15378297  0.92404307  1
  O  O113  1  0.75878195  0.14995493  0.92266238  1
  O  O114  1  0.32100240  0.15963858  0.42423886  1
  O  O115  1  0.82493616  0.15835612  0.42297016  1
  O  O116  1  0.25881676  0.36754693  0.42208776  1
  O  O117  1  0.76328726  0.36885074  0.42507312  1
  O  O118  1  0.43268963  0.49974173  0.42065335  1
  O  O119  1  0.93280057  0.50488072  0.41981523  1
  O  O120  1  0.17894545  0.48522494  0.07420518  1
  O  O121  1  0.67887008  0.48560991  0.07557266  1
  O  O122  1  0.06917921  0.62445388  0.07128035  1
  O  O123  1  0.56574598  0.62938665  0.07213880  1
  O  O124  1  0.25556498  0.86439695  0.07517811  1
  O  O125  1  0.75069168  0.86263379  0.07525079  1
  O  O126  1  0.17660751  0.87099626  0.57721673  1
  O  O127  1  0.67995793  0.87438872  0.57626535  1
  O  O128  1  0.25051602  0.64001670  0.57546669  1
  O  O129  1  0.75715666  0.65347037  0.57585019  1
  O  O130  1  0.06576937  0.50890592  0.57320850  1
  O  O131  1  0.56948597  0.51500537  0.57204413  1
  O  O132  1  0.14768059  0.80839915  0.26348888  1
  O  O133  1  0.65445618  0.82039901  0.26031565  1
  O  O134  1  0.26371036  0.69776559  0.25649345  1
  O  O135  1  0.77005933  0.70251210  0.25588926  1
  O  O136  1  0.08171058  0.46657192  0.25979583  1
  O  O137  1  0.59518241  0.48642970  0.26181119  1
  O  O138  1  0.14853897  0.48923635  0.76068766  1
  O  O139  1  0.64808830  0.48783091  0.76306766  1
  O  O140  1  0.08186314  0.69664431  0.75811113  1
  O  O141  1  0.58122216  0.69696838  0.75955856  1
  O  O142  1  0.26648771  0.83346382  0.75682227  1
  O  O143  1  0.76560782  0.83368585  0.75604075  1
loop_
_geom_bond_atom_site_label_1
_geom_bond_atom_site_label_2
_geom_bond_distance
_geom_bond_site_symmetry_2
Na0 O85 2.468819 1_555
Na0 O76 2.497753 1_655
Na0 O75 2.518422 1_545
Na0 O72 2.572130 1_645
Na0 O89 2.629305 1_545
Na0 O86 2.678638 1_655
Na1 O90 2.434792 1_555
Na1 O92 2.447125 1_565
Na1 O95 2.551246 1_565
Na1 O82 2.567124 1_554
Na1 O81 2.583472 1_554
Na1 O79 2.707726 1_564
Na2 O108 2.341602 1_555
Na2 O112 2.374731 1_555
Na2 O110 2.502506 1_555
Na2 O98 2.637876 1_555
Na2 O100 2.671408 1_555
Na2 O96 2.700631 1_555
Na3 O109 2.346276 1_555
Na3 O113 2.363461 1_555
Na3 O111 2.505560 1_555
Na3 O99 2.544270 1_555
Na3 O101 2.703595 1_555
Na3 O97 2.705432 1_555
Na4 O114 2.395028 1_555
Na4 O116 2.412410 1_555
Na4 O118 2.512697 1_555
Na4 O106 2.525644 1_555
Na4 O104 2.611644 1_555
Na4 O102 2.714608 1_555
Na5 O117 2.367448 1_555
Na5 O115 2.367897 1_555
Na5 O119 2.521499 1_555
Na5 O107 2.582584 1_555
Na5 O105 2.660203 1_555
Na5 O103 2.729709 1_555
Nb0 O77 1.872561 1_555
Nb0 O4 1.886434 1_555
Nb0 O1 1.934121 1_555
Nb0 O74 1.944188 1_545
Nb0 O73 2.138849 1_545
Nb0 O2 2.239295 1_545
Nb1 O80 1.852208 1_555
Nb1 O83 1.905014 1_455
Nb1 O6 1.931361 1_565
Nb1 O78 2.004461 1_565
Nb1 O9 2.073373 1_455
Nb1 O11 2.232275 1_465
Nb2 O84 1.842536 1_555
Nb2 O15 1.916817 1_555
Nb2 O88 1.919604 1_545
Nb2 O87 2.025592 1_555
Nb2 O12 2.097843 1_545
Nb2 O17 2.261262 1_545
Nb3 O91 1.853694 1_455
Nb3 O22 1.912525 1_555
Nb3 O93 1.947822 1_465
Nb3 O94 2.033117 1_565
Nb3 O19 2.075274 1_455
Nb3 O20 2.215947 1_565
Nb4 O28 1.848078 1_555
Nb4 O24 1.907839 1_555
Nb4 O98 1.966099 1_555
Nb4 O26 2.060344 1_555
Nb4 O100 2.075481 1_555
Nb4 O96 2.177275 1_555
Nb5 O29 1.852520 1_555
Nb5 O25 1.900791 1_555
Nb5 O99 1.987422 1_555
Nb5 O101 2.041766 1_555
Nb5 O27 2.078972 1_555
Nb5 O97 2.163660 1_555
Nb6 O32 1.870571 1_555
Nb6 O104 1.880415 1_555
Nb6 O30 1.917943 1_555
Nb6 O106 2.004699 1_555
Nb6 O102 2.124005 1_555
Nb6 O34 2.236969 1_555
Nb7 O33 1.849645 1_555
Nb7 O107 1.926248 1_555
Nb7 O31 1.935855 1_555
Nb7 O105 2.082619 1_555
Nb7 O35 2.107460 1_555
Nb7 O103 2.130056 1_555
Nb8 O124 1.845972 1_555
Nb8 O52 1.896552 1_554
Nb8 O122 1.949532 1_555
Nb8 O48 1.957244 1_554
Nb8 O120 2.108389 1_555
Nb8 O50 2.250255 1_554
Nb9 O125 1.874322 1_555
Nb9 O53 1.891524 1_554
Nb9 O123 1.910719 1_555
Nb9 O49 1.967745 1_554
Nb9 O121 2.152805 1_555
Nb9 O51 2.223179 1_554
Nb10 O56 1.870696 1_555
Nb10 O128 1.894979 1_555
Nb10 O54 1.923255 1_555
Nb10 O130 1.945143 1_555
Nb10 O126 2.164423 1_555
Nb10 O58 2.226828 1_555
Nb11 O57 1.854322 1_555
Nb11 O129 1.893432 1_555
Nb11 O55 1.935471 1_555
Nb11 O131 1.973722 1_555
Nb11 O127 2.143042 1_555
Nb11 O59 2.228981 1_555
Ge0 O0 1.783967 1_555
Ge0 O76 1.804774 1_555
Ge0 O75 1.829507 1_445
Ge0 O5 2.006250 1_455
Ge0 O72 2.080608 1_545
Ge0 O3 2.118919 1_445
Ge1 O81 1.792695 1_555
Ge1 O7 1.797035 1_565
Ge1 O82 1.829450 1_555
Ge1 O8 1.990396 1_555
Ge1 O79 2.016177 1_565
Ge1 O10 2.203745 1_565
Ge2 O85 1.789514 1_555
Ge2 O14 1.794139 1_655
Ge2 O89 1.835743 1_545
Ge2 O13 2.022645 1_545
Ge2 O86 2.034882 1_655
Ge2 O16 2.259497 1_645
Ge3 O23 1.829641 1_555
Ge3 O21 1.833234 1_565
Ge3 O90 1.870419 1_555
Ge3 O92 1.921484 1_565
Ge3 O18 2.077867 1_555
Ge3 O95 2.095905 1_565
Ge4 O38 1.816122 1_556
Ge4 O40 1.846651 1_556
Ge4 O108 1.883675 1_555
Ge4 O112 1.929450 1_555
Ge4 O36 2.065189 1_556
Ge4 O110 2.089346 1_555
Ge5 O39 1.816161 1_556
Ge5 O41 1.839531 1_556
Ge5 O109 1.856864 1_555
Ge5 O113 1.892868 1_555
Ge5 O37 1.997695 1_556
Ge5 O111 2.144223 1_555
Ge6 O114 1.824862 1_555
Ge6 O44 1.828197 1_555
Ge6 O46 1.839745 1_555
Ge6 O116 1.905506 1_555
Ge6 O118 1.986177 1_555
Ge6 O42 2.180744 1_555
Ge7 O47 1.825543 1_555
Ge7 O117 1.869045 1_555
Ge7 O115 1.875398 1_555
Ge7 O45 1.882013 1_555
Ge7 O119 2.000835 1_555
Ge7 O43 2.150012 1_555
Ge8 O62 1.764195 1_555
Ge8 O132 1.819675 1_555
Ge8 O64 1.831962 1_555
Ge8 O134 1.972112 1_555
Ge8 O60 2.112086 1_555
Ge8 O136 2.202052 1_555
Ge9 O137 1.835784 1_555
Ge9 O133 1.839021 1_555
Ge9 O63 1.846068 1_555
Ge9 O65 1.894722 1_555
Ge9 O135 2.061973 1_555
Ge9 O61 2.066844 1_555
Ge10 O70 1.765681 1_555
Ge10 O138 1.809924 1_555
Ge10 O68 1.820020 1_555
Ge10 O142 2.033329 1_555
Ge10 O66 2.052755 1_555
Ge10 O140 2.283906 1_555
Ge11 O71 1.765004 1_555
Ge11 O69 1.808204 1_555
Ge11 O139 1.808866 1_555
Ge11 O67 2.037361 1_555
Ge11 O143 2.083234 1_555
Ge11 O141 2.247904 1_555
O0 Si0 1.630301 1_545
O1 Si1 1.631356 1_545
O2 S0 1.462448 1_555
O3 S1 1.465901 1_555
O4 Si2 1.645342 1_555
O5 S2 1.488271 1_655
O6 Si3 1.631247 1_555
O7 Si4 1.623864 1_555
O8 S4 1.494913 1_555
O9 S3 1.498775 1_655
O10 S5 1.460424 1_545
O11 S6 1.462666 1_545
O12 S5 1.500832 1_555
O13 S6 1.504420 1_555
O14 Si3 1.642860 1_555
O15 Si4 1.657326 1_555
O16 S3 1.457198 1_555
O17 S4 1.467711 1_555
O18 S0 1.479498 1_555
O19 S1 1.502561 1_555
O20 S2 1.472736 1_555
O21 Si2 1.620980 1_555
O22 Si0 1.669052 1_555
O23 Si1 1.629113 1_555
O24 Si5 1.648831 1_555
O25 Si6 1.653290 1_555
O26 S7 1.506839 1_555
O27 S8 1.489616 1_555
O28 Si7 1.659773 1_555
O29 Si8 1.666430 1_555
O30 Si9 1.633258 1_555
O31 Si10 1.627880 1_555
O32 Si11 1.638050 1_555
O33 Si12 1.648788 1_555
O34 S9 1.458023 1_555
O35 S10 1.487099 1_555
O36 S9 1.473952 1_555
O37 S10 1.491691 1_555
O38 Si9 1.636070 1_555
O39 Si10 1.605329 1_555
O40 Si11 1.622195 1_555
O41 Si12 1.603947 1_555
O42 S7 1.463716 1_555
O43 S8 1.450031 1_555
O44 Si7 1.589466 1_555
O45 Si8 1.608014 1_555
O46 Si5 1.595328 1_555
O47 Si6 1.614926 1_555
O48 Si13 1.637519 1_555
O49 Si14 1.610762 1_555
O50 S11 1.454999 1_555
O51 S12 1.462097 1_555
O52 Si15 1.620263 1_555
O53 Si16 1.641532 1_555
O54 Si17 1.633438 1_555
O55 Si18 1.660578 1_555
O56 Si19 1.660673 1_555
O57 Si20 1.647224 1_555
O58 S13 1.464869 1_555
O59 S14 1.467989 1_555
O60 S13 1.476361 1_555
O61 S14 1.476388 1_555
O62 Si17 1.627389 1_555
O63 Si18 1.619762 1_555
O64 Si19 1.643277 1_555
O65 Si20 1.606303 1_555
O66 S11 1.484899 1_555
O67 S12 1.490602 1_555
O68 Si15 1.643025 1_555
O69 Si16 1.654360 1_555
O70 Si13 1.643145 1_555
O71 Si14 1.632480 1_555
O72 S13 1.489807 1_555
O73 S14 1.471399 1_555
O74 Si17 1.624195 1_555
O75 Si18 1.670450 1_555
O76 Si19 1.642260 1_555
O77 Si20 1.641275 1_555
O78 S11 1.506712 1_555
O79 S12 1.493819 1_555
O80 Si15 1.664163 1_555
O81 Si16 1.639246 1_555
O82 Si13 1.659298 1_555
O83 Si14 1.654444 1_555
O84 Si5 1.671238 1_555
O85 Si6 1.641373 1_555
O86 S7 1.482656 1_555
O87 S8 1.495076 1_555
O88 Si7 1.623110 1_555
O89 Si8 1.633034 1_555
O90 Si9 1.629419 1_555
O91 Si10 1.659349 1_555
O92 Si11 1.610175 1_555
O93 Si12 1.614762 1_555
O94 S9 1.498602 1_555
O95 S10 1.469851 1_555
O96 S5 1.493733 1_545
O97 S6 1.496701 1_545
O98 Si3 1.660955 1_555
O99 Si4 1.663255 1_555
O100 S4 1.532588 1_555
O101 S3 1.535232 1_655
O102 S0 1.491246 1_555
O103 S1 1.497259 1_555
O104 Si2 1.679948 1_555
O105 S2 1.529655 1_655
O106 Si0 1.645442 1_545
O107 Si1 1.697218 1_545
O108 Si13 1.634017 1_555
O109 Si14 1.623982 1_555
O110 S12 1.481220 1_555
O111 S11 1.466823 1_655
O112 Si15 1.613379 1_545
O113 Si16 1.634708 1_545
O114 Si17 1.630060 1_545
O115 Si18 1.647539 1_545
O116 Si19 1.633178 1_555
O117 Si20 1.627407 1_555
O118 S14 1.499295 1_555
O119 S13 1.500061 1_655
O120 S9 1.469229 1_555
O121 S10 1.466259 1_555
O122 Si10 1.611321 1_455
O123 Si9 1.645370 1_555
O124 Si11 1.657862 1_565
O125 Si12 1.624326 1_565
O126 S7 1.463523 1_565
O127 S8 1.460405 1_565
O128 Si7 1.618568 1_555
O129 Si8 1.633729 1_555
O130 Si6 1.616643 1_455
O131 Si5 1.604008 1_555
O132 Si0 1.627896 1_555
O133 Si1 1.605475 1_555
O134 S0 1.491348 1_555
O135 S1 1.450988 1_555
O136 S2 1.448170 1_555
O137 Si2 1.597961 1_555
O138 Si3 1.632851 1_555
O139 Si4 1.627541 1_555
O140 S3 1.443320 1_555
O141 S4 1.446854 1_555
O142 S5 1.477936 1_555
O143 S6 1.471726 1_555
