# generated using pymatgen
data_Sb11F43
_symmetry_space_group_name_H-M   'P 1'
_cell_length_a   9.28907300
_cell_length_b   11.77274400
_cell_length_c   16.95782828
_cell_angle_alpha   73.53809398
_cell_angle_beta   90.00000000
_cell_angle_gamma   90.00000000
_symmetry_Int_Tables_number   1
_chemical_formula_structural   Sb11F43
_chemical_formula_sum   'Sb22 F86'
_cell_volume   1778.45426013
_cell_formula_units_Z   2
loop_
 _symmetry_equiv_pos_site_id
 _symmetry_equiv_pos_as_xyz
  1  'x, y, z'
loop_
 _atom_site_type_symbol
 _atom_site_label
 _atom_site_symmetry_multiplicity
 _atom_site_fract_x
 _atom_site_fract_y
 _atom_site_fract_z
 _atom_site_occupancy
  Sb  Sb0  1  0.32829600  0.07038500  0.73287700  1
  Sb  Sb1  1  0.82829600  0.92961500  0.76712300  1
  Sb  Sb2  1  0.67170400  0.92961500  0.26712300  1
  Sb  Sb3  1  0.17170400  0.07038500  0.23287700  1
  Sb  Sb4  1  0.23402300  0.33944600  0.84761800  1
  Sb  Sb5  1  0.73402300  0.66055400  0.65238200  1
  Sb  Sb6  1  0.76597700  0.66055400  0.15238200  1
  Sb  Sb7  1  0.26597700  0.33944600  0.34761800  1
  Sb  Sb8  1  0.48540500  0.84348700  0.96096400  1
  Sb  Sb9  1  0.98540500  0.15651300  0.53903600  1
  Sb  Sb10  1  0.51459500  0.15651300  0.03903600  1
  Sb  Sb11  1  0.01459500  0.84348700  0.46096400  1
  Sb  Sb12  1  0.00000000  0.00000000  0.00000000  1
  Sb  Sb13  1  0.50000000  0.00000000  0.50000000  1
  Sb  Sb14  1  0.24837800  0.72517000  0.75162200  1
  Sb  Sb15  1  0.74837800  0.27483000  0.74837800  1
  Sb  Sb16  1  0.75162200  0.27483000  0.24837800  1
  Sb  Sb17  1  0.25162200  0.72517000  0.25162200  1
  Sb  Sb18  1  0.73875700  0.56254900  0.92336200  1
  Sb  Sb19  1  0.23875700  0.43745100  0.57663800  1
  Sb  Sb20  1  0.26124300  0.43745100  0.07663800  1
  Sb  Sb21  1  0.76124300  0.56254900  0.42336200  1
  F  F0  1  0.13230000  0.02847800  0.76884300  1
  F  F1  1  0.63230000  0.97152200  0.73115700  1
  F  F2  1  0.86770000  0.97152200  0.23115700  1
  F  F3  1  0.36770000  0.02847800  0.26884300  1
  F  F4  1  0.39084600  0.97524700  0.84965000  1
  F  F5  1  0.89084600  0.02475300  0.65035000  1
  F  F6  1  0.60915400  0.02475300  0.15035000  1
  F  F7  1  0.10915400  0.97524700  0.34965000  1
  F  F8  1  0.28197900  0.20842400  0.79276800  1
  F  F9  1  0.78197900  0.79157600  0.70723200  1
  F  F10  1  0.71802100  0.79157600  0.20723200  1
  F  F11  1  0.21802100  0.20842400  0.29276800  1
  F  F12  1  0.41714000  0.40963500  0.81445000  1
  F  F13  1  0.91714000  0.59036500  0.68555000  1
  F  F14  1  0.58286000  0.59036500  0.18555000  1
  F  F15  1  0.08286000  0.40963500  0.31445000  1
  F  F16  1  0.64199400  0.77646900  0.05609600  1
  F  F17  1  0.14199400  0.22353100  0.44390400  1
  F  F18  1  0.35800600  0.22353100  0.94390400  1
  F  F19  1  0.85800600  0.77646900  0.55609600  1
  F  F20  1  0.15706600  0.09735600  0.60191600  1
  F  F21  1  0.65706600  0.90264400  0.89808400  1
  F  F22  1  0.84293400  0.90264400  0.39808400  1
  F  F23  1  0.34293400  0.09735600  0.10191600  1
  F  F24  1  0.50000000  0.00000000  0.00000000  1
  F  F25  1  0.00000000  0.00000000  0.50000000  1
  F  F26  1  0.95920800  0.92852000  0.91395700  1
  F  F27  1  0.45920800  0.07148000  0.58604300  1
  F  F28  1  0.04079200  0.07148000  0.08604300  1
  F  F29  1  0.54079200  0.92852000  0.41395700  1
  F  F30  1  0.80578600  0.05700000  0.99685600  1
  F  F31  1  0.30578600  0.94300000  0.50314400  1
  F  F32  1  0.19421400  0.94300000  0.00314400  1
  F  F33  1  0.69421400  0.05700000  0.49685600  1
  F  F34  1  0.05659800  0.14625900  0.92088200  1
  F  F35  1  0.55659800  0.85374100  0.57911800  1
  F  F36  1  0.94340200  0.85374100  0.07911800  1
  F  F37  1  0.44340200  0.14625900  0.42088200  1
  F  F38  1  0.32472600  0.88955100  0.71062500  1
  F  F39  1  0.82472600  0.11044900  0.78937500  1
  F  F40  1  0.67527400  0.11044900  0.28937500  1
  F  F41  1  0.17527400  0.88955100  0.21062500  1
  F  F42  1  0.17420700  0.56807000  0.79818000  1
  F  F43  1  0.67420700  0.43193000  0.70182000  1
  F  F44  1  0.82579300  0.43193000  0.20182000  1
  F  F45  1  0.32579300  0.56807000  0.29818000  1
  F  F46  1  0.29440500  0.73635300  0.85944000  1
  F  F47  1  0.79440500  0.26364700  0.64056000  1
  F  F48  1  0.70559500  0.26364700  0.14056000  1
  F  F49  1  0.20559500  0.73635300  0.35944000  1
  F  F50  1  0.43763500  0.67129800  0.73882200  1
  F  F51  1  0.93763500  0.32870200  0.76117800  1
  F  F52  1  0.56236500  0.32870200  0.26117800  1
  F  F53  1  0.06236500  0.67129800  0.23882200  1
  F  F54  1  0.20267300  0.73011100  0.64145300  1
  F  F55  1  0.70267300  0.26988900  0.85854700  1
  F  F56  1  0.79732700  0.26988900  0.35854700  1
  F  F57  1  0.29732700  0.73011100  0.14145300  1
  F  F58  1  0.56378300  0.20645500  0.74039700  1
  F  F59  1  0.06378300  0.79354500  0.75960300  1
  F  F60  1  0.43621700  0.79354500  0.25960300  1
  F  F61  1  0.93621700  0.20645500  0.24039700  1
  F  F62  1  0.23767400  0.43484000  0.96303600  1
  F  F63  1  0.73767400  0.56516000  0.53696400  1
  F  F64  1  0.76232600  0.56516000  0.03696400  1
  F  F65  1  0.26232600  0.43484000  0.46303600  1
  F  F66  1  0.60714500  0.43489900  0.95729400  1
  F  F67  1  0.10714500  0.56510100  0.54270600  1
  F  F68  1  0.39285500  0.56510100  0.04270600  1
  F  F69  1  0.89285500  0.43489900  0.45729400  1
  F  F70  1  0.57895100  0.67502300  0.91644000  1
  F  F71  1  0.07895100  0.32497700  0.58356000  1
  F  F72  1  0.42104900  0.32497700  0.08356000  1
  F  F73  1  0.92104900  0.67502300  0.41644000  1
  F  F74  1  0.20400300  0.42825100  0.69086800  1
  F  F75  1  0.70400300  0.57174900  0.80913200  1
  F  F76  1  0.79599700  0.57174900  0.30913200  1
  F  F77  1  0.29599700  0.42825100  0.19086800  1
  F  F78  1  0.85921300  0.69946600  0.88886800  1
  F  F79  1  0.35921300  0.30053400  0.61113200  1
  F  F80  1  0.14078700  0.30053400  0.11113200  1
  F  F81  1  0.64078700  0.69946600  0.38886800  1
  F  F82  1  0.89752300  0.45925600  0.93084600  1
  F  F83  1  0.39752300  0.54074400  0.56915400  1
  F  F84  1  0.10247700  0.54074400  0.06915400  1
  F  F85  1  0.60247700  0.45925600  0.43084600  1
loop_
_geom_bond_atom_site_label_1
_geom_bond_atom_site_label_2
_geom_bond_distance
_geom_bond_site_symmetry_2
F0 Sb0 1.938946 1_555
F1 Sb1 1.938946 1_555
F2 Sb2 1.938946 1_555
F3 Sb3 1.938946 1_555
F4 Sb0 2.063085 1_565
F4 Sb8 2.254190 1_555
F5 Sb1 2.063085 1_545
F5 Sb9 2.254190 1_555
F6 Sb2 2.063085 1_545
F6 Sb10 2.254190 1_555
F7 Sb3 2.063085 1_565
F7 Sb11 2.254190 1_555
F8 Sb4 2.063009 1_555
F8 Sb0 2.189283 1_555
F9 Sb5 2.063009 1_555
F9 Sb1 2.189283 1_555
F10 Sb6 2.063009 1_555
F10 Sb2 2.189283 1_555
F11 Sb7 2.063009 1_555
F11 Sb3 2.189283 1_555
F12 Sb4 1.905021 1_555
F13 Sb5 1.905021 1_555
F14 Sb6 1.905021 1_555
F15 Sb7 1.905021 1_555
F16 Sb6 2.142854 1_555
F16 Sb8 2.149280 1_554
F17 Sb7 2.142854 1_555
F17 Sb9 2.149280 1_455
F18 Sb4 2.142854 1_555
F18 Sb10 2.149280 1_556
F19 Sb5 2.142854 1_555
F19 Sb11 2.149280 1_655
F20 Sb9 1.934894 1_455
F21 Sb8 1.934894 1_555
F22 Sb11 1.934894 1_655
F23 Sb10 1.934894 1_555
F24 Sb10 2.131431 1_555
F24 Sb8 2.131431 1_544
F25 Sb9 2.131431 1_455
F25 Sb11 2.131431 1_545
F26 Sb12 1.917447 1_666
F27 Sb13 1.917447 1_555
F28 Sb12 1.917447 1_555
F29 Sb13 1.917447 1_565
F30 Sb12 1.920294 1_656
F31 Sb13 1.920294 1_565
F32 Sb12 1.920294 1_565
F33 Sb13 1.920294 1_555
F34 Sb12 1.931841 1_556
F35 Sb13 1.931841 1_565
F36 Sb12 1.931841 1_665
F37 Sb13 1.931841 1_555
F38 Sb14 1.992196 1_555
F38 Sb0 2.265183 1_565
F39 Sb15 1.992196 1_555
F39 Sb1 2.265183 1_545
F40 Sb16 1.992196 1_555
F40 Sb2 2.265183 1_545
F41 Sb17 1.992196 1_555
F41 Sb3 2.265183 1_565
F42 Sb14 1.921222 1_555
F43 Sb15 1.921222 1_555
F44 Sb16 1.921222 1_555
F45 Sb17 1.921222 1_555
F46 Sb14 1.918190 1_555
F47 Sb15 1.918190 1_555
F48 Sb16 1.918190 1_555
F49 Sb17 1.918190 1_555
F50 Sb14 1.902108 1_555
F51 Sb15 1.902108 1_555
F52 Sb16 1.902108 1_555
F53 Sb17 1.902108 1_555
F54 Sb14 1.900609 1_555
F55 Sb15 1.900609 1_555
F56 Sb16 1.900609 1_555
F57 Sb17 1.900609 1_555
F58 Sb15 1.915275 1_555
F59 Sb14 1.915275 1_555
F60 Sb17 1.915275 1_555
F61 Sb16 1.915275 1_555
F62 Sb20 1.947722 1_556
F62 Sb4 2.517726 1_555
F63 Sb21 1.947722 1_555
F63 Sb5 2.517726 1_555
F64 Sb18 1.947722 1_554
F64 Sb6 2.517726 1_555
F65 Sb19 1.947722 1_555
F65 Sb7 2.517726 1_555
F66 Sb18 1.895793 1_555
F67 Sb19 1.895793 1_555
F68 Sb20 1.895793 1_555
F69 Sb21 1.895793 1_555
F70 Sb18 1.970430 1_555
F70 Sb8 2.471285 1_555
F71 Sb19 1.970430 1_555
F71 Sb9 2.471285 1_455
F72 Sb20 1.970430 1_555
F72 Sb10 2.471285 1_555
F73 Sb21 1.970430 1_555
F73 Sb11 2.471285 1_655
F74 Sb19 1.936329 1_555
F75 Sb18 1.936329 1_555
F76 Sb21 1.936329 1_555
F77 Sb20 1.936329 1_555
F78 Sb18 1.912580 1_555
F79 Sb19 1.912580 1_555
F80 Sb20 1.912580 1_555
F81 Sb21 1.912580 1_555
F82 Sb18 1.892723 1_555
F83 Sb19 1.892723 1_555
F84 Sb20 1.892723 1_555
F85 Sb21 1.892723 1_555
