# generated using pymatgen
data_Ba2YbMgBiO6
_symmetry_space_group_name_H-M   'P 1'
_cell_length_a   10.81613053
_cell_length_b   8.54399862
_cell_length_c   6.24406081
_cell_angle_alpha   130.75704067
_cell_angle_beta   144.02047757
_cell_angle_gamma   34.61565753
_symmetry_Int_Tables_number   1
_chemical_formula_structural   Ba2YbMgBiO6
_chemical_formula_sum   'Ba2 Yb1 Mg1 Bi1 O6'
_cell_volume   192.42871043
_cell_formula_units_Z   1
loop_
 _symmetry_equiv_pos_site_id
 _symmetry_equiv_pos_as_xyz
  1  'x, y, z'
loop_
 _atom_site_type_symbol
 _atom_site_label
 _atom_site_symmetry_multiplicity
 _atom_site_fract_x
 _atom_site_fract_y
 _atom_site_fract_z
 _atom_site_occupancy
  Ba  Ba0  1  0.55609866  0.71062390  0.08771911  1
  Ba  Ba1  1  0.38618022  0.19867008  0.78034470  1
  Yb  Yb0  1  0.09169167  0.56050123  0.21953184  1
  Mg  Mg0  1  0.83361323  0.28625461  0.57304681  1
  Bi  Bi0  1  0.99419095  0.97665096  0.98160330  1
  O  O0  1  0.97248376  0.68241367  0.82013451  1
  O  O1  1  0.47336402  0.66389036  0.33960160  1
  O  O2  1  0.89408876  0.95359660  0.46497331  1
  O  O3  1  0.00741883  0.32891303  0.09096830  1
  O  O4  1  0.53203539  0.31092735  0.68560298  1
  O  O5  1  0.07758451  0.14184420  0.52939055  1
loop_
_geom_bond_atom_site_label_1
_geom_bond_atom_site_label_2
_geom_bond_distance
_geom_bond_site_symmetry_2
Ba0 O1 2.668291 1_555
Ba0 O4 2.691436 1_554
Ba0 O0 2.752082 1_555
Ba0 O3 2.861463 1_655
Ba0 O5 2.949137 1_564
Ba0 O3 3.402880 1_565
Ba1 O3 2.600106 1_555
Ba1 O5 2.653528 1_555
Ba1 O0 2.680368 1_455
Ba1 O2 2.753921 1_546
Ba1 O4 2.915556 1_555
Ba1 O1 3.166978 1_545
Mg0 O3 1.968400 1_656
Mg0 O5 1.981421 1_655
Mg0 O1 1.993276 1_555
Mg0 O2 2.027687 1_545
Bi0 O0 2.161151 1_555
Bi0 O4 2.236351 1_565
Bi0 O1 2.291747 1_656
Bi0 O5 2.302972 1_666
Bi0 O2 2.342197 1_555
Bi0 O3 2.722554 1_666
O0 Yb0 2.223473 1_656
O2 Yb0 2.227603 1_655
O3 Yb0 2.258509 1_555
O4 Yb0 2.157280 1_555
