# generated using pymatgen
data_MgV6O5F19
_symmetry_space_group_name_H-M   'P 1'
_cell_length_a   5.44970988
_cell_length_b   5.16384324
_cell_length_c   15.82839448
_cell_angle_alpha   90.35639519
_cell_angle_beta   101.10047114
_cell_angle_gamma   90.32445872
_symmetry_Int_Tables_number   1
_chemical_formula_structural   MgV6O5F19
_chemical_formula_sum   'Mg1 V6 O5 F19'
_cell_volume   437.08120651
_cell_formula_units_Z   1
loop_
 _symmetry_equiv_pos_site_id
 _symmetry_equiv_pos_as_xyz
  1  'x, y, z'
loop_
 _atom_site_type_symbol
 _atom_site_label
 _atom_site_symmetry_multiplicity
 _atom_site_fract_x
 _atom_site_fract_y
 _atom_site_fract_z
 _atom_site_occupancy
  Mg  Mg0  1  0.66545900  0.98807600  0.11776200  1
  V  V0  1  0.00675100  0.02371100  0.98463600  1
  V  V1  1  0.15614600  0.49123000  0.33870800  1
  V  V2  1  0.27542800  0.02437500  0.66270000  1
  V  V3  1  0.46911900  0.49214600  0.98113700  1
  V  V4  1  0.65313400  0.04359400  0.34248000  1
  V  V5  1  0.77703400  0.47992000  0.66292400  1
  O  O0  1  0.02002800  0.20140600  0.63851100  1
  O  O1  1  0.19235100  0.30922800  0.96408200  1
  O  O2  1  0.38435400  0.21697600  0.32028800  1
  O  O3  1  0.52039400  0.30021600  0.63841700  1
  O  O4  1  0.86765000  0.26768600  0.32002900  1
  F  F0  1  0.14999100  0.72135100  0.69565100  1
  F  F1  1  0.00284600  0.10782900  0.10071400  1
  F  F2  1  0.21962800  0.42238800  0.45054900  1
  F  F3  1  0.39533800  0.11247500  0.77159100  1
  F  F4  1  0.10209100  0.56838700  0.22539200  1
  F  F5  1  0.31127200  0.89878600  0.56185700  1
  F  F6  1  0.47860200  0.65883100  0.88462700  1
  F  F7  1  0.68953100  0.21450000  0.95251300  1
  F  F8  1  0.32426400  0.82097100  0.03202600  1
  F  F9  1  0.45316400  0.71840600  0.35721200  1
  F  F10  1  0.65234200  0.78271500  0.69526100  1
  F  F11  1  0.55421700  0.34459900  0.09654000  1
  F  F12  1  0.72066700  0.06655400  0.45569000  1
  F  F13  1  0.89598200  0.39361300  0.77159200  1
  F  F14  1  0.60825400  0.89295200  0.22498800  1
  F  F15  1  0.81425300  0.59684900  0.56156100  1
  F  F16  1  0.97194100  0.84108400  0.88947900  1
  F  F17  1  0.77534500  0.73475700  0.03176800  1
  F  F18  1  0.95194800  0.77689200  0.35860600  1
loop_
_geom_bond_atom_site_label_1
_geom_bond_atom_site_label_2
_geom_bond_distance
_geom_bond_site_symmetry_2
O0 V2 1.653212 1_555
O0 V5 2.045256 1_455
O1 V3 1.750417 1_555
O1 V0 1.848905 1_555
O2 V4 1.700348 1_555
O2 V1 1.947251 1_555
O3 V5 1.655181 1_555
O3 V2 2.035120 1_555
O4 V4 1.726783 1_555
O4 V1 1.920420 1_655
F0 V2 1.822952 1_565
F0 V5 2.347672 1_455
F1 V0 1.889481 1_554
F1 Mg0 2.004030 1_445
F2 V1 1.775750 1_555
F3 V2 1.777039 1_555
F4 V1 1.808128 1_555
F5 V2 1.764980 1_565
F6 V3 1.767299 1_555
F7 V0 1.976059 1_655
F7 V3 1.981072 1_555
F8 V0 2.045316 1_564
F8 V3 2.097193 1_554
F8 Mg0 2.244831 1_555
F9 V1 1.968168 1_555
F9 V4 2.035625 1_565
F10 V5 1.817845 1_555
F10 V2 2.381484 1_565
F11 Mg0 1.952349 1_545
F11 V3 1.956356 1_554
F12 V4 1.761660 1_555
F13 V5 1.777876 1_555
F14 Mg0 1.852400 1_555
F14 V4 1.981958 1_565
F15 V5 1.765173 1_555
F16 V0 1.750489 1_665
F17 Mg0 2.055007 1_555
F17 V3 2.108472 1_554
F17 V0 2.174424 1_664
F18 V1 1.913451 1_655
F18 V4 2.117409 1_565
