# generated using pymatgen
data_GeBi4Te7
_symmetry_space_group_name_H-M   'P 1'
_cell_length_a   4.38302794
_cell_length_b   4.38302872
_cell_length_c   24.91397490
_cell_angle_alpha   90.00000000
_cell_angle_beta   90.00000000
_cell_angle_gamma   120.00000180
_symmetry_Int_Tables_number   1
_chemical_formula_structural   GeBi4Te7
_chemical_formula_sum   'Ge1 Bi4 Te7'
_cell_volume   414.49777355
_cell_formula_units_Z   1
loop_
 _symmetry_equiv_pos_site_id
 _symmetry_equiv_pos_as_xyz
  1  'x, y, z'
loop_
 _atom_site_type_symbol
 _atom_site_label
 _atom_site_symmetry_multiplicity
 _atom_site_fract_x
 _atom_site_fract_y
 _atom_site_fract_z
 _atom_site_occupancy
  Ge  Ge0  1  -0.00000000  -0.00000000  0.00000000  1
  Bi  Bi0  1  0.33333300  0.66666700  0.84954432  1
  Bi  Bi1  1  0.66666700  0.33333300  0.41733271  1
  Bi  Bi2  1  0.33333300  0.66666700  0.58266729  1
  Bi  Bi3  1  0.66666700  0.33333300  0.15045568  1
  Te  Te0  1  0.66666700  0.33333300  0.93354548  1
  Te  Te1  1  -0.00000000  -0.00000000  0.50000000  1
  Te  Te2  1  0.00000000  0.00000000  0.78012316  1
  Te  Te3  1  -0.00000000  -0.00000000  0.21987684  1
  Te  Te4  1  0.33333300  0.66666700  0.06645452  1
  Te  Te5  1  0.33333300  0.66666700  0.34798284  1
  Te  Te6  1  0.66666700  0.33333300  0.65201716  1
loop_
_geom_bond_atom_site_label_1
_geom_bond_atom_site_label_2
_geom_bond_distance
_geom_bond_site_symmetry_2
Ge0 Te0 3.024037 1_454
Ge0 Te4 3.024037 1_545
Ge0 Te4 3.024040 1_445
Ge0 Te0 3.024040 1_554
Ge0 Te0 3.024040 1_444
Ge0 Te4 3.024040 1_555
Bi0 Te2 3.065127 1_565
Bi0 Te2 3.065129 1_665
Bi0 Te2 3.065130 1_555
Bi0 Te0 3.283817 1_455
Bi0 Te0 3.283818 1_565
Bi0 Te0 3.283823 1_555
Bi1 Te5 3.064124 1_655
Bi1 Te5 3.064125 1_545
Bi1 Te5 3.064131 1_555
Bi1 Te1 3.262739 1_655
Bi1 Te1 3.262742 1_555
Bi1 Te1 3.262742 1_665
Bi2 Te6 3.064124 1_455
Bi2 Te6 3.064125 1_565
Bi2 Te6 3.064131 1_555
Bi2 Te1 3.262739 1_565
Bi2 Te1 3.262742 1_665
Bi2 Te1 3.262742 1_555
Bi3 Te3 3.065127 1_655
Bi3 Te3 3.065129 1_555
Bi3 Te3 3.065130 1_665
Bi3 Te4 3.283817 1_655
Bi3 Te4 3.283818 1_545
Bi3 Te4 3.283823 1_555
