# generated using pymatgen
data_KAlSb4
_symmetry_space_group_name_H-M   'P 1'
_cell_length_a   4.25423892
_cell_length_b   10.52859814
_cell_length_c   18.11658016
_cell_angle_alpha   90.00000000
_cell_angle_beta   90.00000000
_cell_angle_gamma   90.00000000
_symmetry_Int_Tables_number   1
_chemical_formula_structural   KAlSb4
_chemical_formula_sum   'K4 Al4 Sb16'
_cell_volume   811.46285764
_cell_formula_units_Z   4
loop_
 _symmetry_equiv_pos_site_id
 _symmetry_equiv_pos_as_xyz
  1  'x, y, z'
loop_
 _atom_site_type_symbol
 _atom_site_label
 _atom_site_symmetry_multiplicity
 _atom_site_fract_x
 _atom_site_fract_y
 _atom_site_fract_z
 _atom_site_occupancy
  K  K0  1  0.25000000  0.32297566  0.93361653  1
  K  K1  1  0.75000000  0.67702434  0.06638347  1
  K  K2  1  0.25000000  0.82297566  0.56638347  1
  K  K3  1  0.75000000  0.17702434  0.43361653  1
  Al  Al0  1  0.25000000  0.18152216  0.13167666  1
  Al  Al1  1  0.75000000  0.81847784  0.86832334  1
  Al  Al2  1  0.25000000  0.68152216  0.36832334  1
  Al  Al3  1  0.75000000  0.31847784  0.63167666  1
  Sb  Sb0  1  0.75000000  0.82828626  0.39905368  1
  Sb  Sb1  1  0.25000000  0.17171374  0.60094632  1
  Sb  Sb2  1  0.75000000  0.32828626  0.10094632  1
  Sb  Sb3  1  0.25000000  0.67171374  0.89905368  1
  Sb  Sb4  1  0.75000000  0.38773240  0.77496739  1
  Sb  Sb5  1  0.25000000  0.61226760  0.22503261  1
  Sb  Sb6  1  0.75000000  0.88773240  0.72503261  1
  Sb  Sb7  1  0.25000000  0.11226760  0.27496739  1
  Sb  Sb8  1  0.75000000  0.53428001  0.54983115  1
  Sb  Sb9  1  0.25000000  0.46571999  0.45016885  1
  Sb  Sb10  1  0.75000000  0.03428001  0.95016885  1
  Sb  Sb11  1  0.25000000  0.96571999  0.04983115  1
  Sb  Sb12  1  0.75000000  0.93122256  0.25320910  1
  Sb  Sb13  1  0.25000000  0.06877744  0.74679090  1
  Sb  Sb14  1  0.75000000  0.43122256  0.24679090  1
  Sb  Sb15  1  0.25000000  0.56877744  0.75320910  1
loop_
_geom_bond_atom_site_label_1
_geom_bond_atom_site_label_2
_geom_bond_distance
_geom_bond_site_symmetry_2
K0 Sb4 3.640109 1_455
K0 Sb4 3.640109 1_555
K0 Sb2 3.703703 1_456
K0 Sb2 3.703703 1_556
K0 Sb10 3.722027 1_455
K0 Sb10 3.722027 1_555
K0 Sb3 3.724732 1_555
K1 Sb5 3.640109 1_555
K1 Sb5 3.640109 1_655
K1 Sb3 3.703703 1_554
K1 Sb3 3.703703 1_654
K1 Sb11 3.722027 1_555
K1 Sb11 3.722027 1_655
K1 Sb2 3.724732 1_555
K2 Sb6 3.640109 1_455
K2 Sb6 3.640109 1_555
K2 Sb0 3.703703 1_555
K2 Sb0 3.703703 1_455
K2 Sb8 3.722027 1_455
K2 Sb8 3.722027 1_555
K2 Sb1 3.724732 1_565
K3 Sb7 3.640109 1_655
K3 Sb7 3.640109 1_555
K3 Sb1 3.703703 1_555
K3 Sb1 3.703703 1_655
K3 Sb9 3.722027 1_555
K3 Sb9 3.722027 1_655
K3 Sb0 3.724732 1_545
Al0 Sb2 2.687432 1_555
Al0 Sb2 2.687432 1_455
Al0 Sb7 2.696397 1_555
Al0 Sb11 2.713115 1_545
Al1 Sb3 2.687432 1_555
Al1 Sb3 2.687432 1_655
Al1 Sb6 2.696397 1_555
Al1 Sb10 2.713115 1_565
Al2 Sb0 2.687432 1_555
Al2 Sb0 2.687432 1_455
Al2 Sb5 2.696397 1_555
Al2 Sb9 2.713115 1_555
Al3 Sb1 2.687432 1_555
Al3 Sb1 2.687432 1_655
Al3 Sb4 2.696397 1_555
Al3 Sb8 2.713115 1_555
Sb0 Sb12 2.855839 1_555
Sb1 Sb13 2.855839 1_555
Sb8 Sb9 2.881955 1_655
Sb8 Sb9 2.881955 1_555
Sb10 Sb11 2.881955 1_646
Sb10 Sb11 2.881955 1_546
Sb12 Sb7 2.883302 1_665
Sb12 Sb7 2.883302 1_565
Sb13 Sb6 2.883302 1_545
Sb13 Sb6 2.883302 1_445
Sb14 Sb2 2.855839 1_555
Sb14 Sb5 2.883302 1_655
Sb14 Sb5 2.883302 1_555
Sb15 Sb3 2.855839 1_555
Sb15 Sb4 2.883302 1_455
Sb15 Sb4 2.883302 1_555
