# generated using pymatgen
data_Na5AuSe12
_symmetry_space_group_name_H-M   'P 1'
_cell_length_a   16.93194692
_cell_length_b   7.15959841
_cell_length_c   8.36534440
_cell_angle_alpha   73.16167321
_cell_angle_beta   90.00000000
_cell_angle_gamma   90.00000000
_symmetry_Int_Tables_number   1
_chemical_formula_structural   Na5AuSe12
_chemical_formula_sum   'Na10 Au2 Se24'
_cell_volume   970.61829740
_cell_formula_units_Z   2
loop_
 _symmetry_equiv_pos_site_id
 _symmetry_equiv_pos_as_xyz
  1  'x, y, z'
loop_
 _atom_site_type_symbol
 _atom_site_label
 _atom_site_symmetry_multiplicity
 _atom_site_fract_x
 _atom_site_fract_y
 _atom_site_fract_z
 _atom_site_occupancy
  Na  Na0  1  0.35233559  0.77704414  0.34809487  1
  Na  Na1  1  0.85233559  0.22295586  0.65190513  1
  Na  Na2  1  0.93879804  0.77908993  0.01771075  1
  Na  Na3  1  0.43879804  0.22091007  0.98228925  1
  Na  Na4  1  0.07183783  0.29220696  0.43824597  1
  Na  Na5  1  0.57183783  0.70779304  0.56175403  1
  Na  Na6  1  0.75986008  0.66467970  0.28602572  1
  Na  Na7  1  0.25986008  0.33532030  0.71397428  1
  Na  Na8  1  0.13747694  0.88139594  0.10175709  1
  Na  Na9  1  0.63747694  0.11860406  0.89824291  1
  Au  Au0  1  0.85056389  0.21376239  0.16054680  1
  Au  Au1  1  0.35056389  0.78623761  0.83945320  1
  Se  Se0  1  0.78537969  0.00907889  0.42531993  1
  Se  Se1  1  0.54594399  0.94978322  0.21399446  1
  Se  Se2  1  0.72131757  0.38944039  0.07745762  1
  Se  Se3  1  0.22131757  0.61055961  0.92254238  1
  Se  Se4  1  0.98127619  0.04255597  0.25273339  1
  Se  Se5  1  0.48127619  0.95744403  0.74726661  1
  Se  Se6  1  0.91387063  0.42252372  0.89612602  1
  Se  Se7  1  0.28537969  0.99092111  0.57468007  1
  Se  Se8  1  0.45301940  0.22426777  0.51215706  1
  Se  Se9  1  0.41387063  0.57747628  0.10387398  1
  Se  Se10  1  0.74823772  0.64110353  0.83018644  1
  Se  Se11  1  0.24823772  0.35889647  0.16981356  1
  Se  Se12  1  0.95301940  0.77573223  0.48784294  1
  Se  Se13  1  0.18763072  0.60652842  0.42112304  1
  Se  Se14  1  0.65977033  0.15114991  0.44412114  1
  Se  Se15  1  0.15977033  0.84885009  0.55587886  1
  Se  Se16  1  0.04630044  0.31698863  0.89781356  1
  Se  Se17  1  0.54630044  0.68301137  0.10218644  1
  Se  Se18  1  0.78064244  0.90528658  0.93547901  1
  Se  Se19  1  0.28064244  0.09471342  0.06452099  1
  Se  Se20  1  0.92761450  0.52376398  0.36406989  1
  Se  Se21  1  0.42761450  0.47623602  0.63593011  1
  Se  Se22  1  0.68763072  0.39347158  0.57887696  1
  Se  Se23  1  0.04594399  0.05021678  0.78600554  1
loop_
_geom_bond_atom_site_label_1
_geom_bond_atom_site_label_2
_geom_bond_distance
_geom_bond_site_symmetry_2
Na0 Se7 2.984019 1_555
Na0 Se9 2.998680 1_555
Na0 Se21 3.009373 1_555
Na0 Se19 3.024560 1_565
Na0 Se13 3.034600 1_555
Na0 Se1 3.567993 1_555
Na1 Se0 2.984019 1_555
Na1 Se6 2.998680 1_555
Na1 Se20 3.009373 1_555
Na1 Se18 3.024560 1_545
Na1 Se22 3.034600 1_555
Na1 Se23 3.567993 1_655
Na2 Se18 2.846141 1_554
Na2 Se23 2.938803 1_664
Na2 Se20 2.950259 1_555
Na2 Se6 3.038760 1_554
Na2 Se4 3.176373 1_565
Na3 Se19 2.846141 1_556
Na3 Se1 2.938803 1_546
Na3 Se21 2.950259 1_555
Na3 Se9 3.038760 1_556
Na3 Se5 3.176373 1_545
Na4 Se20 2.915615 1_455
Na4 Se23 2.955837 1_555
Na4 Se13 2.956702 1_555
Na4 Se4 3.092150 1_455
Na4 Se15 3.383982 1_545
Na5 Se21 2.915615 1_555
Na5 Se1 2.955837 1_555
Na5 Se22 2.956702 1_555
Na5 Se5 3.092150 1_555
Na5 Se14 3.383982 1_565
Na6 Se22 2.917483 1_555
Na6 Se18 2.960401 1_554
Na6 Se20 3.021661 1_555
Na6 Se0 3.047795 1_565
Na6 Se2 3.056991 1_555
Na7 Se13 2.917483 1_555
Na7 Se19 2.960401 1_556
Na7 Se21 3.021661 1_555
Na7 Se7 3.047795 1_545
Na7 Se3 3.056991 1_555
Na8 Se19 2.833739 1_565
Na8 Se13 2.947113 1_555
Na8 Se23 2.998355 1_564
Na8 Se3 3.115608 1_554
Na8 Se4 3.281093 1_465
Na8 Se16 3.455077 1_564
Na9 Se18 2.833739 1_545
Na9 Se22 2.947113 1_555
Na9 Se1 2.998355 1_546
Na9 Se2 3.115608 1_556
Na9 Se5 3.281093 1_545
Na9 Se17 3.455077 1_546
Au0 Se2 2.519466 1_555
Au0 Se6 2.521981 1_554
Au0 Se0 2.528060 1_555
Au0 Se4 2.539270 1_555
Au1 Se3 2.519466 1_555
Au1 Se9 2.521981 1_556
Au1 Se7 2.528060 1_555
Au1 Se5 2.539270 1_555
Se0 Se14 2.382306 1_555
Se1 Se17 2.357504 1_555
Se5 Se8 2.360045 1_565
Se10 Se2 2.360880 1_556
Se10 Se18 2.370573 1_555
Se11 Se3 2.360880 1_554
Se11 Se19 2.370573 1_555
Se12 Se4 2.360045 1_565
Se12 Se20 2.365082 1_555
Se13 Se15 2.374090 1_555
Se14 Se22 2.374090 1_555
Se15 Se7 2.382306 1_555
Se16 Se23 2.357504 1_555
Se16 Se6 2.364914 1_455
Se17 Se9 2.364914 1_555
Se21 Se8 2.365082 1_555
