# generated using pymatgen
data_Na10Sc7Nb(PO4)12
_symmetry_space_group_name_H-M   'P 1'
_cell_length_a   17.95726033
_cell_length_b   8.98649148
_cell_length_c   22.76344553
_cell_angle_alpha   89.98980997
_cell_angle_beta   89.99100508
_cell_angle_gamma   120.08109819
_symmetry_Int_Tables_number   1
_chemical_formula_structural   Na10Sc7Nb(PO4)12
_chemical_formula_sum   'Na30 Sc21 Nb3 P36 O144'
_cell_volume   3178.65479881
_cell_formula_units_Z   3
loop_
 _symmetry_equiv_pos_site_id
 _symmetry_equiv_pos_as_xyz
  1  'x, y, z'
loop_
 _atom_site_type_symbol
 _atom_site_label
 _atom_site_symmetry_multiplicity
 _atom_site_fract_x
 _atom_site_fract_y
 _atom_site_fract_z
 _atom_site_occupancy
  Na  Na0  1  0.31750572  0.99951989  0.25133309  1
  Na  Na1  1  0.68288878  0.36424921  0.25136717  1
  Na  Na2  1  0.31566035  0.63205983  0.75172335  1
  Na  Na3  1  0.81564958  0.63203039  0.75158387  1
  Na  Na4  1  0.15133211  0.33395908  0.58277398  1
  Na  Na5  1  0.65135444  0.33367466  0.58270143  1
  Na  Na6  1  0.01507341  0.69694283  0.58307368  1
  Na  Na7  1  0.51548993  0.69711993  0.58315678  1
  Na  Na8  1  0.33306741  0.96915061  0.58275962  1
  Na  Na9  1  0.83313559  0.96956514  0.58258998  1
  Na  Na10  1  0.15159355  0.96963133  0.08275073  1
  Na  Na11  1  0.65182166  0.97016481  0.08341149  1
  Na  Na12  1  0.33313460  0.69654031  0.08320136  1
  Na  Na13  1  0.83326057  0.69670132  0.08289627  1
  Na  Na14  1  0.01500865  0.33370390  0.08292256  1
  Na  Na15  1  0.51500825  0.33320428  0.08323064  1
  Na  Na16  1  0.66659824  0.03259297  0.41495513  1
  Na  Na17  1  0.34893564  0.66661929  0.41456876  1
  Na  Na18  1  0.00006962  0.99944121  0.49797221  1
  Na  Na19  1  0.49970144  0.00933333  0.49631344  1
  Na  Na20  1  0.99997765  0.99981856  0.99941820  1
  Na  Na21  1  0.49997886  0.99981277  0.99958322  1
  Na  Na22  1  0.33373269  0.32520087  0.83589302  1
  Na  Na23  1  0.83370891  0.32519165  0.83588309  1
  Na  Na24  1  0.33440963  0.33460881  0.33273490  1
  Na  Na25  1  0.84107449  0.34024077  0.33292443  1
  Na  Na26  1  0.16313080  0.65697735  0.17048416  1
  Na  Na27  1  0.66592258  0.67562586  0.17047963  1
  Na  Na28  1  0.16235254  0.66715931  0.67079945  1
  Na  Na29  1  0.66247686  0.66721502  0.67080415  1
  Sc  Sc0  1  0.49949196  0.00532739  0.35062700  1
  Sc  Sc1  1  0.00114127  0.00177631  0.65158598  1
  Sc  Sc2  1  0.50119638  0.00150659  0.65137832  1
  Sc  Sc3  1  0.00002977  0.00045807  0.15141051  1
  Sc  Sc4  1  0.50027994  0.99779777  0.15200716  1
  Sc  Sc5  1  0.33371178  0.32665462  0.68814606  1
  Sc  Sc6  1  0.83377389  0.32677697  0.68808390  1
  Sc  Sc7  1  0.33340407  0.34205839  0.18663045  1
  Sc  Sc8  1  0.83686536  0.33058928  0.18751453  1
  Sc  Sc9  1  0.33327813  0.33368433  0.97892994  1
  Sc  Sc10  1  0.83331288  0.33381803  0.97899588  1
  Sc  Sc11  1  0.33274469  0.32442308  0.47959331  1
  Sc  Sc12  1  0.83678439  0.34136061  0.47928026  1
  Sc  Sc13  1  0.16663877  0.66706399  0.01332660  1
  Sc  Sc14  1  0.66655134  0.66657333  0.01333957  1
  Sc  Sc15  1  0.16475254  0.66589487  0.51361511  1
  Sc  Sc16  1  0.66741364  0.66445603  0.51374968  1
  Sc  Sc17  1  0.16374007  0.66083864  0.31472006  1
  Sc  Sc18  1  0.66512915  0.66996717  0.31520472  1
  Sc  Sc19  1  0.16352038  0.66734861  0.81611175  1
  Sc  Sc20  1  0.66350725  0.66733767  0.81612676  1
  Nb  Nb0  1  0.00009141  0.99891209  0.35196239  1
  Nb  Nb1  1  0.00080139  0.00207132  0.85439722  1
  Nb  Nb2  1  0.50083454  0.00215308  0.85438972  1
  P  P0  1  0.14640778  0.99905544  0.24936706  1
  P  P1  1  0.64757272  0.99895724  0.25016492  1
  P  P2  1  0.35235748  0.70480667  0.25095944  1
  P  P3  1  0.85307229  0.70680226  0.24947518  1
  P  P4  1  0.00054907  0.29238075  0.24958605  1
  P  P5  1  0.49994059  0.29570718  0.24899449  1
  P  P6  1  0.14623946  0.29365066  0.74982212  1
  P  P7  1  0.64624952  0.29360892  0.74980576  1
  P  P8  1  0.00117639  0.70924730  0.74962033  1
  P  P9  1  0.50116968  0.70928834  0.74960465  1
  P  P10  1  0.35406233  0.99980481  0.75019950  1
  P  P11  1  0.85401933  0.99980867  0.75022145  1
  P  P12  1  0.47943629  0.33384294  0.58369546  1
  P  P13  1  0.97909687  0.33356436  0.58342917  1
  P  P14  1  0.18740068  0.04104310  0.58352929  1
  P  P15  1  0.68760478  0.04113571  0.58246871  1
  P  P16  1  0.33294895  0.62519308  0.58343028  1
  P  P17  1  0.83321801  0.62551160  0.58476502  1
  P  P18  1  0.47932599  0.62474139  0.08276663  1
  P  P19  1  0.97927761  0.62470951  0.08303802  1
  P  P20  1  0.33300864  0.04111664  0.08405624  1
  P  P21  1  0.83314088  0.04135873  0.08278016  1
  P  P22  1  0.18735672  0.33377386  0.08265282  1
  P  P23  1  0.68776613  0.33414395  0.08411404  1
  P  P24  1  0.31311192  0.66522066  0.91505066  1
  P  P25  1  0.81309404  0.66514098  0.91505929  1
  P  P26  1  0.01943846  0.37394254  0.91630678  1
  P  P27  1  0.51945561  0.37390539  0.91633002  1
  P  P28  1  0.16752643  0.96105840  0.91614864  1
  P  P29  1  0.66752753  0.96105912  0.91618392  1
  P  P30  1  0.31317025  0.96024770  0.41564492  1
  P  P31  1  0.81407428  0.96031182  0.41647909  1
  P  P32  1  0.16598712  0.37213096  0.41657578  1
  P  P33  1  0.66690463  0.37205633  0.41585918  1
  P  P34  1  0.02014619  0.66754723  0.41585964  1
  P  P35  1  0.51908032  0.66543526  0.41697226  1
  O  O0  1  0.09593730  0.01877013  0.30321565  1
  O  O1  1  0.60545687  0.02973936  0.30500565  1
  O  O2  1  0.40722852  0.79082472  0.30627787  1
  O  O3  1  0.91357381  0.80794065  0.30336166  1
  O  O4  1  0.48456505  0.17680116  0.30219840  1
  O  O5  1  0.99094799  0.17075507  0.30340869  1
  O  O6  1  0.09643568  0.17324824  0.80326755  1
  O  O7  1  0.59640735  0.17326159  0.80327773  1
  O  O8  1  0.48856318  0.80778481  0.80283698  1
  O  O9  1  0.98861331  0.80787228  0.80285779  1
  O  O10  1  0.41422738  0.01982420  0.80370744  1
  O  O11  1  0.91425002  0.01995675  0.80369908  1
  O  O12  1  0.39419004  0.96991388  0.69423524  1
  O  O13  1  0.89415270  0.96994791  0.69426025  1
  O  O14  1  0.09339280  0.21254723  0.69359653  1
  O  O15  1  0.59334648  0.21246578  0.69359293  1
  O  O16  1  0.01264022  0.81438385  0.69314508  1
  O  O17  1  0.51263250  0.81434424  0.69311047  1
  O  O18  1  0.39384035  0.81785139  0.19514896  1
  O  O19  1  0.89419477  0.81363838  0.19375827  1
  O  O20  1  0.01260159  0.21094777  0.19341502  1
  O  O21  1  0.51513142  0.21453958  0.19301175  1
  O  O22  1  0.09311659  0.97476826  0.19365279  1
  O  O23  1  0.59341518  0.97529850  0.19397722  1
  O  O24  1  0.43814902  0.36636548  0.63785767  1
  O  O25  1  0.93805563  0.36621501  0.63772792  1
  O  O26  1  0.24503456  0.12361040  0.63768660  1
  O  O27  1  0.74582433  0.12672955  0.63618572  1
  O  O28  1  0.31780751  0.51340953  0.63878703  1
  O  O29  1  0.81754243  0.51517638  0.64048141  1
  O  O30  1  0.43859358  0.51060365  0.13724024  1
  O  O31  1  0.93854059  0.51033214  0.13757129  1
  O  O32  1  0.31678440  0.11824925  0.14014154  1
  O  O33  1  0.81686716  0.12274928  0.13732536  1
  O  O34  1  0.24425714  0.36613292  0.13713902  1
  O  O35  1  0.74270359  0.36620467  0.14017921  1
  O  O36  1  0.22832940  0.30052169  0.02894818  1
  O  O37  1  0.73008051  0.30207253  0.03081199  1
  O  O38  1  0.42168832  0.54297401  0.02896984  1
  O  O39  1  0.92173952  0.54312171  0.02921533  1
  O  O40  1  0.34908646  0.15813623  0.03083821  1
  O  O41  1  0.84994055  0.15663754  0.02902965  1
  O  O42  1  0.22808008  0.15599617  0.52952781  1
  O  O43  1  0.72672694  0.15119137  0.52683413  1
  O  O44  1  0.34845506  0.54415042  0.52846043  1
  O  O45  1  0.84923534  0.54102069  0.53128893  1
  O  O46  1  0.42189815  0.30033724  0.52967187  1
  O  O47  1  0.92174543  0.30036475  0.52935313  1
  O  O48  1  0.27612290  0.70059226  0.97141883  1
  O  O49  1  0.77617287  0.70057216  0.97143100  1
  O  O50  1  0.07302902  0.44457523  0.97324606  1
  O  O51  1  0.57304082  0.44458077  0.97324008  1
  O  O52  1  0.14911009  0.85383917  0.97312045  1
  O  O53  1  0.64910967  0.85375949  0.97310606  1
  O  O54  1  0.27178498  0.84703813  0.47182195  1
  O  O55  1  0.77809603  0.85525850  0.47386201  1
  O  O56  1  0.14905732  0.44439766  0.47375977  1
  O  O57  1  0.65445822  0.45434780  0.47253618  1
  O  O58  1  0.07230768  0.70201717  0.47352717  1
  O  O59  1  0.57468563  0.69715261  0.47340898  1
  O  O60  1  0.06453416  0.64404519  0.36307439  1
  O  O61  1  0.56373716  0.64148261  0.36392660  1
  O  O62  1  0.25886107  0.87407052  0.36074897  1
  O  O63  1  0.75544781  0.87293327  0.36412875  1
  O  O64  1  0.18117218  0.48943513  0.36418178  1
  O  O65  1  0.67894839  0.48108740  0.36111774  1
  O  O66  1  0.06440786  0.48478744  0.86292131  1
  O  O67  1  0.56433951  0.48485265  0.86295026  1
  O  O68  1  0.17836582  0.87152434  0.86284248  1
  O  O69  1  0.67841639  0.87167398  0.86282698  1
  O  O70  1  0.25999604  0.64457749  0.85995853  1
  O  O71  1  0.75999110  0.64448216  0.85997052  1
  O  O72  1  0.01099147  0.83352789  0.40661423  1
  O  O73  1  0.51137807  0.83084437  0.41187065  1
  O  O74  1  0.40205153  0.96957920  0.41175851  1
  O  O75  1  0.90575735  0.97962719  0.40713553  1
  O  O76  1  0.08421127  0.18851519  0.40727974  1
  O  O77  1  0.58676954  0.18791159  0.41175755  1
  O  O78  1  0.01124666  0.18970625  0.90684371  1
  O  O79  1  0.51124532  0.18974787  0.90686274  1
  O  O80  1  0.08368033  0.97768071  0.90645425  1
  O  O81  1  0.58367689  0.97768527  0.90642543  1
  O  O82  1  0.40570348  0.83347685  0.90666381  1
  O  O83  1  0.90571870  0.83338742  0.90666310  1
  O  O84  1  0.48973241  0.17178893  0.58955416  1
  O  O85  1  0.98974725  0.17189020  0.58939894  1
  O  O86  1  0.09588920  0.02014434  0.58926908  1
  O  O87  1  0.59627844  0.02092679  0.58900250  1
  O  O88  1  0.41414679  0.80856323  0.58908658  1
  O  O89  1  0.91437897  0.80898726  0.58936379  1
  O  O90  1  0.48985607  0.80782001  0.08901793  1
  O  O91  1  0.99000735  0.80797790  0.08924582  1
  O  O92  1  0.41405197  0.01957782  0.08927814  1
  O  O93  1  0.91407394  0.01976059  0.08903439  1
  O  O94  1  0.09565304  0.17165915  0.08897032  1
  O  O95  1  0.59586169  0.17174940  0.08909353  1
  O  O96  1  0.34757471  0.16277529  0.74715691  1
  O  O97  1  0.84748184  0.16269053  0.74706471  1
  O  O98  1  0.23633462  0.31145516  0.74698488  1
  O  O99  1  0.73627828  0.31111090  0.74706159  1
  O  O100  1  0.41569554  0.53536086  0.74680837  1
  O  O101  1  0.91577114  0.53530519  0.74690176  1
  O  O102  1  0.34325415  0.52629538  0.24491849  1
  O  O103  1  0.84492649  0.52777910  0.24759422  1
  O  O104  1  0.41676306  0.30552370  0.24363027  1
  O  O105  1  0.91781445  0.30228116  0.24802954  1
  O  O106  1  0.23630924  0.16090175  0.24764911  1
  O  O107  1  0.73573226  0.16831688  0.24428756  1
  O  O108  1  0.32601553  0.51041639  0.92154050  1
  O  O109  1  0.82598059  0.51033153  0.92159763  1
  O  O110  1  0.42884599  0.34718607  0.92204933  1
  O  O111  1  0.92889684  0.34747518  0.92190871  1
  O  O112  1  0.24494384  0.14203157  0.92195759  1
  O  O113  1  0.74482007  0.14226958  0.92202732  1
  O  O114  1  0.32290139  0.13933299  0.42208012  1
  O  O115  1  0.82208603  0.13888521  0.42248762  1
  O  O116  1  0.24751093  0.35714528  0.42275794  1
  O  O117  1  0.74637187  0.34720239  0.42194990  1
  O  O118  1  0.42700836  0.50940269  0.42263118  1
  O  O119  1  0.92947257  0.51103659  0.42176547  1
  O  O120  1  0.17704944  0.49598562  0.07675135  1
  O  O121  1  0.67750652  0.49632935  0.07713332  1
  O  O122  1  0.07083918  0.64563146  0.07696854  1
  O  O123  1  0.57095435  0.64605541  0.07675071  1
  O  O124  1  0.25185665  0.85791863  0.07706826  1
  O  O125  1  0.75202227  0.85815860  0.07678961  1
  O  O126  1  0.17696251  0.85837223  0.57749528  1
  O  O127  1  0.67708484  0.85828673  0.57753905  1
  O  O128  1  0.25172630  0.64569045  0.57751380  1
  O  O129  1  0.75214531  0.64563325  0.57819184  1
  O  O130  1  0.07051213  0.49586877  0.57745272  1
  O  O131  1  0.57087726  0.49567267  0.57755667  1
  O  O132  1  0.15700951  0.84056346  0.25664157  1
  O  O133  1  0.65710498  0.83928817  0.25551358  1
  O  O134  1  0.26395077  0.69648094  0.25552125  1
  O  O135  1  0.76309191  0.68453591  0.25711579  1
  O  O136  1  0.08101726  0.46841616  0.25738088  1
  O  O137  1  0.58312432  0.47145196  0.25522913  1
  O  O138  1  0.15784225  0.47445639  0.75660348  1
  O  O139  1  0.65785202  0.47443016  0.75663664  1
  O  O140  1  0.08044767  0.69057392  0.75642318  1
  O  O141  1  0.58039270  0.69047718  0.75641580  1
  O  O142  1  0.26662405  0.83348062  0.75714874  1
  O  O143  1  0.76660425  0.83350070  0.75715173  1
loop_
_geom_bond_atom_site_label_1
_geom_bond_atom_site_label_2
_geom_bond_distance
_geom_bond_site_symmetry_2
Na0 O134 2.392611 1_555
Na0 O104 2.419904 1_565
Na0 O132 2.496849 1_555
Na0 O106 2.521107 1_565
Na0 O62 2.718729 1_555
Na0 O32 2.749174 1_565
Na0 O4 2.844126 1_565
Na0 O18 2.902322 1_555
Na1 O107 2.387804 1_555
Na1 O137 2.423918 1_555
Na1 O135 2.494077 1_555
Na1 O103 2.519323 1_555
Na1 O65 2.724756 1_555
Na1 O35 2.745960 1_555
Na1 O1 2.875546 1_555
Na1 O21 2.930632 1_555
Na2 O100 2.357829 1_555
Na2 O142 2.380082 1_555
Na2 O138 2.454778 1_555
Na2 O98 2.495515 1_555
Na2 O70 2.682199 1_555
Na2 O28 2.790994 1_555
Na2 O8 2.928206 1_555
Na2 O12 2.936867 1_555
Na3 O101 2.359229 1_555
Na3 O143 2.380796 1_555
Na3 O139 2.454639 1_555
Na3 O99 2.497757 1_555
Na3 O71 2.685190 1_555
Na3 O29 2.745323 1_555
Na3 O9 2.930531 1_555
Na3 O13 2.935673 1_555
Na4 O128 2.459519 1_555
Na4 O86 2.480170 1_555
Na4 O85 2.515305 1_455
Na4 O130 2.520873 1_555
Na4 O56 2.680386 1_555
Na4 O14 2.738100 1_555
Na4 O42 2.852328 1_555
Na4 O28 2.886580 1_555
Na5 O129 2.461490 1_555
Na5 O87 2.472051 1_555
Na5 O131 2.516048 1_555
Na5 O84 2.516195 1_555
Na5 O57 2.721443 1_555
Na5 O15 2.739390 1_555
Na5 O43 2.891996 1_555
Na5 O29 2.901509 1_555
Na6 O130 2.464921 1_555
Na6 O89 2.475677 1_455
Na6 O86 2.517267 1_565
Na6 O126 2.518724 1_555
Na6 O58 2.688659 1_555
Na6 O16 2.727806 1_555
Na6 O45 2.835506 1_455
Na6 O25 2.858579 1_455
Na7 O131 2.467323 1_555
Na7 O88 2.481937 1_555
Na7 O127 2.514203 1_555
Na7 O87 2.521540 1_565
Na7 O59 2.714774 1_555
Na7 O17 2.726183 1_555
Na7 O24 2.859020 1_555
Na7 O44 2.881881 1_555
Na8 O126 2.462946 1_555
Na8 O84 2.473700 1_565
Na8 O88 2.515835 1_555
Na8 O128 2.518150 1_555
Na8 O54 2.753866 1_555
Na8 O12 2.763576 1_555
Na8 O46 2.846343 1_565
Na8 O26 2.861585 1_565
Na9 O127 2.461061 1_555
Na9 O85 2.472518 1_565
Na9 O89 2.518915 1_555
Na9 O129 2.520970 1_555
Na9 O55 2.672395 1_555
Na9 O13 2.767568 1_555
Na9 O47 2.844984 1_565
Na9 O27 2.856792 1_565
Na10 O124 2.465373 1_555
Na10 O94 2.480632 1_565
Na10 O91 2.515151 1_455
Na10 O122 2.522967 1_555
Na10 O52 2.695745 1_554
Na10 O22 2.743316 1_555
Na10 O36 2.851563 1_565
Na10 O32 2.884471 1_565
Na11 O125 2.467578 1_555
Na11 O95 2.476509 1_565
Na11 O90 2.519936 1_555
Na11 O123 2.524941 1_555
Na11 O53 2.711333 1_554
Na11 O23 2.735770 1_555
Na11 O33 2.845723 1_565
Na11 O37 2.846275 1_565
Na12 O120 2.462135 1_555
Na12 O90 2.473200 1_555
Na12 O92 2.515840 1_565
Na12 O124 2.524816 1_555
Na12 O48 2.749974 1_554
Na12 O18 2.771505 1_555
Na12 O34 2.849302 1_555
Na12 O38 2.856042 1_555
Na13 O121 2.456394 1_555
Na13 O91 2.474312 1_555
Na13 O93 2.516088 1_565
Na13 O125 2.524779 1_555
Na13 O19 2.742133 1_555
Na13 O49 2.743486 1_554
Na13 O39 2.849664 1_555
Na13 O35 2.884796 1_555
Na14 O122 2.462454 1_555
Na14 O93 2.477439 1_455
Na14 O94 2.520047 1_555
Na14 O120 2.521782 1_555
Na14 O50 2.696107 1_554
Na14 O20 2.737911 1_555
Na14 O41 2.845510 1_455
Na14 O31 2.852644 1_455
Na15 O123 2.470552 1_555
Na15 O92 2.475222 1_555
Na15 O95 2.518479 1_555
Na15 O121 2.528790 1_555
Na15 O51 2.703571 1_554
Na15 O21 2.717273 1_555
Na15 O40 2.842131 1_555
Na15 O30 2.851142 1_555
Na16 O73 2.448552 1_545
Na16 O117 2.451726 1_555
Na16 O77 2.452376 1_555
Na16 O115 2.462611 1_555
Na16 O1 2.728173 1_555
Na16 O43 2.763317 1_555
Na16 O63 2.870125 1_545
Na16 O59 2.931185 1_545
Na17 O74 2.392251 1_555
Na17 O118 2.445582 1_555
Na17 O116 2.451211 1_555
Na17 O73 2.524914 1_555
Na17 O2 2.691679 1_555
Na17 O44 2.814636 1_555
Na17 O64 2.849497 1_555
Na17 O54 2.915225 1_555
Na18 O76 2.618437 1_565
Na18 O75 2.621927 1_455
Na18 O72 2.623056 1_555
Na18 O89 2.642489 1_455
Na18 O86 2.644744 1_565
Na18 O85 2.656368 1_465
Na19 O77 2.491466 1_555
Na19 O74 2.506094 1_545
Na19 O73 2.578712 1_545
Na19 O84 2.632729 1_555
Na19 O87 2.700070 1_555
Na19 O88 2.700800 1_545
Na20 O94 2.614305 1_666
Na20 O93 2.617150 1_566
Na20 O91 2.621928 1_556
Na20 O83 2.650382 1_555
Na20 O78 2.654437 1_665
Na20 O80 2.660061 1_655
Na21 O90 2.615098 1_556
Na21 O95 2.615136 1_566
Na21 O92 2.618228 1_566
Na21 O82 2.653260 1_555
Na21 O79 2.657344 1_565
Na21 O81 2.663489 1_555
Na22 O112 2.541014 1_555
Na22 O110 2.542733 1_555
Na22 O96 2.576252 1_555
Na22 O108 2.612070 1_555
Na22 O98 2.637211 1_555
Na22 O100 2.656418 1_555
Na23 O111 2.540594 1_555
Na23 O113 2.542218 1_555
Na23 O97 2.577666 1_555
Na23 O109 2.612834 1_555
Na23 O99 2.635214 1_555
Na23 O101 2.654796 1_555
Na24 O106 2.556742 1_555
Na24 O102 2.590941 1_555
Na24 O104 2.599255 1_555
Na24 O118 2.608401 1_555
Na24 O114 2.625568 1_555
Na24 O116 2.644120 1_555
Na25 O105 2.494103 1_555
Na25 O103 2.549499 1_555
Na25 O119 2.554432 1_555
Na25 O115 2.631922 1_555
Na25 O117 2.666154 1_555
Na25 O107 2.666262 1_555
Na26 O136 2.539983 1_555
Na26 O134 2.551058 1_555
Na26 O132 2.600623 1_555
Na26 O120 2.659243 1_555
Na26 O122 2.668402 1_555
Na26 O124 2.726646 1_555
Na27 O133 2.483816 1_555
Na27 O137 2.561653 1_555
Na27 O135 2.607964 1_555
Na27 O123 2.660484 1_555
Na27 O125 2.661759 1_555
Na27 O121 2.737075 1_555
Na28 O140 2.513151 1_555
Na28 O138 2.584288 1_555
Na28 O142 2.607738 1_555
Na28 O130 2.657426 1_555
Na28 O126 2.660670 1_555
Na28 O128 2.726112 1_555
Na29 O141 2.514441 1_555
Na29 O139 2.584633 1_555
Na29 O143 2.606526 1_555
Na29 O131 2.654803 1_555
Na29 O127 2.659211 1_555
Na29 O129 2.717884 1_555
Nb0 O5 1.971526 1_465
Nb0 O3 1.977703 1_455
Nb0 O0 1.979110 1_565
Nb0 O72 2.021363 1_555
Nb0 O75 2.044977 1_455
Nb0 O76 2.047397 1_565
Nb1 O78 1.996855 1_555
Nb1 O80 1.998676 1_545
Nb1 O6 2.005165 1_555
Nb1 O11 2.006048 1_455
Nb1 O83 2.008189 1_445
Nb1 O9 2.021847 1_445
Nb2 O79 1.997132 1_555
Nb2 O81 1.998198 1_545
Nb2 O7 2.004203 1_555
Nb2 O10 2.005756 1_555
Nb2 O82 2.008687 1_545
Nb2 O8 2.022768 1_545
O0 P0 1.586195 1_545
O1 P1 1.554492 1_545
O1 Sc0 2.080442 1_555
O2 P2 1.546382 1_555
O2 Sc0 2.068719 1_565
O3 P3 1.588086 1_555
O4 P5 1.545472 1_555
O4 Sc0 2.018714 1_555
O5 P4 1.592479 1_655
O6 P6 1.574746 1_555
O7 P7 1.575168 1_555
O8 P9 1.582472 1_555
O9 P8 1.582961 1_655
O10 P10 1.577612 1_545
O11 P11 1.577555 1_545
O12 P10 1.551832 1_555
O12 Sc2 2.043795 1_565
O13 P11 1.551721 1_555
O13 Sc1 2.040832 1_665
O14 P6 1.541832 1_555
O14 Sc1 2.025365 1_555
O15 P7 1.542034 1_555
O15 Sc2 2.027818 1_555
O16 P8 1.546689 1_555
O16 Sc1 2.030158 1_565
O17 P9 1.546656 1_555
O17 Sc2 2.029594 1_565
O18 P2 1.562551 1_555
O18 Sc4 2.033014 1_555
O19 P3 1.537607 1_555
O19 Sc3 2.039630 1_665
O20 P4 1.541532 1_555
O20 Sc3 2.028761 1_555
O21 P5 1.558887 1_555
O21 Sc4 2.053314 1_545
O22 P0 1.537197 1_555
O22 Sc3 2.039461 1_565
O23 P1 1.555674 1_555
O23 Sc4 2.022413 1_555
O24 P12 1.540210 1_555
O24 Sc5 2.069590 1_555
O25 P13 1.540656 1_555
O25 Sc6 2.068845 1_555
O26 P14 1.540260 1_555
O26 Sc5 2.067142 1_555
O27 P15 1.540926 1_555
O27 Sc6 2.068078 1_555
O28 P16 1.548080 1_555
O28 Sc5 2.154184 1_555
O29 P17 1.546153 1_555
O29 Sc6 2.149346 1_555
O30 P18 1.540087 1_555
O30 Sc7 2.063212 1_555
O31 P19 1.542114 1_555
O31 Sc8 2.068199 1_555
O32 P20 1.548524 1_555
O32 Sc7 2.157141 1_555
O33 P21 1.541592 1_555
O33 Sc8 2.061851 1_555
O34 P22 1.539346 1_555
O34 Sc7 2.055810 1_555
O35 P23 1.549394 1_555
O35 Sc8 2.159984 1_555
O36 P22 1.531467 1_555
O36 Sc9 2.091189 1_554
O37 P23 1.533621 1_555
O37 Sc10 2.092404 1_554
O38 P18 1.532697 1_555
O38 Sc9 2.088876 1_554
O39 P19 1.532163 1_555
O39 Sc10 2.091265 1_554
O40 P20 1.533572 1_555
O40 Sc9 2.100918 1_554
O41 P21 1.532128 1_555
O41 Sc10 2.097043 1_554
O42 P14 1.534483 1_555
O42 Sc11 2.064564 1_555
O43 P15 1.542178 1_555
O43 Sc12 2.147353 1_555
O44 P16 1.541817 1_555
O44 Sc11 2.158333 1_555
O45 P17 1.536292 1_555
O45 Sc12 2.066301 1_555
O46 P12 1.535969 1_555
O46 Sc11 2.063313 1_555
O47 P13 1.535390 1_555
O47 Sc12 2.080011 1_555
O48 P24 1.549255 1_555
O48 Sc13 2.066788 1_556
O49 P25 1.548899 1_555
O49 Sc14 2.067566 1_556
O50 P26 1.548324 1_555
O50 Sc13 2.070661 1_556
O51 P27 1.547765 1_555
O51 Sc14 2.067777 1_556
O52 P28 1.549073 1_555
O52 Sc13 2.069563 1_556
O53 P29 1.548496 1_555
O53 Sc14 2.072243 1_556
O54 P30 1.569687 1_555
O54 Sc15 2.027696 1_555
O55 P31 1.550089 1_555
O55 Sc16 2.073013 1_555
O56 P32 1.551356 1_555
O56 Sc15 2.074342 1_555
O57 P33 1.557977 1_555
O57 Sc16 2.014866 1_555
O58 P34 1.551193 1_555
O58 Sc15 2.057779 1_555
O59 P35 1.563314 1_555
O59 Sc16 2.047716 1_555
O60 P34 1.514028 1_555
O60 Sc17 2.034153 1_555
O61 P35 1.523248 1_555
O61 Sc18 2.035355 1_555
O62 P30 1.534931 1_555
O62 Sc17 2.099402 1_555
O63 P31 1.522180 1_555
O63 Sc18 2.057519 1_555
O64 P32 1.522941 1_555
O64 Sc17 2.054532 1_555
O65 P33 1.531870 1_555
O65 Sc18 2.111076 1_555
O66 P26 1.521196 1_555
O66 Sc19 2.016504 1_555
O67 P27 1.521140 1_555
O67 Sc20 2.016889 1_555
O68 P28 1.521496 1_555
O68 Sc19 2.019818 1_555
O69 P29 1.521974 1_555
O69 Sc20 2.020298 1_555
O70 P24 1.529704 1_555
O70 Sc19 2.096493 1_555
O71 P25 1.529484 1_555
O71 Sc20 2.096977 1_555
O72 P34 1.594317 1_555
O73 P35 1.564667 1_555
O73 Sc0 2.186898 1_565
O74 P30 1.558224 1_555
O74 Sc0 2.130002 1_565
O75 P31 1.580926 1_555
O76 P32 1.579590 1_555
O77 P33 1.559116 1_555
O77 Sc0 2.123334 1_555
O78 P26 1.601615 1_555
O79 P27 1.600787 1_555
O80 P28 1.601104 1_555
O81 P29 1.601406 1_555
O82 P24 1.602132 1_555
O83 P25 1.602456 1_555
O84 P12 1.562890 1_555
O84 Sc2 2.163264 1_555
O85 P13 1.563458 1_555
O85 Sc1 2.166943 1_655
O86 P14 1.563109 1_555
O86 Sc1 2.156840 1_555
O87 P15 1.563957 1_555
O87 Sc2 2.159223 1_555
O88 P16 1.565106 1_555
O88 Sc2 2.178321 1_565
O89 P17 1.563590 1_555
O89 Sc1 2.175043 1_665
O90 P18 1.565577 1_555
O90 Sc4 2.164768 1_555
O91 P19 1.565724 1_555
O91 Sc3 2.171559 1_665
O92 P20 1.565875 1_555
O92 Sc4 2.186159 1_545
O93 P21 1.566190 1_555
O93 Sc3 2.167413 1_655
O94 P22 1.565173 1_555
O94 Sc3 2.164704 1_555
O95 P23 1.565810 1_555
O95 Sc4 2.179311 1_545
O96 P10 1.527818 1_545
O96 Sc5 2.098132 1_555
O97 P11 1.527643 1_545
O97 Sc6 2.097804 1_555
O98 P6 1.545225 1_555
O98 Sc5 2.151754 1_555
O99 P7 1.545099 1_555
O99 Sc6 2.153944 1_555
O100 P9 1.548562 1_555
O100 Sc5 2.168356 1_555
O101 P8 1.547958 1_655
O101 Sc6 2.169761 1_555
O102 P2 1.535012 1_555
O102 Sc7 2.059181 1_555
O103 P3 1.541284 1_555
O103 Sc8 2.185238 1_555
O104 P5 1.544602 1_555
O104 Sc7 2.127243 1_555
O105 P4 1.532631 1_655
O105 Sc8 2.108678 1_555
O106 P0 1.539263 1_545
O106 Sc7 2.184627 1_555
O107 P1 1.557241 1_545
O107 Sc8 2.106800 1_555
O108 P24 1.527705 1_555
O108 Sc9 2.110207 1_555
O109 P25 1.527671 1_555
O109 Sc10 2.109343 1_555
O110 P27 1.526544 1_555
O110 Sc9 2.104011 1_555
O111 P26 1.525969 1_655
O111 Sc10 2.106645 1_555
O112 P28 1.526019 1_545
O112 Sc9 2.104075 1_555
O113 P29 1.526546 1_545
O113 Sc10 2.104590 1_555
O114 P30 1.536286 1_545
O114 Sc11 2.053769 1_555
O115 P31 1.543783 1_545
O115 Sc12 2.138045 1_555
O116 P32 1.542323 1_555
O116 Sc11 2.134151 1_555
O117 P33 1.557251 1_555
O117 Sc12 2.104260 1_555
O118 P35 1.546670 1_555
O118 Sc11 2.118424 1_555
O119 P34 1.533496 1_655
O119 Sc12 2.064917 1_555
O120 P22 1.564495 1_555
O120 Sc13 2.184125 1_555
O121 P23 1.566058 1_555
O121 Sc14 2.188395 1_555
O122 P19 1.564559 1_455
O122 Sc13 2.182259 1_555
O123 P18 1.564210 1_555
O123 Sc14 2.178603 1_555
O124 P20 1.566664 1_565
O124 Sc13 2.181573 1_555
O125 P21 1.564283 1_565
O125 Sc14 2.181425 1_555
O126 P14 1.562175 1_565
O126 Sc15 2.185233 1_555
O127 P15 1.561150 1_565
O127 Sc16 2.206911 1_555
O128 P16 1.564854 1_555
O128 Sc15 2.207450 1_555
O129 P17 1.561576 1_555
O129 Sc16 2.180414 1_555
O130 P13 1.562146 1_455
O130 Sc15 2.171758 1_555
O131 P12 1.561010 1_555
O131 Sc16 2.185862 1_555
O132 P0 1.537531 1_555
O132 Sc17 2.136814 1_555
O133 P1 1.532683 1_555
O133 Sc18 2.097956 1_555
O134 P2 1.554847 1_555
O134 Sc17 2.139640 1_555
O135 P3 1.535218 1_555
O135 Sc18 2.151406 1_555
O136 P4 1.526664 1_555
O136 Sc17 2.080109 1_555
O137 P5 1.543035 1_555
O137 Sc18 2.140781 1_555
O138 P6 1.538824 1_555
O138 Sc19 2.161905 1_555
O139 P7 1.539077 1_555
O139 Sc20 2.161899 1_555
O140 P8 1.522497 1_555
O140 Sc19 2.104202 1_555
O141 P9 1.522375 1_555
O141 Sc20 2.104751 1_555
O142 P10 1.540022 1_555
O142 Sc19 2.164693 1_555
O143 P11 1.539689 1_555
O143 Sc20 2.164874 1_555
