# generated using pymatgen
data_Na10Y6Nb2Si7S5O48
_symmetry_space_group_name_H-M   'P 1'
_cell_length_a   18.61516065
_cell_length_b   9.33603105
_cell_length_c   23.20465575
_cell_angle_alpha   90.01997264
_cell_angle_beta   90.13586488
_cell_angle_gamma   120.13813130
_symmetry_Int_Tables_number   1
_chemical_formula_structural   Na10Y6Nb2Si7S5O48
_chemical_formula_sum   'Na30 Y18 Nb6 Si21 S15 O144'
_cell_volume   3487.60063965
_cell_formula_units_Z   3
loop_
 _symmetry_equiv_pos_site_id
 _symmetry_equiv_pos_as_xyz
  1  'x, y, z'
loop_
 _atom_site_type_symbol
 _atom_site_label
 _atom_site_symmetry_multiplicity
 _atom_site_fract_x
 _atom_site_fract_y
 _atom_site_fract_z
 _atom_site_occupancy
  Na  Na0  1  0.31404759  0.99901697  0.24113321  1
  Na  Na1  1  0.81908091  0.02226504  0.24013350  1
  Na  Na2  1  0.18427596  0.36601493  0.24572185  1
  Na  Na3  1  0.32257057  0.62063017  0.74169491  1
  Na  Na4  1  0.81300849  0.62845810  0.74094054  1
  Na  Na5  1  0.68511818  0.00344692  0.74734711  1
  Na  Na6  1  0.17084008  0.34115639  0.58962513  1
  Na  Na7  1  0.66102426  0.33552428  0.57654134  1
  Na  Na8  1  0.00687455  0.69573782  0.57038299  1
  Na  Na9  1  0.16567600  0.99386446  0.08457308  1
  Na  Na10  1  0.66999657  0.99943446  0.08829902  1
  Na  Na11  1  0.50626096  0.31756605  0.06881062  1
  Na  Na12  1  0.84744243  0.00861356  0.92161135  1
  Na  Na13  1  0.66275690  0.31373896  0.91927347  1
  Na  Na14  1  0.48911841  0.29434863  0.42461372  1
  Na  Na15  1  0.16491000  0.01422637  0.42165463  1
  Na  Na16  1  0.66767611  0.05673593  0.41490700  1
  Na  Na17  1  0.84893935  0.65034310  0.41405853  1
  Na  Na18  1  0.99777398  0.98275673  0.50186644  1
  Na  Na19  1  0.47837990  0.97580324  0.49546481  1
  Na  Na20  1  0.98860845  0.98007507  0.99924682  1
  Na  Na21  1  0.48365959  0.00966552  0.99734766  1
  Na  Na22  1  0.34322915  0.33938371  0.83053626  1
  Na  Na23  1  0.83647340  0.33964447  0.83233049  1
  Na  Na24  1  0.32956797  0.34850160  0.33241433  1
  Na  Na25  1  0.83966818  0.34666099  0.32988563  1
  Na  Na26  1  0.17060064  0.64486694  0.16240551  1
  Na  Na27  1  0.68119868  0.67326705  0.16026532  1
  Na  Na28  1  0.18367050  0.69625562  0.65949984  1
  Na  Na29  1  0.67054732  0.69722547  0.66127653  1
  Y  Y0  1  0.00424306  0.00831778  0.35047325  1
  Y  Y1  1  0.50145826  0.99257994  0.34944498  1
  Y  Y2  1  0.00511279  0.01139154  0.85086450  1
  Y  Y3  1  0.49919025  0.00094363  0.85199255  1
  Y  Y4  1  0.33186687  0.32790928  0.68447868  1
  Y  Y5  1  0.82980915  0.31985160  0.68350815  1
  Y  Y6  1  0.32902699  0.33685390  0.18251238  1
  Y  Y7  1  0.83211576  0.33902023  0.18396693  1
  Y  Y8  1  0.33555920  0.32086791  0.98145671  1
  Y  Y9  1  0.82845861  0.33548951  0.98744544  1
  Y  Y10  1  0.32507468  0.32994943  0.48761564  1
  Y  Y11  1  0.83575035  0.34491702  0.48398695  1
  Y  Y12  1  0.16929428  0.66071245  0.02120065  1
  Y  Y13  1  0.67282440  0.65915134  0.01843577  1
  Y  Y14  1  0.17647116  0.69158642  0.51699939  1
  Y  Y15  1  0.66897067  0.66744066  0.52242039  1
  Y  Y16  1  0.66306358  0.65966005  0.31012958  1
  Y  Y17  1  0.16246065  0.65229863  0.81083073  1
  Nb  Nb0  1  0.99819011  0.00920725  0.65202345  1
  Nb  Nb1  1  0.50694485  0.98489236  0.64886846  1
  Nb  Nb2  1  0.00681077  0.02964939  0.14875531  1
  Nb  Nb3  1  0.49727537  0.98449124  0.15180893  1
  Nb  Nb4  1  0.16385171  0.68577445  0.30940190  1
  Nb  Nb5  1  0.66286311  0.64061768  0.80922869  1
  Si  Si0  1  0.14686279  0.00041288  0.24954699  1
  Si  Si1  1  0.65126632  0.99498340  0.25248406  1
  Si  Si2  1  0.34713158  0.69963246  0.25284385  1
  Si  Si3  1  0.00225367  0.30711019  0.25363030  1
  Si  Si4  1  0.15145358  0.30533771  0.74953852  1
  Si  Si5  1  0.64553975  0.29069075  0.75009127  1
  Si  Si6  1  0.50300481  0.70025366  0.75417068  1
  Si  Si7  1  0.84903286  0.99533068  0.75650145  1
  Si  Si8  1  0.17495107  0.02707619  0.58404889  1
  Si  Si9  1  0.67947753  0.02725181  0.58384738  1
  Si  Si10  1  0.33496267  0.63901461  0.58908804  1
  Si  Si11  1  0.83825783  0.64429841  0.58834266  1
  Si  Si12  1  0.33772488  0.03384967  0.08989530  1
  Si  Si13  1  0.83569983  0.03354354  0.08502623  1
  Si  Si14  1  0.18174873  0.32876023  0.08540621  1
  Si  Si15  1  0.67480221  0.32248030  0.08447944  1
  Si  Si16  1  0.81634332  0.66061525  0.91110471  1
  Si  Si17  1  0.51513080  0.37197353  0.91702855  1
  Si  Si18  1  0.31595493  0.97900353  0.41013881  1
  Si  Si19  1  0.66644711  0.36817714  0.41966893  1
  Si  Si20  1  0.01630318  0.66137568  0.41652209  1
  S  S0  1  0.85602804  0.71838325  0.24933455  1
  S  S1  1  0.50205575  0.29134756  0.24582307  1
  S  S2  1  0.00300819  0.71472575  0.74595270  1
  S  S3  1  0.35428353  0.99264615  0.74811839  1
  S  S4  1  0.48314943  0.31776502  0.58331795  1
  S  S5  1  0.98401393  0.32290662  0.58455556  1
  S  S6  1  0.48260487  0.64247843  0.08401594  1
  S  S7  1  0.98467235  0.65097019  0.08478047  1
  S  S8  1  0.31480479  0.66230579  0.91506270  1
  S  S9  1  0.01319867  0.36824232  0.91736902  1
  S  S10  1  0.16617623  0.95891946  0.91800380  1
  S  S11  1  0.66902738  0.95875529  0.91530411  1
  S  S12  1  0.81395629  0.96124286  0.41474328  1
  S  S13  1  0.16842498  0.37963294  0.41512786  1
  S  S14  1  0.51679569  0.65821628  0.41722027  1
  O  O0  1  0.10923765  0.02821796  0.30808379  1
  O  O1  1  0.61174982  0.99768604  0.31430648  1
  O  O2  1  0.39921019  0.79176319  0.30892355  1
  O  O3  1  0.89447653  0.78451885  0.30653082  1
  O  O4  1  0.49630379  0.20166738  0.29944157  1
  O  O5  1  0.98122556  0.17771890  0.30504628  1
  O  O6  1  0.10479689  0.20616655  0.80668944  1
  O  O7  1  0.60778956  0.18527027  0.80807402  1
  O  O8  1  0.48308535  0.78926510  0.80555981  1
  O  O9  1  0.99278355  0.79418748  0.79758825  1
  O  O10  1  0.39689453  0.00733160  0.80312929  1
  O  O11  1  0.89749902  0.01043379  0.81569910  1
  O  O12  1  0.40249859  0.97879717  0.69930550  1
  O  O13  1  0.90820196  0.98402625  0.70189862  1
  O  O14  1  0.08820822  0.19011378  0.69316209  1
  O  O15  1  0.58616414  0.18981931  0.69382986  1
  O  O16  1  0.00835718  0.81447786  0.69358903  1
  O  O17  1  0.51701517  0.83153006  0.69592038  1
  O  O18  1  0.40259618  0.82205906  0.19628181  1
  O  O19  1  0.90872810  0.83139054  0.20252879  1
  O  O20  1  0.01649754  0.20297613  0.19581166  1
  O  O21  1  0.50438781  0.19390595  0.19501654  1
  O  O22  1  0.08770279  0.98511985  0.19339846  1
  O  O23  1  0.58276141  0.98594701  0.19952270  1
  O  O24  1  0.43939711  0.33320034  0.63299111  1
  O  O25  1  0.94577279  0.35035400  0.63579112  1
  O  O26  1  0.23883432  0.13010022  0.63470228  1
  O  O27  1  0.72921838  0.11229089  0.64297971  1
  O  O28  1  0.32526931  0.53256262  0.64658452  1
  O  O29  1  0.83164474  0.53260620  0.64363957  1
  O  O30  1  0.44525800  0.53898841  0.13554268  1
  O  O31  1  0.94839064  0.55343404  0.13699157  1
  O  O32  1  0.32427634  0.11247660  0.14839869  1
  O  O33  1  0.82763249  0.13207911  0.13984082  1
  O  O34  1  0.22517282  0.34642540  0.14763388  1
  O  O35  1  0.73917142  0.35161339  0.13524640  1
  O  O36  1  0.22858654  0.28614626  0.03502212  1
  O  O37  1  0.70966802  0.28543196  0.02390559  1
  O  O38  1  0.43142753  0.56702823  0.03218989  1
  O  O39  1  0.93438344  0.56709599  0.03289605  1
  O  O40  1  0.36568037  0.17035385  0.03729678  1
  O  O41  1  0.85019705  0.13854316  0.02503891  1
  O  O42  1  0.20727789  0.13500245  0.52356054  1
  O  O43  1  0.72271400  0.14750319  0.52832308  1
  O  O44  1  0.35025363  0.55208418  0.53285348  1
  O  O45  1  0.86264782  0.57356571  0.53047511  1
  O  O46  1  0.43857067  0.30657752  0.52805068  1
  O  O47  1  0.93321256  0.29631529  0.53242974  1
  O  O48  1  0.26700525  0.67135591  0.96451944  1
  O  O49  1  0.76989781  0.68833059  0.96532569  1
  O  O50  1  0.05989349  0.46217239  0.96848123  1
  O  O51  1  0.56303064  0.46222604  0.97605417  1
  O  O52  1  0.16495464  0.87297441  0.97231720  1
  O  O53  1  0.66150481  0.86846865  0.96906904  1
  O  O54  1  0.27043901  0.87562323  0.46742416  1
  O  O55  1  0.76712525  0.85511339  0.46409808  1
  O  O56  1  0.16326356  0.45805529  0.46879683  1
  O  O57  1  0.65692250  0.44910266  0.47972824  1
  O  O58  1  0.06572398  0.67391148  0.47536547  1
  O  O59  1  0.56823637  0.67389499  0.46787160  1
  O  O60  1  0.07873014  0.66523561  0.36047406  1
  O  O61  1  0.55869354  0.64801602  0.36395527  1
  O  O62  1  0.25487994  0.86004181  0.35315213  1
  O  O63  1  0.76814880  0.88656811  0.35999142  1
  O  O64  1  0.16976652  0.47281592  0.36277066  1
  O  O65  1  0.67412365  0.48859510  0.36526478  1
  O  O66  1  0.05703226  0.45918662  0.86415546  1
  O  O67  1  0.57901762  0.49599179  0.86085517  1
  O  O68  1  0.16584923  0.85983240  0.86743365  1
  O  O69  1  0.67261843  0.86772620  0.86365025  1
  O  O70  1  0.27137626  0.65981405  0.86029032  1
  O  O71  1  0.75577547  0.65281541  0.85291912  1
  O  O72  1  0.00791027  0.82978960  0.41392531  1
  O  O73  1  0.50719247  0.80669694  0.41633171  1
  O  O74  1  0.41057916  0.01594482  0.40718431  1
  O  O75  1  0.89594177  0.96903334  0.41500505  1
  O  O76  1  0.09503843  0.20619252  0.41453614  1
  O  O77  1  0.58466542  0.18141853  0.41574573  1
  O  O78  1  0.00553835  0.20060442  0.91912504  1
  O  O79  1  0.51566878  0.19649165  0.91457602  1
  O  O80  1  0.09139951  0.97668788  0.91759322  1
  O  O81  1  0.59908781  0.99269065  0.91283340  1
  O  O82  1  0.39869688  0.81357703  0.91772814  1
  O  O83  1  0.90856680  0.82316990  0.90963566  1
  O  O84  1  0.49154486  0.16708441  0.58733539  1
  O  O85  1  0.98925104  0.16765417  0.59168007  1
  O  O86  1  0.08228815  0.01791736  0.59557374  1
  O  O87  1  0.58659407  0.02415095  0.59109280  1
  O  O88  1  0.41579503  0.83180531  0.60013058  1
  O  O89  1  0.91947442  0.83362772  0.59784883  1
  O  O90  1  0.48938570  0.80945414  0.09164480  1
  O  O91  1  0.99267411  0.81842652  0.08885751  1
  O  O92  1  0.41919311  0.00717838  0.09738296  1
  O  O93  1  0.91590369  0.00120668  0.09965066  1
  O  O94  1  0.08656447  0.14975976  0.09078384  1
  O  O95  1  0.58356232  0.14386238  0.09654164  1
  O  O96  1  0.34182700  0.13447855  0.74238459  1
  O  O97  1  0.83096646  0.14740935  0.74966057  1
  O  O98  1  0.24429055  0.33074840  0.74728674  1
  O  O99  1  0.74163796  0.33431745  0.74515478  1
  O  O100  1  0.42765407  0.51643068  0.74443474  1
  O  O101  1  0.92920417  0.54661031  0.74210241  1
  O  O102  1  0.32950660  0.51124407  0.24844081  1
  O  O103  1  0.84408393  0.55208617  0.24347873  1
  O  O104  1  0.42761671  0.30906277  0.24240866  1
  O  O105  1  0.92660515  0.33864154  0.24361249  1
  O  O106  1  0.24225913  0.15016005  0.24527529  1
  O  O107  1  0.74323626  0.15953729  0.24691796  1
  O  O108  1  0.32068502  0.51097618  0.91798624  1
  O  O109  1  0.81103580  0.47955645  0.91319194  1
  O  O110  1  0.42488849  0.35584245  0.91114124  1
  O  O111  1  0.92794630  0.34479178  0.91652286  1
  O  O112  1  0.24289084  0.12413147  0.91604259  1
  O  O113  1  0.74928532  0.12297627  0.91589478  1
  O  O114  1  0.31359700  0.15366609  0.41035637  1
  O  O115  1  0.82259743  0.12671966  0.42043823  1
  O  O116  1  0.24450932  0.36369664  0.41471861  1
  O  O117  1  0.75180091  0.35500569  0.41980593  1
  O  O118  1  0.43530263  0.50193935  0.42023142  1
  O  O119  1  0.92462388  0.49886395  0.41174562  1
  O  O120  1  0.16002451  0.47517077  0.07871586  1
  O  O121  1  0.65022030  0.46685656  0.08324099  1
  O  O122  1  0.07182282  0.68164918  0.07851707  1
  O  O123  1  0.56878185  0.67566161  0.07812459  1
  O  O124  1  0.25167410  0.85906971  0.07860254  1
  O  O125  1  0.74880685  0.85568007  0.08284365  1
  O  O126  1  0.15151762  0.83422051  0.58281252  1
  O  O127  1  0.65661452  0.83703425  0.58088508  1
  O  O128  1  0.24868088  0.64393981  0.58281646  1
  O  O129  1  0.75246710  0.64929381  0.58380078  1
  O  O130  1  0.06976208  0.46241150  0.57852049  1
  O  O131  1  0.56913619  0.46475273  0.58268275  1
  O  O132  1  0.15099372  0.82382915  0.25324881  1
  O  O133  1  0.66110368  0.83083271  0.24298379  1
  O  O134  1  0.25634238  0.69596166  0.25216858  1
  O  O135  1  0.77460774  0.71480952  0.24610611  1
  O  O136  1  0.09357895  0.47678375  0.26036161  1
  O  O137  1  0.57818014  0.45625813  0.24420432  1
  O  O138  1  0.15942145  0.48966618  0.74444813  1
  O  O139  1  0.65038065  0.47653191  0.75370101  1
  O  O140  1  0.07962448  0.70377584  0.74805908  1
  O  O141  1  0.59452726  0.71287698  0.76047050  1
  O  O142  1  0.27168650  0.83358465  0.74813859  1
  O  O143  1  0.75845689  0.81818233  0.75303982  1
loop_
_geom_bond_atom_site_label_1
_geom_bond_atom_site_label_2
_geom_bond_distance
_geom_bond_site_symmetry_2
Na0 O32 2.364285 1_565
Na0 O106 2.383337 1_565
Na0 O134 2.484848 1_555
Na0 O104 2.589138 1_565
Na0 O132 2.643154 1_555
Na0 O62 2.869519 1_555
Na1 O107 2.340609 1_555
Na1 O33 2.516365 1_555
Na1 O135 2.560942 1_545
Na1 O133 2.563188 1_545
Na1 O105 2.607589 1_555
Na2 O102 2.338693 1_555
Na2 O136 2.406467 1_555
Na2 O34 2.437497 1_555
Na2 O134 2.675808 1_555
Na2 O106 2.722235 1_555
Na2 O20 2.936075 1_555
Na2 O64 2.952331 1_555
Na3 O98 2.346395 1_555
Na3 O28 2.364348 1_555
Na3 O100 2.585974 1_555
Na3 O142 2.600739 1_555
Na3 O138 2.644773 1_555
Na4 O99 2.377592 1_555
Na4 O143 2.460621 1_555
Na4 O29 2.516550 1_555
Na4 O101 2.631094 1_555
Na4 O139 2.637610 1_555
Na4 O71 2.862622 1_555
Na4 O13 3.013851 1_555
Na5 O97 2.348504 1_555
Na5 O141 2.388490 1_545
Na5 O27 2.597143 1_555
Na5 O143 2.691351 1_545
Na5 O99 2.718153 1_555
Na5 O69 2.941487 1_545
Na5 O17 2.954642 1_545
Na6 O128 2.450228 1_555
Na6 O86 2.617123 1_555
Na6 O130 2.650489 1_555
Na6 O42 2.797913 1_555
Na6 O14 2.822856 1_555
Na6 O28 2.833039 1_555
Na6 O85 2.924903 1_455
Na6 O26 3.013028 1_555
Na6 O56 3.037596 1_555
Na7 O57 2.501838 1_555
Na7 O87 2.538243 1_555
Na7 O131 2.544622 1_555
Na7 O129 2.549149 1_555
Na7 O84 2.740631 1_555
Na7 O43 2.771447 1_555
Na8 O126 2.346264 1_555
Na8 O45 2.505816 1_455
Na8 O58 2.517595 1_555
Na8 O89 2.611135 1_455
Na8 O86 2.667297 1_565
Na9 O124 2.487893 1_555
Na9 O122 2.540320 1_555
Na9 O94 2.541860 1_565
Na9 O36 2.634243 1_565
Na9 O91 2.787254 1_455
Na9 O52 2.835816 1_554
Na9 O22 2.896363 1_555
Na9 O32 2.971765 1_565
Na10 O125 2.438739 1_555
Na10 O95 2.573602 1_565
Na10 O123 2.649734 1_555
Na10 O33 2.812129 1_565
Na10 O37 2.816980 1_565
Na11 O121 2.341145 1_555
Na11 O40 2.377090 1_555
Na11 O51 2.480552 1_554
Na11 O92 2.598817 1_555
Na11 O95 2.730260 1_555
Na11 O123 2.944366 1_555
Na12 O83 2.519656 1_545
Na12 O113 2.540523 1_555
Na12 O78 2.565356 1_655
Na12 O11 2.627476 1_555
Na12 O41 2.677498 1_556
Na12 O111 2.718157 1_555
Na12 O49 2.780020 1_545
Na13 O79 2.386618 1_555
Na13 O109 2.397179 1_555
Na13 O81 2.615825 1_545
Na13 O37 2.636192 1_556
Na13 O7 2.810099 1_555
Na14 O74 2.288535 1_555
Na14 O77 2.490397 1_555
Na14 O118 2.592171 1_555
Na14 O46 2.603436 1_555
Na14 O114 2.862763 1_555
Na15 O114 2.410351 1_555
Na15 O72 2.546071 1_545
Na15 O42 2.565442 1_555
Na15 O76 2.696478 1_555
Na15 O116 2.830784 1_555
Na15 O0 2.856483 1_555
Na16 O77 2.355751 1_555
Na16 O117 2.416517 1_555
Na16 O1 2.499687 1_545
Na16 O115 2.620351 1_555
Na16 O73 2.715284 1_545
Na16 O43 2.794259 1_555
Na17 O117 2.425878 1_555
Na17 O119 2.447223 1_555
Na17 O72 2.566246 1_655
Na17 O75 2.646543 1_555
Na17 O3 2.731190 1_555
Na17 O45 2.838710 1_555
Na18 O72 2.551412 1_655
Na18 O86 2.603028 1_665
Na18 O89 2.646368 1_555
Na18 O75 2.722171 1_555
Na18 O85 2.760886 1_565
Na18 O76 2.822042 1_665
Na19 O74 2.528452 1_565
Na19 O73 2.646701 1_555
Na19 O77 2.688391 1_565
Na19 O84 2.710948 1_565
Na19 O88 2.739762 1_555
Na19 O87 2.872406 1_565
Na20 O83 2.545827 1_555
Na20 O91 2.592925 1_556
Na20 O78 2.673717 1_665
Na20 O80 2.707461 1_655
Na20 O94 2.724872 1_666
Na20 O93 2.753459 1_566
Na21 O79 2.459775 1_555
Na21 O82 2.518447 1_545
Na21 O92 2.610421 1_556
Na21 O95 2.822107 1_556
Na21 O90 2.914607 1_546
Na21 O81 2.974863 1_545
Na22 O110 2.363159 1_555
Na22 O100 2.569532 1_555
Na22 O98 2.638986 1_555
Na22 O108 2.745399 1_555
Na22 O112 2.777623 1_555
Na22 O96 2.791294 1_555
Na23 O109 2.464710 1_555
Na23 O111 2.573040 1_555
Na23 O97 2.592952 1_555
Na23 O99 2.665692 1_555
Na23 O113 2.684570 1_555
Na23 O101 2.787033 1_555
Na24 O102 2.471686 1_555
Na24 O114 2.475886 1_555
Na24 O116 2.532672 1_555
Na24 O106 2.668086 1_555
Na24 O118 2.688170 1_555
Na24 O104 2.919132 1_555
Na25 O119 2.419854 1_555
Na25 O105 2.601795 1_555
Na25 O107 2.610181 1_555
Na25 O117 2.679416 1_555
Na25 O103 2.747777 1_555
Na25 O115 2.843150 1_555
Na26 O120 2.450079 1_555
Na26 O134 2.516471 1_555
Na26 O124 2.654123 1_555
Na26 O136 2.728281 1_555
Na26 O122 2.811725 1_555
Na26 O132 2.825233 1_555
Na27 O125 2.360582 1_555
Na27 O121 2.473340 1_555
Na27 O135 2.539184 1_555
Na27 O133 2.557771 1_555
Na27 O137 2.774002 1_555
Na27 O123 2.835634 1_555
Na28 O128 2.339347 1_555
Na28 O126 2.440210 1_555
Na28 O142 2.536057 1_555
Na28 O138 2.634761 1_555
Na28 O130 2.850111 1_555
Na28 O140 2.852113 1_555
Na29 O127 2.364370 1_555
Na29 O129 2.540766 1_555
Na29 O143 2.571648 1_555
Na29 O131 2.732563 1_555
Na29 O141 2.746798 1_555
Na29 O139 2.866359 1_555
Nb0 O14 1.929017 1_655
Nb0 O13 1.953134 1_545
Nb0 O89 1.998077 1_545
Nb0 O86 2.013751 1_655
Nb0 O85 2.103361 1_555
Nb0 O16 2.148744 1_645
Nb1 O17 1.883322 1_555
Nb1 O87 1.895821 1_565
Nb1 O88 1.937869 1_555
Nb1 O15 2.020324 1_565
Nb1 O12 2.247886 1_555
Nb1 O84 2.345972 1_565
Nb2 O20 1.883657 1_555
Nb2 O94 1.899980 1_555
Nb2 O93 1.942161 1_455
Nb2 O22 2.033468 1_545
Nb2 O19 2.221587 1_445
Nb2 O91 2.316260 1_445
Nb3 O23 1.930881 1_555
Nb3 O18 1.948535 1_555
Nb3 O95 2.012401 1_565
Nb3 O92 2.013257 1_565
Nb3 O90 2.097025 1_555
Nb3 O21 2.140856 1_565
Nb4 O60 1.912072 1_555
Nb4 O132 1.930241 1_555
Nb4 O62 1.941983 1_555
Nb4 O136 2.059496 1_555
Nb4 O134 2.140955 1_555
Nb4 O64 2.391558 1_555
Nb5 O67 1.894234 1_555
Nb5 O139 1.923729 1_555
Nb5 O71 1.956033 1_555
Nb5 O141 2.051550 1_555
Nb5 O143 2.159857 1_555
Nb5 O69 2.394528 1_555
O0 Si0 1.609296 1_555
O0 Y0 2.113455 1_555
O1 Si1 1.619678 1_555
O1 Y1 2.189063 1_555
O2 Si2 1.590275 1_555
O2 Y1 2.104479 1_555
O3 S0 1.485318 1_555
O3 Y0 2.298254 1_665
O4 S1 1.473713 1_555
O4 Y1 2.314120 1_545
O5 Si3 1.601356 1_655
O5 Y0 2.115537 1_655
O6 Si4 1.602843 1_555
O6 Y2 2.103027 1_555
O7 Si5 1.607380 1_555
O7 Y3 2.145791 1_555
O8 Si6 1.600279 1_555
O8 Y3 2.135029 1_565
O9 S2 1.471216 1_655
O9 Y2 2.285308 1_665
O10 S3 1.470825 1_545
O10 Y3 2.240358 1_555
O11 Si7 1.608429 1_545
O11 Y2 2.157126 1_655
O12 S3 1.492148 1_555
O13 Si7 1.718417 1_555
O14 Si4 1.724706 1_555
O15 Si5 1.661323 1_555
O16 S2 1.503955 1_555
O17 Si6 1.754708 1_555
O18 Si2 1.708077 1_555
O19 S0 1.490525 1_555
O20 Si3 1.753615 1_555
O21 S1 1.502845 1_555
O22 Si0 1.663108 1_565
O23 Si1 1.740146 1_555
O24 S4 1.461129 1_555
O24 Y4 2.312734 1_555
O25 S5 1.474071 1_555
O25 Y5 2.315444 1_555
O26 Si8 1.601520 1_555
O26 Y4 2.126323 1_555
O27 Si9 1.620333 1_555
O27 Y5 2.119548 1_555
O28 Si10 1.619356 1_555
O28 Y4 2.162213 1_555
O29 Si11 1.619181 1_555
O29 Y5 2.176154 1_555
O30 S6 1.475358 1_555
O30 Y6 2.311510 1_555
O31 S7 1.462959 1_555
O31 Y7 2.354166 1_555
O32 Si12 1.621703 1_555
O32 Y6 2.198884 1_555
O33 Si13 1.620342 1_555
O33 Y7 2.150433 1_555
O34 Si14 1.620526 1_555
O34 Y6 2.136968 1_555
O35 Si15 1.601041 1_555
O35 Y7 2.116727 1_555
O36 Si14 1.624259 1_555
O36 Y8 2.231411 1_554
O37 Si15 1.657104 1_555
O37 Y9 2.189858 1_554
O38 S6 1.473140 1_555
O38 Y8 2.392068 1_554
O39 S7 1.482207 1_555
O39 Y9 2.320123 1_554
O40 Si12 1.650077 1_555
O40 Y8 2.181051 1_554
O41 Si13 1.645747 1_555
O41 Y9 2.247699 1_554
O42 Si8 1.656391 1_555
O42 Y10 2.195158 1_555
O43 Si9 1.633028 1_555
O43 Y11 2.236109 1_555
O44 Si10 1.635685 1_555
O44 Y10 2.154659 1_555
O45 Si11 1.657909 1_555
O45 Y11 2.212182 1_555
O46 S4 1.500689 1_555
O46 Y10 2.417715 1_555
O47 S5 1.475666 1_555
O47 Y11 2.361867 1_555
O48 S8 1.481956 1_555
O48 Y12 2.208656 1_556
O49 Si16 1.620822 1_555
O49 Y13 2.091621 1_556
O50 S9 1.469768 1_555
O50 Y12 2.296890 1_556
O51 Si17 1.618637 1_555
O51 Y13 2.177256 1_556
O52 S10 1.488380 1_555
O52 Y12 2.319952 1_556
O53 S11 1.472974 1_555
O53 Y13 2.364200 1_556
O54 Si18 1.612913 1_555
O54 Y14 2.080429 1_555
O55 S12 1.480369 1_555
O55 Y15 2.244686 1_555
O56 S13 1.472005 1_555
O56 Y14 2.350270 1_555
O57 Si19 1.636912 1_555
O57 Y15 2.173770 1_555
O58 Si20 1.615640 1_555
O58 Y14 2.204430 1_555
O59 S14 1.474317 1_555
O59 Y15 2.285700 1_555
O60 Si20 1.734471 1_555
O61 S14 1.491351 1_555
O61 Y16 2.268496 1_555
O62 Si18 1.731645 1_555
O63 S12 1.491512 1_555
O63 Y16 2.340792 1_555
O64 S13 1.487472 1_555
O65 Si19 1.648804 1_555
O65 Y16 2.135467 1_555
O66 S9 1.490388 1_555
O66 Y17 2.256818 1_555
O67 Si17 1.754905 1_555
O68 S10 1.492106 1_555
O68 Y17 2.314801 1_555
O69 S11 1.489999 1_555
O70 S8 1.498565 1_555
O70 Y17 2.297577 1_555
O71 Si16 1.734865 1_555
O72 Si20 1.657384 1_555
O72 Y0 2.250800 1_565
O73 S14 1.484194 1_555
O73 Y1 2.370467 1_555
O74 Si18 1.617681 1_545
O74 Y1 2.255164 1_545
O75 S12 1.490980 1_555
O75 Y0 2.390290 1_665
O76 S13 1.505653 1_555
O76 Y0 2.308693 1_555
O77 Si19 1.643098 1_555
O77 Y1 2.262505 1_545
O78 S9 1.499137 1_555
O78 Y2 2.369272 1_555
O79 Si17 1.644321 1_555
O79 Y3 2.229286 1_555
O80 S10 1.482239 1_555
O80 Y2 2.365104 1_565
O81 S11 1.487468 1_555
O81 Y3 2.364052 1_565
O82 S8 1.490610 1_555
O82 Y3 2.369723 1_565
O83 Si16 1.623464 1_555
O83 Y2 2.240473 1_665
O84 S4 1.494281 1_555
O85 S5 1.509868 1_555
O86 Si8 1.705381 1_555
O87 Si9 1.723312 1_555
O88 Si10 1.687504 1_555
O89 Si11 1.665350 1_555
O90 S6 1.509807 1_555
O91 S7 1.497088 1_555
O92 Si12 1.664356 1_555
O93 Si13 1.698723 1_555
O94 Si14 1.724999 1_555
O95 Si15 1.703630 1_555
O96 S3 1.460531 1_545
O96 Y4 2.331907 1_555
O97 Si7 1.622824 1_545
O97 Y5 2.232730 1_555
O98 Si4 1.623066 1_555
O98 Y4 2.199357 1_555
O99 Si5 1.627412 1_555
O99 Y5 2.234293 1_555
O100 Si6 1.595222 1_555
O100 Y4 2.246750 1_555
O101 S2 1.480852 1_655
O101 Y5 2.409688 1_555
O102 Si2 1.622258 1_555
O102 Y6 2.230440 1_555
O103 S0 1.459931 1_555
O103 Y7 2.337765 1_555
O104 S1 1.477635 1_555
O104 Y6 2.415279 1_555
O105 Si3 1.593273 1_655
O105 Y7 2.237001 1_555
O106 Si0 1.620427 1_555
O106 Y6 2.225722 1_555
O107 Si1 1.633386 1_545
O107 Y7 2.215456 1_555
O108 S8 1.472401 1_555
O108 Y8 2.426793 1_555
O109 Si16 1.643726 1_555
O109 Y9 2.306531 1_555
O110 Si17 1.614985 1_555
O110 Y8 2.236528 1_555
O111 S9 1.489227 1_655
O111 Y9 2.449256 1_555
O112 S10 1.486265 1_545
O112 Y8 2.336106 1_555
O113 S11 1.510838 1_545
O113 Y9 2.432065 1_555
O114 Si18 1.653135 1_545
O114 Y10 2.368824 1_555
O115 S12 1.476569 1_545
O115 Y11 2.424784 1_555
O116 S13 1.496616 1_555
O116 Y10 2.381732 1_555
O117 Si19 1.654034 1_555
O117 Y11 2.192231 1_555
O118 S14 1.487584 1_555
O118 Y10 2.437624 1_555
O119 Si20 1.620388 1_655
O119 Y11 2.289093 1_555
O120 Si14 1.615849 1_555
O120 Y12 2.124649 1_555
O121 Si15 1.626773 1_555
O121 Y13 2.215340 1_555
O122 S7 1.506528 1_455
O122 Y12 2.338109 1_555
O123 S6 1.479910 1_555
O123 Y13 2.450627 1_555
O124 Si12 1.634070 1_565
O124 Y12 2.166140 1_555
O125 Si13 1.636681 1_565
O125 Y13 2.232230 1_555
O126 Si8 1.626084 1_565
O126 Y14 2.223594 1_555
O127 Si9 1.606365 1_565
O127 Y15 2.183125 1_555
O128 Si10 1.635869 1_555
O128 Y14 2.220008 1_555
O129 Si11 1.624104 1_555
O129 Y15 2.174237 1_555
O130 S5 1.475596 1_455
O130 Y14 2.511845 1_555
O131 S4 1.496625 1_555
O131 Y15 2.339400 1_555
O132 Si0 1.690714 1_565
O133 Si1 1.646969 1_555
O133 Y16 2.245627 1_555
O134 Si2 1.673147 1_555
O135 S0 1.500868 1_555
O135 Y16 2.392765 1_555
O136 Si3 1.648685 1_555
O137 S1 1.479645 1_555
O137 Y16 2.327327 1_555
O138 Si4 1.655701 1_555
O138 Y17 2.143139 1_555
O139 Si5 1.693602 1_555
O140 S2 1.480891 1_555
O140 Y17 2.337613 1_555
O141 Si6 1.653800 1_555
O142 S3 1.508813 1_555
O142 Y17 2.382241 1_555
O143 Si7 1.668435 1_555
