# generated using pymatgen
data_MgCr2Ag6(ClO4)2
_symmetry_space_group_name_H-M   'P 1'
_cell_length_a   5.60388821
_cell_length_b   7.51727055
_cell_length_c   7.51655883
_cell_angle_alpha   89.96633049
_cell_angle_beta   85.74755247
_cell_angle_gamma   94.24986834
_symmetry_Int_Tables_number   1
_chemical_formula_structural   MgCr2Ag6(ClO4)2
_chemical_formula_sum   'Mg1 Cr2 Ag6 Cl2 O8'
_cell_volume   314.89627857
_cell_formula_units_Z   1
loop_
 _symmetry_equiv_pos_site_id
 _symmetry_equiv_pos_as_xyz
  1  'x, y, z'
loop_
 _atom_site_type_symbol
 _atom_site_label
 _atom_site_symmetry_multiplicity
 _atom_site_fract_x
 _atom_site_fract_y
 _atom_site_fract_z
 _atom_site_occupancy
  Mg  Mg0  1  0.00005100  0.50003600  0.99993600  1
  Cr  Cr0  1  0.00016600  0.75786100  0.25768300  1
  Cr  Cr1  1  0.99985700  0.24225500  0.74240400  1
  Ag  Ag0  1  0.11831100  0.22565300  0.27435400  1
  Ag  Ag1  1  0.49999000  0.49985400  0.50004500  1
  Ag  Ag2  1  0.50002700  0.00005600  0.49994200  1
  Ag  Ag3  1  0.88202700  0.77445800  0.72548400  1
  Ag  Ag4  1  0.49992700  0.00004200  0.00002500  1
  Ag  Ag5  1  0.50006200  0.50005200  0.00008100  1
  Cl  Cl0  1  0.34419700  0.73103600  0.76875300  1
  Cl  Cl1  1  0.65587100  0.26887500  0.23127300  1
  O  O0  1  0.15351800  0.55926000  0.23152300  1
  O  O1  1  0.15332900  0.26829400  0.94086500  1
  O  O2  1  0.22101500  0.93002700  0.24984900  1
  O  O3  1  0.22062200  0.24995600  0.57014500  1
  O  O4  1  0.77917600  0.74989800  0.42991100  1
  O  O5  1  0.84637100  0.44072500  0.76840900  1
  O  O6  1  0.77890400  0.07007100  0.75013400  1
  O  O7  1  0.84657800  0.73159100  0.05918300  1
loop_
_geom_bond_atom_site_label_1
_geom_bond_atom_site_label_2
_geom_bond_distance
_geom_bond_site_symmetry_2
Mg0 O7 2.033198 1_456
Mg0 O0 2.033266 1_556
Mg0 O5 2.033551 1_455
Mg0 O1 2.033684 1_555
Cr0 O2 1.721005 1_555
Cr0 O4 1.721709 1_455
Cr0 O0 1.780864 1_555
Cr0 O7 1.780888 1_455
Cr1 O3 1.721077 1_655
Cr1 O6 1.721501 1_555
Cr1 O1 1.780152 1_655
Cr1 O5 1.780320 1_555
Ag0 O2 2.340539 1_545
Ag0 O3 2.340788 1_555
Ag0 O1 2.518240 1_554
Ag0 O0 2.519524 1_555
Ag0 Cl1 2.678661 1_455
Ag0 Cl1 2.999214 1_555
Ag1 O3 2.387078 1_555
Ag1 O4 2.387340 1_555
Ag1 Cl1 2.797588 1_555
Ag1 Cl0 2.798085 1_555
Ag2 O2 2.563333 1_545
Ag2 O6 2.563405 1_555
Ag2 O3 2.563909 1_555
Ag2 O4 2.564279 1_545
Ag2 Cl1 2.897690 1_555
Ag2 Cl0 2.899413 1_545
Ag3 O4 2.340259 1_555
Ag3 O6 2.341241 1_565
Ag3 O7 2.519996 1_556
Ag3 O5 2.520536 1_555
Ag3 Cl0 2.677733 1_655
Ag3 Cl0 3.000808 1_555
Ag4 O2 2.384911 1_545
Ag4 O6 2.385512 1_554
Ag4 Cl1 2.799399 1_555
Ag4 Cl0 2.800060 1_544
Ag5 O0 2.573676 1_555
Ag5 O7 2.573999 1_555
Ag5 O5 2.574009 1_554
Ag5 O1 2.576089 1_554
Ag5 Cl0 2.692165 1_554
Ag5 Cl1 2.692320 1_555
Cl0 Mg0 2.959296 1_555
Cl1 Mg0 2.960678 1_654
