# generated using pymatgen
data_MgGa
_symmetry_space_group_name_H-M   'P 1'
_cell_length_a   5.48442415
_cell_length_b   5.48442415
_cell_length_c   4.88921055
_cell_angle_alpha   73.98200774
_cell_angle_beta   73.98200774
_cell_angle_gamma   32.39619524
_symmetry_Int_Tables_number   1
_chemical_formula_structural   MgGa
_chemical_formula_sum   'Mg2 Ga2'
_cell_volume   75.46868763
_cell_formula_units_Z   2
loop_
 _symmetry_equiv_pos_site_id
 _symmetry_equiv_pos_as_xyz
  1  'x, y, z'
loop_
 _atom_site_type_symbol
 _atom_site_label
 _atom_site_symmetry_multiplicity
 _atom_site_fract_x
 _atom_site_fract_y
 _atom_site_fract_z
 _atom_site_occupancy
  Mg  Mg0  1  0.60808873  0.60808873  0.68395585  1
  Mg  Mg1  1  0.39191127  0.39191127  0.31604415  1
  Ga  Ga0  1  0.85524173  0.85524173  0.83423565  1
  Ga  Ga1  1  0.14475827  0.14475827  0.16576435  1
loop_
_geom_bond_atom_site_label_1
_geom_bond_atom_site_label_2
_geom_bond_distance
_geom_bond_site_symmetry_2
Ga0 Mg1 2.889005 1_655
Ga0 Mg1 2.889005 1_565
Ga0 Mg0 2.901147 1_555
Ga0 Mg1 2.926079 1_656
Ga0 Mg1 2.926079 1_566
Ga0 Mg0 2.974783 1_655
Ga0 Mg0 2.974783 1_565
Ga1 Mg0 2.889005 1_545
Ga1 Mg0 2.889005 1_455
Ga1 Mg1 2.901147 1_555
Ga1 Mg0 2.926079 1_544
Ga1 Mg0 2.926079 1_454
Ga1 Mg1 2.974783 1_545
Ga1 Mg1 2.974783 1_455
