# generated using pymatgen
data_MgGe(SO4)3
_symmetry_space_group_name_H-M   'P 1'
_cell_length_a   8.47288708
_cell_length_b   8.47288682
_cell_length_c   21.80241285
_cell_angle_alpha   90.00000000
_cell_angle_beta   90.00000000
_cell_angle_gamma   120.00000100
_symmetry_Int_Tables_number   1
_chemical_formula_structural   MgGe(SO4)3
_chemical_formula_sum   'Mg6 Ge6 S18 O72'
_cell_volume   1355.49528248
_cell_formula_units_Z   6
loop_
 _symmetry_equiv_pos_site_id
 _symmetry_equiv_pos_as_xyz
  1  'x, y, z'
loop_
 _atom_site_type_symbol
 _atom_site_label
 _atom_site_symmetry_multiplicity
 _atom_site_fract_x
 _atom_site_fract_y
 _atom_site_fract_z
 _atom_site_occupancy
  Mg  Mg0  1  -0.00000000  0.00000000  0.35722754  1
  Mg  Mg1  1  -0.00000000  0.00000000  0.85722754  1
  Mg  Mg2  1  0.66666700  0.33333300  0.69056054  1
  Mg  Mg3  1  0.66666700  0.33333300  0.19056054  1
  Mg  Mg4  1  0.33333300  0.66666700  0.02389454  1
  Mg  Mg5  1  0.33333300  0.66666700  0.52389454  1
  Ge  Ge0  1  -0.00000000  0.00000000  0.64854667  1
  Ge  Ge1  1  -0.00000000  0.00000000  0.14854667  1
  Ge  Ge2  1  0.66666700  0.33333300  0.98187967  1
  Ge  Ge3  1  0.66666700  0.33333300  0.48187967  1
  Ge  Ge4  1  0.33333300  0.66666700  0.31521367  1
  Ge  Ge5  1  0.33333300  0.66666700  0.81521367  1
  S  S0  1  0.28461159  0.98872408  0.25148849  1
  S  S1  1  0.70411249  0.71538841  0.25148849  1
  S  S2  1  0.01127592  0.29588751  0.25148849  1
  S  S3  1  0.28461159  0.29588751  0.75148849  1
  S  S4  1  0.01127592  0.71538841  0.75148849  1
  S  S5  1  0.70411249  0.98872408  0.75148849  1
  S  S6  1  0.95127859  0.32205708  0.58482149  1
  S  S7  1  0.37077949  0.04872141  0.58482149  1
  S  S8  1  0.67794292  0.62922051  0.58482149  1
  S  S9  1  0.95127859  0.62922051  0.08482149  1
  S  S10  1  0.67794292  0.04872141  0.08482149  1
  S  S11  1  0.37077949  0.32205708  0.08482149  1
  S  S12  1  0.61794459  0.65539108  0.91815549  1
  S  S13  1  0.03744549  0.38205541  0.91815549  1
  S  S14  1  0.34460892  0.96255451  0.91815549  1
  S  S15  1  0.61794459  0.96255451  0.41815549  1
  S  S16  1  0.34460892  0.38205541  0.41815549  1
  S  S17  1  0.03744549  0.65539108  0.41815549  1
  O  O0  1  0.19988563  0.01623921  0.30465556  1
  O  O1  1  0.81635357  0.80011437  0.30465556  1
  O  O2  1  0.98376079  0.18364643  0.30465556  1
  O  O3  1  0.19988563  0.18364643  0.80465556  1
  O  O4  1  0.98376079  0.80011437  0.80465556  1
  O  O5  1  0.81635357  0.01623921  0.80465556  1
  O  O6  1  0.78148377  0.94569652  0.69379604  1
  O  O7  1  0.16421275  0.21851623  0.69379604  1
  O  O8  1  0.05430348  0.83578725  0.69379604  1
  O  O9  1  0.78148377  0.83578725  0.19379604  1
  O  O10  1  0.05430348  0.21851623  0.19379604  1
  O  O11  1  0.16421275  0.94569652  0.19379604  1
  O  O12  1  0.86655263  0.34957221  0.63798856  1
  O  O13  1  0.48302057  0.13344737  0.63798856  1
  O  O14  1  0.65042779  0.51697943  0.63798856  1
  O  O15  1  0.86655263  0.51697943  0.13798856  1
  O  O16  1  0.65042779  0.13344737  0.13798856  1
  O  O17  1  0.48302057  0.34957221  0.13798856  1
  O  O18  1  0.44815077  0.27902952  0.02712904  1
  O  O19  1  0.83087975  0.55184923  0.02712904  1
  O  O20  1  0.72097048  0.16912025  0.02712904  1
  O  O21  1  0.44815077  0.16912025  0.52712904  1
  O  O22  1  0.72097048  0.55184923  0.52712904  1
  O  O23  1  0.83087975  0.27902952  0.52712904  1
  O  O24  1  0.53321863  0.68290621  0.97132256  1
  O  O25  1  0.14968657  0.46678137  0.97132256  1
  O  O26  1  0.31709379  0.85031343  0.97132256  1
  O  O27  1  0.53321863  0.85031343  0.47132256  1
  O  O28  1  0.31709379  0.46678137  0.47132256  1
  O  O29  1  0.14968657  0.68290621  0.47132256  1
  O  O30  1  0.11481677  0.61236352  0.36046304  1
  O  O31  1  0.49754575  0.88518323  0.36046304  1
  O  O32  1  0.38763648  0.50245425  0.36046304  1
  O  O33  1  0.11481677  0.50245425  0.86046304  1
  O  O34  1  0.38763648  0.88518323  0.86046304  1
  O  O35  1  0.49754575  0.61236352  0.86046304  1
  O  O36  1  0.01212032  0.80939107  0.40768190  1
  O  O37  1  0.79727075  0.98787968  0.40768190  1
  O  O38  1  0.19060893  0.20272925  0.40768190  1
  O  O39  1  0.01212032  0.20272925  0.90768190  1
  O  O40  1  0.19060893  0.98787968  0.90768190  1
  O  O41  1  0.79727075  0.80939107  0.90768190  1
  O  O42  1  0.96133286  0.14919255  0.59045327  1
  O  O43  1  0.18785969  0.03866714  0.59045327  1
  O  O44  1  0.85080745  0.81214031  0.59045327  1
  O  O45  1  0.96133286  0.81214031  0.09045327  1
  O  O46  1  0.85080745  0.03866714  0.09045327  1
  O  O47  1  0.18785969  0.14919255  0.09045327  1
  O  O48  1  0.67878732  0.14272407  0.74101490  1
  O  O49  1  0.46393775  0.32121268  0.74101490  1
  O  O50  1  0.85727593  0.53606225  0.74101490  1
  O  O51  1  0.67878732  0.53606225  0.24101490  1
  O  O52  1  0.85727593  0.32121268  0.24101490  1
  O  O53  1  0.46393775  0.14272407  0.24101490  1
  O  O54  1  0.62799986  0.48252555  0.92378627  1
  O  O55  1  0.85452669  0.37200014  0.92378627  1
  O  O56  1  0.51747445  0.14547331  0.92378627  1
  O  O57  1  0.62799986  0.14547331  0.42378627  1
  O  O58  1  0.51747445  0.37200014  0.42378627  1
  O  O59  1  0.85452669  0.48252555  0.42378627  1
  O  O60  1  0.34545332  0.47605807  0.07434890  1
  O  O61  1  0.13060375  0.65454668  0.07434890  1
  O  O62  1  0.52394193  0.86939625  0.07434890  1
  O  O63  1  0.34545332  0.86939625  0.57434890  1
  O  O64  1  0.52394193  0.65454668  0.57434890  1
  O  O65  1  0.13060375  0.47605807  0.57434890  1
  O  O66  1  0.29466586  0.81585955  0.25712027  1
  O  O67  1  0.52119269  0.70533414  0.25712027  1
  O  O68  1  0.18414045  0.47880731  0.25712027  1
  O  O69  1  0.29466586  0.47880731  0.75712027  1
  O  O70  1  0.18414045  0.70533414  0.75712027  1
  O  O71  1  0.52119269  0.81585955  0.75712027  1
loop_
_geom_bond_atom_site_label_1
_geom_bond_atom_site_label_2
_geom_bond_distance
_geom_bond_site_symmetry_2
Mg0 O1 1.991978 1_445
Mg0 O0 1.991978 1_555
Mg0 O2 1.991978 1_455
Mg0 O38 1.998676 1_555
Mg0 O36 1.998676 1_545
Mg0 O37 1.998676 1_445
Mg1 O4 1.991978 1_445
Mg1 O3 1.991978 1_555
Mg1 O5 1.991978 1_455
Mg1 O39 1.998676 1_555
Mg1 O41 1.998676 1_445
Mg1 O40 1.998676 1_545
Mg2 O13 1.991978 1_555
Mg2 O12 1.991978 1_555
Mg2 O14 1.991978 1_555
Mg2 O50 1.998676 1_555
Mg2 O48 1.998676 1_555
Mg2 O49 1.998676 1_555
Mg3 O16 1.991978 1_555
Mg3 O15 1.991978 1_555
Mg3 O17 1.991978 1_555
Mg3 O51 1.998676 1_555
Mg3 O53 1.998676 1_555
Mg3 O52 1.998676 1_555
Mg4 O25 1.991978 1_554
Mg4 O24 1.991978 1_554
Mg4 O26 1.991978 1_554
Mg4 O62 1.998676 1_555
Mg4 O60 1.998676 1_555
Mg4 O61 1.998676 1_555
Mg5 O28 1.991978 1_555
Mg5 O27 1.991978 1_555
Mg5 O29 1.991978 1_555
Mg5 O63 1.998676 1_555
Mg5 O65 1.998676 1_555
Mg5 O64 1.998676 1_555
Ge0 O44 1.929669 1_445
Ge0 O42 1.929669 1_455
Ge0 O43 1.929669 1_555
Ge0 O7 1.939334 1_555
Ge0 O8 1.939334 1_545
Ge0 O6 1.939334 1_445
Ge1 O45 1.929669 1_445
Ge1 O47 1.929669 1_555
Ge1 O46 1.929669 1_455
Ge1 O10 1.939334 1_555
Ge1 O9 1.939334 1_445
Ge1 O11 1.939334 1_545
Ge2 O56 1.929669 1_555
Ge2 O54 1.929669 1_555
Ge2 O55 1.929669 1_555
Ge2 O19 1.939334 1_556
Ge2 O20 1.939334 1_556
Ge2 O18 1.939334 1_556
Ge3 O57 1.929669 1_555
Ge3 O59 1.929669 1_555
Ge3 O58 1.929669 1_555
Ge3 O22 1.939334 1_555
Ge3 O21 1.939334 1_555
Ge3 O23 1.939334 1_555
Ge4 O68 1.929669 1_555
Ge4 O66 1.929669 1_555
Ge4 O67 1.929669 1_555
Ge4 O31 1.939334 1_555
Ge4 O32 1.939334 1_555
Ge4 O30 1.939334 1_555
Ge5 O69 1.929669 1_555
Ge5 O71 1.929669 1_555
Ge5 O70 1.929669 1_555
Ge5 O34 1.939334 1_555
Ge5 O33 1.939334 1_555
Ge5 O35 1.939334 1_555
O0 S0 1.442473 1_545
O1 S1 1.442473 1_555
O2 S2 1.442473 1_655
O3 S3 1.442473 1_555
O4 S4 1.442473 1_655
O5 S5 1.442473 1_545
O6 S5 1.543959 1_555
O7 S3 1.543959 1_555
O8 S4 1.543959 1_555
O9 S1 1.543959 1_555
O10 S2 1.543959 1_555
O11 S0 1.543959 1_555
O12 S6 1.442473 1_555
O13 S7 1.442473 1_555
O14 S8 1.442473 1_555
O15 S9 1.442473 1_555
O16 S10 1.442473 1_555
O17 S11 1.442473 1_555
O18 S11 1.543959 1_555
O19 S9 1.543959 1_555
O20 S10 1.543959 1_555
O21 S7 1.543959 1_555
O22 S8 1.543959 1_555
O23 S6 1.543959 1_555
O24 S12 1.442473 1_555
O25 S13 1.442473 1_555
O26 S14 1.442473 1_555
O27 S15 1.442473 1_555
O28 S16 1.442473 1_555
O29 S17 1.442473 1_555
O30 S17 1.543959 1_555
O31 S15 1.543959 1_555
O32 S16 1.543959 1_555
O33 S13 1.543959 1_555
O34 S14 1.543959 1_555
O35 S12 1.543959 1_555
O36 S17 1.442477 1_555
O37 S15 1.442485 1_555
O38 S16 1.442482 1_555
O39 S13 1.442485 1_555
O40 S14 1.442477 1_555
O41 S12 1.442482 1_555
O42 S6 1.514047 1_555
O43 S7 1.514056 1_555
O44 S8 1.514052 1_555
O45 S9 1.514056 1_555
O46 S10 1.514048 1_555
O47 S11 1.514052 1_555
O48 S5 1.442477 1_545
O49 S3 1.442485 1_555
O50 S4 1.442482 1_655
O51 S1 1.442485 1_555
O52 S2 1.442477 1_655
O53 S0 1.442482 1_545
O54 S12 1.514059 1_555
O55 S13 1.514042 1_655
O56 S14 1.514050 1_545
O57 S15 1.514042 1_545
O58 S16 1.514059 1_555
O59 S17 1.514050 1_655
O60 S11 1.442487 1_555
O61 S9 1.442470 1_455
O62 S10 1.442477 1_565
O63 S7 1.442470 1_565
O64 S8 1.442487 1_555
O65 S6 1.442477 1_455
O66 S0 1.514047 1_555
O67 S1 1.514056 1_555
O68 S2 1.514052 1_555
O69 S3 1.514056 1_555
O70 S4 1.514048 1_555
O71 S5 1.514052 1_555
