# generated using pymatgen
data_SiBi2O5
_symmetry_space_group_name_H-M   'P 1'
_cell_length_a   8.07078152
_cell_length_b   8.07078152
_cell_length_c   5.32649318
_cell_angle_alpha   90.00000000
_cell_angle_beta   90.00000000
_cell_angle_gamma   140.29867856
_symmetry_Int_Tables_number   1
_chemical_formula_structural   SiBi2O5
_chemical_formula_sum   'Si2 Bi4 O10'
_cell_volume   221.62954210
_cell_formula_units_Z   2
loop_
 _symmetry_equiv_pos_site_id
 _symmetry_equiv_pos_as_xyz
  1  'x, y, z'
loop_
 _atom_site_type_symbol
 _atom_site_label
 _atom_site_symmetry_multiplicity
 _atom_site_fract_x
 _atom_site_fract_y
 _atom_site_fract_z
 _atom_site_occupancy
  Si  Si0  1  0.67834733  0.67834733  0.30076132  1
  Si  Si1  1  0.32165267  0.32165267  0.80076132  1
  Bi  Bi0  1  0.94521910  0.61468834  0.74448495  1
  Bi  Bi1  1  0.05478090  0.38531166  0.24448495  1
  Bi  Bi2  1  0.38531166  0.05478090  0.24448495  1
  Bi  Bi3  1  0.61468834  0.94521910  0.74448495  1
  O  O0  1  0.76054503  0.26084786  0.51500407  1
  O  O1  1  0.23945497  0.73915214  0.01500407  1
  O  O2  1  0.73915214  0.23945497  0.01500407  1
  O  O3  1  0.26084786  0.76054503  0.51500407  1
  O  O4  1  0.91738853  0.73478001  0.32252045  1
  O  O5  1  0.08261147  0.26521999  0.82252045  1
  O  O6  1  0.47495146  0.47495146  0.53321776  1
  O  O7  1  0.52504854  0.52504854  0.03321776  1
  O  O8  1  0.73478001  0.91738853  0.32252045  1
  O  O9  1  0.26521999  0.08261147  0.82252045  1
loop_
_geom_bond_atom_site_label_1
_geom_bond_atom_site_label_2
_geom_bond_distance
_geom_bond_site_symmetry_2
Bi0 O3 2.180507 1_655
Bi0 O1 2.248092 1_656
Bi0 O0 2.306802 1_555
Bi0 O9 2.469133 1_665
Bi0 O2 2.502670 1_556
Bi0 O4 2.525179 1_555
Bi1 O2 2.180507 1_455
Bi1 O0 2.248092 1_455
Bi1 O1 2.306802 1_555
Bi1 O8 2.469133 1_445
Bi1 O3 2.502670 1_555
Bi1 O5 2.525179 1_554
Bi2 O1 2.180507 1_545
Bi2 O3 2.248092 1_545
Bi2 O2 2.306802 1_555
Bi2 O4 2.469133 1_445
Bi2 O0 2.502670 1_555
Bi2 O9 2.525179 1_554
Bi3 O0 2.180507 1_565
Bi3 O2 2.248092 1_566
Bi3 O3 2.306802 1_555
Bi3 O5 2.469133 1_665
Bi3 O1 2.502670 1_556
Bi3 O8 2.525179 1_555
O4 Si0 1.609589 1_555
O5 Si1 1.609589 1_555
O6 Si1 1.654345 1_555
O6 Si0 1.666126 1_555
O7 Si0 1.654345 1_555
O7 Si1 1.666126 1_554
O8 Si0 1.609589 1_555
O9 Si1 1.609589 1_555
