# generated using pymatgen
data_NaMgVO3
_symmetry_space_group_name_H-M   'P 1'
_cell_length_a   4.19804042
_cell_length_b   4.19804042
_cell_length_c   4.19804042
_cell_angle_alpha   82.99860158
_cell_angle_beta   82.99860158
_cell_angle_gamma   82.99860158
_symmetry_Int_Tables_number   1
_chemical_formula_structural   NaMgVO3
_chemical_formula_sum   'Na1 Mg1 V1 O3'
_cell_volume   72.45361123
_cell_formula_units_Z   1
loop_
 _symmetry_equiv_pos_site_id
 _symmetry_equiv_pos_as_xyz
  1  'x, y, z'
loop_
 _atom_site_type_symbol
 _atom_site_label
 _atom_site_symmetry_multiplicity
 _atom_site_fract_x
 _atom_site_fract_y
 _atom_site_fract_z
 _atom_site_occupancy
  Na  Na0  1  0.37966012  0.37966012  0.37966012  1
  Mg  Mg0  1  0.71670956  0.71670956  0.71670956  1
  V  V0  1  0.04029420  0.04029420  0.04029420  1
  O  O0  1  0.52368902  0.01803805  0.01803805  1
  O  O1  1  0.01803805  0.52368902  0.01803805  1
  O  O2  1  0.01803805  0.01803805  0.52368902  1
loop_
_geom_bond_atom_site_label_1
_geom_bond_atom_site_label_2
_geom_bond_distance
_geom_bond_site_symmetry_2
Na0 O1 2.255917 1_555
Na0 O0 2.255917 1_555
Na0 O2 2.255917 1_555
Mg0 O0 1.935800 1_566
Mg0 O2 1.935800 1_665
Mg0 O1 1.935800 1_656
O0 V0 2.011279 1_555
O0 V0 2.195853 1_655
O1 V0 2.011279 1_555
O1 V0 2.195853 1_565
O2 V0 2.011279 1_555
O2 V0 2.195853 1_556
