# generated using pymatgen
data_Na6Sc2Al2Si3(SO8)3
_symmetry_space_group_name_H-M   'P 1'
_cell_length_a   8.97749380
_cell_length_b   8.85454770
_cell_length_c   22.13867088
_cell_angle_alpha   91.03097833
_cell_angle_beta   89.74524276
_cell_angle_gamma   119.99978747
_symmetry_Int_Tables_number   1
_chemical_formula_structural   Na6Sc2Al2Si3(SO8)3
_chemical_formula_sum   'Na18 Sc6 Al6 Si9 S9 O72'
_cell_volume   1523.80113533
_cell_formula_units_Z   3
loop_
 _symmetry_equiv_pos_site_id
 _symmetry_equiv_pos_as_xyz
  1  'x, y, z'
loop_
 _atom_site_type_symbol
 _atom_site_label
 _atom_site_symmetry_multiplicity
 _atom_site_fract_x
 _atom_site_fract_y
 _atom_site_fract_z
 _atom_site_occupancy
  Na  Na0  1  0.63792981  0.00426155  0.26351945  1
  Na  Na1  1  0.34857939  0.35622755  0.25625202  1
  Na  Na2  1  0.64305805  0.64726701  0.73331585  1
  Na  Na3  1  0.98671277  0.36180373  0.74289992  1
  Na  Na4  1  0.02710977  0.68696002  0.59228895  1
  Na  Na5  1  0.67509608  0.96365521  0.58184554  1
  Na  Na6  1  0.31179652  0.97013343  0.09896040  1
  Na  Na7  1  0.02342351  0.32622950  0.08355456  1
  Na  Na8  1  0.97162669  0.65396002  0.89550337  1
  Na  Na9  1  0.70503131  0.03905539  0.90848898  1
  Na  Na10  1  0.96138596  0.29409773  0.42282822  1
  Na  Na11  1  0.34272910  0.02919743  0.41396000  1
  Na  Na12  1  0.97261524  0.98871320  0.50315796  1
  Na  Na13  1  0.98826554  0.00921249  0.00057012  1
  Na  Na14  1  0.65932761  0.32090736  0.82055350  1
  Na  Na15  1  0.67994166  0.34671181  0.33817470  1
  Na  Na16  1  0.32602578  0.67312992  0.17624866  1
  Na  Na17  1  0.33257916  0.66270995  0.66331142  1
  Sc  Sc0  1  0.99508493  0.01423568  0.84371101  1
  Sc  Sc1  1  0.00190775  0.01246640  0.15556194  1
  Sc  Sc2  1  0.67892731  0.32778615  0.98192440  1
  Sc  Sc3  1  0.33765146  0.66180953  0.02104763  1
  Sc  Sc4  1  0.35391966  0.66055806  0.52265786  1
  Sc  Sc5  1  0.31765584  0.66897187  0.80518267  1
  Al  Al0  1  0.99161377  0.01261389  0.34624845  1
  Al  Al1  1  0.96655641  0.97791299  0.64540945  1
  Al  Al2  1  0.69231882  0.34861726  0.68288557  1
  Al  Al3  1  0.66266843  0.30735647  0.19627664  1
  Al  Al4  1  0.67785843  0.30864288  0.49259739  1
  Al  Al5  1  0.32014867  0.69065502  0.31569812  1
  Si  Si0  1  0.28848121  0.00044315  0.25194826  1
  Si  Si1  1  0.00723157  0.31494197  0.25273976  1
  Si  Si2  1  0.99419437  0.71122179  0.74445846  1
  Si  Si3  1  0.69692666  0.00785152  0.74434472  1
  Si  Si4  1  0.96586066  0.32384829  0.58536430  1
  Si  Si5  1  0.67118056  0.60601592  0.58338729  1
  Si  Si6  1  0.66561154  0.03442363  0.08787444  1
  Si  Si7  1  0.04094740  0.36812302  0.91852541  1
  Si  Si8  1  0.63241672  0.95899152  0.41557565  1
  S  S0  1  0.70767818  0.70143339  0.25151857  1
  S  S1  1  0.29463345  0.28346332  0.74516903  1
  S  S2  1  0.38038992  0.05470191  0.58215315  1
  S  S3  1  0.95309567  0.62677003  0.08644764  1
  S  S4  1  0.38388491  0.33721140  0.08839910  1
  S  S5  1  0.62785024  0.66368606  0.91493355  1
  S  S6  1  0.32908278  0.96259314  0.91975303  1
  S  S7  1  0.33049393  0.36814473  0.41110696  1
  S  S8  1  0.04013499  0.67505531  0.41547892  1
  O  O0  1  0.18078124  0.02738575  0.30677940  1
  O  O1  1  0.81707598  0.78581482  0.30531357  1
  O  O2  1  0.96241788  0.16992390  0.30529065  1
  O  O3  1  0.21786923  0.19266610  0.80341157  1
  O  O4  1  0.97702883  0.79742758  0.80886030  1
  O  O5  1  0.81534625  0.05394808  0.80709721  1
  O  O6  1  0.79533610  0.97042831  0.68923688  1
  O  O7  1  0.18038142  0.19592450  0.69397959  1
  O  O8  1  0.01556523  0.83391540  0.68783583  1
  O  O9  1  0.78496155  0.81295234  0.19751316  1
  O  O10  1  0.05477502  0.24320424  0.18998801  1
  O  O11  1  0.18729500  0.97408251  0.18806367  1
  O  O12  1  0.87274268  0.36278048  0.64219782  1
  O  O13  1  0.49615278  0.14759382  0.63310332  1
  O  O14  1  0.64840951  0.50180453  0.64538701  1
  O  O15  1  0.85186520  0.51677533  0.13677397  1
  O  O16  1  0.64159363  0.14188513  0.14472613  1
  O  O17  1  0.47788051  0.34818920  0.14436110  1
  O  O18  1  0.47700951  0.33263838  0.03398711  1
  O  O19  1  0.86718390  0.54987337  0.02733215  1
  O  O20  1  0.68789721  0.14273267  0.02487772  1
  O  O21  1  0.46134867  0.14178530  0.52319157  1
  O  O22  1  0.69071784  0.49700065  0.52610321  1
  O  O23  1  0.84311532  0.27769588  0.52382307  1
  O  O24  1  0.53980222  0.68662719  0.96929640  1
  O  O25  1  0.14011865  0.46059745  0.98271441  1
  O  O26  1  0.31787284  0.86525521  0.97585414  1
  O  O27  1  0.54964913  0.85315953  0.47735729  1
  O  O28  1  0.30093491  0.44986066  0.46562133  1
  O  O29  1  0.14299695  0.70321424  0.47102022  1
  O  O30  1  0.13112250  0.64572767  0.36288312  1
  O  O31  1  0.49640447  0.86151834  0.35855777  1
  O  O32  1  0.35009741  0.47371099  0.35751287  1
  O  O33  1  0.13775680  0.49281559  0.86142053  1
  O  O34  1  0.35929999  0.87775125  0.86672094  1
  O  O35  1  0.53496916  0.65391070  0.85969108  1
  O  O36  1  0.02610896  0.83204814  0.40619810  1
  O  O37  1  0.82781183  0.98944989  0.40376919  1
  O  O38  1  0.16820005  0.19012256  0.40730244  1
  O  O39  1  0.01019533  0.17068745  0.91661293  1
  O  O40  1  0.16832223  0.96751195  0.91527800  1
  O  O41  1  0.80401121  0.82141522  0.91555213  1
  O  O42  1  0.98127360  0.14845085  0.59356742  1
  O  O43  1  0.21048869  0.03831915  0.58506674  1
  O  O44  1  0.84690434  0.80445238  0.58527268  1
  O  O45  1  0.98340256  0.80665447  0.08871853  1
  O  O46  1  0.84205050  0.02380532  0.09088523  1
  O  O47  1  0.21046307  0.17353196  0.08568985  1
  O  O48  1  0.67536157  0.17708569  0.73487798  1
  O  O49  1  0.46667925  0.30541524  0.74111017  1
  O  O50  1  0.81856803  0.51703019  0.74368992  1
  O  O51  1  0.68779324  0.52545060  0.24299093  1
  O  O52  1  0.83079730  0.32577525  0.24515256  1
  O  O53  1  0.48300566  0.18267381  0.24898877  1
  O  O54  1  0.64526185  0.50693333  0.92033101  1
  O  O55  1  0.84657810  0.35206902  0.91767758  1
  O  O56  1  0.48139361  0.14150702  0.92256573  1
  O  O57  1  0.64966951  0.16009489  0.42369770  1
  O  O58  1  0.47978654  0.34259787  0.41659069  1
  O  O59  1  0.86981522  0.51219624  0.41775017  1
  O  O60  1  0.35404411  0.48899015  0.08753898  1
  O  O61  1  0.12644785  0.63670985  0.08765649  1
  O  O62  1  0.48482640  0.84618633  0.08474106  1
  O  O63  1  0.35994402  0.87389218  0.58031943  1
  O  O64  1  0.51143243  0.64803316  0.58104321  1
  O  O65  1  0.14740804  0.50634049  0.57590187  1
  O  O66  1  0.32817117  0.84033088  0.25936465  1
  O  O67  1  0.53311987  0.68024084  0.25828423  1
  O  O68  1  0.18419769  0.50111890  0.26564284  1
  O  O69  1  0.31341700  0.46379436  0.74942471  1
  O  O70  1  0.15558112  0.67247934  0.74583550  1
  O  O71  1  0.51675234  0.82454836  0.75321347  1
loop_
_geom_bond_atom_site_label_1
_geom_bond_atom_site_label_2
_geom_bond_distance
_geom_bond_site_symmetry_2
Na0 O66 2.410303 1_545
Na0 O31 2.470782 1_545
Na0 O52 2.524699 1_555
Na0 O67 2.533714 1_545
Na0 O53 2.598647 1_555
Na0 O2 2.682354 1_555
Na0 O16 2.911536 1_555
Na0 O9 2.979419 1_545
Na1 O53 2.384899 1_555
Na1 O68 2.397483 1_555
Na1 O32 2.451548 1_555
Na1 O67 2.494150 1_555
Na1 O51 2.655190 1_555
Na1 O10 2.729951 1_555
Na1 O17 2.745785 1_555
Na1 O0 2.777551 1_555
Na2 O14 2.328399 1_555
Na2 O71 2.386317 1_555
Na2 O50 2.386415 1_555
Na2 O69 2.593837 1_555
Na2 O49 2.631132 1_555
Na2 O6 2.680651 1_555
Na2 O35 2.966422 1_555
Na3 O70 2.386212 1_655
Na3 O48 2.437590 1_555
Na3 O12 2.459073 1_555
Na3 O50 2.498350 1_555
Na3 O69 2.605607 1_655
Na3 O5 2.782753 1_555
Na3 O33 2.901435 1_655
Na3 O7 2.972025 1_655
Na4 O44 2.326970 1_455
Na4 O65 2.357663 1_555
Na4 O8 2.492428 1_555
Na4 O63 2.607904 1_555
Na4 O43 2.703464 1_565
Na4 O12 2.739250 1_455
Na4 O29 2.854855 1_555
Na5 O42 2.406986 1_565
Na5 O64 2.421092 1_555
Na5 O63 2.527613 1_555
Na5 O27 2.533076 1_555
Na5 O44 2.559513 1_555
Na5 O6 2.602746 1_555
Na5 O23 2.752178 1_565
Na6 O11 2.271290 1_555
Na6 O62 2.324779 1_555
Na6 O47 2.411914 1_565
Na6 O45 2.562224 1_455
Na6 O61 2.571414 1_555
Na6 O16 2.752087 1_565
Na6 O26 2.872538 1_554
Na7 O46 2.345520 1_455
Na7 O61 2.422945 1_555
Na7 O25 2.515023 1_554
Na7 O10 2.539082 1_555
Na7 O60 2.571928 1_555
Na7 O47 2.631191 1_555
Na8 O4 2.306668 1_555
Na8 O55 2.385001 1_555
Na8 O40 2.465477 1_655
Na8 O54 2.603571 1_555
Na8 O41 2.619425 1_555
Na8 O33 2.628488 1_655
Na9 O39 2.387471 1_655
Na9 O55 2.407894 1_555
Na9 O5 2.428386 1_555
Na9 O41 2.500452 1_545
Na9 O56 2.599330 1_555
Na9 O20 2.749239 1_556
Na9 O34 2.841398 1_545
Na10 O37 2.370956 1_545
Na10 O57 2.432979 1_555
Na10 O23 2.446230 1_555
Na10 O59 2.452351 1_555
Na10 O38 2.470881 1_655
Na10 O28 2.804696 1_655
Na10 O2 2.808392 1_555
Na11 O57 2.405296 1_555
Na11 O58 2.407999 1_555
Na11 O36 2.487576 1_545
Na11 O38 2.597940 1_555
Na11 O21 2.617306 1_555
Na11 O31 2.753160 1_545
Na11 O0 2.783950 1_555
Na11 O29 2.842167 1_545
Na12 O44 2.342563 1_555
Na12 O42 2.408803 1_565
Na12 O37 2.562397 1_555
Na12 O43 2.666336 1_665
Na12 O36 2.704171 1_655
Na12 O38 2.781831 1_665
Na13 O39 2.312729 1_654
Na13 O46 2.423743 1_555
Na13 O41 2.491662 1_544
Na13 O47 2.584496 1_655
Na13 O40 2.619046 1_644
Na13 O45 2.659693 1_545
Na14 O48 2.309556 1_555
Na14 O50 2.357369 1_555
Na14 O49 2.425774 1_555
Na14 O55 2.659387 1_555
Na14 O54 2.771847 1_555
Na14 O56 2.781194 1_555
Na15 O59 2.364821 1_555
Na15 O57 2.459286 1_555
Na15 O58 2.480526 1_555
Na15 O52 2.514380 1_555
Na15 O53 2.548306 1_555
Na15 O51 2.637681 1_555
Na16 O66 2.334924 1_555
Na16 O68 2.450403 1_555
Na16 O62 2.527067 1_555
Na16 O61 2.567424 1_555
Na16 O67 2.582212 1_555
Na16 O60 2.620910 1_555
Na17 O70 2.444623 1_555
Na17 O65 2.460852 1_555
Na17 O64 2.467047 1_555
Na17 O71 2.511158 1_555
Na17 O69 2.565388 1_555
Na17 O63 2.567684 1_555
Al0 O2 1.801040 1_555
Al0 O0 1.852961 1_655
Al0 O37 1.875445 1_545
Al0 O1 2.027276 1_545
Al0 O38 2.064337 1_655
Al0 O36 2.233555 1_645
Al1 O6 1.787676 1_555
Al1 O8 1.819137 1_655
Al1 O42 1.864516 1_565
Al1 O44 1.890682 1_555
Al1 O7 2.192175 1_665
Al1 O43 2.386377 1_665
Al2 O12 1.799634 1_555
Al2 O14 1.806244 1_555
Al2 O48 1.866834 1_555
Al2 O50 1.889864 1_555
Al2 O13 2.072768 1_555
Al2 O49 2.265149 1_555
Al3 O16 1.774695 1_555
Al3 O52 1.799348 1_555
Al3 O53 1.852334 1_555
Al3 O51 2.084299 1_555
Al3 O17 2.198969 1_555
Al3 O15 2.230958 1_555
Al4 O22 1.763205 1_555
Al4 O23 1.782272 1_555
Al4 O21 1.890032 1_555
Al4 O57 1.928517 1_555
Al4 O59 2.437227 1_555
Al5 O31 1.805767 1_555
Al5 O66 1.811145 1_555
Al5 O68 1.852291 1_555
Al5 O30 1.858314 1_555
Al5 O32 2.280777 1_555
Al5 O67 2.330265 1_555
O0 Si0 1.635570 1_555
O1 S0 1.478428 1_555
O2 Si1 1.642318 1_655
O3 S1 1.503073 1_555
O3 Sc0 2.041390 1_455
O4 Si2 1.647947 1_555
O4 Sc0 1.985845 1_565
O5 Si3 1.669025 1_555
O5 Sc0 1.993411 1_555
O6 Si3 1.627075 1_565
O7 S1 1.456313 1_555
O8 Si2 1.620769 1_455
O9 S0 1.495299 1_555
O9 Sc1 2.092610 1_665
O10 Si1 1.658234 1_555
O10 Sc1 1.989425 1_555
O11 Si0 1.633244 1_565
O11 Sc1 1.997072 1_565
O12 Si4 1.632178 1_555
O13 S2 1.466678 1_555
O14 Si5 1.622253 1_555
O15 S3 1.469956 1_555
O16 Si6 1.641850 1_555
O17 S4 1.476278 1_555
O18 S4 1.474721 1_555
O18 Sc2 2.161895 1_554
O19 S3 1.490982 1_555
O19 Sc2 2.086732 1_554
O20 Si6 1.660912 1_555
O20 Sc2 1.945340 1_554
O21 S2 1.514617 1_555
O22 Si5 1.641377 1_555
O23 Si4 1.667492 1_555
O24 S5 1.502613 1_555
O24 Sc3 2.060636 1_556
O25 Si7 1.650123 1_555
O25 Sc3 1.959269 1_556
O26 S6 1.498739 1_555
O26 Sc3 2.159627 1_556
O27 Si8 1.625370 1_555
O27 Sc4 2.012717 1_555
O28 S7 1.486014 1_555
O28 Sc4 2.081929 1_555
O29 S8 1.481781 1_555
O29 Sc4 2.405219 1_555
O30 S8 1.511050 1_555
O31 Si8 1.658287 1_555
O32 S7 1.478530 1_555
O33 Si7 1.628966 1_555
O33 Sc5 2.030836 1_555
O34 S6 1.478371 1_555
O34 Sc5 2.153160 1_555
O35 S5 1.459994 1_555
O35 Sc5 2.359458 1_555
O36 S8 1.475126 1_555
O37 Si8 1.656352 1_555
O38 S7 1.521290 1_555
O39 Si7 1.627584 1_555
O39 Sc0 2.067823 1_455
O40 S6 1.469320 1_555
O40 Sc0 2.406069 1_465
O41 S5 1.497536 1_555
O41 Sc0 2.351984 1_565
O42 Si4 1.639941 1_555
O43 S2 1.459420 1_555
O44 Si5 1.674456 1_555
O45 S3 1.475611 1_555
O45 Sc1 2.267357 1_665
O46 Si6 1.634737 1_555
O46 Sc1 2.070601 1_655
O47 S4 1.506422 1_555
O47 Sc1 2.305586 1_555
O48 Si3 1.621312 1_555
O49 S1 1.459670 1_555
O50 Si2 1.652561 1_555
O51 S0 1.485661 1_555
O52 Si1 1.643519 1_655
O53 Si0 1.685993 1_555
O54 S5 1.479282 1_555
O54 Sc2 2.242298 1_555
O55 Si7 1.678558 1_655
O55 Sc2 2.000728 1_555
O56 S6 1.488054 1_545
O56 Sc2 2.147097 1_555
O57 Si8 1.714662 1_545
O58 S7 1.472363 1_555
O59 S8 1.488955 1_655
O60 S4 1.496423 1_555
O60 Sc3 2.199623 1_555
O61 S3 1.514513 1_455
O61 Sc3 2.320471 1_555
O62 Si6 1.645821 1_565
O62 Sc3 2.043541 1_555
O63 S2 1.517355 1_565
O63 Sc4 2.238843 1_555
O64 Si5 1.653111 1_555
O64 Sc4 1.964911 1_555
O65 Si4 1.639170 1_455
O65 Sc4 2.048940 1_555
O66 Si0 1.636431 1_565
O67 S0 1.489395 1_555
O68 Si1 1.640517 1_555
O69 S1 1.520655 1_555
O69 Sc5 2.162495 1_555
O70 Si2 1.647896 1_455
O70 Sc5 1.976858 1_555
O71 Si3 1.634801 1_565
O71 Sc5 1.998167 1_555
