# generated using pymatgen
data_U(NiP)2
_symmetry_space_group_name_H-M   'P 1'
_cell_length_a   5.62664164
_cell_length_b   5.62664164
_cell_length_c   5.62664164
_cell_angle_alpha   140.53853496
_cell_angle_beta   140.53853496
_cell_angle_gamma   57.03651583
_symmetry_Int_Tables_number   1
_chemical_formula_structural   U(NiP)2
_chemical_formula_sum   'U1 Ni2 P2'
_cell_volume   71.35698367
_cell_formula_units_Z   1
loop_
 _symmetry_equiv_pos_site_id
 _symmetry_equiv_pos_as_xyz
  1  'x, y, z'
loop_
 _atom_site_type_symbol
 _atom_site_label
 _atom_site_symmetry_multiplicity
 _atom_site_fract_x
 _atom_site_fract_y
 _atom_site_fract_z
 _atom_site_occupancy
  U  U0  1  0.00000000  -0.00000000  -0.00000000  1
  Ni  Ni0  1  0.25000000  0.75000000  0.50000000  1
  Ni  Ni1  1  0.75000000  0.25000000  0.50000000  1
  P  P0  1  0.62701527  0.62701527  -0.00000000  1
  P  P1  1  0.37298473  0.37298473  0.00000000  1
loop_
_geom_bond_atom_site_label_1
_geom_bond_atom_site_label_2
_geom_bond_distance
_geom_bond_site_symmetry_2
Ni0 P1 2.255461 1_555
Ni0 P0 2.255461 1_455
Ni0 P0 2.255461 1_556
Ni0 P1 2.255461 1_566
Ni0 U0 3.117520 1_565
Ni0 U0 3.117520 1_566
Ni0 U0 3.117520 1_555
Ni0 U0 3.117520 1_666
Ni1 P1 2.255461 1_555
Ni1 P1 2.255461 1_656
Ni1 P0 2.255461 1_556
Ni1 P0 2.255461 1_545
Ni1 U0 3.117520 1_655
Ni1 U0 3.117520 1_656
Ni1 U0 3.117520 1_555
Ni1 U0 3.117520 1_666
P0 P1 2.511820 1_555
P0 U0 2.965456 1_666
P0 U0 2.965456 1_655
P0 U0 2.965456 1_565
P0 U0 2.965456 1_554
P1 U0 2.965456 1_666
P1 U0 2.965456 1_655
P1 U0 2.965456 1_565
P1 U0 2.965456 1_554
