# generated using pymatgen
data_Na6La6Nb2Si5S7O48
_symmetry_space_group_name_H-M   'P 1'
_cell_length_a   18.79438710
_cell_length_b   9.44588825
_cell_length_c   24.66677540
_cell_angle_alpha   90.10934985
_cell_angle_beta   90.21565574
_cell_angle_gamma   120.19139366
_symmetry_Int_Tables_number   1
_chemical_formula_structural   Na6La6Nb2Si5S7O48
_chemical_formula_sum   'Na18 La18 Nb6 Si15 S21 O144'
_cell_volume   3785.00002346
_cell_formula_units_Z   3
loop_
 _symmetry_equiv_pos_site_id
 _symmetry_equiv_pos_as_xyz
  1  'x, y, z'
loop_
 _atom_site_type_symbol
 _atom_site_label
 _atom_site_symmetry_multiplicity
 _atom_site_fract_x
 _atom_site_fract_y
 _atom_site_fract_z
 _atom_site_occupancy
  Na  Na0  1  0.99356785  0.68584779  0.91121870  1
  Na  Na1  1  0.34937102  0.02746032  0.91379996  1
  Na  Na2  1  0.17491764  0.30594755  0.91282869  1
  Na  Na3  1  0.49355539  0.30464504  0.42228259  1
  Na  Na4  1  0.67344787  0.04114060  0.41593240  1
  Na  Na5  1  0.84661255  0.67012508  0.41723468  1
  Na  Na6  1  0.99778993  0.99889816  0.49598445  1
  Na  Na7  1  0.50073784  0.00213570  0.50194067  1
  Na  Na8  1  0.00264674  0.00372290  0.99732429  1
  Na  Na9  1  0.49676971  0.99601104  0.99184124  1
  Na  Na10  1  0.34030104  0.34815859  0.84214504  1
  Na  Na11  1  0.82419654  0.32299491  0.81914353  1
  Na  Na12  1  0.32582813  0.33097656  0.32434036  1
  Na  Na13  1  0.83789142  0.32917697  0.34814297  1
  Na  Na14  1  0.17081389  0.66539492  0.17196680  1
  Na  Na15  1  0.66476729  0.66460548  0.16781163  1
  Na  Na16  1  0.16808231  0.66731067  0.66705945  1
  Na  Na17  1  0.65680284  0.65312041  0.66135033  1
  La  La0  1  0.00323059  0.00659695  0.35369277  1
  La  La1  1  0.49778253  0.00474497  0.34561676  1
  La  La2  1  0.99691620  0.99120363  0.84484638  1
  La  La3  1  0.50278186  0.00167303  0.85155430  1
  La  La4  1  0.33823527  0.34518821  0.67999666  1
  La  La5  1  0.83224547  0.33082250  0.68767254  1
  La  La6  1  0.33355587  0.33460584  0.18852825  1
  La  La7  1  0.83327494  0.32218360  0.18258225  1
  La  La8  1  0.35077366  0.35629519  0.97840237  1
  La  La9  1  0.82411351  0.29359127  0.98845440  1
  La  La10  1  0.33501630  0.35439655  0.49583348  1
  La  La11  1  0.84767344  0.33992743  0.48034222  1
  La  La12  1  0.17216309  0.68007137  0.01613806  1
  La  La13  1  0.66723794  0.66572636  0.01966561  1
  La  La14  1  0.16699366  0.66683971  0.52126708  1
  La  La15  1  0.66590732  0.65409540  0.51889919  1
  La  La16  1  0.66768660  0.65155782  0.31320872  1
  La  La17  1  0.16934136  0.68535279  0.81095986  1
  Nb  Nb0  1  0.98999429  0.98401892  0.65946732  1
  Nb  Nb1  1  0.50234815  0.02581968  0.64498933  1
  Nb  Nb2  1  0.00372100  -0.00292076  0.15081266  1
  Nb  Nb3  1  0.48885742  0.99341240  0.15932264  1
  Nb  Nb4  1  0.16575891  0.68372895  0.31184574  1
  Nb  Nb5  1  0.66054943  0.64204865  0.80635560  1
  Si  Si0  1  0.14193833  0.98787721  0.25009807  1
  Si  Si1  1  0.34259551  0.70247350  0.25363685  1
  Si  Si2  1  0.50512328  0.30718321  0.24936583  1
  Si  Si3  1  0.64116082  0.28906242  0.74905182  1
  Si  Si4  1  0.00416678  0.70189109  0.74978933  1
  Si  Si5  1  0.84292957  0.98249795  0.75340755  1
  Si  Si6  1  0.48749263  0.33712622  0.58319857  1
  Si  Si7  1  0.33920601  0.65420595  0.58962855  1
  Si  Si8  1  0.83953662  0.02519100  0.08874667  1
  Si  Si9  1  0.31420958  0.66707988  0.91564648  1
  Si  Si10  1  0.52427121  0.38050772  0.91232103  1
  Si  Si11  1  0.16473042  0.97044986  0.91910888  1
  Si  Si12  1  0.81316738  0.96179262  0.41496251  1
  Si  Si13  1  0.66572233  0.35865641  0.41763410  1
  Si  Si14  1  0.02271478  0.66629861  0.41359602  1
  S  S0  1  0.64165601  0.99516641  0.24457069  1
  S  S1  1  0.85861401  0.71813284  0.24297223  1
  S  S2  1  0.00951774  0.30400724  0.24810590  1
  S  S3  1  0.14274750  0.28813546  0.74496503  1
  S  S4  1  0.50826418  0.70746502  0.75143435  1
  S  S5  1  0.35780120  0.99911705  0.74351405  1
  S  S6  1  0.98559846  0.31147103  0.58925485  1
  S  S7  1  0.16970635  0.02899650  0.58838025  1
  S  S8  1  0.67321046  0.03103496  0.58568049  1
  S  S9  1  0.84444727  0.65802720  0.58758106  1
  S  S10  1  0.48597546  0.65997572  0.08915468  1
  S  S11  1  0.98431490  0.65177251  0.08660488  1
  S  S12  1  0.34307858  0.02890747  0.08779266  1
  S  S13  1  0.17186050  0.31626933  0.08659423  1
  S  S14  1  0.67159205  0.31238202  0.08802764  1
  S  S15  1  0.80936424  0.65715518  0.91224315  1
  S  S16  1  0.01562407  0.37047803  0.91770413  1
  S  S17  1  0.67066256  0.95249346  0.91134863  1
  S  S18  1  0.30719662  0.95837255  0.41084707  1
  S  S19  1  0.17305778  0.39321325  0.41072357  1
  S  S20  1  0.51467013  0.66150070  0.41635899  1
  O  O0  1  0.09991591  0.00730362  0.30249159  1
  O  O1  1  0.60924550  0.00582982  0.29742358  1
  O  O2  1  0.40007874  0.78513255  0.30462283  1
  O  O3  1  0.89890990  0.78617503  0.29506058  1
  O  O4  1  0.49987078  0.21781451  0.30626744  1
  O  O5  1  0.99507278  0.21054124  0.29758578  1
  O  O6  1  0.10918310  0.21287256  0.79833455  1
  O  O7  1  0.60228777  0.19512850  0.80378331  1
  O  O8  1  0.49846350  0.77955990  0.80114505  1
  O  O9  1  -0.00032218  0.77924591  0.80782622  1
  O  O10  1  0.39763060  0.00811366  0.79607378  1
  O  O11  1  0.89936024  0.01423313  0.80536597  1
  O  O12  1  0.41109400  0.99818063  0.69799111  1
  O  O13  1  0.90145747  0.97024245  0.69929425  1
  O  O14  1  0.08469628  0.17662900  0.70029243  1
  O  O15  1  0.58138103  0.18662035  0.69618618  1
  O  O16  1  0.00063318  0.83169923  0.69992555  1
  O  O17  1  0.52084542  0.80710523  0.70312325  1
  O  O18  1  0.40112461  0.83132739  0.19867951  1
  O  O19  1  0.91214198  0.82791303  0.19771973  1
  O  O20  1  0.01791844  0.21398600  0.20008153  1
  O  O21  1  0.50052334  0.16851171  0.19875010  1
  O  O22  1  0.08074033  0.97285227  0.19594663  1
  O  O23  1  0.58490712  0.99191284  0.19938299  1
  O  O24  1  0.43328480  0.33697767  0.63303881  1
  O  O25  1  0.94231664  0.33580675  0.63432536  1
  O  O26  1  0.22433036  0.11209079  0.63476622  1
  O  O27  1  0.72728481  0.11859650  0.63152801  1
  O  O28  1  0.32408797  0.53152776  0.63892127  1
  O  O29  1  0.83644708  0.54924169  0.63204148  1
  O  O30  1  0.44267610  0.54948473  0.13419972  1
  O  O31  1  0.93850243  0.54779282  0.13245625  1
  O  O32  1  0.33523347  0.12173634  0.13217826  1
  O  O33  1  0.83000065  0.12572256  0.13826646  1
  O  O34  1  0.22636077  0.33892486  0.13213735  1
  O  O35  1  0.72731955  0.33880512  0.13426088  1
  O  O36  1  0.20128485  0.28610712  0.03510763  1
  O  O37  1  0.71024776  0.29253445  0.03738585  1
  O  O38  1  0.43906824  0.59477020  0.03778899  1
  O  O39  1  0.93880928  0.58596670  0.03489021  1
  O  O40  1  0.35488165  0.11179935  0.03508630  1
  O  O41  1  0.85900649  0.13824535  0.03346820  1
  O  O42  1  0.20644332  0.12491610  0.53766284  1
  O  O43  1  0.70482646  0.12215683  0.53439826  1
  O  O44  1  0.35957765  0.58399505  0.53390156  1
  O  O45  1  0.85738749  0.59852330  0.53506954  1
  O  O46  1  0.43729302  0.30258868  0.52518132  1
  O  O47  1  0.93902958  0.28369184  0.53781176  1
  O  O48  1  0.27018377  0.68605531  0.97047121  1
  O  O49  1  0.77200011  0.67166951  0.96279486  1
  O  O50  1  0.06462618  0.44994021  0.96715920  1
  O  O51  1  0.57291067  0.47156103  0.96718853  1
  O  O52  1  0.14586761  0.84758535  0.97065194  1
  O  O53  1  0.66900351  0.87313846  0.96357859  1
  O  O54  1  0.26876672  0.86861837  0.46041383  1
  O  O55  1  0.76949274  0.84941234  0.47108347  1
  O  O56  1  0.16913242  0.46913406  0.46209401  1
  O  O57  1  0.64610912  0.44360797  0.46821735  1
  O  O58  1  0.07364288  0.67470902  0.46705378  1
  O  O59  1  0.56376452  0.68042823  0.46549010  1
  O  O60  1  0.08318178  0.66533244  0.35979063  1
  O  O61  1  0.55534598  0.64587490  0.36718085  1
  O  O62  1  0.25733446  0.85859641  0.36118261  1
  O  O63  1  0.75656217  0.87402460  0.36181397  1
  O  O64  1  0.17481178  0.49321364  0.36241803  1
  O  O65  1  0.67894085  0.46930478  0.36321872  1
  O  O66  1  0.05545670  0.46722170  0.86878177  1
  O  O67  1  0.58290282  0.50153716  0.85917962  1
  O  O68  1  0.17668229  0.88193004  0.86565149  1
  O  O69  1  0.67416350  0.86119594  0.86372597  1
  O  O70  1  0.25613965  0.63809867  0.86236706  1
  O  O71  1  0.76023298  0.65126498  0.86367317  1
  O  O72  1  0.00588797  0.81877354  0.41068578  1
  O  O73  1  0.50634291  0.80930266  0.41317134  1
  O  O74  1  0.39095081  0.98019460  0.40782226  1
  O  O75  1  0.90266766  0.96987186  0.41446037  1
  O  O76  1  0.09791127  0.22949215  0.40864472  1
  O  O77  1  0.58558503  0.16869655  0.41600532  1
  O  O78  1  0.00618503  0.20528914  0.91486914  1
  O  O79  1  0.50641792  0.19339379  0.91097954  1
  O  O80  1  0.08441560  -0.00066280  0.91751279  1
  O  O81  1  0.59699607  0.97049733  0.91078254  1
  O  O82  1  0.40317600  0.83656336  0.91474428  1
  O  O83  1  0.89467797  0.80326395  0.91049825  1
  O  O84  1  0.49402733  0.16376191  0.59609517  1
  O  O85  1  0.99335500  0.16214132  0.59925822  1
  O  O86  1  0.08706036  0.01559514  0.59675807  1
  O  O87  1  0.58946897  0.01763873  0.59576983  1
  O  O88  1  0.42429349  0.83363206  0.60695850  1
  O  O89  1  0.92209389  0.82627867  0.59765048  1
  O  O90  1  0.49385678  0.82506982  0.09939259  1
  O  O91  1  0.99155658  0.81973789  0.09492393  1
  O  O92  1  0.41992924  0.01397995  0.09725559  1
  O  O93  1  0.92445812  0.01376824  0.10698398  1
  O  O94  1  0.08846245  0.16074987  0.09774895  1
  O  O95  1  0.58996069  0.16085090  0.09577322  1
  O  O96  1  0.34790068  0.14310200  0.73929776  1
  O  O97  1  0.82655580  0.12843669  0.74013200  1
  O  O98  1  0.22274548  0.29837484  0.73943337  1
  O  O99  1  0.73440208  0.33744423  0.73949877  1
  O  O100  1  0.43830445  0.53807008  0.74695296  1
  O  O101  1  0.92140304  0.52800076  0.74336905  1
  O  O102  1  0.32640703  0.52432116  0.23951211  1
  O  O103  1  0.85149419  0.55700261  0.23533366  1
  O  O104  1  0.42193954  0.31473796  0.24269958  1
  O  O105  1  0.93950931  0.33253914  0.23969373  1
  O  O106  1  0.23340312  0.12789973  0.23789536  1
  O  O107  1  0.72246334  0.14627824  0.23873296  1
  O  O108  1  0.31798308  0.49645186  0.92171380  1
  O  O109  1  0.81894067  0.50886357  0.91430763  1
  O  O110  1  0.43262706  0.36364799  0.90832551  1
  O  O111  1  0.93378628  0.36355611  0.92268938  1
  O  O112  1  0.24965529  0.15004280  0.92586928  1
  O  O113  1  0.74690449  0.12141165  0.91211346  1
  O  O114  1  0.31325566  0.12039789  0.40914282  1
  O  O115  1  0.81729668  0.13801293  0.42205334  1
  O  O116  1  0.24789756  0.37720790  0.41054913  1
  O  O117  1  0.75066614  0.34836306  0.42415585  1
  O  O118  1  0.43263139  0.50612757  0.42004870  1
  O  O119  1  0.93204005  0.49994598  0.40930756  1
  O  O120  1  0.15499751  0.45289809  0.08389484  1
  O  O121  1  0.66118184  0.45690795  0.08331791  1
  O  O122  1  0.06806754  0.67648479  0.08562937  1
  O  O123  1  0.56961758  0.68170425  0.08440824  1
  O  O124  1  0.27102185  0.86019965  0.08761740  1
  O  O125  1  0.76376531  0.84114731  0.08289706  1
  O  O126  1  0.15813936  0.86233548  0.58314458  1
  O  O127  1  0.65876728  0.86307979  0.58290107  1
  O  O128  1  0.26408835  0.69067570  0.58243725  1
  O  O129  1  0.77399359  0.68534789  0.58681436  1
  O  O130  1  0.06925616  0.45711103  0.58473552  1
  O  O131  1  0.58082490  0.48783232  0.58637931  1
  O  O132  1  0.14660632  0.81142274  0.25979480  1
  O  O133  1  0.64716967  0.84677710  0.23910890  1
  O  O134  1  0.25387164  0.70041254  0.26074479  1
  O  O135  1  0.77896108  0.71073251  0.23804685  1
  O  O136  1  0.08726288  0.46952006  0.25266138  1
  O  O137  1  0.59049148  0.47559631  0.23889557  1
  O  O138  1  0.14655060  0.44636345  0.73988399  1
  O  O139  1  0.64388706  0.47515292  0.75802871  1
  O  O140  1  0.08984871  0.70471802  0.73981971  1
  O  O141  1  0.58734190  0.69445217  0.75844038  1
  O  O142  1  0.27795162  0.84477313  0.73918412  1
  O  O143  1  0.75408862  0.80683041  0.76238328  1
loop_
_geom_bond_atom_site_label_1
_geom_bond_atom_site_label_2
_geom_bond_distance
_geom_bond_site_symmetry_2
Na0 O80 2.572751 1_665
Na0 O83 2.599578 1_555
Na0 O111 2.678772 1_555
Na0 O9 2.684165 1_655
Na0 O109 2.838327 1_555
Na0 O52 2.870202 1_655
Na1 O82 2.471558 1_545
Na1 O79 2.553900 1_555
Na1 O112 2.669653 1_555
Na1 O110 2.748919 1_555
Na2 O108 2.375617 1_555
Na2 O112 2.514789 1_555
Na2 O80 2.518445 1_555
Na2 O78 2.816376 1_555
Na3 O77 2.626767 1_555
Na3 O118 2.669822 1_555
Na3 O74 2.699064 1_545
Na3 O57 2.722499 1_555
Na3 O46 2.749654 1_555
Na3 O114 2.945291 1_555
Na3 O4 2.994621 1_555
Na4 O115 2.382754 1_555
Na4 O77 2.485918 1_555
Na4 O117 2.515650 1_555
Na4 O73 2.782858 1_545
Na5 O75 2.476368 1_555
Na5 O72 2.595302 1_655
Na5 O117 2.647702 1_555
Na5 O119 2.792326 1_555
Na5 O45 3.014571 1_555
Na5 O55 3.034452 1_555
Na5 O65 3.041490 1_555
Na6 O75 2.606333 1_555
Na6 O72 2.755766 1_655
Na6 O89 2.946338 1_555
Na6 O86 2.952930 1_665
Na6 O76 2.975350 1_665
Na6 O85 2.998319 1_565
Na7 O77 2.650726 1_555
Na7 O87 2.807714 1_555
Na7 O84 2.814784 1_555
Na7 O73 2.881487 1_545
Na7 O88 3.008616 1_545
Na7 O74 3.036823 1_545
Na8 O80 2.515095 1_555
Na8 O78 2.766721 1_555
Na8 O83 2.894356 1_445
Na8 O94 2.913320 1_556
Na8 O91 2.918059 1_446
Na9 O82 2.505684 1_555
Na9 O79 2.676634 1_565
Na9 O81 2.843820 1_555
Na10 O110 2.328025 1_555
Na10 O108 2.564554 1_555
Na10 O112 2.739374 1_555
Na10 O100 2.974812 1_555
Na11 O99 2.633256 1_555
Na11 O101 2.657525 1_555
Na11 O97 2.691982 1_555
Na11 O113 2.873103 1_555
Na11 O109 2.960222 1_555
Na12 O116 2.742463 1_555
Na12 O104 2.765280 1_555
Na12 O102 2.776438 1_555
Na12 O106 2.801602 1_555
Na12 O114 2.816892 1_555
Na12 O118 2.991516 1_555
Na13 O119 2.260335 1_555
Na13 O115 2.459499 1_555
Na13 O117 2.560577 1_555
Na14 O134 2.606508 1_555
Na14 O136 2.639415 1_555
Na14 O132 2.725853 1_555
Na14 O124 2.796519 1_555
Na14 O120 2.866221 1_555
Na14 O122 2.906677 1_555
Na15 O137 2.394651 1_555
Na15 O133 2.593958 1_555
Na15 O135 2.612681 1_555
Na15 O125 2.748080 1_555
Na15 O123 2.778590 1_555
Na15 O121 2.836855 1_555
Na16 O140 2.459257 1_555
Na16 O142 2.592016 1_555
Na16 O138 2.629961 1_555
Na16 O128 2.700206 1_555
Na16 O130 2.786178 1_555
Na16 O126 2.840945 1_555
Na17 O131 2.371358 1_555
Na17 O127 2.760574 1_555
Na17 O129 2.771709 1_555
Na17 O141 2.850407 1_555
Na17 O139 2.860267 1_555
Na17 O143 2.990632 1_555
La0 O0 2.214101 1_555
La0 O72 2.285742 1_545
La0 O75 2.302869 1_445
La0 O76 2.374756 1_555
La0 O5 2.440431 1_455
La0 O3 2.476331 1_445
La1 O2 2.201014 1_545
La1 O4 2.218699 1_555
La1 O77 2.352425 1_555
La1 O1 2.408111 1_555
La1 O74 2.448640 1_545
La1 O73 2.553284 1_545
La2 O11 2.178526 1_565
La2 O9 2.223283 1_655
La2 O6 2.395083 1_665
La2 O80 2.402779 1_665
La2 O83 2.463687 1_555
La2 O78 2.594838 1_665
La3 O7 2.193821 1_555
La3 O79 2.301649 1_555
La3 O82 2.336907 1_545
La3 O8 2.402617 1_545
La3 O81 2.421393 1_545
La3 O10 2.425495 1_555
La4 O28 2.161216 1_555
La4 O24 2.166441 1_555
La4 O26 2.430528 1_555
La4 O100 2.470455 1_555
La4 O98 2.473343 1_555
La4 O96 2.484742 1_555
La5 O101 2.235668 1_555
La5 O97 2.268350 1_555
La5 O99 2.269986 1_555
La5 O27 2.412365 1_555
La5 O25 2.436430 1_555
La5 O29 2.448199 1_555
La6 O104 2.208583 1_555
La6 O102 2.246293 1_555
La6 O106 2.273352 1_555
La6 O30 2.442540 1_555
La6 O32 2.455509 1_555
La6 O34 2.461130 1_555
La7 O33 2.125890 1_555
La7 O107 2.359372 1_555
La7 O35 2.389185 1_555
La7 O105 2.400517 1_555
La7 O31 2.402299 1_555
La7 O103 2.439666 1_555
La8 O108 2.215631 1_555
La8 O110 2.296175 1_555
La8 O112 2.309633 1_555
La8 O38 2.486620 1_556
La8 O40 2.735965 1_556
La8 O36 2.906759 1_556
La9 O41 2.187403 1_556
La9 O113 2.427114 1_555
La9 O111 2.444621 1_555
La9 O37 2.456555 1_556
La9 O39 2.750928 1_556
La9 O109 2.775088 1_555
La10 O44 2.186415 1_555
La10 O46 2.322821 1_555
La10 O118 2.511158 1_555
La10 O42 2.522210 1_555
La10 O116 2.735595 1_555
La10 O114 2.948159 1_555
La11 O115 2.217889 1_555
La11 O117 2.319206 1_555
La11 O119 2.342977 1_555
La11 O47 2.478231 1_555
La11 O45 2.712810 1_555
La11 O43 2.774883 1_555
La12 O48 2.139409 1_554
La12 O52 2.189969 1_554
La12 O50 2.413002 1_554
La12 O124 2.498035 1_555
La12 O122 2.593401 1_555
La12 O120 2.612204 1_555
La13 O51 2.210354 1_554
La13 O125 2.327009 1_555
La13 O53 2.387231 1_554
La13 O49 2.399520 1_554
La13 O121 2.481165 1_555
La13 O123 2.497795 1_555
La14 O58 2.232905 1_555
La14 O128 2.285201 1_555
La14 O56 2.384363 1_555
La14 O54 2.431122 1_555
La14 O126 2.463253 1_555
La14 O130 2.474527 1_555
La15 O57 2.213000 1_555
La15 O55 2.235646 1_555
La15 O131 2.301799 1_555
La15 O59 2.438290 1_555
La15 O129 2.527764 1_555
La15 O127 2.581345 1_555
La16 O65 2.214173 1_555
La16 O63 2.255736 1_555
La16 O137 2.402214 1_555
La16 O61 2.478028 1_555
La16 O135 2.642131 1_555
La16 O133 2.759111 1_555
La17 O68 2.240148 1_555
La17 O70 2.277574 1_555
La17 O140 2.366689 1_555
La17 O66 2.541560 1_555
La17 O142 2.552395 1_555
La17 O138 2.712946 1_555
Nb0 O16 1.843745 1_655
Nb0 O13 1.883065 1_555
Nb0 O14 2.052972 1_665
Nb0 O89 2.058630 1_555
Nb0 O85 2.223499 1_565
Nb0 O86 2.299012 1_665
Nb1 O84 1.840201 1_555
Nb1 O88 1.905859 1_545
Nb1 O15 1.953869 1_555
Nb1 O12 2.070433 1_545
Nb1 O87 2.074335 1_555
Nb1 O17 2.678662 1_545
Nb2 O93 1.907243 1_455
Nb2 O22 1.925926 1_545
Nb2 O19 2.027412 1_445
Nb2 O94 2.046189 1_555
Nb2 O91 2.088667 1_445
Nb2 O20 2.276895 1_555
Nb3 O21 1.832227 1_565
Nb3 O18 1.866545 1_555
Nb3 O23 2.061003 1_555
Nb3 O92 2.073464 1_565
Nb3 O90 2.205686 1_555
Nb3 O95 2.361899 1_565
Nb4 O60 1.892316 1_555
Nb4 O132 1.916256 1_555
Nb4 O134 2.027336 1_555
Nb4 O62 2.070957 1_555
Nb4 O64 2.266833 1_555
Nb4 O136 2.317765 1_555
Nb5 O139 1.870255 1_555
Nb5 O67 1.913598 1_555
Nb5 O143 1.989579 1_555
Nb5 O141 2.051831 1_555
Nb5 O71 2.309121 1_555
Nb5 O69 2.409676 1_555
O0 Si0 1.574871 1_545
O1 S0 1.465619 1_545
O2 Si1 1.579916 1_555
O3 S1 1.462000 1_555
O4 Si2 1.616832 1_555
O5 S2 1.452013 1_655
O6 S3 1.481609 1_555
O7 Si3 1.582304 1_555
O8 S4 1.458060 1_555
O9 Si4 1.627688 1_555
O10 S5 1.475374 1_545
O11 Si5 1.589291 1_545
O12 S5 1.510478 1_555
O13 Si5 1.773027 1_555
O14 S3 1.531246 1_555
O15 Si3 1.670279 1_555
O16 Si4 1.762882 1_555
O17 S4 1.464382 1_555
O18 Si1 1.788878 1_555
O19 S1 1.515584 1_555
O20 S2 1.511250 1_555
O21 Si2 1.777952 1_555
O22 Si0 1.717786 1_555
O23 S0 1.529333 1_555
O24 Si6 1.599180 1_555
O25 S6 1.464387 1_555
O26 S7 1.468495 1_555
O27 S8 1.462275 1_555
O28 Si7 1.605856 1_555
O29 S9 1.459933 1_555
O30 S10 1.463930 1_555
O31 S11 1.464995 1_555
O32 S12 1.454953 1_555
O33 Si8 1.610690 1_555
O34 S13 1.458413 1_555
O35 S14 1.478795 1_555
O36 S13 1.470473 1_555
O37 S14 1.505430 1_555
O38 S10 1.484723 1_555
O39 S11 1.482951 1_555
O40 S12 1.477799 1_555
O41 Si8 1.658264 1_555
O42 S7 1.498119 1_555
O43 S8 1.479690 1_555
O44 Si7 1.652829 1_555
O45 S9 1.479839 1_555
O46 Si6 1.650179 1_555
O47 S6 1.484744 1_555
O48 Si9 1.643866 1_555
O49 S15 1.472950 1_555
O50 S16 1.480708 1_555
O51 Si10 1.613247 1_555
O52 Si11 1.638371 1_555
O53 S17 1.484302 1_555
O54 S18 1.459468 1_555
O55 Si12 1.689602 1_555
O56 S19 1.475070 1_555
O57 Si13 1.622886 1_555
O58 Si14 1.604642 1_555
O59 S20 1.475429 1_555
O60 Si14 1.753509 1_555
O61 S20 1.482406 1_555
O62 S18 1.538139 1_555
O63 Si12 1.623610 1_555
O64 S19 1.512080 1_555
O65 Si13 1.643914 1_555
O66 S16 1.474696 1_555
O67 Si10 1.728890 1_555
O68 Si11 1.635632 1_555
O69 S17 1.477071 1_555
O70 Si9 1.637256 1_555
O71 S15 1.493604 1_555
O72 Si14 1.624148 1_555
O73 S20 1.483212 1_555
O74 S18 1.483399 1_555
O75 Si12 1.645143 1_555
O76 S19 1.480309 1_555
O77 Si13 1.664583 1_555
O78 S16 1.480592 1_555
O79 Si10 1.625053 1_555
O80 Si11 1.663838 1_545
O81 S17 1.477390 1_555
O82 Si9 1.633203 1_555
O83 S15 1.500863 1_555
O84 Si6 1.732607 1_555
O85 S6 1.509857 1_555
O86 S7 1.508696 1_555
O87 S8 1.535505 1_555
O88 Si7 1.696656 1_555
O89 S9 1.542795 1_555
O90 S10 1.511131 1_555
O91 S11 1.535981 1_555
O92 S12 1.537196 1_555
O93 Si8 1.711539 1_555
O94 S13 1.542541 1_555
O95 S14 1.494533 1_555
O96 S5 1.466339 1_545
O97 Si5 1.590563 1_545
O98 S3 1.464192 1_555
O99 Si3 1.591652 1_555
O100 S4 1.477674 1_555
O101 Si4 1.603127 1_655
O102 Si1 1.589908 1_555
O103 S1 1.470993 1_555
O104 Si2 1.608301 1_555
O105 S2 1.483829 1_655
O106 Si0 1.585447 1_545
O107 S0 1.478778 1_545
O108 Si9 1.655572 1_555
O109 S15 1.500283 1_555
O110 Si10 1.650606 1_555
O111 S16 1.511763 1_655
O112 Si11 1.651303 1_545
O113 S17 1.516451 1_545
O114 S18 1.477184 1_545
O115 Si12 1.635917 1_545
O116 S19 1.488366 1_555
O117 Si13 1.654777 1_555
O118 S20 1.505052 1_555
O119 Si14 1.639883 1_655
O120 S13 1.477170 1_555
O121 S14 1.478026 1_555
O122 S11 1.470898 1_455
O123 S10 1.484584 1_555
O124 S12 1.484217 1_565
O125 Si8 1.605781 1_565
O126 S7 1.482240 1_565
O127 S8 1.470247 1_565
O128 Si7 1.621973 1_555
O129 S9 1.470989 1_555
O130 S6 1.484414 1_455
O131 Si6 1.611404 1_555
O132 Si0 1.729585 1_555
O133 S0 1.462545 1_555
O134 Si1 1.667716 1_555
O135 S1 1.467681 1_555
O136 S2 1.514064 1_555
O137 Si2 1.615298 1_555
O138 S3 1.465603 1_555
O139 Si3 1.746232 1_555
O140 Si4 1.616830 1_555
O141 S4 1.560674 1_555
O142 S5 1.478757 1_555
O143 Si5 1.675682 1_555
