# generated using pymatgen
data_MgV4O5F7
_symmetry_space_group_name_H-M   'P 1'
_cell_length_a   5.31776788
_cell_length_b   5.31771935
_cell_length_c   8.92694829
_cell_angle_alpha   74.16625641
_cell_angle_beta   92.18996573
_cell_angle_gamma   62.86955961
_symmetry_Int_Tables_number   1
_chemical_formula_structural   MgV4O5F7
_chemical_formula_sum   'Mg1 V4 O5 F7'
_cell_volume   212.20458934
_cell_formula_units_Z   1
loop_
 _symmetry_equiv_pos_site_id
 _symmetry_equiv_pos_as_xyz
  1  'x, y, z'
loop_
 _atom_site_type_symbol
 _atom_site_label
 _atom_site_symmetry_multiplicity
 _atom_site_fract_x
 _atom_site_fract_y
 _atom_site_fract_z
 _atom_site_occupancy
  Mg  Mg0  1  0.65849200  0.73967400  0.90366900  1
  V  V0  1  0.77273600  0.46184900  0.26733800  1
  V  V1  1  0.48238200  0.01220300  0.51223900  1
  V  V2  1  0.27160700  0.51214400  0.73406000  1
  V  V3  1  0.03555800  0.00370300  0.01974600  1
  O  O0  1  0.87635500  0.33169900  0.08118400  1
  O  O1  1  0.40602900  0.79081200  0.07991000  1
  O  O2  1  0.45851800  0.74486600  0.70451000  1
  O  O3  1  0.42313900  0.28336500  0.59569300  1
  O  O4  1  0.07860300  0.21285500  0.40113100  1
  F  F0  1  0.90602500  0.79678800  0.57945200  1
  F  F1  1  0.92197500  0.75865300  0.18032100  1
  F  F2  1  0.55908300  0.71857000  0.39397600  1
  F  F3  1  0.55720200  0.24785000  0.31249200  1
  F  F4  1  0.61104200  0.14914800  0.90251700  1
  F  F5  1  0.05092800  0.71420000  0.89120700  1
  F  F6  1  0.06782700  0.25912500  0.81912600  1
loop_
_geom_bond_atom_site_label_1
_geom_bond_atom_site_label_2
_geom_bond_distance
_geom_bond_site_symmetry_2
Mg0 O2 2.023468 1_555
Mg0 O0 2.061888 1_556
Mg0 O1 2.100843 1_556
O0 V3 1.808451 1_655
O0 V0 1.973309 1_555
O1 V3 1.733354 1_565
O1 V0 2.169005 1_555
O2 V2 1.884889 1_555
O2 V1 1.957749 1_565
O3 V1 1.709780 1_555
O3 V2 1.912355 1_555
O4 V0 1.688085 1_455
O4 V1 1.975584 1_555
F0 V1 1.978752 1_565
F0 V2 1.986604 1_655
F1 V3 1.970376 1_665
F1 V0 2.060295 1_555
F2 V0 1.989543 1_555
F2 V1 2.017594 1_565
F3 V0 1.935394 1_555
F3 V1 2.048841 1_555
F4 V2 2.067947 1_555
F4 Mg0 2.071622 1_545
F4 V3 2.138902 1_656
F5 Mg0 2.038123 1_455
F5 V2 2.073154 1_555
F5 V3 2.133020 1_566
F6 V3 1.997591 1_556
F6 V2 2.096763 1_555
