# generated using pymatgen
data_MgMn4Zn2O8
_symmetry_space_group_name_H-M   'P 1'
_cell_length_a   6.24198255
_cell_length_b   6.24198551
_cell_length_c   6.06601599
_cell_angle_alpha   60.98667799
_cell_angle_beta   60.98672433
_cell_angle_gamma   63.97890565
_symmetry_Int_Tables_number   1
_chemical_formula_structural   MgMn4Zn2O8
_chemical_formula_sum   'Mg1 Mn4 Zn2 O8'
_cell_volume   174.23456455
_cell_formula_units_Z   1
loop_
 _symmetry_equiv_pos_site_id
 _symmetry_equiv_pos_as_xyz
  1  'x, y, z'
loop_
 _atom_site_type_symbol
 _atom_site_label
 _atom_site_symmetry_multiplicity
 _atom_site_fract_x
 _atom_site_fract_y
 _atom_site_fract_z
 _atom_site_occupancy
  Mg  Mg0  1  0.81578695  0.81578695  0.18420483  1
  Mn  Mn0  1  0.12916910  0.12916910  0.87009201  1
  Mn  Mn1  1  0.18608723  0.18608723  0.31348310  1
  Mn  Mn2  1  0.56711577  0.56711577  0.17318857  1
  Mn  Mn3  1  0.56773018  0.56773018  0.69169817  1
  Zn  Zn0  1  0.09488954  0.65458960  0.62558561  1
  Zn  Zn1  1  0.65458960  0.09488954  0.62558561  1
  O  O0  1  0.33018962  0.33018962  0.44877048  1
  O  O1  1  0.43726169  0.80891498  0.37693844  1
  O  O2  1  0.33034720  0.33034620  0.89017026  1
  O  O3  1  0.80891598  0.43725969  0.37693844  1
  O  O4  1  0.42796216  0.80898224  0.88156485  1
  O  O5  1  0.80898024  0.42796316  0.88156484  1
  O  O6  1  0.93393237  0.93393337  0.33466567  1
  O  O7  1  0.93482038  0.93482038  0.79777113  1
loop_
_geom_bond_atom_site_label_1
_geom_bond_atom_site_label_2
_geom_bond_distance
_geom_bond_site_symmetry_2
Mg0 O6 1.924505 1_555
Mg0 O7 1.924680 1_554
Mg0 O1 2.076537 1_555
Mg0 O3 2.076546 1_555
Mn0 O4 2.048940 1_545
Mn0 O5 2.048950 1_455
Mn0 O0 2.200147 1_555
Mn0 O2 2.202030 1_555
Mn0 O7 2.336561 1_445
Mn0 O6 2.356337 1_446
Mn1 O0 2.105608 1_555
Mn1 O2 2.107360 1_554
Mn1 O3 2.148645 1_455
Mn1 O1 2.148653 1_545
Mn1 O6 2.598526 1_445
Mn1 O7 2.601806 1_445
Mn2 O5 1.977958 1_554
Mn2 O4 1.977961 1_554
Mn2 O1 2.055950 1_555
Mn2 O3 2.055951 1_555
Mn2 O0 2.071588 1_555
Mn3 O5 1.977444 1_555
Mn3 O4 1.977455 1_555
Mn3 O1 2.054151 1_555
Mn3 O3 2.054160 1_555
Mn3 O2 2.075111 1_555
O0 Zn1 2.318835 1_555
O0 Zn0 2.318837 1_555
O1 Zn0 2.245030 1_555
O2 Zn1 2.315065 1_555
O2 Zn0 2.315068 1_555
O3 Zn1 2.245023 1_555
O4 Zn1 2.234587 1_565
O5 Zn0 2.234592 1_655
O6 Zn1 2.088525 1_565
O6 Zn0 2.088528 1_655
O7 Zn1 2.091746 1_565
O7 Zn0 2.091748 1_655
