# generated using pymatgen
data_Sc2FeB2Ir5
_symmetry_space_group_name_H-M   'P 1'
_cell_length_a   9.36535764
_cell_length_b   9.36535764
_cell_length_c   3.04429788
_cell_angle_alpha   90.00000000
_cell_angle_beta   90.00000000
_cell_angle_gamma   90.00000000
_symmetry_Int_Tables_number   1
_chemical_formula_structural   Sc2FeB2Ir5
_chemical_formula_sum   'Sc4 Fe2 B4 Ir10'
_cell_volume   267.01513485
_cell_formula_units_Z   2
loop_
 _symmetry_equiv_pos_site_id
 _symmetry_equiv_pos_as_xyz
  1  'x, y, z'
loop_
 _atom_site_type_symbol
 _atom_site_label
 _atom_site_symmetry_multiplicity
 _atom_site_fract_x
 _atom_site_fract_y
 _atom_site_fract_z
 _atom_site_occupancy
  Sc  Sc0  1  0.17633837  0.67633837  0.00000000  1
  Sc  Sc1  1  0.82366163  0.32366163  -0.00000000  1
  Sc  Sc2  1  0.32366163  0.17633837  -0.00000000  1
  Sc  Sc3  1  0.67633837  0.82366163  0.00000000  1
  Fe  Fe0  1  0.00000000  -0.00000000  0.00000000  1
  Fe  Fe1  1  0.50000000  0.50000000  0.00000000  1
  B  B0  1  0.37534386  0.87534386  -0.00000000  1
  B  B1  1  0.87534386  0.62465614  0.00000000  1
  B  B2  1  0.12465614  0.37534386  -0.00000000  1
  B  B3  1  0.62465614  0.12465614  0.00000000  1
  Ir  Ir0  1  0.50000000  -0.00000000  0.50000000  1
  Ir  Ir1  1  0.71561472  0.56954595  0.50000000  1
  Ir  Ir2  1  0.56954595  0.28438528  0.50000000  1
  Ir  Ir3  1  0.43045405  0.71561472  0.50000000  1
  Ir  Ir4  1  0.28438528  0.43045405  0.50000000  1
  Ir  Ir5  1  0.00000000  0.50000000  0.50000000  1
  Ir  Ir6  1  0.93045405  0.78438528  0.50000000  1
  Ir  Ir7  1  0.78438528  0.06954595  0.50000000  1
  Ir  Ir8  1  0.21561472  0.93045405  0.50000000  1
  Ir  Ir9  1  0.06954595  0.21561472  0.50000000  1
loop_
_geom_bond_atom_site_label_1
_geom_bond_atom_site_label_2
_geom_bond_distance
_geom_bond_site_symmetry_2
Fe0 Ir6 2.611277 1_445
Fe0 Ir7 2.611277 1_454
Fe0 Ir9 2.611277 1_554
Fe0 Ir8 2.611277 1_545
Fe0 Ir7 2.611277 1_455
Fe0 Ir8 2.611277 1_544
Fe0 Ir6 2.611277 1_444
Fe0 Ir9 2.611277 1_555
Fe1 Ir4 2.611277 1_555
Fe1 Ir4 2.611277 1_554
Fe1 Ir2 2.611277 1_555
Fe1 Ir2 2.611277 1_554
Fe1 Ir3 2.611277 1_554
Fe1 Ir1 2.611277 1_555
Fe1 Ir1 2.611277 1_554
Fe1 Ir3 2.611277 1_555
B0 Ir3 2.195701 1_554
B0 Ir3 2.195701 1_555
B0 Ir8 2.195701 1_554
B0 Ir8 2.195701 1_555
B0 Ir0 2.245621 1_565
B0 Ir0 2.245621 1_564
B0 Sc0 2.635751 1_555
B0 Sc3 2.860174 1_555
B0 Sc2 2.860174 1_565
B1 Ir6 2.195701 1_554
B1 Ir1 2.195701 1_555
B1 Ir1 2.195701 1_554
B1 Ir6 2.195701 1_555
B1 Ir5 2.245621 1_654
B1 Ir5 2.245621 1_655
B1 Sc3 2.635751 1_555
B1 Sc1 2.860174 1_555
B1 Sc0 2.860174 1_655
B2 Ir9 2.195701 1_554
B2 Ir9 2.195701 1_555
B2 Ir4 2.195701 1_554
B2 Ir4 2.195701 1_555
B2 Ir5 2.245621 1_554
B2 Ir5 2.245621 1_555
B2 Sc2 2.635751 1_555
B2 Sc0 2.860174 1_555
B2 Sc1 2.860174 1_455
B3 Ir7 2.195701 1_554
B3 Ir7 2.195701 1_555
B3 Ir2 2.195701 1_555
B3 Ir2 2.195701 1_554
B3 Ir0 2.245621 1_554
B3 Ir0 2.245621 1_555
B3 Sc1 2.635751 1_555
B3 Sc3 2.860174 1_545
B3 Sc2 2.860174 1_555
Ir0 Sc3 2.787769 1_545
Ir0 Sc3 2.787769 1_546
Ir0 Sc2 2.787769 1_555
Ir0 Sc2 2.787769 1_556
Ir1 Sc3 2.848875 1_555
Ir1 Sc3 2.848875 1_556
Ir1 Sc1 2.940023 1_555
Ir1 Sc1 2.940023 1_556
Ir2 Sc1 2.848875 1_555
Ir2 Sc1 2.848875 1_556
Ir2 Sc2 2.940023 1_555
Ir2 Sc2 2.940023 1_556
Ir3 Sc0 2.848875 1_555
Ir3 Sc0 2.848875 1_556
Ir3 Sc3 2.940023 1_556
Ir3 Sc3 2.940023 1_555
Ir4 Sc2 2.848875 1_556
Ir4 Sc2 2.848875 1_555
Ir4 Sc0 2.940023 1_555
Ir4 Sc0 2.940023 1_556
Ir5 Sc0 2.787769 1_556
Ir5 Sc0 2.787769 1_555
Ir5 Sc1 2.787769 1_456
Ir5 Sc1 2.787769 1_455
Ir6 Sc3 2.848875 1_555
Ir6 Sc3 2.848875 1_556
Ir6 Sc0 2.940023 1_655
Ir6 Sc0 2.940023 1_656
Ir7 Sc1 2.848875 1_555
Ir7 Sc1 2.848875 1_556
Ir7 Sc3 2.940023 1_545
Ir7 Sc3 2.940023 1_546
Ir8 Sc0 2.848875 1_555
Ir8 Sc0 2.848875 1_556
Ir8 Sc2 2.940023 1_566
Ir8 Sc2 2.940023 1_565
Ir9 Sc2 2.848875 1_556
Ir9 Sc2 2.848875 1_555
Ir9 Sc1 2.940023 1_456
Ir9 Sc1 2.940023 1_455
