# generated using pymatgen
data_NdTe2
_symmetry_space_group_name_H-M   'P 1'
_cell_length_a   4.51443228
_cell_length_b   4.51443228
_cell_length_c   9.17066926
_cell_angle_alpha   90.00000000
_cell_angle_beta   90.00000000
_cell_angle_gamma   90.00000000
_symmetry_Int_Tables_number   1
_chemical_formula_structural   NdTe2
_chemical_formula_sum   'Nd2 Te4'
_cell_volume   186.89914568
_cell_formula_units_Z   2
loop_
 _symmetry_equiv_pos_site_id
 _symmetry_equiv_pos_as_xyz
  1  'x, y, z'
loop_
 _atom_site_type_symbol
 _atom_site_label
 _atom_site_symmetry_multiplicity
 _atom_site_fract_x
 _atom_site_fract_y
 _atom_site_fract_z
 _atom_site_occupancy
  Nd  Nd0  1  0.75000000  0.75000000  0.72788884  1
  Nd  Nd1  1  0.25000000  0.25000000  0.27211116  1
  Te  Te0  1  0.75000000  0.75000000  0.37028304  1
  Te  Te1  1  0.25000000  0.25000000  0.62971696  1
  Te  Te2  1  0.25000000  0.75000000  -0.00000000  1
  Te  Te3  1  0.75000000  0.25000000  -0.00000000  1
loop_
_geom_bond_atom_site_label_1
_geom_bond_atom_site_label_2
_geom_bond_distance
_geom_bond_site_symmetry_2
Nd0 Te0 3.279485 1_555
Nd0 Te1 3.316714 1_665
Nd0 Te1 3.316714 1_555
Nd0 Te1 3.316714 1_565
Nd0 Te1 3.316714 1_655
Nd0 Te2 3.364856 1_556
Nd0 Te2 3.364856 1_656
Nd0 Te3 3.364856 1_556
Nd0 Te3 3.364856 1_566
Nd1 Te1 3.279485 1_555
Nd1 Te0 3.316714 1_445
Nd1 Te0 3.316714 1_455
Nd1 Te0 3.316714 1_545
Nd1 Te0 3.316714 1_555
Nd1 Te3 3.364856 1_455
Nd1 Te2 3.364856 1_555
Nd1 Te3 3.364856 1_555
Nd1 Te2 3.364856 1_545
Te2 Te3 3.192186 1_565
Te2 Te3 3.192186 1_465
Te2 Te3 3.192186 1_455
Te2 Te3 3.192186 1_555
