# generated using pymatgen
data_Na4La2Si3Sn2(SO8)3
_symmetry_space_group_name_H-M   'P 1'
_cell_length_a   9.36566865
_cell_length_b   9.41985210
_cell_length_c   23.69507864
_cell_angle_alpha   90.19021495
_cell_angle_beta   88.79844570
_cell_angle_gamma   119.93347868
_symmetry_Int_Tables_number   1
_chemical_formula_structural   Na4La2Si3Sn2(SO8)3
_chemical_formula_sum   'Na12 La6 Si9 Sn6 S9 O72'
_cell_volume   1811.14038111
_cell_formula_units_Z   3
loop_
 _symmetry_equiv_pos_site_id
 _symmetry_equiv_pos_as_xyz
  1  'x, y, z'
loop_
 _atom_site_type_symbol
 _atom_site_label
 _atom_site_symmetry_multiplicity
 _atom_site_fract_x
 _atom_site_fract_y
 _atom_site_fract_z
 _atom_site_occupancy
  Na  Na0  1  0.98596352  0.64292050  0.24912382  1
  Na  Na1  1  0.99129980  0.35286329  0.74264168  1
  Na  Na2  1  0.65528680  0.97501384  0.58998423  1
  Na  Na3  1  0.67143184  0.69532280  0.08002129  1
  Na  Na4  1  0.33881680  0.30584286  0.90394264  1
  Na  Na5  1  0.31689577  0.01812602  0.41741582  1
  Na  Na6  1  0.00823043  0.99006692  0.50908988  1
  Na  Na7  1  0.97945663  0.97056635  0.00166463  1
  Na  Na8  1  0.64843018  0.31806886  0.82787122  1
  Na  Na9  1  0.65183120  0.34254224  0.33351370  1
  Na  Na10  1  0.32405837  0.67876766  0.17284172  1
  Na  Na11  1  0.32151302  0.66823185  0.66874470  1
  La  La0  1  0.99241701  0.98964444  0.35212977  1
  La  La1  1  0.98436290  0.98418418  0.84929491  1
  La  La2  1  0.64956852  0.32910884  0.68605253  1
  La  La3  1  0.65476068  0.32622096  0.18697473  1
  La  La4  1  0.32727542  0.67584752  0.01823497  1
  La  La5  1  0.31007238  0.65176820  0.52179760  1
  Si  Si0  1  0.29367343  0.98413512  0.25494470  1
  Si  Si1  1  0.68629030  0.70305764  0.25042628  1
  Si  Si2  1  0.29251108  0.30660126  0.75744691  1
  Si  Si3  1  0.70597976  0.99416740  0.74581575  1
  Si  Si4  1  0.95486232  0.31638770  0.58780436  1
  Si  Si5  1  0.36661717  0.04866896  0.57969261  1
  Si  Si6  1  0.96648933  0.64758620  0.08982260  1
  Si  Si7  1  0.62794503  0.65572200  0.92280145  1
  Si  Si8  1  0.02344871  0.64676498  0.41567747  1
  Sn  Sn0  1  0.02010218  0.03206807  0.64940096  1
  Sn  Sn1  1  0.99421974  0.97474043  0.15689549  1
  Sn  Sn2  1  0.69189752  0.37050913  0.98348940  1
  Sn  Sn3  1  0.67945138  0.33644373  0.48758175  1
  Sn  Sn4  1  0.32486978  0.66742517  0.31414999  1
  Sn  Sn5  1  0.37268509  0.67345108  0.81087694  1
  S  S0  1  0.01752333  0.30471931  0.24777073  1
  S  S1  1  0.02187839  0.70806312  0.74796966  1
  S  S2  1  0.68796889  0.64542242  0.58024515  1
  S  S3  1  0.68832913  0.03899517  0.08242913  1
  S  S4  1  0.35007283  0.31527302  0.08193304  1
  S  S5  1  0.03293362  0.37859322  0.91426076  1
  S  S6  1  0.35016094  0.97513491  0.91226249  1
  S  S7  1  0.61621222  0.97303519  0.41747649  1
  S  S8  1  0.35292731  0.37727578  0.41423354  1
  O  O0  1  0.22331349  0.01032030  0.31402657  1
  O  O1  1  0.81265125  0.79804344  0.29977439  1
  O  O2  1  0.99770050  0.21444632  0.29996530  1
  O  O3  1  0.22004044  0.21287947  0.81693135  1
  O  O4  1  0.99939418  0.77581765  0.80103743  1
  O  O5  1  0.80874744  0.01092130  0.80117710  1
  O  O6  1  0.79640165  0.96785625  0.68761992  1
  O  O7  1  0.16971032  0.21063674  0.70300913  1
  O  O8  1  0.03475074  0.80896729  0.69813139  1
  O  O9  1  0.76734892  0.81260952  0.18921436  1
  O  O10  1  0.02996971  0.21622913  0.19644935  1
  O  O11  1  0.16516694  0.95659443  0.20062097  1
  O  O12  1  0.88951703  0.35143707  0.64607551  1
  O  O13  1  0.48571535  0.13285496  0.63148121  1
  O  O14  1  0.66026077  0.54961109  0.63190740  1
  O  O15  1  0.87951411  0.54740823  0.14624032  1
  O  O16  1  0.66315079  0.11294514  0.13266977  1
  O  O17  1  0.45806671  0.33770288  0.12916328  1
  O  O18  1  0.42506916  0.29373226  0.02734095  1
  O  O19  1  0.84272811  0.56063278  0.03245561  1
  O  O20  1  0.69732780  0.13068411  0.02926782  1
  O  O21  1  0.45339394  0.16359617  0.51952681  1
  O  O22  1  0.69822298  0.55507739  0.52900225  1
  O  O23  1  0.83151833  0.29104839  0.53356237  1
  O  O24  1  0.54376192  0.65959381  0.98234193  1
  O  O25  1  0.12639952  0.46282619  0.96449727  1
  O  O26  1  0.33090595  0.88345031  0.96471272  1
  O  O27  1  0.54734842  0.87930712  0.47035651  1
  O  O28  1  0.34124879  0.45511352  0.46590090  1
  O  O29  1  0.14720091  0.68003711  0.46610706  1
  O  O30  1  0.11220920  0.62156069  0.35519906  1
  O  O31  1  0.51279473  0.88184241  0.36793407  1
  O  O32  1  0.36369107  0.47565270  0.36267753  1
  O  O33  1  0.11035660  0.47454621  0.86184259  1
  O  O34  1  0.35452681  0.88197355  0.86163244  1
  O  O35  1  0.50082944  0.62564712  0.86838046  1
  O  O36  1  0.00948501  0.81281383  0.41373794  1
  O  O37  1  0.78791904  0.01084314  0.41101145  1
  O  O38  1  0.20536436  0.20924752  0.41230368  1
  O  O39  1  0.02223652  0.21579840  0.91352916  1
  O  O40  1  0.20814351  0.00482690  0.91135712  1
  O  O41  1  0.81189952  0.80966655  0.91936864  1
  O  O42  1  0.95077449  0.13626646  0.58706292  1
  O  O43  1  0.17949292  0.02789874  0.58971605  1
  O  O44  1  0.84201194  0.80610498  0.58237626  1
  O  O45  1  0.96759431  0.82773132  0.08904395  1
  O  O46  1  0.84418160  0.02963862  0.08555553  1
  O  O47  1  0.18410232  0.16740211  0.08992382  1
  O  O48  1  0.69427910  0.16021677  0.74505998  1
  O  O49  1  0.48008675  0.34578456  0.75370731  1
  O  O50  1  0.87955263  0.53815889  0.74416244  1
  O  O51  1  0.67543874  0.52490859  0.24722255  1
  O  O52  1  0.87739357  0.33565505  0.24341413  1
  O  O53  1  0.48042574  0.12977159  0.24624783  1
  O  O54  1  0.62851210  0.47377847  0.92021432  1
  O  O55  1  0.86031810  0.35623101  0.91924254  1
  O  O56  1  0.50514889  0.13932403  0.91329181  1
  O  O57  1  0.61241939  0.13184273  0.41970148  1
  O  O58  1  0.50264424  0.35780189  0.41449966  1
  O  O59  1  0.83852542  0.47630593  0.42460806  1
  O  O60  1  0.33771785  0.46658603  0.07891971  1
  O  O61  1  0.15010603  0.67503776  0.08311629  1
  O  O62  1  0.54769534  0.86584628  0.07982259  1
  O  O63  1  0.35878341  0.87227467  0.57448548  1
  O  O64  1  0.54790191  0.67744759  0.57481556  1
  O  O65  1  0.14291139  0.46431584  0.58543762  1
  O  O66  1  0.28237819  0.80032895  0.25474017  1
  O  O67  1  0.50150300  0.68531019  0.25968961  1
  O  O68  1  0.17242299  0.46987961  0.24897634  1
  O  O69  1  0.28414885  0.48286216  0.75723095  1
  O  O70  1  0.17550014  0.69428341  0.75104531  1
  O  O71  1  0.51930590  0.82485806  0.75038114  1
loop_
_geom_bond_atom_site_label_1
_geom_bond_atom_site_label_2
_geom_bond_distance
_geom_bond_site_symmetry_2
Na0 O66 2.414391 1_655
Na0 O51 2.544509 1_555
Na0 O52 2.548677 1_555
Na0 O15 2.634131 1_555
Na0 O11 2.803716 1_655
Na0 O30 2.849807 1_655
Na0 O1 2.912745 1_555
Na0 O68 2.923545 1_655
Na1 O69 2.413851 1_655
Na1 O50 2.442204 1_555
Na1 O48 2.447621 1_555
Na1 O12 2.494591 1_555
Na1 O7 2.762034 1_655
Na1 O70 2.798622 1_655
Na2 O42 2.401718 1_565
Na2 O63 2.478157 1_555
Na2 O64 2.488515 1_555
Na2 O6 2.705860 1_555
Na2 O13 2.825087 1_565
Na2 O44 2.895549 1_555
Na2 O23 2.899011 1_565
Na2 O27 3.010528 1_555
Na3 O62 2.404428 1_555
Na3 O45 2.421893 1_555
Na3 O24 2.570852 1_554
Na3 O19 2.720274 1_555
Na3 O46 2.733789 1_565
Na3 O60 2.773809 1_555
Na3 O9 2.794629 1_555
Na4 O3 2.316703 1_555
Na4 O54 2.401861 1_555
Na4 O40 2.469797 1_555
Na4 O39 2.650541 1_555
Na4 O56 2.718772 1_555
Na4 O35 2.736606 1_555
Na5 O57 2.420334 1_555
Na5 O38 2.496106 1_555
Na5 O36 2.547475 1_545
Na5 O0 2.607629 1_555
Na5 O58 2.776777 1_555
Na5 O21 2.779495 1_555
Na5 O31 2.939285 1_545
Na5 O29 2.982578 1_545
Na6 O44 2.378290 1_455
Na6 O43 2.429630 1_565
Na6 O42 2.506137 1_465
Na6 O36 2.808239 1_555
Na6 O38 2.996771 1_565
Na7 O45 2.443183 1_555
Na7 O41 2.509463 1_554
Na7 O46 2.541012 1_565
Na7 O47 2.842666 1_665
Na7 O40 2.897060 1_664
Na7 O39 2.988550 1_664
Na8 O49 2.484392 1_555
Na8 O56 2.527121 1_555
Na8 O48 2.613082 1_555
Na8 O54 2.684867 1_555
Na8 O55 2.866684 1_555
Na8 O50 2.878638 1_555
Na9 O58 2.396149 1_555
Na9 O51 2.608821 1_555
Na9 O59 2.691753 1_555
Na9 O57 2.740504 1_555
Na9 O53 2.787563 1_555
Na9 O52 2.995267 1_555
Na10 O66 2.372568 1_555
Na10 O68 2.504088 1_555
Na10 O67 2.653462 1_555
Na10 O61 2.695032 1_555
Na10 O62 2.915320 1_555
Na10 O60 3.029481 1_555
Na11 O70 2.439910 1_555
Na11 O71 2.598838 1_555
Na11 O69 2.636539 1_555
Na11 O65 2.700176 1_555
Na11 O63 2.851457 1_555
Na11 O64 3.012702 1_555
La0 O1 2.161305 1_555
La0 O0 2.242420 1_665
La0 O36 2.285363 1_655
La0 O37 2.433611 1_565
La0 O2 2.434074 1_565
La0 O38 2.504421 1_665
La1 O5 2.136019 1_565
La1 O3 2.301197 1_665
La1 O41 2.307397 1_555
La1 O4 2.331084 1_555
La1 O40 2.512694 1_665
La1 O39 2.535900 1_665
La2 O13 2.163497 1_555
La2 O49 2.292282 1_555
La2 O48 2.316363 1_555
La2 O12 2.330692 1_555
La2 O14 2.403146 1_555
La2 O50 2.507301 1_555
La3 O53 2.229039 1_555
La3 O51 2.282656 1_555
La3 O15 2.292346 1_555
La3 O17 2.363775 1_555
La3 O16 2.415421 1_555
La3 O52 2.464805 1_555
La4 O61 2.235471 1_555
La4 O24 2.257059 1_554
La4 O26 2.319945 1_554
La4 O25 2.345907 1_554
La4 O62 2.452799 1_555
La4 O60 2.485961 1_555
La5 O29 2.152025 1_555
La5 O65 2.236669 1_555
La5 O63 2.267643 1_555
La5 O28 2.403829 1_555
La5 O27 2.483626 1_555
La5 O64 2.485113 1_555
O0 Si0 1.605045 1_545
O1 Si1 1.600858 1_555
O2 S0 1.458402 1_655
O3 Si2 1.611485 1_555
O4 S1 1.466477 1_655
O5 Si3 1.603768 1_545
O6 Si3 1.684738 1_555
O6 Sn0 2.057862 1_665
O7 Si2 1.679488 1_555
O7 Sn0 2.028437 1_555
O8 S1 1.483134 1_555
O8 Sn0 2.465605 1_565
O9 Si1 1.710820 1_555
O9 Sn1 2.033385 1_555
O10 S0 1.507158 1_555
O10 Sn1 2.324663 1_445
O11 Si0 1.709935 1_555
O11 Sn1 2.002462 1_455
O12 Si4 1.597867 1_555
O13 Si5 1.595962 1_555
O14 S2 1.463112 1_555
O15 Si6 1.592701 1_555
O16 S3 1.450757 1_555
O17 S4 1.467212 1_555
O18 S4 1.519941 1_555
O18 Sn2 2.437254 1_554
O19 Si6 1.724343 1_555
O19 Sn2 2.019722 1_554
O20 S3 1.506635 1_555
O20 Sn2 2.532995 1_554
O21 Si5 1.717131 1_555
O21 Sn3 2.051135 1_555
O22 S2 1.509170 1_555
O22 Sn3 2.206393 1_555
O23 Si4 1.681791 1_555
O23 Sn3 2.018472 1_555
O24 Si7 1.610920 1_555
O25 S5 1.468694 1_555
O26 S6 1.471495 1_555
O27 S7 1.473313 1_555
O28 S8 1.454941 1_555
O29 Si8 1.600780 1_555
O30 Si8 1.716329 1_555
O30 Sn4 2.040199 1_555
O31 S7 1.504912 1_555
O31 Sn4 2.308816 1_555
O32 S8 1.506789 1_555
O32 Sn4 2.324763 1_555
O33 S5 1.483594 1_555
O33 Sn5 2.510325 1_555
O34 S6 1.495927 1_555
O34 Sn5 2.375436 1_555
O35 Si7 1.698764 1_555
O35 Sn5 2.027734 1_555
O36 Si8 1.634220 1_555
O37 S7 1.467957 1_545
O38 S8 1.495475 1_555
O39 S5 1.486116 1_555
O40 S6 1.490077 1_545
O41 Si7 1.606020 1_555
O42 Si4 1.677981 1_555
O42 Sn0 2.062211 1_655
O43 Si5 1.675336 1_555
O43 Sn0 2.049309 1_555
O44 S2 1.482639 1_555
O44 Sn0 2.525955 1_665
O45 Si6 1.691960 1_555
O45 Sn1 2.054780 1_555
O46 S3 1.508921 1_555
O46 Sn1 2.435190 1_545
O47 S4 1.490265 1_555
O47 Sn1 2.377880 1_445
O48 Si3 1.621807 1_545
O49 Si2 1.605273 1_555
O50 S1 1.490456 1_655
O51 Si1 1.631412 1_555
O52 S0 1.485111 1_655
O53 Si0 1.604934 1_545
O54 Si7 1.717425 1_555
O54 Sn2 2.042054 1_555
O55 S5 1.524531 1_655
O55 Sn2 2.221115 1_555
O56 S6 1.503473 1_545
O56 Sn2 2.620115 1_555
O57 S7 1.514701 1_545
O57 Sn3 2.347326 1_555
O58 S8 1.502310 1_555
O58 Sn3 2.497265 1_555
O59 Si8 1.683494 1_655
O59 Sn3 2.035403 1_555
O60 S4 1.488530 1_555
O61 Si6 1.610738 1_455
O62 S3 1.502566 1_565
O63 Si5 1.630614 1_565
O64 S2 1.493557 1_555
O65 Si4 1.610548 1_455
O66 Si0 1.681138 1_555
O66 Sn4 2.059079 1_555
O67 Si1 1.663390 1_555
O67 Sn4 2.015953 1_555
O68 S0 1.508268 1_555
O68 Sn4 2.303910 1_555
O69 Si2 1.700816 1_555
O69 Sn5 2.017405 1_555
O70 S1 1.510980 1_555
O70 Sn5 2.435633 1_555
O71 Si3 1.680007 1_555
O71 Sn5 1.987728 1_555
