# generated using pymatgen
data_Na6Ca4Si3Sn4(S3O16)3
_symmetry_space_group_name_H-M   'P 1'
_cell_length_a   18.17310589
_cell_length_b   9.06451620
_cell_length_c   23.29785775
_cell_angle_alpha   89.97413756
_cell_angle_beta   89.71942339
_cell_angle_gamma   120.02728005
_symmetry_Int_Tables_number   1
_chemical_formula_structural   Na6Ca4Si3Sn4(S3O16)3
_chemical_formula_sum   'Na18 Ca12 Si9 Sn12 S27 O144'
_cell_volume   3322.71667301
_cell_formula_units_Z   3
loop_
 _symmetry_equiv_pos_site_id
 _symmetry_equiv_pos_as_xyz
  1  'x, y, z'
loop_
 _atom_site_type_symbol
 _atom_site_label
 _atom_site_symmetry_multiplicity
 _atom_site_fract_x
 _atom_site_fract_y
 _atom_site_fract_z
 _atom_site_occupancy
  Na  Na0  1  0.99878100  0.63015907  0.24912429  1
  Na  Na1  1  0.50095524  0.61399216  0.23850067  1
  Na  Na2  1  0.00425910  0.37643010  0.73694019  1
  Na  Na3  1  0.49880540  0.37133999  0.74785998  1
  Na  Na4  1  0.67504410  0.33049492  0.91025010  1
  Na  Na5  1  0.17238817  0.02249962  0.41756585  1
  Na  Na6  1  0.99125791  0.00956732  0.50324412  1
  Na  Na7  1  0.50697410  0.01330461  0.50155194  1
  Na  Na8  1  0.00717396  0.00207034  0.99574844  1
  Na  Na9  1  0.48993577  0.96768084  0.99903475  1
  Na  Na10  1  0.29510575  0.29092895  0.83560062  1
  Na  Na11  1  0.84189730  0.37059339  0.83835694  1
  Na  Na12  1  0.33399804  0.30624529  0.34328838  1
  Na  Na13  1  0.81462693  0.32585157  0.34657960  1
  Na  Na14  1  0.17808566  0.64589738  0.15861234  1
  Na  Na15  1  0.66368912  0.65968265  0.15755845  1
  Na  Na16  1  0.16206993  0.63904090  0.66910059  1
  Na  Na17  1  0.68217682  0.71921791  0.66272969  1
  Ca  Ca0  1  0.99506967  0.00311966  0.35493047  1
  Ca  Ca1  1  0.49429570  0.98589198  0.85332588  1
  Ca  Ca2  1  0.31714736  0.32697830  0.68495189  1
  Ca  Ca3  1  0.83026952  0.31536564  0.67741939  1
  Ca  Ca4  1  0.32883879  0.34525503  0.17558745  1
  Ca  Ca5  1  0.82647984  0.32138925  0.18024195  1
  Ca  Ca6  1  0.84002091  0.34133951  0.98575294  1
  Ca  Ca7  1  0.33898990  0.33803555  0.48813325  1
  Ca  Ca8  1  0.16981220  0.66570913  0.31609071  1
  Ca  Ca9  1  0.67637605  0.65809789  0.31684483  1
  Ca  Ca10  1  0.17419779  0.68471261  0.81382708  1
  Ca  Ca11  1  0.67109609  0.67628788  0.81531294  1
  Si  Si0  1  0.14259425  0.28936121  0.75336390  1
  Si  Si1  1  0.98588374  0.33689377  0.58272513  1
  Si  Si2  1  0.67897539  0.01672567  0.58315925  1
  Si  Si3  1  0.48782608  0.63183496  0.08395328  1
  Si  Si4  1  0.18018665  0.34496275  0.08342085  1
  Si  Si5  1  0.81622921  0.67058991  0.91611003  1
  Si  Si6  1  0.17303560  0.96999297  0.92063100  1
  Si  Si7  1  0.31321340  0.96207125  0.41659367  1
  Si  Si8  1  0.67432571  0.37460956  0.41954574  1
  Sn  Sn0  1  0.50242272  0.01698392  0.36149365  1
  Sn  Sn1  1  0.00801768  0.99332035  0.85851125  1
  Sn  Sn2  1  0.00231443  0.01830643  0.64694614  1
  Sn  Sn3  1  0.50637618  0.99591689  0.64627496  1
  Sn  Sn4  1  0.00692225  0.01705942  0.14552709  1
  Sn  Sn5  1  0.49716150  0.98922847  0.14333262  1
  Sn  Sn6  1  0.32683751  0.33498458  0.98882608  1
  Sn  Sn7  1  0.82641432  0.32103079  0.49167891  1
  Sn  Sn8  1  0.16252871  0.66171321  0.01322584  1
  Sn  Sn9  1  0.67105283  0.67881619  0.01366708  1
  Sn  Sn10  1  0.17026120  0.66445728  0.51677800  1
  Sn  Sn11  1  0.66321909  0.65890837  0.51609336  1
  S  S0  1  0.14531573  0.99789510  0.24899791  1
  S  S1  1  0.63827590  0.99887481  0.25150490  1
  S  S2  1  0.36271672  0.72238193  0.25196225  1
  S  S3  1  0.85692564  0.71623092  0.24290499  1
  S  S4  1  0.99869057  0.29735953  0.24629053  1
  S  S5  1  0.49881378  0.28025657  0.24787330  1
  S  S6  1  0.64532280  0.29339501  0.74921028  1
  S  S7  1  0.99588965  0.71190951  0.74785449  1
  S  S8  1  0.50093729  0.70174757  0.74580595  1
  S  S9  1  0.35878234  -0.00013192  0.74235364  1
  S  S10  1  0.85856389  -0.00062928  0.75019425  1
  S  S11  1  0.49016338  0.33324780  0.58824590  1
  S  S12  1  0.17400602  0.01617911  0.58027007  1
  S  S13  1  0.33445081  0.65103158  0.58385299  1
  S  S14  1  0.83452229  0.63917770  0.58276432  1
  S  S15  1  0.99057750  0.64762398  0.08897744  1
  S  S16  1  0.33393557  0.03014688  0.08344502  1
  S  S17  1  0.83304941  0.01660982  0.08538021  1
  S  S18  1  0.67553612  0.33241321  0.08259587  1
  S  S19  1  0.31542120  0.66100910  0.92168314  1
  S  S20  1  0.01925478  0.36484711  0.91477167  1
  S  S21  1  0.51559006  0.37245173  0.91943053  1
  S  S22  1  0.66534610  0.97018159  0.91957961  1
  S  S23  1  0.81366024  0.96994976  0.42092300  1
  S  S24  1  0.16671008  0.36373894  0.41904984  1
  S  S25  1  0.01480126  0.65722582  0.41808682  1
  S  S26  1  0.52005910  0.67203174  0.41188225  1
  O  O0  1  0.10539157  0.00942334  0.30302094  1
  O  O1  1  0.59503847  0.01408401  0.30376578  1
  O  O2  1  0.41702583  0.81790626  0.30170147  1
  O  O3  1  0.90522638  0.79756786  0.29520442  1
  O  O4  1  0.49471066  0.18471992  0.30119586  1
  O  O5  1  0.99424724  0.20146173  0.29773249  1
  O  O6  1  0.08984798  0.17505012  0.81000816  1
  O  O7  1  0.60594323  0.20224612  0.80356768  1
  O  O8  1  0.49604788  0.78866549  0.79726825  1
  O  O9  1  0.98669647  0.79042160  0.80191929  1
  O  O10  1  0.40774784  0.01483690  0.79434602  1
  O  O11  1  0.90804621  0.00112036  0.80042603  1
  O  O12  1  0.40409078  0.98209070  0.68977888  1
  O  O13  1  0.89516048  0.97798670  0.69413545  1
  O  O14  1  0.08735695  0.19948894  0.69339034  1
  O  O15  1  0.58852249  0.19553930  0.69864192  1
  O  O16  1  0.99857629  0.81072087  0.69538035  1
  O  O17  1  0.50634078  0.80120062  0.69220351  1
  O  O18  1  0.40090309  0.81882204  0.19625216  1
  O  O19  1  0.90373386  0.82043775  0.19038029  1
  O  O20  1  0.00261068  0.20801444  0.19260170  1
  O  O21  1  0.50625414  0.19199312  0.19518818  1
  O  O22  1  0.08822773  0.98103662  0.19834222  1
  O  O23  1  0.58807610  0.98345740  0.19788538  1
  O  O24  1  0.45273546  0.35576982  0.64108272  1
  O  O25  1  0.95701910  0.37201803  0.64373034  1
  O  O26  1  0.22618041  0.10101709  0.63033015  1
  O  O27  1  0.72997441  0.07987658  0.64147267  1
  O  O28  1  0.32562085  0.55196856  0.63554815  1
  O  O29  1  0.81882012  0.53611267  0.63396476  1
  O  O30  1  0.46062349  0.54601209  0.14653175  1
  O  O31  1  0.95326417  0.55205202  0.14295066  1
  O  O32  1  0.32207046  0.10237514  0.13605394  1
  O  O33  1  0.82241840  0.09467425  0.13774559  1
  O  O34  1  0.22972391  0.38438285  0.14270154  1
  O  O35  1  0.72539448  0.35023432  0.13419009  1
  O  O36  1  0.22453466  0.30477121  0.02941865  1
  O  O37  1  0.71080629  0.30157327  0.03036970  1
  O  O38  1  0.42020638  0.52773124  0.03215258  1
  O  O39  1  0.93779748  0.56319936  0.03923335  1
  O  O40  1  0.34898715  0.13789312  0.03198979  1
  O  O41  1  0.84505826  0.11806230  0.03394096  1
  O  O42  1  0.20907184  0.11501588  0.52679480  1
  O  O43  1  0.72093763  0.14211527  0.52747291  1
  O  O44  1  0.34641602  0.57676044  0.53138607  1
  O  O45  1  0.84852435  0.56085701  0.53022200  1
  O  O46  1  0.43988742  0.31330424  0.53701297  1
  O  O47  1  0.92129320  0.31154836  0.52860251  1
  O  O48  1  0.26988099  0.67090250  0.97422450  1
  O  O49  1  0.77325232  0.70257737  0.97681489  1
  O  O50  1  0.07026660  0.44881084  0.96855127  1
  O  O51  1  0.57757144  0.46678164  0.96730600  1
  O  O52  1  0.15671045  0.84959237  0.97935099  1
  O  O53  1  0.65487417  0.86636128  0.97285431  1
  O  O54  1  0.26825378  0.84328432  0.47534158  1
  O  O55  1  0.76711083  0.86438546  0.47203639  1
  O  O56  1  0.15744905  0.44941463  0.47116268  1
  O  O57  1  0.65409968  0.46390875  0.47502651  1
  O  O58  1  0.07625529  0.68343274  0.46500941  1
  O  O59  1  0.57289284  0.69241697  0.46356641  1
  O  O60  1  0.04556976  0.63213221  0.36180857  1
  O  O61  1  0.55909588  0.65605410  0.35835083  1
  O  O62  1  0.25256082  0.88173359  0.36210116  1
  O  O63  1  0.76837678  0.89586979  0.36720779  1
  O  O64  1  0.16831867  0.45235836  0.36611634  1
  O  O65  1  0.69112650  0.47161018  0.35968048  1
  O  O66  1  0.06082218  0.46417469  0.86327676  1
  O  O67  1  0.54728477  0.46171166  0.86403342  1
  O  O68  1  0.19036174  0.89985152  0.86290606  1
  O  O69  1  0.66702304  0.88123431  0.86780433  1
  O  O70  1  0.26990716  0.64593854  0.86887989  1
  O  O71  1  0.74847197  0.61923466  0.86526055  1
  O  O72  1  0.01136881  0.81813507  0.41716174  1
  O  O73  1  0.51507336  0.83346411  0.41060276  1
  O  O74  1  0.40737986  0.97126235  0.41286178  1
  O  O75  1  0.89861607  0.98534836  0.42136476  1
  O  O76  1  0.09212309  0.18651720  0.42004025  1
  O  O77  1  0.58811454  0.18010266  0.41601752  1
  O  O78  1  0.01185831  0.19359132  0.91512159  1
  O  O79  1  0.51138850  0.20431338  0.91832207  1
  O  O80  1  0.08684872  0.98885646  0.91854184  1
  O  O81  1  0.59102400  0.99775571  0.92042969  1
  O  O82  1  0.40058726  0.81524630  0.92280398  1
  O  O83  1  0.90984723  0.84767248  0.90998123  1
  O  O84  1  0.49903825  0.17599549  0.59145038  1
  O  O85  1  0.99272786  0.15859384  0.58333395  1
  O  O86  1  0.08495715  0.98704163  0.58693348  1
  O  O87  1  0.58147834  0.99379324  0.58578828  1
  O  O88  1  0.40964636  0.82928776  0.58863113  1
  O  O89  1  0.91282519  0.81212057  0.58771737  1
  O  O90  1  0.49707929  0.82816947  0.08534898  1
  O  O91  1  0.99822075  0.82162499  0.09204294  1
  O  O92  1  0.41434075  0.01554787  0.08723969  1
  O  O93  1  0.90860420  0.99096427  0.09052290  1
  O  O94  1  0.08267452  0.17158656  0.08608707  1
  O  O95  1  0.58620221  0.18057571  0.08948145  1
  O  O96  1  0.35737655  0.16086353  0.73731484  1
  O  O97  1  0.85942596  0.16391665  0.74961692  1
  O  O98  1  0.23371145  0.30005039  0.75363548  1
  O  O99  1  0.72990056  0.31496467  0.74310751  1
  O  O100  1  0.42581030  0.52991006  0.74264789  1
  O  O101  1  0.92088603  0.53785364  0.74640616  1
  O  O102  1  0.36126976  0.55805960  0.25040847  1
  O  O103  1  0.85167704  0.54756050  0.23907957  1
  O  O104  1  0.42180597  0.29497254  0.24639999  1
  O  O105  1  0.92243850  0.31745446  0.24407697  1
  O  O106  1  0.22989971  0.14665248  0.24276369  1
  O  O107  1  0.72309363  0.15055179  0.24837465  1
  O  O108  1  0.32559033  0.50678343  0.92570555  1
  O  O109  1  0.82613975  0.50355072  0.92464813  1
  O  O110  1  0.43171981  0.35473897  0.93122005  1
  O  O111  1  0.93411966  0.34470214  0.92063457  1
  O  O112  1  0.25995436  0.15976307  0.93053733  1
  O  O113  1  0.74321160  0.13792003  0.92314772  1
  O  O114  1  0.32533087  0.15060544  0.42434262  1
  O  O115  1  0.82355158  0.14390273  0.42534470  1
  O  O116  1  0.24436455  0.35009249  0.42228176  1
  O  O117  1  0.75931615  0.35687998  0.43100926  1
  O  O118  1  0.43416215  0.52555309  0.41848428  1
  O  O119  1  0.92960254  0.50766575  0.42849234  1
  O  O120  1  0.16377525  0.50763157  0.07163896  1
  O  O121  1  0.66697930  0.48726846  0.07764952  1
  O  O122  1  0.07773168  0.67221092  0.08272510  1
  O  O123  1  0.58491702  0.66423372  0.07029242  1
  O  O124  1  0.26146484  0.85412586  0.07580947  1
  O  O125  1  0.75524425  0.84288182  0.08120561  1
  O  O126  1  0.16647348  0.84403671  0.57605065  1
  O  O127  1  0.66335116  0.82129074  0.57116975  1
  O  O128  1  0.25603150  0.66714978  0.58042525  1
  O  O129  1  0.76001969  0.66577754  0.57404271  1
  O  O130  1  0.08301977  0.49892370  0.56905956  1
  O  O131  1  0.57838774  0.48429924  0.58185086  1
  O  O132  1  0.14589708  0.83461553  0.24665177  1
  O  O133  1  0.64195348  0.83978589  0.25329561  1
  O  O134  1  0.27781473  0.70091397  0.25409394  1
  O  O135  1  0.77246985  0.70010031  0.24191241  1
  O  O136  1  0.07507892  0.46976276  0.24499910  1
  O  O137  1  0.57527555  0.45267909  0.24820620  1
  O  O138  1  0.14442714  0.47027568  0.75178226  1
  O  O139  1  0.64540342  0.45733584  0.74701944  1
  O  O140  1  0.07441127  0.70168524  0.74831534  1
  O  O141  1  0.57812608  0.68519434  0.74506870  1
  O  O142  1  0.27402474  0.85048404  0.74199660  1
  O  O143  1  0.77101198  0.85464343  0.75084421  1
loop_
_geom_bond_atom_site_label_1
_geom_bond_atom_site_label_2
_geom_bond_distance
_geom_bond_site_symmetry_2
Na0 O132 2.371782 1_655
Na0 O103 2.401069 1_555
Na0 O105 2.457486 1_555
Na0 O136 2.462137 1_655
Na0 O31 2.596108 1_555
Na0 O60 2.760837 1_655
Na1 O30 2.252233 1_555
Na1 O102 2.341576 1_555
Na1 O133 2.373632 1_555
Na1 O137 2.447996 1_555
Na1 O104 2.509805 1_555
Na2 O138 2.274224 1_555
Na2 O25 2.332037 1_455
Na2 O97 2.375546 1_455
Na2 O140 2.574902 1_555
Na2 O101 2.588666 1_455
Na2 O14 2.879758 1_555
Na3 O96 2.324911 1_555
Na3 O139 2.372068 1_555
Na3 O100 2.397958 1_555
Na3 O141 2.463814 1_555
Na3 O24 2.609960 1_555
Na3 O67 2.841819 1_555
Na4 O109 2.410738 1_555
Na4 O71 2.493569 1_555
Na4 O79 2.603618 1_555
Na4 O113 2.615243 1_555
Na4 O81 2.621325 1_545
Na4 O7 2.770938 1_555
Na4 O37 2.917285 1_556
Na4 O51 2.932485 1_555
Na5 O114 2.423412 1_555
Na5 O76 2.551690 1_555
Na5 O72 2.563120 1_545
Na5 O116 2.579750 1_555
Na5 O42 2.661340 1_555
Na5 O62 2.695253 1_545
Na5 O58 2.885182 1_545
Na5 O0 2.916473 1_555
Na6 O85 2.296482 1_555
Na6 O75 2.486681 1_545
Na6 O89 2.554269 1_545
Na6 O76 2.590412 1_655
Na6 O86 2.668899 1_645
Na6 O72 2.792397 1_645
Na7 O87 2.445692 1_545
Na7 O77 2.483678 1_555
Na7 O84 2.606713 1_555
Na7 O88 2.652487 1_545
Na7 O74 2.652862 1_545
Na7 O73 2.721973 1_545
Na8 O80 2.344062 1_545
Na8 O78 2.529267 1_555
Na8 O94 2.567993 1_556
Na8 O83 2.576738 1_445
Na8 O91 2.731607 1_446
Na8 O93 2.806240 1_446
Na9 O82 2.342006 1_555
Na9 O90 2.413402 1_556
Na9 O81 2.503666 1_555
Na9 O92 2.620739 1_566
Na9 O79 2.727842 1_565
Na9 O95 2.808194 1_566
Na10 O98 2.238604 1_555
Na10 O112 2.436697 1_555
Na10 O108 2.733562 1_555
Na11 O109 2.432727 1_555
Na11 O101 2.595629 1_555
Na11 O111 2.638776 1_555
Na11 O113 2.782606 1_555
Na11 O99 2.887794 1_555
Na11 O97 2.912022 1_555
Na12 O114 2.313756 1_555
Na12 O118 2.597547 1_555
Na12 O116 2.611051 1_555
Na12 O104 2.789323 1_555
Na12 O106 2.909312 1_555
Na12 O102 2.998514 1_555
Na13 O117 2.285335 1_555
Na13 O115 2.526214 1_555
Na13 O119 2.705440 1_555
Na13 O107 2.814592 1_555
Na14 O120 2.329278 1_555
Na14 O124 2.585703 1_555
Na14 O122 2.641088 1_555
Na14 O136 2.659501 1_555
Na14 O134 2.760041 1_555
Na14 O132 2.910071 1_555
Na14 O34 2.976761 1_555
Na15 O125 2.427634 1_555
Na15 O121 2.450937 1_555
Na15 O123 2.504409 1_555
Na15 O135 2.686709 1_555
Na15 O137 2.740147 1_555
Na15 O133 2.904530 1_555
Na16 O138 2.377829 1_555
Na16 O128 2.603535 1_555
Na16 O142 2.613671 1_555
Na16 O140 2.672764 1_555
Na16 O130 2.705298 1_555
Na16 O126 2.829265 1_555
Na17 O127 2.417771 1_555
Na17 O143 2.525640 1_555
Na17 O141 2.594409 1_555
Na17 O129 2.676423 1_555
Na17 O131 2.767914 1_555
Na17 O139 2.886749 1_555
Na17 O27 2.973161 1_565
Ca0 O5 2.243502 1_555
Ca0 O3 2.248022 1_545
Ca0 O75 2.276992 1_545
Ca0 O76 2.295533 1_655
Ca0 O0 2.312357 1_655
Ca0 O72 2.345327 1_645
Ca1 O10 2.205604 1_565
Ca1 O8 2.227438 1_555
Ca1 O82 2.290700 1_555
Ca1 O7 2.302009 1_565
Ca1 O81 2.320265 1_555
Ca1 O79 2.387729 1_565
Ca2 O98 2.127149 1_555
Ca2 O26 2.276339 1_555
Ca2 O28 2.278073 1_555
Ca2 O96 2.323545 1_555
Ca2 O100 2.341556 1_555
Ca2 O24 2.552603 1_555
Ca3 O27 2.168570 1_555
Ca3 O25 2.232406 1_555
Ca3 O29 2.342868 1_555
Ca3 O99 2.373851 1_555
Ca3 O97 2.393595 1_555
Ca3 O101 2.463201 1_555
Ca4 O34 2.147061 1_555
Ca4 O30 2.264223 1_555
Ca4 O32 2.332888 1_555
Ca4 O106 2.377716 1_555
Ca4 O102 2.445855 1_555
Ca4 O104 2.565393 1_555
Ca5 O33 2.249382 1_555
Ca5 O35 2.256982 1_555
Ca5 O105 2.311226 1_555
Ca5 O103 2.315367 1_555
Ca5 O107 2.346154 1_555
Ca5 O31 2.364850 1_555
Ca6 O109 2.150613 1_555
Ca6 O111 2.269204 1_555
Ca6 O39 2.280731 1_556
Ca6 O113 2.324538 1_555
Ca6 O41 2.355704 1_556
Ca6 O37 2.419347 1_556
Ca7 O114 2.177305 1_555
Ca7 O46 2.267352 1_555
Ca7 O44 2.329650 1_555
Ca7 O116 2.353007 1_555
Ca7 O118 2.354019 1_555
Ca7 O42 2.381823 1_555
Ca8 O62 2.077363 1_555
Ca8 O64 2.245947 1_555
Ca8 O134 2.320650 1_555
Ca8 O60 2.369282 1_555
Ca8 O132 2.412641 1_555
Ca8 O136 2.414983 1_555
Ca9 O65 2.092833 1_555
Ca9 O63 2.287446 1_555
Ca9 O61 2.327734 1_555
Ca9 O135 2.355081 1_555
Ca9 O137 2.451039 1_555
Ca9 O133 2.516682 1_555
Ca10 O68 2.151446 1_555
Ca10 O138 2.262331 1_555
Ca10 O66 2.328339 1_555
Ca10 O70 2.329632 1_555
Ca10 O142 2.364196 1_555
Ca10 O140 2.438824 1_555
Ca11 O71 2.083786 1_555
Ca11 O69 2.256333 1_555
Ca11 O143 2.280318 1_555
Ca11 O141 2.388064 1_555
Ca11 O67 2.393160 1_555
Ca11 O139 2.402348 1_555
O0 S0 1.479364 1_545
O1 S1 1.489325 1_545
O1 Sn0 2.159760 1_555
O2 S2 1.491146 1_555
O2 Sn0 2.196815 1_565
O3 S3 1.470480 1_555
O4 S5 1.494092 1_555
O4 Sn0 2.125596 1_555
O5 S4 1.458211 1_555
O6 Si0 1.651182 1_555
O6 Sn1 1.931876 1_545
O7 S6 1.482228 1_555
O8 S8 1.461511 1_555
O9 S7 1.496233 1_555
O9 Sn1 2.136599 1_655
O10 S9 1.472207 1_555
O11 S10 1.474630 1_555
O11 Sn1 2.299913 1_645
O12 S9 1.525572 1_565
O12 Sn3 2.060719 1_555
O13 S10 1.518685 1_565
O13 Sn2 2.097787 1_665
O14 Si0 1.679278 1_555
O14 Sn2 1.932435 1_555
O15 S6 1.528660 1_555
O15 Sn3 2.075485 1_545
O16 S7 1.501290 1_555
O16 Sn2 2.165175 1_665
O17 S8 1.513630 1_555
O17 Sn3 2.063344 1_555
O18 S2 1.520985 1_555
O18 Sn5 2.058876 1_555
O19 S3 1.515885 1_555
O19 Sn4 2.102197 1_665
O20 S4 1.511072 1_455
O20 Sn4 2.083662 1_555
O21 S5 1.507499 1_555
O21 Sn5 2.136581 1_545
O22 S0 1.531657 1_555
O22 Sn4 2.074665 1_565
O23 S1 1.515278 1_555
O23 Sn5 2.110653 1_555
O24 S11 1.466509 1_555
O25 Si1 1.599017 1_555
O26 S12 1.460319 1_555
O27 Si2 1.585702 1_555
O28 S13 1.461350 1_555
O29 S14 1.451203 1_555
O30 Si3 1.606924 1_555
O31 S15 1.481303 1_555
O32 S16 1.454940 1_555
O33 S17 1.470287 1_555
O34 Si4 1.592568 1_555
O35 S18 1.468441 1_555
O36 Si4 1.627733 1_555
O36 Sn6 1.974545 1_554
O37 S18 1.463382 1_555
O38 Si3 1.646824 1_555
O38 Sn6 2.000488 1_554
O39 S15 1.458023 1_555
O40 S16 1.481274 1_555
O40 Sn6 2.255458 1_554
O41 S17 1.457782 1_555
O42 S12 1.476731 1_555
O43 Si2 1.636482 1_555
O43 Sn7 1.967675 1_555
O44 S13 1.462654 1_555
O45 S14 1.498592 1_555
O45 Sn7 2.196534 1_555
O46 S11 1.462110 1_555
O47 Si1 1.662963 1_555
O47 Sn7 1.970585 1_555
O48 S19 1.501951 1_555
O48 Sn8 2.111543 1_556
O49 Si5 1.706016 1_555
O49 Sn9 1.953689 1_556
O50 S20 1.521395 1_555
O50 Sn8 2.097477 1_556
O51 S21 1.514343 1_555
O51 Sn9 2.121028 1_556
O52 Si6 1.679672 1_555
O52 Sn8 1.927221 1_556
O53 S22 1.509895 1_555
O53 Sn9 2.093347 1_556
O54 Si7 1.675570 1_555
O54 Sn10 1.955395 1_555
O55 S23 1.492751 1_555
O55 Sn11 2.132409 1_555
O56 S24 1.495055 1_555
O56 Sn10 2.129153 1_555
O57 Si8 1.659868 1_555
O57 Sn11 1.943477 1_555
O58 S25 1.498481 1_555
O58 Sn10 2.171842 1_555
O59 S26 1.496638 1_555
O59 Sn11 2.191518 1_555
O60 S25 1.484563 1_555
O61 S26 1.474451 1_555
O62 Si7 1.602570 1_555
O63 S23 1.466988 1_555
O64 S24 1.463645 1_555
O65 Si8 1.592999 1_555
O66 S20 1.459474 1_555
O67 S21 1.475636 1_555
O68 Si6 1.583993 1_555
O69 S22 1.459845 1_555
O70 S19 1.453698 1_555
O71 Si5 1.605467 1_555
O72 S25 1.490909 1_555
O73 S26 1.510975 1_555
O73 Sn0 2.124339 1_565
O74 Si7 1.672986 1_555
O74 Sn0 1.962192 1_565
O75 S23 1.479098 1_555
O76 S24 1.496280 1_555
O77 Si8 1.675335 1_555
O77 Sn0 1.985344 1_555
O78 S20 1.489655 1_555
O78 Sn1 2.217240 1_545
O79 S21 1.487596 1_555
O80 Si6 1.659405 1_555
O80 Sn1 2.021786 1_555
O81 S22 1.491567 1_555
O82 S19 1.478371 1_555
O83 Si5 1.660036 1_555
O83 Sn1 1.996027 1_655
O84 S11 1.514432 1_555
O84 Sn3 2.128707 1_545
O85 Si1 1.681953 1_555
O85 Sn2 2.016525 1_655
O86 S12 1.510783 1_565
O86 Sn2 2.167161 1_565
O87 Si2 1.678283 1_565
O87 Sn3 1.963801 1_555
O88 S13 1.510767 1_555
O88 Sn3 2.131366 1_555
O89 S14 1.504970 1_555
O89 Sn2 2.241503 1_665
O90 Si3 1.702109 1_555
O90 Sn5 1.988946 1_555
O91 S15 1.514266 1_555
O91 Sn4 2.107017 1_665
O92 S16 1.534682 1_555
O92 Sn5 2.099637 1_545
O93 S17 1.508225 1_565
O93 Sn4 2.119035 1_665
O94 Si4 1.680948 1_555
O94 Sn4 1.955660 1_555
O95 S18 1.522059 1_555
O95 Sn5 2.090469 1_545
O96 S9 1.476927 1_555
O97 S10 1.483806 1_555
O98 Si0 1.609628 1_555
O99 S6 1.455336 1_555
O100 S8 1.472531 1_555
O101 S7 1.482052 1_555
O102 S2 1.476983 1_555
O103 S3 1.486229 1_555
O104 S5 1.471323 1_555
O105 S4 1.486411 1_555
O106 S0 1.457863 1_545
O107 S1 1.466066 1_545
O108 S19 1.501967 1_555
O108 Sn6 2.149833 1_555
O109 Si5 1.624069 1_555
O110 S21 1.474888 1_555
O110 Sn6 2.258188 1_555
O111 S20 1.469997 1_655
O112 Si6 1.670892 1_545
O112 Sn6 1.982480 1_555
O113 S22 1.472774 1_545
O114 Si7 1.620398 1_545
O115 S23 1.498625 1_545
O115 Sn7 2.210978 1_555
O116 S24 1.479278 1_555
O117 Si8 1.653841 1_555
O117 Sn7 2.000858 1_555
O118 S26 1.465084 1_555
O119 S25 1.479603 1_655
O119 Sn7 2.311136 1_555
O120 Si4 1.667050 1_555
O120 Sn8 1.957937 1_555
O121 S18 1.492076 1_555
O121 Sn9 2.260567 1_555
O122 S15 1.491286 1_455
O122 Sn8 2.264516 1_555
O123 Si3 1.666317 1_555
O123 Sn9 1.995184 1_555
O124 S16 1.487079 1_565
O124 Sn8 2.300030 1_555
O125 S17 1.503867 1_565
O125 Sn9 2.185628 1_555
O126 S12 1.499902 1_565
O126 Sn10 2.162098 1_555
O127 Si2 1.671748 1_565
O127 Sn11 1.952243 1_555
O128 S13 1.506051 1_555
O128 Sn10 2.147930 1_555
O129 S14 1.503982 1_555
O129 Sn11 2.198867 1_555
O130 Si1 1.665509 1_455
O130 Sn10 1.961446 1_555
O131 S11 1.505966 1_555
O131 Sn11 2.182074 1_555
O132 S0 1.486393 1_555
O133 S1 1.477222 1_555
O134 S2 1.455926 1_555
O135 S3 1.467429 1_555
O136 S4 1.482755 1_455
O137 S5 1.483310 1_555
O138 Si0 1.623888 1_555
O139 S6 1.486165 1_555
O140 S7 1.475632 1_455
O141 S8 1.483565 1_555
O142 S9 1.455639 1_565
O143 S10 1.470896 1_565
