# generated using pymatgen
data_Na6Hf2Zn2Si3(SO8)3
_symmetry_space_group_name_H-M   'P 1'
_cell_length_a   9.11425941
_cell_length_b   9.10599468
_cell_length_c   22.59389218
_cell_angle_alpha   89.76971650
_cell_angle_beta   90.53570571
_cell_angle_gamma   119.57168348
_symmetry_Int_Tables_number   1
_chemical_formula_structural   Na6Hf2Zn2Si3(SO8)3
_chemical_formula_sum   'Na18 Hf6 Zn6 Si9 S9 O72'
_cell_volume   1630.83362761
_cell_formula_units_Z   3
loop_
 _symmetry_equiv_pos_site_id
 _symmetry_equiv_pos_as_xyz
  1  'x, y, z'
loop_
 _atom_site_type_symbol
 _atom_site_label
 _atom_site_symmetry_multiplicity
 _atom_site_fract_x
 _atom_site_fract_y
 _atom_site_fract_z
 _atom_site_occupancy
  Na  Na0  1  0.37600684  0.35353230  0.24457003  1
  Na  Na1  1  0.99596674  0.63652518  0.23623318  1
  Na  Na2  1  0.98601854  0.34929485  0.74089807  1
  Na  Na3  1  0.38695364  0.02669973  0.74541819  1
  Na  Na4  1  0.29902048  0.33520062  0.58143280  1
  Na  Na5  1  0.65438539  0.97659237  0.59279588  1
  Na  Na6  1  0.30035411  0.95774998  0.07108029  1
  Na  Na7  1  0.65451722  0.68099013  0.07860158  1
  Na  Na8  1  0.98639431  0.68785701  0.91582829  1
  Na  Na9  1  0.31808011  0.27911042  0.90656849  1
  Na  Na10  1  0.98612219  0.30047143  0.42813348  1
  Na  Na11  1  0.32239255  0.03952350  0.41549868  1
  Na  Na12  1  0.00786438  -0.00101300  0.50299484  1
  Na  Na13  1  0.00444808  0.00919188  0.99002114  1
  Na  Na14  1  0.65077549  0.31575378  0.82168440  1
  Na  Na15  1  0.64555835  0.32146526  0.32806789  1
  Na  Na16  1  0.32096187  0.65524079  0.15450672  1
  Na  Na17  1  0.32364849  0.66587100  0.65955562  1
  Hf  Hf0  1  0.00374397  0.01183106  0.64883571  1
  Hf  Hf1  1  0.01485773  0.00171923  0.14457067  1
  Hf  Hf2  1  0.65608923  0.32616594  0.98299795  1
  Hf  Hf3  1  0.65420765  0.33162488  0.48619738  1
  Hf  Hf4  1  0.34211354  0.67134528  0.31540122  1
  Hf  Hf5  1  0.35114009  0.68132549  0.81103113  1
  Zn  Zn0  1  0.03243210  0.02302751  0.34802005  1
  Zn  Zn1  1  0.02164717  0.01603725  0.84024509  1
  Zn  Zn2  1  0.65402164  0.30403923  0.68277971  1
  Zn  Zn3  1  0.64935198  0.32864024  0.17567634  1
  Zn  Zn4  1  0.29803195  0.65433827  0.01997780  1
  Zn  Zn5  1  0.30304990  0.64435187  0.52322936  1
  Si  Si0  1  0.30846693  0.00411856  0.25143750  1
  Si  Si1  1  0.30842722  0.30366282  0.75163431  1
  Si  Si2  1  0.71451153  0.00025587  0.75226772  1
  Si  Si3  1  0.95698387  0.33429710  0.58602216  1
  Si  Si4  1  0.36137667  0.02121876  0.58351659  1
  Si  Si5  1  0.95421640  0.61829242  0.08819268  1
  Si  Si6  1  0.36887233  0.34408575  0.08473718  1
  Si  Si7  1  0.32950755  0.95940249  0.91935924  1
  Si  Si8  1  0.33503924  0.37370867  0.41805901  1
  S  S0  1  0.71266527  0.71981102  0.25361544  1
  S  S1  1  0.99882001  0.29358048  0.25348238  1
  S  S2  1  0.99931764  0.70570855  0.75334042  1
  S  S3  1  0.67237139  0.62869925  0.58539225  1
  S  S4  1  0.67111880  0.04267471  0.08562827  1
  S  S5  1  0.62813223  0.66652185  0.92024710  1
  S  S6  1  0.03688604  0.37254546  0.91742593  1
  S  S7  1  0.63264982  0.96215995  0.41788646  1
  S  S8  1  0.03657487  0.66618514  0.41436595  1
  O  O0  1  0.22754023  0.03220942  0.31082136  1
  O  O1  1  0.81359268  0.81119244  0.30401330  1
  O  O2  1  0.98094632  0.20080136  0.30835408  1
  O  O3  1  0.23837806  0.19094528  0.81130958  1
  O  O4  1  0.98436884  0.77910656  0.80907751  1
  O  O5  1  0.82900721  0.01689374  0.80837809  1
  O  O6  1  0.79388940  0.97081144  0.69005474  1
  O  O7  1  0.17347118  0.20399574  0.69475610  1
  O  O8  1  0.02701941  0.82038314  0.70227670  1
  O  O9  1  0.78340947  0.81333318  0.19669194  1
  O  O10  1  0.02051163  0.20495553  0.20162278  1
  O  O11  1  0.17368655  0.97140950  0.19486831  1
  O  O12  1  0.86744637  0.35435774  0.64322090  1
  O  O13  1  0.47368372  0.10059728  0.64209064  1
  O  O14  1  0.64963059  0.52451724  0.63661403  1
  O  O15  1  0.86734194  0.51495517  0.14793411  1
  O  O16  1  0.64587867  0.12005073  0.13813274  1
  O  O17  1  0.47319434  0.37400268  0.14627384  1
  O  O18  1  0.46412557  0.29993994  0.02978456  1
  O  O19  1  0.83596377  0.52830233  0.02870295  1
  O  O20  1  0.69519247  0.14758592  0.03197453  1
  O  O21  1  0.45705840  0.15868253  0.52561468  1
  O  O22  1  0.68978633  0.54327805  0.52999065  1
  O  O23  1  0.84441158  0.31228068  0.52346024  1
  O  O24  1  0.55137786  0.68265295  0.97404708  1
  O  O25  1  0.14318658  0.45097912  0.96956826  1
  O  O26  1  0.30679777  0.84949938  0.97873427  1
  O  O27  1  0.55850555  0.87001397  0.47121331  1
  O  O28  1  0.30784273  0.46551147  0.47406273  1
  O  O29  1  0.14475889  0.69646667  0.46644809  1
  O  O30  1  0.12507154  0.64427847  0.36054787  1
  O  O31  1  0.51543899  0.87353801  0.36505789  1
  O  O32  1  0.35236245  0.48457548  0.35682673  1
  O  O33  1  0.11538485  0.47773343  0.86353750  1
  O  O34  1  0.34760538  0.86006976  0.86107194  1
  O  O35  1  0.51527564  0.63864703  0.86771407  1
  O  O36  1  0.01022243  0.80960127  0.40678085  1
  O  O37  1  0.80200267  0.98889962  0.40737976  1
  O  O38  1  0.16476373  0.18382354  0.41529647  1
  O  O39  1  0.01297901  0.20358071  0.91279691  1
  O  O40  1  0.16126408  0.98160457  0.91448724  1
  O  O41  1  0.79841679  0.80457047  0.91291194  1
  O  O42  1  0.96219323  0.15101735  0.58621378  1
  O  O43  1  0.17700507  0.01528875  0.58710031  1
  O  O44  1  0.82789000  0.79648732  0.58663793  1
  O  O45  1  0.95723220  0.80802178  0.09069217  1
  O  O46  1  0.82647287  0.02765098  0.09094837  1
  O  O47  1  0.18267457  0.16453321  0.08900534  1
  O  O48  1  0.69199867  0.16658913  0.74973748  1
  O  O49  1  0.49196954  0.32642733  0.74064633  1
  O  O50  1  0.85925894  0.53765110  0.74596399  1
  O  O51  1  0.69395566  0.54840937  0.25161149  1
  O  O52  1  0.85925535  0.32767671  0.24755860  1
  O  O53  1  0.49099728  0.17189093  0.24275991  1
  O  O54  1  0.63663052  0.50149829  0.92165663  1
  O  O55  1  0.87001782  0.36906689  0.92334830  1
  O  O56  1  0.50014692  0.15192189  0.92282151  1
  O  O57  1  0.64182684  0.13529867  0.41771192  1
  O  O58  1  0.50465093  0.34812539  0.41930228  1
  O  O59  1  0.87362036  0.50285833  0.41759187  1
  O  O60  1  0.35950077  0.51403335  0.07324862  1
  O  O61  1  0.14982071  0.66769430  0.08474347  1
  O  O62  1  0.52707970  0.87328475  0.07878326  1
  O  O63  1  0.36089472  0.84692927  0.57070041  1
  O  O64  1  0.52524245  0.65237799  0.57764526  1
  O  O65  1  0.15280154  0.48193382  0.58352505  1
  O  O66  1  0.30558651  0.81911132  0.25556613  1
  O  O67  1  0.53323128  0.69346546  0.25630188  1
  O  O68  1  0.16371727  0.46559258  0.25508634  1
  O  O69  1  0.29582894  0.47874889  0.75865850  1
  O  O70  1  0.16188435  0.69451222  0.75529474  1
  O  O71  1  0.51712978  0.83453672  0.75517427  1
loop_
_geom_bond_atom_site_label_1
_geom_bond_atom_site_label_2
_geom_bond_distance
_geom_bond_site_symmetry_2
Na0 O53 2.355471 1_555
Na0 O17 2.371124 1_555
Na0 O51 2.547536 1_555
Na0 O68 2.607816 1_555
Na0 O67 2.706795 1_555
Na0 O32 2.862100 1_555
Na0 O0 2.954267 1_555
Na0 O10 2.982469 1_555
Na1 O15 2.296302 1_555
Na1 O52 2.463505 1_555
Na1 O51 2.485367 1_555
Na1 O66 2.504071 1_655
Na1 O68 2.696882 1_655
Na1 O11 2.815382 1_655
Na2 O48 2.365551 1_555
Na2 O12 2.458502 1_555
Na2 O69 2.494206 1_655
Na2 O50 2.499917 1_555
Na2 O70 2.753551 1_655
Na2 O7 2.834067 1_655
Na3 O49 2.407912 1_555
Na3 O48 2.421221 1_555
Na3 O13 2.454537 1_555
Na3 O71 2.561128 1_545
Na3 O70 2.699325 1_545
Na3 O3 2.888181 1_555
Na3 O34 2.950862 1_545
Na3 O8 3.018823 1_545
Na4 O65 2.307120 1_555
Na4 O43 2.557625 1_555
Na4 O64 2.593039 1_555
Na4 O42 2.678022 1_455
Na4 O28 2.680647 1_555
Na4 O7 2.823711 1_555
Na4 O21 2.929910 1_555
Na4 O14 3.040270 1_555
Na5 O63 2.379299 1_555
Na5 O42 2.454212 1_565
Na5 O6 2.541874 1_555
Na5 O64 2.605639 1_555
Na5 O13 2.666087 1_565
Na5 O44 2.788474 1_555
Na5 O27 2.896743 1_555
Na6 O61 2.319150 1_555
Na6 O26 2.324731 1_554
Na6 O62 2.540271 1_555
Na6 O47 2.620615 1_565
Na6 O45 2.765472 1_455
Na6 O18 2.867026 1_565
Na7 O60 2.348715 1_555
Na7 O45 2.421417 1_555
Na7 O62 2.534323 1_555
Na7 O24 2.537039 1_554
Na7 O46 2.759451 1_565
Na7 O19 2.873332 1_555
Na7 O17 2.887283 1_555
Na7 O9 2.919095 1_555
Na8 O40 2.342731 1_655
Na8 O41 2.421516 1_555
Na8 O4 2.550745 1_555
Na8 O55 2.557548 1_555
Na8 O54 2.779558 1_555
Na8 O26 2.900179 1_655
Na8 O19 2.926446 1_556
Na8 O33 2.950163 1_655
Na9 O3 2.283313 1_555
Na9 O40 2.364970 1_545
Na9 O56 2.472242 1_555
Na9 O39 2.518797 1_555
Na9 O54 2.613504 1_555
Na10 O38 2.362559 1_655
Na10 O59 2.522220 1_555
Na10 O37 2.526290 1_545
Na10 O23 2.551391 1_555
Na10 O57 2.737737 1_555
Na10 O28 2.745828 1_655
Na10 O2 2.850442 1_555
Na11 O38 2.377759 1_555
Na11 O58 2.460776 1_555
Na11 O0 2.500312 1_555
Na11 O36 2.575002 1_545
Na11 O57 2.594389 1_555
Na11 O21 2.742956 1_555
Na12 O43 2.393990 1_555
Na12 O42 2.495886 1_455
Na12 O38 2.540571 1_555
Na12 O44 2.589751 1_445
Na12 O36 2.787064 1_545
Na12 O37 2.819842 1_445
Na13 O40 2.328484 1_545
Na13 O39 2.454687 1_555
Na13 O41 2.558260 1_445
Na13 O47 2.707543 1_556
Na13 O45 2.814459 1_446
Na13 O46 2.863707 1_456
Na14 O48 2.271884 1_555
Na14 O49 2.354721 1_555
Na14 O50 2.619867 1_555
Na14 O56 2.709558 1_555
Na14 O54 2.868937 1_555
Na14 O55 2.910393 1_555
Na15 O53 2.372999 1_555
Na15 O58 2.513694 1_555
Na15 O51 2.556384 1_555
Na15 O57 2.625648 1_555
Na15 O52 2.657482 1_555
Na15 O59 2.774828 1_555
Na16 O61 2.248905 1_555
Na16 O60 2.371548 1_555
Na16 O62 2.598029 1_555
Na16 O66 2.774825 1_555
Na16 O68 2.790510 1_555
Na16 O67 2.900424 1_555
Na17 O65 2.362173 1_555
Na17 O63 2.509504 1_555
Na17 O64 2.665388 1_555
Na17 O70 2.713770 1_555
Na17 O71 2.723618 1_555
Na17 O69 2.744968 1_555
Hf0 O7 1.960673 1_555
Hf0 O6 1.997622 1_445
Hf0 O42 2.049629 1_455
Hf0 O43 2.105242 1_555
Hf0 O8 2.210296 1_545
Hf0 O44 2.294959 1_445
Hf1 O11 1.955572 1_545
Hf1 O47 1.973916 1_555
Hf1 O45 1.989899 1_445
Hf1 O46 2.197865 1_455
Hf1 O10 2.238980 1_555
Hf1 O9 2.288650 1_445
Hf2 O18 1.963605 1_556
Hf2 O56 2.035069 1_555
Hf2 O19 2.036481 1_556
Hf2 O20 2.132152 1_556
Hf2 O54 2.181383 1_555
Hf2 O55 2.250281 1_555
Hf3 O21 1.930689 1_555
Hf3 O23 2.004500 1_555
Hf3 O22 2.047238 1_555
Hf3 O58 2.080098 1_555
Hf3 O57 2.328717 1_555
Hf3 O59 2.407059 1_555
Hf4 O32 1.979796 1_555
Hf4 O66 2.041597 1_555
Hf4 O31 2.063212 1_555
Hf4 O67 2.133725 1_555
Hf4 O30 2.137495 1_555
Hf4 O68 2.232348 1_555
Hf5 O71 1.940663 1_555
Hf5 O34 1.998947 1_555
Hf5 O69 2.036085 1_555
Hf5 O35 2.136152 1_555
Hf5 O70 2.176748 1_555
Hf5 O33 2.357863 1_555
O0 Si0 1.617759 1_555
O0 Zn0 1.938100 1_555
O1 S0 1.437954 1_555
O1 Zn0 2.206491 1_665
O2 S1 1.461791 1_555
O2 Zn0 2.091454 1_655
O3 Si1 1.623945 1_555
O3 Zn1 1.943339 1_555
O4 S2 1.466631 1_555
O4 Zn1 2.133145 1_665
O5 Si2 1.593702 1_555
O5 Zn1 1.894999 1_655
O6 Si2 1.668715 1_565
O7 Si1 1.692954 1_555
O8 S2 1.490228 1_455
O9 S0 1.503271 1_555
O10 S1 1.494216 1_455
O11 Si0 1.686383 1_565
O12 Si3 1.593186 1_555
O12 Zn2 1.985479 1_555
O13 Si4 1.604285 1_555
O13 Zn2 1.989639 1_555
O14 S3 1.443565 1_555
O14 Zn2 2.276405 1_555
O15 Si5 1.615150 1_555
O15 Zn3 1.976461 1_555
O16 S4 1.458913 1_555
O16 Zn3 2.069159 1_555
O17 Si6 1.622963 1_555
O17 Zn3 1.955037 1_555
O18 Si6 1.680920 1_555
O19 Si5 1.658243 1_555
O20 S4 1.489663 1_555
O21 Si4 1.723241 1_555
O22 S3 1.526593 1_555
O23 Si3 1.692057 1_555
O24 S5 1.451649 1_555
O24 Zn4 2.435200 1_556
O25 S6 1.462574 1_555
O25 Zn4 2.031125 1_556
O26 Si7 1.622960 1_555
O26 Zn4 1.969996 1_556
O27 S7 1.435215 1_555
O27 Zn5 2.516772 1_555
O28 Si8 1.606315 1_555
O28 Zn5 1.993407 1_555
O29 S8 1.464763 1_555
O29 Zn5 2.142130 1_555
O30 S8 1.532327 1_555
O31 S7 1.533020 1_555
O32 Si8 1.671424 1_555
O33 S6 1.497424 1_555
O34 Si7 1.655474 1_555
O35 S5 1.501046 1_555
O36 S8 1.448993 1_555
O36 Zn0 2.275216 1_565
O37 S7 1.460665 1_555
O37 Zn0 2.389819 1_665
O38 Si8 1.659095 1_555
O38 Zn0 2.037066 1_555
O39 S6 1.447636 1_555
O39 Zn1 2.401641 1_555
O40 Si7 1.645298 1_555
O40 Zn1 2.209294 1_565
O41 S5 1.447034 1_555
O42 Si3 1.692867 1_555
O43 Si4 1.657166 1_555
O44 S3 1.485382 1_555
O45 Si5 1.715426 1_555
O46 S4 1.491953 1_555
O47 Si6 1.680964 1_555
O48 Si2 1.626441 1_555
O48 Zn2 2.092278 1_555
O49 Si1 1.602535 1_555
O49 Zn2 2.065884 1_555
O50 S2 1.438445 1_555
O50 Zn2 2.471683 1_555
O51 S0 1.484889 1_555
O51 Zn3 2.514999 1_555
O52 S1 1.455564 1_555
O52 Zn3 2.501227 1_555
O53 Si0 1.623318 1_555
O53 Zn3 2.099493 1_555
O54 S5 1.542590 1_555
O55 S6 1.512682 1_655
O56 Si7 1.675095 1_545
O57 S7 1.537035 1_545
O58 Si8 1.673145 1_555
O59 S8 1.498003 1_655
O60 Si6 1.611330 1_555
O60 Zn4 2.018993 1_555
O61 Si5 1.611678 1_455
O61 Zn4 2.044840 1_555
O62 S4 1.458087 1_565
O62 Zn4 2.441238 1_555
O63 Si4 1.612290 1_565
O63 Zn5 1.968895 1_555
O64 S3 1.468341 1_555
O64 Zn5 2.329404 1_555
O65 Si3 1.621376 1_455
O65 Zn5 1.984488 1_555
O66 Si0 1.674111 1_565
O67 S0 1.533065 1_555
O68 S1 1.545768 1_455
O69 Si1 1.662328 1_555
O70 S2 1.534780 1_455
O71 Si2 1.685160 1_565
