# generated using pymatgen
data_Na3ZrAlSi2SO12
_symmetry_space_group_name_H-M   'P 1'
_cell_length_a   9.00468415
_cell_length_b   9.00468384
_cell_length_c   22.31597316
_cell_angle_alpha   91.31423894
_cell_angle_beta   88.68576100
_cell_angle_gamma   120.32197053
_symmetry_Int_Tables_number   1
_chemical_formula_structural   Na3ZrAlSi2SO12
_chemical_formula_sum   'Na18 Zr6 Al6 Si12 S6 O72'
_cell_volume   1561.39708413
_cell_formula_units_Z   6
loop_
 _symmetry_equiv_pos_site_id
 _symmetry_equiv_pos_as_xyz
  1  'x, y, z'
loop_
 _atom_site_type_symbol
 _atom_site_label
 _atom_site_symmetry_multiplicity
 _atom_site_fract_x
 _atom_site_fract_y
 _atom_site_fract_z
 _atom_site_occupancy
  Na  Na0  1  0.62549670  0.00010401  0.24244823  1
  Na  Na1  1  0.00294207  0.64759383  0.24518113  1
  Na  Na2  1  -0.00010401  0.37450330  0.74244823  1
  Na  Na3  1  0.35240617  0.99705793  0.74518113  1
  Na  Na4  1  0.29216370  0.33343701  0.57578123  1
  Na  Na5  1  0.66960907  0.98092683  0.57851413  1
  Na  Na6  1  0.66656299  0.70783630  0.07578123  1
  Na  Na7  1  0.01907317  0.33039093  0.07851413  1
  Na  Na8  1  0.95882970  0.66677101  0.90911523  1
  Na  Na9  1  0.33627507  0.31426083  0.91184813  1
  Na  Na10  1  0.33322899  0.04117030  0.40911523  1
  Na  Na11  1  0.68573917  0.66372493  0.41184813  1
  Na  Na12  1  0.00504241  0.02495280  0.49423102  1
  Na  Na13  1  0.97504720  0.99495759  0.99423102  1
  Na  Na14  1  0.67170941  0.35828580  0.82756402  1
  Na  Na15  1  0.64171420  0.32829059  0.32756402  1
  Na  Na16  1  0.33837541  0.69161980  0.16089802  1
  Na  Na17  1  0.30838020  0.66162459  0.66089802  1
  Zr  Zr0  1  0.01500376  0.00138102  0.64670976  1
  Zr  Zr1  1  0.99861898  0.98499624  0.14670976  1
  Zr  Zr2  1  0.68167076  0.33471402  0.98004276  1
  Zr  Zr3  1  0.66528598  0.31832924  0.48004276  1
  Zr  Zr4  1  0.34833676  0.66804802  0.31337676  1
  Zr  Zr5  1  0.33195198  0.65166324  0.81337676  1
  Al  Al0  1  0.00388205  0.00874768  0.35203680  1
  Al  Al1  1  0.99125232  0.99611795  0.85203680  1
  Al  Al2  1  0.67054905  0.34208068  0.68536980  1
  Al  Al3  1  0.65791932  0.32945095  0.18536980  1
  Al  Al4  1  0.33721505  0.67541468  0.01870380  1
  Al  Al5  1  0.32458532  0.66278495  0.51870380  1
  Si  Si0  1  0.29732741  0.01277088  0.25399923  1
  Si  Si1  1  0.71439143  0.69827532  0.25180730  1
  Si  Si2  1  0.30172468  0.28560857  0.75180730  1
  Si  Si3  1  0.98722912  0.70267259  0.75399923  1
  Si  Si4  1  0.96399441  0.34610388  0.58733223  1
  Si  Si5  1  0.38105843  0.03160832  0.58514030  1
  Si  Si6  1  0.96839168  0.61894157  0.08514030  1
  Si  Si7  1  0.65389612  0.03600559  0.08733223  1
  Si  Si8  1  0.63066041  0.67943788  0.92066623  1
  Si  Si9  1  0.04772443  0.36494232  0.91847430  1
  Si  Si10  1  0.63505768  0.95227557  0.41847430  1
  Si  Si11  1  0.32056212  0.36933959  0.42066623  1
  S  S0  1  0.99591035  0.28723799  0.25190501  1
  S  S1  1  0.71276201  0.00408965  0.75190501  1
  S  S2  1  0.66257735  0.62057099  0.58523801  1
  S  S3  1  0.37942901  0.33742265  0.08523801  1
  S  S4  1  0.32924335  0.95390499  0.91857201  1
  S  S5  1  0.04609501  0.67075665  0.41857201  1
  O  O0  1  0.19771940  0.02779257  0.31391528  1
  O  O1  1  0.83831270  0.79903967  0.30921828  1
  O  O2  1  0.97733544  0.17662256  0.30288221  1
  O  O3  1  0.20096033  0.16168730  0.80921828  1
  O  O4  1  0.97220743  0.80228060  0.81391528  1
  O  O5  1  0.82337744  0.02266456  0.80288221  1
  O  O6  1  0.78071859  0.97571118  0.69473379  1
  O  O7  1  0.17910494  0.20884836  0.69222282  1
  O  O8  1  0.02110996  0.82507704  0.69613727  1
  O  O9  1  0.79115164  0.82089506  0.19222282  1
  O  O10  1  0.02428882  0.21928141  0.19473379  1
  O  O11  1  0.17492296  0.97889004  0.19613727  1
  O  O12  1  0.86438640  0.36112557  0.64724828  1
  O  O13  1  0.50497970  0.13237267  0.64255128  1
  O  O14  1  0.64400244  0.50995556  0.63621521  1
  O  O15  1  0.86762733  0.49502030  0.14255128  1
  O  O16  1  0.63887443  0.13561360  0.14724828  1
  O  O17  1  0.49004444  0.35599756  0.13621521  1
  O  O18  1  0.44738559  0.30904418  0.02806679  1
  O  O19  1  0.84577194  0.54218136  0.02555582  1
  O  O20  1  0.68777696  0.15841004  0.02947027  1
  O  O21  1  0.45781864  0.15422806  0.52555582  1
  O  O22  1  0.69095582  0.55261441  0.52806679  1
  O  O23  1  0.84158996  0.31222304  0.52947027  1
  O  O24  1  0.53105240  0.69445957  0.98058228  1
  O  O25  1  0.17164570  0.46570667  0.97588528  1
  O  O26  1  0.31066844  0.84328956  0.96954921  1
  O  O27  1  0.53429333  0.82835430  0.47588528  1
  O  O28  1  0.30554043  0.46894760  0.48058228  1
  O  O29  1  0.15671044  0.68933156  0.46954921  1
  O  O30  1  0.11405159  0.64237818  0.36140079  1
  O  O31  1  0.51243794  0.87551536  0.35888982  1
  O  O32  1  0.35444296  0.49174404  0.36280427  1
  O  O33  1  0.12448464  0.48756206  0.85888982  1
  O  O34  1  0.35762182  0.88594841  0.86140079  1
  O  O35  1  0.50825596  0.64555704  0.86280427  1
  O  O36  1  0.03496950  0.82989905  0.41706288  1
  O  O37  1  0.82076278  0.96342071  0.40760618  1
  O  O38  1  0.15761358  0.17431193  0.41135231  1
  O  O39  1  0.03657929  0.17923722  0.90760618  1
  O  O40  1  0.17010095  0.96503050  0.91706288  1
  O  O41  1  0.82568807  0.84238642  0.91135231  1
  O  O42  1  0.97386574  0.16526334  0.58889223  1
  O  O43  1  0.18984863  0.01437315  0.58688813  1
  O  O44  1  0.80899947  0.79893380  0.59077015  1
  O  O45  1  0.98562685  0.81015137  0.08688813  1
  O  O46  1  0.83473666  0.02613426  0.08889223  1
  O  O47  1  0.20106620  0.19100053  0.09077015  1
  O  O48  1  0.70163650  0.16323205  0.75039588  1
  O  O49  1  0.48742978  0.29675371  0.74093918  1
  O  O50  1  0.82428058  0.50764493  0.74468531  1
  O  O51  1  0.70324629  0.51257022  0.24093918  1
  O  O52  1  0.83676795  0.29836350  0.25039588  1
  O  O53  1  0.49235507  0.17571942  0.24468531  1
  O  O54  1  0.64053274  0.49859634  0.92222523  1
  O  O55  1  0.85651563  0.34770615  0.92022113  1
  O  O56  1  0.47566647  0.13226680  0.92410315  1
  O  O57  1  0.65229385  0.14348437  0.42022113  1
  O  O58  1  0.50140366  0.35946726  0.42222523  1
  O  O59  1  0.86773320  0.52433353  0.42410315  1
  O  O60  1  0.36830250  0.49656605  0.08372988  1
  O  O61  1  0.15409578  0.63008771  0.07427318  1
  O  O62  1  0.49094658  0.84097893  0.07801931  1
  O  O63  1  0.36991229  0.84590422  0.57427318  1
  O  O64  1  0.50343395  0.63169750  0.58372988  1
  O  O65  1  0.15902107  0.50905342  0.57801931  1
  O  O66  1  0.30719874  0.83193034  0.25555923  1
  O  O67  1  0.52318163  0.68104015  0.25355513  1
  O  O68  1  0.14233247  0.46560080  0.25743715  1
  O  O69  1  0.31895985  0.47681837  0.75355513  1
  O  O70  1  0.16806966  0.69280126  0.75555923  1
  O  O71  1  0.53439920  0.85766753  0.75743715  1
loop_
_geom_bond_atom_site_label_1
_geom_bond_atom_site_label_2
_geom_bond_distance
_geom_bond_site_symmetry_2
Na0 O52 2.387135 1_555
Na0 O53 2.418367 1_555
Na0 O16 2.444508 1_555
Na0 O66 2.488594 1_545
Na0 O67 2.552303 1_545
Na0 O31 2.811839 1_545
Na0 O9 2.890726 1_545
Na1 O51 2.337399 1_455
Na1 O66 2.394712 1_555
Na1 O68 2.539514 1_555
Na1 O15 2.628875 1_455
Na1 O52 2.720163 1_455
Na1 O30 2.811016 1_555
Na1 O11 2.811213 1_555
Na1 O1 2.820326 1_455
Na2 O48 2.387135 1_455
Na2 O50 2.418367 1_455
Na2 O12 2.444508 1_455
Na2 O70 2.488594 1_555
Na2 O69 2.552303 1_555
Na2 O33 2.811839 1_555
Na2 O7 2.890726 1_555
Na3 O49 2.337399 1_565
Na3 O70 2.394712 1_555
Na3 O71 2.539514 1_555
Na3 O13 2.628875 1_565
Na3 O48 2.720163 1_565
Na3 O34 2.811016 1_555
Na3 O8 2.811213 1_555
Na3 O3 2.820326 1_565
Na4 O64 2.387141 1_555
Na4 O65 2.418383 1_555
Na4 O28 2.444495 1_555
Na4 O42 2.488594 1_455
Na4 O43 2.552303 1_555
Na4 O7 2.811839 1_555
Na4 O21 2.890726 1_555
Na5 O63 2.337406 1_555
Na5 O42 2.394712 1_565
Na5 O44 2.539514 1_555
Na5 O27 2.628856 1_555
Na5 O64 2.720156 1_555
Na5 O6 2.811016 1_555
Na5 O23 2.811213 1_565
Na5 O13 2.820326 1_565
Na6 O60 2.387141 1_555
Na6 O62 2.418383 1_555
Na6 O24 2.444495 1_554
Na6 O46 2.488594 1_565
Na6 O45 2.552303 1_555
Na6 O9 2.811839 1_555
Na6 O19 2.890726 1_555
Na7 O61 2.337406 1_555
Na7 O46 2.394712 1_455
Na7 O47 2.539514 1_555
Na7 O25 2.628856 1_554
Na7 O60 2.720156 1_555
Na7 O10 2.811016 1_555
Na7 O20 2.811213 1_455
Na7 O15 2.820326 1_455
Na8 O40 2.387135 1_655
Na8 O41 2.418367 1_555
Na8 O4 2.444508 1_555
Na8 O54 2.488584 1_555
Na8 O55 2.552311 1_555
Na8 O19 2.811819 1_556
Na8 O33 2.890726 1_655
Na9 O39 2.337399 1_555
Na9 O54 2.394715 1_555
Na9 O56 2.539526 1_555
Na9 O3 2.628875 1_555
Na9 O40 2.720163 1_545
Na9 O18 2.811000 1_556
Na9 O35 2.811213 1_555
Na9 O25 2.820326 1_555
Na10 O36 2.387135 1_545
Na10 O38 2.418367 1_555
Na10 O0 2.444508 1_555
Na10 O58 2.488584 1_555
Na10 O57 2.552311 1_555
Na10 O21 2.811819 1_555
Na10 O31 2.890726 1_545
Na11 O37 2.337399 1_555
Na11 O58 2.394715 1_555
Na11 O59 2.539526 1_555
Na11 O1 2.628875 1_555
Na11 O36 2.720163 1_655
Na11 O22 2.811000 1_555
Na11 O32 2.811213 1_555
Na11 O27 2.820326 1_555
Na12 O38 2.291046 1_555
Na12 O37 2.442773 1_445
Na12 O42 2.519148 1_455
Na12 O36 2.537914 1_545
Na12 O43 2.716772 1_555
Na12 O44 2.880748 1_445
Na13 O41 2.291046 1_555
Na13 O39 2.442773 1_665
Na13 O46 2.519148 1_566
Na13 O40 2.537914 1_655
Na13 O45 2.716772 1_556
Na13 O47 2.880748 1_666
Na14 O50 2.291046 1_555
Na14 O49 2.442773 1_555
Na14 O54 2.519148 1_555
Na14 O48 2.537914 1_555
Na14 O55 2.716772 1_555
Na14 O56 2.880748 1_555
Na15 O53 2.291046 1_555
Na15 O51 2.442773 1_555
Na15 O58 2.519148 1_555
Na15 O52 2.537914 1_555
Na15 O57 2.716772 1_555
Na15 O59 2.880748 1_555
Na16 O62 2.291046 1_555
Na16 O61 2.442773 1_555
Na16 O66 2.519148 1_555
Na16 O60 2.537914 1_555
Na16 O67 2.716772 1_555
Na16 O68 2.880748 1_555
Na17 O65 2.291046 1_555
Na17 O63 2.442773 1_555
Na17 O70 2.519148 1_555
Na17 O64 2.537914 1_555
Na17 O69 2.716772 1_555
Na17 O71 2.880748 1_555
Al0 O0 1.853657 1_555
Al0 O37 1.916568 1_445
Al0 O38 1.949554 1_555
Al0 O1 1.959997 1_445
Al0 O2 1.999619 1_455
Al0 O36 2.314905 1_545
Al1 O4 1.853657 1_555
Al1 O39 1.916568 1_665
Al1 O41 1.949554 1_555
Al1 O3 1.959997 1_665
Al1 O5 1.999619 1_565
Al1 O40 2.314905 1_655
Al2 O12 1.853657 1_555
Al2 O49 1.916568 1_555
Al2 O50 1.949554 1_555
Al2 O13 1.959997 1_555
Al2 O14 1.999619 1_555
Al2 O48 2.314905 1_555
Al3 O16 1.853657 1_555
Al3 O51 1.916568 1_555
Al3 O53 1.949554 1_555
Al3 O15 1.959997 1_555
Al3 O17 1.999619 1_555
Al3 O52 2.314905 1_555
Al4 O24 1.853657 1_554
Al4 O61 1.916568 1_555
Al4 O62 1.949554 1_555
Al4 O25 1.959997 1_554
Al4 O26 1.999619 1_554
Al4 O60 2.314905 1_555
Al5 O28 1.853657 1_555
Al5 O63 1.916568 1_555
Al5 O65 1.949554 1_555
Al5 O27 1.959997 1_555
Al5 O29 1.999619 1_555
Al5 O64 2.314905 1_555
O0 Si0 1.633948 1_555
O1 Si1 1.643110 1_555
O2 S0 1.479622 1_555
O3 Si2 1.643110 1_555
O4 Si3 1.633948 1_555
O5 S1 1.479622 1_555
O6 S1 1.474661 1_565
O6 Zr0 2.251205 1_665
O7 Si2 1.649107 1_555
O7 Zr0 1.974746 1_555
O8 Si3 1.637970 1_455
O8 Zr0 1.977696 1_565
O9 Si1 1.649107 1_555
O9 Zr1 1.974746 1_555
O10 S0 1.474661 1_455
O10 Zr1 2.251205 1_445
O11 Si0 1.637970 1_565
O11 Zr1 1.977696 1_455
O12 Si4 1.633948 1_555
O13 Si5 1.643110 1_555
O14 S2 1.479622 1_555
O15 Si6 1.643110 1_555
O16 Si7 1.633948 1_555
O17 S3 1.479622 1_555
O18 S3 1.474661 1_555
O18 Zr2 2.251205 1_554
O19 Si6 1.649107 1_555
O19 Zr2 1.974746 1_554
O20 Si7 1.637970 1_555
O20 Zr2 1.977696 1_554
O21 Si5 1.649107 1_555
O21 Zr3 1.974746 1_555
O22 S2 1.474661 1_555
O22 Zr3 2.251205 1_555
O23 Si4 1.637970 1_555
O23 Zr3 1.977696 1_555
O24 Si8 1.633948 1_555
O25 Si9 1.643110 1_555
O26 S4 1.479622 1_555
O27 Si10 1.643110 1_555
O28 Si11 1.633948 1_555
O29 S5 1.479622 1_555
O30 S5 1.474661 1_555
O30 Zr4 2.251205 1_555
O31 Si10 1.649107 1_555
O31 Zr4 1.974746 1_555
O32 Si11 1.637970 1_555
O32 Zr4 1.977696 1_555
O33 Si9 1.649107 1_555
O33 Zr5 1.974746 1_555
O34 S4 1.474661 1_555
O34 Zr5 2.251205 1_555
O35 Si8 1.637970 1_555
O35 Zr5 1.977696 1_555
O36 S5 1.487301 1_555
O37 Si10 1.636539 1_555
O38 Si11 1.635746 1_555
O39 Si9 1.636539 1_555
O40 S4 1.487301 1_555
O41 Si8 1.635746 1_555
O42 Si4 1.676226 1_555
O42 Zr0 2.154281 1_655
O43 Si5 1.648494 1_555
O43 Zr0 1.999857 1_555
O44 S2 1.481005 1_555
O44 Zr0 2.215850 1_665
O45 Si6 1.648494 1_555
O45 Zr1 1.999857 1_555
O46 Si7 1.676226 1_555
O46 Zr1 2.154281 1_545
O47 S3 1.481005 1_555
O47 Zr1 2.215850 1_445
O48 S1 1.487301 1_555
O49 Si2 1.636539 1_555
O50 Si3 1.635746 1_555
O51 Si1 1.636539 1_555
O52 S0 1.487301 1_555
O53 Si0 1.635746 1_555
O54 Si8 1.676239 1_555
O54 Zr2 2.154281 1_555
O55 Si9 1.648481 1_655
O55 Zr2 1.999857 1_555
O56 S4 1.481001 1_545
O56 Zr2 2.215850 1_555
O57 Si10 1.648481 1_545
O57 Zr3 1.999857 1_555
O58 Si11 1.676239 1_555
O58 Zr3 2.154281 1_555
O59 S5 1.481001 1_655
O59 Zr3 2.215850 1_555
O60 S3 1.487314 1_555
O61 Si6 1.636523 1_455
O62 Si7 1.635741 1_565
O63 Si5 1.636523 1_565
O64 S2 1.487314 1_555
O65 Si4 1.635741 1_455
O66 Si0 1.676226 1_565
O66 Zr4 2.154281 1_555
O67 Si1 1.648494 1_555
O67 Zr4 1.999857 1_555
O68 S0 1.481005 1_455
O68 Zr4 2.215850 1_555
O69 Si2 1.648494 1_555
O69 Zr5 1.999857 1_555
O70 Si3 1.676226 1_455
O70 Zr5 2.154281 1_555
O71 S1 1.481005 1_565
O71 Zr5 2.215850 1_555
