# generated using pymatgen
data_RbFeBP2HO9
_symmetry_space_group_name_H-M   'P 1'
_cell_length_a   8.49806300
_cell_length_b   9.52238800
_cell_length_c   9.83680211
_cell_angle_alpha   78.01835289
_cell_angle_beta   90.00000000
_cell_angle_gamma   90.00000000
_symmetry_Int_Tables_number   1
_chemical_formula_structural   RbFeBP2HO9
_chemical_formula_sum   'Rb4 Fe4 B4 P8 H4 O36'
_cell_volume   778.67045086
_cell_formula_units_Z   4
loop_
 _symmetry_equiv_pos_site_id
 _symmetry_equiv_pos_as_xyz
  1  'x, y, z'
loop_
 _atom_site_type_symbol
 _atom_site_label
 _atom_site_symmetry_multiplicity
 _atom_site_fract_x
 _atom_site_fract_y
 _atom_site_fract_z
 _atom_site_occupancy
  Rb  Rb0  1  0.89951700  0.80521500  0.06449900  1
  Rb  Rb1  1  0.39951700  0.19478500  0.43550100  1
  Rb  Rb2  1  0.10048300  0.19478500  0.93550100  1
  Rb  Rb3  1  0.60048300  0.80521500  0.56449900  1
  Fe  Fe0  1  0.34276000  0.79382000  0.93091400  1
  Fe  Fe1  1  0.84276000  0.20618000  0.56908600  1
  Fe  Fe2  1  0.65724000  0.20618000  0.06908600  1
  Fe  Fe3  1  0.15724000  0.79382000  0.43091400  1
  B  B0  1  0.94250200  0.66359900  0.69377200  1
  B  B1  1  0.44250200  0.33640100  0.80622800  1
  B  B2  1  0.05749800  0.33640100  0.30622800  1
  B  B3  1  0.55749800  0.66359900  0.19377200  1
  P  P0  1  0.25920300  0.57927000  0.71667300  1
  P  P1  1  0.75920300  0.42073000  0.78332700  1
  P  P2  1  0.74079700  0.42073000  0.28332700  1
  P  P3  1  0.24079700  0.57927000  0.21667300  1
  P  P4  1  0.06214700  0.92380100  0.70716500  1
  P  P5  1  0.56214700  0.07619900  0.79283500  1
  P  P6  1  0.93785300  0.07619900  0.29283500  1
  P  P7  1  0.43785300  0.92380100  0.20716500  1
  H  H0  1  0.92129200  0.59921400  0.50587700  1
  H  H1  1  0.42129200  0.40078600  0.99412300  1
  H  H2  1  0.07870800  0.40078600  0.49412300  1
  H  H3  1  0.57870800  0.59921400  0.00587700  1
  O  O0  1  0.20272300  0.41375400  0.25292500  1
  O  O1  1  0.70272300  0.58624600  0.24707500  1
  O  O2  1  0.79727700  0.58624600  0.74707500  1
  O  O3  1  0.29727700  0.41375400  0.75292500  1
  O  O4  1  0.08247600  0.58583600  0.76134600  1
  O  O5  1  0.58247600  0.41416400  0.73865400  1
  O  O6  1  0.91752400  0.41416400  0.23865400  1
  O  O7  1  0.72015000  0.36510100  0.43965500  1
  O  O8  1  0.27985000  0.63489900  0.56034500  1
  O  O9  1  0.77985000  0.36510100  0.93965500  1
  O  O10  1  0.36689400  0.65615100  0.80296000  1
  O  O11  1  0.22015000  0.63489900  0.06034500  1
  O  O12  1  0.01155100  0.92709700  0.30802400  1
  O  O13  1  0.51155100  0.07290300  0.19197600  1
  O  O14  1  0.98844900  0.07290300  0.69197600  1
  O  O15  1  0.48844900  0.92709700  0.80802400  1
  O  O16  1  0.33582000  0.90874500  0.08191300  1
  O  O17  1  0.83582000  0.09125500  0.41808700  1
  O  O18  1  0.66418000  0.09125500  0.91808700  1
  O  O19  1  0.16418000  0.90874500  0.58191300  1
  O  O20  1  0.34585500  0.89471000  0.34628900  1
  O  O21  1  0.84585500  0.10529000  0.15371100  1
  O  O22  1  0.65414500  0.10529000  0.65371100  1
  O  O23  1  0.15414500  0.89471000  0.84628900  1
  O  O24  1  0.57510200  0.80791100  0.22558600  1
  O  O25  1  0.07510200  0.19208900  0.27441400  1
  O  O26  1  0.42489800  0.19208900  0.77441400  1
  O  O27  1  0.92489800  0.80791100  0.72558600  1
  O  O28  1  0.55175100  0.68553000  0.03942800  1
  O  O29  1  0.05175100  0.31447000  0.46057200  1
  O  O30  1  0.44824900  0.31447000  0.96057200  1
  O  O31  1  0.94824900  0.68553000  0.53942800  1
  O  O32  1  0.13310600  0.65615100  0.30296000  1
  O  O33  1  0.63310600  0.34384900  0.19704000  1
  O  O34  1  0.86689400  0.34384900  0.69704000  1
  O  O35  1  0.41752400  0.58583600  0.26134600  1
loop_
_geom_bond_atom_site_label_1
_geom_bond_atom_site_label_2
_geom_bond_distance
_geom_bond_site_symmetry_2
Fe0 O23 1.962918 1_555
Fe0 O15 1.991936 1_555
Fe0 O10 2.007467 1_555
Fe0 O16 2.020461 1_556
Fe0 O11 2.048607 1_556
Fe0 O28 2.213587 1_556
Fe1 O22 1.962918 1_555
Fe1 O14 1.991936 1_555
Fe1 O34 2.007467 1_555
Fe1 O17 2.020461 1_555
Fe1 O7 2.048607 1_555
Fe1 O29 2.213587 1_655
Fe2 O21 1.962918 1_555
Fe2 O13 1.991936 1_555
Fe2 O33 2.007467 1_555
Fe2 O18 2.020461 1_554
Fe2 O9 2.048607 1_554
Fe2 O30 2.213587 1_554
Fe3 O20 1.962918 1_555
Fe3 O12 1.991936 1_555
Fe3 O32 2.007467 1_555
Fe3 O19 2.020461 1_555
Fe3 O8 2.048607 1_555
Fe3 O31 2.213587 1_455
B0 O2 1.476552 1_555
B0 O27 1.478947 1_555
B0 O4 1.483486 1_655
B0 O31 1.489779 1_555
B1 O3 1.476552 1_555
B1 O26 1.478947 1_555
B1 O5 1.483486 1_555
B1 O30 1.489779 1_555
B2 O0 1.476552 1_555
B2 O25 1.478947 1_555
B2 O6 1.483486 1_455
B2 O29 1.489779 1_555
B3 O1 1.476552 1_555
B3 O24 1.478947 1_555
B3 O35 1.483486 1_555
B3 O28 1.489779 1_555
H0 O31 0.974478 1_555
H1 O30 0.974478 1_555
H2 O29 0.974478 1_555
H3 O28 0.974478 1_555
O0 P3 1.575630 1_555
O0 Rb1 2.969033 1_555
O1 P2 1.575630 1_555
O1 Rb0 2.969033 1_555
O2 P1 1.575630 1_555
O2 Rb3 2.969033 1_555
O3 P0 1.575630 1_555
O3 Rb2 2.969033 1_555
O4 P0 1.569694 1_555
O5 P1 1.569694 1_555
O6 P2 1.569694 1_555
O7 P2 1.529021 1_555
O7 Rb1 3.175497 1_555
O8 P0 1.529021 1_555
O8 Rb3 3.175497 1_555
O9 P1 1.529021 1_555
O9 Rb2 3.175497 1_655
O10 P0 1.533598 1_555
O10 Rb3 3.174132 1_555
O11 P3 1.529021 1_555
O11 Rb0 3.175497 1_455
O12 P6 1.530470 1_465
O12 Rb0 3.024278 1_455
O13 P7 1.530470 1_545
O13 Rb1 3.024278 1_555
O14 P4 1.530470 1_645
O14 Rb2 3.024278 1_655
O15 P5 1.530470 1_565
O15 Rb3 3.024278 1_555
O16 P7 1.537448 1_555
O16 Rb2 3.444434 1_564
O17 P6 1.537448 1_555
O17 Rb3 3.444434 1_545
O18 P5 1.537448 1_555
O18 Rb0 3.444434 1_546
O19 P4 1.537448 1_555
O19 Rb1 3.444434 1_565
O20 P7 1.550304 1_555
O20 Rb3 3.042432 1_555
O20 Rb1 3.191256 1_565
O21 P6 1.550304 1_555
O21 Rb2 3.042432 1_654
O21 Rb0 3.191256 1_545
O22 P5 1.550304 1_555
O22 Rb1 3.042432 1_555
O22 Rb3 3.191256 1_545
O23 P4 1.550304 1_555
O23 Rb0 3.042432 1_456
O23 Rb2 3.191256 1_565
O24 P7 1.589970 1_555
O24 Rb0 3.182599 1_555
O24 Rb3 3.335566 1_555
O25 P6 1.589970 1_455
O25 Rb1 3.182599 1_555
O25 Rb2 3.335566 1_554
O26 P5 1.589970 1_555
O26 Rb2 3.182599 1_555
O26 Rb1 3.335566 1_555
O27 P4 1.589970 1_655
O27 Rb3 3.182599 1_555
O27 Rb0 3.335566 1_556
O28 Rb0 3.195376 1_555
O29 Rb1 3.195376 1_555
O30 Rb2 3.195376 1_555
O31 Rb3 3.195376 1_555
O32 P3 1.533598 1_555
O32 Rb0 3.174132 1_455
O33 P2 1.533598 1_555
O33 Rb1 3.174132 1_555
O34 P1 1.533598 1_555
O34 Rb2 3.174132 1_655
O35 P3 1.569694 1_555
