# generated using pymatgen
data_PbCl2
_symmetry_space_group_name_H-M   'P 1'
_cell_length_a   4.16363057
_cell_length_b   10.00500939
_cell_length_c   15.68180163
_cell_angle_alpha   90.01109923
_cell_angle_beta   90.00000000
_cell_angle_gamma   90.00000000
_symmetry_Int_Tables_number   1
_chemical_formula_structural   PbCl2
_chemical_formula_sum   'Pb8 Cl16'
_cell_volume   653.25935343
_cell_formula_units_Z   8
loop_
 _symmetry_equiv_pos_site_id
 _symmetry_equiv_pos_as_xyz
  1  'x, y, z'
loop_
 _atom_site_type_symbol
 _atom_site_label
 _atom_site_symmetry_multiplicity
 _atom_site_fract_x
 _atom_site_fract_y
 _atom_site_fract_z
 _atom_site_occupancy
  Pb  Pb0  1  0.75746421  0.65931202  0.16364572  1
  Pb  Pb1  1  0.25025947  0.15930000  0.58633946  1
  Pb  Pb2  1  0.24253579  0.34068798  0.83635428  1
  Pb  Pb3  1  0.25746421  0.34068798  0.33635428  1
  Pb  Pb4  1  0.75025947  0.84070000  0.91366054  1
  Pb  Pb5  1  0.24974053  0.15930000  0.08633946  1
  Pb  Pb6  1  0.74253579  0.65931202  0.66364572  1
  Pb  Pb7  1  0.74974053  0.84070000  0.41366054  1
  Cl  Cl0  1  0.75067579  0.30747657  0.99696854  1
  Cl  Cl1  1  0.74582376  0.19263263  0.74695985  1
  Cl  Cl2  1  0.74932421  0.30747657  0.49696854  1
  Cl  Cl3  1  0.75417624  0.19263263  0.24695985  1
  Cl  Cl4  1  0.24582376  0.80736737  0.75304015  1
  Cl  Cl5  1  0.24922087  0.05108808  0.91594242  1
  Cl  Cl6  1  0.74922087  0.94891192  0.58405758  1
  Cl  Cl7  1  0.75535920  0.55088752  0.33401048  1
  Cl  Cl8  1  0.24464080  0.44911248  0.66598952  1
  Cl  Cl9  1  0.25077913  0.05108808  0.41594242  1
  Cl  Cl10  1  0.74464080  0.55088752  0.83401048  1
  Cl  Cl11  1  0.75077913  0.94891192  0.08405758  1
  Cl  Cl12  1  0.25067579  0.69252343  0.50303146  1
  Cl  Cl13  1  0.24932421  0.69252343  0.00303146  1
  Cl  Cl14  1  0.25417624  0.80736737  0.25304015  1
  Cl  Cl15  1  0.25535920  0.44911248  0.16598952  1
loop_
_geom_bond_atom_site_label_1
_geom_bond_atom_site_label_2
_geom_bond_distance
_geom_bond_site_symmetry_2
Cl0 Pb5 2.912144 1_656
Cl0 Pb5 2.917707 1_556
Cl1 Pb2 2.904445 1_655
Cl1 Pb2 2.924004 1_555
Cl2 Pb1 2.912144 1_555
Cl2 Pb1 2.917707 1_655
Cl3 Pb3 2.904445 1_555
Cl3 Pb3 2.924004 1_655
Cl4 Pb6 2.904445 1_555
Cl4 Pb6 2.924004 1_455
Cl5 Pb5 2.882938 1_556
Cl5 Pb4 2.957697 1_445
Cl5 Pb4 2.963778 1_545
Cl5 Pb2 3.155172 1_555
Cl6 Pb7 2.882938 1_555
Cl6 Pb1 2.957697 1_565
Cl6 Pb1 2.963778 1_665
Cl6 Pb6 3.155172 1_555
Cl7 Pb0 2.883670 1_555
Cl7 Pb3 2.953258 1_555
Cl7 Pb3 2.965589 1_655
Cl7 Pb7 3.157029 1_555
Cl8 Pb2 2.883670 1_555
Cl8 Pb6 2.953258 1_555
Cl8 Pb6 2.965589 1_455
Cl8 Pb1 3.157029 1_555
Cl9 Pb1 2.882938 1_555
Cl9 Pb7 2.957697 1_545
Cl9 Pb7 2.963778 1_445
Cl9 Pb3 3.155172 1_555
Cl10 Pb6 2.883670 1_555
Cl10 Pb2 2.953258 1_655
Cl10 Pb2 2.965589 1_555
Cl10 Pb4 3.157029 1_555
Cl11 Pb4 2.882938 1_554
Cl11 Pb5 2.957697 1_665
Cl11 Pb5 2.963778 1_565
Cl11 Pb0 3.155172 1_555
Cl12 Pb7 2.912144 1_555
Cl12 Pb7 2.917707 1_455
Cl13 Pb4 2.912144 1_454
Cl13 Pb4 2.917707 1_554
Cl14 Pb0 2.904445 1_455
Cl14 Pb0 2.924004 1_555
Cl15 Pb3 2.883670 1_555
Cl15 Pb0 2.953258 1_455
Cl15 Pb0 2.965589 1_555
Cl15 Pb5 3.157029 1_555
