# generated using pymatgen
data_V4As2O13
_symmetry_space_group_name_H-M   'P 1'
_cell_length_a   4.95981255
_cell_length_b   4.94776822
_cell_length_c   8.81317782
_cell_angle_alpha   89.64893380
_cell_angle_beta   100.46512646
_cell_angle_gamma   99.34762440
_symmetry_Int_Tables_number   1
_chemical_formula_structural   V4As2O13
_chemical_formula_sum   'V4 As2 O13'
_cell_volume   209.79276712
_cell_formula_units_Z   1
loop_
 _symmetry_equiv_pos_site_id
 _symmetry_equiv_pos_as_xyz
  1  'x, y, z'
loop_
 _atom_site_type_symbol
 _atom_site_label
 _atom_site_symmetry_multiplicity
 _atom_site_fract_x
 _atom_site_fract_y
 _atom_site_fract_z
 _atom_site_occupancy
  V  V0  1  0.91187337  0.81889521  0.64163599  1
  V  V1  1  0.57344759  0.24816401  0.70562977  1
  V  V2  1  0.73811363  0.04358180  0.31717740  1
  V  V3  1  0.45183791  0.53949813  0.06034171  1
  As  As0  1  0.24029181  0.56274902  0.41260336  1
  As  As1  1  0.00274766  0.99710386  0.00184434  1
  O  O0  1  0.93069642  0.51105278  0.72363757  1
  O  O1  1  0.25098539  0.04342294  0.68175139  1
  O  O2  1  0.70010752  0.07559740  0.53019046  1
  O  O3  1  0.59900123  0.28433027  0.21152537  1
  O  O4  1  0.53404171  0.42449153  0.89998379  1
  O  O5  1  0.41003013  0.73167072  0.27929676  1
  O  O6  1  0.80711790  0.83654132  0.12845754  1
  O  O7  1  0.08707313  0.33321522  0.04775644  1
  O  O8  1  0.79005784  0.98125422  0.82110498  1
  O  O9  1  0.96745031  0.72271576  0.43504430  1
  O  O10  1  0.11863871  0.23580665  0.35840942  1
  O  O11  1  0.47115524  0.56646371  0.58167273  1
  O  O12  1  0.27544852  0.85074544  0.98296767  1
loop_
_geom_bond_atom_site_label_1
_geom_bond_atom_site_label_2
_geom_bond_distance
_geom_bond_site_symmetry_2
As0 O10 1.672316 1_555
As0 O11 1.704513 1_555
As0 O5 1.704778 1_555
As0 O9 1.715779 1_455
As1 O12 1.668183 1_554
As1 O7 1.680788 1_565
As1 O6 1.717493 1_455
As1 O8 1.737957 1_454
O0 V0 1.690896 1_555
O0 V1 2.002078 1_555
O1 V1 1.726975 1_555
O1 V0 1.835712 1_445
O2 V0 1.929853 1_545
O2 V2 1.930509 1_555
O2 V1 2.014348 1_555
O3 V2 1.667918 1_555
O3 V3 1.956386 1_555
O4 V3 1.667896 1_556
O4 V1 1.982068 1_555
O5 V2 2.033272 1_565
O5 V3 2.214195 1_555
O6 V2 2.067455 1_565
O6 V3 2.100170 1_555
O7 V3 1.912000 1_555
O8 V1 1.995288 1_565
O8 V0 2.008106 1_555
O9 V0 1.962918 1_555
O9 V2 2.242866 1_565
O10 V2 1.941809 1_455
O11 V1 1.992038 1_555
O11 V0 2.306265 1_555
O12 V3 1.951918 1_556
