# generated using pymatgen
data_Li3Fe2(PO4)3
_symmetry_space_group_name_H-M   'P 1'
_cell_length_a   8.62262060
_cell_length_b   8.62262060
_cell_length_c   6.41747424
_cell_angle_alpha   73.56092068
_cell_angle_beta   73.56092068
_cell_angle_gamma   95.44150919
_symmetry_Int_Tables_number   1
_chemical_formula_structural   Li3Fe2(PO4)3
_chemical_formula_sum   'Li6 Fe4 P6 O24'
_cell_volume   430.91667262
_cell_formula_units_Z   2
loop_
 _symmetry_equiv_pos_site_id
 _symmetry_equiv_pos_as_xyz
  1  'x, y, z'
loop_
 _atom_site_type_symbol
 _atom_site_label
 _atom_site_symmetry_multiplicity
 _atom_site_fract_x
 _atom_site_fract_y
 _atom_site_fract_z
 _atom_site_occupancy
  Li  Li0  1  0.70988100  0.29011900  0.75000000  1
  Li  Li1  1  0.50000000  0.50000000  0.00000000  1
  Li  Li2  1  0.29011900  0.70988100  0.25000000  1
  Li  Li3  1  0.03398400  0.96601600  0.25000000  1
  Li  Li4  1  0.50000000  0.50000000  0.50000000  1
  Li  Li5  1  0.96601600  0.03398400  0.75000000  1
  Fe  Fe0  1  0.36432200  0.05933500  0.37259700  1
  Fe  Fe1  1  0.05933500  0.36432200  0.87259700  1
  Fe  Fe2  1  0.94066500  0.63567800  0.12740300  1
  Fe  Fe3  1  0.63567800  0.94066500  0.62740300  1
  P  P0  1  0.66310000  0.86806000  0.12961700  1
  P  P1  1  0.29275900  0.70724100  0.75000000  1
  P  P2  1  0.70724100  0.29275900  0.25000000  1
  P  P3  1  0.33690000  0.13194000  0.87038300  1
  P  P4  1  0.86806000  0.66310000  0.62961700  1
  P  P5  1  0.13194000  0.33690000  0.37038300  1
  O  O0  1  0.27220200  0.82093300  0.52843800  1
  O  O1  1  0.04517500  0.38734000  0.18532400  1
  O  O2  1  0.15439600  0.15117300  0.40807100  1
  O  O3  1  0.32703300  0.00616100  0.10643200  1
  O  O4  1  0.67296700  0.99383900  0.89356800  1
  O  O5  1  0.84560400  0.84882700  0.59192800  1
  O  O6  1  0.95482500  0.61266000  0.81467600  1
  O  O7  1  0.99383900  0.67296700  0.39356800  1
  O  O8  1  0.84882700  0.84560400  0.09192900  1
  O  O9  1  0.61266000  0.95482500  0.31467600  1
  O  O10  1  0.70763000  0.54319700  0.69836300  1
  O  O11  1  0.15117300  0.15439600  0.90807100  1
  O  O12  1  0.17906700  0.72779800  0.97156200  1
  O  O13  1  0.54319700  0.70763000  0.19836300  1
  O  O14  1  0.47085400  0.73625800  0.76156800  1
  O  O15  1  0.73625800  0.47085400  0.26156800  1
  O  O16  1  0.26374200  0.52914600  0.73843200  1
  O  O17  1  0.72779800  0.17906700  0.47156200  1
  O  O18  1  0.45680300  0.29237000  0.80163700  1
  O  O19  1  0.82093300  0.27220200  0.02843800  1
  O  O20  1  0.52914600  0.26374200  0.23843200  1
  O  O21  1  0.29237000  0.45680300  0.30163700  1
  O  O22  1  0.38734000  0.04517500  0.68532400  1
  O  O23  1  0.00616100  0.32703300  0.60643200  1
loop_
_geom_bond_atom_site_label_1
_geom_bond_atom_site_label_2
_geom_bond_distance
_geom_bond_site_symmetry_2
Li0 O10 2.115314 1_555
Li0 O18 2.115314 1_555
Li0 O19 2.230231 1_556
Li0 O17 2.230231 1_555
Li0 O4 2.413362 1_545
Li0 O23 2.413362 1_655
Li1 O21 2.143601 1_555
Li1 O10 2.143601 1_554
Li1 O20 2.259419 1_555
Li1 O14 2.259419 1_554
Li1 O13 2.529087 1_555
Li1 O18 2.529087 1_554
Li2 O13 2.115314 1_555
Li2 O21 2.115314 1_555
Li2 O0 2.230231 1_555
Li2 O12 2.230231 1_554
Li2 O7 2.413362 1_455
Li2 O3 2.413362 1_565
Li3 O5 2.211537 1_455
Li3 O11 2.211541 1_564
Li3 O3 2.385285 1_565
Li3 O7 2.385285 1_455
Li3 O2 2.419580 1_565
Li3 O8 2.419580 1_455
Li4 O18 2.143601 1_555
Li4 O13 2.143601 1_555
Li4 O16 2.259419 1_555
Li4 O15 2.259419 1_555
Li4 O10 2.529087 1_555
Li4 O21 2.529087 1_555
Li5 O8 2.211541 1_546
Li5 O2 2.211541 1_655
Li5 O23 2.385285 1_655
Li5 O4 2.385285 1_545
Li5 O11 2.419580 1_655
Li5 O5 2.419584 1_545
Fe0 O20 1.959869 1_555
Fe0 O0 1.983416 1_545
Fe0 O3 1.989317 1_555
Fe0 O2 2.023875 1_555
Fe0 O22 2.042883 1_555
Fe0 O9 2.374989 1_545
Fe1 O16 1.959869 1_555
Fe1 O19 1.983416 1_456
Fe1 O23 1.989317 1_555
Fe1 O11 2.023875 1_555
Fe1 O1 2.042883 1_556
Fe1 O6 2.374989 1_455
Fe2 O15 1.959869 1_555
Fe2 O12 1.983416 1_654
Fe2 O7 1.989317 1_555
Fe2 O8 2.023875 1_555
Fe2 O6 2.042883 1_554
Fe2 O1 2.374989 1_655
Fe3 O14 1.959869 1_555
Fe3 O17 1.983416 1_565
Fe3 O4 1.989317 1_555
Fe3 O5 2.023875 1_555
Fe3 O9 2.042883 1_555
Fe3 O22 2.374989 1_565
O0 P1 1.549464 1_555
O1 P5 1.559342 1_555
O2 P5 1.589571 1_555
O3 P3 1.567767 1_554
O4 P0 1.567767 1_556
O5 P4 1.589570 1_555
O6 P4 1.559342 1_555
O7 P4 1.567767 1_555
O8 P0 1.589571 1_555
O9 P0 1.559342 1_555
O10 P4 1.517335 1_555
O11 P3 1.589571 1_555
O12 P1 1.549464 1_555
O13 P0 1.517335 1_555
O14 P1 1.558360 1_555
O15 P2 1.558360 1_555
O16 P1 1.558360 1_555
O17 P2 1.549464 1_555
O18 P3 1.517335 1_555
O19 P2 1.549464 1_555
O20 P2 1.558360 1_555
O21 P5 1.517335 1_555
O22 P3 1.559342 1_555
O23 P5 1.567767 1_555
