# generated using pymatgen
data_Na6Si5Ge4SO24
_symmetry_space_group_name_H-M   'P 1'
_cell_length_a   8.70383476
_cell_length_b   8.70194044
_cell_length_c   21.73662537
_cell_angle_alpha   90.17083962
_cell_angle_beta   89.17546585
_cell_angle_gamma   119.99362985
_symmetry_Int_Tables_number   1
_chemical_formula_structural   Na6Si5Ge4SO24
_chemical_formula_sum   'Na18 Si15 Ge12 S3 O72'
_cell_volume   1425.69708176
_cell_formula_units_Z   3
loop_
 _symmetry_equiv_pos_site_id
 _symmetry_equiv_pos_as_xyz
  1  'x, y, z'
loop_
 _atom_site_type_symbol
 _atom_site_label
 _atom_site_symmetry_multiplicity
 _atom_site_fract_x
 _atom_site_fract_y
 _atom_site_fract_z
 _atom_site_occupancy
  Na  Na0  1  0.63541576  0.00122819  0.25077870  1
  Na  Na1  1  0.36541308  0.36644898  0.24888294  1
  Na  Na2  1  0.00015272  0.63328028  0.25028959  1
  Na  Na3  1  0.63359297  0.63324626  0.74897992  1
  Na  Na4  1  0.99844206  0.36612615  0.75018752  1
  Na  Na5  1  0.36838967  0.00269527  0.75057151  1
  Na  Na6  1  0.30004178  0.33302416  0.58400080  1
  Na  Na7  1  0.03240410  0.70086091  0.58322548  1
  Na  Na8  1  0.66914971  0.96698637  0.58320809  1
  Na  Na9  1  0.03441300  0.33333016  0.08503341  1
  Na  Na10  1  0.97086932  0.66683340  0.91701896  1
  Na  Na11  1  0.33323663  0.03025091  0.41673858  1
  Na  Na12  1  0.98986660  0.99487981  0.49811318  1
  Na  Na13  1  0.00917449  0.00360186  0.00006923  1
  Na  Na14  1  0.66081814  0.32276133  0.83483073  1
  Na  Na15  1  0.67721468  0.33871778  0.33572412  1
  Na  Na16  1  0.33638243  0.66901221  0.16469868  1
  Na  Na17  1  0.33440098  0.66691715  0.66666762  1
  Si  Si0  1  0.28892023  0.00306061  0.25122454  1
  Si  Si1  1  0.71246708  0.71559042  0.24883781  1
  Si  Si2  1  0.99949360  0.28428257  0.25000157  1
  Si  Si3  1  0.29042754  0.29075823  0.74907004  1
  Si  Si4  1  0.99712608  0.71497650  0.75067317  1
  Si  Si5  1  0.71450483  0.99985374  0.75159465  1
  Si  Si6  1  0.95731162  0.33304542  0.58376593  1
  Si  Si7  1  0.38198699  0.05142282  0.58294318  1
  Si  Si8  1  0.66612794  0.61898006  0.58219052  1
  Si  Si9  1  0.94853978  0.62597363  0.08232006  1
  Si  Si10  1  0.38171325  0.33605173  0.08256756  1
  Si  Si11  1  0.03994310  0.36851402  0.91631892  1
  Si  Si12  1  0.33820519  0.95920739  0.91779247  1
  Si  Si13  1  0.62720766  0.95665822  0.41643241  1
  Si  Si14  1  0.03961523  0.66307449  0.41697814  1
  Ge  Ge0  1  0.98247659  0.98309537  0.35154024  1
  Ge  Ge1  1  0.01553025  0.01535528  0.85210777  1
  Ge  Ge2  1  0.99955753  0.00047685  0.64687202  1
  Ge  Ge3  1  0.01452392  0.99612371  0.14819560  1
  Ge  Ge4  1  0.66750513  0.33473821  0.68645255  1
  Ge  Ge5  1  0.66812591  0.34710809  0.18770629  1
  Ge  Ge6  1  0.66092260  0.32682537  0.98021862  1
  Ge  Ge7  1  0.68511960  0.33357499  0.48179968  1
  Ge  Ge8  1  0.30751862  0.65029795  0.01939250  1
  Ge  Ge9  1  0.33758629  0.68063688  0.52086359  1
  Ge  Ge10  1  0.32942383  0.67578801  0.31238410  1
  Ge  Ge11  1  0.32354249  0.67226835  0.81239527  1
  S  S0  1  0.66239719  0.03997950  0.08305729  1
  S  S1  1  0.61817290  0.66745426  0.91712169  1
  S  S2  1  0.33323730  0.38030105  0.41658017  1
  O  O0  1  0.20626046  0.04787133  0.31216125  1
  O  O1  1  0.83944353  0.78851661  0.30839297  1
  O  O2  1  0.95742476  0.15480619  0.30922893  1
  O  O3  1  0.21078349  0.16000249  0.80804349  1
  O  O4  1  0.95551632  0.79788889  0.81198679  1
  O  O5  1  0.84530827  0.04211206  0.80940145  1
  O  O6  1  0.79278386  0.95521147  0.68904680  1
  O  O7  1  0.16378003  0.21026416  0.68888091  1
  O  O8  1  0.04306083  0.84000014  0.68938791  1
  O  O9  1  0.79816362  0.84765929  0.18999748  1
  O  O10  1  0.04056321  0.20256055  0.18793100  1
  O  O11  1  0.16104034  0.95196960  0.19230472  1
  O  O12  1  0.87651614  0.38056282  0.64465257  1
  O  O13  1  0.50678869  0.13029687  0.64356850  1
  O  O14  1  0.62259026  0.49662205  0.64441434  1
  O  O15  1  0.86981865  0.49278252  0.14306569  1
  O  O16  1  0.63071583  0.11693065  0.14006180  1
  O  O17  1  0.49782463  0.36815656  0.14515365  1
  O  O18  1  0.47016684  0.29583575  0.02332057  1
  O  O19  1  0.83087428  0.53130525  0.02127020  1
  O  O20  1  0.70253029  0.15856237  0.02844694  1
  O  O21  1  0.46509101  0.17649657  0.52171876  1
  O  O22  1  0.70867251  0.52959513  0.52365480  1
  O  O23  1  0.82775685  0.28243962  0.52538999  1
  O  O24  1  0.53630351  0.69629411  0.97237776  1
  O  O25  1  0.16086129  0.45332614  0.97728105  1
  O  O26  1  0.29663127  0.82309204  0.97609682  1
  O  O27  1  0.53801461  0.83331480  0.47800673  1
  O  O28  1  0.30314338  0.45930847  0.47309296  1
  O  O29  1  0.16960074  0.70651327  0.47704189  1
  O  O30  1  0.12885673  0.62857083  0.35527761  1
  O  O31  1  0.49718842  0.87014132  0.35646408  1
  O  O32  1  0.36345630  0.48909896  0.36019137  1
  O  O33  1  0.12781852  0.50261789  0.85638448  1
  O  O34  1  0.37189639  0.87263678  0.85492880  1
  O  O35  1  0.51269095  0.63592902  0.86029879  1
  O  O36  1  0.03486243  0.85003718  0.41002118  1
  O  O37  1  0.82350723  0.97808986  0.41039411  1
  O  O38  1  0.17397787  0.20155221  0.41299374  1
  O  O39  1  0.01929222  0.17331320  0.91007856  1
  O  O40  1  0.15152943  0.96434319  0.91054799  1
  O  O41  1  0.79840310  0.82505024  0.91275994  1
  O  O42  1  0.97710469  0.15703097  0.59019934  1
  O  O43  1  0.18348247  0.02704133  0.58921953  1
  O  O44  1  0.84202907  0.81616776  0.58904907  1
  O  O45  1  0.96850487  0.82094243  0.08976210  1
  O  O46  1  0.82597284  0.02889188  0.08736361  1
  O  O47  1  0.17782538  0.16371972  0.08957531  1
  O  O48  1  0.69153255  0.17475269  0.74402088  1
  O  O49  1  0.48650387  0.30969864  0.74302059  1
  O  O50  1  0.82322952  0.51700380  0.74453177  1
  O  O51  1  0.69070832  0.51732390  0.24408444  1
  O  O52  1  0.82316553  0.30647336  0.24231548  1
  O  O53  1  0.48817010  0.17580220  0.24223020  1
  O  O54  1  0.64043100  0.50763591  0.92073844  1
  O  O55  1  0.84780424  0.36309373  0.92462976  1
  O  O56  1  0.51381136  0.15487875  0.92429872  1
  O  O57  1  0.63200846  0.14857986  0.42323767  1
  O  O58  1  0.49200366  0.36027404  0.42023252  1
  O  O59  1  0.84368625  0.48753011  0.42297226  1
  O  O60  1  0.35936000  0.51489529  0.07510670  1
  O  O61  1  0.14621107  0.63955054  0.07816447  1
  O  O62  1  0.50464908  0.86367464  0.07636672  1
  O  O63  1  0.35885190  0.85198588  0.57842991  1
  O  O64  1  0.48820019  0.63873885  0.57569542  1
  O  O65  1  0.15457092  0.50907991  0.57459157  1
  O  O66  1  0.31064940  0.82672813  0.25572130  1
  O  O67  1  0.51261906  0.68796633  0.25850942  1
  O  O68  1  0.17686626  0.48250531  0.25717307  1
  O  O69  1  0.31264790  0.48830473  0.75858628  1
  O  O70  1  0.17416361  0.69312798  0.75491870  1
  O  O71  1  0.51645294  0.82121397  0.75778395  1
loop_
_geom_bond_atom_site_label_1
_geom_bond_atom_site_label_2
_geom_bond_distance
_geom_bond_site_symmetry_2
Na0 O52 2.326853 1_555
Na0 O67 2.384567 1_545
Na0 O53 2.437187 1_555
Na0 O66 2.451200 1_545
Na0 O31 2.567093 1_545
Na0 O16 2.620236 1_555
Na0 O9 2.714059 1_545
Na0 O2 2.757335 1_555
Na1 O68 2.322280 1_555
Na1 O53 2.383512 1_555
Na1 O67 2.435859 1_555
Na1 O51 2.454941 1_555
Na1 O17 2.514065 1_555
Na1 O32 2.644773 1_555
Na1 O0 2.761254 1_555
Na1 O10 2.801539 1_555
Na2 O51 2.362830 1_455
Na2 O66 2.368711 1_555
Na2 O52 2.472916 1_455
Na2 O68 2.476884 1_555
Na2 O30 2.566031 1_555
Na2 O15 2.624152 1_455
Na2 O1 2.684156 1_455
Na2 O11 2.706958 1_555
Na3 O71 2.326261 1_555
Na3 O50 2.328309 1_555
Na3 O69 2.428980 1_555
Na3 O49 2.445726 1_555
Na3 O14 2.542646 1_555
Na3 O35 2.629406 1_555
Na3 O6 2.748668 1_555
Na3 O4 2.804367 1_555
Na4 O48 2.342718 1_555
Na4 O69 2.397702 1_655
Na4 O50 2.464305 1_555
Na4 O70 2.469503 1_655
Na4 O12 2.570869 1_555
Na4 O33 2.593945 1_655
Na4 O7 2.751687 1_655
Na4 O5 2.756441 1_555
Na5 O49 2.339380 1_555
Na5 O70 2.359523 1_545
Na5 O48 2.439685 1_555
Na5 O71 2.494286 1_545
Na5 O34 2.545424 1_545
Na5 O13 2.586736 1_555
Na5 O3 2.670980 1_555
Na5 O8 2.807157 1_545
Na6 O43 2.330129 1_555
Na6 O64 2.330303 1_555
Na6 O65 2.437378 1_555
Na6 O42 2.439390 1_455
Na6 O7 2.532780 1_555
Na6 O28 2.646581 1_555
Na6 O21 2.764267 1_555
Na6 O14 2.780600 1_555
Na7 O44 2.328937 1_455
Na7 O65 2.391145 1_555
Na7 O63 2.463731 1_555
Na7 O43 2.464484 1_565
Na7 O29 2.572589 1_555
Na7 O8 2.583967 1_555
Na7 O12 2.753428 1_455
Na7 O22 2.780688 1_455
Na8 O42 2.349651 1_565
Na8 O63 2.368900 1_555
Na8 O44 2.446147 1_555
Na8 O64 2.484535 1_555
Na8 O27 2.572303 1_555
Na8 O6 2.577599 1_555
Na8 O23 2.683729 1_565
Na8 O13 2.771541 1_565
Na9 O61 2.339997 1_555
Na9 O46 2.346293 1_455
Na9 O47 2.364874 1_555
Na9 O60 2.461460 1_555
Na9 O10 2.525848 1_555
Na9 O25 2.564917 1_554
Na9 O15 2.737479 1_455
Na9 O20 2.805162 1_455
Na10 O40 2.262852 1_655
Na10 O55 2.308184 1_555
Na10 O54 2.491573 1_555
Na10 O41 2.495711 1_555
Na10 O19 2.551547 1_556
Na10 O4 2.589869 1_555
Na10 O33 2.744796 1_655
Na10 O26 2.788737 1_655
Na11 O36 2.272158 1_545
Na11 O57 2.274899 1_555
Na11 O58 2.489333 1_555
Na11 O38 2.493989 1_555
Na11 O0 2.579921 1_555
Na11 O21 2.596459 1_555
Na11 O31 2.759926 1_545
Na11 O29 2.764003 1_545
Na12 O37 2.370612 1_555
Na12 O36 2.422007 1_655
Na12 O44 2.434283 1_555
Na12 O42 2.478584 1_565
Na12 O38 2.505737 1_665
Na12 O43 2.541888 1_665
Na13 O40 2.405878 1_544
Na13 O45 2.426702 1_445
Na13 O39 2.428434 1_554
Na13 O47 2.429502 1_555
Na13 O46 2.540231 1_455
Na13 O41 2.571781 1_444
Na14 O56 2.372726 1_555
Na14 O48 2.437313 1_555
Na14 O55 2.469453 1_555
Na14 O49 2.492143 1_555
Na14 O50 2.501779 1_555
Na14 O54 2.522807 1_555
Na15 O59 2.358276 1_555
Na15 O57 2.420186 1_555
Na15 O52 2.468541 1_555
Na15 O58 2.494641 1_555
Na15 O51 2.495282 1_555
Na15 O53 2.567888 1_555
Na16 O60 2.423312 1_555
Na16 O61 2.450705 1_555
Na16 O66 2.475215 1_555
Na16 O62 2.481731 1_555
Na16 O68 2.507659 1_555
Na16 O67 2.524533 1_555
Na17 O70 2.432158 1_555
Na17 O63 2.445722 1_555
Na17 O64 2.451819 1_555
Na17 O69 2.481338 1_555
Na17 O71 2.486673 1_555
Na17 O65 2.503284 1_555
Ge0 O1 1.792497 1_555
Ge0 O37 1.855281 1_555
Ge0 O2 1.861666 1_565
Ge0 O0 1.923912 1_665
Ge0 O36 1.928143 1_655
Ge0 O38 2.248847 1_665
Ge1 O3 1.792072 1_555
Ge1 O39 1.850437 1_555
Ge1 O5 1.869973 1_455
Ge1 O4 1.905118 1_445
Ge1 O40 1.945217 1_545
Ge1 O41 2.205518 1_445
Ge2 O6 1.865601 1_545
Ge2 O8 1.869212 1_645
Ge2 O7 1.904807 1_655
Ge2 O42 1.922173 1_555
Ge2 O43 1.939228 1_655
Ge2 O44 1.967471 1_545
Ge3 O11 1.794561 1_555
Ge3 O45 1.868201 1_455
Ge3 O9 1.888467 1_455
Ge3 O10 1.900985 1_565
Ge3 O47 1.912392 1_565
Ge3 O46 2.248461 1_465
Ge4 O12 1.877053 1_555
Ge4 O13 1.878876 1_555
Ge4 O14 1.881703 1_555
Ge4 O49 1.908909 1_555
Ge4 O50 1.958175 1_555
Ge4 O48 1.963869 1_555
Ge5 O15 1.834025 1_555
Ge5 O17 1.843403 1_555
Ge5 O51 1.854566 1_555
Ge5 O53 1.924260 1_555
Ge5 O52 1.969952 1_555
Ge5 O16 2.129739 1_555
Ge6 O18 1.793375 1_556
Ge6 O56 1.863931 1_555
Ge6 O19 1.883469 1_556
Ge6 O55 1.907318 1_555
Ge6 O20 1.980982 1_556
Ge6 O54 2.116207 1_555
Ge7 O23 1.796043 1_555
Ge7 O22 1.850903 1_555
Ge7 O59 1.856204 1_555
Ge7 O21 1.905495 1_555
Ge7 O57 1.919966 1_555
Ge7 O58 2.264336 1_555
Ge8 O25 1.800547 1_554
Ge8 O26 1.819083 1_554
Ge8 O61 1.851965 1_555
Ge8 O60 1.901135 1_555
Ge8 O24 2.077706 1_554
Ge8 O62 2.188037 1_555
Ge9 O27 1.821967 1_555
Ge9 O29 1.861814 1_555
Ge9 O63 1.882259 1_555
Ge9 O65 1.925952 1_555
Ge9 O64 1.948688 1_555
Ge9 O28 2.072987 1_555
Ge10 O30 1.823156 1_555
Ge10 O31 1.863350 1_555
Ge10 O66 1.870541 1_555
Ge10 O67 1.924340 1_555
Ge10 O68 1.957861 1_555
Ge10 O32 2.075295 1_555
Ge11 O34 1.827546 1_555
Ge11 O33 1.855498 1_555
Ge11 O70 1.888999 1_555
Ge11 O71 1.919442 1_555
Ge11 O69 1.944213 1_555
Ge11 O35 2.113382 1_555
O0 Si0 1.635271 1_555
O1 Si1 1.623272 1_555
O2 Si2 1.625895 1_555
O3 Si3 1.616459 1_555
O4 Si4 1.633883 1_555
O5 Si5 1.621753 1_545
O6 Si5 1.642679 1_555
O7 Si3 1.637523 1_555
O8 Si4 1.635998 1_455
O9 Si1 1.623949 1_555
O10 Si2 1.639637 1_455
O11 Si0 1.618532 1_565
O12 Si6 1.636386 1_555
O13 Si7 1.636457 1_555
O14 Si8 1.642279 1_555
O15 Si9 1.656917 1_555
O16 S0 1.493184 1_555
O17 Si10 1.644726 1_555
O18 Si10 1.616122 1_555
O19 Si9 1.636324 1_555
O20 S0 1.493619 1_555
O21 Si7 1.634830 1_555
O22 Si8 1.621593 1_555
O23 Si6 1.617693 1_555
O24 S1 1.471635 1_555
O25 Si11 1.632782 1_555
O26 Si12 1.645383 1_555
O27 Si13 1.640623 1_555
O28 S2 1.488624 1_555
O29 Si14 1.655121 1_555
O30 Si14 1.641031 1_555
O31 Si13 1.652690 1_555
O32 S2 1.488805 1_555
O33 Si11 1.652884 1_555
O34 Si12 1.650414 1_555
O35 S1 1.490815 1_555
O36 Si14 1.655429 1_555
O37 Si13 1.626744 1_555
O38 S2 1.481105 1_555
O39 Si11 1.621761 1_555
O40 Si12 1.657335 1_555
O41 S1 1.481931 1_555
O42 Si6 1.631266 1_555
O43 Si7 1.635738 1_555
O44 Si8 1.639834 1_555
O45 Si9 1.624575 1_555
O46 S0 1.478622 1_555
O47 Si10 1.659564 1_555
O48 Si5 1.640164 1_545
O49 Si3 1.633841 1_555
O50 Si4 1.635242 1_555
O51 Si1 1.641960 1_555
O52 Si2 1.650598 1_555
O53 Si0 1.640423 1_555
O54 S1 1.499436 1_555
O55 Si11 1.656529 1_655
O56 Si12 1.630392 1_545
O57 Si13 1.655827 1_545
O58 S2 1.479958 1_555
O59 Si14 1.627543 1_655
O60 Si10 1.670726 1_555
O61 Si9 1.665711 1_455
O62 S0 1.469157 1_565
O63 Si7 1.646890 1_565
O64 Si8 1.649389 1_555
O65 Si6 1.642112 1_455
O66 Si0 1.640545 1_565
O67 Si1 1.642976 1_555
O68 Si2 1.651032 1_455
O69 Si3 1.643749 1_555
O70 Si4 1.648077 1_455
O71 Si5 1.649708 1_555
