# generated using pymatgen
data_W2C
_symmetry_space_group_name_H-M   'P 1'
_cell_length_a   4.75632200
_cell_length_b   5.23726500
_cell_length_c   6.11103400
_cell_angle_alpha   90.00000000
_cell_angle_beta   90.00000000
_cell_angle_gamma   90.00000000
_symmetry_Int_Tables_number   1
_chemical_formula_structural   W2C
_chemical_formula_sum   'W8 C4'
_cell_volume   152.22658256
_cell_formula_units_Z   4
loop_
 _symmetry_equiv_pos_site_id
 _symmetry_equiv_pos_as_xyz
  1  'x, y, z'
loop_
 _atom_site_type_symbol
 _atom_site_label
 _atom_site_symmetry_multiplicity
 _atom_site_fract_x
 _atom_site_fract_y
 _atom_site_fract_z
 _atom_site_occupancy
  W  W0  1  0.24480500  0.08118700  0.87642000  1
  W  W1  1  0.74480500  0.91881300  0.62358000  1
  W  W2  1  0.25519500  0.58118700  0.62358000  1
  W  W3  1  0.75519500  0.41881300  0.87642000  1
  W  W4  1  0.24480500  0.58118700  0.12358000  1
  W  W5  1  0.74480500  0.41881300  0.37642000  1
  W  W6  1  0.25519500  0.08118700  0.37642000  1
  W  W7  1  0.75519500  0.91881300  0.12358000  1
  C  C0  1  0.50000000  0.75000000  0.87825000  1
  C  C1  1  0.00000000  0.25000000  0.62175000  1
  C  C2  1  0.50000000  0.25000000  0.12175000  1
  C  C3  1  0.00000000  0.75000000  0.37825000  1
loop_
_geom_bond_atom_site_label_1
_geom_bond_atom_site_label_2
_geom_bond_distance
_geom_bond_site_symmetry_2
C0 W0 2.117061 1_565
C0 W3 2.117061 1_555
C0 W7 2.121936 1_556
C0 W4 2.121936 1_556
C0 W1 2.135295 1_555
C0 W2 2.135295 1_555
C1 W2 2.117061 1_555
C1 W1 2.117061 1_445
C1 W5 2.121936 1_455
C1 W6 2.121936 1_555
C1 W0 2.135295 1_555
C1 W3 2.135295 1_455
C2 W4 2.117061 1_555
C2 W7 2.117061 1_545
C2 W3 2.121936 1_554
C2 W0 2.121936 1_554
C2 W6 2.135295 1_555
C2 W5 2.135295 1_555
C3 W6 2.117061 1_565
C3 W5 2.117061 1_455
C3 W1 2.121936 1_455
C3 W2 2.121936 1_555
C3 W7 2.135295 1_455
C3 W4 2.135295 1_555
