# generated using pymatgen
data_MgFe8(O7F)2
_symmetry_space_group_name_H-M   'P 1'
_cell_length_a   5.19049007
_cell_length_b   5.20827525
_cell_length_c   11.77014289
_cell_angle_alpha   89.54183521
_cell_angle_beta   90.47357744
_cell_angle_gamma   102.01309897
_symmetry_Int_Tables_number   1
_chemical_formula_structural   MgFe8(O7F)2
_chemical_formula_sum   'Mg1 Fe8 O14 F2'
_cell_volume   311.20282386
_cell_formula_units_Z   1
loop_
 _symmetry_equiv_pos_site_id
 _symmetry_equiv_pos_as_xyz
  1  'x, y, z'
loop_
 _atom_site_type_symbol
 _atom_site_label
 _atom_site_symmetry_multiplicity
 _atom_site_fract_x
 _atom_site_fract_y
 _atom_site_fract_z
 _atom_site_occupancy
  Mg  Mg0  1  0.70496100  0.28195600  0.25006000  1
  Fe  Fe0  1  0.01100700  0.98609900  0.99749700  1
  Fe  Fe1  1  0.03622800  0.95601900  0.24977600  1
  Fe  Fe2  1  0.04815200  0.00408000  0.50184400  1
  Fe  Fe3  1  0.01799500  0.97298100  0.74959200  1
  Fe  Fe4  1  0.42404300  0.57567900  0.11793000  1
  Fe  Fe5  1  0.42157300  0.56164000  0.63257300  1
  Fe  Fe6  1  0.43947000  0.55600200  0.87503800  1
  Fe  Fe7  1  0.41776000  0.56543300  0.37555700  1
  O  O0  1  0.18880800  0.80882200  0.12759700  1
  O  O1  1  0.19507900  0.81329800  0.62502500  1
  O  O2  1  0.17541400  0.81705700  0.87148400  1
  O  O3  1  0.20092800  0.81379300  0.37464700  1
  O  O4  1  0.28555300  0.33256700  0.99490800  1
  O  O5  1  0.32864600  0.30294100  0.24734300  1
  O  O6  1  0.31581300  0.33467600  0.50238200  1
  O  O7  1  0.29294700  0.32367500  0.75735100  1
  O  O8  1  0.66461900  0.71026800  0.99406900  1
  O  O9  1  0.69497200  0.66052300  0.25120000  1
  O  O10  1  0.66774600  0.70356400  0.75396300  1
  O  O11  1  0.86950800  0.11667200  0.13543800  1
  O  O12  1  0.88011400  0.11968300  0.36511100  1
  O  O13  1  0.87795100  0.12237300  0.62711000  1
  F  F0  1  0.69108300  0.70189600  0.50042800  1
  F  F1  1  0.84407200  0.14997900  0.87207600  1
loop_
_geom_bond_atom_site_label_1
_geom_bond_atom_site_label_2
_geom_bond_distance
_geom_bond_site_symmetry_2
Mg0 O11 1.906384 1_555
Mg0 O12 1.912008 1_555
Mg0 O5 1.978881 1_555
Mg0 O9 1.983276 1_555
Fe0 O11 1.970587 1_466
Fe0 O2 2.014387 1_555
Fe0 O4 2.053599 1_565
Fe0 O8 2.054879 1_455
Fe0 O0 2.087532 1_556
Fe1 O11 1.877288 1_465
Fe1 O12 1.884209 1_465
Fe1 O0 1.890020 1_555
Fe1 O3 1.914447 1_555
Fe1 O9 2.090845 1_455
Fe1 O5 2.104179 1_565
Fe2 O13 1.896445 1_455
Fe2 O12 1.973122 1_455
Fe2 O6 1.974625 1_555
Fe2 O1 1.986236 1_545
Fe2 O3 2.054976 1_545
Fe3 O13 1.847228 1_465
Fe3 O2 1.903589 1_555
Fe3 O1 2.011510 1_555
Fe3 O10 2.053072 1_455
Fe3 O7 2.072831 1_565
Fe4 O0 1.897335 1_555
Fe4 O8 1.955858 1_554
Fe4 O4 1.962107 1_554
Fe4 O5 2.065968 1_555
Fe4 O9 2.085496 1_555
Fe5 O1 1.935392 1_555
Fe5 O7 1.944586 1_555
Fe5 O6 1.947247 1_555
Fe5 O10 1.952948 1_555
Fe6 O8 1.890547 1_555
Fe6 O7 1.894104 1_555
Fe6 O4 1.894319 1_555
Fe6 O10 1.912255 1_555
Fe6 O2 2.121967 1_555
Fe7 O3 1.882974 1_555
Fe7 O6 1.916343 1_555
Fe7 O5 2.029431 1_555
Fe7 O9 2.045633 1_555
F0 Fe7 2.059241 1_555
F0 Fe5 2.121813 1_555
F0 Fe2 2.167472 1_665
F1 Fe0 1.981185 1_645
F1 Fe3 2.032811 1_645
