# generated using pymatgen
data_Na4IrO4
_symmetry_space_group_name_H-M   'P 1'
_cell_length_a   4.69764581
_cell_length_b   5.53019827
_cell_length_c   5.53171008
_cell_angle_alpha   79.60144076
_cell_angle_beta   64.87397698
_cell_angle_gamma   64.86664205
_symmetry_Int_Tables_number   1
_chemical_formula_structural   Na4IrO4
_chemical_formula_sum   'Na4 Ir1 O4'
_cell_volume   117.79104883
_cell_formula_units_Z   1
loop_
 _symmetry_equiv_pos_site_id
 _symmetry_equiv_pos_as_xyz
  1  'x, y, z'
loop_
 _atom_site_type_symbol
 _atom_site_label
 _atom_site_symmetry_multiplicity
 _atom_site_fract_x
 _atom_site_fract_y
 _atom_site_fract_z
 _atom_site_occupancy
  Na  Na0  1  0.40970529  0.78646716  0.39412026  1
  Na  Na1  1  0.59029471  0.21353284  0.60587874  1
  Na  Na2  1  0.80358177  0.60627799  0.78655947  1
  Na  Na3  1  0.19641823  0.39372101  0.21344053  1
  Ir  Ir0  1  0.00000000  -0.00000000  -0.00000000  1
  O  O0  1  0.74230878  0.34349272  0.17189073  1
  O  O1  1  0.25769122  0.65650728  0.82810927  1
  O  O2  1  0.91410466  0.82825728  0.34353639  1
  O  O3  1  0.08589534  0.17174272  0.65646361  1
loop_
_geom_bond_atom_site_label_1
_geom_bond_atom_site_label_2
_geom_bond_distance
_geom_bond_site_symmetry_2
Na0 O1 2.268722 1_555
Na0 O3 2.334092 1_565
Na0 O2 2.371677 1_455
Na0 O2 2.371700 1_555
Na0 O0 2.481589 1_555
Na1 O0 2.268717 1_555
Na1 O2 2.334089 1_545
Na1 O3 2.371680 1_655
Na1 O3 2.371698 1_555
Na1 O1 2.481591 1_555
Na2 O3 2.271135 1_655
Na2 O0 2.335453 1_556
Na2 O1 2.371394 1_655
Na2 O1 2.371404 1_555
Na2 O2 2.481374 1_555
Na3 O2 2.271140 1_455
Na3 O1 2.335455 1_554
Na3 O0 2.371391 1_455
Na3 O0 2.371405 1_555
Na3 O3 2.481372 1_555
Ir0 O2 1.923279 1_445
Ir0 O3 1.923279 1_554
Ir0 O1 1.923314 1_544
Ir0 O0 1.923314 1_455
