# generated using pymatgen
data_Na2Nb2(SiO4)3
_symmetry_space_group_name_H-M   'P 1'
_cell_length_a   9.03263530
_cell_length_b   9.03263499
_cell_length_c   22.61171126
_cell_angle_alpha   90.18178745
_cell_angle_beta   89.81821249
_cell_angle_gamma   120.21928777
_symmetry_Int_Tables_number   1
_chemical_formula_structural   Na2Nb2(SiO4)3
_chemical_formula_sum   'Na12 Nb12 Si18 O72'
_cell_volume   1594.13900306
_cell_formula_units_Z   6
loop_
 _symmetry_equiv_pos_site_id
 _symmetry_equiv_pos_as_xyz
  1  'x, y, z'
loop_
 _atom_site_type_symbol
 _atom_site_label
 _atom_site_symmetry_multiplicity
 _atom_site_fract_x
 _atom_site_fract_y
 _atom_site_fract_z
 _atom_site_occupancy
  Na  Na0  1  0.36569555  0.36569555  0.25000000  1
  Na  Na1  1  0.63430445  0.63430445  0.75000000  1
  Na  Na2  1  0.03236255  0.69902855  0.58333300  1
  Na  Na3  1  0.30097145  0.96763745  0.08333300  1
  Na  Na4  1  0.69902855  0.03236255  0.91666700  1
  Na  Na5  1  0.96763745  0.30097145  0.41666700  1
  Na  Na6  1  0.00000000  0.00000000  0.50000000  1
  Na  Na7  1  0.00000000  0.00000000  0.00000000  1
  Na  Na8  1  0.66666700  0.33333300  0.83333300  1
  Na  Na9  1  0.66666700  0.33333300  0.33333300  1
  Na  Na10  1  0.33333300  0.66666700  0.16666700  1
  Na  Na11  1  0.33333300  0.66666700  0.66666700  1
  Nb  Nb0  1  -0.00121403  0.99408525  0.35542530  1
  Nb  Nb1  1  0.00591475  0.00121403  0.85542530  1
  Nb  Nb2  1  0.00121403  0.00591475  0.64457470  1
  Nb  Nb3  1  0.99408525  -0.00121403  0.14457470  1
  Nb  Nb4  1  0.66545297  0.32741825  0.68875830  1
  Nb  Nb5  1  0.67258175  0.33454703  0.18875830  1
  Nb  Nb6  1  0.66788103  0.33924775  0.97790770  1
  Nb  Nb7  1  0.66075225  0.33211897  0.47790770  1
  Nb  Nb8  1  0.33211897  0.66075225  0.02209230  1
  Nb  Nb9  1  0.33924775  0.66788103  0.52209230  1
  Nb  Nb10  1  0.33454703  0.67258175  0.31124170  1
  Nb  Nb11  1  0.32741825  0.66545297  0.81124170  1
  Si  Si0  1  0.28629656  0.99698676  0.24836480  1
  Si  Si1  1  0.71124030  0.71124030  0.25000000  1
  Si  Si2  1  0.99698676  0.28629656  0.25163520  1
  Si  Si3  1  0.28875970  0.28875970  0.75000000  1
  Si  Si4  1  0.00301324  0.71370344  0.74836480  1
  Si  Si5  1  0.71370344  0.00301324  0.75163520  1
  Si  Si6  1  0.95296356  0.33031976  0.58169780  1
  Si  Si7  1  0.37790730  0.04457330  0.58333300  1
  Si  Si8  1  0.66365376  0.61962956  0.58496820  1
  Si  Si9  1  0.95542670  0.62209270  0.08333300  1
  Si  Si10  1  0.66968024  0.04703644  0.08169780  1
  Si  Si11  1  0.38037044  0.33634624  0.08496820  1
  Si  Si12  1  0.61962956  0.66365376  0.91503180  1
  Si  Si13  1  0.04457330  0.37790730  0.91666700  1
  Si  Si14  1  0.33031976  0.95296356  0.91830220  1
  Si  Si15  1  0.62209270  0.95542670  0.41666700  1
  Si  Si16  1  0.33634624  0.38037044  0.41503180  1
  Si  Si17  1  0.04703644  0.66968024  0.41830220  1
  O  O0  1  0.19111706  0.02891364  0.30528417  1
  O  O1  1  0.82930398  0.80726679  0.30822211  1
  O  O2  1  0.97267257  0.17429600  0.31154443  1
  O  O3  1  0.19273321  0.17069602  0.80822211  1
  O  O4  1  0.97108636  0.80888294  0.80528417  1
  O  O5  1  0.82570400  0.02732743  0.81154443  1
  O  O6  1  0.80888294  0.97108636  0.69471583  1
  O  O7  1  0.17069602  0.19273321  0.69177789  1
  O  O8  1  0.02732743  0.82570400  0.68845557  1
  O  O9  1  0.80726679  0.82930398  0.19177789  1
  O  O10  1  0.02891364  0.19111706  0.19471583  1
  O  O11  1  0.17429600  0.97267257  0.18845557  1
  O  O12  1  0.85778406  0.36224664  0.63861717  1
  O  O13  1  0.49597098  0.14059979  0.64155511  1
  O  O14  1  0.63933957  0.50762900  0.64487743  1
  O  O15  1  0.85940021  0.50402902  0.14155511  1
  O  O16  1  0.63775336  0.14221594  0.13861717  1
  O  O17  1  0.49237100  0.36066043  0.14487743  1
  O  O18  1  0.47554994  0.30441936  0.02804883  1
  O  O19  1  0.83736302  0.52606621  0.02511089  1
  O  O20  1  0.69399443  0.15903700  0.02178857  1
  O  O21  1  0.47393379  0.16263698  0.52511089  1
  O  O22  1  0.69558064  0.52445006  0.52804883  1
  O  O23  1  0.84096300  0.30600557  0.52178857  1
  O  O24  1  0.52445006  0.69558064  0.97195117  1
  O  O25  1  0.16263698  0.47393379  0.97488911  1
  O  O26  1  0.30600557  0.84096300  0.97821143  1
  O  O27  1  0.52606621  0.83736302  0.47488911  1
  O  O28  1  0.30441936  0.47554994  0.47195117  1
  O  O29  1  0.15903700  0.69399443  0.47821143  1
  O  O30  1  0.14221594  0.63775336  0.36138283  1
  O  O31  1  0.50402902  0.85940021  0.35844489  1
  O  O32  1  0.36066043  0.49237100  0.35512257  1
  O  O33  1  0.14059979  0.49597098  0.85844489  1
  O  O34  1  0.36224664  0.85778406  0.86138283  1
  O  O35  1  0.50762900  0.63933957  0.85512257  1
  O  O36  1  0.02787744  0.83880362  0.41039380  1
  O  O37  1  0.81405895  0.97914637  0.41222008  1
  O  O38  1  0.16126370  0.19230415  0.41091764  1
  O  O39  1  0.02085363  0.18594105  0.91222008  1
  O  O40  1  0.16119638  0.97212256  0.91039380  1
  O  O41  1  0.80769585  0.83873630  0.91091764  1
  O  O42  1  0.97212256  0.16119638  0.58960620  1
  O  O43  1  0.18594105  0.02085363  0.58777992  1
  O  O44  1  0.83873630  0.80769585  0.58908236  1
  O  O45  1  0.97914637  0.81405895  0.08777992  1
  O  O46  1  0.83880362  0.02787744  0.08960620  1
  O  O47  1  0.19230415  0.16126370  0.08908236  1
  O  O48  1  0.69454444  0.17213662  0.74372680  1
  O  O49  1  0.48072595  0.31247937  0.74555308  1
  O  O50  1  0.82793070  0.52563715  0.74425064  1
  O  O51  1  0.68752063  0.51927405  0.24555308  1
  O  O52  1  0.82786338  0.30545556  0.24372680  1
  O  O53  1  0.47436285  0.17206930  0.24425064  1
  O  O54  1  0.63878956  0.49452938  0.92293920  1
  O  O55  1  0.85260805  0.35418663  0.92111292  1
  O  O56  1  0.50540330  0.14102885  0.92241536  1
  O  O57  1  0.64581337  0.14739195  0.42111292  1
  O  O58  1  0.50547062  0.36121044  0.42293920  1
  O  O59  1  0.85897115  0.49459670  0.42241536  1
  O  O60  1  0.36121044  0.50547062  0.07706080  1
  O  O61  1  0.14739195  0.64581337  0.07888708  1
  O  O62  1  0.49459670  0.85897115  0.07758464  1
  O  O63  1  0.35418663  0.85260805  0.57888708  1
  O  O64  1  0.49452938  0.63878956  0.57706080  1
  O  O65  1  0.14102885  0.50540330  0.57758464  1
  O  O66  1  0.30545556  0.82786338  0.25627320  1
  O  O67  1  0.51927405  0.68752063  0.25444692  1
  O  O68  1  0.17206930  0.47436285  0.25574936  1
  O  O69  1  0.31247937  0.48072595  0.75444692  1
  O  O70  1  0.17213662  0.69454444  0.75627320  1
  O  O71  1  0.52563715  0.82793070  0.75574936  1
loop_
_geom_bond_atom_site_label_1
_geom_bond_atom_site_label_2
_geom_bond_distance
_geom_bond_site_symmetry_2
Na0 O53 2.401040 1_555
Na0 O68 2.401040 1_555
Na0 O67 2.514856 1_555
Na0 O51 2.514856 1_555
Na0 O32 2.644970 1_555
Na0 O17 2.644970 1_555
Na0 O0 2.913092 1_555
Na0 O10 2.913092 1_555
Na1 O71 2.401040 1_555
Na1 O50 2.401040 1_555
Na1 O49 2.514856 1_555
Na1 O69 2.514856 1_555
Na1 O14 2.644970 1_555
Na1 O35 2.644970 1_555
Na1 O6 2.913092 1_555
Na1 O4 2.913092 1_555
Na2 O65 2.401024 1_555
Na2 O44 2.401040 1_455
Na2 O63 2.514847 1_555
Na2 O43 2.514856 1_565
Na2 O29 2.644944 1_555
Na2 O8 2.644970 1_555
Na2 O12 2.913092 1_455
Na2 O22 2.913092 1_455
Na3 O62 2.401024 1_555
Na3 O47 2.401040 1_565
Na3 O61 2.514847 1_555
Na3 O45 2.514856 1_455
Na3 O26 2.644944 1_554
Na3 O11 2.644970 1_555
Na3 O18 2.913092 1_565
Na3 O16 2.913092 1_565
Na4 O56 2.401024 1_555
Na4 O41 2.401040 1_545
Na4 O55 2.514847 1_555
Na4 O39 2.514856 1_655
Na4 O20 2.644944 1_556
Na4 O5 2.644970 1_555
Na4 O24 2.913092 1_545
Na4 O34 2.913092 1_545
Na5 O59 2.401024 1_555
Na5 O38 2.401040 1_655
Na5 O57 2.514847 1_555
Na5 O37 2.514856 1_545
Na5 O23 2.644944 1_555
Na5 O2 2.644970 1_555
Na5 O30 2.913092 1_655
Na5 O28 2.913092 1_655
Na6 O43 2.548783 1_555
Na6 O37 2.548783 1_445
Na6 O42 2.576007 1_455
Na6 O36 2.576007 1_545
Na6 O38 2.579353 1_555
Na6 O44 2.579353 1_445
Na7 O39 2.548783 1_554
Na7 O45 2.548783 1_445
Na7 O40 2.576007 1_544
Na7 O46 2.576007 1_455
Na7 O47 2.579353 1_555
Na7 O41 2.579353 1_444
Na8 O55 2.548783 1_555
Na8 O49 2.548783 1_555
Na8 O48 2.576007 1_555
Na8 O54 2.576007 1_555
Na8 O56 2.579353 1_555
Na8 O50 2.579353 1_555
Na9 O57 2.548783 1_555
Na9 O51 2.548783 1_555
Na9 O52 2.576007 1_555
Na9 O58 2.576007 1_555
Na9 O53 2.579353 1_555
Na9 O59 2.579353 1_555
Na10 O61 2.548783 1_555
Na10 O67 2.548783 1_555
Na10 O66 2.576007 1_555
Na10 O60 2.576007 1_555
Na10 O68 2.579353 1_555
Na10 O62 2.579353 1_555
Na11 O63 2.548783 1_555
Na11 O69 2.548783 1_555
Na11 O70 2.576007 1_555
Na11 O64 2.576007 1_555
Na11 O65 2.579353 1_555
Na11 O71 2.579353 1_555
Nb0 O1 1.931027 1_455
Nb0 O0 1.960127 1_565
Nb0 O36 1.991322 1_555
Nb0 O2 2.021887 1_465
Nb0 O37 2.052422 1_455
Nb0 O38 2.070355 1_565
Nb1 O3 1.931027 1_555
Nb1 O4 1.960127 1_445
Nb1 O40 1.991322 1_545
Nb1 O5 2.021887 1_455
Nb1 O39 2.052422 1_555
Nb1 O41 2.070355 1_445
Nb2 O7 1.931027 1_555
Nb2 O6 1.960127 1_445
Nb2 O42 1.991322 1_455
Nb2 O8 2.021887 1_545
Nb2 O43 2.052422 1_555
Nb2 O44 2.070355 1_445
Nb3 O9 1.931027 1_545
Nb3 O10 1.960127 1_655
Nb3 O46 1.991322 1_555
Nb3 O11 2.021887 1_645
Nb3 O45 2.052422 1_545
Nb3 O47 2.070355 1_655
Nb4 O13 1.931027 1_555
Nb4 O12 1.960127 1_555
Nb4 O48 1.991322 1_555
Nb4 O14 2.021887 1_555
Nb4 O49 2.052422 1_555
Nb4 O50 2.070355 1_555
Nb5 O15 1.931027 1_555
Nb5 O16 1.960127 1_555
Nb5 O52 1.991322 1_555
Nb5 O17 2.021887 1_555
Nb5 O51 2.052422 1_555
Nb5 O53 2.070355 1_555
Nb6 O19 1.931027 1_556
Nb6 O18 1.960127 1_556
Nb6 O54 1.991322 1_555
Nb6 O20 2.021887 1_556
Nb6 O55 2.052422 1_555
Nb6 O56 2.070355 1_555
Nb7 O21 1.931027 1_555
Nb7 O22 1.960127 1_555
Nb7 O58 1.991322 1_555
Nb7 O23 2.021887 1_555
Nb7 O57 2.052422 1_555
Nb7 O59 2.070355 1_555
Nb8 O25 1.931027 1_554
Nb8 O24 1.960127 1_554
Nb8 O60 1.991322 1_555
Nb8 O26 2.021887 1_554
Nb8 O61 2.052422 1_555
Nb8 O62 2.070355 1_555
Nb9 O27 1.931027 1_555
Nb9 O28 1.960127 1_555
Nb9 O64 1.991322 1_555
Nb9 O29 2.021887 1_555
Nb9 O63 2.052422 1_555
Nb9 O65 2.070355 1_555
Nb10 O31 1.931027 1_555
Nb10 O30 1.960127 1_555
Nb10 O66 1.991322 1_555
Nb10 O32 2.021887 1_555
Nb10 O67 2.052422 1_555
Nb10 O68 2.070355 1_555
Nb11 O33 1.931027 1_555
Nb11 O34 1.960127 1_555
Nb11 O70 1.991322 1_555
Nb11 O35 2.021887 1_555
Nb11 O69 2.052422 1_555
Nb11 O71 2.070355 1_555
O0 Si0 1.648928 1_545
O1 Si1 1.641135 1_555
O2 Si2 1.640098 1_555
O3 Si3 1.641135 1_555
O4 Si4 1.648928 1_655
O5 Si5 1.640098 1_555
O6 Si5 1.648928 1_565
O7 Si3 1.641135 1_555
O8 Si4 1.640098 1_555
O9 Si1 1.641135 1_555
O10 Si2 1.648928 1_455
O11 Si0 1.640098 1_555
O12 Si6 1.648928 1_555
O13 Si7 1.641135 1_555
O14 Si8 1.640098 1_555
O15 Si9 1.641135 1_555
O16 Si10 1.648928 1_555
O17 Si11 1.640098 1_555
O18 Si11 1.648928 1_555
O19 Si9 1.641135 1_555
O20 Si10 1.640098 1_555
O21 Si7 1.641135 1_555
O22 Si8 1.648928 1_555
O23 Si6 1.640098 1_555
O24 Si12 1.648928 1_555
O25 Si13 1.641135 1_555
O26 Si14 1.640098 1_555
O27 Si15 1.641135 1_555
O28 Si16 1.648928 1_555
O29 Si17 1.640098 1_555
O30 Si17 1.648928 1_555
O31 Si15 1.641135 1_555
O32 Si16 1.640098 1_555
O33 Si13 1.641135 1_555
O34 Si14 1.648928 1_555
O35 Si12 1.640098 1_555
O36 Si17 1.632062 1_555
O37 Si15 1.639421 1_555
O38 Si16 1.640434 1_555
O39 Si13 1.639421 1_555
O40 Si14 1.632062 1_555
O41 Si12 1.640434 1_555
O42 Si6 1.632062 1_555
O43 Si7 1.639421 1_555
O44 Si8 1.640434 1_555
O45 Si9 1.639421 1_555
O46 Si10 1.632062 1_555
O47 Si11 1.640434 1_555
O48 Si5 1.632062 1_555
O49 Si3 1.639421 1_555
O50 Si4 1.640434 1_655
O51 Si1 1.639421 1_555
O52 Si2 1.632062 1_555
O53 Si0 1.640434 1_545
O54 Si12 1.632073 1_555
O55 Si13 1.639408 1_655
O56 Si14 1.640432 1_545
O57 Si15 1.639408 1_545
O58 Si16 1.632073 1_555
O59 Si17 1.640432 1_655
O60 Si11 1.632073 1_555
O61 Si9 1.639408 1_455
O62 Si10 1.640432 1_565
O63 Si7 1.639408 1_565
O64 Si8 1.632073 1_555
O65 Si6 1.640432 1_455
O66 Si0 1.632062 1_555
O67 Si1 1.639421 1_555
O68 Si2 1.640434 1_455
O69 Si3 1.639421 1_555
O70 Si4 1.632062 1_555
O71 Si5 1.640434 1_565
