# generated using pymatgen
data_Tc2O7
_symmetry_space_group_name_H-M   'P 1'
_cell_length_a   5.51493846
_cell_length_b   7.27388761
_cell_length_c   13.75306598
_cell_angle_alpha   90.00000000
_cell_angle_beta   90.00000000
_cell_angle_gamma   90.00000000
_symmetry_Int_Tables_number   1
_chemical_formula_structural   Tc2O7
_chemical_formula_sum   'Tc8 O28'
_cell_volume   551.70482676
_cell_formula_units_Z   4
loop_
 _symmetry_equiv_pos_site_id
 _symmetry_equiv_pos_as_xyz
  1  'x, y, z'
loop_
 _atom_site_type_symbol
 _atom_site_label
 _atom_site_symmetry_multiplicity
 _atom_site_fract_x
 _atom_site_fract_y
 _atom_site_fract_z
 _atom_site_occupancy
  Tc  Tc0  1  0.79908946  0.48318245  0.60696313  1
  Tc  Tc1  1  0.29908946  0.51681755  0.89303687  1
  Tc  Tc2  1  0.70091054  0.98318245  0.39303687  1
  Tc  Tc3  1  0.20091054  0.01681755  0.10696313  1
  Tc  Tc4  1  0.20091054  0.51681755  0.39303687  1
  Tc  Tc5  1  0.70091054  0.48318245  0.10696313  1
  Tc  Tc6  1  0.29908946  0.01681755  0.60696313  1
  Tc  Tc7  1  0.79908946  0.98318245  0.89303687  1
  O  O0  1  0.56265194  0.62380459  0.58674422  1
  O  O1  1  0.06265194  0.37619541  0.91325578  1
  O  O2  1  0.93734806  0.12380459  0.41325578  1
  O  O3  1  0.43734806  0.87619541  0.08674422  1
  O  O4  1  0.43734806  0.37619541  0.41325578  1
  O  O5  1  0.93734806  0.62380459  0.08674422  1
  O  O6  1  0.06265194  0.87619541  0.58674422  1
  O  O7  1  0.56265194  0.12380459  0.91325578  1
  O  O8  1  0.00000000  -0.00000000  -0.00000000  1
  O  O9  1  0.50000000  -0.00000000  0.50000000  1
  O  O10  1  0.50000000  0.50000000  -0.00000000  1
  O  O11  1  0.00000000  0.50000000  0.50000000  1
  O  O12  1  0.69253280  0.76820186  0.88099781  1
  O  O13  1  0.19253280  0.23179814  0.61900219  1
  O  O14  1  0.80746720  0.26820186  0.11900319  1
  O  O15  1  0.30746720  0.73179814  0.38099781  1
  O  O16  1  0.30746720  0.23179814  0.11900319  1
  O  O17  1  0.80746720  0.76820186  0.38099781  1
  O  O18  1  0.19253280  0.73179814  0.88099781  1
  O  O19  1  0.69253280  0.26820186  0.61900219  1
  O  O20  1  0.93698297  0.04733113  0.79042509  1
  O  O21  1  0.43698297  0.95266887  0.70957491  1
  O  O22  1  0.56301703  0.54733113  0.20957491  1
  O  O23  1  0.06301703  0.45266887  0.29042509  1
  O  O24  1  0.06301703  0.95266887  0.20957491  1
  O  O25  1  0.56301703  0.04733113  0.29042509  1
  O  O26  1  0.43698297  0.45266887  0.79042509  1
  O  O27  1  0.93698297  0.54733113  0.70957491  1
loop_
_geom_bond_atom_site_label_1
_geom_bond_atom_site_label_2
_geom_bond_distance
_geom_bond_site_symmetry_2
O0 Tc0 1.680429 1_555
O1 Tc1 1.680429 1_555
O2 Tc2 1.680429 1_545
O3 Tc3 1.680429 1_565
O4 Tc4 1.680429 1_555
O5 Tc5 1.680429 1_555
O6 Tc6 1.680429 1_565
O7 Tc7 1.680429 1_545
O8 Tc3 1.845724 1_555
O8 Tc7 1.845724 1_444
O9 Tc6 1.845724 1_555
O9 Tc2 1.845724 1_545
O10 Tc5 1.845724 1_555
O10 Tc1 1.845724 1_554
O11 Tc4 1.845724 1_555
O11 Tc0 1.845724 1_455
O12 Tc7 1.678704 1_555
O13 Tc6 1.678704 1_555
O14 Tc5 1.678706 1_555
O15 Tc4 1.678704 1_555
O16 Tc3 1.678706 1_555
O17 Tc2 1.678704 1_555
O18 Tc1 1.678704 1_555
O19 Tc0 1.678704 1_555
O20 Tc7 1.669613 1_545
O21 Tc6 1.669613 1_565
O22 Tc5 1.669613 1_555
O23 Tc4 1.669613 1_555
O24 Tc3 1.669613 1_565
O25 Tc2 1.669613 1_545
O26 Tc1 1.669613 1_555
O27 Tc0 1.669613 1_555
