# generated using pymatgen
data_NdInCu2
_symmetry_space_group_name_H-M   'P 1'
_cell_length_a   4.76374182
_cell_length_b   4.76374114
_cell_length_c   4.76374155
_cell_angle_alpha   59.99999706
_cell_angle_beta   60.00000182
_cell_angle_gamma   59.99999232
_symmetry_Int_Tables_number   1
_chemical_formula_structural   NdInCu2
_chemical_formula_sum   'Nd1 In1 Cu2'
_cell_volume   76.44155879
_cell_formula_units_Z   1
loop_
 _symmetry_equiv_pos_site_id
 _symmetry_equiv_pos_as_xyz
  1  'x, y, z'
loop_
 _atom_site_type_symbol
 _atom_site_label
 _atom_site_symmetry_multiplicity
 _atom_site_fract_x
 _atom_site_fract_y
 _atom_site_fract_z
 _atom_site_occupancy
  Nd  Nd0  1  0.50000000  0.50000000  0.50000000  1
  In  In0  1  -0.00000000  0.00000000  -0.00000000  1
  Cu  Cu0  1  0.25000000  0.25000000  0.25000000  1
  Cu  Cu1  1  0.75000000  0.75000000  0.75000000  1
loop_
_geom_bond_atom_site_label_1
_geom_bond_atom_site_label_2
_geom_bond_distance
_geom_bond_site_symmetry_2
In0 Nd0 3.368474 1_455
In0 Nd0 3.368474 1_545
In0 Nd0 3.368474 1_454
In0 Nd0 3.368474 1_544
In0 Nd0 3.368474 1_554
In0 Nd0 3.368474 1_445
Cu0 Nd0 2.917184 1_545
Cu0 In0 2.917184 1_565
Cu0 In0 2.917184 1_556
Cu0 Nd0 2.917184 1_554
Cu0 Nd0 2.917184 1_555
Cu0 In0 2.917184 1_555
Cu0 Nd0 2.917184 1_455
Cu0 In0 2.917184 1_655
Cu1 Nd0 2.917184 1_565
Cu1 In0 2.917184 1_656
Cu1 In0 2.917184 1_665
Cu1 Nd0 2.917184 1_556
Cu1 In0 2.917184 1_666
Cu1 Nd0 2.917184 1_555
Cu1 In0 2.917184 1_566
Cu1 Nd0 2.917184 1_655
