# generated using pymatgen
data_Na7Zn2Ga2P5SO24
_symmetry_space_group_name_H-M   'P 1'
_cell_length_a   8.91297504
_cell_length_b   8.90202535
_cell_length_c   21.91349004
_cell_angle_alpha   90.57524307
_cell_angle_beta   89.73078303
_cell_angle_gamma   119.91032030
_symmetry_Int_Tables_number   1
_chemical_formula_structural   Na7Zn2Ga2P5SO24
_chemical_formula_sum   'Na21 Zn6 Ga6 P15 S3 O72'
_cell_volume   1507.03567941
_cell_formula_units_Z   3
loop_
 _symmetry_equiv_pos_site_id
 _symmetry_equiv_pos_as_xyz
  1  'x, y, z'
loop_
 _atom_site_type_symbol
 _atom_site_label
 _atom_site_symmetry_multiplicity
 _atom_site_fract_x
 _atom_site_fract_y
 _atom_site_fract_z
 _atom_site_occupancy
  Na  Na0  1  0.63665941  0.99685018  0.25124731  1
  Na  Na1  1  0.00093677  0.63004129  0.25305521  1
  Na  Na2  1  0.63178141  0.63702220  0.74896663  1
  Na  Na3  1  0.00488088  0.36912312  0.75145588  1
  Na  Na4  1  0.36562694  0.99482417  0.75151864  1
  Na  Na5  1  0.29367382  0.33225437  0.58499332  1
  Na  Na6  1  0.04064194  0.70786142  0.58274420  1
  Na  Na7  1  0.66817360  0.95963879  0.58364565  1
  Na  Na8  1  0.29425057  0.96066886  0.08127222  1
  Na  Na9  1  0.66669964  0.70560692  0.08538539  1
  Na  Na10  1  0.04074333  0.33263037  0.08377305  1
  Na  Na11  1  0.97847851  0.66851494  0.91639621  1
  Na  Na12  1  0.33009061  0.30156340  0.91878832  1
  Na  Na13  1  0.96765461  0.30733375  0.41509562  1
  Na  Na14  1  0.69813593  0.66995374  0.41801731  1
  Na  Na15  1  0.00627799  0.99599219  0.50103453  1
  Na  Na16  1  0.99693417  0.00555106  0.00054367  1
  Na  Na17  1  0.66848024  0.31937701  0.83460651  1
  Na  Na18  1  0.65758846  0.32853045  0.33338518  1
  Na  Na19  1  0.33455887  0.65122398  0.16808331  1
  Na  Na20  1  0.33405640  0.66779340  0.66666430  1
  Zn  Zn0  1  0.99923732  0.99970307  0.65177601  1
  Zn  Zn1  1  0.99498379  0.00311647  0.15079554  1
  Zn  Zn2  1  0.32381436  0.66560518  0.01445988  1
  Zn  Zn3  1  0.33501919  0.68146369  0.51386481  1
  Zn  Zn4  1  0.33233336  0.66101940  0.31980070  1
  Zn  Zn5  1  0.32622132  0.67070586  0.81989114  1
  Ga  Ga0  1  0.98660810  0.98979846  0.34750144  1
  Ga  Ga1  1  0.00510352  0.01049877  0.84598532  1
  Ga  Ga2  1  0.66727875  0.33385967  0.68291102  1
  Ga  Ga3  1  0.67098800  0.34181637  0.18184337  1
  Ga  Ga4  1  0.66688726  0.31812244  0.98497248  1
  Ga  Ga5  1  0.66953485  0.32724478  0.48524650  1
  P  P0  1  0.70177835  0.69912899  0.24829116  1
  P  P1  1  0.00033879  0.29477118  0.24963584  1
  P  P2  1  0.29879465  0.29620937  0.74903111  1
  P  P3  1  0.99609512  0.70540122  0.74934154  1
  P  P4  1  0.70784661  0.00173693  0.74890360  1
  P  P5  1  0.95797682  0.33393579  0.58364227  1
  P  P6  1  0.38045681  0.04781513  0.58366745  1
  P  P7  1  0.66471782  0.61886451  0.58261480  1
  P  P8  1  0.95462196  0.62165200  0.08253509  1
  P  P9  1  0.66550201  0.04314006  0.08526914  1
  P  P10  1  0.38189849  0.33421345  0.08255486  1
  P  P11  1  0.02988513  0.36265373  0.91662136  1
  P  P12  1  0.33434914  0.96930024  0.91649340  1
  P  P13  1  0.63149122  0.96778643  0.41599512  1
  P  P14  1  0.03362836  0.67017797  0.41630379  1
  S  S0  1  0.29346802  0.00570467  0.24954022  1
  S  S1  1  0.63412474  0.66985303  0.91680109  1
  S  S2  1  0.33259614  0.36436593  0.41715290  1
  O  O0  1  0.20764813  0.03007544  0.30412608  1
  O  O1  1  0.82166437  0.78058993  0.30610650  1
  O  O2  1  0.96864043  0.17662933  0.30690532  1
  O  O3  1  0.21770880  0.17876417  0.80623962  1
  O  O4  1  0.96289893  0.79030107  0.80710876  1
  O  O5  1  0.83085193  0.03800178  0.80412467  1
  O  O6  1  0.78068430  0.96639802  0.69024166  1
  O  O7  1  0.18556959  0.21876149  0.69212450  1
  O  O8  1  0.03007234  0.81597301  0.69231482  1
  O  O9  1  0.78363979  0.81137178  0.19173986  1
  O  O10  1  0.02747164  0.21623977  0.19135268  1
  O  O11  1  0.19054720  0.97599852  0.19347576  1
  O  O12  1  0.87311043  0.36545765  0.64112025  1
  O  O13  1  0.49204377  0.12782658  0.64238704  1
  O  O14  1  0.63578784  0.50702961  0.64058415  1
  O  O15  1  0.87468127  0.50896638  0.14044182  1
  O  O16  1  0.63308948  0.12661147  0.14337901  1
  O  O17  1  0.49952371  0.36524188  0.13853243  1
  O  O18  1  0.46476447  0.30533964  0.02392869  1
  O  O19  1  0.83765427  0.53559466  0.02569325  1
  O  O20  1  0.70072015  0.16091989  0.02967024  1
  O  O21  1  0.46803464  0.16653157  0.52856999  1
  O  O22  1  0.69308131  0.53226680  0.52506849  1
  O  O23  1  0.84512386  0.30332060  0.52599271  1
  O  O24  1  0.55587434  0.69525402  0.97257184  1
  O  O25  1  0.14614484  0.43883305  0.97373566  1
  O  O26  1  0.29776942  0.85657612  0.97361845  1
  O  O27  1  0.55948479  0.85270211  0.47294549  1
  O  O28  1  0.29859379  0.43840657  0.47336346  1
  O  O29  1  0.13809922  0.69752771  0.47498356  1
  O  O30  1  0.11062741  0.63024177  0.35963028  1
  O  O31  1  0.52519078  0.88815237  0.35800531  1
  O  O32  1  0.36696669  0.47727814  0.36397643  1
  O  O33  1  0.10693287  0.47647243  0.85953044  1
  O  O34  1  0.36619561  0.89235778  0.85840208  1
  O  O35  1  0.52548653  0.63842818  0.86185968  1
  O  O36  1  0.00997072  0.83249298  0.40861296  1
  O  O37  1  0.82004901  0.98998181  0.40965857  1
  O  O38  1  0.17376095  0.19121303  0.40861849  1
  O  O39  1  0.01643630  0.18150016  0.90847064  1
  O  O40  1  0.16528523  0.98493010  0.90975154  1
  O  O41  1  0.81149143  0.82289632  0.91080503  1
  O  O42  1  0.97339491  0.16892645  0.58662282  1
  O  O43  1  0.19865444  0.02900329  0.58663635  1
  O  O44  1  0.82913833  0.79955000  0.58562851  1
  O  O45  1  0.97313767  0.80345261  0.08698916  1
  O  O46  1  0.82926963  0.02529691  0.08762247  1
  O  O47  1  0.20138604  0.16944308  0.08646519  1
  O  O48  1  0.69245891  0.16982327  0.74519422  1
  O  O49  1  0.48069666  0.30967476  0.74443433  1
  O  O50  1  0.82847567  0.52230949  0.74508396  1
  O  O51  1  0.69348565  0.51931088  0.24363353  1
  O  O52  1  0.82708316  0.30446770  0.24630946  1
  O  O53  1  0.47041247  0.16068875  0.24621270  1
  O  O54  1  0.65193441  0.51022974  0.92127232  1
  O  O55  1  0.85088313  0.35402567  0.92456261  1
  O  O56  1  0.49317313  0.15683367  0.92338205  1
  O  O57  1  0.65756513  0.15419484  0.42367442  1
  O  O58  1  0.49152369  0.34984542  0.42324332  1
  O  O59  1  0.84620603  0.50450472  0.42231750  1
  O  O60  1  0.36426502  0.49834230  0.07903670  1
  O  O61  1  0.13573640  0.63799830  0.07914942  1
  O  O62  1  0.50158790  0.86241014  0.07980371  1
  O  O63  1  0.36428440  0.86622584  0.57985369  1
  O  O64  1  0.50018380  0.63523047  0.57887025  1
  O  O65  1  0.13862337  0.49801487  0.57954231  1
  O  O66  1  0.31269504  0.84879048  0.25506323  1
  O  O67  1  0.52562302  0.68864361  0.25672206  1
  O  O68  1  0.15393951  0.48033938  0.25637077  1
  O  O69  1  0.32167270  0.47900515  0.75730270  1
  O  O70  1  0.15587406  0.68177549  0.75523733  1
  O  O71  1  0.52609309  0.84093266  0.75654530  1
loop_
_geom_bond_atom_site_label_1
_geom_bond_atom_site_label_2
_geom_bond_distance
_geom_bond_site_symmetry_2
Na0 O52 2.400072 1_565
Na0 O67 2.412274 1_555
Na0 O66 2.507239 1_555
Na0 O31 2.541895 1_555
Na0 O53 2.548532 1_565
Na0 O16 2.648577 1_565
Na0 O2 2.841874 1_565
Na0 O9 2.870674 1_555
Na1 O68 2.335858 1_555
Na1 O51 2.414729 1_455
Na1 O66 2.473503 1_555
Na1 O52 2.517463 1_455
Na1 O30 2.535689 1_555
Na1 O15 2.698317 1_455
Na1 O1 2.790627 1_455
Na1 O11 2.985756 1_555
Na2 O69 2.403055 1_555
Na2 O50 2.430177 1_555
Na2 O71 2.430580 1_555
Na2 O49 2.529216 1_555
Na2 O14 2.639397 1_555
Na2 O35 2.647073 1_555
Na2 O4 2.859964 1_555
Na2 O6 2.862438 1_555
Na3 O70 2.413578 1_555
Na3 O48 2.447915 1_455
Na3 O69 2.488406 1_555
Na3 O33 2.541122 1_555
Na3 O50 2.548600 1_455
Na3 O12 2.685752 1_455
Na3 O5 2.813969 1_455
Na3 O7 2.858473 1_555
Na4 O71 2.427546 1_555
Na4 O49 2.464174 1_565
Na4 O70 2.464784 1_555
Na4 O34 2.523000 1_555
Na4 O48 2.531146 1_565
Na4 O13 2.662995 1_565
Na4 O3 2.820623 1_565
Na4 O8 2.899832 1_555
Na5 O43 2.393264 1_555
Na5 O64 2.394642 1_555
Na5 O42 2.474883 1_455
Na5 O65 2.477959 1_555
Na5 O7 2.552641 1_555
Na5 O28 2.623522 1_555
Na5 O21 2.890000 1_555
Na5 O14 2.910007 1_555
Na6 O44 2.399216 1_455
Na6 O65 2.425075 1_555
Na6 O43 2.478806 1_565
Na6 O63 2.501387 1_555
Na6 O29 2.528894 1_555
Na6 O8 2.596568 1_555
Na7 O63 2.406072 1_555
Na7 O42 2.412605 1_565
Na7 O44 2.476286 1_555
Na7 O64 2.505168 1_555
Na7 O6 2.534687 1_555
Na7 O27 2.604867 1_555
Na8 O47 2.383505 1_565
Na8 O62 2.406688 1_555
Na8 O45 2.484208 1_455
Na8 O61 2.489931 1_555
Na8 O26 2.531648 1_554
Na8 O11 2.648814 1_555
Na9 O60 2.393358 1_555
Na9 O45 2.418163 1_555
Na9 O46 2.467072 1_565
Na9 O62 2.486539 1_555
Na9 O9 2.530731 1_555
Na9 O24 2.650144 1_554
Na9 O17 2.882566 1_555
Na9 O19 2.926536 1_555
Na10 O61 2.413744 1_555
Na10 O46 2.430075 1_455
Na10 O47 2.498144 1_555
Na10 O60 2.501958 1_555
Na10 O10 2.563058 1_555
Na10 O25 2.594124 1_554
Na10 O20 2.881702 1_455
Na10 O15 2.908195 1_455
Na11 O55 2.448677 1_555
Na11 O40 2.460943 1_655
Na11 O41 2.482725 1_555
Na11 O54 2.525459 1_555
Na11 O4 2.671225 1_555
Na11 O19 2.694335 1_556
Na11 O33 2.771657 1_655
Na11 O26 2.777381 1_655
Na12 O56 2.377924 1_555
Na12 O40 2.450352 1_545
Na12 O39 2.455616 1_555
Na12 O54 2.523408 1_555
Na12 O18 2.595098 1_556
Na12 O3 2.675482 1_555
Na12 O25 2.753351 1_555
Na12 O35 2.903151 1_555
Na13 O57 2.403164 1_555
Na13 O37 2.452381 1_545
Na13 O59 2.482985 1_555
Na13 O38 2.520267 1_655
Na13 O2 2.632360 1_555
Na13 O23 2.652823 1_555
Na13 O30 2.786861 1_655
Na13 O28 2.874956 1_655
Na14 O36 2.418875 1_655
Na14 O59 2.421216 1_555
Na14 O37 2.500371 1_555
Na14 O58 2.509142 1_555
Na14 O22 2.647472 1_555
Na14 O1 2.671697 1_555
Na14 O27 2.752137 1_555
Na14 O32 2.828407 1_555
Na15 O43 2.462067 1_565
Na15 O36 2.491827 1_555
Na15 O44 2.504256 1_455
Na15 O42 2.521969 1_465
Na15 O37 2.589973 1_455
Na15 O38 2.608612 1_565
Na16 O46 2.476644 1_555
Na16 O47 2.513965 1_655
Na16 O39 2.518539 1_654
Na16 O40 2.546160 1_644
Na16 O41 2.555180 1_544
Na16 O45 2.560129 1_545
Na17 O48 2.425812 1_555
Na17 O56 2.468369 1_555
Na17 O55 2.478277 1_555
Na17 O49 2.568419 1_555
Na17 O50 2.573176 1_555
Na17 O54 2.587951 1_555
Na18 O53 2.480212 1_555
Na18 O52 2.501301 1_555
Na18 O58 2.519795 1_555
Na18 O51 2.524706 1_555
Na18 O57 2.526760 1_555
Na18 O59 2.534012 1_555
Na19 O60 2.455839 1_555
Na19 O67 2.497242 1_555
Na19 O68 2.497254 1_555
Na19 O62 2.597646 1_555
Na19 O61 2.602306 1_555
Na19 O66 2.652378 1_555
Na20 O65 2.512186 1_555
Na20 O64 2.523459 1_555
Na20 O63 2.529782 1_555
Na20 O70 2.543275 1_555
Na20 O71 2.554279 1_555
Na20 O69 2.581001 1_555
Ga0 O1 1.923718 1_555
Ga0 O2 1.969736 1_565
Ga0 O37 2.010593 1_555
Ga0 O36 2.031932 1_655
Ga0 O0 2.048947 1_665
Ga0 O38 2.186564 1_665
Ga1 O5 1.926303 1_455
Ga1 O3 1.942435 1_555
Ga1 O4 1.985898 1_445
Ga1 O39 2.002119 1_555
Ga1 O40 2.095685 1_545
Ga1 O41 2.221495 1_445
Ga2 O13 1.927547 1_555
Ga2 O12 1.938602 1_555
Ga2 O14 1.943752 1_555
Ga2 O49 2.063307 1_555
Ga2 O50 2.074490 1_555
Ga2 O48 2.101249 1_555
Ga3 O17 1.901386 1_555
Ga3 O15 1.910701 1_555
Ga3 O16 1.954375 1_555
Ga3 O51 2.003456 1_555
Ga3 O52 2.128627 1_555
Ga3 O53 2.220975 1_555
Ga4 O20 1.860068 1_556
Ga4 O18 1.941702 1_556
Ga4 O19 1.974900 1_556
Ga4 O55 2.002344 1_555
Ga4 O56 2.010985 1_555
Ga4 O54 2.273291 1_555
Ga5 O21 1.903260 1_555
Ga5 O23 1.908208 1_555
Ga5 O22 1.929850 1_555
Ga5 O57 2.000180 1_555
Ga5 O59 2.101533 1_555
Ga5 O58 2.178986 1_555
O0 S0 1.488173 1_555
O1 P0 1.579329 1_555
O2 P1 1.577244 1_655
O3 P2 1.565647 1_555
O4 P3 1.568912 1_555
O5 P4 1.556325 1_555
O6 P4 1.536431 1_565
O6 Zn0 2.001641 1_555
O7 P2 1.532811 1_555
O7 Zn0 2.022878 1_445
O8 P3 1.531693 1_455
O8 Zn0 2.004878 1_455
O9 P0 1.534845 1_555
O9 Zn1 2.018711 1_565
O10 P1 1.525186 1_555
O10 Zn1 1.973292 1_455
O11 S0 1.477480 1_565
O11 Zn1 2.100175 1_465
O12 P5 1.559801 1_555
O13 P6 1.561848 1_555
O14 P7 1.561287 1_555
O15 P8 1.558335 1_555
O16 P9 1.564849 1_555
O17 P10 1.548098 1_555
O18 P10 1.560710 1_555
O19 P8 1.556221 1_555
O20 P9 1.541457 1_555
O21 P6 1.542076 1_555
O22 P7 1.555716 1_555
O23 P5 1.553575 1_555
O24 S1 1.474749 1_555
O24 Zn2 2.152411 1_556
O25 P11 1.547389 1_555
O25 Zn2 2.041650 1_556
O26 P12 1.541230 1_555
O26 Zn2 2.042313 1_556
O27 P13 1.543160 1_555
O27 Zn3 2.024720 1_555
O28 S2 1.490950 1_555
O28 Zn3 2.199613 1_555
O29 P14 1.535796 1_555
O29 Zn3 2.023297 1_555
O30 P14 1.538241 1_555
O30 Zn4 2.047028 1_555
O31 P13 1.529194 1_555
O31 Zn4 2.063313 1_555
O32 S2 1.474832 1_555
O32 Zn4 2.060571 1_555
O33 P11 1.544933 1_555
O33 Zn5 2.051393 1_555
O34 P12 1.530749 1_555
O34 Zn5 2.000183 1_555
O35 S1 1.483041 1_555
O35 Zn5 2.147627 1_555
O36 P14 1.571550 1_555
O37 P13 1.596863 1_555
O38 S2 1.495181 1_555
O39 P11 1.564767 1_555
O40 P12 1.588527 1_555
O41 S1 1.492059 1_555
O42 P5 1.544083 1_555
O42 Zn0 2.180167 1_545
O43 P6 1.544856 1_555
O43 Zn0 2.187704 1_445
O44 P7 1.545039 1_555
O44 Zn0 2.202076 1_555
O45 P8 1.544856 1_555
O45 Zn1 2.181660 1_565
O46 P9 1.546151 1_555
O46 Zn1 2.110092 1_555
O47 P10 1.547608 1_555
O47 Zn1 2.205665 1_455
O48 P4 1.572122 1_555
O49 P2 1.567796 1_555
O50 P3 1.570690 1_555
O51 P0 1.567502 1_555
O52 P1 1.591071 1_655
O53 S0 1.492320 1_555
O54 S1 1.510578 1_555
O55 P11 1.567502 1_655
O56 P12 1.566463 1_545
O57 P13 1.564014 1_545
O58 S2 1.491902 1_555
O59 P14 1.589922 1_655
O60 P10 1.548155 1_555
O60 Zn2 2.220819 1_555
O61 P8 1.548344 1_455
O61 Zn2 2.110407 1_555
O62 P9 1.546239 1_565
O62 Zn2 2.198378 1_555
O63 P6 1.551095 1_565
O63 Zn3 2.095769 1_555
O64 P7 1.546929 1_555
O64 Zn3 2.236379 1_555
O65 P5 1.545908 1_455
O65 Zn3 2.230483 1_555
O66 S0 1.495840 1_565
O66 Zn4 2.275724 1_555
O67 P0 1.536042 1_555
O67 Zn4 2.121576 1_555
O68 P1 1.538346 1_555
O68 Zn4 2.114850 1_555
O69 P2 1.544634 1_555
O69 Zn5 2.163214 1_555
O70 P3 1.545955 1_455
O70 Zn5 2.120017 1_555
O71 P4 1.546310 1_565
O71 Zn5 2.173378 1_555
