# generated using pymatgen
data_MgCr(CoO3)2
_symmetry_space_group_name_H-M   'P 1'
_cell_length_a   6.43341462
_cell_length_b   3.01112373
_cell_length_c   5.96959368
_cell_angle_alpha   89.88982834
_cell_angle_beta   103.13892546
_cell_angle_gamma   76.55810784
_symmetry_Int_Tables_number   1
_chemical_formula_structural   MgCr(CoO3)2
_chemical_formula_sum   'Mg1 Cr1 Co2 O6'
_cell_volume   109.34633776
_cell_formula_units_Z   1
loop_
 _symmetry_equiv_pos_site_id
 _symmetry_equiv_pos_as_xyz
  1  'x, y, z'
loop_
 _atom_site_type_symbol
 _atom_site_label
 _atom_site_symmetry_multiplicity
 _atom_site_fract_x
 _atom_site_fract_y
 _atom_site_fract_z
 _atom_site_occupancy
  Mg  Mg0  1  0.99924800  0.99594100  0.50203900  1
  Cr  Cr0  1  0.35971500  0.33757600  0.31130000  1
  Co  Co0  1  0.99414000  0.00208000  0.99959200  1
  Co  Co1  1  0.64402600  0.67614200  0.69641700  1
  O  O0  1  0.03356900  0.47259200  0.25841900  1
  O  O1  1  0.34123600  0.84095400  0.53683500  1
  O  O2  1  0.69133400  0.15126100  0.91744000  1
  O  O3  1  0.31932000  0.82700000  0.10155500  1
  O  O4  1  0.65880900  0.17063200  0.45384600  1
  O  O5  1  0.97892600  0.50930100  0.74941000  1
loop_
_geom_bond_atom_site_label_1
_geom_bond_atom_site_label_2
_geom_bond_distance
_geom_bond_site_symmetry_2
Mg0 O4 2.081756 1_565
Mg0 O1 2.101451 1_655
Mg0 O0 2.123448 1_665
Mg0 O5 2.124493 1_555
Mg0 O5 2.142384 1_565
Mg0 O0 2.154105 1_655
Cr0 O3 1.863874 1_555
Cr0 O4 1.866436 1_555
Cr0 O0 1.992310 1_555
Cr0 O3 2.010999 1_545
Cr0 O1 2.030045 1_555
Cr0 O1 2.051991 1_545
Co0 O2 1.842626 1_555
Co0 O3 1.982943 1_646
Co0 O5 2.104283 1_555
Co0 O5 2.109830 1_545
Co0 O0 2.110974 1_656
Co0 O0 2.148938 1_646
Co1 O1 1.911409 1_555
Co1 O2 1.976704 1_565
Co1 O2 1.979191 1_555
Co1 O5 2.044711 1_555
Co1 O4 2.103955 1_555
Co1 O4 2.107862 1_565
