# generated using pymatgen
data_Na8Nb2Zn2Si5SO24
_symmetry_space_group_name_H-M   'P 1'
_cell_length_a   9.21590036
_cell_length_b   9.20724393
_cell_length_c   22.30271573
_cell_angle_alpha   90.22595217
_cell_angle_beta   89.84879977
_cell_angle_gamma   120.25563830
_symmetry_Int_Tables_number   1
_chemical_formula_structural   Na8Nb2Zn2Si5SO24
_chemical_formula_sum   'Na24 Nb6 Zn6 Si15 S3 O72'
_cell_volume   1634.66133929
_cell_formula_units_Z   3
loop_
 _symmetry_equiv_pos_site_id
 _symmetry_equiv_pos_as_xyz
  1  'x, y, z'
loop_
 _atom_site_type_symbol
 _atom_site_label
 _atom_site_symmetry_multiplicity
 _atom_site_fract_x
 _atom_site_fract_y
 _atom_site_fract_z
 _atom_site_occupancy
  Na  Na0  1  0.64193402  0.02700142  0.24477075  1
  Na  Na1  1  0.37390883  0.35079075  0.24937699  1
  Na  Na2  1  0.98218642  0.62020023  0.24475508  1
  Na  Na3  1  0.62201652  0.63993668  0.76074796  1
  Na  Na4  1  0.01438496  0.37727279  0.76020875  1
  Na  Na5  1  0.36110390  0.98330781  0.75616094  1
  Na  Na6  1  0.29374694  0.35087822  0.57915358  1
  Na  Na7  1  0.05113969  0.70065767  0.58350466  1
  Na  Na8  1  0.64801261  0.94567499  0.57883014  1
  Na  Na9  1  0.31138227  0.95433384  0.08330387  1
  Na  Na10  1  0.65560090  0.70338528  0.07191565  1
  Na  Na11  1  0.03636113  0.35089692  0.07625754  1
  Na  Na12  1  0.97785620  0.68494836  0.90322776  1
  Na  Na13  1  0.71766134  0.01937979  0.91031118  1
  Na  Na14  1  0.32092822  0.30527679  0.90636942  1
  Na  Na15  1  0.97392823  0.28004490  0.41184377  1
  Na  Na16  1  0.31922384  0.03352669  0.40661717  1
  Na  Na17  1  0.70580745  0.68537188  0.41193911  1
  Na  Na18  1  0.99932649  0.01071575  0.49500329  1
  Na  Na19  1  0.98787480  0.99876722  0.99025594  1
  Na  Na20  1  0.66935338  0.34051697  0.83111121  1
  Na  Na21  1  0.66388010  0.32984425  0.32285297  1
  Na  Na22  1  0.33077351  0.67723155  0.15813550  1
  Na  Na23  1  0.33274789  0.66549743  0.66978508  1
  Nb  Nb0  1  0.99732638  0.99887118  0.64795240  1
  Nb  Nb1  1  0.99046487  0.99422587  0.15054996  1
  Nb  Nb2  1  0.66800234  0.33463869  0.68731940  1
  Nb  Nb3  1  0.69046249  0.34629454  0.98070109  1
  Nb  Nb4  1  0.65559146  0.32425413  0.48056104  1
  Nb  Nb5  1  0.34884760  0.67147487  0.31053996  1
  Zn  Zn0  1  0.99989686  0.00986968  0.34515665  1
  Zn  Zn1  1  0.98867753  0.00220794  0.84404842  1
  Zn  Zn2  1  0.67993249  0.33047391  0.18488901  1
  Zn  Zn3  1  0.33703774  0.66816822  0.01037318  1
  Zn  Zn4  1  0.34603858  0.66323344  0.52172967  1
  Zn  Zn5  1  0.32894053  0.64249838  0.81318487  1
  Si  Si0  1  0.29078279  0.99848689  0.25344637  1
  Si  Si1  1  0.70970257  0.70310794  0.25462382  1
  Si  Si2  1  0.00173266  0.29693588  0.25334575  1
  Si  Si3  1  0.29282776  0.28816812  0.75211882  1
  Si  Si4  1  0.00036566  0.70841698  0.75195883  1
  Si  Si5  1  0.70388287  0.00151818  0.75161624  1
  Si  Si6  1  0.95710814  0.33178621  0.58242016  1
  Si  Si7  1  0.36847879  0.03799227  0.58459268  1
  Si  Si8  1  0.67100570  0.62635811  0.58317099  1
  Si  Si9  1  0.96854509  0.63509824  0.08790380  1
  Si  Si10  1  0.66363699  0.03638758  0.08666699  1
  Si  Si11  1  0.62667224  0.66534579  0.91799385  1
  Si  Si12  1  0.04909595  0.37502131  0.91762322  1
  Si  Si13  1  0.62843229  0.96033479  0.42058152  1
  Si  Si14  1  0.33193348  0.37293364  0.42019152  1
  S  S0  1  0.37186881  0.32693533  0.08539451  1
  S  S1  1  0.33931841  0.96893054  0.91913370  1
  S  S2  1  0.04028145  0.66064586  0.41788057  1
  O  O0  1  0.20769947  0.02376629  0.31260961  1
  O  O1  1  0.82067990  0.78392533  0.31311460  1
  O  O2  1  0.96887496  0.18699150  0.31227941  1
  O  O3  1  0.22136481  0.17054417  0.81039439  1
  O  O4  1  0.95600878  0.78270005  0.80986643  1
  O  O5  1  0.82095706  0.05348708  0.81012014  1
  O  O6  1  0.80803479  0.98100958  0.69210645  1
  O  O7  1  0.17025348  0.18453623  0.69229358  1
  O  O8  1  0.01545165  0.82817352  0.69170851  1
  O  O9  1  0.80169543  0.83399185  0.19504579  1
  O  O10  1  0.03395796  0.19956921  0.19379766  1
  O  O11  1  0.16233839  0.96882132  0.19364746  1
  O  O12  1  0.85466042  0.34957098  0.63985997  1
  O  O13  1  0.49361100  0.14136127  0.64029828  1
  O  O14  1  0.65325308  0.50500286  0.63983363  1
  O  O15  1  0.87809702  0.52234018  0.14520214  1
  O  O16  1  0.63088300  0.11670195  0.14534236  1
  O  O17  1  0.46887544  0.34639352  0.13997417  1
  O  O18  1  0.45544158  0.30695676  0.03091328  1
  O  O19  1  0.84048131  0.53528735  0.02795026  1
  O  O20  1  0.69081465  0.16573387  0.02840506  1
  O  O21  1  0.46635314  0.16498256  0.52478461  1
  O  O22  1  0.69744823  0.52907719  0.52384689  1
  O  O23  1  0.83016217  0.30344361  0.52369665  1
  O  O24  1  0.54718692  0.69562488  0.97842031  1
  O  O25  1  0.14691096  0.45806535  0.97972930  1
  O  O26  1  0.31962327  0.87036714  0.97400539  1
  O  O27  1  0.53866931  0.85231281  0.47914453  1
  O  O28  1  0.29889049  0.45452843  0.47840601  1
  O  O29  1  0.13710233  0.68073886  0.47268601  1
  O  O30  1  0.12467789  0.64051333  0.36319964  1
  O  O31  1  0.50053861  0.86373771  0.36027143  1
  O  O32  1  0.36084932  0.50263488  0.36049971  1
  O  O33  1  0.11073586  0.49419992  0.85861984  1
  O  O34  1  0.37029929  0.89673191  0.86468321  1
  O  O35  1  0.50993464  0.61796921  0.85828155  1
  O  O36  1  0.01516742  0.80650414  0.41334260  1
  O  O37  1  0.81356810  0.98299402  0.41461826  1
  O  O38  1  0.17779585  0.18215776  0.41370660  1
  O  O39  1  0.01977044  0.18576868  0.91425096  1
  O  O40  1  0.19100856  0.98895811  0.91536202  1
  O  O41  1  0.81999779  0.82101251  0.91502142  1
  O  O42  1  0.96525884  0.15696124  0.58635076  1
  O  O43  1  0.18833238  0.03409110  0.58642769  1
  O  O44  1  0.84601761  0.81000490  0.58592728  1
  O  O45  1  0.97493718  0.82107389  0.08851628  1
  O  O46  1  0.84647176  0.03403008  0.08932003  1
  O  O47  1  0.20100733  0.16736314  0.08675363  1
  O  O48  1  0.68511405  0.17064505  0.74126910  1
  O  O49  1  0.48327988  0.31213800  0.74201300  1
  O  O50  1  0.83024030  0.51765688  0.74244584  1
  O  O51  1  0.66789887  0.51420639  0.24345923  1
  O  O52  1  0.84478921  0.32681203  0.24695976  1
  O  O53  1  0.47674200  0.15821349  0.24537099  1
  O  O54  1  0.63712023  0.48328695  0.92779267  1
  O  O55  1  0.84728973  0.34955628  0.92479183  1
  O  O56  1  0.49484708  0.14438723  0.92532829  1
  O  O57  1  0.63886392  0.14974234  0.42029529  1
  O  O58  1  0.51540302  0.37120438  0.42081075  1
  O  O59  1  0.86992194  0.50078421  0.41867176  1
  O  O60  1  0.34696983  0.47332940  0.08117350  1
  O  O61  1  0.15392418  0.66098620  0.07907159  1
  O  O62  1  0.50649045  0.84693210  0.07896963  1
  O  O63  1  0.34862991  0.85553236  0.58019834  1
  O  O64  1  0.50597810  0.64291976  0.58424188  1
  O  O65  1  0.13800909  0.49934046  0.58082188  1
  O  O66  1  0.29736756  0.81888417  0.25639536  1
  O  O67  1  0.52620864  0.70343357  0.25534224  1
  O  O68  1  0.18035502  0.48307554  0.25651397  1
  O  O69  1  0.30614114  0.46962841  0.74823215  1
  O  O70  1  0.16752708  0.69402429  0.74982297  1
  O  O71  1  0.52070872  0.83449557  0.75126489  1
loop_
_geom_bond_atom_site_label_1
_geom_bond_atom_site_label_2
_geom_bond_distance
_geom_bond_site_symmetry_2
Na0 O53 2.372875 1_555
Na0 O16 2.389620 1_555
Na0 O52 2.432354 1_555
Na0 O67 2.621231 1_545
Na0 O66 2.773176 1_545
Na0 O31 2.938066 1_545
Na0 O2 3.008172 1_555
Na0 O9 3.027910 1_545
Na1 O51 2.348122 1_555
Na1 O53 2.396178 1_555
Na1 O17 2.597071 1_555
Na1 O68 2.622401 1_555
Na1 O67 2.816923 1_555
Na1 O32 2.872611 1_555
Na1 O0 2.962360 1_555
Na1 O10 2.983559 1_555
Na2 O52 2.335940 1_555
Na2 O15 2.405463 1_555
Na2 O51 2.548402 1_555
Na2 O66 2.548845 1_655
Na2 O68 2.706821 1_655
Na2 O30 2.916263 1_655
Na2 O11 3.001222 1_655
Na2 O1 3.007194 1_555
Na3 O35 2.370805 1_555
Na3 O71 2.411385 1_555
Na3 O69 2.532185 1_555
Na3 O49 2.650019 1_555
Na3 O50 2.699264 1_555
Na3 O4 2.886425 1_555
Na4 O69 2.391237 1_555
Na4 O33 2.406887 1_555
Na4 O70 2.531158 1_555
Na4 O50 2.631671 1_455
Na4 O48 2.681222 1_455
Na4 O5 2.822169 1_455
Na5 O70 2.346673 1_555
Na5 O71 2.466105 1_555
Na5 O34 2.566128 1_555
Na5 O48 2.609778 1_565
Na5 O49 2.665371 1_565
Na5 O3 2.882017 1_565
Na5 O13 2.916932 1_565
Na6 O64 2.401573 1_555
Na6 O65 2.430272 1_555
Na6 O28 2.435677 1_555
Na6 O43 2.573891 1_555
Na6 O42 2.632695 1_455
Na6 O7 2.875226 1_555
Na7 O65 2.361041 1_555
Na7 O63 2.369707 1_555
Na7 O44 2.550888 1_455
Na7 O29 2.627232 1_555
Na7 O43 2.667412 1_565
Na7 O8 2.770006 1_555
Na8 O27 2.412697 1_555
Na8 O64 2.413132 1_555
Na8 O63 2.448355 1_555
Na8 O42 2.574702 1_565
Na8 O44 2.686152 1_555
Na8 O6 2.862335 1_555
Na9 O61 2.336396 1_555
Na9 O62 2.451635 1_555
Na9 O26 2.566892 1_554
Na9 O47 2.626160 1_565
Na9 O45 2.701562 1_455
Na9 O11 2.850445 1_555
Na9 O16 2.896318 1_565
Na10 O24 2.299850 1_554
Na10 O62 2.342523 1_555
Na10 O60 2.559008 1_555
Na10 O45 2.600255 1_555
Na10 O46 2.666587 1_565
Na11 O25 2.374546 1_554
Na11 O61 2.492180 1_555
Na11 O60 2.495158 1_555
Na11 O46 2.553046 1_455
Na11 O47 2.793141 1_555
Na12 O4 2.320731 1_555
Na12 O41 2.363703 1_555
Na12 O40 2.494568 1_655
Na12 O55 2.734841 1_555
Na12 O33 2.778676 1_655
Na12 O54 2.780622 1_555
Na13 O5 2.385589 1_555
Na13 O39 2.410074 1_655
Na13 O41 2.444213 1_545
Na13 O55 2.666027 1_555
Na13 O56 2.833465 1_555
Na13 O34 2.987309 1_545
Na13 O24 2.994190 1_545
Na13 O20 3.019691 1_556
Na14 O3 2.409346 1_555
Na14 O39 2.422017 1_555
Na14 O40 2.538765 1_545
Na14 O54 2.567925 1_555
Na14 O56 2.709869 1_555
Na14 O35 2.726549 1_555
Na15 O37 2.365568 1_545
Na15 O2 2.369054 1_555
Na15 O38 2.459898 1_655
Na15 O59 2.651884 1_555
Na15 O57 2.697328 1_555
Na15 O23 2.879404 1_555
Na16 O0 2.318854 1_555
Na16 O38 2.321894 1_555
Na16 O36 2.518245 1_545
Na16 O57 2.596416 1_555
Na16 O58 2.714055 1_555
Na16 O21 2.930699 1_555
Na16 O31 2.985794 1_545
Na17 O37 2.399081 1_555
Na17 O1 2.416073 1_555
Na17 O36 2.483778 1_655
Na17 O58 2.524523 1_555
Na17 O59 2.791431 1_555
Na18 O37 2.404634 1_545
Na18 O38 2.423822 1_655
Na18 O42 2.542296 1_555
Na18 O43 2.622112 1_655
Na18 O44 2.628076 1_545
Na18 O36 2.668657 1_645
Na19 O41 2.308260 1_555
Na19 O39 2.331242 1_665
Na19 O40 2.540764 1_655
Na19 O46 2.662815 1_566
Na19 O45 2.706252 1_556
Na19 O47 2.796951 1_666
Na20 O50 2.518326 1_555
Na20 O49 2.553426 1_555
Na20 O48 2.585525 1_555
Na20 O54 2.614081 1_555
Na20 O55 2.634483 1_555
Na20 O56 2.710781 1_555
Na21 O52 2.382664 1_555
Na21 O53 2.388632 1_555
Na21 O51 2.445023 1_555
Na21 O57 2.677007 1_555
Na21 O58 2.700590 1_555
Na21 O59 2.762766 1_555
Na22 O61 2.357010 1_555
Na22 O62 2.374453 1_555
Na22 O60 2.597823 1_555
Na22 O66 2.641368 1_555
Na22 O68 2.729302 1_555
Na22 O67 2.753349 1_555
Na23 O69 2.439358 1_555
Na23 O70 2.441086 1_555
Na23 O71 2.449942 1_555
Na23 O64 2.558719 1_555
Na23 O65 2.593482 1_555
Na23 O63 2.615901 1_555
Nb0 O7 1.920854 1_665
Nb0 O8 1.930766 1_655
Nb0 O6 1.934721 1_555
Nb0 O44 2.104667 1_555
Nb0 O43 2.121830 1_665
Nb0 O42 2.131899 1_565
Nb1 O9 1.898395 1_555
Nb1 O11 1.967416 1_655
Nb1 O10 1.972189 1_665
Nb1 O45 2.056695 1_555
Nb1 O46 2.064888 1_565
Nb1 O47 2.284051 1_665
Nb2 O14 1.956851 1_555
Nb2 O12 1.962560 1_555
Nb2 O13 1.990386 1_555
Nb2 O48 2.001947 1_555
Nb2 O50 2.010244 1_555
Nb2 O49 2.016088 1_555
Nb3 O55 1.895173 1_555
Nb3 O19 1.902302 1_556
Nb3 O54 1.965872 1_555
Nb3 O20 1.978675 1_556
Nb3 O56 2.201692 1_555
Nb3 O18 2.297041 1_556
Nb4 O21 1.894708 1_555
Nb4 O23 1.967441 1_555
Nb4 O22 1.972755 1_555
Nb4 O57 2.036298 1_555
Nb4 O58 2.051408 1_555
Nb4 O59 2.284000 1_555
Nb5 O67 1.944576 1_555
Nb5 O31 1.953732 1_555
Nb5 O32 1.964172 1_555
Nb5 O68 2.037419 1_555
Nb5 O66 2.047007 1_555
Nb5 O30 2.263849 1_555
O0 Si0 1.597927 1_545
O0 Zn0 1.989300 1_455
O1 Si1 1.591831 1_555
O1 Zn0 2.024450 1_565
O2 Si2 1.594838 1_655
O2 Zn0 1.938889 1_555
O3 Si3 1.607381 1_555
O3 Zn1 2.053169 1_455
O4 Si4 1.604631 1_655
O4 Zn1 2.032829 1_565
O5 Si5 1.605560 1_555
O5 Zn1 1.982191 1_555
O6 Si5 1.700723 1_565
O7 Si3 1.696615 1_555
O8 Si4 1.702054 1_555
O9 Si1 1.706955 1_555
O10 Si2 1.706606 1_555
O11 Si0 1.712940 1_555
O12 Si6 1.645330 1_555
O13 Si7 1.634451 1_555
O14 Si8 1.642583 1_555
O15 Si9 1.593261 1_555
O15 Zn2 1.998028 1_555
O16 Si10 1.601764 1_555
O16 Zn2 1.986981 1_555
O17 S0 1.468236 1_555
O17 Zn2 2.259871 1_555
O18 S0 1.496505 1_555
O19 Si9 1.712024 1_555
O20 Si10 1.696870 1_555
O21 Si7 1.703852 1_555
O22 Si8 1.679618 1_555
O23 Si6 1.688149 1_555
O24 Si11 1.621163 1_555
O24 Zn3 1.955345 1_556
O25 Si12 1.618486 1_555
O25 Zn3 1.964588 1_556
O26 S1 1.481806 1_555
O26 Zn3 2.112637 1_556
O27 Si13 1.598404 1_555
O27 Zn4 1.993510 1_555
O28 Si14 1.601118 1_555
O28 Zn4 1.990256 1_555
O29 S2 1.470400 1_555
O29 Zn4 2.292451 1_555
O30 S2 1.505017 1_555
O31 Si13 1.712320 1_555
O32 Si14 1.720295 1_555
O33 Si12 1.624117 1_555
O33 Zn5 2.041641 1_555
O34 S1 1.476899 1_555
O34 Zn5 2.454743 1_555
O35 Si11 1.628290 1_555
O35 Zn5 2.057953 1_555
O36 S2 1.477076 1_555
O36 Zn0 2.475395 1_465
O37 Si13 1.616361 1_555
O37 Zn0 2.229510 1_565
O38 Si14 1.615180 1_555
O38 Zn0 2.216975 1_455
O39 Si12 1.624653 1_555
O39 Zn1 2.209845 1_455
O40 S1 1.471040 1_555
O40 Zn1 2.503580 1_465
O41 Si11 1.630889 1_555
O41 Zn1 2.258265 1_565
O42 Si6 1.651458 1_555
O43 Si7 1.642811 1_555
O44 Si8 1.647946 1_555
O45 Si9 1.683413 1_555
O46 Si10 1.697217 1_555
O47 S0 1.519136 1_555
O48 Si5 1.668081 1_555
O49 Si3 1.669773 1_555
O50 Si4 1.676861 1_655
O51 Si1 1.599160 1_555
O51 Zn2 2.179739 1_555
O52 Si2 1.609436 1_655
O52 Zn2 2.070971 1_555
O53 Si0 1.610255 1_545
O53 Zn2 2.202791 1_555
O54 Si11 1.741416 1_555
O55 Si12 1.760337 1_655
O56 S1 1.532707 1_545
O57 Si13 1.697551 1_545
O58 Si14 1.699008 1_555
O59 S2 1.517580 1_655
O60 S0 1.480240 1_555
O60 Zn3 2.430741 1_555
O61 Si9 1.613258 1_455
O61 Zn3 2.252651 1_555
O62 Si10 1.619530 1_565
O62 Zn3 2.211546 1_555
O63 Si7 1.598257 1_565
O63 Zn4 2.185219 1_555
O64 Si8 1.603239 1_555
O64 Zn4 2.107630 1_555
O65 Si6 1.602806 1_455
O65 Zn4 2.185535 1_555
O66 Si0 1.686582 1_555
O67 Si1 1.692608 1_555
O68 Si2 1.675921 1_555
O69 Si3 1.615080 1_555
O69 Zn5 2.079045 1_555
O70 Si4 1.611952 1_555
O70 Zn5 2.272103 1_555
O71 Si5 1.612018 1_565
O71 Zn5 2.239102 1_555
