# generated using pymatgen
data_ZrTiP2SO12
_symmetry_space_group_name_H-M   'P 1'
_cell_length_a   8.77819893
_cell_length_b   8.80225756
_cell_length_c   22.68131975
_cell_angle_alpha   89.88926460
_cell_angle_beta   90.05734344
_cell_angle_gamma   119.93375868
_symmetry_Int_Tables_number   1
_chemical_formula_structural   ZrTiP2SO12
_chemical_formula_sum   'Zr6 Ti6 P12 S6 O72'
_cell_volume   1518.75294375
_cell_formula_units_Z   6
loop_
 _symmetry_equiv_pos_site_id
 _symmetry_equiv_pos_as_xyz
  1  'x, y, z'
loop_
 _atom_site_type_symbol
 _atom_site_label
 _atom_site_symmetry_multiplicity
 _atom_site_fract_x
 _atom_site_fract_y
 _atom_site_fract_z
 _atom_site_occupancy
  Zr  Zr0  1  0.00009606  0.00274880  0.35672855  1
  Zr  Zr1  1  0.99272194  0.00378776  0.64493838  1
  Zr  Zr2  1  0.01093398  0.00458443  0.13949215  1
  Zr  Zr3  1  0.66838466  0.33829956  0.69169343  1
  Zr  Zr4  1  0.67724481  0.33741941  0.47661152  1
  Zr  Zr5  1  0.32684976  0.67121402  0.30835401  1
  Ti  Ti0  1  0.00622898  0.00798739  0.85842646  1
  Ti  Ti1  1  0.67064400  0.33562868  0.18709019  1
  Ti  Ti2  1  0.65550191  0.34080540  0.97583966  1
  Ti  Ti3  1  0.33159845  0.67047439  0.02166920  1
  Ti  Ti4  1  0.33694202  0.67136772  0.52290171  1
  Ti  Ti5  1  0.35058626  0.67298684  0.81348330  1
  P  P0  1  0.29732733  0.01241676  0.24802579  1
  P  P1  1  0.99201341  0.28533429  0.24760707  1
  P  P2  1  0.28187665  0.29050944  0.75396584  1
  P  P3  1  0.71332986  0.99658718  0.75435454  1
  P  P4  1  0.96487138  0.34400822  0.58290567  1
  P  P5  1  0.65956733  0.62089842  0.58230940  1
  P  P6  1  0.94839560  0.60742759  0.08069489  1
  P  P7  1  0.39209252  0.34670778  0.08164252  1
  P  P8  1  0.62117691  0.67254012  0.91767921  1
  P  P9  1  0.33476419  0.95078679  0.91673582  1
  P  P10  1  0.61477099  0.94700658  0.41831019  1
  P  P11  1  0.05401978  0.67118091  0.41863821  1
  S  S0  1  0.71204804  0.70475373  0.24804670  1
  S  S1  1  0.00959255  0.71798213  0.75389163  1
  S  S2  1  0.37694455  0.03834899  0.58284788  1
  S  S3  1  0.65929360  0.04786201  0.08131818  1
  S  S4  1  0.04628666  0.38190412  0.91698187  1
  S  S5  1  0.33329933  0.38404588  0.41832778  1
  O  O0  1  0.21300720  0.04028307  0.30341994  1
  O  O1  1  0.82064631  0.78339816  0.30170685  1
  O  O2  1  0.95920156  0.17198162  0.30340286  1
  O  O3  1  0.18867197  0.16773830  0.80753242  1
  O  O4  1  0.97615777  0.80027121  0.80503847  1
  O  O5  1  0.83332350  0.02211261  0.80727687  1
  O  O6  1  0.78711200  0.95955744  0.69796211  1
  O  O7  1  0.17124706  0.20869825  0.69823978  1
  O  O8  1  0.03766657  0.82141167  0.69932207  1
  O  O9  1  0.79118515  0.81678765  0.19622796  1
  O  O10  1  0.02080927  0.19736772  0.19385001  1
  O  O11  1  0.17624610  0.97486323  0.19441796  1
  O  O12  1  0.87796869  0.37178509  0.63764693  1
  O  O13  1  0.48745584  0.11853530  0.63574794  1
  O  O14  1  0.62739827  0.50530333  0.63749204  1
  O  O15  1  0.86374881  0.49459351  0.13657944  1
  O  O16  1  0.63085303  0.12526166  0.13538662  1
  O  O17  1  0.50514976  0.36931076  0.13635679  1
  O  O18  1  0.47753313  0.31204799  0.02679557  1
  O  O19  1  0.83110996  0.51673873  0.02650820  1
  O  O20  1  0.69060866  0.15812407  0.02907342  1
  O  O21  1  0.45448131  0.14869207  0.53041521  1
  O  O22  1  0.68890660  0.53443846  0.52830583  1
  O  O23  1  0.84490586  0.30557488  0.52897603  1
  O  O24  1  0.52954095  0.69860529  0.97129313  1
  O  O25  1  0.15949056  0.45972077  0.96981361  1
  O  O26  1  0.30263489  0.83106505  0.97151637  1
  O  O27  1  0.52357902  0.83129042  0.47284878  1
  O  O28  1  0.30654262  0.46529809  0.47069535  1
  O  O29  1  0.16838908  0.69227130  0.47257129  1
  O  O30  1  0.13144272  0.63753207  0.36279306  1
  O  O31  1  0.50662379  0.86376321  0.36262292  1
  O  O32  1  0.36183465  0.48700753  0.36429093  1
  O  O33  1  0.12582490  0.49109105  0.86436239  1
  O  O34  1  0.36320206  0.86074212  0.86281463  1
  O  O35  1  0.50134815  0.63539713  0.86264673  1
  O  O36  1  0.03608998  0.83457150  0.41044268  1
  O  O37  1  0.79808108  0.96646926  0.41109537  1
  O  O38  1  0.17418791  0.20825088  0.41208342  1
  O  O39  1  0.02849999  0.20403453  0.90840857  1
  O  O40  1  0.17164991  0.97185123  0.90461773  1
  O  O41  1  0.80444754  0.83057386  0.90520313  1
  O  O42  1  0.98647817  0.18210818  0.59100787  1
  O  O43  1  0.20071585  0.01607463  0.59136551  1
  O  O44  1  0.82241640  0.80181312  0.59176467  1
  O  O45  1  0.96760658  0.78897235  0.09005479  1
  O  O46  1  0.81399370  0.02478815  0.08965575  1
  O  O47  1  0.20909463  0.18235477  0.08839470  1
  O  O48  1  0.69168576  0.15716267  0.74437400  1
  O  O49  1  0.46428040  0.30881702  0.74513786  1
  O  O50  1  0.84929182  0.54228580  0.74596272  1
  O  O51  1  0.69482186  0.53000432  0.23990076  1
  O  O52  1  0.82985625  0.30760088  0.23574335  1
  O  O53  1  0.47915431  0.17361800  0.23550790  1
  O  O54  1  0.64001182  0.50661092  0.92767575  1
  O  O55  1  0.86889585  0.35742432  0.92650386  1
  O  O56  1  0.49585178  0.13384431  0.92921273  1
  O  O57  1  0.63158456  0.12720247  0.42652333  1
  O  O58  1  0.48596248  0.35907064  0.42519120  1
  O  O59  1  0.86970373  0.51025677  0.42474122  1
  O  O60  1  0.37015430  0.50711070  0.06978046  1
  O  O61  1  0.13350712  0.63004822  0.06932795  1
  O  O62  1  0.50162490  0.87069808  0.07351187  1
  O  O63  1  0.36005548  0.86410933  0.57482860  1
  O  O64  1  0.49751556  0.64201302  0.57070685  1
  O  O65  1  0.14587308  0.50469960  0.57068161  1
  O  O66  1  0.31996188  0.85139609  0.25568870  1
  O  O67  1  0.53611037  0.68234244  0.25666738  1
  O  O68  1  0.15405037  0.46620750  0.25680310  1
  O  O69  1  0.30153085  0.47204102  0.76631367  1
  O  O70  1  0.16182166  0.69368595  0.76291865  1
  O  O71  1  0.52818082  0.83362133  0.76474006  1
loop_
_geom_bond_atom_site_label_1
_geom_bond_atom_site_label_2
_geom_bond_distance
_geom_bond_site_symmetry_2
O0 P0 1.539756 1_555
O0 Zr0 2.109717 1_555
O1 S0 1.487149 1_555
O1 Zr0 2.176407 1_665
O2 P1 1.545662 1_555
O2 Zr0 2.082449 1_655
O3 P2 1.558167 1_555
O3 Ti0 1.903843 1_555
O4 S1 1.473997 1_655
O4 Ti0 2.098850 1_665
O5 P3 1.537251 1_545
O5 Ti0 1.961976 1_655
O6 P3 1.541317 1_555
O6 Zr1 2.038823 1_565
O7 P2 1.536992 1_555
O7 Zr1 2.086719 1_455
O8 S1 1.481166 1_555
O8 Zr1 2.208546 1_465
O9 S0 1.466258 1_555
O9 Zr2 2.218999 1_665
O10 P1 1.532869 1_455
O10 Zr2 2.065964 1_555
O11 P0 1.538085 1_565
O11 Zr2 2.024907 1_565
O12 P4 1.540296 1_555
O12 Zr3 2.106244 1_555
O13 S2 1.482055 1_555
O13 Zr3 2.194063 1_555
O14 P5 1.546162 1_555
O14 Zr3 2.078860 1_555
O15 P6 1.551034 1_555
O15 Ti1 1.942776 1_555
O16 S3 1.484586 1_555
O16 Ti1 2.070781 1_555
O17 P7 1.538184 1_555
O17 Ti1 1.986869 1_555
O18 P7 1.560395 1_555
O18 Ti2 1.856949 1_554
O19 P6 1.545563 1_555
O19 Ti2 1.927722 1_554
O20 S3 1.466855 1_555
O20 Ti2 2.150537 1_554
O21 S2 1.469123 1_555
O21 Zr4 2.197206 1_555
O22 P5 1.531559 1_555
O22 Zr4 2.055033 1_555
O23 P4 1.537241 1_555
O23 Zr4 2.015491 1_555
O24 P8 1.538070 1_555
O24 Ti3 1.989851 1_556
O25 S4 1.487972 1_555
O25 Ti3 2.077274 1_556
O26 P9 1.559775 1_555
O26 Ti3 1.925787 1_556
O27 P10 1.546559 1_555
O27 Ti4 1.910616 1_555
O28 S5 1.465933 1_555
O28 Ti4 2.070768 1_555
O29 P11 1.533364 1_555
O29 Ti4 1.947745 1_555
O30 P11 1.535603 1_555
O30 Zr5 2.012492 1_555
O31 P10 1.529843 1_555
O31 Zr5 2.052540 1_555
O32 S5 1.468345 1_555
O32 Zr5 2.195731 1_555
O33 S4 1.470754 1_555
O33 Ti5 2.152381 1_555
O34 P9 1.545343 1_555
O34 Ti5 1.954421 1_555
O35 P8 1.557917 1_555
O35 Ti5 1.880683 1_555
O36 P11 1.533812 1_555
O36 Zr0 2.057805 1_565
O37 P10 1.539720 1_555
O37 Zr0 2.050591 1_665
O38 S5 1.486205 1_555
O38 Zr0 2.104743 1_555
O39 S4 1.506856 1_555
O39 Ti0 1.992920 1_555
O40 P9 1.556948 1_555
O40 Ti0 1.940108 1_565
O41 P8 1.539241 1_555
O41 Ti0 1.984584 1_665
O42 P4 1.539248 1_555
O42 Zr1 2.010292 1_555
O43 S2 1.471949 1_555
O43 Zr1 2.151424 1_455
O44 P5 1.534360 1_555
O44 Zr1 2.049972 1_565
O45 P6 1.536040 1_555
O45 Zr2 2.071446 1_665
O46 S3 1.481803 1_555
O46 Zr2 2.144797 1_655
O47 P7 1.541812 1_555
O47 Zr2 2.024379 1_555
O48 P3 1.533559 1_545
O48 Zr3 2.080700 1_555
O49 P2 1.540401 1_555
O49 Zr3 2.070248 1_555
O50 S1 1.494285 1_655
O50 Zr3 2.102355 1_555
O51 S0 1.480520 1_555
O51 Ti1 2.012994 1_555
O52 P1 1.553862 1_555
O52 Ti1 1.889937 1_555
O53 P0 1.542942 1_555
O53 Ti1 1.915858 1_555
O54 P8 1.565758 1_555
O54 Ti2 1.879760 1_555
O55 S4 1.477663 1_655
O55 Ti2 2.124285 1_555
O56 P9 1.550169 1_545
O56 Ti2 1.964104 1_555
O57 P10 1.529624 1_545
O57 Zr4 2.035254 1_555
O58 S5 1.470346 1_555
O58 Zr4 2.128507 1_555
O59 P11 1.534884 1_655
O59 Zr4 1.996204 1_555
O60 P7 1.540371 1_555
O60 Ti3 1.962647 1_555
O61 P6 1.557018 1_455
O61 Ti3 1.924467 1_555
O62 S3 1.491762 1_565
O62 Ti3 2.023787 1_555
O63 S2 1.476958 1_565
O63 Ti4 1.992572 1_555
O64 P5 1.546054 1_555
O64 Ti4 1.894359 1_555
O65 P4 1.535752 1_455
O65 Ti4 1.918759 1_555
O66 P0 1.535768 1_565
O66 Zr5 2.008529 1_555
O67 S0 1.469274 1_555
O67 Zr5 2.140686 1_555
O68 P1 1.530395 1_455
O68 Zr5 2.048702 1_555
O69 P2 1.545300 1_555
O69 Ti5 1.924805 1_555
O70 S1 1.468959 1_555
O70 Ti5 2.095447 1_555
O71 P3 1.558021 1_555
O71 Ti5 1.857257 1_555
