# generated using pymatgen
data_YH3(SO4)3
_symmetry_space_group_name_H-M   'P 1'
_cell_length_a   9.62295900
_cell_length_b   12.17667200
_cell_length_c   17.01644500
_cell_angle_alpha   90.00000000
_cell_angle_beta   90.00000000
_cell_angle_gamma   90.00000000
_symmetry_Int_Tables_number   1
_chemical_formula_structural   YH3(SO4)3
_chemical_formula_sum   'Y8 H24 S24 O96'
_cell_volume   1993.91241501
_cell_formula_units_Z   8
loop_
 _symmetry_equiv_pos_site_id
 _symmetry_equiv_pos_as_xyz
  1  'x, y, z'
loop_
 _atom_site_type_symbol
 _atom_site_label
 _atom_site_symmetry_multiplicity
 _atom_site_fract_x
 _atom_site_fract_y
 _atom_site_fract_z
 _atom_site_occupancy
  Y  Y0  1  0.83287700  0.60648900  0.26903000  1
  Y  Y1  1  0.33287700  0.39351100  0.23097000  1
  Y  Y2  1  0.66712300  0.10648900  0.73097000  1
  Y  Y3  1  0.16712300  0.89351100  0.76903000  1
  Y  Y4  1  0.16712300  0.39351100  0.73097000  1
  Y  Y5  1  0.66712300  0.60648900  0.76903000  1
  Y  Y6  1  0.33287700  0.89351100  0.26903000  1
  Y  Y7  1  0.83287700  0.10648900  0.23097000  1
  H  H0  1  0.10081900  0.75998700  0.07049500  1
  H  H1  1  0.60081900  0.24001300  0.42950500  1
  H  H2  1  0.39918100  0.25998700  0.92950500  1
  H  H3  1  0.89918100  0.74001300  0.57049500  1
  H  H4  1  0.89918100  0.24001300  0.92950500  1
  H  H5  1  0.39918100  0.75998700  0.57049500  1
  H  H6  1  0.60081900  0.74001300  0.07049500  1
  H  H7  1  0.10081900  0.25998700  0.42950500  1
  H  H8  1  0.61804100  0.42028300  0.99729300  1
  H  H9  1  0.11804100  0.57971700  0.50270700  1
  H  H10  1  0.88195900  0.92028300  0.00270700  1
  H  H11  1  0.38195900  0.07971700  0.49729300  1
  H  H12  1  0.38195900  0.57971700  0.00270700  1
  H  H13  1  0.88195900  0.42028300  0.49729300  1
  H  H14  1  0.11804100  0.07971700  0.99729300  1
  H  H15  1  0.61804100  0.92028300  0.50270700  1
  H  H16  1  0.87847800  0.42159600  0.05579900  1
  H  H17  1  0.37847800  0.57840400  0.44420100  1
  H  H18  1  0.62152200  0.92159600  0.94420100  1
  H  H19  1  0.12152200  0.07840400  0.55579900  1
  H  H20  1  0.12152200  0.57840400  0.94420100  1
  H  H21  1  0.62152200  0.42159600  0.55579900  1
  H  H22  1  0.37847800  0.07840400  0.05579900  1
  H  H23  1  0.87847800  0.92159600  0.44420100  1
  S  S0  1  0.16956000  0.65838700  0.16585800  1
  S  S1  1  0.66956000  0.34161300  0.33414200  1
  S  S2  1  0.33044000  0.15838700  0.83414200  1
  S  S3  1  0.83044000  0.84161300  0.66585800  1
  S  S4  1  0.83044000  0.34161300  0.83414200  1
  S  S5  1  0.33044000  0.65838700  0.66585800  1
  S  S6  1  0.66956000  0.84161300  0.16585800  1
  S  S7  1  0.16956000  0.15838700  0.33414200  1
  S  S8  1  0.09277500  0.48378800  0.39763600  1
  S  S9  1  0.59277500  0.51621200  0.10236400  1
  S  S10  1  0.40722500  0.98378800  0.60236400  1
  S  S11  1  0.90722500  0.01621200  0.89763600  1
  S  S12  1  0.90722500  0.51621200  0.60236400  1
  S  S13  1  0.40722500  0.48378800  0.89763600  1
  S  S14  1  0.59277500  0.01621200  0.39763600  1
  S  S15  1  0.09277500  0.98378800  0.10236400  1
  S  S16  1  0.98294800  0.36361500  0.15926600  1
  S  S17  1  0.48294800  0.63638500  0.34073400  1
  S  S18  1  0.51705200  0.86361500  0.84073400  1
  S  S19  1  0.01705200  0.13638500  0.65926600  1
  S  S20  1  0.01705200  0.63638500  0.84073400  1
  S  S21  1  0.51705200  0.36361500  0.65926600  1
  S  S22  1  0.48294800  0.13638500  0.15926600  1
  S  S23  1  0.98294800  0.86361500  0.34073400  1
  O  O0  1  0.03566100  0.66632300  0.20673100  1
  O  O1  1  0.53566100  0.33367700  0.29326900  1
  O  O2  1  0.46433900  0.16632300  0.79326900  1
  O  O3  1  0.96433900  0.83367700  0.70673100  1
  O  O4  1  0.96433900  0.33367700  0.79326900  1
  O  O5  1  0.46433900  0.66632300  0.70673100  1
  O  O6  1  0.53566100  0.83367700  0.20673100  1
  O  O7  1  0.03566100  0.16632300  0.29326900  1
  O  O8  1  0.76873900  0.75966800  0.19382500  1
  O  O9  1  0.26873900  0.24033200  0.30617500  1
  O  O10  1  0.73126100  0.25966800  0.80617500  1
  O  O11  1  0.23126100  0.74033200  0.69382500  1
  O  O12  1  0.23126100  0.24033200  0.80617500  1
  O  O13  1  0.73126100  0.75966800  0.69382500  1
  O  O14  1  0.26873900  0.74033200  0.19382500  1
  O  O15  1  0.76873900  0.25966800  0.30617500  1
  O  O16  1  0.14154300  0.68417400  0.07633300  1
  O  O17  1  0.64154300  0.31582600  0.42366700  1
  O  O18  1  0.35845700  0.18417400  0.92366700  1
  O  O19  1  0.85845700  0.81582600  0.57633300  1
  O  O20  1  0.85845700  0.31582600  0.92366700  1
  O  O21  1  0.35845700  0.68417400  0.57633300  1
  O  O22  1  0.64154300  0.81582600  0.07633300  1
  O  O23  1  0.14154300  0.18417400  0.42366700  1
  O  O24  1  0.22687200  0.54769700  0.16407700  1
  O  O25  1  0.72687200  0.45230300  0.33592300  1
  O  O26  1  0.27312800  0.04769700  0.83592300  1
  O  O27  1  0.77312800  0.95230300  0.66407700  1
  O  O28  1  0.77312800  0.45230300  0.83592300  1
  O  O29  1  0.27312800  0.54769700  0.66407700  1
  O  O30  1  0.72687200  0.95230300  0.16407700  1
  O  O31  1  0.22687200  0.04769700  0.33592300  1
  O  O32  1  0.69652000  0.54595300  0.16053400  1
  O  O33  1  0.19652000  0.45404700  0.33946600  1
  O  O34  1  0.80348000  0.04595300  0.83946600  1
  O  O35  1  0.30348000  0.95404700  0.66053400  1
  O  O36  1  0.30348000  0.45404700  0.83946600  1
  O  O37  1  0.80348000  0.54595300  0.66053400  1
  O  O38  1  0.19652000  0.95404700  0.16053400  1
  O  O39  1  0.69652000  0.04595300  0.33946600  1
  O  O40  1  0.98698800  0.55999400  0.36939500  1
  O  O41  1  0.48698800  0.44000600  0.13060500  1
  O  O42  1  0.51301200  0.05999400  0.63060500  1
  O  O43  1  0.01301200  0.94000600  0.86939500  1
  O  O44  1  0.01301200  0.44000600  0.63060500  1
  O  O45  1  0.51301200  0.55999400  0.86939500  1
  O  O46  1  0.48698800  0.94000600  0.36939500  1
  O  O47  1  0.98698800  0.05999400  0.13060500  1
  O  O48  1  0.03017000  0.38860400  0.43803300  1
  O  O49  1  0.53017000  0.61139600  0.06196700  1
  O  O50  1  0.46983000  0.88860400  0.56196700  1
  O  O51  1  0.96983000  0.11139600  0.93803300  1
  O  O52  1  0.96983000  0.61139600  0.56196700  1
  O  O53  1  0.46983000  0.38860400  0.93803300  1
  O  O54  1  0.53017000  0.11139600  0.43803300  1
  O  O55  1  0.03017000  0.88860400  0.06196700  1
  O  O56  1  0.68161300  0.45041100  0.03895100  1
  O  O57  1  0.18161300  0.54958900  0.46104900  1
  O  O58  1  0.81838700  0.95041100  0.96104900  1
  O  O59  1  0.31838700  0.04958900  0.53895100  1
  O  O60  1  0.31838700  0.54958900  0.96104900  1
  O  O61  1  0.81838700  0.45041100  0.53895100  1
  O  O62  1  0.18161300  0.04958900  0.03895100  1
  O  O63  1  0.68161300  0.95041100  0.46104900  1
  O  O64  1  0.13009900  0.33531900  0.16754200  1
  O  O65  1  0.63009900  0.66468100  0.33245800  1
  O  O66  1  0.36990100  0.83531900  0.83245800  1
  O  O67  1  0.86990100  0.16468100  0.66754200  1
  O  O68  1  0.86990100  0.66468100  0.83245800  1
  O  O69  1  0.36990100  0.33531900  0.66754200  1
  O  O70  1  0.63009900  0.16468100  0.16754200  1
  O  O71  1  0.13009900  0.83531900  0.33245800  1
  O  O72  1  0.93910900  0.44534200  0.21737900  1
  O  O73  1  0.43910900  0.55465800  0.28262100  1
  O  O74  1  0.56089100  0.94534200  0.78262100  1
  O  O75  1  0.06089100  0.05465800  0.71737900  1
  O  O76  1  0.06089100  0.55465800  0.78262100  1
  O  O77  1  0.56089100  0.44534200  0.71737900  1
  O  O78  1  0.43910900  0.05465800  0.21737900  1
  O  O79  1  0.93910900  0.94534200  0.28262100  1
  O  O80  1  0.97575100  0.41770300  0.07483900  1
  O  O81  1  0.47575100  0.58229700  0.42516100  1
  O  O82  1  0.52424900  0.91770300  0.92516100  1
  O  O83  1  0.02424900  0.08229700  0.57483900  1
  O  O84  1  0.02424900  0.58229700  0.92516100  1
  O  O85  1  0.52424900  0.41770300  0.57483900  1
  O  O86  1  0.47575100  0.08229700  0.07483900  1
  O  O87  1  0.97575100  0.91770300  0.42516100  1
  O  O88  1  0.89178700  0.26762000  0.15677800  1
  O  O89  1  0.39178700  0.73238000  0.34322200  1
  O  O90  1  0.60821300  0.76762000  0.84322200  1
  O  O91  1  0.10821300  0.23238000  0.65677800  1
  O  O92  1  0.10821300  0.73238000  0.84322200  1
  O  O93  1  0.60821300  0.26762000  0.65677800  1
  O  O94  1  0.39178700  0.23238000  0.15677800  1
  O  O95  1  0.89178700  0.76762000  0.34322200  1
loop_
_geom_bond_atom_site_label_1
_geom_bond_atom_site_label_2
_geom_bond_distance
_geom_bond_site_symmetry_2
H0 O16 1.007794 1_555
H1 O17 1.007794 1_555
H2 O18 1.007794 1_555
H3 O19 1.007794 1_555
H4 O20 1.007794 1_555
H5 O21 1.007794 1_555
H6 O22 1.007794 1_555
H7 O23 1.007794 1_555
H8 O56 1.005645 1_556
H9 O57 1.005645 1_555
H10 O58 1.005645 1_554
H11 O59 1.005645 1_555
H12 O60 1.005645 1_554
H13 O61 1.005645 1_555
H14 O62 1.005645 1_556
H15 O63 1.005645 1_555
H16 O80 0.991673 1_555
H17 O81 0.991673 1_555
H18 O82 0.991673 1_555
H19 O83 0.991673 1_555
H20 O84 0.991673 1_555
H21 O85 0.991673 1_555
H22 O86 0.991673 1_555
H23 O87 0.991673 1_555
O0 S0 1.467420 1_555
O0 Y0 2.337209 1_455
O1 S1 1.467420 1_555
O1 Y1 2.337209 1_555
O2 S2 1.467420 1_555
O2 Y2 2.337209 1_555
O3 S3 1.467420 1_555
O3 Y3 2.337209 1_655
O4 S4 1.467420 1_555
O4 Y4 2.337209 1_655
O5 S5 1.467420 1_555
O5 Y5 2.337209 1_555
O6 S6 1.467420 1_555
O6 Y6 2.337209 1_555
O7 S7 1.467420 1_555
O7 Y7 2.337209 1_455
O8 S6 1.460476 1_555
O8 Y0 2.344703 1_555
O9 S7 1.460476 1_555
O9 Y1 2.344703 1_555
O10 S4 1.460476 1_555
O10 Y2 2.344703 1_555
O11 S5 1.460476 1_555
O11 Y3 2.344703 1_555
O12 S2 1.460476 1_555
O12 Y4 2.344703 1_555
O13 S3 1.460476 1_555
O13 Y5 2.344703 1_555
O14 S0 1.460476 1_555
O14 Y6 2.344703 1_555
O15 S1 1.460476 1_555
O15 Y7 2.344703 1_555
O16 S0 1.578614 1_555
O17 S1 1.578614 1_555
O18 S2 1.578614 1_555
O19 S3 1.578614 1_555
O20 S4 1.578614 1_555
O21 S5 1.578614 1_555
O22 S6 1.578614 1_555
O23 S7 1.578614 1_555
O24 S0 1.456621 1_555
O24 Y1 2.420982 1_555
O25 S1 1.456621 1_555
O25 Y0 2.420982 1_555
O26 S2 1.456621 1_555
O26 Y3 2.420982 1_545
O27 S3 1.456621 1_555
O27 Y2 2.420982 1_565
O28 S4 1.456621 1_555
O28 Y5 2.420982 1_555
O29 S5 1.456621 1_555
O29 Y4 2.420982 1_555
O30 S6 1.456621 1_555
O30 Y7 2.420982 1_565
O31 S7 1.456621 1_555
O31 Y6 2.420982 1_545
O32 S9 1.451763 1_555
O32 Y0 2.381938 1_555
O33 S8 1.451763 1_555
O33 Y1 2.381938 1_555
O34 S11 1.451763 1_555
O34 Y2 2.381938 1_555
O35 S10 1.451763 1_555
O35 Y3 2.381938 1_555
O36 S13 1.451763 1_555
O36 Y4 2.381938 1_555
O37 S12 1.451763 1_555
O37 Y5 2.381938 1_555
O38 S15 1.451763 1_555
O38 Y6 2.381938 1_555
O39 S14 1.451763 1_555
O39 Y7 2.381938 1_555
O40 S8 1.458868 1_655
O40 Y0 2.331652 1_555
O41 S9 1.458868 1_555
O41 Y1 2.331652 1_555
O42 S10 1.458868 1_545
O42 Y2 2.331652 1_555
O43 S11 1.458868 1_465
O43 Y3 2.331652 1_555
O44 S12 1.458868 1_455
O44 Y4 2.331652 1_555
O45 S13 1.458868 1_555
O45 Y5 2.331652 1_555
O46 S14 1.458868 1_565
O46 Y6 2.331652 1_555
O47 S15 1.458868 1_645
O47 Y7 2.331652 1_555
O48 S8 1.476081 1_555
O49 S9 1.476081 1_555
O50 S10 1.476081 1_555
O51 S11 1.476081 1_555
O52 S12 1.476081 1_555
O53 S13 1.476081 1_555
O54 S14 1.476081 1_555
O55 S15 1.476081 1_555
O56 S9 1.592855 1_555
O57 S8 1.592855 1_555
O58 S11 1.592855 1_565
O59 S10 1.592855 1_545
O60 S13 1.592855 1_555
O61 S12 1.592855 1_555
O62 S15 1.592855 1_545
O63 S14 1.592855 1_565
O64 S16 1.464132 1_455
O64 Y1 2.339805 1_555
O65 S17 1.464132 1_555
O65 Y0 2.339805 1_555
O66 S18 1.464132 1_555
O66 Y3 2.339805 1_555
O67 S19 1.464132 1_655
O67 Y2 2.339805 1_555
O68 S20 1.464132 1_655
O68 Y5 2.339805 1_555
O69 S21 1.464132 1_555
O69 Y4 2.339805 1_555
O70 S22 1.464132 1_555
O70 Y7 2.339805 1_555
O71 S23 1.464132 1_455
O71 Y6 2.339805 1_555
O72 S16 1.464989 1_555
O72 Y0 2.380732 1_555
O73 S17 1.464989 1_555
O73 Y1 2.380732 1_555
O74 S18 1.464989 1_555
O74 Y2 2.380732 1_565
O75 S19 1.464989 1_555
O75 Y3 2.380732 1_545
O76 S20 1.464989 1_555
O76 Y4 2.380732 1_555
O77 S21 1.464989 1_555
O77 Y5 2.380732 1_555
O78 S22 1.464989 1_555
O78 Y6 2.380732 1_545
O79 S23 1.464989 1_555
O79 Y7 2.380732 1_565
O80 S16 1.581936 1_555
O81 S17 1.581936 1_555
O82 S18 1.581936 1_555
O83 S19 1.581936 1_555
O84 S20 1.581936 1_555
O85 S21 1.581936 1_555
O86 S22 1.581936 1_555
O87 S23 1.581936 1_555
O88 S16 1.462076 1_555
O88 Y7 2.401005 1_555
O89 S17 1.462076 1_555
O89 Y6 2.401005 1_555
O90 S18 1.462076 1_555
O90 Y5 2.401005 1_555
O91 S19 1.462076 1_555
O91 Y4 2.401005 1_555
O92 S20 1.462076 1_555
O92 Y3 2.401005 1_555
O93 S21 1.462076 1_555
O93 Y2 2.401005 1_555
O94 S22 1.462076 1_555
O94 Y1 2.401005 1_555
O95 S23 1.462076 1_555
O95 Y0 2.401005 1_555
