# generated using pymatgen
data_MgHg(SbO3)2
_symmetry_space_group_name_H-M   'P 1'
_cell_length_a   5.41459391
_cell_length_b   5.87228817
_cell_length_c   5.87175691
_cell_angle_alpha   99.11904414
_cell_angle_beta   85.06988886
_cell_angle_gamma   122.84147408
_symmetry_Int_Tables_number   1
_chemical_formula_structural   MgHg(SbO3)2
_chemical_formula_sum   'Mg1 Hg1 Sb2 O6'
_cell_volume   154.87693325
_cell_formula_units_Z   1
loop_
 _symmetry_equiv_pos_site_id
 _symmetry_equiv_pos_as_xyz
  1  'x, y, z'
loop_
 _atom_site_type_symbol
 _atom_site_label
 _atom_site_symmetry_multiplicity
 _atom_site_fract_x
 _atom_site_fract_y
 _atom_site_fract_z
 _atom_site_occupancy
  Mg  Mg0  1  0.00002087  0.68650305  0.11820043  1
  Hg  Hg0  1  0.99994899  0.07447470  0.95737617  1
  Sb  Sb0  1  0.35356288  0.66901750  0.52632146  1
  Sb  Sb1  1  0.64650127  0.31547128  0.52632407  1
  O  O0  1  -0.00000150  0.58353206  0.74600056  1
  O  O1  1  0.00000552  0.41109474  0.31283681  1
  O  O2  1  0.38298663  0.41689374  0.70768116  1
  O  O3  1  0.63194759  0.57677346  0.33002561  1
  O  O4  1  0.36803076  0.94485140  0.33006769  1
  O  O5  1  0.61699698  0.03388807  0.70766604  1
loop_
_geom_bond_atom_site_label_1
_geom_bond_atom_site_label_2
_geom_bond_distance
_geom_bond_site_symmetry_2
Mg0 O4 2.090155 1_555
Mg0 O3 2.090268 1_455
Mg0 O1 2.123067 1_555
Mg0 O0 2.173243 1_554
Hg0 O5 2.526254 1_555
Hg0 O2 2.526421 1_655
Hg0 Mg0 2.601015 1_646
Hg0 O1 2.637322 1_656
O0 Sb1 2.077996 1_455
O0 Sb0 2.078281 1_555
O1 Sb1 2.048251 1_455
O1 Sb0 2.048396 1_555
O2 Sb1 1.996008 1_555
O2 Sb0 2.033753 1_555
O3 Sb0 2.069558 1_555
O3 Sb1 2.096811 1_555
O4 Sb1 2.069415 1_565
O4 Sb0 2.096720 1_555
O5 Sb0 1.995562 1_545
O5 Sb1 2.033675 1_555
