# generated using pymatgen
data_Na5Mg2Zn2PS5O24
_symmetry_space_group_name_H-M   'P 1'
_cell_length_a   8.89091316
_cell_length_b   8.88048401
_cell_length_c   22.32657371
_cell_angle_alpha   89.69323441
_cell_angle_beta   90.03395550
_cell_angle_gamma   120.12241103
_symmetry_Int_Tables_number   1
_chemical_formula_structural   Na5Mg2Zn2PS5O24
_chemical_formula_sum   'Na15 Mg6 Zn6 P3 S15 O72'
_cell_volume   1524.72385949
_cell_formula_units_Z   3
loop_
 _symmetry_equiv_pos_site_id
 _symmetry_equiv_pos_as_xyz
  1  'x, y, z'
loop_
 _atom_site_type_symbol
 _atom_site_label
 _atom_site_symmetry_multiplicity
 _atom_site_fract_x
 _atom_site_fract_y
 _atom_site_fract_z
 _atom_site_occupancy
  Na  Na0  1  0.36015489  0.35369380  0.25107590  1
  Na  Na1  1  0.00501329  0.64329006  0.24876226  1
  Na  Na2  1  0.63593889  0.64004571  0.74669460  1
  Na  Na3  1  0.99523062  0.35938564  0.75176941  1
  Na  Na4  1  0.30948005  0.33959379  0.58374028  1
  Na  Na5  1  0.66851845  0.96268419  0.58560028  1
  Na  Na6  1  0.30184315  0.96975032  0.08625375  1
  Na  Na7  1  0.69746958  0.03020816  0.91428107  1
  Na  Na8  1  0.69960221  0.66662931  0.42008131  1
  Na  Na9  1  0.00551723  0.99284866  0.49940262  1
  Na  Na10  1  0.99995680  0.00001254  0.00013388  1
  Na  Na11  1  0.65647050  0.32674475  0.83291595  1
  Na  Na12  1  0.65652253  0.30295287  0.33459741  1
  Na  Na13  1  0.34298005  0.67455719  0.16649669  1
  Na  Na14  1  0.33604782  0.68394672  0.66704185  1
  Mg  Mg0  1  0.00183355  0.00076124  0.84987961  1
  Mg  Mg1  1  0.99757093  0.99945479  0.15049711  1
  Mg  Mg2  1  0.66247859  0.32202081  0.18254299  1
  Mg  Mg3  1  0.66940299  0.34213617  0.98393336  1
  Mg  Mg4  1  0.33074195  0.65752578  0.01652347  1
  Mg  Mg5  1  0.33798140  0.68226208  0.31716810  1
  Zn  Zn0  1  0.01547423  0.00978340  0.34712528  1
  Zn  Zn1  1  0.98310380  0.97787598  0.65278263  1
  Zn  Zn2  1  0.65983886  0.32566858  0.68065361  1
  Zn  Zn3  1  0.67085956  0.33764107  0.48614007  1
  Zn  Zn4  1  0.33373950  0.66830596  0.51391525  1
  Zn  Zn5  1  0.34136539  0.68200628  0.81911247  1
  P  P0  1  0.29754462  0.00051620  0.24787836  1
  P  P1  1  0.70116038  0.00175912  0.75086724  1
  P  P2  1  0.66753045  0.62990877  0.58257511  1
  S  S0  1  0.70339738  0.70509484  0.25035087  1
  S  S1  1  0.99767286  0.29347735  0.24996372  1
  S  S2  1  0.29307540  0.29174989  0.74981636  1
  S  S3  1  0.00396800  0.70707480  0.75130813  1
  S  S4  1  0.96565138  0.33666087  0.58367527  1
  S  S5  1  0.36901169  0.03657209  0.58265435  1
  S  S6  1  0.96097445  0.62792847  0.08394508  1
  S  S7  1  0.66875308  0.03776863  0.08153807  1
  S  S8  1  0.37240601  0.33571084  0.08382415  1
  S  S9  1  0.62869041  0.66413442  0.91645557  1
  S  S10  1  0.03834800  0.37168923  0.91618216  1
  S  S11  1  0.33168201  0.96407460  0.91903192  1
  S  S12  1  0.63238835  0.96596377  0.41708637  1
  S  S13  1  0.33038534  0.36957884  0.41601450  1
  S  S14  1  0.03748748  0.66510968  0.41592270  1
  O  O0  1  0.21576039  0.03850391  0.30284458  1
  O  O1  1  0.80577671  0.77816679  0.30634886  1
  O  O2  1  0.96531239  0.18825933  0.30485935  1
  O  O3  1  0.20602697  0.18351352  0.80218481  1
  O  O4  1  0.97906552  0.79234347  0.80356182  1
  O  O5  1  0.81565530  0.02978600  0.80668405  1
  O  O6  1  0.77992393  0.96985427  0.69321386  1
  O  O7  1  0.19272244  0.21605178  0.69359234  1
  O  O8  1  0.03366968  0.80922966  0.69573031  1
  O  O9  1  0.78743092  0.81617893  0.19823681  1
  O  O10  1  0.02607704  0.21156243  0.19724678  1
  O  O11  1  0.18345152  0.96803116  0.19131425  1
  O  O12  1  0.88941714  0.35900368  0.63974789  1
  O  O13  1  0.47966092  0.11157299  0.63658754  1
  O  O14  1  0.63532648  0.51632368  0.63965663  1
  O  O15  1  0.88195385  0.52698885  0.13975801  1
  O  O16  1  0.63904531  0.12202679  0.13369243  1
  O  O17  1  0.47391636  0.35921813  0.13946651  1
  O  O18  1  0.45817050  0.30631251  0.03193207  1
  O  O19  1  0.85416091  0.54096603  0.03138287  1
  O  O20  1  0.69171094  0.14031786  0.02591142  1
  O  O21  1  0.44937633  0.14629452  0.52869818  1
  O  O22  1  0.68894295  0.54734991  0.52495480  1
  O  O23  1  0.85109334  0.30326303  0.53152019  1
  O  O24  1  0.54126724  0.69392912  0.96759104  1
  O  O25  1  0.14675939  0.45947713  0.96812496  1
  O  O26  1  0.30832592  0.85862372  0.97376346  1
  O  O27  1  0.55712755  0.86091724  0.47337077  1
  O  O28  1  0.31110707  0.44964259  0.47186197  1
  O  O29  1  0.14274268  0.68739574  0.46968614  1
  O  O30  1  0.11917880  0.64651883  0.36085446  1
  O  O31  1  0.52267536  0.87746916  0.36498516  1
  O  O32  1  0.35431070  0.48072374  0.36253506  1
  O  O33  1  0.11385564  0.47149906  0.85956156  1
  O  O34  1  0.36573337  0.88559376  0.86570023  1
  O  O35  1  0.52859856  0.63711256  0.85989796  1
  O  O36  1  0.01231661  0.82003159  0.41243673  1
  O  O37  1  0.80525642  0.97650376  0.41110599  1
  O  O38  1  0.17357736  0.19513554  0.41207649  1
  O  O39  1  0.01656959  0.19312323  0.91265442  1
  O  O40  1  0.17669201  0.98180598  0.91143827  1
  O  O41  1  0.80304012  0.82673611  0.91160186  1
  O  O42  1  0.98765168  0.17959440  0.58763125  1
  O  O43  1  0.19798888  0.02688032  0.58947280  1
  O  O44  1  0.82796293  0.81652254  0.58607339  1
  O  O45  1  0.98276203  0.80635574  0.08739224  1
  O  O46  1  0.82296975  0.01829005  0.08910962  1
  O  O47  1  0.19731049  0.17415353  0.08857500  1
  O  O48  1  0.69116318  0.17148395  0.74501516  1
  O  O49  1  0.47291083  0.31970422  0.74699184  1
  O  O50  1  0.84080097  0.53177652  0.74729342  1
  O  O51  1  0.68904703  0.52952698  0.24342136  1
  O  O52  1  0.84954372  0.32556183  0.24260600  1
  O  O53  1  0.47880429  0.16714324  0.24217947  1
  O  O54  1  0.64902208  0.51021543  0.92438599  1
  O  O55  1  0.85889599  0.34687639  0.92212543  1
  O  O56  1  0.49382618  0.13880409  0.92437887  1
  O  O57  1  0.64956922  0.14014395  0.42202265  1
  O  O58  1  0.49288166  0.35816690  0.41908743  1
  O  O59  1  0.85948914  0.50675249  0.41953175  1
  O  O60  1  0.35343907  0.49083741  0.07658145  1
  O  O61  1  0.14015921  0.65176465  0.07853282  1
  O  O62  1  0.50574914  0.86310427  0.07675866  1
  O  O63  1  0.35157422  0.86153500  0.57685460  1
  O  O64  1  0.49959785  0.64777907  0.57901221  1
  O  O65  1  0.14152095  0.49269724  0.57733578  1
  O  O66  1  0.30783991  0.83199570  0.25544114  1
  O  O67  1  0.52318824  0.67509629  0.25592719  1
  O  O68  1  0.16073224  0.46909535  0.25574212  1
  O  O69  1  0.30789149  0.46829770  0.75456688  1
  O  O70  1  0.15341424  0.67623616  0.75674967  1
  O  O71  1  0.52091412  0.83172531  0.75595278  1
loop_
_geom_bond_atom_site_label_1
_geom_bond_atom_site_label_2
_geom_bond_distance
_geom_bond_site_symmetry_2
Na0 O53 2.377948 1_555
Na0 O68 2.455597 1_555
Na0 O67 2.471830 1_555
Na0 O51 2.536323 1_555
Na0 O0 2.679383 1_555
Na0 O17 2.680791 1_555
Na0 O32 2.748993 1_555
Na0 O10 2.847637 1_555
Na1 O66 2.356516 1_555
Na1 O52 2.445444 1_455
Na1 O51 2.465552 1_455
Na1 O68 2.545755 1_555
Na1 O15 2.660113 1_455
Na1 O30 2.694967 1_555
Na1 O11 2.801672 1_555
Na1 O1 2.893840 1_455
Na2 O71 2.395279 1_555
Na2 O50 2.449435 1_555
Na2 O49 2.460681 1_555
Na2 O69 2.529179 1_555
Na2 O14 2.634463 1_555
Na2 O35 2.697525 1_555
Na2 O6 2.800688 1_555
Na2 O4 2.936078 1_555
Na3 O48 2.364350 1_555
Na3 O70 2.436994 1_655
Na3 O69 2.443099 1_655
Na3 O50 2.519290 1_555
Na3 O33 2.619959 1_655
Na3 O12 2.671041 1_555
Na3 O5 2.809457 1_555
Na3 O7 2.941794 1_655
Na4 O64 2.390078 1_555
Na4 O43 2.438105 1_555
Na4 O42 2.476301 1_455
Na4 O65 2.476802 1_555
Na4 O7 2.669778 1_555
Na4 O28 2.674755 1_555
Na4 O14 2.804964 1_555
Na4 O21 2.858555 1_555
Na5 O44 2.353968 1_555
Na5 O64 2.426176 1_555
Na5 O63 2.499267 1_555
Na5 O42 2.505659 1_565
Na5 O6 2.587150 1_555
Na5 O27 2.683108 1_555
Na5 O13 2.847854 1_565
Na5 O23 2.876800 1_565
Na6 O47 2.419863 1_565
Na6 O62 2.440170 1_555
Na6 O61 2.449682 1_555
Na6 O45 2.454031 1_455
Na6 O11 2.568397 1_555
Na6 O26 2.714546 1_554
Na6 O16 2.807322 1_565
Na6 O18 2.851232 1_565
Na7 O41 2.419317 1_545
Na7 O55 2.439833 1_555
Na7 O56 2.452429 1_555
Na7 O39 2.454243 1_655
Na7 O5 2.623377 1_555
Na7 O20 2.692014 1_556
Na7 O34 2.781049 1_545
Na7 O24 2.839839 1_545
Na8 O36 2.410725 1_655
Na8 O58 2.414451 1_555
Na8 O37 2.427950 1_555
Na8 O59 2.462248 1_555
Na8 O22 2.546845 1_555
Na8 O1 2.712464 1_555
Na8 O27 2.866094 1_555
Na8 O32 2.954988 1_555
Na9 O44 2.485671 1_455
Na9 O36 2.500826 1_555
Na9 O38 2.555945 1_565
Na9 O43 2.558712 1_565
Na9 O37 2.610944 1_455
Na9 O42 2.637333 1_465
Na10 O45 2.544988 1_545
Na10 O39 2.547089 1_654
Na10 O41 2.581570 1_544
Na10 O47 2.583485 1_655
Na10 O40 2.584342 1_644
Na10 O46 2.590806 1_555
Na11 O49 2.498551 1_555
Na11 O48 2.510828 1_555
Na11 O56 2.567341 1_555
Na11 O50 2.574287 1_555
Na11 O55 2.629583 1_555
Na11 O54 2.640786 1_555
Na12 O57 2.405072 1_555
Na12 O53 2.513724 1_555
Na12 O58 2.577748 1_555
Na12 O52 2.618715 1_555
Na12 O59 2.623458 1_555
Na12 O51 2.765652 1_555
Na13 O62 2.539190 1_555
Na13 O66 2.542592 1_555
Na13 O67 2.557821 1_555
Na13 O61 2.604509 1_555
Na13 O60 2.624525 1_555
Na13 O68 2.631047 1_555
Na14 O71 2.494662 1_555
Na14 O63 2.511672 1_555
Na14 O70 2.558050 1_555
Na14 O64 2.561114 1_555
Na14 O65 2.640293 1_555
Na14 O69 2.651060 1_555
Mg0 O3 2.022440 1_555
Mg0 O5 2.039658 1_455
Mg0 O4 2.044559 1_445
Mg0 O40 2.142870 1_545
Mg0 O41 2.156331 1_445
Mg0 O39 2.168054 1_555
Mg1 O11 2.024347 1_655
Mg1 O9 2.051203 1_555
Mg1 O10 2.059919 1_665
Mg1 O46 2.138205 1_565
Mg1 O47 2.164847 1_665
Mg1 O45 2.177613 1_555
Mg2 O16 2.009071 1_555
Mg2 O53 2.014926 1_555
Mg2 O17 2.096481 1_555
Mg2 O15 2.109973 1_555
Mg2 O52 2.123854 1_555
Mg2 O51 2.211001 1_555
Mg3 O19 2.011254 1_556
Mg3 O18 2.043469 1_556
Mg3 O54 2.068391 1_555
Mg3 O20 2.113870 1_556
Mg3 O56 2.158562 1_555
Mg3 O55 2.162278 1_555
Mg4 O25 2.016761 1_554
Mg4 O24 2.047644 1_554
Mg4 O60 2.075611 1_555
Mg4 O26 2.116399 1_554
Mg4 O61 2.169222 1_555
Mg4 O62 2.176069 1_555
Mg5 O31 2.000489 1_555
Mg5 O66 2.019118 1_555
Mg5 O30 2.053207 1_555
Mg5 O32 2.119309 1_555
Mg5 O67 2.166521 1_555
Mg5 O68 2.231328 1_555
O0 P0 1.549279 1_555
O0 Zn0 1.938291 1_555
O1 S0 1.492390 1_555
O1 Zn0 2.168998 1_665
O2 S1 1.475247 1_555
O2 Zn0 2.072299 1_655
O3 S2 1.460241 1_555
O4 S3 1.470210 1_655
O5 P1 1.548782 1_555
O6 P1 1.559383 1_565
O6 Zn1 1.988790 1_555
O7 S2 1.493127 1_555
O7 Zn1 2.199859 1_445
O8 S3 1.476598 1_555
O8 Zn1 2.006106 1_455
O9 S0 1.460867 1_555
O10 S1 1.473825 1_455
O11 P0 1.554269 1_565
O12 S4 1.484822 1_555
O12 Zn2 2.116812 1_555
O13 S5 1.486913 1_555
O13 Zn2 2.027358 1_555
O14 P2 1.555766 1_555
O14 Zn2 2.026193 1_555
O15 S6 1.485559 1_555
O16 S7 1.481081 1_555
O17 S8 1.487879 1_555
O18 S8 1.481886 1_555
O19 S6 1.465512 1_555
O20 S7 1.488313 1_555
O21 S5 1.483517 1_555
O21 Zn3 2.072293 1_555
O22 P2 1.542480 1_555
O22 Zn3 1.990391 1_555
O23 S4 1.476612 1_555
O23 Zn3 2.042879 1_555
O24 S9 1.479290 1_555
O25 S10 1.461468 1_555
O26 S11 1.485308 1_555
O27 S12 1.503010 1_555
O27 Zn4 2.065337 1_555
O28 S13 1.490532 1_555
O28 Zn4 2.078431 1_555
O29 S14 1.473461 1_555
O29 Zn4 2.042717 1_555
O30 S14 1.479866 1_555
O31 S12 1.470122 1_555
O32 S13 1.490662 1_555
O33 S10 1.492027 1_555
O33 Zn5 2.142562 1_555
O34 S11 1.488719 1_555
O34 Zn5 2.006057 1_555
O35 S9 1.493854 1_555
O35 Zn5 2.102312 1_555
O36 S14 1.502257 1_555
O36 Zn0 2.211980 1_565
O37 S12 1.498178 1_555
O37 Zn0 2.250637 1_665
O38 S13 1.478118 1_555
O38 Zn0 2.118731 1_555
O39 S10 1.500480 1_555
O40 S11 1.472975 1_555
O41 S9 1.500537 1_555
O42 S4 1.504694 1_555
O42 Zn1 2.286032 1_545
O43 S5 1.487088 1_555
O43 Zn1 2.235969 1_445
O44 P2 1.554265 1_555
O44 Zn1 2.052002 1_555
O45 S6 1.499122 1_555
O46 S7 1.475111 1_555
O47 S8 1.499982 1_555
O48 P1 1.558551 1_555
O48 Zn2 2.092476 1_555
O49 S2 1.491190 1_555
O49 Zn2 2.207332 1_555
O50 S3 1.506859 1_655
O50 Zn2 2.285386 1_555
O51 S0 1.507976 1_555
O52 S1 1.489478 1_555
O53 P0 1.551662 1_555
O54 S9 1.475718 1_555
O55 S10 1.502940 1_655
O56 S11 1.502263 1_545
O57 S12 1.480789 1_545
O57 Zn3 2.203291 1_555
O58 S13 1.499673 1_555
O58 Zn3 2.249916 1_555
O59 S14 1.501273 1_655
O59 Zn3 2.175009 1_555
O60 S8 1.477537 1_555
O61 S6 1.502967 1_455
O62 S7 1.504320 1_565
O63 S5 1.489046 1_565
O63 Zn4 2.167207 1_555
O64 P2 1.580610 1_555
O64 Zn4 2.141155 1_555
O65 S4 1.486121 1_455
O65 Zn4 2.159129 1_555
O66 P0 1.552836 1_565
O67 S0 1.491663 1_555
O68 S1 1.511047 1_455
O69 S2 1.510353 1_555
O69 Zn5 2.286687 1_555
O70 S3 1.489940 1_555
O70 Zn5 2.155401 1_555
O71 P1 1.559077 1_565
O71 Zn5 2.038842 1_555
