# generated using pymatgen
data_Na10Y8Si5S7O48
_symmetry_space_group_name_H-M   'P 1'
_cell_length_a   18.75348477
_cell_length_b   9.37221965
_cell_length_c   23.98090228
_cell_angle_alpha   90.01326461
_cell_angle_beta   89.81473339
_cell_angle_gamma   119.94786777
_symmetry_Int_Tables_number   1
_chemical_formula_structural   Na10Y8Si5S7O48
_chemical_formula_sum   'Na30 Y24 Si15 S21 O144'
_cell_volume   3652.12530166
_cell_formula_units_Z   3
loop_
 _symmetry_equiv_pos_site_id
 _symmetry_equiv_pos_as_xyz
  1  'x, y, z'
loop_
 _atom_site_type_symbol
 _atom_site_label
 _atom_site_symmetry_multiplicity
 _atom_site_fract_x
 _atom_site_fract_y
 _atom_site_fract_z
 _atom_site_occupancy
  Na  Na0  1  0.33067149  0.00095878  0.24902557  1
  Na  Na1  1  0.82960151  0.00013461  0.24976692  1
  Na  Na2  1  0.18211228  0.37780193  0.24120463  1
  Na  Na3  1  0.68225531  0.37836347  0.24210447  1
  Na  Na4  1  0.99259820  0.62247567  0.25859909  1
  Na  Na5  1  0.49383176  0.62326656  0.25948771  1
  Na  Na6  1  0.83096135  0.65825888  0.74787657  1
  Na  Na7  1  0.99227479  0.36361844  0.75843714  1
  Na  Na8  1  0.49442411  0.34930446  0.75839746  1
  Na  Na9  1  0.17954544  0.98340136  0.74411685  1
  Na  Na10  1  0.02129617  0.71317594  0.58530800  1
  Na  Na11  1  0.32808790  0.97070374  0.59221810  1
  Na  Na12  1  0.02362762  0.33101918  0.08330824  1
  Na  Na13  1  0.52347776  0.33070725  0.08443022  1
  Na  Na14  1  0.15910557  0.30186444  0.92543256  1
  Na  Na15  1  0.66096001  0.30332241  0.92626464  1
  Na  Na16  1  0.15984824  0.01765409  0.42571455  1
  Na  Na17  1  0.66017328  0.01619682  0.42728375  1
  Na  Na18  1  0.00258089  0.99489738  0.50042252  1
  Na  Na19  1  0.51251730  0.98782339  0.50034103  1
  Na  Na20  1  0.00610137  0.01455231  0.99989075  1
  Na  Na21  1  0.50588819  0.01137413  0.00227938  1
  Na  Na22  1  0.34652851  0.32946696  0.83749507  1
  Na  Na23  1  0.85030975  0.32872004  0.83192607  1
  Na  Na24  1  0.35423200  0.37054400  0.33411110  1
  Na  Na25  1  0.85258942  0.36825944  0.33550369  1
  Na  Na26  1  0.17502978  0.64992420  0.16613253  1
  Na  Na27  1  0.67511036  0.65010457  0.16712949  1
  Na  Na28  1  0.17194602  0.68402032  0.67210460  1
  Na  Na29  1  0.68070313  0.71867593  0.66258592  1
  Y  Y0  1  0.99089029  0.98782430  0.35031618  1
  Y  Y1  1  0.49196272  0.98930853  0.35040230  1
  Y  Y2  1  0.99211649  0.99463338  0.85011763  1
  Y  Y3  1  0.49225764  0.00332682  0.85115412  1
  Y  Y4  1  0.99918295  0.99501639  0.65040596  1
  Y  Y5  1  0.50489862  0.99796159  0.64875610  1
  Y  Y6  1  0.00079776  0.00437495  0.15008860  1
  Y  Y7  1  0.50100829  0.00441721  0.15044516  1
  Y  Y8  1  0.32925077  0.32452357  0.68148890  1
  Y  Y9  1  0.82753637  0.31229512  0.68431523  1
  Y  Y10  1  0.33146330  0.34285037  0.18189793  1
  Y  Y11  1  0.83120691  0.34225158  0.18177353  1
  Y  Y12  1  0.33432809  0.33260101  0.98296790  1
  Y  Y13  1  0.83530351  0.33352973  0.98242426  1
  Y  Y14  1  0.33758042  0.34446701  0.48239834  1
  Y  Y15  1  0.83356258  0.33535544  0.48320999  1
  Y  Y16  1  0.16609394  0.65601996  0.01701181  1
  Y  Y17  1  0.66578221  0.65629557  0.01758292  1
  Y  Y18  1  0.16182373  0.66584594  0.51578702  1
  Y  Y19  1  0.66223557  0.67672446  0.51885646  1
  Y  Y20  1  0.16060765  0.65289996  0.31768441  1
  Y  Y21  1  0.66077565  0.65254172  0.31847396  1
  Y  Y22  1  0.16369167  0.66825910  0.81611275  1
  Y  Y23  1  0.66611399  0.67712254  0.81786010  1
  Si  Si0  1  0.35073942  0.70327826  0.24924315  1
  Si  Si1  1  0.85053581  0.70288939  0.24905083  1
  Si  Si2  1  0.99880065  0.29638965  0.24857621  1
  Si  Si3  1  0.49893453  0.29694128  0.24863480  1
  Si  Si4  1  0.99897345  0.70048520  0.74860556  1
  Si  Si5  1  0.35130968  0.00220397  0.74571596  1
  Si  Si6  1  0.85004248  0.99552778  0.74945668  1
  Si  Si7  1  0.18302564  0.03390212  0.58025665  1
  Si  Si8  1  0.68222026  0.03411083  0.58023578  1
  Si  Si9  1  0.18119734  0.32991314  0.08179561  1
  Si  Si10  1  0.68113977  0.32925726  0.08143259  1
  Si  Si11  1  0.01669291  0.36379833  0.91632293  1
  Si  Si12  1  0.51685126  0.36840360  0.91528172  1
  Si  Si13  1  0.01502375  0.66936592  0.41649869  1
  Si  Si14  1  0.51658466  0.67042453  0.41455944  1
  S  S0  1  0.14813927  0.00010122  0.25136632  1
  S  S1  1  0.64829319  -0.00007421  0.25115401  1
  S  S2  1  0.14792919  0.29470242  0.75086347  1
  S  S3  1  0.64705907  0.29685103  0.75177625  1
  S  S4  1  0.49962919  0.70263673  0.75060290  1
  S  S5  1  0.48146202  0.33223591  0.58434365  1
  S  S6  1  0.98135557  0.33361081  0.58356975  1
  S  S7  1  0.33355530  0.63233286  0.58363828  1
  S  S8  1  0.83260144  0.62801916  0.58461230  1
  S  S9  1  0.48221592  0.63047356  0.08286570  1
  S  S10  1  0.98245317  0.63069132  0.08302360  1
  S  S11  1  0.33283961  0.03702422  0.08437898  1
  S  S12  1  0.83274004  0.03717982  0.08434802  1
  S  S13  1  0.31400073  0.66469989  0.91627330  1
  S  S14  1  0.81341974  0.66429245  0.91631653  1
  S  S15  1  0.16745652  0.96618105  0.91667735  1
  S  S16  1  0.66631500  0.96610702  0.91772964  1
  S  S17  1  0.31359734  0.96334054  0.41731407  1
  S  S18  1  0.81302688  0.96212449  0.41645252  1
  S  S19  1  0.16734335  0.36647672  0.41657432  1
  S  S20  1  0.66716008  0.36762631  0.41734397  1
  O  O0  1  0.11188632  0.02849636  0.30195512  1
  O  O1  1  0.61182304  0.02844279  0.30160458  1
  O  O2  1  0.41045656  0.78310430  0.30321492  1
  O  O3  1  0.91059315  0.78197976  0.30301096  1
  O  O4  1  0.48582320  0.17762521  0.30162322  1
  O  O5  1  0.98662519  0.17805771  0.30169007  1
  O  O6  1  0.11201918  0.19447262  0.80173991  1
  O  O7  1  0.61046056  0.19636713  0.80264973  1
  O  O8  1  0.49127680  0.78269313  0.80088133  1
  O  O9  1  0.98792166  0.79653374  0.80155004  1
  O  O10  1  0.41345487  0.03530137  0.79857855  1
  O  O11  1  0.90814283  0.02897013  0.80417497  1
  O  O12  1  0.39421686  0.98483328  0.68839735  1
  O  O13  1  0.89462071  0.96748791  0.69519759  1
  O  O14  1  0.09584843  0.21574113  0.70161244  1
  O  O15  1  0.59452224  0.21469132  0.70282730  1
  O  O16  1  0.01729829  0.81318499  0.69182034  1
  O  O17  1  0.51065089  0.80181376  0.70040422  1
  O  O18  1  0.39498808  0.81913594  0.19492886  1
  O  O19  1  0.89514889  0.81927822  0.19494672  1
  O  O20  1  0.01634068  0.21969279  0.19187971  1
  O  O21  1  0.51585653  0.21949404  0.19179401  1
  O  O22  1  0.09543578  0.97144007  0.20220235  1
  O  O23  1  0.59548539  0.97146576  0.20191563  1
  O  O24  1  0.44426544  0.35833324  0.63576721  1
  O  O25  1  0.94475176  0.36147873  0.63458365  1
  O  O26  1  0.23963805  0.12117732  0.63661155  1
  O  O27  1  0.73843595  0.13125904  0.63414723  1
  O  O28  1  0.32478229  0.53500044  0.63398292  1
  O  O29  1  0.82405770  0.53552828  0.63661266  1
  O  O30  1  0.44556147  0.52945998  0.13418887  1
  O  O31  1  0.94569115  0.52939513  0.13436265  1
  O  O32  1  0.32351977  0.11230686  0.13627894  1
  O  O33  1  0.82307389  0.11164226  0.13629274  1
  O  O34  1  0.23258409  0.34532081  0.13911425  1
  O  O35  1  0.73251700  0.34492995  0.13873151  1
  O  O36  1  0.22908823  0.31905707  0.02565970  1
  O  O37  1  0.72860080  0.31857781  0.02516755  1
  O  O38  1  0.43058037  0.54501071  0.03413641  1
  O  O39  1  0.93061160  0.54533915  0.03435549  1
  O  O40  1  0.34523647  0.14653696  0.03594595  1
  O  O41  1  0.84487133  0.14632682  0.03600554  1
  O  O42  1  0.23115074  0.14222522  0.52496970  1
  O  O43  1  0.72491472  0.13532180  0.52190719  1
  O  O44  1  0.34433271  0.55309245  0.53372120  1
  O  O45  1  0.84557133  0.54404176  0.53615988  1
  O  O46  1  0.42803805  0.31101725  0.53584953  1
  O  O47  1  0.93078520  0.31561087  0.53427478  1
  O  O48  1  0.27656748  0.69101000  0.96658419  1
  O  O49  1  0.77247013  0.68716346  0.96538142  1
  O  O50  1  0.07506598  0.45881740  0.97131326  1
  O  O51  1  0.57554114  0.45980642  0.97001246  1
  O  O52  1  0.16054188  0.86688916  0.96592090  1
  O  O53  1  0.65801080  0.86739460  0.96748257  1
  O  O54  1  0.27345373  0.86119832  0.46763898  1
  O  O55  1  0.77196607  0.85772228  0.46510715  1
  O  O56  1  0.15978633  0.45237134  0.46568990  1
  O  O57  1  0.65963115  0.45305760  0.46587929  1
  O  O58  1  0.07370656  0.69124641  0.47145123  1
  O  O59  1  0.57842856  0.69255949  0.46627614  1
  O  O60  1  0.06043545  0.65334028  0.35967704  1
  O  O61  1  0.55708913  0.65197404  0.35566818  1
  O  O62  1  0.26393562  0.88316220  0.36687497  1
  O  O63  1  0.76555232  0.88597443  0.36453241  1
  O  O64  1  0.17857252  0.46340218  0.36513697  1
  O  O65  1  0.67779811  0.46268254  0.36506036  1
  O  O66  1  0.06225286  0.47042499  0.85956255  1
  O  O67  1  0.56138432  0.47342183  0.85799420  1
  O  O68  1  0.17854185  0.89196330  0.86509360  1
  O  O69  1  0.67811165  0.88921219  0.86713609  1
  O  O70  1  0.26367325  0.64458853  0.86657199  1
  O  O71  1  0.76424678  0.64478832  0.86511831  1
  O  O72  1  0.01720212  0.84843775  0.41485219  1
  O  O73  1  0.51679337  0.84764895  0.41425653  1
  O  O74  1  0.39700009  0.98648090  0.41371198  1
  O  O75  1  0.89722626  0.98676684  0.41323356  1
  O  O76  1  0.09334336  0.20001063  0.41277031  1
  O  O77  1  0.59325268  0.19962303  0.41292919  1
  O  O78  1  0.01755277  0.18740801  0.91477260  1
  O  O79  1  0.51694877  0.18998949  0.91265322  1
  O  O80  1  0.09360198  0.98586801  0.91294615  1
  O  O81  1  0.59179901  0.98349510  0.91191040  1
  O  O82  1  0.39850990  0.80676406  0.91086569  1
  O  O83  1  0.89689713  0.80687712  0.91287106  1
  O  O84  1  0.48327012  0.17525520  0.58901755  1
  O  O85  1  0.99175669  0.18844203  0.58812831  1
  O  O86  1  0.08882311  0.00224575  0.58385607  1
  O  O87  1  0.58969900  0.01555852  0.58558104  1
  O  O88  1  0.40630353  0.80174298  0.58764595  1
  O  O89  1  0.90959303  0.79350485  0.58689822  1
  O  O90  1  0.49102854  0.79477365  0.08754560  1
  O  O91  1  0.99112669  0.79485057  0.08786681  1
  O  O92  1  0.40927228  0.02513378  0.08698298  1
  O  O93  1  0.90904445  0.02511429  0.08703455  1
  O  O94  1  0.08686504  0.16831178  0.08308455  1
  O  O95  1  0.58653497  0.16767268  0.08287378  1
  O  O96  1  0.34508458  0.17562930  0.74443154  1
  O  O97  1  0.84440872  0.16478804  0.74567356  1
  O  O98  1  0.23067019  0.31012305  0.74346490  1
  O  O99  1  0.73171180  0.32679353  0.74509802  1
  O  O100  1  0.42562984  0.53417451  0.74527325  1
  O  O101  1  0.91480623  0.51931221  0.74376428  1
  O  O102  1  0.33718433  0.51471980  0.24480415  1
  O  O103  1  0.83719130  0.51455480  0.24455683  1
  O  O104  1  0.41498029  0.31224868  0.24354047  1
  O  O105  1  0.91493479  0.31169461  0.24353579  1
  O  O106  1  0.23135968  0.14752724  0.24367191  1
  O  O107  1  0.73132491  0.14758049  0.24346888  1
  O  O108  1  0.31728405  0.50869328  0.92151506  1
  O  O109  1  0.81576992  0.50796090  0.92140194  1
  O  O110  1  0.42467881  0.34564890  0.92096597  1
  O  O111  1  0.92483084  0.34365308  0.92194525  1
  O  O112  1  0.24100092  0.13676984  0.92070811  1
  O  O113  1  0.73905120  0.13589150  0.92165246  1
  O  O114  1  0.31676143  0.12553920  0.42231072  1
  O  O115  1  0.81675832  0.12504872  0.42137146  1
  O  O116  1  0.24070862  0.34399282  0.42126702  1
  O  O117  1  0.74078531  0.34497798  0.42090752  1
  O  O118  1  0.42490385  0.50630090  0.42102119  1
  O  O119  1  0.92398685  0.50537777  0.42185617  1
  O  O120  1  0.16935421  0.49569407  0.08056719  1
  O  O121  1  0.66879342  0.49473931  0.08037465  1
  O  O122  1  0.06480644  0.64385458  0.07707010  1
  O  O123  1  0.56453242  0.64330572  0.07695368  1
  O  O124  1  0.25937772  0.87367912  0.07725214  1
  O  O125  1  0.75920731  0.87319173  0.07714138  1
  O  O126  1  0.17875636  0.85004566  0.57887036  1
  O  O127  1  0.67422711  0.84983718  0.58027442  1
  O  O128  1  0.25897295  0.65053436  0.57825043  1
  O  O129  1  0.75955884  0.64548712  0.57719549  1
  O  O130  1  0.06417112  0.48661618  0.57771292  1
  O  O131  1  0.56462403  0.47286266  0.57792979  1
  O  O132  1  0.15860837  0.85303880  0.25710649  1
  O  O133  1  0.65880389  0.85311612  0.25671652  1
  O  O134  1  0.25985419  0.69067600  0.25594512  1
  O  O135  1  0.75970849  0.69032201  0.25576668  1
  O  O136  1  0.08074471  0.48330260  0.25401296  1
  O  O137  1  0.58118427  0.48305140  0.25391981  1
  O  O138  1  0.15620823  0.46020301  0.75598445  1
  O  O139  1  0.65151348  0.46079857  0.75676761  1
  O  O140  1  0.08060981  0.67592943  0.75394562  1
  O  O141  1  0.57300611  0.67855890  0.75448041  1
  O  O142  1  0.25751815  0.84685070  0.75371543  1
  O  O143  1  0.76071198  0.82160146  0.75563875  1
loop_
_geom_bond_atom_site_label_1
_geom_bond_atom_site_label_2
_geom_bond_distance
_geom_bond_site_symmetry_2
Na0 O134 2.528003 1_545
Na0 O104 2.534192 1_555
Na0 O132 2.810931 1_545
Na0 O106 2.815693 1_555
Na0 O4 2.830406 1_555
Na0 O18 2.843008 1_545
Na0 O32 2.925883 1_555
Na1 O135 2.523665 1_545
Na1 O105 2.538281 1_555
Na1 O133 2.788557 1_545
Na1 O107 2.806057 1_555
Na1 O5 2.850024 1_555
Na1 O19 2.860288 1_545
Na1 O33 2.939961 1_555
Na1 O63 2.976385 1_545
Na2 O102 2.527263 1_555
Na2 O136 2.560973 1_555
Na2 O134 2.565835 1_555
Na2 O34 2.693457 1_555
Na2 O106 2.739473 1_555
Na2 O20 2.946710 1_555
Na3 O103 2.524544 1_555
Na3 O137 2.547315 1_555
Na3 O135 2.554989 1_555
Na3 O35 2.722387 1_555
Na3 O107 2.741118 1_555
Na4 O105 2.550097 1_555
Na4 O136 2.568575 1_655
Na4 O103 2.587144 1_555
Na4 O60 2.688831 1_655
Na4 O132 2.765078 1_655
Na4 O3 2.831636 1_555
Na5 O61 2.549184 1_555
Na5 O104 2.555239 1_555
Na5 O137 2.564412 1_555
Na5 O102 2.609903 1_555
Na5 O133 2.749760 1_555
Na5 O2 2.848814 1_555
Na6 O143 2.475029 1_555
Na6 O101 2.494247 1_555
Na6 O99 2.710569 1_555
Na6 O13 2.820985 1_555
Na6 O9 2.866315 1_555
Na6 O29 2.882936 1_555
Na6 O139 2.927942 1_555
Na6 O71 3.050551 1_555
Na7 O97 2.470168 1_555
Na7 O140 2.545823 1_655
Na7 O101 2.546338 1_555
Na7 O66 2.704278 1_655
Na7 O138 2.737638 1_655
Na7 O11 2.929007 1_555
Na8 O96 2.461616 1_555
Na8 O139 2.588038 1_555
Na8 O100 2.645797 1_555
Na8 O141 2.676164 1_555
Na8 O67 2.682211 1_555
Na8 O10 2.724905 1_555
Na9 O142 2.387419 1_555
Na9 O140 2.541936 1_555
Na9 O96 2.701731 1_565
Na9 O98 2.713795 1_565
Na9 O26 2.848456 1_565
Na9 O16 2.924585 1_555
Na9 O68 3.022586 1_555
Na10 O86 2.349275 1_565
Na10 O89 2.555510 1_455
Na10 O126 2.569883 1_555
Na10 O130 2.625234 1_555
Na10 O16 2.734271 1_555
Na10 O58 2.940644 1_555
Na11 O126 2.463271 1_555
Na11 O84 2.564904 1_565
Na11 O12 2.594162 1_555
Na11 O128 2.629735 1_555
Na11 O88 2.643697 1_555
Na11 O26 2.863063 1_565
Na12 O94 2.353168 1_555
Na12 O120 2.375424 1_555
Na12 O93 2.587097 1_455
Na12 O122 2.637039 1_555
Na12 O20 2.782599 1_555
Na12 O50 2.899915 1_554
Na13 O95 2.353366 1_555
Na13 O121 2.369576 1_555
Na13 O92 2.582231 1_555
Na13 O123 2.637338 1_555
Na13 O21 2.754261 1_555
Na13 O51 2.958150 1_554
Na14 O78 2.328975 1_555
Na14 O80 2.596018 1_545
Na14 O108 2.612098 1_555
Na14 O112 2.671548 1_555
Na14 O36 2.708224 1_556
Na14 O50 2.856750 1_555
Na15 O79 2.381185 1_555
Na15 O109 2.561107 1_555
Na15 O81 2.628012 1_545
Na15 O113 2.629190 1_555
Na15 O37 2.663288 1_556
Na15 O51 2.855121 1_555
Na16 O72 2.346852 1_545
Na16 O76 2.589168 1_555
Na16 O114 2.591546 1_555
Na16 O116 2.652142 1_555
Na16 O42 2.697626 1_555
Na16 O58 2.868294 1_545
Na17 O73 2.363759 1_545
Na17 O43 2.555957 1_555
Na17 O115 2.586563 1_555
Na17 O77 2.608830 1_555
Na17 O117 2.674247 1_555
Na17 O59 2.788231 1_545
Na18 O86 2.556059 1_565
Na18 O72 2.557563 1_555
Na18 O89 2.756130 1_455
Na18 O76 2.778993 1_565
Na18 O85 2.849284 1_465
Na18 O75 2.856137 1_455
Na19 O87 2.446288 1_565
Na19 O73 2.469190 1_555
Na19 O77 2.758177 1_565
Na19 O88 2.810486 1_555
Na19 O84 2.976837 1_565
Na19 O74 3.001813 1_555
Na20 O94 2.487966 1_556
Na20 O78 2.547259 1_555
Na20 O80 2.744137 1_545
Na20 O93 2.800923 1_456
Na20 O91 2.861922 1_446
Na20 O83 2.895383 1_445
Na21 O95 2.444228 1_555
Na21 O79 2.667777 1_554
Na21 O92 2.763146 1_555
Na21 O81 2.785304 1_544
Na21 O90 2.795199 1_545
Na21 O82 2.951133 1_544
Na22 O110 2.444320 1_555
Na22 O96 2.649554 1_555
Na22 O112 2.750982 1_555
Na22 O100 2.812763 1_555
Na22 O108 2.844842 1_555
Na23 O111 2.541049 1_555
Na23 O97 2.545855 1_555
Na23 O101 2.636596 1_555
Na23 O113 2.908153 1_555
Na23 O109 2.986875 1_555
Na23 O99 3.045080 1_555
Na24 O118 2.460124 1_555
Na24 O104 2.630344 1_555
Na24 O102 2.636641 1_555
Na24 O116 2.899196 1_555
Na24 O114 2.936288 1_555
Na25 O119 2.455862 1_555
Na25 O105 2.667173 1_555
Na25 O103 2.668485 1_555
Na25 O117 2.855528 1_555
Na25 O115 2.889899 1_555
Na26 O120 2.481451 1_555
Na26 O134 2.594290 1_555
Na26 O136 2.688309 1_555
Na26 O124 2.848015 1_555
Na26 O122 2.957828 1_555
Na26 O132 3.009527 1_555
Na27 O121 2.508104 1_555
Na27 O135 2.569366 1_555
Na27 O137 2.666486 1_555
Na27 O125 2.864189 1_555
Na27 O123 2.979561 1_555
Na27 O133 2.983953 1_555
Na28 O142 2.511622 1_555
Na28 O140 2.576861 1_555
Na28 O126 2.690327 1_555
Na28 O138 2.813092 1_555
Na28 O128 2.883592 1_555
Na28 O130 2.987648 1_555
Na29 O127 2.360908 1_555
Na29 O143 2.595566 1_555
Na29 O129 2.800573 1_555
Na29 O141 2.879288 1_555
O0 S0 1.476474 1_555
O0 Y0 2.399730 1_445
O1 S1 1.476466 1_555
O1 Y1 2.390936 1_545
O2 Si0 1.631409 1_555
O2 Y1 2.100624 1_555
O3 Si1 1.633364 1_555
O3 Y0 2.094251 1_555
O4 Si3 1.627812 1_555
O4 Y1 2.168262 1_545
O5 Si2 1.628003 1_555
O5 Y0 2.165386 1_545
O6 S2 1.479223 1_555
O6 Y2 2.385224 1_445
O7 S3 1.481932 1_555
O7 Y3 2.349507 1_555
O8 S4 1.468659 1_555
O8 Y3 2.385519 1_565
O9 Si4 1.627689 1_555
O9 Y2 2.159526 1_555
O10 Si5 1.646190 1_555
O10 Y3 2.077933 1_555
O11 Si6 1.635656 1_545
O11 Y2 2.077203 1_545
O12 Si5 1.639180 1_565
O12 Y5 2.227004 1_555
O13 Si6 1.634988 1_555
O13 Y4 2.132343 1_555
O14 S2 1.477144 1_555
O14 Y4 2.311420 1_445
O15 S3 1.480250 1_555
O15 Y5 2.288335 1_545
O16 Si4 1.650266 1_455
O16 Y4 2.141715 1_455
O17 S4 1.470699 1_555
O17 Y5 2.263869 1_555
O18 Si0 1.630401 1_555
O18 Y7 2.155580 1_565
O19 Si1 1.629641 1_555
O19 Y6 2.155818 1_665
O20 Si2 1.645063 1_455
O20 Y6 2.139008 1_555
O21 Si3 1.646913 1_555
O21 Y7 2.136459 1_555
O22 S0 1.476951 1_565
O22 Y6 2.317001 1_565
O23 S1 1.479805 1_565
O23 Y7 2.306233 1_565
O24 S5 1.493924 1_555
O24 Y8 2.292904 1_555
O25 S6 1.486427 1_555
O25 Y9 2.332056 1_555
O26 Si7 1.662631 1_555
O26 Y8 2.104173 1_555
O27 Si8 1.631494 1_555
O27 Y9 2.073567 1_555
O28 S7 1.471799 1_555
O28 Y8 2.315788 1_555
O29 S8 1.480769 1_555
O29 Y9 2.414126 1_555
O30 S9 1.492959 1_555
O30 Y10 2.279250 1_555
O31 S10 1.494630 1_555
O31 Y11 2.281207 1_555
O32 S11 1.482811 1_555
O32 Y10 2.359285 1_555
O33 S12 1.481911 1_555
O33 Y11 2.356902 1_555
O34 Si9 1.645741 1_555
O34 Y10 2.132349 1_555
O35 Si10 1.644741 1_555
O35 Y11 2.133114 1_555
O36 Si9 1.646983 1_555
O36 Y12 2.167088 1_554
O37 Si10 1.644359 1_555
O37 Y13 2.186626 1_554
O38 S9 1.475569 1_555
O38 Y12 2.269904 1_554
O39 S10 1.475687 1_555
O39 Y13 2.270903 1_554
O40 S11 1.488984 1_555
O40 Y12 2.248501 1_554
O41 S12 1.486148 1_555
O41 Y13 2.253526 1_554
O42 Si7 1.637412 1_555
O42 Y14 2.197545 1_555
O43 Si8 1.653028 1_555
O43 Y15 2.168441 1_555
O44 S7 1.474186 1_555
O44 Y14 2.259789 1_555
O45 S8 1.489156 1_555
O45 Y15 2.247079 1_555
O46 S5 1.484667 1_555
O46 Y14 2.272509 1_555
O47 S6 1.474021 1_555
O47 Y15 2.282441 1_555
O48 S13 1.475287 1_555
O48 Y16 2.273280 1_556
O49 S14 1.475980 1_555
O49 Y17 2.249430 1_556
O50 Si11 1.663099 1_555
O50 Y16 2.095739 1_556
O51 Si12 1.653885 1_555
O51 Y17 2.111060 1_556
O52 S15 1.468461 1_555
O52 Y16 2.371746 1_556
O53 S16 1.469408 1_555
O53 Y17 2.381004 1_556
O54 S17 1.488201 1_555
O54 Y18 2.286127 1_555
O55 S18 1.467719 1_555
O55 Y19 2.296136 1_555
O56 S19 1.472357 1_555
O56 Y18 2.317443 1_555
O57 S20 1.458463 1_555
O57 Y19 2.430562 1_555
O58 Si13 1.665451 1_555
O58 Y18 2.078970 1_555
O59 Si14 1.641717 1_555
O59 Y19 2.080360 1_555
O60 Si13 1.650670 1_555
O60 Y20 2.130415 1_555
O61 Si14 1.650903 1_555
O61 Y21 2.134263 1_555
O62 S17 1.484333 1_555
O62 Y20 2.375307 1_555
O63 S18 1.491515 1_555
O63 Y21 2.363930 1_555
O64 S19 1.482885 1_555
O64 Y20 2.272332 1_555
O65 S20 1.492302 1_555
O65 Y21 2.255360 1_555
O66 Si11 1.649867 1_555
O66 Y22 2.146823 1_555
O67 Si12 1.651084 1_555
O67 Y23 2.161824 1_555
O68 S15 1.483105 1_555
O68 Y22 2.295869 1_555
O69 S16 1.482364 1_555
O69 Y23 2.225365 1_555
O70 S13 1.475280 1_555
O70 Y22 2.336492 1_555
O71 S14 1.493372 1_555
O71 Y23 2.309433 1_555
O72 Si13 1.658761 1_555
O72 Y0 2.234881 1_455
O73 Si14 1.659053 1_555
O73 Y1 2.224225 1_555
O74 S17 1.470148 1_555
O74 Y1 2.326510 1_555
O75 S18 1.479105 1_555
O75 Y0 2.308137 1_555
O76 S19 1.485708 1_555
O76 Y0 2.468161 1_445
O77 S20 1.494472 1_555
O77 Y1 2.453699 1_545
O78 Si11 1.661684 1_555
O78 Y2 2.244730 1_445
O79 Si12 1.674222 1_555
O79 Y3 2.155096 1_555
O80 S15 1.488730 1_555
O80 Y2 2.464498 1_455
O81 S16 1.492481 1_555
O81 Y3 2.450765 1_565
O82 S13 1.480961 1_555
O82 Y3 2.299214 1_565
O83 S14 1.467608 1_555
O83 Y2 2.323021 1_555
O84 S5 1.492723 1_555
O84 Y5 2.378155 1_545
O85 S6 1.471828 1_555
O85 Y4 2.406424 1_545
O86 Si7 1.640778 1_555
O86 Y4 2.290531 1_445
O87 Si8 1.659692 1_555
O87 Y5 2.138725 1_545
O88 S7 1.493152 1_555
O88 Y5 2.360017 1_555
O89 S8 1.502618 1_555
O89 Y4 2.357166 1_555
O90 S9 1.468680 1_555
O90 Y7 2.409171 1_565
O91 S10 1.468748 1_555
O91 Y6 2.400066 1_665
O92 S11 1.493640 1_555
O92 Y7 2.379929 1_555
O93 S12 1.492241 1_555
O93 Y6 2.374003 1_655
O94 Si9 1.658001 1_555
O94 Y6 2.248576 1_555
O95 Si10 1.661129 1_555
O95 Y7 2.252452 1_555
O96 Si5 1.686990 1_555
O96 Y8 2.175190 1_555
O97 Si6 1.644186 1_545
O97 Y9 2.148752 1_555
O98 S2 1.494795 1_555
O98 Y8 2.319080 1_555
O99 S3 1.475885 1_555
O99 Y9 2.366279 1_555
O100 S4 1.499477 1_555
O100 Y8 2.436803 1_555
O101 Si4 1.647196 1_555
O101 Y9 2.306255 1_555
O102 Si0 1.658478 1_555
O102 Y10 2.170085 1_555
O103 Si1 1.657987 1_555
O103 Y11 2.169385 1_555
O104 Si3 1.655633 1_555
O104 Y10 2.276888 1_555
O105 Si2 1.653873 1_555
O105 Y11 2.281539 1_555
O106 S0 1.491350 1_555
O106 Y10 2.371074 1_555
O107 S1 1.490132 1_555
O107 Y11 2.365918 1_555
O108 S13 1.499144 1_555
O108 Y12 2.351285 1_555
O109 S14 1.492696 1_555
O109 Y13 2.356000 1_555
O110 Si12 1.637803 1_555
O110 Y12 2.207621 1_555
O111 Si11 1.641767 1_655
O111 Y13 2.180971 1_555
O112 S15 1.505625 1_545
O112 Y12 2.338679 1_555
O113 S16 1.495065 1_545
O113 Y13 2.343227 1_555
O114 S17 1.496219 1_545
O114 Y14 2.375135 1_555
O115 S18 1.497902 1_545
O115 Y15 2.359011 1_555
O116 S19 1.496838 1_555
O116 Y14 2.336371 1_555
O117 S20 1.500721 1_555
O117 Y15 2.332629 1_555
O118 Si14 1.644403 1_555
O118 Y14 2.157370 1_555
O119 Si13 1.634708 1_655
O119 Y15 2.206047 1_555
O120 Si9 1.675975 1_555
O120 Y16 2.162843 1_555
O121 Si10 1.678761 1_555
O121 Y17 2.156439 1_555
O122 S10 1.493037 1_455
O122 Y16 2.336997 1_555
O123 S9 1.493609 1_555
O123 Y17 2.323599 1_555
O124 S11 1.471902 1_565
O124 Y16 2.400130 1_555
O125 S12 1.476141 1_565
O125 Y17 2.387629 1_555
O126 Si7 1.684929 1_565
O126 Y18 2.196422 1_555
O127 Si8 1.657319 1_565
O127 Y19 2.118721 1_555
O128 S7 1.497164 1_555
O128 Y18 2.421247 1_555
O129 S8 1.469792 1_555
O129 Y19 2.433998 1_555
O130 S6 1.504399 1_455
O130 Y18 2.300641 1_555
O131 S5 1.462637 1_555
O131 Y19 2.345375 1_555
O132 S0 1.492532 1_565
O132 Y20 2.387893 1_555
O133 S1 1.490261 1_565
O133 Y21 2.408220 1_555
O134 Si0 1.655915 1_555
O134 Y20 2.259659 1_555
O135 Si1 1.655012 1_555
O135 Y21 2.270525 1_555
O136 Si2 1.661541 1_455
O136 Y20 2.176667 1_555
O137 Si3 1.659115 1_555
O137 Y21 2.189582 1_555
O138 S2 1.484827 1_555
O138 Y22 2.372327 1_555
O139 S3 1.501374 1_555
O139 Y23 2.403915 1_555
O140 Si4 1.663216 1_455
O140 Y22 2.186829 1_555
O141 S4 1.504667 1_555
O141 Y23 2.323743 1_555
O142 Si5 1.640590 1_565
O142 Y22 2.276039 1_555
O143 Si6 1.660611 1_555
O143 Y23 2.189203 1_555
