# generated using pymatgen
data_Na42Mg20Nb4Si15(S7O48)3
_symmetry_space_group_name_H-M   'P 1'
_cell_length_a   18.21306732
_cell_length_b   9.05796594
_cell_length_c   22.12288623
_cell_angle_alpha   90.05619389
_cell_angle_beta   90.15916045
_cell_angle_gamma   119.90022481
_symmetry_Int_Tables_number   1
_chemical_formula_structural   Na42Mg20Nb4Si15(S7O48)3
_chemical_formula_sum   'Na42 Mg20 Nb4 Si15 S21 O144'
_cell_volume   3163.87024423
_cell_formula_units_Z   1
loop_
 _symmetry_equiv_pos_site_id
 _symmetry_equiv_pos_as_xyz
  1  'x, y, z'
loop_
 _atom_site_type_symbol
 _atom_site_label
 _atom_site_symmetry_multiplicity
 _atom_site_fract_x
 _atom_site_fract_y
 _atom_site_fract_z
 _atom_site_occupancy
  Na  Na0  1  0.30783023  0.99152496  0.23486283  1
  Na  Na1  1  0.80423479  0.99017723  0.23683276  1
  Na  Na2  1  0.19290537  0.37022992  0.24884654  1
  Na  Na3  1  0.69152119  0.36598578  0.23905846  1
  Na  Na4  1  0.99945207  0.64223084  0.24963352  1
  Na  Na5  1  0.49855528  0.64814957  0.24740888  1
  Na  Na6  1  0.30275441  0.61826025  0.74163125  1
  Na  Na7  1  0.81005757  0.62679310  0.73903946  1
  Na  Na8  1  0.00075139  0.35100562  0.75430527  1
  Na  Na9  1  0.49770405  0.35349290  0.75435869  1
  Na  Na10  1  0.18875893  0.01342557  0.75377639  1
  Na  Na11  1  0.69434358  0.01676782  0.75256469  1
  Na  Na12  1  0.16623828  0.34277409  0.58924782  1
  Na  Na13  1  0.66538296  0.35230781  0.59152371  1
  Na  Na14  1  0.31517320  0.95519953  0.58921807  1
  Na  Na15  1  0.16292994  0.97139337  0.07330419  1
  Na  Na16  1  0.66637688  0.98916944  0.08562430  1
  Na  Na17  1  0.81716489  0.67851610  0.08510353  1
  Na  Na18  1  0.48100133  0.66383856  0.92038642  1
  Na  Na19  1  0.99824797  0.68464748  0.92001605  1
  Na  Na20  1  0.33701457  0.02823522  0.91729746  1
  Na  Na21  1  0.85575795  0.04269356  0.91768375  1
  Na  Na22  1  0.16404106  0.28155658  0.90719809  1
  Na  Na23  1  0.66807399  0.29674954  0.92037015  1
  Na  Na24  1  0.48246186  0.30003881  0.41644952  1
  Na  Na25  1  0.98381684  0.30038619  0.41965198  1
  Na  Na26  1  0.16776474  0.04052921  0.42009743  1
  Na  Na27  1  0.66535722  0.03443479  0.40644449  1
  Na  Na28  1  0.35326506  0.66524294  0.41761358  1
  Na  Na29  1  0.85294216  0.66684247  0.41972394  1
  Na  Na30  1  0.99743279  0.96985971  0.50746477  1
  Na  Na31  1  0.49580266  0.96792106  0.50126877  1
  Na  Na32  1  0.00717719  0.01976012  0.99370271  1
  Na  Na33  1  0.49251493  0.02241160  0.00414578  1
  Na  Na34  1  0.31465778  0.29793295  0.83039523  1
  Na  Na35  1  0.83167187  0.32480478  0.82556881  1
  Na  Na36  1  0.32796582  0.33687997  0.32326633  1
  Na  Na37  1  0.82688819  0.33412392  0.32343511  1
  Na  Na38  1  0.18326069  0.68413873  0.16233377  1
  Na  Na39  1  0.67085067  0.66284153  0.16146669  1
  Na  Na40  1  0.17039805  0.67949317  0.66581736  1
  Na  Na41  1  0.68434392  0.68153239  0.66640055  1
  Mg  Mg0  1  0.00214344  0.99396987  0.34580701  1
  Mg  Mg1  1  0.49871781  0.98880000  0.34261016  1
  Mg  Mg2  1  0.00341003  0.00804261  0.84854201  1
  Mg  Mg3  1  0.50041240  0.01088240  0.84774494  1
  Mg  Mg4  1  0.32170417  0.32342578  0.68325582  1
  Mg  Mg5  1  0.83022898  0.33388258  0.68398046  1
  Mg  Mg6  1  0.32823250  0.32589001  0.18249545  1
  Mg  Mg7  1  0.82370136  0.32255326  0.18186950  1
  Mg  Mg8  1  0.32736089  0.30728780  0.98539656  1
  Mg  Mg9  1  0.82867846  0.31903157  0.99270943  1
  Mg  Mg10  1  0.32699652  0.33773421  0.49540932  1
  Mg  Mg11  1  0.83584136  0.34793949  0.49183914  1
  Mg  Mg12  1  0.17383100  0.68504533  0.01554561  1
  Mg  Mg13  1  0.66710785  0.66361076  0.02184015  1
  Mg  Mg14  1  0.16703847  0.66849927  0.52274520  1
  Mg  Mg15  1  0.67315413  0.67538567  0.52041759  1
  Mg  Mg16  1  0.17188681  0.67872322  0.30962492  1
  Mg  Mg17  1  0.67068110  0.67461633  0.30967213  1
  Mg  Mg18  1  0.17297319  0.67935235  0.81309936  1
  Mg  Mg19  1  0.67190573  0.66361434  0.81075104  1
  Nb  Nb0  1  0.99664695  0.99936738  0.64764267  1
  Nb  Nb1  1  0.49514971  0.99838100  0.65089503  1
  Nb  Nb2  1  0.99550057  0.98879961  0.14960120  1
  Nb  Nb3  1  0.49654044  0.98963949  0.14628533  1
  Si  Si0  1  0.15046471  0.00323523  0.25468285  1
  Si  Si1  1  0.64882904  0.00016983  0.25466045  1
  Si  Si2  1  0.35069058  0.69655352  0.25449597  1
  Si  Si3  1  0.85037655  0.69434721  0.25656720  1
  Si  Si4  1  0.14862358  0.30173078  0.75331545  1
  Si  Si5  1  0.65026993  0.29704074  0.75403361  1
  Si  Si6  1  0.34925613  0.00715058  0.75581224  1
  Si  Si7  1  0.85222629  0.00393475  0.75526298  1
  Si  Si8  1  0.18182029  0.03017373  0.58134361  1
  Si  Si9  1  0.33602273  0.63191802  0.58111288  1
  Si  Si10  1  0.83043032  0.63037262  0.58196725  1
  Si  Si11  1  0.33076379  0.03282397  0.08377723  1
  Si  Si12  1  0.83507248  0.03972821  0.08184604  1
  Si  Si13  1  0.68268715  0.33382071  0.08225672  1
  Si  Si14  1  0.16353991  0.96438521  0.91613974  1
  S  S0  1  0.00053400  0.29038238  0.25275433  1
  S  S1  1  0.50073884  0.29162926  0.25285824  1
  S  S2  1  0.99865958  0.70688423  0.75092380  1
  S  S3  1  0.50057303  0.70962670  0.75267159  1
  S  S4  1  0.48251340  0.33663174  0.58253087  1
  S  S5  1  0.97979149  0.33107802  0.58209560  1
  S  S6  1  0.68453205  0.03553021  0.58162227  1
  S  S7  1  0.47877773  0.62347583  0.08182376  1
  S  S8  1  0.98067924  0.62343171  0.08540646  1
  S  S9  1  0.18336769  0.33573443  0.08375363  1
  S  S10  1  0.31781184  0.66775593  0.91656213  1
  S  S11  1  0.81387663  0.66143917  0.91690156  1
  S  S12  1  0.01990721  0.38068369  0.91749110  1
  S  S13  1  0.52265856  0.38073752  0.91543405  1
  S  S14  1  0.66402150  0.95435390  0.91559640  1
  S  S15  1  0.31693414  0.96743808  0.41653563  1
  S  S16  1  0.81480410  0.96714684  0.41703450  1
  S  S17  1  0.16391056  0.37373364  0.41550855  1
  S  S18  1  0.66378963  0.37011508  0.41709005  1
  S  S19  1  0.02048214  0.66083624  0.41569045  1
  S  S20  1  0.52241638  0.66269378  0.41745072  1
  O  O0  1  0.10946101  0.03944265  0.31350486  1
  O  O1  1  0.60866709  0.03591270  0.31452284  1
  O  O2  1  0.40324840  0.77445069  0.31677707  1
  O  O3  1  0.90571914  0.78793122  0.31585705  1
  O  O4  1  0.48624005  0.18915238  0.30859773  1
  O  O5  1  0.98675802  0.18847244  0.30833080  1
  O  O6  1  0.10625384  0.18188456  0.81097767  1
  O  O7  1  0.60721405  0.17521928  0.81148230  1
  O  O8  1  0.48736763  0.78588388  0.80768992  1
  O  O9  1  0.98389849  0.78006283  0.80592673  1
  O  O10  1  0.40768758  0.02736979  0.81295397  1
  O  O11  1  0.90607803  0.02669802  0.81596541  1
  O  O12  1  0.40646487  0.98444443  0.69498253  1
  O  O13  1  0.90655485  0.97621114  0.69850675  1
  O  O14  1  0.08494301  0.19141481  0.69343439  1
  O  O15  1  0.58802446  0.18632414  0.69227069  1
  O  O16  1  0.01023789  0.81843338  0.69758939  1
  O  O17  1  0.51160872  0.82435343  0.69901277  1
  O  O18  1  0.40751534  0.83577932  0.19966991  1
  O  O19  1  0.90586702  0.82934026  0.19663017  1
  O  O20  1  0.01122299  0.19911725  0.19968582  1
  O  O21  1  0.51266452  0.20432552  0.20009573  1
  O  O22  1  0.08561722  0.98832447  0.19548855  1
  O  O23  1  0.58445172  0.98209829  0.19672839  1
  O  O24  1  0.44361386  0.35164509  0.63748358  1
  O  O25  1  0.93830930  0.34845219  0.63573559  1
  O  O26  1  0.24417221  0.11913439  0.63831333  1
  O  O27  1  0.73432301  0.11408795  0.63668150  1
  O  O28  1  0.32754301  0.52213090  0.64019291  1
  O  O29  1  0.81727034  0.50651046  0.63862533  1
  O  O30  1  0.43921100  0.52872199  0.13718034  1
  O  O31  1  0.93872985  0.53222789  0.14053687  1
  O  O32  1  0.32018282  0.12654435  0.14243773  1
  O  O33  1  0.82523427  0.12878948  0.14183637  1
  O  O34  1  0.23266805  0.35837807  0.13960052  1
  O  O35  1  0.74229450  0.36862680  0.14094568  1
  O  O36  1  0.22381632  0.30764982  0.03047774  1
  O  O37  1  0.71935645  0.28710286  0.02230707  1
  O  O38  1  0.42835631  0.54350233  0.02696129  1
  O  O39  1  0.92825136  0.55061137  0.03082948  1
  O  O40  1  0.34963531  0.13768695  0.02130930  1
  O  O41  1  0.85267202  0.14327426  0.01944404  1
  O  O42  1  0.21724011  0.14827964  0.52028503  1
  O  O43  1  0.72591908  0.14089388  0.52706321  1
  O  O44  1  0.35502453  0.56743776  0.51776870  1
  O  O45  1  0.84636040  0.56063924  0.51791346  1
  O  O46  1  0.42943644  0.30569678  0.52792679  1
  O  O47  1  0.93042568  0.31021418  0.52577282  1
  O  O48  1  0.27415943  0.69045434  0.96856308  1
  O  O49  1  0.77167315  0.68180988  0.97082473  1
  O  O50  1  0.07423005  0.46813159  0.97009145  1
  O  O51  1  0.57705819  0.47270224  0.96729287  1
  O  O52  1  0.14830084  0.84844349  0.97642439  1
  O  O53  1  0.65705539  0.85576597  0.97069518  1
  O  O54  1  0.27560805  0.86284257  0.47039334  1
  O  O55  1  0.77171053  0.85688124  0.46917676  1
  O  O56  1  0.15688076  0.45839572  0.47060209  1
  O  O57  1  0.65654652  0.45703222  0.47149971  1
  O  O58  1  0.07323395  0.67375622  0.46790175  1
  O  O59  1  0.57579519  0.67905831  0.47017966  1
  O  O60  1  0.05923303  0.64454763  0.35893168  1
  O  O61  1  0.56273631  0.64824386  0.36117960  1
  O  O62  1  0.26582899  0.88597118  0.36150007  1
  O  O63  1  0.76523130  0.89002818  0.36089632  1
  O  O64  1  0.17005277  0.47445591  0.36107669  1
  O  O65  1  0.67418005  0.47301885  0.36240357  1
  O  O66  1  0.05941544  0.47313257  0.86070062  1
  O  O67  1  0.56180151  0.47458102  0.85854035  1
  O  O68  1  0.17996699  0.87682048  0.85679683  1
  O  O69  1  0.67012263  0.86609286  0.86102461  1
  O  O70  1  0.26869523  0.64139490  0.86001292  1
  O  O71  1  0.76124539  0.63570670  0.86200313  1
  O  O72  1  0.01119452  0.81665238  0.41555474  1
  O  O73  1  0.51293080  0.81835065  0.41672773  1
  O  O74  1  0.40402281  0.98763783  0.41300702  1
  O  O75  1  0.90219680  0.99016154  0.41422350  1
  O  O76  1  0.08554327  0.20080544  0.41359336  1
  O  O77  1  0.58449997  0.19928084  0.41468829  1
  O  O78  1  0.00670891  0.20408757  0.91625455  1
  O  O79  1  0.51308917  0.20616017  0.91490199  1
  O  O80  1  0.07672102  0.98186050  0.91313186  1
  O  O81  1  0.58585769  0.97060176  0.91373227  1
  O  O82  1  0.40470055  0.82403659  0.91353978  1
  O  O83  1  0.89879740  0.81661169  0.91282255  1
  O  O84  1  0.49157837  0.17463171  0.58640001  1
  O  O85  1  0.98732592  0.17147286  0.58556992  1
  O  O86  1  0.08816589  0.02305366  0.59234781  1
  O  O87  1  0.59992725  0.03054719  0.58554564  1
  O  O88  1  0.42230258  0.83479808  0.58980468  1
  O  O89  1  0.91657922  0.82234756  0.59294057  1
  O  O90  1  0.48716527  0.80115936  0.08561126  1
  O  O91  1  0.99046321  0.80519859  0.08902991  1
  O  O92  1  0.41747437  0.01203470  0.09542277  1
  O  O93  1  0.92092721  0.00958022  0.09174585  1
  O  O94  1  0.09801974  0.16971398  0.08922520  1
  O  O95  1  0.58868729  0.15229205  0.09336255  1
  O  O96  1  0.34902861  0.18263856  0.74498125  1
  O  O97  1  0.84793892  0.17703300  0.74286727  1
  O  O98  1  0.24295643  0.32760991  0.74667645  1
  O  O99  1  0.74413843  0.32190602  0.74608271  1
  O  O100  1  0.42733676  0.53989249  0.74346795  1
  O  O101  1  0.92388665  0.53572295  0.74216950  1
  O  O102  1  0.34688467  0.51604161  0.24171447  1
  O  O103  1  0.85017848  0.51783048  0.24587268  1
  O  O104  1  0.42715281  0.31661904  0.24528211  1
  O  O105  1  0.92698938  0.31418336  0.24462696  1
  O  O106  1  0.24411319  0.16631519  0.24625557  1
  O  O107  1  0.74353313  0.16163828  0.24746794  1
  O  O108  1  0.32954682  0.51697562  0.92403729  1
  O  O109  1  0.82473053  0.50846829  0.92191535  1
  O  O110  1  0.43769429  0.36641496  0.91957660  1
  O  O111  1  0.93491251  0.37074307  0.92134419  1
  O  O112  1  0.24832745  0.15889339  0.92048812  1
  O  O113  1  0.74127360  0.12760597  0.91653427  1
  O  O114  1  0.32709022  0.14195642  0.42112774  1
  O  O115  1  0.82290835  0.14003431  0.42333264  1
  O  O116  1  0.24118102  0.35534997  0.41649470  1
  O  O117  1  0.73887504  0.34386884  0.42059020  1
  O  O118  1  0.43685676  0.50648619  0.42050771  1
  O  O119  1  0.93390440  0.50463826  0.41923861  1
  O  O120  1  0.16753463  0.47790647  0.07637127  1
  O  O121  1  0.66877361  0.49545214  0.07645020  1
  O  O122  1  0.06633766  0.64958472  0.08117328  1
  O  O123  1  0.56675009  0.65786004  0.07690175  1
  O  O124  1  0.24742487  0.84376242  0.08062360  1
  O  O125  1  0.75173739  0.84833102  0.07845592  1
  O  O126  1  0.16815915  0.84087528  0.57541656  1
  O  O127  1  0.66865862  0.86042689  0.57536412  1
  O  O128  1  0.25254229  0.65537198  0.57779853  1
  O  O129  1  0.74509887  0.64746184  0.57970438  1
  O  O130  1  0.06747522  0.47478270  0.57705082  1
  O  O131  1  0.56928088  0.48001253  0.57528484  1
  O  O132  1  0.14901308  0.82226874  0.25182334  1
  O  O133  1  0.64888694  0.81962639  0.25255128  1
  O  O134  1  0.25697347  0.67832641  0.25225646  1
  O  O135  1  0.75770704  0.67837756  0.25210152  1
  O  O136  1  0.07942574  0.45694219  0.25577694  1
  O  O137  1  0.57911372  0.45945575  0.25745737  1
  O  O138  1  0.14927198  0.48245582  0.75213629  1
  O  O139  1  0.64865076  0.47503809  0.75081888  1
  O  O140  1  0.07587406  0.69323755  0.75369920  1
  O  O141  1  0.57989336  0.70282924  0.75486686  1
  O  O142  1  0.25958381  0.83457757  0.74867626  1
  O  O143  1  0.75780180  0.83484519  0.75305575  1
loop_
_geom_bond_atom_site_label_1
_geom_bond_atom_site_label_2
_geom_bond_distance
_geom_bond_site_symmetry_2
Na0 O32 2.336734 1_565
Na0 O106 2.397818 1_565
Na0 O134 2.537434 1_555
Na0 O132 2.538502 1_555
Na0 O104 2.657625 1_565
Na0 O18 2.907219 1_555
Na0 O62 2.938732 1_555
Na1 O107 2.324284 1_565
Na1 O33 2.381231 1_565
Na1 O133 2.482244 1_555
Na1 O135 2.534971 1_555
Na1 O105 2.663956 1_565
Na1 O63 2.869471 1_555
Na1 O19 3.005818 1_555
Na2 O134 2.430626 1_555
Na2 O102 2.438077 1_555
Na2 O106 2.449954 1_555
Na2 O34 2.542404 1_555
Na2 O136 2.555799 1_555
Na2 O64 2.760793 1_555
Na3 O35 2.357148 1_555
Na3 O107 2.471014 1_555
Na3 O135 2.477696 1_555
Na3 O103 2.509822 1_555
Na3 O137 2.608816 1_555
Na4 O103 2.369056 1_555
Na4 O132 2.377415 1_655
Na4 O105 2.583078 1_555
Na4 O31 2.631136 1_555
Na4 O60 2.644823 1_655
Na4 O136 2.719091 1_655
Na5 O133 2.383301 1_555
Na5 O102 2.404323 1_555
Na5 O104 2.610990 1_555
Na5 O30 2.664503 1_555
Na5 O137 2.760897 1_555
Na5 O61 2.772008 1_555
Na5 O23 2.855340 1_555
Na5 O2 2.944180 1_555
Na6 O98 2.296157 1_555
Na6 O138 2.440753 1_555
Na6 O142 2.453117 1_555
Na6 O28 2.528194 1_555
Na6 O100 2.694324 1_555
Na6 O70 2.724909 1_555
Na7 O99 2.405975 1_555
Na7 O29 2.505736 1_555
Na7 O143 2.518345 1_555
Na7 O139 2.564288 1_555
Na7 O101 2.586053 1_555
Na7 O71 2.877766 1_555
Na7 O13 2.894617 1_555
Na8 O138 2.350931 1_555
Na8 O97 2.432304 1_455
Na8 O66 2.590001 1_555
Na8 O101 2.676836 1_455
Na8 O140 2.693204 1_555
Na8 O25 2.851606 1_455
Na8 O11 2.904177 1_455
Na8 O14 2.910664 1_555
Na9 O96 2.364048 1_555
Na9 O139 2.400021 1_555
Na9 O67 2.565438 1_555
Na9 O100 2.589917 1_555
Na9 O141 2.744268 1_555
Na9 O24 2.761435 1_555
Na9 O10 2.878429 1_555
Na10 O98 2.509796 1_555
Na10 O142 2.526838 1_545
Na10 O96 2.539861 1_555
Na10 O68 2.561459 1_545
Na10 O140 2.587204 1_545
Na10 O26 2.741516 1_555
Na10 O6 2.912136 1_555
Na11 O97 2.436040 1_555
Na11 O143 2.439278 1_545
Na11 O99 2.446382 1_555
Na11 O141 2.554451 1_545
Na11 O69 2.688252 1_545
Na11 O27 2.693427 1_555
Na11 O7 2.925002 1_555
Na12 O128 2.473586 1_555
Na12 O86 2.511758 1_555
Na12 O130 2.623067 1_555
Na12 O14 2.717695 1_555
Na12 O28 2.785703 1_555
Na12 O42 2.815720 1_555
Na12 O85 2.826616 1_455
Na12 O56 2.862907 1_555
Na13 O129 2.336129 1_555
Na13 O87 2.543096 1_555
Na13 O131 2.558632 1_555
Na13 O29 2.611177 1_555
Na13 O15 2.669318 1_555
Na13 O84 2.746260 1_555
Na13 O57 2.851490 1_555
Na14 O126 2.359121 1_555
Na14 O128 2.376804 1_555
Na14 O26 2.641200 1_565
Na14 O88 2.667947 1_555
Na14 O54 2.741089 1_555
Na14 O12 2.801345 1_555
Na14 O84 2.812783 1_565
Na15 O124 2.345996 1_555
Na15 O52 2.366674 1_554
Na15 O122 2.551895 1_555
Na15 O94 2.620505 1_565
Na15 O91 2.747137 1_455
Na15 O36 2.836968 1_565
Na15 O32 2.911287 1_565
Na16 O125 2.459249 1_555
Na16 O95 2.509950 1_565
Na16 O123 2.627479 1_555
Na16 O37 2.755867 1_565
Na16 O53 2.782201 1_554
Na16 O33 2.801046 1_565
Na16 O90 2.830556 1_555
Na16 O23 2.863106 1_555
Na17 O121 2.370467 1_555
Na17 O125 2.373710 1_555
Na17 O93 2.633095 1_565
Na17 O49 2.663120 1_554
Na17 O35 2.732176 1_555
Na17 O91 2.770175 1_555
Na17 O19 2.886988 1_555
Na18 O108 2.393372 1_555
Na18 O110 2.400348 1_555
Na18 O82 2.463618 1_555
Na18 O81 2.470136 1_555
Na18 O38 2.577216 1_556
Na18 O8 2.707519 1_555
Na19 O80 2.340827 1_655
Na19 O111 2.479199 1_555
Na19 O83 2.625314 1_555
Na19 O52 2.676254 1_655
Na19 O9 2.722420 1_555
Na19 O109 2.740192 1_555
Na19 O39 2.754863 1_556
Na20 O112 2.433329 1_555
Na20 O40 2.468990 1_556
Na20 O10 2.648022 1_555
Na20 O110 2.673465 1_555
Na20 O82 2.687245 1_545
Na20 O79 2.780745 1_555
Na20 O68 2.813879 1_545
Na20 O48 2.912046 1_545
Na21 O78 2.385419 1_655
Na21 O41 2.439048 1_556
Na21 O11 2.463332 1_555
Na21 O83 2.533801 1_545
Na21 O113 2.557056 1_555
Na21 O111 2.577304 1_555
Na22 O112 2.318649 1_555
Na22 O6 2.343183 1_555
Na22 O80 2.369255 1_545
Na22 O78 2.596616 1_555
Na22 O108 2.712214 1_555
Na22 O36 2.899135 1_556
Na23 O37 2.456769 1_556
Na23 O113 2.483687 1_555
Na23 O79 2.518836 1_555
Na23 O109 2.522653 1_555
Na23 O81 2.564933 1_545
Na23 O7 2.647029 1_555
Na24 O118 2.396555 1_555
Na24 O77 2.445312 1_555
Na24 O74 2.454106 1_545
Na24 O114 2.455799 1_555
Na24 O4 2.602239 1_555
Na24 O46 2.660785 1_555
Na25 O119 2.434367 1_555
Na25 O76 2.435473 1_655
Na25 O75 2.440106 1_545
Na25 O115 2.542179 1_555
Na25 O47 2.561989 1_555
Na25 O5 2.673120 1_555
Na26 O42 2.405202 1_555
Na26 O116 2.475001 1_555
Na26 O72 2.546930 1_545
Na26 O76 2.556868 1_555
Na26 O114 2.570356 1_555
Na26 O0 2.581498 1_555
Na27 O1 2.281189 1_555
Na27 O117 2.449705 1_555
Na27 O73 2.485316 1_545
Na27 O115 2.558396 1_555
Na27 O77 2.573867 1_555
Na27 O43 2.860985 1_555
Na27 O63 2.900839 1_545
Na28 O44 2.393126 1_555
Na28 O2 2.429302 1_555
Na28 O116 2.516711 1_555
Na28 O73 2.521863 1_555
Na28 O118 2.563634 1_555
Na28 O74 2.588907 1_555
Na29 O45 2.355625 1_555
Na29 O72 2.501936 1_655
Na29 O3 2.524504 1_555
Na29 O119 2.548168 1_555
Na29 O75 2.603530 1_555
Na29 O117 2.610713 1_555
Na30 O89 2.363973 1_555
Na30 O86 2.382543 1_665
Na30 O72 2.543051 1_655
Na30 O85 2.585597 1_565
Na30 O75 2.756142 1_555
Na30 O76 2.818542 1_665
Na31 O88 2.343565 1_555
Na31 O73 2.418767 1_555
Na31 O87 2.510009 1_565
Na31 O74 2.630393 1_555
Na31 O84 2.682579 1_565
Na31 O77 2.705565 1_565
Na32 O80 2.311743 1_545
Na32 O78 2.396483 1_555
Na32 O94 2.604331 1_556
Na32 O83 2.614697 1_445
Na32 O93 2.656241 1_456
Na32 O91 2.781925 1_446
Na33 O92 2.417023 1_555
Na33 O79 2.489446 1_554
Na33 O95 2.503903 1_555
Na33 O82 2.629554 1_544
Na33 O90 2.662214 1_545
Na33 O81 2.814912 1_544
Na34 O112 2.349363 1_555
Na34 O98 2.354876 1_555
Na34 O96 2.389055 1_555
Na34 O108 2.784633 1_555
Na34 O110 2.808206 1_555
Na34 O100 2.873890 1_555
Na35 O99 2.361593 1_555
Na35 O97 2.370736 1_555
Na35 O101 2.588437 1_555
Na35 O113 2.654165 1_555
Na35 O111 2.719245 1_555
Na35 O109 2.744261 1_555
Na36 O106 2.291268 1_555
Na36 O102 2.336459 1_555
Na36 O104 2.573089 1_555
Na36 O116 2.657300 1_555
Na36 O114 2.790050 1_555
Na36 O118 2.802413 1_555
Na37 O107 2.277314 1_555
Na37 O103 2.280156 1_555
Na37 O105 2.596442 1_555
Na37 O117 2.712363 1_555
Na37 O119 2.765116 1_555
Na37 O115 2.803868 1_555
Na38 O124 2.248589 1_555
Na38 O134 2.412161 1_555
Na38 O120 2.577753 1_555
Na38 O132 2.579548 1_555
Na38 O122 2.677654 1_555
Na38 O136 2.869661 1_555
Na39 O121 2.403038 1_555
Na39 O125 2.432918 1_555
Na39 O135 2.510498 1_555
Na39 O133 2.608169 1_555
Na39 O123 2.644167 1_555
Na39 O137 2.766547 1_555
Na40 O142 2.382329 1_555
Na40 O126 2.490566 1_555
Na40 O138 2.511213 1_555
Na40 O128 2.533575 1_555
Na40 O140 2.644055 1_555
Na40 O130 2.704735 1_555
Na41 O129 2.312866 1_555
Na41 O143 2.349847 1_555
Na41 O139 2.492039 1_555
Na41 O127 2.688540 1_555
Na41 O141 2.805776 1_555
Na41 O131 2.818235 1_555
Mg0 O0 1.925205 1_565
Mg0 O3 1.931239 1_455
Mg0 O5 2.088922 1_465
Mg0 O76 2.282720 1_565
Mg0 O72 2.292418 1_555
Mg0 O75 2.357649 1_455
Mg1 O1 1.932285 1_565
Mg1 O2 1.935512 1_555
Mg1 O4 2.079468 1_565
Mg1 O74 2.323133 1_555
Mg1 O73 2.353800 1_555
Mg1 O77 2.372549 1_565
Mg2 O6 1.936308 1_555
Mg2 O11 1.995558 1_455
Mg2 O80 2.046121 1_545
Mg2 O9 2.131235 1_445
Mg2 O78 2.299754 1_555
Mg2 O83 2.320620 1_445
Mg3 O10 1.926451 1_555
Mg3 O7 1.940969 1_555
Mg3 O8 2.123154 1_545
Mg3 O79 2.230502 1_555
Mg3 O82 2.258180 1_545
Mg3 O81 2.289228 1_545
Mg4 O26 1.946850 1_555
Mg4 O28 1.992865 1_555
Mg4 O98 2.022940 1_555
Mg4 O96 2.090693 1_555
Mg4 O24 2.338342 1_555
Mg4 O100 2.353731 1_555
Mg5 O29 1.969063 1_555
Mg5 O99 2.049520 1_555
Mg5 O97 2.068299 1_555
Mg5 O27 2.151364 1_555
Mg5 O101 2.187098 1_555
Mg5 O25 2.187332 1_555
Mg6 O32 1.949224 1_555
Mg6 O102 2.051371 1_555
Mg6 O106 2.057756 1_555
Mg6 O34 2.125690 1_555
Mg6 O30 2.185977 1_555
Mg6 O104 2.306407 1_555
Mg7 O35 1.949954 1_555
Mg7 O33 1.977749 1_555
Mg7 O107 2.063155 1_555
Mg7 O103 2.122973 1_555
Mg7 O31 2.208944 1_555
Mg7 O105 2.366454 1_555
Mg8 O40 1.943652 1_556
Mg8 O112 1.999116 1_555
Mg8 O36 2.137232 1_556
Mg8 O38 2.206801 1_556
Mg8 O108 2.319853 1_555
Mg8 O110 2.321653 1_555
Mg9 O41 1.941459 1_556
Mg9 O37 1.977456 1_556
Mg9 O39 2.143727 1_556
Mg9 O109 2.351609 1_555
Mg9 O111 2.360198 1_555
Mg9 O113 2.368135 1_555
Mg10 O44 1.942170 1_555
Mg10 O42 1.957460 1_555
Mg10 O46 2.148365 1_555
Mg10 O116 2.397963 1_555
Mg10 O114 2.417146 1_555
Mg10 O118 2.461700 1_555
Mg11 O45 1.926279 1_555
Mg11 O47 2.056243 1_555
Mg11 O43 2.097797 1_555
Mg11 O119 2.297216 1_555
Mg11 O115 2.334313 1_555
Mg11 O117 2.350386 1_555
Mg12 O52 1.960157 1_554
Mg12 O124 2.000065 1_555
Mg12 O48 2.084012 1_554
Mg12 O50 2.143567 1_554
Mg12 O120 2.266171 1_555
Mg12 O122 2.331048 1_555
Mg13 O121 1.957050 1_555
Mg13 O125 2.039138 1_555
Mg13 O51 2.072136 1_554
Mg13 O49 2.151090 1_554
Mg13 O53 2.159545 1_554
Mg13 O123 2.178311 1_555
Mg14 O126 1.939234 1_555
Mg14 O128 2.024108 1_555
Mg14 O58 2.112562 1_555
Mg14 O56 2.151799 1_555
Mg14 O130 2.157426 1_555
Mg14 O54 2.212825 1_555
Mg15 O129 1.955188 1_555
Mg15 O55 2.069465 1_555
Mg15 O127 2.104045 1_555
Mg15 O59 2.104406 1_555
Mg15 O57 2.138234 1_555
Mg15 O131 2.205298 1_555
Mg16 O134 2.007181 1_555
Mg16 O132 2.009893 1_555
Mg16 O62 2.133348 1_555
Mg16 O64 2.159373 1_555
Mg16 O60 2.208012 1_555
Mg16 O136 2.214049 1_555
Mg17 O133 1.999997 1_555
Mg17 O135 2.023118 1_555
Mg17 O137 2.158325 1_555
Mg17 O63 2.166038 1_555
Mg17 O61 2.182990 1_555
Mg17 O65 2.195277 1_555
Mg18 O68 1.979606 1_555
Mg18 O142 2.074052 1_555
Mg18 O138 2.100137 1_555
Mg18 O70 2.196140 1_555
Mg18 O66 2.245002 1_555
Mg18 O140 2.253741 1_555
Mg19 O143 2.019425 1_555
Mg19 O139 2.031293 1_555
Mg19 O71 2.097024 1_555
Mg19 O69 2.158085 1_555
Mg19 O67 2.159395 1_555
Mg19 O141 2.246303 1_555
Nb0 O13 1.915776 1_555
Nb0 O89 1.953788 1_555
Nb0 O14 1.958807 1_665
Nb0 O86 1.994019 1_665
Nb0 O16 2.091574 1_655
Nb0 O85 2.147459 1_565
Nb1 O12 1.838990 1_555
Nb1 O15 1.927343 1_565
Nb1 O88 1.951539 1_555
Nb1 O17 2.044625 1_555
Nb1 O84 2.167082 1_565
Nb1 O87 2.297498 1_565
Nb2 O19 1.869574 1_555
Nb2 O22 1.929309 1_655
Nb2 O93 1.940123 1_565
Nb2 O20 2.095027 1_665
Nb2 O91 2.100623 1_555
Nb2 O94 2.218884 1_665
Nb3 O92 1.914072 1_565
Nb3 O18 1.930565 1_555
Nb3 O95 1.976656 1_565
Nb3 O23 1.978104 1_555
Nb3 O90 2.109307 1_555
Nb3 O21 2.170046 1_565
O0 Si0 1.614757 1_555
O1 Si1 1.623072 1_555
O2 Si2 1.621723 1_555
O3 Si3 1.610474 1_555
O4 S1 1.487147 1_555
O5 S0 1.483169 1_655
O6 Si4 1.604444 1_555
O7 Si5 1.610406 1_555
O8 S3 1.477178 1_555
O9 S2 1.473162 1_555
O10 Si6 1.600594 1_555
O11 Si7 1.611964 1_555
O12 Si6 1.777594 1_565
O13 Si7 1.694912 1_565
O14 Si4 1.712316 1_555
O15 Si5 1.735845 1_555
O16 S2 1.499626 1_455
O17 S3 1.524795 1_555
O18 Si2 1.685643 1_555
O19 Si3 1.747385 1_555
O20 S0 1.503148 1_555
O21 S1 1.485217 1_555
O22 Si0 1.720498 1_565
O23 Si1 1.686423 1_565
O24 S4 1.448762 1_555
O25 S5 1.458396 1_555
O26 Si8 1.614040 1_555
O27 S6 1.470109 1_555
O28 Si9 1.603631 1_555
O29 Si10 1.619764 1_555
O30 S7 1.464937 1_555
O31 S8 1.460008 1_555
O32 Si11 1.613771 1_555
O33 Si12 1.608596 1_555
O34 S9 1.478001 1_555
O35 Si13 1.616752 1_555
O36 S9 1.479069 1_555
O37 Si13 1.633909 1_555
O38 S7 1.473106 1_555
O39 S8 1.472674 1_555
O40 Si11 1.615523 1_555
O41 Si12 1.610439 1_555
O42 Si8 1.644657 1_555
O43 S6 1.491972 1_555
O44 Si9 1.620897 1_555
O45 Si10 1.635369 1_555
O46 S4 1.481576 1_555
O47 S5 1.490162 1_555
O48 S10 1.471530 1_555
O49 S11 1.481229 1_555
O50 S12 1.473399 1_555
O51 S13 1.469949 1_555
O52 Si14 1.634877 1_555
O53 S14 1.479668 1_555
O54 S15 1.476489 1_555
O55 S16 1.473083 1_555
O56 S17 1.478831 1_555
O57 S18 1.479423 1_555
O58 S19 1.467114 1_555
O59 S20 1.475662 1_555
O60 S19 1.484911 1_555
O61 S20 1.485501 1_555
O62 S15 1.483399 1_555
O63 S16 1.486212 1_555
O64 S17 1.481924 1_555
O65 S18 1.481862 1_555
O66 S12 1.484526 1_555
O67 S13 1.489268 1_555
O68 Si14 1.636728 1_555
O69 S14 1.482043 1_555
O70 S10 1.484109 1_555
O71 S11 1.489449 1_555
O72 S19 1.502876 1_555
O73 S20 1.503627 1_555
O74 S15 1.505598 1_555
O75 S16 1.500188 1_555
O76 S17 1.504367 1_555
O77 S18 1.501426 1_555
O78 S12 1.494584 1_555
O79 S13 1.502083 1_555
O80 Si14 1.666966 1_555
O81 S14 1.502855 1_555
O82 S10 1.509982 1_555
O83 S11 1.486458 1_555
O84 S4 1.558693 1_555
O85 S5 1.520766 1_555
O86 Si8 1.692812 1_555
O87 S6 1.521642 1_555
O88 Si9 1.732623 1_555
O89 Si10 1.679725 1_555
O90 S7 1.541179 1_555
O91 S8 1.567194 1_555
O92 Si11 1.700071 1_555
O93 Si12 1.729613 1_555
O94 S9 1.537291 1_555
O95 Si13 1.700479 1_555
O96 Si6 1.609799 1_555
O97 Si7 1.631703 1_555
O98 Si4 1.621203 1_555
O99 Si5 1.619372 1_555
O100 S3 1.462090 1_555
O101 S2 1.479438 1_555
O102 Si2 1.626101 1_555
O103 Si3 1.614285 1_555
O104 S1 1.475405 1_555
O105 S0 1.469570 1_655
O106 Si0 1.617518 1_555
O107 Si1 1.620626 1_555
O108 S10 1.493187 1_555
O109 S11 1.498181 1_555
O110 S13 1.490142 1_555
O111 S12 1.507814 1_655
O112 Si14 1.668646 1_545
O113 S14 1.497074 1_545
O114 S15 1.500488 1_545
O115 S16 1.504191 1_545
O116 S17 1.497419 1_555
O117 S18 1.502082 1_555
O118 S20 1.495807 1_555
O119 S19 1.506992 1_655
O120 S9 1.462402 1_555
O121 Si13 1.610663 1_555
O122 S8 1.459864 1_455
O123 S7 1.476338 1_555
O124 Si11 1.627615 1_565
O125 Si12 1.640312 1_565
O126 Si8 1.610340 1_565
O127 S6 1.469894 1_565
O128 Si9 1.638193 1_555
O129 Si10 1.637459 1_555
O130 S5 1.478504 1_455
O131 S4 1.471524 1_555
O132 Si0 1.627335 1_565
O133 Si1 1.636502 1_565
O134 Si2 1.631471 1_555
O135 Si3 1.623262 1_555
O136 S0 1.477573 1_555
O137 S1 1.481332 1_555
O138 Si4 1.631381 1_555
O139 Si5 1.628814 1_555
O140 S2 1.472960 1_455
O141 S3 1.476993 1_555
O142 Si6 1.608907 1_565
O143 Si7 1.636801 1_565
