# generated using pymatgen
data_MgZn2(FeO3)2
_symmetry_space_group_name_H-M   'P 1'
_cell_length_a   5.90444644
_cell_length_b   5.90444600
_cell_length_c   5.90444593
_cell_angle_alpha   52.70646997
_cell_angle_beta   52.70647325
_cell_angle_gamma   52.70648103
_symmetry_Int_Tables_number   1
_chemical_formula_structural   MgZn2(FeO3)2
_chemical_formula_sum   'Mg1 Zn2 Fe2 O6'
_cell_volume   120.64746731
_cell_formula_units_Z   1
loop_
 _symmetry_equiv_pos_site_id
 _symmetry_equiv_pos_as_xyz
  1  'x, y, z'
loop_
 _atom_site_type_symbol
 _atom_site_label
 _atom_site_symmetry_multiplicity
 _atom_site_fract_x
 _atom_site_fract_y
 _atom_site_fract_z
 _atom_site_occupancy
  Mg  Mg0  1  0.00000000  0.00000000  0.00000000  1
  Zn  Zn0  1  0.39733500  0.39733500  0.39733500  1
  Zn  Zn1  1  0.60266500  0.60266500  0.60266500  1
  Fe  Fe0  1  0.18161900  0.18161900  0.18161900  1
  Fe  Fe1  1  0.81838100  0.81838100  0.81838100  1
  O  O0  1  0.06368100  0.79320100  0.40595900  1
  O  O1  1  0.59404100  0.93631900  0.20679900  1
  O  O2  1  0.20679900  0.59404100  0.93631900  1
  O  O3  1  0.79320100  0.40595900  0.06368100  1
  O  O4  1  0.40595900  0.06368100  0.79320100  1
  O  O5  1  0.93631900  0.20679900  0.59404100  1
loop_
_geom_bond_atom_site_label_1
_geom_bond_atom_site_label_2
_geom_bond_distance
_geom_bond_site_symmetry_2
Mg0 O5 2.089707 1_454
Mg0 O0 2.089707 1_545
Mg0 O1 2.089707 1_445
Mg0 O4 2.089707 1_554
Mg0 O2 2.089707 1_544
Mg0 O3 2.089707 1_455
Fe0 O2 1.988347 1_554
Fe0 O5 1.988347 1_455
Fe0 O1 1.988348 1_545
Fe0 O0 2.153000 1_545
Fe0 O4 2.153000 1_554
Fe0 O3 2.153000 1_455
Fe1 O3 1.988347 1_556
Fe1 O0 1.988347 1_655
Fe1 O4 1.988348 1_565
Fe1 O5 2.153000 1_565
Fe1 O1 2.153000 1_556
Fe1 O2 2.153000 1_655
O0 Zn0 1.946700 1_555
O1 Zn1 1.946699 1_555
O2 Zn1 1.946700 1_555
O3 Zn0 1.946700 1_555
O4 Zn0 1.946699 1_555
O5 Zn1 1.946700 1_555
