# generated using pymatgen
data_Na10Ca3Ti5Si6(SO8)6
_symmetry_space_group_name_H-M   'P 1'
_cell_length_a   18.21618925
_cell_length_b   9.10584109
_cell_length_c   22.45726532
_cell_angle_alpha   89.61239305
_cell_angle_beta   89.67098165
_cell_angle_gamma   120.11376113
_symmetry_Int_Tables_number   1
_chemical_formula_structural   Na10Ca3Ti5Si6(SO8)6
_chemical_formula_sum   'Na30 Ca9 Ti15 Si18 S18 O144'
_cell_volume   3222.04754901
_cell_formula_units_Z   3
loop_
 _symmetry_equiv_pos_site_id
 _symmetry_equiv_pos_as_xyz
  1  'x, y, z'
loop_
 _atom_site_type_symbol
 _atom_site_label
 _atom_site_symmetry_multiplicity
 _atom_site_fract_x
 _atom_site_fract_y
 _atom_site_fract_z
 _atom_site_occupancy
  Na  Na0  1  0.31655431  0.00229144  0.24909293  1
  Na  Na1  1  0.18814464  0.35711552  0.24202419  1
  Na  Na2  1  0.69058938  0.37130105  0.24104608  1
  Na  Na3  1  0.99734892  0.63315140  0.25290832  1
  Na  Na4  1  0.31525024  0.61675792  0.75525648  1
  Na  Na5  1  0.81705416  0.62199117  0.75370696  1
  Na  Na6  1  0.99180322  0.36303119  0.75027210  1
  Na  Na7  1  0.49349812  0.37232100  0.74153458  1
  Na  Na8  1  0.18646390  0.01008052  0.75277616  1
  Na  Na9  1  0.69064317  0.01447762  0.75472252  1
  Na  Na10  1  0.65375902  0.34337127  0.57282038  1
  Na  Na11  1  0.32143051  0.67520457  0.07619890  1
  Na  Na12  1  0.82352477  0.68360467  0.08740824  1
  Na  Na13  1  0.15813533  0.31361642  0.92251834  1
  Na  Na14  1  0.00233044  0.31155077  0.42057311  1
  Na  Na15  1  0.16377473  0.02563013  0.42149223  1
  Na  Na16  1  0.66227048  0.01319048  0.41561947  1
  Na  Na17  1  0.84492606  0.68357724  0.42145445  1
  Na  Na18  1  0.00252266  0.00525133  0.50459845  1
  Na  Na19  1  0.49003286  0.00347333  0.49799598  1
  Na  Na20  1  0.00108704  0.01734417  0.99926338  1
  Na  Na21  1  0.50205296  0.02772801  0.99614903  1
  Na  Na22  1  0.34260749  0.35008188  0.83582452  1
  Na  Na23  1  0.83634665  0.33660363  0.83406111  1
  Na  Na24  1  0.34043199  0.37430006  0.33037027  1
  Na  Na25  1  0.83302811  0.33092511  0.32881210  1
  Na  Na26  1  0.16380578  0.65329594  0.15866869  1
  Na  Na27  1  0.65749337  0.66310945  0.15997163  1
  Na  Na28  1  0.16249133  0.66457181  0.66161832  1
  Na  Na29  1  0.65803123  0.66437024  0.65944844  1
  Ca  Ca0  1  0.49789176  0.99916677  0.35261770  1
  Ca  Ca1  1  0.33419627  0.33950756  0.68398792  1
  Ca  Ca2  1  0.83578675  0.33703284  0.68835281  1
  Ca  Ca3  1  0.33279740  0.33434699  0.18460948  1
  Ca  Ca4  1  0.83481284  0.32867049  0.18427005  1
  Ca  Ca5  1  0.16403930  0.65799308  0.01134194  1
  Ca  Ca6  1  0.65850391  0.64651047  0.01066958  1
  Ca  Ca7  1  0.16020651  0.65357033  0.51437353  1
  Ca  Ca8  1  0.66938842  0.67114032  0.51717540  1
  Ti  Ti0  1  0.00162188  0.99177067  0.35340514  1
  Ti  Ti1  1  0.99559212  0.00272646  0.85012452  1
  Ti  Ti2  1  0.50052959  0.99823366  0.85558121  1
  Ti  Ti3  1  0.00123939  0.00107893  0.65662984  1
  Ti  Ti4  1  0.50650384  0.01709607  0.64847038  1
  Ti  Ti5  1  0.00902817  0.99321644  0.14856072  1
  Ti  Ti6  1  0.49701934  0.99854622  0.14504632  1
  Ti  Ti7  1  0.33108795  0.34954558  0.97530367  1
  Ti  Ti8  1  0.82513115  0.31863038  0.98143707  1
  Ti  Ti9  1  0.33803673  0.33919821  0.48656002  1
  Ti  Ti10  1  0.83848623  0.34231564  0.47108280  1
  Ti  Ti11  1  0.17150251  0.65941085  0.31422525  1
  Ti  Ti12  1  0.68124176  0.67568812  0.31841740  1
  Ti  Ti13  1  0.15299362  0.63332730  0.81860135  1
  Ti  Ti14  1  0.65261682  0.64886406  0.80822093  1
  Si  Si0  1  0.14475207  0.98378952  0.25381260  1
  Si  Si1  1  0.34983859  0.70878471  0.25067576  1
  Si  Si2  1  0.85619290  0.72197773  0.25070009  1
  Si  Si3  1  0.14100340  0.29145522  0.75361500  1
  Si  Si4  1  0.63955210  0.28968326  0.75207628  1
  Si  Si5  1  0.00896658  0.72275419  0.75515587  1
  Si  Si6  1  0.50255745  0.72405844  0.75122205  1
  Si  Si7  1  0.85047263  0.98264262  0.75225686  1
  Si  Si8  1  0.48172813  0.32328415  0.58963648  1
  Si  Si9  1  0.17997032  0.32277904  0.08539910  1
  Si  Si10  1  0.68173985  0.32561546  0.08886124  1
  Si  Si11  1  0.31625444  0.67323219  0.91677239  1
  Si  Si12  1  0.00666937  0.34747382  0.91878551  1
  Si  Si13  1  0.51058337  0.35769538  0.91537270  1
  Si  Si14  1  0.82055918  0.97158491  0.41589562  1
  Si  Si15  1  0.17090429  0.36604374  0.41520957  1
  Si  Si16  1  0.66846869  0.36770167  0.42125879  1
  Si  Si17  1  0.02318790  0.67312317  0.41310513  1
  S  S0  1  0.64299135  0.98047065  0.25019996  1
  S  S1  1  0.00628887  0.28866617  0.25163623  1
  S  S2  1  0.50905789  0.30307048  0.24755266  1
  S  S3  1  0.35573936  0.98655062  0.75136015  1
  S  S4  1  0.97872675  0.31572391  0.58296723  1
  S  S5  1  0.18012431  0.04025758  0.58430075  1
  S  S6  1  0.68294879  0.04589871  0.58401391  1
  S  S7  1  0.33890420  0.63842318  0.58311663  1
  S  S8  1  0.84276707  0.64060556  0.58251859  1
  S  S9  1  0.47908615  0.64012528  0.08163419  1
  S  S10  1  0.97956320  0.63781612  0.08339469  1
  S  S11  1  0.33949475  0.03959335  0.08524045  1
  S  S12  1  0.83857820  0.04077645  0.07944962  1
  S  S13  1  0.81855466  0.66151326  0.91555904  1
  S  S14  1  0.16664376  0.97107467  0.91323158  1
  S  S15  1  0.66827563  0.97376778  0.91374970  1
  S  S16  1  0.31224194  0.97096718  0.41712081  1
  S  S17  1  0.51463436  0.64873424  0.41616542  1
  O  O0  1  0.08929684  0.00172495  0.30749461  1
  O  O1  1  0.61078815  0.00656404  0.30714329  1
  O  O2  1  0.39728766  0.80418768  0.30829793  1
  O  O3  1  0.91237375  0.83508285  0.30621429  1
  O  O4  1  0.50107896  0.21339837  0.30368845  1
  O  O5  1  0.00022006  0.19874478  0.30737897  1
  O  O6  1  0.09126062  0.18057442  0.81227938  1
  O  O7  1  0.58528501  0.16325472  0.80511646  1
  O  O8  1  0.49656251  0.82665600  0.80703030  1
  O  O9  1  0.99950607  0.82600339  0.81009004  1
  O  O10  1  0.40622047  0.00732602  0.80384709  1
  O  O11  1  0.91320391  0.00705627  0.80738385  1
  O  O12  1  0.39939687  0.97429364  0.69623090  1
  O  O13  1  0.90173313  0.95844424  0.69344044  1
  O  O14  1  0.07871437  0.19721003  0.69493236  1
  O  O15  1  0.58380222  0.20582450  0.68906003  1
  O  O16  1  0.02245774  0.84672276  0.69444492  1
  O  O17  1  0.51386804  0.84420067  0.69118434  1
  O  O18  1  0.40400433  0.83751818  0.19038470  1
  O  O19  1  0.90125977  0.82560383  0.18788428  1
  O  O20  1  0.01039877  0.19646913  0.19834739  1
  O  O21  1  0.51828180  0.20687548  0.19569087  1
  O  O22  1  0.08333778  0.97009269  0.19430377  1
  O  O23  1  0.58906474  0.97552709  0.19934733  1
  O  O24  1  0.44160872  0.33065805  0.65173287  1
  O  O25  1  0.93687399  0.32164226  0.63841228  1
  O  O26  1  0.22324233  0.11903300  0.64037742  1
  O  O27  1  0.72716132  0.12426304  0.63936594  1
  O  O28  1  0.32770161  0.55329379  0.64123163  1
  O  O29  1  0.83398511  0.54376751  0.63738936  1
  O  O30  1  0.44481161  0.54495578  0.13688937  1
  O  O31  1  0.94823822  0.55420795  0.14224284  1
  O  O32  1  0.33505950  0.10745977  0.14370719  1
  O  O33  1  0.83239774  0.11685833  0.13518892  1
  O  O34  1  0.22817032  0.33721519  0.14593137  1
  O  O35  1  0.73275954  0.35116467  0.14959453  1
  O  O36  1  0.23850818  0.31432343  0.02532610  1
  O  O37  1  0.74187624  0.30795968  0.03099650  1
  O  O38  1  0.42350581  0.54640355  0.02946706  1
  O  O39  1  0.92178237  0.53500780  0.03460625  1
  O  O40  1  0.34752897  0.15017521  0.03467296  1
  O  O41  1  0.84301547  0.15250759  0.02707851  1
  O  O42  1  0.23092038  0.14990228  0.53095019  1
  O  O43  1  0.73057854  0.15160572  0.53039236  1
  O  O44  1  0.34031436  0.52556156  0.53325029  1
  O  O45  1  0.84494772  0.54225421  0.52881078  1
  O  O46  1  0.41434243  0.31765844  0.53301898  1
  O  O47  1  0.92903270  0.31492705  0.52903719  1
  O  O48  1  0.28994516  0.70828535  0.97979635  1
  O  O49  1  0.78608784  0.69269392  0.97099389  1
  O  O50  1  0.07554043  0.42039831  0.96954842  1
  O  O51  1  0.56718985  0.41509847  0.97256316  1
  O  O52  1  0.15568075  0.87642624  0.96778195  1
  O  O53  1  0.65760984  0.87651038  0.96775168  1
  O  O54  1  0.27254691  0.87093845  0.47043954  1
  O  O55  1  0.78974409  0.84577126  0.47111849  1
  O  O56  1  0.13325481  0.42402421  0.46834735  1
  O  O57  1  0.65936441  0.44201325  0.48198451  1
  O  O58  1  0.08376323  0.74342084  0.46846838  1
  O  O59  1  0.56450031  0.67600321  0.47017553  1
  O  O60  1  0.06687822  0.62532071  0.35714297  1
  O  O61  1  0.55796807  0.62844342  0.36282873  1
  O  O62  1  0.25954524  0.88251656  0.36225947  1
  O  O63  1  0.74854793  0.86847376  0.36091967  1
  O  O64  1  0.18526958  0.49866523  0.35611429  1
  O  O65  1  0.68307623  0.50502086  0.36346680  1
  O  O66  1  0.05779806  0.47890709  0.85713858  1
  O  O67  1  0.56503886  0.50005924  0.85747165  1
  O  O68  1  0.17499778  0.88266472  0.85961595  1
  O  O69  1  0.67972863  0.89260816  0.85978431  1
  O  O70  1  0.24254756  0.63523609  0.86339130  1
  O  O71  1  0.76380532  0.64035444  0.86338645  1
  O  O72  1  0.99210148  0.81378106  0.40244369  1
  O  O73  1  0.50286952  0.79672088  0.41021860  1
  O  O74  1  0.39988991  0.00776617  0.41270987  1
  O  O75  1  0.91808619  0.02273663  0.40131654  1
  O  O76  1  0.09104458  0.17276595  0.40044187  1
  O  O77  1  0.59964861  0.17186882  0.41411582  1
  O  O78  1  0.99435847  0.15751305  0.90709545  1
  O  O79  1  0.49380128  0.16797152  0.89855276  1
  O  O80  1  0.09333909  0.00220512  0.90847053  1
  O  O81  1  0.59462346  0.00251108  0.90822904  1
  O  O82  1  0.41147044  0.82262982  0.89981776  1
  O  O83  1  0.90651026  0.80663522  0.90664073  1
  O  O84  1  0.48362083  0.13858776  0.58798223  1
  O  O85  1  0.98244471  0.15485444  0.58227943  1
  O  O86  1  0.09615822  0.03344153  0.58284853  1
  O  O87  1  0.59912646  0.04509264  0.58418445  1
  O  O88  1  0.42167175  0.79935185  0.57999614  1
  O  O89  1  0.92314084  0.80752439  0.58257130  1
  O  O90  1  0.47611269  0.80471062  0.08455669  1
  O  O91  1  0.97588717  0.80236087  0.08376176  1
  O  O92  1  0.42127454  0.02703525  0.08537485  1
  O  O93  1  0.91711604  0.02973304  0.07791784  1
  O  O94  1  0.08434772  0.14072125  0.09044226  1
  O  O95  1  0.58744618  0.14544688  0.09314630  1
  O  O96  1  0.34128098  0.13368101  0.74901196  1
  O  O97  1  0.84059403  0.14825910  0.75086096  1
  O  O98  1  0.23379374  0.31131006  0.75277896  1
  O  O99  1  0.73375473  0.31756021  0.75145186  1
  O  O100  1  0.42221288  0.53350121  0.75273001  1
  O  O101  1  0.92711548  0.53519397  0.75223582  1
  O  O102  1  0.33050800  0.51760763  0.24789351  1
  O  O103  1  0.84654866  0.53367470  0.25626251  1
  O  O104  1  0.43379681  0.31903170  0.24102481  1
  O  O105  1  0.93500100  0.32285930  0.24977276  1
  O  O106  1  0.23952048  0.14226035  0.25536914  1
  O  O107  1  0.73091505  0.12856752  0.24436661  1
  O  O108  1  0.31684107  0.48670568  0.92034860  1
  O  O109  1  0.82440163  0.50146669  0.92122514  1
  O  O110  1  0.41748222  0.35007163  0.92521187  1
  O  O111  1  0.91620168  0.34423847  0.92749441  1
  O  O112  1  0.24587610  0.14524800  0.91452269  1
  O  O113  1  0.74772377  0.14832936  0.91830744  1
  O  O114  1  0.31241625  0.13791634  0.41991243  1
  O  O115  1  0.81921945  0.15324608  0.42410162  1
  O  O116  1  0.25597514  0.34934747  0.42768337  1
  O  O117  1  0.76527508  0.37539571  0.42360290  1
  O  O118  1  0.42790642  0.49012247  0.42251279  1
  O  O119  1  0.93047372  0.49127108  0.42564022  1
  O  O120  1  0.17133340  0.48995538  0.08061438  1
  O  O121  1  0.67753878  0.49719437  0.08074972  1
  O  O122  1  0.06693449  0.67785679  0.07526013  1
  O  O123  1  0.56727941  0.68289274  0.07370220  1
  O  O124  1  0.26679986  0.86548863  0.08100773  1
  O  O125  1  0.76399533  0.86946192  0.07354617  1
  O  O126  1  0.17066354  0.87105489  0.58075530  1
  O  O127  1  0.66714302  0.87225437  0.58076791  1
  O  O128  1  0.26735757  0.66687648  0.57508343  1
  O  O129  1  0.76734934  0.66090320  0.58084809  1
  O  O130  1  0.06456489  0.46586056  0.58236865  1
  O  O131  1  0.57764301  0.47886878  0.58423707  1
  O  O132  1  0.14326500  0.80271052  0.25668167  1
  O  O133  1  0.64527475  0.81851077  0.25124157  1
  O  O134  1  0.25376859  0.70245846  0.25296687  1
  O  O135  1  0.75794501  0.69563752  0.25961213  1
  O  O136  1  0.08799222  0.45824644  0.25086575  1
  O  O137  1  0.58940752  0.47268068  0.24781687  1
  O  O138  1  0.14920744  0.48257082  0.75672687  1
  O  O139  1  0.64420459  0.47730170  0.75654498  1
  O  O140  1  0.09715521  0.71108309  0.75913132  1
  O  O141  1  0.59213800  0.71310440  0.75624060  1
  O  O142  1  0.27118789  0.82675347  0.75366587  1
  O  O143  1  0.75835490  0.80803946  0.75979063  1
loop_
_geom_bond_atom_site_label_1
_geom_bond_atom_site_label_2
_geom_bond_distance
_geom_bond_site_symmetry_2
Na0 O106 2.325568 1_555
Na0 O134 2.373209 1_545
Na0 O32 2.503621 1_555
Na0 O104 2.592325 1_555
Na0 O62 2.742702 1_545
Na0 O132 2.743996 1_545
Na0 O18 2.987996 1_545
Na1 O102 2.254329 1_555
Na1 O34 2.311088 1_555
Na1 O136 2.428993 1_555
Na1 O106 2.574077 1_555
Na1 O134 2.760419 1_555
Na1 O64 2.887833 1_555
Na1 O20 2.981415 1_555
Na2 O35 2.229334 1_555
Na2 O137 2.445105 1_555
Na2 O103 2.485374 1_555
Na2 O135 2.605382 1_555
Na2 O107 2.656724 1_555
Na3 O132 2.311385 1_655
Na3 O103 2.423238 1_555
Na3 O105 2.462058 1_555
Na3 O31 2.626388 1_555
Na3 O60 2.685355 1_655
Na3 O136 2.811397 1_655
Na3 O22 2.949308 1_655
Na4 O98 2.408859 1_555
Na4 O142 2.416913 1_555
Na4 O100 2.419915 1_555
Na4 O138 2.632966 1_555
Na4 O28 2.662217 1_555
Na4 O70 2.805644 1_555
Na5 O99 2.402404 1_555
Na5 O143 2.418936 1_555
Na5 O101 2.497000 1_555
Na5 O71 2.678917 1_555
Na5 O139 2.736396 1_555
Na5 O29 2.768086 1_555
Na5 O13 2.962293 1_555
Na6 O101 2.387912 1_555
Na6 O97 2.450667 1_555
Na6 O138 2.510457 1_655
Na6 O66 2.666980 1_655
Na6 O25 2.667769 1_555
Na6 O140 2.770709 1_655
Na6 O14 2.955071 1_655
Na7 O24 2.185607 1_555
Na7 O100 2.411880 1_555
Na7 O139 2.438389 1_555
Na7 O96 2.526330 1_555
Na7 O141 2.718964 1_555
Na7 O67 2.896388 1_555
Na7 O15 2.982901 1_555
Na8 O140 2.372182 1_545
Na8 O98 2.427775 1_555
Na8 O96 2.457287 1_555
Na8 O68 2.619150 1_545
Na8 O26 2.661632 1_555
Na8 O142 2.784634 1_545
Na8 O16 2.909680 1_545
Na9 O97 2.368474 1_555
Na9 O141 2.410141 1_545
Na9 O99 2.461815 1_555
Na9 O69 2.564289 1_545
Na9 O143 2.719061 1_545
Na9 O27 2.725975 1_555
Na10 O57 2.204383 1_555
Na10 O131 2.286344 1_555
Na10 O87 2.389144 1_555
Na10 O129 2.584982 1_555
Na10 O84 2.716385 1_555
Na10 O15 2.884954 1_555
Na10 O43 2.893851 1_555
Na11 O48 2.299009 1_554
Na11 O120 2.386990 1_555
Na11 O124 2.394950 1_555
Na11 O90 2.457692 1_555
Na11 O92 2.789367 1_565
Na12 O121 2.335389 1_555
Na12 O91 2.421534 1_555
Na12 O125 2.444440 1_555
Na12 O19 2.647148 1_555
Na12 O49 2.716784 1_554
Na12 O93 2.735080 1_565
Na12 O35 2.956628 1_555
Na12 O39 2.977949 1_555
Na13 O50 2.405881 1_555
Na13 O80 2.488280 1_555
Na13 O108 2.503914 1_555
Na13 O78 2.608508 1_455
Na13 O112 2.719666 1_555
Na13 O36 2.739275 1_556
Na13 O6 2.770363 1_555
Na13 O70 2.847732 1_555
Na14 O75 2.330593 1_455
Na14 O56 2.341200 1_555
Na14 O76 2.541977 1_555
Na14 O119 2.560223 1_455
Na14 O5 2.741414 1_555
Na14 O47 2.778799 1_455
Na14 O60 2.851241 1_555
Na14 O115 2.894991 1_455
Na15 O76 2.356602 1_555
Na15 O114 2.366140 1_555
Na15 O58 2.455248 1_545
Na15 O116 2.563129 1_555
Na15 O42 2.739029 1_555
Na15 O72 2.767134 1_445
Na15 O0 2.862360 1_555
Na15 O62 2.964680 1_545
Na16 O77 2.245848 1_555
Na16 O115 2.487474 1_555
Na16 O73 2.568170 1_545
Na16 O1 2.605582 1_555
Na16 O63 2.791681 1_545
Na16 O117 2.869302 1_555
Na16 O43 2.878785 1_555
Na16 O59 2.921837 1_545
Na17 O72 2.359249 1_555
Na17 O117 2.427812 1_555
Na17 O55 2.436136 1_555
Na17 O75 2.713415 1_565
Na17 O45 2.725279 1_555
Na17 O119 2.870777 1_555
Na17 O65 2.880006 1_555
Na17 O3 2.885270 1_555
Na18 O85 2.357455 1_455
Na18 O86 2.380015 1_555
Na18 O89 2.390540 1_445
Na18 O76 2.799733 1_555
Na18 O75 2.837710 1_455
Na18 O72 2.840035 1_445
Na19 O84 2.405473 1_555
Na19 O88 2.449775 1_545
Na19 O74 2.542785 1_555
Na19 O77 2.594641 1_555
Na19 O87 2.671634 1_555
Na19 O73 2.823387 1_545
Na20 O93 2.370097 1_456
Na20 O78 2.460181 1_455
Na20 O94 2.472304 1_556
Na20 O91 2.584927 1_446
Na20 O80 2.682775 1_555
Na20 O83 2.784659 1_445
Na21 O92 2.477300 1_556
Na21 O79 2.572099 1_555
Na21 O95 2.590568 1_556
Na21 O81 2.674159 1_555
Na21 O90 2.694595 1_546
Na21 O82 2.809638 1_545
Na22 O100 2.423025 1_555
Na22 O110 2.433417 1_555
Na22 O108 2.445151 1_555
Na22 O112 2.515766 1_555
Na22 O98 2.623154 1_555
Na22 O96 2.772918 1_555
Na23 O113 2.503726 1_555
Na23 O101 2.510086 1_555
Na23 O111 2.541473 1_555
Na23 O109 2.548591 1_555
Na23 O97 2.571629 1_555
Na23 O99 2.585205 1_555
Na24 O102 2.318200 1_555
Na24 O118 2.512835 1_555
Na24 O116 2.607368 1_555
Na24 O106 2.620451 1_555
Na24 O114 2.786499 1_555
Na24 O104 2.829316 1_555
Na25 O103 2.371089 1_555
Na25 O117 2.588776 1_555
Na25 O105 2.589857 1_555
Na25 O115 2.607467 1_555
Na25 O107 2.664623 1_555
Na25 O119 2.738213 1_555
Na26 O120 2.353891 1_555
Na26 O124 2.564045 1_555
Na26 O134 2.585944 1_555
Na26 O136 2.608607 1_555
Na26 O122 2.664739 1_555
Na26 O132 2.716218 1_555
Na27 O121 2.482647 1_555
Na27 O137 2.490873 1_555
Na27 O133 2.569657 1_555
Na27 O123 2.610630 1_555
Na27 O125 2.703890 1_555
Na27 O135 2.820514 1_555
Na28 O130 2.542594 1_555
Na28 O126 2.554384 1_555
Na28 O140 2.622949 1_555
Na28 O138 2.628848 1_555
Na28 O128 2.709740 1_555
Na28 O142 2.743844 1_555
Na29 O131 2.331400 1_555
Na29 O127 2.523699 1_555
Na29 O141 2.623013 1_555
Na29 O129 2.665657 1_555
Na29 O139 2.689362 1_555
Na29 O143 2.795942 1_555
Ca0 O2 2.069129 1_555
Ca0 O4 2.207453 1_565
Ca0 O77 2.224888 1_565
Ca0 O1 2.261142 1_565
Ca0 O74 2.264584 1_565
Ca0 O73 2.283988 1_555
Ca1 O24 2.121881 1_555
Ca1 O28 2.220975 1_555
Ca1 O26 2.247762 1_555
Ca1 O98 2.299683 1_555
Ca1 O100 2.301660 1_555
Ca1 O96 2.422722 1_555
Ca2 O29 2.210885 1_555
Ca2 O25 2.214874 1_555
Ca2 O97 2.247842 1_555
Ca2 O27 2.255287 1_555
Ca2 O99 2.264862 1_555
Ca2 O101 2.265407 1_555
Ca3 O34 2.110993 1_555
Ca3 O102 2.215276 1_555
Ca3 O30 2.238371 1_555
Ca3 O32 2.285707 1_555
Ca3 O104 2.300297 1_555
Ca3 O106 2.328262 1_555
Ca4 O35 2.121527 1_555
Ca4 O33 2.209301 1_555
Ca4 O31 2.251903 1_555
Ca4 O107 2.280461 1_555
Ca4 O105 2.371530 1_555
Ca4 O103 2.405962 1_555
Ca5 O50 2.169241 1_554
Ca5 O48 2.212433 1_554
Ca5 O120 2.225583 1_555
Ca5 O52 2.283769 1_554
Ca5 O122 2.348937 1_555
Ca5 O124 2.458916 1_555
Ca6 O51 2.112606 1_554
Ca6 O121 2.212721 1_555
Ca6 O53 2.307071 1_554
Ca6 O49 2.315723 1_554
Ca6 O123 2.325234 1_555
Ca6 O125 2.442012 1_555
Ca7 O56 2.164191 1_555
Ca7 O58 2.195340 1_555
Ca7 O54 2.228212 1_555
Ca7 O130 2.287919 1_555
Ca7 O128 2.340688 1_555
Ca7 O126 2.417686 1_555
Ca8 O57 2.156995 1_555
Ca8 O55 2.204211 1_555
Ca8 O59 2.207730 1_555
Ca8 O131 2.264025 1_555
Ca8 O129 2.330689 1_555
Ca8 O127 2.346224 1_555
O0 Si0 1.629331 1_545
O0 Ti0 1.859175 1_545
O1 S0 1.473513 1_545
O2 Si1 1.565534 1_555
O3 Si2 1.623797 1_555
O3 Ti0 1.874724 1_655
O4 S2 1.463556 1_555
O5 S1 1.464056 1_555
O5 Ti0 2.154822 1_545
O6 Si3 1.620617 1_555
O6 Ti1 1.874683 1_455
O7 Si4 1.596037 1_555
O7 Ti2 1.885456 1_545
O8 Si6 1.603787 1_555
O8 Ti2 1.882989 1_555
O9 Si5 1.615982 1_655
O9 Ti1 1.880673 1_565
O10 S3 1.453160 1_545
O10 Ti2 2.114795 1_545
O11 Si7 1.628788 1_545
O11 Ti1 1.802956 1_555
O12 S3 1.502437 1_555
O12 Ti4 2.077568 1_565
O13 Si7 1.691560 1_555
O13 Ti3 1.841746 1_665
O14 Si3 1.678112 1_555
O14 Ti3 1.851163 1_555
O15 Si4 1.694146 1_555
O15 Ti4 1.837041 1_555
O16 Si5 1.700145 1_555
O16 Ti3 1.838173 1_565
O17 Si6 1.675655 1_555
O17 Ti4 1.899922 1_565
O18 Si1 1.727281 1_555
O18 Ti6 1.877395 1_555
O19 Si2 1.657019 1_555
O19 Ti5 1.979524 1_655
O20 S1 1.489360 1_555
O20 Ti5 2.158257 1_545
O21 S2 1.520264 1_555
O21 Ti6 2.083071 1_545
O22 Si0 1.712460 1_555
O22 Ti5 1.797495 1_555
O23 S0 1.496800 1_555
O23 Ti6 2.171420 1_555
O24 Si8 1.588107 1_555
O25 S4 1.471656 1_555
O26 S5 1.474995 1_555
O27 S6 1.466233 1_555
O28 S7 1.473213 1_555
O29 S8 1.470737 1_555
O30 S9 1.454037 1_555
O31 S10 1.481071 1_555
O32 S11 1.473861 1_555
O33 S12 1.465570 1_555
O34 Si9 1.592623 1_555
O35 Si10 1.606239 1_555
O36 Si9 1.740769 1_555
O36 Ti7 1.907761 1_554
O37 Si10 1.754346 1_555
O37 Ti8 1.838332 1_554
O38 S9 1.511956 1_555
O38 Ti7 2.133506 1_554
O39 S10 1.491003 1_555
O39 Ti8 2.232191 1_554
O40 S11 1.469591 1_555
O40 Ti7 2.383386 1_554
O41 S12 1.524823 1_555
O41 Ti8 1.980482 1_554
O42 S5 1.527269 1_555
O42 Ti9 2.086091 1_555
O43 S6 1.504553 1_555
O43 Ti10 2.273093 1_555
O44 S7 1.533834 1_555
O44 Ti9 1.983649 1_555
O45 S8 1.519256 1_555
O45 Ti10 2.197229 1_555
O46 Si8 1.755495 1_555
O46 Ti9 1.829367 1_555
O47 S4 1.514080 1_555
O47 Ti10 2.215781 1_555
O48 Si11 1.576893 1_555
O49 S13 1.464592 1_555
O50 Si12 1.582783 1_555
O51 Si13 1.571459 1_555
O52 S14 1.446936 1_555
O53 S15 1.450135 1_555
O54 S16 1.449366 1_555
O55 Si14 1.578941 1_555
O56 Si15 1.592357 1_555
O57 Si16 1.570876 1_555
O58 Si17 1.578267 1_555
O59 S17 1.465729 1_555
O60 Si17 1.657061 1_555
O60 Ti11 2.009675 1_555
O61 S17 1.493470 1_555
O61 Ti12 2.285062 1_555
O62 S16 1.529472 1_555
O62 Ti11 2.154800 1_555
O63 Si14 1.710255 1_555
O63 Ti12 1.836397 1_555
O64 Si15 1.716193 1_555
O64 Ti11 1.855463 1_555
O65 Si16 1.720159 1_555
O65 Ti12 1.863057 1_555
O66 Si12 1.749485 1_555
O66 Ti13 1.803562 1_555
O67 Si13 1.739918 1_555
O67 Ti14 1.842493 1_555
O68 S14 1.501653 1_555
O68 Ti13 2.298528 1_555
O69 S15 1.490756 1_555
O69 Ti14 2.335036 1_555
O70 Si11 1.708070 1_555
O70 Ti13 1.914139 1_555
O71 S13 1.492719 1_555
O71 Ti14 2.414160 1_555
O72 Si17 1.656399 1_655
O72 Ti0 1.887142 1_655
O73 S17 1.472180 1_555
O74 S16 1.460191 1_545
O75 Si14 1.625199 1_545
O75 Ti0 1.992141 1_645
O76 Si15 1.663749 1_555
O76 Ti0 1.958301 1_545
O77 Si16 1.593802 1_555
O78 Si12 1.651918 1_655
O78 Ti1 1.918289 1_555
O79 Si13 1.643449 1_555
O79 Ti2 1.882578 1_545
O80 S14 1.501983 1_545
O80 Ti1 2.218679 1_455
O81 S15 1.495916 1_545
O81 Ti2 2.072251 1_545
O82 Si11 1.619188 1_555
O82 Ti2 1.879535 1_555
O83 S13 1.490522 1_555
O83 Ti1 2.114384 1_565
O84 Si8 1.700026 1_555
O84 Ti4 1.921397 1_555
O85 S4 1.500154 1_555
O85 Ti3 2.306910 1_655
O86 S5 1.499919 1_555
O86 Ti3 2.295887 1_555
O87 S6 1.523237 1_555
O87 Ti4 2.128710 1_555
O88 S7 1.485223 1_555
O88 Ti4 2.382852 1_565
O89 S8 1.490255 1_555
O89 Ti3 2.333917 1_665
O90 S9 1.528415 1_555
O90 Ti6 2.114144 1_555
O91 S10 1.533084 1_555
O91 Ti5 2.119884 1_655
O92 S11 1.550266 1_555
O92 Ti6 2.035326 1_545
O93 S12 1.483889 1_555
O93 Ti5 2.452066 1_645
O94 Si9 1.700834 1_555
O94 Ti5 1.869912 1_545
O95 Si10 1.679128 1_555
O95 Ti6 1.899214 1_545
O96 S3 1.490081 1_545
O97 Si7 1.606051 1_545
O98 Si3 1.607187 1_555
O99 Si4 1.603719 1_555
O100 Si6 1.613813 1_555
O101 Si5 1.609881 1_655
O102 Si1 1.595306 1_555
O103 Si2 1.637406 1_555
O104 S2 1.457441 1_555
O105 S1 1.480271 1_655
O106 Si0 1.601685 1_545
O107 S0 1.492940 1_545
O108 Si11 1.705221 1_555
O108 Ti7 1.859684 1_555
O109 S13 1.518167 1_555
O109 Ti8 2.142983 1_555
O110 Si13 1.675480 1_555
O110 Ti7 1.927245 1_555
O111 Si12 1.643913 1_655
O111 Ti8 1.964419 1_555
O112 S14 1.517735 1_545
O112 Ti7 2.212340 1_555
O113 S15 1.525501 1_545
O113 Ti8 2.064350 1_555
O114 S16 1.520340 1_545
O114 Ti9 2.236984 1_555
O115 Si14 1.677928 1_545
O115 Ti10 1.903391 1_555
O116 Si15 1.656464 1_555
O116 Ti9 2.037406 1_555
O117 Si16 1.730479 1_555
O117 Ti10 1.849679 1_555
O118 S17 1.518964 1_555
O118 Ti9 2.079940 1_555
O119 Si17 1.689860 1_655
O119 Ti10 1.835765 1_555
O120 Si9 1.609952 1_555
O121 Si10 1.611312 1_555
O122 S10 1.453575 1_455
O123 S9 1.460260 1_555
O124 S11 1.474071 1_565
O125 S12 1.474818 1_565
O126 S5 1.464675 1_565
O127 S6 1.460588 1_565
O128 S7 1.462596 1_555
O129 S8 1.475890 1_555
O130 S4 1.472635 1_455
O131 Si8 1.608094 1_555
O132 Si0 1.636277 1_555
O132 Ti11 2.072570 1_555
O133 S0 1.496113 1_555
O133 Ti12 2.288287 1_555
O134 Si1 1.722305 1_555
O134 Ti11 1.916117 1_555
O135 Si2 1.692666 1_555
O135 Ti12 1.857459 1_555
O136 S1 1.514295 1_555
O136 Ti11 2.226686 1_555
O137 S2 1.503184 1_555
O137 Ti12 2.386742 1_555
O138 Si3 1.672288 1_555
O138 Ti13 1.936993 1_555
O139 Si4 1.671256 1_555
O139 Ti14 1.896610 1_555
O140 Si5 1.665177 1_555
O140 Ti13 2.011231 1_555
O141 Si6 1.688420 1_555
O141 Ti14 1.889650 1_555
O142 S3 1.497138 1_555
O142 Ti13 2.447113 1_555
O143 Si7 1.639586 1_555
O143 Ti14 2.036414 1_555
