# generated using pymatgen
data_Mg2V2O7
_symmetry_space_group_name_H-M   'P 1'
_cell_length_a   4.94987179
_cell_length_b   5.40659891
_cell_length_c   10.56122502
_cell_angle_alpha   101.23643222
_cell_angle_beta   102.17180709
_cell_angle_gamma   98.62063513
_symmetry_Int_Tables_number   1
_chemical_formula_structural   Mg2V2O7
_chemical_formula_sum   'Mg4 V4 O14'
_cell_volume   265.55924353
_cell_formula_units_Z   2
loop_
 _symmetry_equiv_pos_site_id
 _symmetry_equiv_pos_as_xyz
  1  'x, y, z'
loop_
 _atom_site_type_symbol
 _atom_site_label
 _atom_site_symmetry_multiplicity
 _atom_site_fract_x
 _atom_site_fract_y
 _atom_site_fract_z
 _atom_site_occupancy
  Mg  Mg0  1  0.51321351  0.79014603  0.08520301  1
  Mg  Mg1  1  0.48678649  0.20985397  0.91479699  1
  Mg  Mg2  1  0.42517014  0.21179506  0.41736049  1
  Mg  Mg3  1  0.57482986  0.78820494  0.58263951  1
  V  V0  1  0.03712271  0.35064424  0.64133030  1
  V  V1  1  0.96287729  0.64935576  0.35866970  1
  V  V2  1  0.85517822  0.79630722  0.86534462  1
  V  V3  1  0.14482178  0.20369278  0.13465538  1
  O  O0  1  0.29277929  0.44558733  0.56317611  1
  O  O1  1  0.70722071  0.55441267  0.43682389  1
  O  O2  1  0.62490631  0.95895364  0.78439957  1
  O  O3  1  0.37509369  0.04104636  0.21560043  1
  O  O4  1  0.76322136  0.11644985  0.53994256  1
  O  O5  1  0.23677864  0.88355015  0.46005744  1
  O  O6  1  0.30924864  0.42391236  0.06820331  1
  O  O7  1  0.69075136  0.57608764  0.93179669  1
  O  O8  1  0.90188491  0.62676583  0.71024060  1
  O  O9  1  0.09811509  0.37323417  0.28975940  1
  O  O10  1  0.20786546  0.92260470  0.95897433  1
  O  O11  1  0.79213454  0.07739530  0.04102567  1
  O  O12  1  0.17686595  0.23750848  0.76851186  1
  O  O13  1  0.82313405  0.76249152  0.23148814  1
loop_
_geom_bond_atom_site_label_1
_geom_bond_atom_site_label_2
_geom_bond_distance
_geom_bond_site_symmetry_2
Mg0 O13 1.980391 1_555
Mg0 O3 2.037431 1_565
Mg0 O6 2.039109 1_555
Mg0 O10 2.102718 1_554
Mg0 O11 2.108786 1_565
Mg0 O7 2.216109 1_554
Mg1 O12 1.980391 1_555
Mg1 O2 2.037431 1_545
Mg1 O7 2.039109 1_555
Mg1 O11 2.102718 1_556
Mg1 O10 2.108786 1_545
Mg1 O6 2.216109 1_556
Mg2 O5 2.053173 1_545
Mg2 O0 2.077025 1_555
Mg2 O4 2.084923 1_555
Mg2 O1 2.092382 1_555
Mg2 O3 2.096710 1_555
Mg2 O9 2.271726 1_555
Mg3 O4 2.053173 1_565
Mg3 O1 2.077025 1_555
Mg3 O5 2.084923 1_555
Mg3 O0 2.092382 1_555
Mg3 O2 2.096710 1_555
Mg3 O8 2.271726 1_555
O0 V0 1.719606 1_555
O1 V1 1.719606 1_555
O2 V2 1.727956 1_555
O3 V3 1.727956 1_555
O4 V0 1.712529 1_655
O5 V1 1.712529 1_455
O6 V3 1.687779 1_555
O7 V2 1.687779 1_555
O8 V2 1.793062 1_555
O8 V0 1.813301 1_655
O9 V3 1.793062 1_555
O9 V1 1.813301 1_455
O10 V2 1.772933 1_455
O10 V3 2.266480 1_566
O11 V3 1.772933 1_655
O11 V2 2.266480 1_544
O12 V0 1.646823 1_555
O13 V1 1.646823 1_555
