# generated using pymatgen
data_GaCu2
_symmetry_space_group_name_H-M   'P 1'
_cell_length_a   5.17694600
_cell_length_b   8.34888800
_cell_length_c   8.41594908
_cell_angle_alpha   119.73675790
_cell_angle_beta   90.00000000
_cell_angle_gamma   90.00000000
_symmetry_Int_Tables_number   1
_chemical_formula_structural   GaCu2
_chemical_formula_sum   'Ga8 Cu16'
_cell_volume   315.85074848
_cell_formula_units_Z   8
loop_
 _symmetry_equiv_pos_site_id
 _symmetry_equiv_pos_as_xyz
  1  'x, y, z'
loop_
 _atom_site_type_symbol
 _atom_site_label
 _atom_site_symmetry_multiplicity
 _atom_site_fract_x
 _atom_site_fract_y
 _atom_site_fract_z
 _atom_site_occupancy
  Ga  Ga0_0  1  0.25000000  0.25000000  0.00000000  1
  Ga  Ga0_1  1  0.25000000  0.25000000  0.50000000  1
  Ga  Ga0_2  1  0.25000000  0.75000000  0.00000000  1
  Ga  Ga0_3  1  0.25000000  0.75000000  0.50000000  1
  Ga  Ga0_4  1  0.75000000  0.25000000  0.00000000  1
  Ga  Ga0_5  1  0.75000000  0.25000000  0.50000000  1
  Ga  Ga0_6  1  0.75000000  0.75000000  0.00000000  1
  Ga  Ga0_7  1  0.75000000  0.75000000  0.50000000  1
  Cu  Cu0_0  1  0.00000050  0.08289700  0.16579450  1
  Cu  Cu0_1  1  0.00000050  0.08289700  0.66579450  1
  Cu  Cu0_2  1  0.00000050  0.58289700  0.16579450  1
  Cu  Cu0_3  1  0.00000050  0.58289700  0.66579450  1
  Cu  Cu0_4  1  0.50000050  0.08289700  0.16579450  1
  Cu  Cu0_5  1  0.50000050  0.08289700  0.66579450  1
  Cu  Cu0_6  1  0.50000050  0.58289700  0.16579450  1
  Cu  Cu0_7  1  0.50000050  0.58289700  0.66579450  1
  Cu  Cu1_0  1  0.00000000  0.41710300  0.33420550  1
  Cu  Cu1_1  1  0.00000000  0.41710300  0.83420550  1
  Cu  Cu1_2  1  0.00000000  0.91710300  0.33420550  1
  Cu  Cu1_3  1  0.00000000  0.91710300  0.83420550  1
  Cu  Cu1_4  1  0.50000000  0.41710300  0.33420550  1
  Cu  Cu1_5  1  0.50000000  0.41710300  0.83420550  1
  Cu  Cu1_6  1  0.50000000  0.91710300  0.33420550  1
  Cu  Cu1_7  1  0.50000000  0.91710300  0.83420550  1
loop_
_geom_bond_atom_site_label_1
_geom_bond_atom_site_label_2
_geom_bond_distance
_geom_bond_site_symmetry_2
Ga0_0 Ga0_4 2.588473 1_455
Ga0_0 Ga0_4 2.588473 1_555
Ga0_1 Ga0_5 2.588473 1_555
Ga0_1 Ga0_5 2.588473 1_455
Ga0_2 Ga0_6 2.588473 1_555
Ga0_2 Ga0_6 2.588473 1_455
Ga0_3 Ga0_7 2.588473 1_455
Ga0_3 Ga0_7 2.588473 1_555
Cu0_0 Cu1_2 2.423032 1_545
Cu0_0 Cu1_0 2.423040 1_555
Cu0_0 Cu1_3 2.423147 1_544
Cu0_0 Cu0_4 2.588473 1_555
Cu0_0 Cu0_4 2.588473 1_455
Cu0_0 Ga0_2 2.738510 1_545
Cu0_0 Ga0_6 2.738513 1_445
Cu0_0 Ga0_0 2.738513 1_555
Cu0_0 Ga0_4 2.738516 1_455
Cu0_0 Ga0_1 2.764003 1_555
Cu0_0 Ga0_5 2.764005 1_455
Cu0_1 Cu1_3 2.423032 1_545
Cu0_1 Cu1_1 2.423040 1_555
Cu0_1 Cu1_2 2.423147 1_545
Cu0_1 Cu0_5 2.588473 1_555
Cu0_1 Cu0_5 2.588473 1_455
Cu0_1 Ga0_3 2.738510 1_545
Cu0_1 Ga0_7 2.738513 1_445
Cu0_1 Ga0_1 2.738513 1_555
Cu0_1 Ga0_5 2.738516 1_455
Cu0_1 Ga0_0 2.764003 1_556
Cu0_1 Ga0_4 2.764005 1_456
Cu0_2 Cu1_0 2.423032 1_555
Cu0_2 Cu1_2 2.423040 1_555
Cu0_2 Cu1_1 2.423147 1_554
Cu0_2 Cu0_6 2.588473 1_555
Cu0_2 Cu0_6 2.588473 1_455
Cu0_2 Ga0_0 2.738510 1_555
Cu0_2 Ga0_4 2.738513 1_455
Cu0_2 Ga0_2 2.738513 1_555
Cu0_2 Ga0_6 2.738516 1_455
Cu0_2 Ga0_3 2.764003 1_555
Cu0_2 Ga0_7 2.764005 1_455
Cu0_3 Cu1_1 2.423032 1_555
Cu0_3 Cu1_3 2.423040 1_555
Cu0_3 Cu1_0 2.423147 1_555
Cu0_3 Cu0_7 2.588473 1_555
Cu0_3 Cu0_7 2.588473 1_455
Cu0_3 Ga0_1 2.738510 1_555
Cu0_3 Ga0_5 2.738513 1_455
Cu0_3 Ga0_3 2.738513 1_555
Cu0_3 Ga0_7 2.738516 1_455
Cu0_3 Ga0_2 2.764003 1_556
Cu0_3 Ga0_6 2.764005 1_456
Cu0_4 Cu1_6 2.423032 1_545
Cu0_4 Cu1_4 2.423040 1_555
Cu0_4 Cu1_7 2.423147 1_544
Cu0_4 Ga0_6 2.738510 1_545
Cu0_4 Ga0_2 2.738513 1_545
Cu0_4 Ga0_4 2.738513 1_555
Cu0_4 Ga0_0 2.738516 1_555
Cu0_4 Ga0_5 2.764003 1_555
Cu0_4 Ga0_1 2.764005 1_555
Cu0_5 Cu1_7 2.423032 1_545
Cu0_5 Cu1_5 2.423040 1_555
Cu0_5 Cu1_6 2.423147 1_545
Cu0_5 Ga0_7 2.738510 1_545
Cu0_5 Ga0_3 2.738513 1_545
Cu0_5 Ga0_5 2.738513 1_555
Cu0_5 Ga0_1 2.738516 1_555
Cu0_5 Ga0_4 2.764003 1_556
Cu0_5 Ga0_0 2.764005 1_556
Cu0_6 Cu1_4 2.423032 1_555
Cu0_6 Cu1_6 2.423040 1_555
Cu0_6 Cu1_5 2.423147 1_554
Cu0_6 Ga0_4 2.738510 1_555
Cu0_6 Ga0_0 2.738513 1_555
Cu0_6 Ga0_6 2.738513 1_555
Cu0_6 Ga0_2 2.738516 1_555
Cu0_6 Ga0_7 2.764003 1_555
Cu0_6 Ga0_3 2.764005 1_555
Cu0_7 Cu1_5 2.423032 1_555
Cu0_7 Cu1_7 2.423040 1_555
Cu0_7 Cu1_4 2.423147 1_555
Cu0_7 Ga0_5 2.738510 1_555
Cu0_7 Ga0_1 2.738513 1_555
Cu0_7 Ga0_7 2.738513 1_555
Cu0_7 Ga0_3 2.738516 1_555
Cu0_7 Ga0_6 2.764003 1_556
Cu0_7 Ga0_2 2.764005 1_556
Cu1_0 Cu1_4 2.588473 1_555
Cu1_0 Cu1_4 2.588473 1_455
Cu1_0 Ga0_7 2.738512 1_455
Cu1_0 Ga0_3 2.738512 1_555
Cu1_0 Ga0_5 2.738515 1_455
Cu1_0 Ga0_1 2.738515 1_555
Cu1_0 Ga0_0 2.764004 1_555
Cu1_0 Ga0_4 2.764004 1_455
Cu1_1 Cu1_5 2.588473 1_455
Cu1_1 Cu1_5 2.588473 1_555
Cu1_1 Ga0_2 2.738512 1_556
Cu1_1 Ga0_6 2.738512 1_456
Cu1_1 Ga0_4 2.738515 1_456
Cu1_1 Ga0_0 2.738515 1_556
Cu1_1 Ga0_5 2.764004 1_455
Cu1_1 Ga0_1 2.764004 1_555
Cu1_2 Cu1_6 2.588473 1_555
Cu1_2 Cu1_6 2.588473 1_455
Cu1_2 Ga0_5 2.738512 1_465
Cu1_2 Ga0_1 2.738512 1_565
Cu1_2 Ga0_7 2.738515 1_455
Cu1_2 Ga0_3 2.738515 1_555
Cu1_2 Ga0_6 2.764004 1_455
Cu1_2 Ga0_2 2.764004 1_555
Cu1_3 Cu1_7 2.588473 1_555
Cu1_3 Cu1_7 2.588473 1_455
Cu1_3 Ga0_0 2.738512 1_566
Cu1_3 Ga0_4 2.738512 1_466
Cu1_3 Ga0_6 2.738515 1_456
Cu1_3 Ga0_2 2.738515 1_556
Cu1_3 Ga0_7 2.764004 1_455
Cu1_3 Ga0_3 2.764004 1_555
Cu1_4 Ga0_7 2.738512 1_555
Cu1_4 Ga0_3 2.738512 1_555
Cu1_4 Ga0_5 2.738515 1_555
Cu1_4 Ga0_1 2.738515 1_555
Cu1_4 Ga0_0 2.764004 1_555
Cu1_4 Ga0_4 2.764004 1_555
Cu1_5 Ga0_2 2.738512 1_556
Cu1_5 Ga0_6 2.738512 1_556
Cu1_5 Ga0_0 2.738515 1_556
Cu1_5 Ga0_4 2.738515 1_556
Cu1_5 Ga0_5 2.764004 1_555
Cu1_5 Ga0_1 2.764004 1_555
Cu1_6 Ga0_5 2.738512 1_565
Cu1_6 Ga0_1 2.738512 1_565
Cu1_6 Ga0_3 2.738515 1_555
Cu1_6 Ga0_7 2.738515 1_555
Cu1_6 Ga0_2 2.764004 1_555
Cu1_6 Ga0_6 2.764004 1_555
Cu1_7 Ga0_0 2.738512 1_566
Cu1_7 Ga0_4 2.738512 1_566
Cu1_7 Ga0_6 2.738515 1_556
Cu1_7 Ga0_2 2.738515 1_556
Cu1_7 Ga0_7 2.764004 1_555
Cu1_7 Ga0_3 2.764004 1_555
