# generated using pymatgen
data_Na3AlSiSn(PO6)2
_symmetry_space_group_name_H-M   'P 1'
_cell_length_a   15.31969371
_cell_length_b   8.82274235
_cell_length_c   8.88606470
_cell_angle_alpha   90.00000000
_cell_angle_beta   124.92269124
_cell_angle_gamma   90.00000000
_symmetry_Int_Tables_number   1
_chemical_formula_structural   Na3AlSiSn(PO6)2
_chemical_formula_sum   'Na12 Al4 Si4 Sn4 P8 O48'
_cell_volume   984.77586371
_cell_formula_units_Z   4
loop_
 _symmetry_equiv_pos_site_id
 _symmetry_equiv_pos_as_xyz
  1  'x, y, z'
loop_
 _atom_site_type_symbol
 _atom_site_label
 _atom_site_symmetry_multiplicity
 _atom_site_fract_x
 _atom_site_fract_y
 _atom_site_fract_z
 _atom_site_occupancy
  Na  Na0  1  0.25111506  0.72336811  0.99643677  1
  Na  Na1  1  0.75111506  0.77663189  0.49643677  1
  Na  Na2  1  0.75111506  0.22336811  0.99643677  1
  Na  Na3  1  0.25111506  0.27663189  0.49643677  1
  Na  Na4  1  0.50419983  0.10968153  0.76106065  1
  Na  Na5  1  0.50419983  0.89031847  0.26106065  1
  Na  Na6  1  0.00419983  0.60968153  0.76106065  1
  Na  Na7  1  0.00419983  0.39031847  0.26106065  1
  Na  Na8  1  0.18574287  0.93008480  0.27557958  1
  Na  Na9  1  0.18574287  0.06991520  0.77557958  1
  Na  Na10  1  0.68574287  0.43008480  0.27557958  1
  Na  Na11  1  0.68574287  0.56991520  0.77557958  1
  Al  Al0  1  0.10555993  0.74078952  0.56397150  1
  Al  Al1  1  0.10555993  0.25921048  0.06397150  1
  Al  Al2  1  0.60555993  0.24078952  0.56397150  1
  Al  Al3  1  0.60555993  0.75921048  0.06397150  1
  Si  Si0  1  0.64498689  0.90021587  0.75082951  1
  Si  Si1  1  0.64498689  0.09978413  0.25082951  1
  Si  Si2  1  0.14498689  0.40021587  0.75082951  1
  Si  Si3  1  0.14498689  0.59978413  0.25082951  1
  Sn  Sn0  1  0.89809033  0.75642654  0.94466500  1
  Sn  Sn1  1  0.89809033  0.24357346  0.44466500  1
  Sn  Sn2  1  0.39809033  0.25642654  0.94466500  1
  Sn  Sn3  1  0.39809033  0.74357346  0.44466500  1
  P  P0  1  0.00388893  0.95620340  0.75766344  1
  P  P1  1  0.00388893  0.04379660  0.25766344  1
  P  P2  1  0.50388893  0.45620340  0.75766344  1
  P  P3  1  0.50388893  0.54379660  0.25766344  1
  P  P4  1  0.35248372  0.88614479  0.76056641  1
  P  P5  1  0.35248372  0.11385521  0.26056641  1
  P  P6  1  0.85248372  0.38614479  0.76056641  1
  P  P7  1  0.85248372  0.61385521  0.26056641  1
  O  O0  1  0.14387912  0.58348551  0.73309942  1
  O  O1  1  0.84529397  0.56378357  0.76573143  1
  O  O2  1  0.84529397  0.43621643  0.26573143  1
  O  O3  1  0.14387912  0.41651449  0.23309942  1
  O  O4  1  0.64387912  0.08348551  0.73309942  1
  O  O5  1  0.34529397  0.06378357  0.76573143  1
  O  O6  1  0.34529397  0.93621643  0.26573143  1
  O  O7  1  0.64387912  0.91651449  0.23309942  1
  O  O8  1  0.43179850  0.54719267  0.57917991  1
  O  O9  1  0.56750034  0.55795689  0.92922611  1
  O  O10  1  0.56750034  0.44204311  0.42922611  1
  O  O11  1  0.43179850  0.45280733  0.07917991  1
  O  O12  1  0.93179850  0.04719267  0.57917991  1
  O  O13  1  0.06750034  0.05795689  0.92922611  1
  O  O14  1  0.06750034  0.94204311  0.42922611  1
  O  O15  1  0.93179850  0.95280733  0.07917991  1
  O  O16  1  0.25209625  0.82211477  0.73836080  1
  O  O17  1  0.74507338  0.81741964  0.76145290  1
  O  O18  1  0.74507338  0.18258036  0.26145290  1
  O  O19  1  0.25209625  0.17788523  0.23836080  1
  O  O20  1  0.75209625  0.32211477  0.73836080  1
  O  O21  1  0.24507338  0.31741964  0.76145290  1
  O  O22  1  0.24507338  0.68258036  0.26145290  1
  O  O23  1  0.75209625  0.67788523  0.23836080  1
  O  O24  1  0.34923198  0.86500343  0.58271550  1
  O  O25  1  0.63242615  0.85156529  0.91331802  1
  O  O26  1  0.63242615  0.14843471  0.41331802  1
  O  O27  1  0.34923198  0.13499657  0.08271550  1
  O  O28  1  0.84923198  0.36500343  0.58271550  1
  O  O29  1  0.13242615  0.35156529  0.91331802  1
  O  O30  1  0.13242615  0.64843471  0.41331802  1
  O  O31  1  0.84923198  0.63499657  0.08271550  1
  O  O32  1  0.45450347  0.82278537  0.93112127  1
  O  O33  1  0.54400027  0.82658101  0.55660387  1
  O  O34  1  0.54400027  0.17341899  0.05660387  1
  O  O35  1  0.45450347  0.17721463  0.43112127  1
  O  O36  1  0.95450347  0.32278537  0.93112127  1
  O  O37  1  0.04400027  0.32658101  0.55660387  1
  O  O38  1  0.04400027  0.67341899  0.05660387  1
  O  O39  1  0.95450347  0.67721463  0.43112127  1
  O  O40  1  0.08418763  0.86019404  0.74372508  1
  O  O41  1  0.92394137  0.84503925  0.75469284  1
  O  O42  1  0.92394137  0.15496075  0.25469284  1
  O  O43  1  0.08418763  0.13980596  0.24372508  1
  O  O44  1  0.58418763  0.36019404  0.74372508  1
  O  O45  1  0.42394137  0.34503925  0.75469284  1
  O  O46  1  0.42394137  0.65496075  0.25469284  1
  O  O47  1  0.58418763  0.63980596  0.24372508  1
loop_
_geom_bond_atom_site_label_1
_geom_bond_atom_site_label_2
_geom_bond_distance
_geom_bond_site_symmetry_2
Na0 O0 2.301367 1_555
Na0 O46 2.384128 1_556
Na0 O22 2.435860 1_556
Na0 O16 2.461269 1_555
Na0 O40 2.542582 1_555
Na0 O6 2.716893 1_556
Na1 O7 2.301367 1_555
Na1 O41 2.384128 1_555
Na1 O17 2.435860 1_555
Na1 O23 2.461269 1_555
Na1 O47 2.542582 1_555
Na1 O1 2.716893 1_555
Na2 O4 2.301367 1_555
Na2 O42 2.384128 1_556
Na2 O18 2.435860 1_556
Na2 O20 2.461269 1_555
Na2 O44 2.542582 1_555
Na2 O2 2.716893 1_556
Na3 O3 2.301367 1_555
Na3 O45 2.384128 1_555
Na3 O21 2.435860 1_555
Na3 O19 2.461269 1_555
Na3 O43 2.542582 1_555
Na3 O5 2.716893 1_555
Na4 O4 2.302786 1_555
Na4 O45 2.397323 1_555
Na4 O34 2.398256 1_556
Na4 O5 2.491513 1_555
Na4 O44 2.574189 1_555
Na4 O35 2.640986 1_555
Na4 O25 2.798649 1_545
Na4 O24 2.915498 1_545
Na5 O7 2.302786 1_555
Na5 O46 2.397323 1_555
Na5 O33 2.398256 1_555
Na5 O6 2.491513 1_555
Na5 O47 2.574189 1_555
Na5 O32 2.640986 1_554
Na5 O26 2.798649 1_565
Na5 O27 2.915498 1_565
Na6 O0 2.302786 1_555
Na6 O41 2.397323 1_455
Na6 O38 2.398256 1_556
Na6 O1 2.491513 1_455
Na6 O40 2.574189 1_555
Na6 O39 2.640986 1_455
Na6 O29 2.798649 1_555
Na6 O28 2.915498 1_455
Na7 O3 2.302786 1_555
Na7 O42 2.397323 1_455
Na7 O37 2.398256 1_555
Na7 O2 2.491513 1_455
Na7 O43 2.574189 1_555
Na7 O36 2.640986 1_454
Na7 O30 2.798649 1_555
Na7 O31 2.915498 1_455
Na8 O43 2.328106 1_565
Na8 O22 2.396027 1_555
Na8 O24 2.495001 1_555
Na8 O6 2.495990 1_555
Na8 O19 2.511457 1_565
Na8 O13 2.764652 1_564
Na8 O14 2.826335 1_555
Na8 O38 2.965082 1_555
Na9 O40 2.328106 1_545
Na9 O21 2.396027 1_555
Na9 O27 2.495001 1_556
Na9 O5 2.495990 1_555
Na9 O16 2.511457 1_545
Na9 O14 2.764652 1_545
Na9 O13 2.826335 1_555
Na9 O37 2.965082 1_555
Na10 O47 2.328106 1_555
Na10 O18 2.396027 1_555
Na10 O28 2.495001 1_555
Na10 O2 2.495990 1_555
Na10 O23 2.511457 1_555
Na10 O9 2.764652 1_554
Na10 O10 2.826335 1_555
Na10 O34 2.965082 1_555
Na11 O44 2.328106 1_555
Na11 O17 2.396027 1_555
Na11 O31 2.495001 1_556
Na11 O1 2.495990 1_555
Na11 O20 2.511457 1_555
Na11 O10 2.764652 1_555
Na11 O9 2.826335 1_555
Na11 O33 2.965082 1_555
Al0 O30 1.804536 1_555
Al0 O0 1.875974 1_555
Al0 O39 1.983842 1_455
Al0 O16 1.993176 1_555
Al0 O14 2.031524 1_555
Al0 O40 2.089778 1_555
Al1 O29 1.804536 1_554
Al1 O3 1.875974 1_555
Al1 O36 1.983842 1_454
Al1 O19 1.993176 1_555
Al1 O13 2.031524 1_554
Al1 O43 2.089778 1_555
Al2 O26 1.804536 1_555
Al2 O4 1.875974 1_555
Al2 O35 1.983842 1_555
Al2 O20 1.993176 1_555
Al2 O10 2.031524 1_555
Al2 O44 2.089778 1_555
Al3 O25 1.804536 1_554
Al3 O7 1.875974 1_555
Al3 O32 1.983842 1_554
Al3 O23 1.993176 1_555
Al3 O9 2.031524 1_554
Al3 O47 2.089778 1_555
O0 Si2 1.623745 1_555
O1 P6 1.573637 1_555
O1 Sn0 2.144452 1_555
O2 P7 1.573637 1_555
O2 Sn1 2.144452 1_555
O3 Si3 1.623745 1_555
O4 Si0 1.623745 1_545
O5 P4 1.573637 1_545
O5 Sn2 2.144452 1_555
O6 P5 1.573637 1_565
O6 Sn3 2.144452 1_555
O7 Si1 1.623745 1_565
O8 P2 1.540818 1_555
O8 Sn3 1.997666 1_555
O9 P2 1.542328 1_555
O10 P3 1.542328 1_555
O11 P3 1.540818 1_555
O11 Sn2 1.997666 1_554
O12 P0 1.540818 1_645
O12 Sn1 1.997666 1_555
O13 P0 1.542328 1_545
O14 P1 1.542328 1_565
O15 P1 1.540818 1_665
O15 Sn0 1.997666 1_554
O16 P4 1.541356 1_555
O17 Si0 1.651604 1_555
O17 Sn0 2.016352 1_555
O18 Si1 1.651604 1_555
O18 Sn1 2.016352 1_555
O19 P5 1.541356 1_555
O20 P6 1.541356 1_555
O21 Si2 1.651604 1_555
O21 Sn2 2.016352 1_555
O22 Si3 1.651604 1_555
O22 Sn3 2.016352 1_555
O23 P7 1.541356 1_555
O24 P4 1.563580 1_555
O24 Sn3 2.064985 1_555
O25 Si0 1.619932 1_555
O26 Si1 1.619932 1_555
O27 P5 1.563580 1_555
O27 Sn2 2.064985 1_554
O28 P6 1.563580 1_555
O28 Sn1 2.064985 1_555
O29 Si2 1.619932 1_555
O30 Si3 1.619932 1_555
O31 P7 1.563580 1_555
O31 Sn0 2.064985 1_554
O32 P4 1.529737 1_555
O33 Si0 1.654431 1_555
O33 Sn3 1.994142 1_555
O34 Si1 1.654431 1_555
O34 Sn2 1.994142 1_554
O35 P5 1.529737 1_555
O36 P6 1.529737 1_555
O37 Si2 1.654431 1_555
O37 Sn1 1.994142 1_455
O38 Si3 1.654431 1_555
O38 Sn0 1.994142 1_454
O39 P7 1.529737 1_555
O40 P0 1.555822 1_555
O41 P0 1.557454 1_655
O41 Sn0 2.093609 1_555
O42 P1 1.557454 1_655
O42 Sn1 2.093609 1_555
O43 P1 1.555822 1_555
O44 P2 1.555822 1_555
O45 P2 1.557454 1_555
O45 Sn2 2.093609 1_555
O46 P3 1.557454 1_555
O46 Sn3 2.093609 1_555
O47 P3 1.555822 1_555
