# generated using pymatgen
data_Nd4Ge7
_symmetry_space_group_name_H-M   'P 1'
_cell_length_a   6.03140039
_cell_length_b   7.60319809
_cell_length_c   12.06374994
_cell_angle_alpha   90.00000000
_cell_angle_beta   90.00000000
_cell_angle_gamma   113.36803510
_symmetry_Int_Tables_number   1
_chemical_formula_structural   Nd4Ge7
_chemical_formula_sum   'Nd8 Ge14'
_cell_volume   507.84144607
_cell_formula_units_Z   2
loop_
 _symmetry_equiv_pos_site_id
 _symmetry_equiv_pos_as_xyz
  1  'x, y, z'
loop_
 _atom_site_type_symbol
 _atom_site_label
 _atom_site_symmetry_multiplicity
 _atom_site_fract_x
 _atom_site_fract_y
 _atom_site_fract_z
 _atom_site_occupancy
  Nd  Nd0  1  0.51292772  0.00000000  0.50000000  1
  Nd  Nd1  1  0.48707228  -0.00000000  -0.00000000  1
  Nd  Nd2  1  0.99681950  0.99364099  0.25000000  1
  Nd  Nd3  1  0.00318050  0.00635901  0.75000000  1
  Nd  Nd4  1  0.51010894  0.48978131  0.61913317  1
  Nd  Nd5  1  0.02032863  0.51021869  0.38086683  1
  Nd  Nd6  1  0.48989106  0.51021869  0.11913317  1
  Nd  Nd7  1  0.97967137  0.48978131  0.88086683  1
  Ge  Ge0  1  0.43511852  0.87023704  0.25000000  1
  Ge  Ge1  1  0.56488148  0.12976296  0.75000000  1
  Ge  Ge2  1  0.52297020  0.69988113  0.83748044  1
  Ge  Ge3  1  0.82308806  0.30011887  0.16251956  1
  Ge  Ge4  1  0.47702980  0.30011887  0.33748044  1
  Ge  Ge5  1  0.17691094  0.69988113  0.66251956  1
  Ge  Ge6  1  0.42323962  0.34291114  0.87151546  1
  Ge  Ge7  1  0.08032747  0.65708886  0.12848454  1
  Ge  Ge8  1  0.10567106  0.17575030  0.49010651  1
  Ge  Ge9  1  0.92992177  0.82424970  0.50989349  1
  Ge  Ge10  1  0.89432894  0.82424970  0.99010651  1
  Ge  Ge11  1  0.07007823  0.17575030  0.00989349  1
  Ge  Ge12  1  0.91967253  0.34291114  0.62848454  1
  Ge  Ge13  1  0.57676038  0.65708886  0.37151546  1
loop_
_geom_bond_atom_site_label_1
_geom_bond_atom_site_label_2
_geom_bond_distance
_geom_bond_site_symmetry_2
Ge0 Ge13 2.569713 1_555
Ge0 Ge7 2.569716 1_555
Ge0 Nd2 3.136281 1_555
Ge0 Nd2 3.136292 1_455
Ge0 Nd0 3.149957 1_565
Ge0 Nd1 3.149957 1_565
Ge0 Nd5 3.288107 1_555
Ge0 Nd6 3.288110 1_555
Ge1 Ge6 2.569713 1_555
Ge1 Ge12 2.569716 1_555
Ge1 Nd3 3.136281 1_555
Ge1 Nd3 3.136292 1_655
Ge1 Nd1 3.149957 1_556
Ge1 Nd0 3.149957 1_555
Ge1 Nd7 3.288107 1_555
Ge1 Nd4 3.288110 1_555
Ge2 Ge6 2.569385 1_555
Ge2 Ge5 2.968414 1_555
Ge2 Nd4 3.065602 1_555
Ge2 Nd7 3.067749 1_455
Ge2 Nd1 3.080525 1_566
Ge2 Nd3 3.094926 1_665
Ge2 Nd6 3.665518 1_556
Ge2 Nd7 3.728783 1_555
Ge3 Ge7 2.569385 1_655
Ge3 Ge4 2.968410 1_555
Ge3 Nd5 3.065604 1_655
Ge3 Nd6 3.067739 1_555
Ge3 Nd1 3.080523 1_555
Ge3 Nd2 3.094922 1_545
Ge3 Nd7 3.665518 1_554
Ge3 Nd6 3.728793 1_655
Ge4 Ge8 2.760611 1_555
Ge4 Nd6 3.065602 1_555
Ge4 Nd5 3.067749 1_655
Ge4 Nd0 3.080525 1_555
Ge4 Nd2 3.094926 1_445
Ge4 Nd4 3.665518 1_555
Ge4 Nd5 3.728783 1_555
Ge5 Ge9 2.760607 1_455
Ge5 Nd7 3.065603 1_455
Ge5 Nd4 3.067744 1_555
Ge5 Nd0 3.080525 1_565
Ge5 Nd3 3.094918 1_565
Ge5 Nd5 3.665517 1_555
Ge5 Nd4 3.728788 1_455
Ge6 Nd7 3.090300 1_555
Ge6 Nd3 3.157980 1_555
Ge6 Nd1 3.185061 1_556
Ge6 Nd6 3.208967 1_556
Ge6 Nd4 3.213632 1_555
Ge6 Nd7 3.284363 1_455
Ge7 Nd6 3.090311 1_555
Ge7 Nd2 3.157983 1_455
Ge7 Nd1 3.185064 1_565
Ge7 Nd7 3.208967 1_454
Ge7 Nd5 3.213632 1_555
Ge7 Nd6 3.284352 1_455
Ge8 Ge9 2.464903 1_445
Ge8 Nd4 3.074699 1_555
Ge8 Nd5 3.083348 1_555
Ge8 Nd2 3.165008 1_445
Ge8 Nd0 3.230658 1_555
Ge8 Nd0 3.285017 1_455
Ge8 Nd3 3.352512 1_555
Ge9 Nd5 3.074699 1_655
Ge9 Nd4 3.083354 1_555
Ge9 Nd3 3.165007 1_665
Ge9 Nd0 3.230652 1_665
Ge9 Nd0 3.285023 1_565
Ge9 Nd2 3.352513 1_555
Ge10 Ge11 2.464903 1_666
Ge10 Ge7 2.606078 1_656
Ge10 Ge2 2.760611 1_555
Ge10 Nd6 3.074699 1_556
Ge10 Nd7 3.083348 1_555
Ge10 Nd3 3.165008 1_665
Ge10 Nd1 3.230658 1_566
Ge10 Nd1 3.285017 1_666
Ge10 Nd2 3.352512 1_556
Ge11 Ge6 2.606085 1_554
Ge11 Ge3 2.760611 1_455
Ge11 Nd7 3.074699 1_454
Ge11 Nd6 3.083354 1_555
Ge11 Nd2 3.165007 1_445
Ge11 Nd1 3.230652 1_455
Ge11 Nd1 3.285023 1_555
Ge11 Nd3 3.352513 1_554
Ge12 Ge5 2.569383 1_655
Ge12 Ge8 2.606078 1_655
Ge12 Nd4 3.090311 1_555
Ge12 Nd3 3.157983 1_655
Ge12 Nd0 3.185064 1_555
Ge12 Nd5 3.208967 1_655
Ge12 Nd7 3.213632 1_555
Ge12 Nd4 3.284352 1_655
Ge13 Ge4 2.569385 1_555
Ge13 Ge9 2.606085 1_555
Ge13 Nd5 3.090300 1_555
Ge13 Nd2 3.157980 1_555
Ge13 Nd0 3.185061 1_565
Ge13 Nd4 3.208967 1_555
Ge13 Nd6 3.213632 1_555
Ge13 Nd5 3.284363 1_655
