# generated using pymatgen
data_Sn7Ru3
_symmetry_space_group_name_H-M   'P 1'
_cell_length_a   8.14564727
_cell_length_b   8.14564837
_cell_length_c   8.14564896
_cell_angle_alpha   109.47122210
_cell_angle_beta   109.47122483
_cell_angle_gamma   109.47122447
_symmetry_Int_Tables_number   1
_chemical_formula_structural   Sn7Ru3
_chemical_formula_sum   'Sn14 Ru6'
_cell_volume   416.05908253
_cell_formula_units_Z   2
loop_
 _symmetry_equiv_pos_site_id
 _symmetry_equiv_pos_as_xyz
  1  'x, y, z'
loop_
 _atom_site_type_symbol
 _atom_site_label
 _atom_site_symmetry_multiplicity
 _atom_site_fract_x
 _atom_site_fract_y
 _atom_site_fract_z
 _atom_site_occupancy
  Sn  Sn0  1  0.25000000  0.75000000  0.50000000  1
  Sn  Sn1  1  0.75000000  0.25000000  0.50000000  1
  Sn  Sn2  1  0.50000000  0.75000000  0.25000000  1
  Sn  Sn3  1  0.50000000  0.25000000  0.75000000  1
  Sn  Sn4  1  0.75000000  0.50000000  0.25000000  1
  Sn  Sn5  1  0.25000000  0.50000000  0.75000000  1
  Sn  Sn6  1  0.32121011  0.32121011  0.32121011  1
  Sn  Sn7  1  0.32121011  0.00000000  0.00000000  1
  Sn  Sn8  1  0.00000000  0.32121011  0.00000000  1
  Sn  Sn9  1  -0.00000000  0.00000000  0.32121011  1
  Sn  Sn10  1  -0.00000000  0.67878989  -0.00000000  1
  Sn  Sn11  1  -0.00000000  0.00000000  0.67878989  1
  Sn  Sn12  1  0.67878989  -0.00000000  -0.00000000  1
  Sn  Sn13  1  0.67878989  0.67878989  0.67878989  1
  Ru  Ru0  1  0.00000000  0.34488024  0.34488024  1
  Ru  Ru1  1  0.34488024  0.00000000  0.34488024  1
  Ru  Ru2  1  0.65511976  -0.00000000  0.65511976  1
  Ru  Ru3  1  0.65511976  0.65511976  -0.00000000  1
  Ru  Ru4  1  0.34488024  0.34488024  0.00000000  1
  Ru  Ru5  1  -0.00000000  0.65511976  0.65511976  1
loop_
_geom_bond_atom_site_label_1
_geom_bond_atom_site_label_2
_geom_bond_distance
_geom_bond_site_symmetry_2
Sn6 Sn9 3.021233 1_555
Sn6 Sn8 3.021233 1_555
Sn6 Sn7 3.021233 1_555
Sn10 Sn8 2.912719 1_555
Sn10 Sn7 3.021233 1_565
Sn10 Sn13 3.021233 1_454
Sn10 Sn9 3.021233 1_565
Sn11 Sn9 2.912719 1_555
Sn11 Sn13 3.021233 1_445
Sn11 Sn7 3.021233 1_556
Sn11 Sn8 3.021233 1_556
Sn12 Sn7 2.912719 1_555
Sn12 Sn8 3.021233 1_655
Sn12 Sn9 3.021233 1_655
Sn12 Sn13 3.021233 1_544
Sn13 Sn6 2.912719 1_555
Ru0 Sn12 2.751016 1_455
Ru0 Sn6 2.751016 1_555
Ru0 Sn9 2.751016 1_555
Ru0 Sn8 2.751016 1_555
Ru0 Sn0 2.767317 1_555
Ru0 Sn4 2.767318 1_455
Ru0 Sn5 2.767318 1_555
Ru0 Sn1 2.767318 1_455
Ru0 Ru5 2.918046 1_555
Ru1 Sn10 2.751016 1_545
Ru1 Sn9 2.751016 1_555
Ru1 Sn6 2.751016 1_555
Ru1 Sn7 2.751016 1_555
Ru1 Sn1 2.767317 1_555
Ru1 Sn2 2.767318 1_545
Ru1 Sn3 2.767318 1_555
Ru1 Sn0 2.767318 1_545
Ru1 Ru2 2.918046 1_555
Ru2 Sn8 2.751016 1_656
Ru2 Sn11 2.751016 1_655
Ru2 Sn13 2.751016 1_545
Ru2 Sn12 2.751016 1_556
Ru2 Sn0 2.767317 1_545
Ru2 Sn3 2.767318 1_555
Ru2 Sn2 2.767318 1_545
Ru2 Sn1 2.767318 1_555
Ru3 Sn9 2.751016 1_665
Ru3 Sn10 2.751016 1_655
Ru3 Sn12 2.751016 1_565
Ru3 Sn13 2.751016 1_554
Ru3 Sn5 2.767317 1_554
Ru3 Sn3 2.767318 1_554
Ru3 Sn2 2.767318 1_555
Ru3 Sn4 2.767318 1_555
Ru3 Ru4 2.918046 1_555
Ru4 Sn11 2.751016 1_554
Ru4 Sn8 2.751016 1_555
Ru4 Sn7 2.751016 1_555
Ru4 Sn6 2.751016 1_555
Ru4 Sn4 2.767317 1_555
Ru4 Sn2 2.767318 1_555
Ru4 Sn3 2.767318 1_554
Ru4 Sn5 2.767318 1_554
Ru5 Sn7 2.751016 1_566
Ru5 Sn13 2.751016 1_455
Ru5 Sn11 2.751016 1_565
Ru5 Sn10 2.751016 1_556
Ru5 Sn1 2.767317 1_455
Ru5 Sn5 2.767318 1_555
Ru5 Sn4 2.767318 1_455
Ru5 Sn0 2.767318 1_555
