# generated using pymatgen
data_RbGa2P2H5O11
_symmetry_space_group_name_H-M   'P 1'
_cell_length_a   9.74515900
_cell_length_b   9.76488300
_cell_length_c   12.28874212
_cell_angle_alpha   51.49535792
_cell_angle_beta   90.00000000
_cell_angle_gamma   90.00000000
_symmetry_Int_Tables_number   1
_chemical_formula_structural   RbGa2P2H5O11
_chemical_formula_sum   'Rb4 Ga8 P8 H20 O44'
_cell_volume   915.12365915
_cell_formula_units_Z   4
loop_
 _symmetry_equiv_pos_site_id
 _symmetry_equiv_pos_as_xyz
  1  'x, y, z'
loop_
 _atom_site_type_symbol
 _atom_site_label
 _atom_site_symmetry_multiplicity
 _atom_site_fract_x
 _atom_site_fract_y
 _atom_site_fract_z
 _atom_site_occupancy
  Rb  Rb0  1  0.69403500  0.38257400  0.60067100  1
  Rb  Rb1  1  0.19403500  0.61742600  0.89932900  1
  Rb  Rb2  1  0.30596500  0.61742600  0.39932900  1
  Rb  Rb3  1  0.80596500  0.38257400  0.10067100  1
  Ga  Ga0  1  0.72796700  0.71766100  0.18489500  1
  Ga  Ga1  1  0.22796700  0.28233900  0.31510500  1
  Ga  Ga2  1  0.27203300  0.28233900  0.81510500  1
  Ga  Ga3  1  0.77203300  0.71766100  0.68489500  1
  Ga  Ga4  1  0.45500800  0.98231600  0.62909900  1
  Ga  Ga5  1  0.95500800  0.01768400  0.87090100  1
  Ga  Ga6  1  0.54499200  0.01768400  0.37090100  1
  Ga  Ga7  1  0.04499200  0.98231600  0.12909900  1
  P  P0  1  0.52712100  0.35440500  0.35009000  1
  P  P1  1  0.02712100  0.64559500  0.14991000  1
  P  P2  1  0.47287900  0.64559500  0.64991000  1
  P  P3  1  0.97287900  0.35440500  0.85009000  1
  P  P4  1  0.68289700  0.84199200  0.86785500  1
  P  P5  1  0.18289700  0.15800800  0.63214500  1
  P  P6  1  0.31710300  0.15800800  0.13214500  1
  P  P7  1  0.81710300  0.84199200  0.36785500  1
  H  H0  1  0.41758800  0.80055900  0.96787300  1
  H  H1  1  0.91758800  0.19944100  0.53212700  1
  H  H2  1  0.58241200  0.19944100  0.03212700  1
  H  H3  1  0.08241200  0.80055900  0.46787300  1
  H  H4  1  0.36462900  0.64768100  0.12088400  1
  H  H5  1  0.86462900  0.35231900  0.37911600  1
  H  H6  1  0.63537100  0.35231900  0.87911600  1
  H  H7  1  0.13537100  0.64768100  0.62088400  1
  H  H8  1  0.52677700  0.93016100  0.17661900  1
  H  H9  1  0.02677700  0.06983900  0.32338100  1
  H  H10  1  0.47322300  0.06983900  0.82338100  1
  H  H11  1  0.97322300  0.93016100  0.67661900  1
  H  H12  1  0.47620300  0.84004500  0.10522400  1
  H  H13  1  0.97620300  0.15995500  0.39477600  1
  H  H14  1  0.52379700  0.15995500  0.89477600  1
  H  H15  1  0.02379700  0.84004500  0.60522400  1
  H  H16  1  0.70371800  0.04815700  0.52190900  1
  H  H17  1  0.20371800  0.95184300  0.97809100  1
  H  H18  1  0.29628200  0.95184300  0.47809100  1
  H  H19  1  0.79628200  0.04815700  0.02190900  1
  O  O0  1  0.35976900  0.77617100  0.04390400  1
  O  O1  1  0.85976900  0.22382900  0.45609600  1
  O  O2  1  0.64023100  0.22382900  0.95609600  1
  O  O3  1  0.14023100  0.77617100  0.54390400  1
  O  O4  1  0.55366900  0.85498600  0.15120000  1
  O  O5  1  0.05366900  0.14501400  0.34880000  1
  O  O6  1  0.44633100  0.14501400  0.84880000  1
  O  O7  1  0.94633100  0.85498600  0.65120000  1
  O  O8  1  0.64363700  0.94656500  0.55730400  1
  O  O9  1  0.14363700  0.05343500  0.94269600  1
  O  O10  1  0.35636300  0.05343500  0.44269600  1
  O  O11  1  0.85636300  0.94656500  0.05730400  1
  O  O12  1  0.50888200  0.22790500  0.51182800  1
  O  O13  1  0.00888200  0.77209500  0.98817200  1
  O  O14  1  0.49111800  0.77209500  0.48817200  1
  O  O15  1  0.99111800  0.22790500  0.01182800  1
  O  O16  1  0.88403700  0.56711600  0.22026300  1
  O  O17  1  0.38403700  0.43288400  0.27973700  1
  O  O18  1  0.11596300  0.43288400  0.77973700  1
  O  O19  1  0.61596300  0.56711600  0.72026300  1
  O  O20  1  0.41209100  0.74345000  0.70141600  1
  O  O21  1  0.91209100  0.25655000  0.79858400  1
  O  O22  1  0.58790900  0.25655000  0.29858400  1
  O  O23  1  0.08790900  0.74345000  0.20141600  1
  O  O24  1  0.62035900  0.50207900  0.31622600  1
  O  O25  1  0.12035900  0.49792100  0.18377400  1
  O  O26  1  0.37964100  0.49792100  0.68377400  1
  O  O27  1  0.87964100  0.50207900  0.81622600  1
  O  O28  1  0.53672200  0.92024700  0.80228400  1
  O  O29  1  0.03672200  0.07975300  0.69771600  1
  O  O30  1  0.46327800  0.07975300  0.19771600  1
  O  O31  1  0.96327800  0.92024700  0.30228400  1
  O  O32  1  0.28082900  0.99996100  0.69650100  1
  O  O33  1  0.78082900  0.00003900  0.80349900  1
  O  O34  1  0.71917100  0.00003900  0.30349900  1
  O  O35  1  0.21917100  0.99996100  0.19650100  1
  O  O36  1  0.77116500  0.71608600  0.33942100  1
  O  O37  1  0.27116500  0.28391400  0.16057900  1
  O  O38  1  0.22883500  0.28391400  0.66057900  1
  O  O39  1  0.72883500  0.71608600  0.83942100  1
  O  O40  1  0.66778500  0.73300100  0.02646300  1
  O  O41  1  0.16778500  0.26699900  0.47353700  1
  O  O42  1  0.33221500  0.26699900  0.97353700  1
  O  O43  1  0.83221500  0.73300100  0.52646300  1
loop_
_geom_bond_atom_site_label_1
_geom_bond_atom_site_label_2
_geom_bond_distance
_geom_bond_site_symmetry_2
Ga0 O36 1.935723 1_555
Ga0 O40 1.947769 1_555
Ga0 O16 1.966626 1_555
Ga0 O24 1.976246 1_555
Ga0 O4 2.040434 1_555
Ga0 O11 2.157859 1_555
Ga1 O37 1.935723 1_555
Ga1 O41 1.947769 1_555
Ga1 O17 1.966626 1_555
Ga1 O25 1.976246 1_555
Ga1 O5 2.040434 1_555
Ga1 O10 2.157859 1_555
Ga2 O38 1.935723 1_555
Ga2 O42 1.947769 1_555
Ga2 O18 1.966626 1_555
Ga2 O26 1.976246 1_555
Ga2 O6 2.040434 1_555
Ga2 O9 2.157859 1_555
Ga3 O39 1.935723 1_555
Ga3 O43 1.947769 1_555
Ga3 O19 1.966626 1_555
Ga3 O27 1.976246 1_555
Ga3 O7 2.040434 1_555
Ga3 O8 2.157859 1_555
Ga4 O32 1.942838 1_555
Ga4 O12 1.949434 1_565
Ga4 O20 1.955556 1_555
Ga4 O28 1.981080 1_555
Ga4 O8 2.159361 1_555
Ga4 O10 2.161652 1_565
Ga5 O33 1.942838 1_555
Ga5 O13 1.949434 1_645
Ga5 O21 1.955556 1_555
Ga5 O29 1.981080 1_655
Ga5 O9 2.159361 1_655
Ga5 O11 2.161652 1_546
Ga6 O34 1.942838 1_555
Ga6 O14 1.949434 1_545
Ga6 O22 1.955556 1_555
Ga6 O30 1.981080 1_555
Ga6 O10 2.159361 1_555
Ga6 O8 2.161652 1_545
Ga7 O35 1.942838 1_555
Ga7 O15 1.949434 1_465
Ga7 O23 1.955556 1_555
Ga7 O31 1.981080 1_455
Ga7 O11 2.159361 1_455
Ga7 O9 2.161652 1_564
H0 O0 0.984939 1_556
H1 O1 0.984939 1_555
H2 O2 0.984939 1_554
H3 O3 0.984939 1_555
H4 O0 0.996735 1_555
H5 O1 0.996735 1_555
H6 O2 0.996735 1_555
H7 O3 0.996735 1_555
H8 O4 0.995306 1_555
H9 O5 0.995306 1_555
H10 O6 0.995306 1_555
H11 O7 0.995306 1_555
H12 O4 1.006497 1_555
H13 O5 1.006497 1_655
H14 O6 1.006497 1_555
H15 O7 1.006497 1_455
H16 O8 0.989369 1_545
H17 O9 0.989369 1_565
H18 O10 0.989369 1_565
H19 O11 0.989369 1_545
O12 P0 1.565502 1_555
O12 Rb0 2.963422 1_555
O13 P1 1.565502 1_556
O13 Rb1 2.963422 1_555
O14 P2 1.565502 1_555
O14 Rb2 2.963422 1_555
O15 P3 1.565502 1_554
O15 Rb3 2.963422 1_555
O16 P1 1.566539 1_655
O16 Rb3 3.046897 1_555
O17 P0 1.566539 1_555
O17 Rb2 3.046897 1_555
O18 P3 1.566539 1_455
O18 Rb1 3.046897 1_555
O19 P2 1.566539 1_555
O19 Rb0 3.046897 1_555
O20 P2 1.554889 1_555
O20 Rb1 2.866774 1_555
O21 P3 1.554889 1_555
O21 Rb0 2.866774 1_555
O22 P0 1.554889 1_555
O22 Rb3 2.866774 1_555
O23 P1 1.554889 1_555
O23 Rb2 2.866774 1_555
O24 P0 1.526755 1_555
O24 Rb0 3.002757 1_555
O25 P1 1.526755 1_555
O25 Rb1 3.002757 1_554
O26 P2 1.526755 1_555
O26 Rb2 3.002757 1_555
O27 P3 1.526755 1_555
O27 Rb3 3.002757 1_556
O28 P4 1.579784 1_555
O29 P5 1.579784 1_555
O30 P6 1.579784 1_555
O31 P7 1.579784 1_555
O32 P5 1.548648 1_565
O32 Rb1 3.047658 1_555
O33 P4 1.548648 1_545
O33 Rb0 3.047658 1_555
O34 P7 1.548648 1_545
O34 Rb3 3.047658 1_555
O35 P6 1.548648 1_565
O35 Rb2 3.047658 1_555
O36 P7 1.539150 1_555
O36 Rb0 2.908493 1_555
O37 P6 1.539150 1_555
O37 Rb1 2.908493 1_554
O38 P5 1.539150 1_555
O38 Rb2 2.908493 1_555
O39 P4 1.539150 1_555
O39 Rb3 2.908493 1_556
O40 P4 1.539615 1_554
O40 Rb3 3.235530 1_555
O41 P5 1.539615 1_555
O41 Rb2 3.235530 1_555
O42 P6 1.539615 1_556
O42 Rb1 3.235530 1_555
O43 P7 1.539615 1_555
O43 Rb0 3.235530 1_555
