# generated using pymatgen
data_Na2Y2In2SiS5O24
_symmetry_space_group_name_H-M   'P 1'
_cell_length_a   9.03614017
_cell_length_b   9.03524191
_cell_length_c   23.99783858
_cell_angle_alpha   89.84400228
_cell_angle_beta   90.04945485
_cell_angle_gamma   119.77030361
_symmetry_Int_Tables_number   1
_chemical_formula_structural   Na2Y2In2SiS5O24
_chemical_formula_sum   'Na6 Y6 In6 Si3 S15 O72'
_cell_volume   1700.68697171
_cell_formula_units_Z   3
loop_
 _symmetry_equiv_pos_site_id
 _symmetry_equiv_pos_as_xyz
  1  'x, y, z'
loop_
 _atom_site_type_symbol
 _atom_site_label
 _atom_site_symmetry_multiplicity
 _atom_site_fract_x
 _atom_site_fract_y
 _atom_site_fract_z
 _atom_site_occupancy
  Na  Na0  1  0.98383155  0.97693997  0.51046189  1
  Na  Na1  1  0.00079186  0.99912665  0.99649689  1
  Na  Na2  1  0.66951660  0.31807260  0.81457074  1
  Na  Na3  1  0.64025338  0.31297269  0.33841742  1
  Na  Na4  1  0.32826103  0.68771820  0.17841029  1
  Na  Na5  1  0.37535629  0.68166838  0.66382258  1
  Y  Y0  1  0.98429487  0.00362050  0.84276053  1
  Y  Y1  1  0.00891565  0.99750670  0.15225823  1
  Y  Y2  1  0.65514409  0.32271871  0.19064377  1
  Y  Y3  1  0.66807350  0.33139236  0.97827465  1
  Y  Y4  1  0.33294109  0.66903524  0.01764736  1
  Y  Y5  1  0.33365050  0.67720596  0.31907831  1
  In  In0  1  0.01144399  0.00016745  0.35356367  1
  In  In1  1  0.97338302  0.98149684  0.64828848  1
  In  In2  1  0.66403010  0.33168801  0.67942947  1
  In  In3  1  0.66662930  0.33906132  0.48974691  1
  In  In4  1  0.34727632  0.66522458  0.52110606  1
  In  In5  1  0.34474362  0.67614424  0.80839797  1
  Si  Si0  1  0.29654982  0.99731473  0.25314294  1
  Si  Si1  1  0.69545799  0.00967056  0.74712373  1
  Si  Si2  1  0.66858257  0.62744137  0.58307031  1
  S  S0  1  0.70584072  0.70732663  0.25262382  1
  S  S1  1  0.00210406  0.29393911  0.25262566  1
  S  S2  1  0.29549054  0.29655464  0.74838346  1
  S  S3  1  0.00026977  0.69983930  0.74991889  1
  S  S4  1  0.96639197  0.33345277  0.58099331  1
  S  S5  1  0.36399680  0.03265261  0.58213447  1
  S  S6  1  0.96032092  0.62943260  0.08250518  1
  S  S7  1  0.66899496  0.03576786  0.08250508  1
  S  S8  1  0.36898738  0.33313966  0.08195240  1
  S  S9  1  0.62806602  0.66814565  0.91590787  1
  S  S10  1  0.04636947  0.37634223  0.91444766  1
  S  S11  1  0.32832402  0.96048623  0.91549264  1
  S  S12  1  0.64125464  0.97471643  0.41838402  1
  S  S13  1  0.33171536  0.36433567  0.41808779  1
  S  S14  1  0.03257103  0.66211170  0.42074115  1
  O  O0  1  0.20490568  0.01916584  0.30804360  1
  O  O1  1  0.80428956  0.79293237  0.30287643  1
  O  O2  1  0.97249146  0.18736409  0.30249978  1
  O  O3  1  0.21590849  0.19639535  0.80050475  1
  O  O4  1  0.98568938  0.78567493  0.80131587  1
  O  O5  1  0.79647475  0.03531301  0.80664788  1
  O  O6  1  0.79121404  0.98234363  0.69513317  1
  O  O7  1  0.19517514  0.20840800  0.69894493  1
  O  O8  1  0.03186887  0.80786973  0.70044483  1
  O  O9  1  0.78325161  0.80899183  0.20115174  1
  O  O10  1  0.01433998  0.20968143  0.20102107  1
  O  O11  1  0.19542985  0.98259625  0.19488521  1
  O  O12  1  0.88472051  0.35255720  0.63125273  1
  O  O13  1  0.47411874  0.10686615  0.63123870  1
  O  O14  1  0.64498890  0.51399454  0.63847016  1
  O  O15  1  0.87662677  0.53237492  0.13302955  1
  O  O16  1  0.65475700  0.12130631  0.13262169  1
  O  O17  1  0.46768886  0.34731793  0.13235353  1
  O  O18  1  0.45680265  0.31969716  0.03154872  1
  O  O19  1  0.86246524  0.53936688  0.03184623  1
  O  O20  1  0.67981530  0.13516712  0.03168714  1
  O  O21  1  0.44310998  0.13138540  0.52986013  1
  O  O22  1  0.69074289  0.54992252  0.52411185  1
  O  O23  1  0.85796811  0.29845540  0.53003893  1
  O  O24  1  0.54508112  0.68378242  0.96743896  1
  O  O25  1  0.14178331  0.46103524  0.96628219  1
  O  O26  1  0.31638354  0.86358893  0.96750943  1
  O  O27  1  0.55914235  0.86691037  0.46771152  1
  O  O28  1  0.31463327  0.45180879  0.46753333  1
  O  O29  1  0.14162565  0.68273887  0.46941576  1
  O  O30  1  0.11514784  0.64933527  0.36868043  1
  O  O31  1  0.53850580  0.89686398  0.36729020  1
  O  O32  1  0.35095390  0.46416959  0.36673430  1
  O  O33  1  0.13244419  0.47896738  0.86494483  1
  O  O34  1  0.34591287  0.87397189  0.86644619  1
  O  O35  1  0.52442921  0.64826502  0.86643379  1
  O  O36  1  0.00918815  0.81527763  0.41739196  1
  O  O37  1  0.81384978  0.99126616  0.41159422  1
  O  O38  1  0.17219165  0.19408585  0.41541367  1
  O  O39  1  0.03049586  0.20487801  0.91353775  1
  O  O40  1  0.17575967  0.98035351  0.91356671  1
  O  O41  1  0.80032470  0.82087437  0.91340498  1
  O  O42  1  -0.00023277  0.18853287  0.58610457  1
  O  O43  1  0.19772146  0.02612758  0.58935001  1
  O  O44  1  0.84058844  0.81644468  0.58555231  1
  O  O45  1  0.97501673  0.80088278  0.08253113  1
  O  O46  1  0.82257801  0.01728159  0.08394531  1
  O  O47  1  0.19601941  0.18055687  0.08358072  1
  O  O48  1  0.67518632  0.17870100  0.73974804  1
  O  O49  1  0.47073089  0.32386041  0.74635138  1
  O  O50  1  0.84258869  0.53307826  0.74606183  1
  O  O51  1  0.69874646  0.54009280  0.24760161  1
  O  O52  1  0.85493265  0.32338303  0.24711577  1
  O  O53  1  0.48728671  0.16759859  0.25119863  1
  O  O54  1  0.64536194  0.51296405  0.92058264  1
  O  O55  1  0.87291566  0.35773374  0.91851248  1
  O  O56  1  0.48532310  0.13191191  0.91966593  1
  O  O57  1  0.65857739  0.14724665  0.42446961  1
  O  O58  1  0.48349135  0.34020215  0.42179246  1
  O  O59  1  0.86342709  0.50397247  0.42357928  1
  O  O60  1  0.35251669  0.48873129  0.07852508  1
  O  O61  1  0.13439613  0.64958637  0.07933158  1
  O  O62  1  0.51326395  0.86427180  0.07958573  1
  O  O63  1  0.33581264  0.85593781  0.57558241  1
  O  O64  1  0.49609540  0.64817123  0.58110967  1
  O  O65  1  0.13068392  0.49564700  0.57386999  1
  O  O66  1  0.31643899  0.82711025  0.25486277  1
  O  O67  1  0.53014272  0.67908177  0.25616681  1
  O  O68  1  0.16110145  0.46052164  0.25673008  1
  O  O69  1  0.30205460  0.46547639  0.75332846  1
  O  O70  1  0.14857236  0.67150035  0.75608519  1
  O  O71  1  0.50614027  0.83564122  0.75080409  1
loop_
_geom_bond_atom_site_label_1
_geom_bond_atom_site_label_2
_geom_bond_distance
_geom_bond_site_symmetry_2
Na0 O44 2.269650 1_555
Na0 O43 2.581138 1_665
Na0 O42 2.591511 1_665
Na0 O36 2.743253 1_655
Na0 O37 2.862645 1_555
Na0 O38 2.935167 1_665
Na1 O40 2.600518 1_555
Na1 O41 2.639217 1_455
Na1 O39 2.641340 1_565
Na1 O45 2.663027 1_456
Na1 O46 2.700781 1_466
Na1 O47 2.703179 1_566
Na2 O48 2.211110 1_555
Na2 O50 2.427475 1_555
Na2 O49 2.448910 1_555
Na3 O53 2.494750 1_555
Na3 O58 2.534561 1_555
Na3 O57 2.600544 1_555
Na3 O59 2.788866 1_555
Na3 O51 2.853187 1_555
Na3 O52 2.897868 1_555
Na4 O66 2.260582 1_555
Na4 O68 2.633011 1_555
Na4 O67 2.636382 1_555
Na4 O61 2.870319 1_555
Na4 O62 2.881272 1_555
Na5 O64 2.357283 1_555
Na5 O71 2.463334 1_555
Na5 O69 2.750045 1_555
Na5 O63 2.762301 1_555
Na5 O65 2.948594 1_555
Na5 O70 2.988293 1_555
In0 O0 1.995762 1_555
In0 O38 2.205880 1_555
In0 O37 2.234922 1_445
In0 O1 2.239948 1_445
In0 O2 2.250652 1_455
In0 O36 2.256015 1_545
In1 O6 1.997305 1_555
In1 O44 2.040226 1_555
In1 O8 2.262386 1_655
In1 O42 2.307704 1_665
In1 O43 2.337211 1_665
In1 O7 2.372074 1_665
In2 O14 1.995323 1_555
In2 O48 2.035528 1_555
In2 O13 2.226274 1_555
In2 O12 2.231230 1_555
In2 O49 2.348747 1_555
In2 O50 2.359470 1_555
In3 O22 1.988292 1_555
In3 O23 2.164246 1_555
In3 O21 2.181041 1_555
In3 O59 2.294462 1_555
In3 O57 2.313490 1_555
In3 O58 2.325991 1_555
In4 O64 2.026519 1_555
In4 O65 2.190250 1_555
In4 O63 2.208794 1_555
In4 O28 2.214966 1_555
In4 O27 2.270419 1_555
In4 O29 2.303037 1_555
In5 O71 2.004874 1_555
In5 O70 2.154665 1_555
In5 O69 2.191355 1_555
In5 O35 2.244946 1_555
In5 O34 2.265017 1_555
In5 O33 2.300634 1_555
O0 Si0 1.620555 1_545
O1 S0 1.471019 1_555
O2 S1 1.473004 1_655
O3 S2 1.499907 1_555
O3 Y0 2.194607 1_455
O4 S3 1.499034 1_655
O4 Y0 2.214135 1_565
O5 Si1 1.648301 1_555
O5 Y0 2.047470 1_555
O6 Si1 1.606860 1_565
O7 S2 1.466266 1_555
O8 S3 1.470164 1_555
O9 S0 1.488648 1_555
O9 Y1 2.231619 1_655
O10 S1 1.488077 1_555
O10 Y1 2.228377 1_545
O11 Si0 1.638690 1_555
O11 Y1 2.031453 1_555
O12 S4 1.469123 1_555
O13 S5 1.472445 1_555
O14 Si2 1.624710 1_555
O15 S6 1.465697 1_555
O15 Y2 2.393972 1_555
O16 S7 1.471190 1_555
O16 Y2 2.293028 1_555
O17 S8 1.469802 1_555
O17 Y2 2.289854 1_555
O18 S8 1.485146 1_555
O18 Y3 2.256843 1_554
O19 S6 1.486944 1_555
O19 Y3 2.236231 1_554
O20 S7 1.486745 1_555
O20 Y3 2.229741 1_554
O21 S5 1.497568 1_555
O22 Si2 1.636366 1_555
O23 S4 1.499161 1_555
O24 S9 1.489724 1_555
O24 Y4 2.212148 1_556
O25 S10 1.491442 1_555
O25 Y4 2.195510 1_556
O26 S11 1.495604 1_555
O26 Y4 2.193040 1_556
O27 S12 1.475845 1_555
O28 S13 1.477505 1_555
O29 S14 1.478869 1_555
O30 S14 1.489597 1_555
O30 Y5 2.210736 1_555
O31 S12 1.488094 1_555
O31 Y5 2.250467 1_555
O32 S13 1.483647 1_555
O32 Y5 2.307363 1_555
O33 S10 1.468126 1_555
O34 S11 1.466402 1_555
O35 S9 1.466650 1_555
O36 S14 1.501997 1_555
O37 S12 1.499987 1_555
O38 S13 1.498875 1_555
O39 S10 1.483457 1_555
O39 Y0 2.372242 1_455
O40 S11 1.476640 1_555
O40 Y0 2.505768 1_465
O41 S9 1.482361 1_555
O41 Y0 2.372292 1_565
O42 S4 1.487177 1_455
O43 S5 1.484371 1_555
O44 Si2 1.643211 1_555
O45 S6 1.487633 1_555
O45 Y1 2.350484 1_655
O46 S7 1.478226 1_555
O46 Y1 2.418039 1_645
O47 S8 1.484936 1_555
O47 Y1 2.350166 1_545
O48 Si1 1.635114 1_555
O49 S2 1.477437 1_555
O50 S3 1.475655 1_655
O51 S0 1.485443 1_555
O51 Y2 2.264112 1_555
O52 S1 1.485807 1_655
O52 Y2 2.254074 1_555
O53 Si0 1.645087 1_545
O53 Y2 2.063580 1_555
O54 S9 1.489841 1_555
O54 Y3 2.229748 1_555
O55 S10 1.494277 1_655
O55 Y3 2.259393 1_555
O56 S11 1.496727 1_545
O56 Y3 2.237814 1_555
O57 S12 1.494904 1_545
O58 S13 1.494334 1_555
O59 S14 1.487688 1_655
O60 S8 1.487392 1_555
O60 Y4 2.256614 1_555
O61 S6 1.492944 1_455
O61 Y4 2.265160 1_555
O62 S7 1.490375 1_565
O62 Y4 2.265360 1_555
O63 S5 1.495461 1_565
O64 Si2 1.660214 1_555
O65 S4 1.489752 1_455
O66 Si0 1.634948 1_555
O66 Y5 2.104955 1_555
O67 S0 1.480101 1_555
O67 Y5 2.325235 1_555
O68 S1 1.480677 1_555
O68 Y5 2.341639 1_555
O69 S2 1.502702 1_555
O70 S3 1.491132 1_555
O71 Si1 1.653794 1_565
