# generated using pymatgen
data_Dy2Mg(CuO2)4
_symmetry_space_group_name_H-M   'P 1'
_cell_length_a   5.66820934
_cell_length_b   5.66564619
_cell_length_c   6.96826017
_cell_angle_alpha   113.93721635
_cell_angle_beta   114.04290793
_cell_angle_gamma   89.93863104
_symmetry_Int_Tables_number   1
_chemical_formula_structural   Dy2Mg(CuO2)4
_chemical_formula_sum   'Dy2 Mg1 Cu4 O8'
_cell_volume   183.13563910
_cell_formula_units_Z   1
loop_
 _symmetry_equiv_pos_site_id
 _symmetry_equiv_pos_as_xyz
  1  'x, y, z'
loop_
 _atom_site_type_symbol
 _atom_site_label
 _atom_site_symmetry_multiplicity
 _atom_site_fract_x
 _atom_site_fract_y
 _atom_site_fract_z
 _atom_site_occupancy
  Dy  Dy0  1  0.87459500  0.12501400  0.74976300  1
  Dy  Dy1  1  0.12524500  0.87500100  0.25014300  1
  Mg  Mg0  1  0.62579500  0.37468500  0.25026100  1
  Cu  Cu0  1  0.48444300  0.93574500  0.92043800  1
  Cu  Cu1  1  0.43600200  0.48464800  0.92060000  1
  Cu  Cu2  1  0.06457800  0.56445500  0.58007600  1
  Cu  Cu3  1  0.51464000  0.51545300  0.57885000  1
  O  O0  1  0.73520300  0.52033700  0.88010700  1
  O  O1  1  0.14497600  0.86032800  0.88073400  1
  O  O2  1  0.26905600  0.47644400  0.09931300  1
  O  O3  1  0.83019300  0.12224200  0.09870400  1
  O  O4  1  0.52364700  0.16963200  0.40107300  1
  O  O5  1  0.87733400  0.73134900  0.40077000  1
  O  O6  1  0.13975000  0.26425900  0.61973500  1
  O  O7  1  0.47954500  0.85540600  0.61943500  1
loop_
_geom_bond_atom_site_label_1
_geom_bond_atom_site_label_2
_geom_bond_distance
_geom_bond_site_symmetry_2
Dy0 O6 2.322593 1_655
Dy0 O0 2.322913 1_555
Dy0 O1 2.323038 1_645
Dy0 O7 2.323092 1_545
Dy0 O4 2.546300 1_555
Dy0 O3 2.550586 1_556
Dy0 O5 2.553054 1_545
Dy0 O2 2.555951 1_656
Dy1 O3 2.372588 1_465
Dy1 O5 2.374064 1_455
Dy1 O2 2.374103 1_555
Dy1 O4 2.374945 1_565
Dy1 O7 2.586064 1_555
Dy1 O1 2.589695 1_554
Dy1 O6 2.592710 1_565
Dy1 O0 2.595023 1_454
Mg0 O3 2.066635 1_555
Mg0 O4 2.068154 1_555
Mg0 O2 2.069793 1_555
Mg0 O5 2.069806 1_555
Cu0 O1 1.852996 1_555
Cu0 O3 1.859014 1_566
Cu0 O7 1.945554 1_555
Cu1 O0 1.853013 1_555
Cu1 O2 1.858959 1_556
Cu1 O6 1.945717 1_555
Cu2 O6 1.853259 1_555
Cu2 O5 1.859476 1_455
Cu2 O1 1.944424 1_555
Cu3 O7 1.852632 1_555
Cu3 O4 1.859521 1_555
Cu3 O0 1.945501 1_555
