# generated using pymatgen
data_Li2CoPCO7
_symmetry_space_group_name_H-M   'P 1'
_cell_length_a   6.24717000
_cell_length_b   5.08359000
_cell_length_c   8.53173753
_cell_angle_alpha   86.37749317
_cell_angle_beta   90.00000000
_cell_angle_gamma   90.00000000
_symmetry_Int_Tables_number   1
_chemical_formula_structural   Li2CoPCO7
_chemical_formula_sum   'Li4 Co2 P2 C2 O14'
_cell_volume   270.40999052
_cell_formula_units_Z   2
loop_
 _symmetry_equiv_pos_site_id
 _symmetry_equiv_pos_as_xyz
  1  'x, y, z'
loop_
 _atom_site_type_symbol
 _atom_site_label
 _atom_site_symmetry_multiplicity
 _atom_site_fract_x
 _atom_site_fract_y
 _atom_site_fract_z
 _atom_site_occupancy
  Li  Li0  1  0.01416800  0.77675800  0.78081200  1
  Li  Li1  1  0.98583200  0.22324200  0.21918800  1
  Li  Li2  1  0.51416800  0.22324200  0.21918800  1
  Li  Li3  1  0.48583200  0.77675800  0.78081200  1
  Co  Co0  1  0.75000000  0.78573400  0.34454500  1
  Co  Co1  1  0.25000000  0.21426600  0.65545500  1
  P  P0  1  0.25000000  0.71665500  0.42601700  1
  P  P1  1  0.75000000  0.28334500  0.57398300  1
  C  C0  1  0.75000000  0.73012000  0.05665200  1
  C  C1  1  0.25000000  0.26988000  0.94334800  1
  O  O0  1  0.94635600  0.18065200  0.67086100  1
  O  O1  1  0.75000000  0.96152900  0.11700200  1
  O  O2  1  0.25000000  0.47140900  0.83761400  1
  O  O3  1  0.75000000  0.52859100  0.16238600  1
  O  O4  1  0.55364400  0.18065200  0.67086100  1
  O  O5  1  0.75000000  0.17310400  0.40914900  1
  O  O6  1  0.25000000  0.03847100  0.88299800  1
  O  O7  1  0.44635600  0.81934800  0.32913900  1
  O  O8  1  0.05364400  0.81934800  0.32913900  1
  O  O9  1  0.25000000  0.41031900  0.44365800  1
  O  O10  1  0.75000000  0.70226400  0.91054700  1
  O  O11  1  0.25000000  0.29773600  0.08945300  1
  O  O12  1  0.75000000  0.58968100  0.55634200  1
  O  O13  1  0.25000000  0.82689600  0.59085100  1
loop_
_geom_bond_atom_site_label_1
_geom_bond_atom_site_label_2
_geom_bond_distance
_geom_bond_site_symmetry_2
Li0 O10 2.009749 1_455
Li0 O2 2.172533 1_555
Li0 O13 2.193168 1_555
Li0 O6 2.201655 1_565
Li0 O0 2.243171 1_465
Li1 O11 2.009749 1_655
Li1 O3 2.172533 1_555
Li1 O5 2.193168 1_555
Li1 O1 2.201655 1_545
Li1 O8 2.243171 1_645
Li2 O11 2.009749 1_555
Li2 O3 2.172533 1_555
Li2 O5 2.193168 1_555
Li2 O1 2.201655 1_545
Li2 O7 2.243171 1_545
Li3 O10 2.009749 1_555
Li3 O2 2.172533 1_555
Li3 O13 2.193168 1_555
Li3 O6 2.201655 1_565
Li3 O4 2.243171 1_565
Co0 O7 1.908383 1_555
Co0 O8 1.908383 1_655
Co0 O12 2.007729 1_555
Co0 O5 2.078179 1_565
Co0 O1 2.085234 1_555
Co0 O3 2.093047 1_555
Co1 O4 1.908383 1_555
Co1 O0 1.908383 1_455
Co1 O9 2.007729 1_555
Co1 O13 2.078179 1_545
Co1 O6 2.085234 1_555
Co1 O2 2.093047 1_555
C0 O10 1.263406 1_554
C0 O1 1.313599 1_555
C0 O3 1.321579 1_555
C1 O11 1.263406 1_556
C1 O6 1.313599 1_555
C1 O2 1.321579 1_555
O0 P1 1.551094 1_555
O4 P1 1.551094 1_555
O5 P1 1.546415 1_555
O7 P0 1.551094 1_555
O8 P0 1.551094 1_555
O9 P0 1.555049 1_555
O12 P1 1.555049 1_555
O13 P0 1.546415 1_555
