# generated using pymatgen
data_MgMn4FeO8
_symmetry_space_group_name_H-M   'P 1'
_cell_length_a   6.17323916
_cell_length_b   6.16894236
_cell_length_c   6.27863278
_cell_angle_alpha   84.22881575
_cell_angle_beta   57.96973439
_cell_angle_gamma   55.74491367
_symmetry_Int_Tables_number   1
_chemical_formula_structural   MgMn4FeO8
_chemical_formula_sum   'Mg1 Mn4 Fe1 O8'
_cell_volume   160.71805984
_cell_formula_units_Z   1
loop_
 _symmetry_equiv_pos_site_id
 _symmetry_equiv_pos_as_xyz
  1  'x, y, z'
loop_
 _atom_site_type_symbol
 _atom_site_label
 _atom_site_symmetry_multiplicity
 _atom_site_fract_x
 _atom_site_fract_y
 _atom_site_fract_z
 _atom_site_occupancy
  Mg  Mg0  1  0.28172300  0.83878900  0.55872600  1
  Mn  Mn0  1  0.99422900  0.49409700  0.50050200  1
  Mn  Mn1  1  0.95754100  0.03939500  0.08200800  1
  Mn  Mn2  1  0.51597400  0.00212400  0.98264700  1
  Mn  Mn3  1  0.02009000  0.49802900  0.98266700  1
  Fe  Fe0  1  0.49739800  0.49432500  0.99765000  1
  O  O0  1  0.47631200  0.28338500  0.80763700  1
  O  O1  1  0.97489700  0.23983700  0.78276900  1
  O  O2  1  0.45869400  0.75653200  0.78221700  1
  O  O3  1  0.98551000  0.73381800  0.74895200  1
  O  O4  1  0.04355300  0.26027400  0.21757100  1
  O  O5  1  0.50470900  0.25334300  0.22806000  1
  O  O6  1  0.02605200  0.73231600  0.22784000  1
  O  O7  1  0.54456700  0.71748500  0.17367100  1
loop_
_geom_bond_atom_site_label_1
_geom_bond_atom_site_label_2
_geom_bond_distance
_geom_bond_site_symmetry_2
Mg0 O7 1.968130 1_555
Mg0 O3 2.012569 1_455
Mg0 O2 2.068538 1_555
Mg0 O1 2.070158 1_465
Mn0 O5 2.141666 1_655
Mn0 O6 2.142722 1_655
Mn0 O4 2.185440 1_655
Mn0 O3 2.215504 1_555
Mn0 O2 2.242099 1_555
Mn0 O1 2.245592 1_555
Mn1 O6 1.940570 1_645
Mn1 O5 1.941167 1_555
Mn1 O4 2.095269 1_655
Mn1 O1 2.130442 1_554
Mn1 O2 2.136665 1_644
Mn2 O0 1.923948 1_555
Mn2 O3 1.967313 1_545
Mn2 O4 1.974339 1_556
Mn2 O7 2.001251 1_546
Mn2 O5 2.241892 1_556
Mn2 O2 2.337213 1_545
Mn3 O0 1.924669 1_555
Mn3 O3 1.966746 1_455
Mn3 O4 1.974801 1_556
Mn3 O7 2.001661 1_456
Mn3 O6 2.242159 1_556
Mn3 O1 2.337455 1_455
Fe0 O0 1.949666 1_555
Fe0 O5 1.966231 1_556
Fe0 O6 1.966632 1_556
Fe0 O2 1.992694 1_555
Fe0 O1 1.992928 1_555
Fe0 O7 2.073644 1_556
