# generated using pymatgen
data_Na3Nb3AlSi3(PO8)3
_symmetry_space_group_name_H-M   'P 1'
_cell_length_a   8.78612933
_cell_length_b   8.80255391
_cell_length_c   22.51358546
_cell_angle_alpha   89.95894296
_cell_angle_beta   90.07055707
_cell_angle_gamma   119.94070494
_symmetry_Int_Tables_number   1
_chemical_formula_structural   Na3Nb3AlSi3(PO8)3
_chemical_formula_sum   'Na9 Nb9 Al3 Si9 P9 O72'
_cell_volume   1508.83041175
_cell_formula_units_Z   3
loop_
 _symmetry_equiv_pos_site_id
 _symmetry_equiv_pos_as_xyz
  1  'x, y, z'
loop_
 _atom_site_type_symbol
 _atom_site_label
 _atom_site_symmetry_multiplicity
 _atom_site_fract_x
 _atom_site_fract_y
 _atom_site_fract_z
 _atom_site_occupancy
  Na  Na0  1  0.63699302  0.00046300  0.24818080  1
  Na  Na1  1  0.37227697  0.36409697  0.24678661  1
  Na  Na2  1  0.70486017  0.67318187  0.41377236  1
  Na  Na3  1  0.00875725  0.00885976  0.49308166  1
  Na  Na4  1  0.00193220  0.00167111  0.99974294  1
  Na  Na5  1  0.66745919  0.33343234  0.82922199  1
  Na  Na6  1  0.67697817  0.33670257  0.33120824  1
  Na  Na7  1  0.32569966  0.66466744  0.16465540  1
  Na  Na8  1  0.33468340  0.66609844  0.66523440  1
  Nb  Nb0  1  0.00123692  0.00136492  0.85503994  1
  Nb  Nb1  1  0.99769683  0.99757902  0.64313316  1
  Nb  Nb2  1  0.99757517  0.99742952  0.14479151  1
  Nb  Nb3  1  0.66010934  0.33159913  0.97712643  1
  Nb  Nb4  1  0.66773687  0.33536390  0.47822972  1
  Nb  Nb5  1  0.33421085  0.66317563  0.02223402  1
  Nb  Nb6  1  0.33569683  0.66466481  0.52058560  1
  Nb  Nb7  1  0.33209007  0.66696158  0.31438005  1
  Nb  Nb8  1  0.33318027  0.66649580  0.81132822  1
  Al  Al0  1  0.99783979  0.99555861  0.35596193  1
  Al  Al1  1  0.66431882  0.33486379  0.68541184  1
  Al  Al2  1  0.67319514  0.34726156  0.18543456  1
  Si  Si0  1  0.71993827  0.70426636  0.25306496  1
  Si  Si1  1  0.66246747  0.61084005  0.58771053  1
  Si  Si2  1  0.38518135  0.33468895  0.08810454  1
  Si  Si3  1  0.62100334  0.66812350  0.91624247  1
  Si  Si4  1  0.04638645  0.38055087  0.91633702  1
  Si  Si5  1  0.33301759  0.95084758  0.91683288  1
  Si  Si6  1  0.63123918  0.96063046  0.41577977  1
  Si  Si7  1  0.31754090  0.36201798  0.41536564  1
  Si  Si8  1  0.04633515  0.67661686  0.41710597  1
  P  P0  1  0.28675263  0.00313688  0.25166911  1
  P  P1  1  0.99135294  0.28342435  0.25079770  1
  P  P2  1  0.29856985  0.28829474  0.74809639  1
  P  P3  1  0.99035959  0.70190935  0.74832976  1
  P  P4  1  0.71142256  0.01062261  0.74806752  1
  P  P5  1  0.94824550  0.33647041  0.58757352  1
  P  P6  1  0.38832037  0.05140845  0.58730964  1
  P  P7  1  0.94813310  0.61266907  0.08612644  1
  P  P8  1  0.66425232  0.05307855  0.08719923  1
  O  O0  1  0.19941675  0.03467827  0.30477653  1
  O  O1  1  0.83180811  0.80386313  0.31067203  1
  O  O2  1  0.96296687  0.16700300  0.30439117  1
  O  O3  1  0.20243455  0.17498579  0.80365383  1
  O  O4  1  0.97112311  0.79704984  0.80362125  1
  O  O5  1  0.82534963  0.03007434  0.80359503  1
  O  O6  1  0.80264389  0.97785310  0.69420825  1
  O  O7  1  0.17550199  0.19864763  0.69438237  1
  O  O8  1  0.02285764  0.82556731  0.69440326  1
  O  O9  1  0.80550745  0.83602778  0.19475035  1
  O  O10  1  0.03238687  0.20320252  0.19451867  1
  O  O11  1  0.17409545  0.97495988  0.19445484  1
  O  O12  1  0.85950889  0.35705115  0.64167398  1
  O  O13  1  0.49934238  0.13620154  0.64157976  1
  O  O14  1  0.63786441  0.49273573  0.64332636  1
  O  O15  1  0.86431631  0.50272749  0.14093457  1
  O  O16  1  0.64414653  0.13839819  0.14331289  1
  O  O17  1  0.49768374  0.35844427  0.14644741  1
  O  O18  1  0.47237526  0.30690940  0.02768701  1
  O  O19  1  0.84147345  0.53462918  0.02882899  1
  O  O20  1  0.69459743  0.16169714  0.03018173  1
  O  O21  1  0.46625590  0.16044559  0.52983863  1
  O  O22  1  0.69578609  0.53474818  0.52525207  1
  O  O23  1  0.83944928  0.30332904  0.52971346  1
  O  O24  1  0.53275307  0.70001430  0.97489870  1
  O  O25  1  0.16883992  0.46924762  0.97470911  1
  O  O26  1  0.30083147  0.83258322  0.97545442  1
  O  O27  1  0.53091925  0.82930612  0.47225099  1
  O  O28  1  0.30014083  0.46701911  0.47318209  1
  O  O29  1  0.16700292  0.69734724  0.47470637  1
  O  O30  1  0.13526207  0.63510800  0.35942314  1
  O  O31  1  0.50386574  0.87018128  0.35669790  1
  O  O32  1  0.36935484  0.49814355  0.35781938  1
  O  O33  1  0.13712631  0.50100587  0.85787719  1
  O  O34  1  0.36329365  0.86131744  0.85816641  1
  O  O35  1  0.49946146  0.63587500  0.85796326  1
  O  O36  1  0.01999335  0.84060575  0.40822310  1
  O  O37  1  0.81523623  0.97038179  0.40744214  1
  O  O38  1  0.15100409  0.17699695  0.40470465  1
  O  O39  1  0.02773859  0.18868497  0.90729094  1
  O  O40  1  0.16246756  0.97412111  0.90722684  1
  O  O41  1  0.81298876  0.84021000  0.90733086  1
  O  O42  1  0.97409972  0.17214790  0.59228685  1
  O  O43  1  0.20015333  0.03126532  0.59227426  1
  O  O44  1  0.83686494  0.81146228  0.59255326  1
  O  O45  1  0.96968653  0.80016275  0.09116688  1
  O  O46  1  0.82910022  0.02826993  0.09130049  1
  O  O47  1  0.18620434  0.16151921  0.09095017  1
  O  O48  1  0.69247775  0.17194086  0.74067641  1
  O  O49  1  0.47844923  0.30448125  0.74247122  1
  O  O50  1  0.83016434  0.52084634  0.74186342  1
  O  O51  1  0.68683296  0.50797245  0.24324129  1
  O  O52  1  0.82776095  0.30136924  0.24017703  1
  O  O53  1  0.47508175  0.16069498  0.24351036  1
  O  O54  1  0.64279762  0.49733371  0.92390099  1
  O  O55  1  0.85481421  0.35877926  0.92472496  1
  O  O56  1  0.50552435  0.14314315  0.92362151  1
  O  O57  1  0.64031709  0.14751222  0.42391350  1
  O  O58  1  0.50410886  0.36262677  0.42425133  1
  O  O59  1  0.85390788  0.49787811  0.42406637  1
  O  O60  1  0.35925766  0.50573108  0.07914699  1
  O  O61  1  0.13614327  0.64104897  0.07918503  1
  O  O62  1  0.50192541  0.86737565  0.07991868  1
  O  O63  1  0.35976073  0.86457878  0.57830413  1
  O  O64  1  0.49481906  0.64198297  0.57830680  1
  O  O65  1  0.13358726  0.49736228  0.57899047  1
  O  O66  1  0.30673760  0.83591984  0.25442641  1
  O  O67  1  0.52036978  0.68923780  0.25475228  1
  O  O68  1  0.16293453  0.46686899  0.25501063  1
  O  O69  1  0.31029371  0.47037749  0.75458679  1
  O  O70  1  0.16233492  0.69207712  0.75408014  1
  O  O71  1  0.52990539  0.83953270  0.75418196  1
loop_
_geom_bond_atom_site_label_1
_geom_bond_atom_site_label_2
_geom_bond_distance
_geom_bond_site_symmetry_2
Na0 O52 2.329397 1_555
Na0 O67 2.403078 1_545
Na0 O53 2.454879 1_555
Na0 O66 2.518487 1_545
Na0 O16 2.640524 1_555
Na0 O31 2.704834 1_545
Na0 O2 2.784955 1_555
Na0 O9 2.807200 1_545
Na1 O53 2.375235 1_555
Na1 O51 2.398961 1_555
Na1 O68 2.428535 1_555
Na1 O67 2.489869 1_555
Na1 O17 2.525986 1_555
Na1 O32 2.770614 1_555
Na1 O0 2.832472 1_555
Na1 O10 2.842625 1_555
Na2 O37 2.296118 1_555
Na2 O36 2.404411 1_655
Na2 O58 2.413866 1_555
Na2 O59 2.483098 1_555
Na2 O1 2.583970 1_555
Na2 O22 2.773002 1_555
Na2 O27 2.839311 1_555
Na2 O32 2.847844 1_555
Na3 O38 2.422152 1_555
Na3 O36 2.450238 1_545
Na3 O37 2.478129 1_445
Na3 O43 2.741203 1_555
Na3 O42 2.755040 1_455
Na3 O44 2.774631 1_445
Na4 O47 2.557250 1_556
Na4 O39 2.591791 1_555
Na4 O40 2.595385 1_545
Na4 O41 2.597116 1_445
Na4 O45 2.637741 1_446
Na4 O46 2.640635 1_456
Na5 O49 2.491489 1_555
Na5 O50 2.506284 1_555
Na5 O48 2.521924 1_555
Na5 O56 2.640119 1_555
Na5 O54 2.643793 1_555
Na5 O55 2.647235 1_555
Na6 O51 2.463416 1_555
Na6 O52 2.543802 1_555
Na6 O59 2.567997 1_555
Na6 O57 2.587370 1_555
Na6 O53 2.587984 1_555
Na6 O58 2.664844 1_555
Na7 O61 2.483297 1_555
Na7 O60 2.483404 1_555
Na7 O62 2.542687 1_555
Na7 O66 2.576974 1_555
Na7 O67 2.590266 1_555
Na7 O68 2.594477 1_555
Na8 O64 2.481974 1_555
Na8 O65 2.544412 1_555
Na8 O63 2.557970 1_555
Na8 O71 2.581648 1_555
Na8 O69 2.586191 1_555
Na8 O70 2.588445 1_555
Nb0 O39 1.943127 1_555
Nb0 O40 1.944037 1_545
Nb0 O41 1.947880 1_445
Nb0 O3 2.026012 1_555
Nb0 O4 2.042523 1_445
Nb0 O5 2.044135 1_455
Nb1 O44 1.914515 1_555
Nb1 O6 1.999221 1_555
Nb1 O8 2.001209 1_655
Nb1 O42 2.007389 1_565
Nb1 O43 2.010265 1_665
Nb1 O7 2.035398 1_665
Nb2 O9 1.934033 1_555
Nb2 O47 1.978698 1_665
Nb2 O11 1.999068 1_655
Nb2 O10 2.019125 1_665
Nb2 O45 2.027409 1_555
Nb2 O46 2.027650 1_565
Nb3 O18 1.926161 1_556
Nb3 O56 1.948701 1_555
Nb3 O54 1.950884 1_555
Nb3 O55 1.992875 1_555
Nb3 O20 2.050419 1_556
Nb3 O19 2.060051 1_556
Nb4 O22 1.957566 1_555
Nb4 O59 1.968664 1_555
Nb4 O57 1.972875 1_555
Nb4 O58 1.985182 1_555
Nb4 O23 2.029538 1_555
Nb4 O21 2.033771 1_555
Nb5 O25 1.921696 1_554
Nb5 O24 1.929576 1_554
Nb5 O26 1.962771 1_554
Nb5 O60 1.977918 1_555
Nb5 O61 2.092165 1_555
Nb5 O62 2.107984 1_555
Nb6 O28 1.929436 1_555
Nb6 O27 1.935856 1_555
Nb6 O29 1.941113 1_555
Nb6 O64 1.989215 1_555
Nb6 O65 2.107992 1_555
Nb6 O63 2.112158 1_555
Nb7 O30 1.901982 1_555
Nb7 O31 1.920787 1_555
Nb7 O32 1.937710 1_555
Nb7 O67 2.063594 1_555
Nb7 O66 2.100127 1_555
Nb7 O68 2.117340 1_555
Nb8 O34 1.916226 1_555
Nb8 O33 1.919634 1_555
Nb8 O35 1.923101 1_555
Nb8 O70 2.072993 1_555
Nb8 O69 2.075714 1_555
Nb8 O71 2.082668 1_555
Al0 O38 1.849172 1_665
Al0 O36 1.882774 1_655
Al0 O1 1.885923 1_555
Al0 O37 1.901505 1_555
Al0 O0 1.994726 1_665
Al0 O2 2.043921 1_565
Al1 O14 1.789684 1_555
Al1 O13 1.897799 1_555
Al1 O12 1.902214 1_555
Al1 O49 1.989318 1_555
Al1 O48 2.004213 1_555
Al1 O50 2.008946 1_555
Al2 O17 1.818282 1_555
Al2 O15 1.845144 1_555
Al2 O51 1.882133 1_555
Al2 O16 1.969298 1_555
Al2 O52 2.017218 1_555
Al2 O53 2.141373 1_555
O0 P0 1.520151 1_555
O1 Si0 1.598464 1_555
O2 P1 1.520560 1_555
O3 P2 1.559686 1_555
O4 P3 1.556532 1_555
O5 P4 1.555707 1_555
O6 P4 1.558707 1_565
O7 P2 1.549421 1_555
O8 P3 1.558549 1_455
O9 Si0 1.662501 1_555
O10 P1 1.578156 1_455
O11 P0 1.566114 1_565
O12 P5 1.505933 1_555
O13 P6 1.507664 1_555
O14 Si1 1.571558 1_555
O15 P7 1.513469 1_555
O16 P8 1.524983 1_555
O17 Si2 1.592782 1_555
O18 Si2 1.639185 1_555
O19 P7 1.539421 1_555
O20 P8 1.541973 1_555
O21 P6 1.551962 1_555
O22 Si1 1.646123 1_555
O23 P5 1.553971 1_555
O24 Si3 1.626108 1_555
O25 Si4 1.629000 1_555
O26 Si5 1.615740 1_555
O27 Si6 1.647169 1_555
O28 Si7 1.647796 1_555
O29 Si8 1.625679 1_555
O30 Si8 1.648820 1_555
O31 Si6 1.662542 1_555
O32 Si7 1.666215 1_555
O33 Si4 1.627532 1_555
O34 Si5 1.627258 1_555
O35 Si3 1.623878 1_555
O36 Si8 1.584386 1_555
O37 Si6 1.586908 1_555
O38 Si7 1.572267 1_555
O39 Si4 1.626324 1_555
O40 Si5 1.624729 1_555
O41 Si3 1.621727 1_555
O42 P5 1.575693 1_555
O43 P6 1.576392 1_555
O44 Si1 1.666496 1_555
O45 P7 1.568716 1_555
O46 P8 1.571424 1_555
O47 Si2 1.650470 1_555
O48 P4 1.519001 1_555
O49 P2 1.519811 1_555
O50 P3 1.517580 1_555
O51 Si0 1.617967 1_555
O52 P1 1.540717 1_555
O53 P0 1.550755 1_555
O54 Si3 1.616625 1_555
O55 Si4 1.607549 1_655
O56 Si5 1.620079 1_545
O57 Si6 1.617240 1_545
O58 Si7 1.648479 1_555
O59 Si8 1.644218 1_655
O60 Si2 1.643524 1_555
O61 P7 1.550547 1_455
O62 P8 1.551030 1_565
O63 P6 1.548267 1_565
O64 Si1 1.640691 1_555
O65 P5 1.546986 1_455
O66 P0 1.568159 1_565
O67 Si0 1.691771 1_555
O68 P1 1.568143 1_455
O69 P2 1.560898 1_555
O70 P3 1.561220 1_455
O71 P4 1.559888 1_565
