# generated using pymatgen
data_KMgSc(MoO4)2
_symmetry_space_group_name_H-M   'P 1'
_cell_length_a   5.79456400
_cell_length_b   5.79456482
_cell_length_c   7.15627500
_cell_angle_alpha   90.00000000
_cell_angle_beta   90.00000000
_cell_angle_gamma   120.00000672
_symmetry_Int_Tables_number   1
_chemical_formula_structural   KMgSc(MoO4)2
_chemical_formula_sum   'K1 Mg1 Sc1 Mo2 O8'
_cell_volume   208.09383453
_cell_formula_units_Z   1
loop_
 _symmetry_equiv_pos_site_id
 _symmetry_equiv_pos_as_xyz
  1  'x, y, z'
loop_
 _atom_site_type_symbol
 _atom_site_label
 _atom_site_symmetry_multiplicity
 _atom_site_fract_x
 _atom_site_fract_y
 _atom_site_fract_z
 _atom_site_occupancy
  K  K0  1  0.00000000  0.00000000  0.49706600  1
  Mg  Mg0  1  0.66666700  0.33333300  0.17760500  1
  Sc  Sc0  1  0.00000000  0.00000000  0.01415900  1
  Mo  Mo0  1  0.33333300  0.66666700  0.30683200  1
  Mo  Mo1  1  0.66666700  0.33333300  0.70962500  1
  O  O0  1  0.34309400  0.17154700  0.81227800  1
  O  O1  1  0.82845300  0.17154700  0.81227800  1
  O  O2  1  0.82845300  0.65690600  0.81227800  1
  O  O3  1  0.16198500  0.83801500  0.17294200  1
  O  O4  1  0.33333300  0.66666700  0.55831500  1
  O  O5  1  0.66666700  0.33333300  0.45038400  1
  O  O6  1  0.16198500  0.32397000  0.17294200  1
  O  O7  1  0.67603000  0.83801500  0.17294200  1
loop_
_geom_bond_atom_site_label_1
_geom_bond_atom_site_label_2
_geom_bond_distance
_geom_bond_site_symmetry_2
K0 O7 2.832537 1_445
K0 O6 2.832537 1_555
K0 O3 2.832537 1_545
K0 O0 2.837733 1_555
K0 O2 2.837733 1_445
K0 O1 2.837733 1_455
Mg0 O5 1.952082 1_555
Mo0 O4 1.799682 1_555
Mo0 O3 1.968637 1_555
Mo0 O7 1.968641 1_555
Mo0 O6 1.968642 1_555
Mo1 O1 1.782206 1_555
Mo1 O0 1.782211 1_555
Mo1 O2 1.782211 1_555
Mo1 O5 1.855200 1_555
O0 Sc0 2.247566 1_556
O1 Sc0 2.247566 1_656
O2 Sc0 2.247566 1_666
O3 Sc0 1.983497 1_565
O6 Sc0 1.983497 1_555
O7 Sc0 1.983496 1_665
