# generated using pymatgen
data_GdInPd
_symmetry_space_group_name_H-M   'P 1'
_cell_length_a   7.70516356
_cell_length_b   7.70521020
_cell_length_c   3.89543015
_cell_angle_alpha   90.00000000
_cell_angle_beta   90.00000000
_cell_angle_gamma   120.00019889
_symmetry_Int_Tables_number   1
_chemical_formula_structural   GdInPd
_chemical_formula_sum   'Gd3 In3 Pd3'
_cell_volume   200.28643472
_cell_formula_units_Z   3
loop_
 _symmetry_equiv_pos_site_id
 _symmetry_equiv_pos_as_xyz
  1  'x, y, z'
loop_
 _atom_site_type_symbol
 _atom_site_label
 _atom_site_symmetry_multiplicity
 _atom_site_fract_x
 _atom_site_fract_y
 _atom_site_fract_z
 _atom_site_occupancy
  Gd  Gd0  1  0.00000000  0.59091314  0.50000000  1
  Gd  Gd1  1  0.40908494  0.40908410  0.50000000  1
  Gd  Gd2  1  0.59091506  -0.00000085  0.50000000  1
  In  In0  1  0.74343374  0.74343129  0.00000000  1
  In  In1  1  1.00000000  0.25656744  0.00000000  1
  In  In2  1  0.25656626  0.99999755  0.00000000  1
  Pd  Pd0  1  0.33332024  0.66665993  0.00000000  1
  Pd  Pd1  1  -0.00000000  1.00000971  0.50000000  1
  Pd  Pd2  1  0.66667976  0.33333870  0.00000000  1
loop_
_geom_bond_atom_site_label_1
_geom_bond_atom_site_label_2
_geom_bond_distance
_geom_bond_site_symmetry_2
Gd0 Pd0 3.038315 1_555
Gd0 Pd0 3.038315 1_556
Gd0 Pd2 3.038317 1_456
Gd0 Pd2 3.038317 1_455
Gd0 Pd1 3.152175 1_555
Gd0 In1 3.229616 1_456
Gd0 In1 3.229616 1_455
Gd0 In0 3.377269 1_455
Gd0 In0 3.377269 1_456
Gd0 In2 3.377269 1_555
Gd0 In2 3.377269 1_556
Gd1 Pd0 3.038413 1_555
Gd1 Pd0 3.038413 1_556
Gd1 Pd2 3.038438 1_556
Gd1 Pd2 3.038438 1_555
Gd1 Pd1 3.152026 1_545
Gd1 In0 3.229618 1_555
Gd1 In0 3.229618 1_556
Gd1 In1 3.377263 1_455
Gd1 In1 3.377263 1_456
Gd1 In2 3.377285 1_546
Gd1 In2 3.377285 1_545
Gd2 Pd2 3.038407 1_556
Gd2 Pd2 3.038407 1_555
Gd2 Pd0 3.038434 1_546
Gd2 Pd0 3.038434 1_545
Gd2 Pd1 3.152026 1_645
Gd2 In2 3.229618 1_546
Gd2 In2 3.229618 1_545
Gd2 In1 3.377263 1_555
Gd2 In1 3.377263 1_556
Gd2 In0 3.377285 1_546
Gd2 In0 3.377285 1_545
In0 Pd1 2.775221 1_655
In0 Pd1 2.775221 1_654
In0 Pd2 2.909580 1_555
In0 Pd0 2.909673 1_555
In1 Pd1 2.775150 1_644
In1 Pd1 2.775150 1_645
In1 Pd2 2.909513 1_555
In1 Pd0 2.909518 1_655
In2 Pd1 2.775221 1_554
In2 Pd1 2.775221 1_555
In2 Pd0 2.909572 1_555
In2 Pd2 2.909670 1_565
