# generated using pymatgen
data_MgFe4(HgO4)2
_symmetry_space_group_name_H-M   'P 1'
_cell_length_a   6.70042931
_cell_length_b   6.70042931
_cell_length_c   6.70042931
_cell_angle_alpha   60.00000000
_cell_angle_beta   60.00000000
_cell_angle_gamma   60.00000000
_symmetry_Int_Tables_number   1
_chemical_formula_structural   MgFe4(HgO4)2
_chemical_formula_sum   'Mg1 Fe4 Hg2 O8'
_cell_volume   212.71244069
_cell_formula_units_Z   1
loop_
 _symmetry_equiv_pos_site_id
 _symmetry_equiv_pos_as_xyz
  1  'x, y, z'
loop_
 _atom_site_type_symbol
 _atom_site_label
 _atom_site_symmetry_multiplicity
 _atom_site_fract_x
 _atom_site_fract_y
 _atom_site_fract_z
 _atom_site_occupancy
  Mg  Mg0  1  0.37500000  0.37500000  0.37500000  1
  Fe  Fe0  1  0.51844400  0.51844400  0.94466900  1
  Fe  Fe1  1  0.51844400  0.94466900  0.51844400  1
  Fe  Fe2  1  0.94466900  0.51844400  0.51844400  1
  Fe  Fe3  1  0.51844400  0.51844400  0.51844400  1
  Hg  Hg0  1  0.12500000  0.12500000  0.12500000  1
  Hg  Hg1  1  0.87500000  0.87500000  0.87500000  1
  O  O0  1  0.26317500  0.26317500  0.26317500  1
  O  O1  1  0.71047600  0.26317500  0.26317500  1
  O  O2  1  0.26317500  0.71047600  0.26317500  1
  O  O3  1  0.26317500  0.26317500  0.71047600  1
  O  O4  1  0.73278700  0.73278700  0.30163800  1
  O  O5  1  0.73278700  0.30163800  0.73278700  1
  O  O6  1  0.73278700  0.73278700  0.73278700  1
  O  O7  1  0.30163800  0.73278700  0.73278700  1
loop_
_geom_bond_atom_site_label_1
_geom_bond_atom_site_label_2
_geom_bond_distance
_geom_bond_site_symmetry_2
Mg0 O0 1.835343 1_555
Mg0 O2 1.835348 1_555
Mg0 O3 1.835348 1_555
Mg0 O1 1.835348 1_555
Fe0 O6 2.031146 1_555
Fe0 O7 2.031156 1_555
Fe0 O5 2.031156 1_555
Fe0 Mg0 2.354288 1_556
Fe0 O1 2.455718 1_556
Fe0 O2 2.455718 1_556
Fe0 O0 2.455718 1_556
Fe1 O6 2.031146 1_555
Fe1 O4 2.031156 1_555
Fe1 O7 2.031156 1_555
Fe1 Mg0 2.354288 1_565
Fe1 O3 2.455718 1_565
Fe1 O1 2.455718 1_565
Fe1 O0 2.455718 1_565
Fe2 O6 2.031146 1_555
Fe2 O4 2.031156 1_555
Fe2 O5 2.031156 1_555
Fe2 Mg0 2.354288 1_655
Fe2 O3 2.455718 1_655
Fe2 O0 2.455718 1_655
Fe2 O2 2.455718 1_655
Fe3 O4 2.031147 1_555
Fe3 O7 2.031147 1_555
Fe3 O5 2.031147 1_555
Fe3 Mg0 2.354294 1_555
Fe3 O2 2.455718 1_555
Fe3 O3 2.455718 1_555
Fe3 O1 2.455718 1_555
Hg0 O2 2.267810 1_545
Hg0 O1 2.267810 1_455
Hg0 O3 2.267810 1_554
Hg0 O0 2.267816 1_555
Hg1 O4 2.334084 1_556
Hg1 O7 2.334084 1_655
Hg1 O5 2.334084 1_565
Hg1 O6 2.334090 1_555
