# generated using pymatgen
data_CsMgMnP3HO10
_symmetry_space_group_name_H-M   'P 1'
_cell_length_a   6.92515889
_cell_length_b   7.03821822
_cell_length_c   6.57447062
_cell_angle_alpha   73.95324298
_cell_angle_beta   74.02258267
_cell_angle_gamma   96.67678178
_symmetry_Int_Tables_number   1
_chemical_formula_structural   CsMgMnP3HO10
_chemical_formula_sum   'Cs1 Mg1 Mn1 P3 H1 O10'
_cell_volume   289.57512019
_cell_formula_units_Z   1
loop_
 _symmetry_equiv_pos_site_id
 _symmetry_equiv_pos_as_xyz
  1  'x, y, z'
loop_
 _atom_site_type_symbol
 _atom_site_label
 _atom_site_symmetry_multiplicity
 _atom_site_fract_x
 _atom_site_fract_y
 _atom_site_fract_z
 _atom_site_occupancy
  Cs  Cs0  1  0.91065346  0.10223761  0.49262358  1
  Mg  Mg0  1  0.26468867  0.75626308  0.51167531  1
  Mn  Mn0  1  0.65636866  0.34206649  0.99637888  1
  P  P0  1  0.55277399  0.44310606  0.49817944  1
  P  P1  1  0.20718692  0.41585087  0.89881981  1
  P  P2  1  0.58916299  0.78974645  0.09609100  1
  H  H0  1  0.29607551  0.70821805  0.02818209  1
  O  O0  1  0.68514815  0.42512651  0.64572700  1
  O  O1  1  0.57776697  0.31918194  0.34426097  1
  O  O2  1  0.25876022  0.65152761  0.83797016  1
  O  O3  1  0.34303266  0.73535701  0.15889766  1
  O  O4  1  0.66176273  0.01234304  0.04142932  1
  O  O5  1  0.98110998  0.33278573  0.95922112  1
  O  O6  1  0.69759364  0.68165908  0.94673831  1
  O  O7  1  0.30959971  0.40149008  0.63690861  1
  O  O8  1  0.58993318  0.68727663  0.35981158  1
  O  O9  1  0.31851455  0.30604978  0.04708716  1
loop_
_geom_bond_atom_site_label_1
_geom_bond_atom_site_label_2
_geom_bond_distance
_geom_bond_site_symmetry_2
Cs0 O1 3.135322 1_555
Cs0 O0 3.137043 1_555
Cs0 O9 3.285692 1_655
Cs0 O5 3.301063 1_554
Cs0 O4 3.383827 1_556
Cs0 O6 3.395055 1_545
Cs0 Mg0 3.653070 1_645
Cs0 O7 3.763377 1_655
Mg0 O2 2.053599 1_555
Mg0 O3 2.282493 1_555
Mg0 O8 2.364333 1_555
Mg0 O7 2.488870 1_555
Mn0 O1 2.154956 1_556
Mn0 O0 2.161253 1_555
Mn0 O5 2.204986 1_555
Mn0 O9 2.243997 1_556
Mn0 O4 2.262933 1_556
Mn0 O6 2.293363 1_555
H0 O3 1.054006 1_555
H0 O2 1.489837 1_554
O0 P0 1.498675 1_555
O1 P0 1.497109 1_555
O2 P1 1.567085 1_555
O3 P2 1.611135 1_555
O4 P2 1.497506 1_545
O5 P1 1.505720 1_655
O6 P2 1.498876 1_556
O7 P0 1.626541 1_555
O7 P1 1.708458 1_555
O8 P0 1.658647 1_555
O8 P2 1.685525 1_555
O9 P1 1.509174 1_554
