# generated using pymatgen
data_UFeS3
_symmetry_space_group_name_H-M   'P 1'
_cell_length_a   5.65865717
_cell_length_b   5.65865717
_cell_length_c   8.49182300
_cell_angle_alpha   90.00000000
_cell_angle_beta   90.00000000
_cell_angle_gamma   142.10560528
_symmetry_Int_Tables_number   1
_chemical_formula_structural   UFeS3
_chemical_formula_sum   'U2 Fe2 S6'
_cell_volume   167.01026619
_cell_formula_units_Z   2
loop_
 _symmetry_equiv_pos_site_id
 _symmetry_equiv_pos_as_xyz
  1  'x, y, z'
loop_
 _atom_site_type_symbol
 _atom_site_label
 _atom_site_symmetry_multiplicity
 _atom_site_fract_x
 _atom_site_fract_y
 _atom_site_fract_z
 _atom_site_occupancy
  U  U0  1  0.76691300  0.23308700  0.75000000  1
  U  U1  1  0.23308700  0.76691300  0.25000000  1
  Fe  Fe0  1  0.00000000  0.00000000  0.00000000  1
  Fe  Fe1  1  0.00000000  0.00000000  0.50000000  1
  S  S0  1  0.36929200  0.63070800  0.54402900  1
  S  S1  1  0.63070800  0.36929200  0.45597100  1
  S  S2  1  0.63070800  0.36929200  0.04402900  1
  S  S3  1  0.36929200  0.63070800  0.95597100  1
  S  S4  1  0.07827200  0.92172800  0.75000000  1
  S  S5  1  0.92172800  0.07827200  0.25000000  1
loop_
_geom_bond_atom_site_label_1
_geom_bond_atom_site_label_2
_geom_bond_distance
_geom_bond_site_symmetry_2
Fe0 S5 2.282303 1_455
Fe0 S4 2.282303 1_544
Fe0 S3 2.339478 1_554
Fe0 S2 2.339478 1_445
Fe0 S3 2.339478 1_444
Fe0 S2 2.339478 1_555
Fe1 S5 2.282303 1_455
Fe1 S4 2.282303 1_545
Fe1 S0 2.339478 1_555
Fe1 S0 2.339478 1_445
Fe1 S1 2.339478 1_555
Fe1 S1 2.339478 1_445
S0 U0 2.763338 1_565
S0 U0 2.763338 1_455
S0 U1 2.891341 1_555
S1 U1 2.763338 1_545
S1 U1 2.763338 1_655
S1 U0 2.891341 1_555
S2 U1 2.763338 1_545
S2 U1 2.763338 1_655
S2 U0 2.891341 1_554
S3 U0 2.763338 1_565
S3 U0 2.763338 1_455
S3 U1 2.891341 1_556
S4 U0 2.730047 1_565
S4 U0 2.730047 1_455
S5 U1 2.730047 1_655
S5 U1 2.730047 1_545
