# generated using pymatgen
data_Na10Ca3Zr5(PO4)12
_symmetry_space_group_name_H-M   'P 1'
_cell_length_a   18.37744939
_cell_length_b   9.19675187
_cell_length_c   23.11262716
_cell_angle_alpha   89.97950975
_cell_angle_beta   90.04450336
_cell_angle_gamma   120.13422220
_symmetry_Int_Tables_number   1
_chemical_formula_structural   Na10Ca3Zr5(PO4)12
_chemical_formula_sum   'Na30 Ca9 Zr15 P36 O144'
_cell_volume   3378.39588776
_cell_formula_units_Z   3
loop_
 _symmetry_equiv_pos_site_id
 _symmetry_equiv_pos_as_xyz
  1  'x, y, z'
loop_
 _atom_site_type_symbol
 _atom_site_label
 _atom_site_symmetry_multiplicity
 _atom_site_fract_x
 _atom_site_fract_y
 _atom_site_fract_z
 _atom_site_occupancy
  Na  Na0  1  0.32194971  0.01325053  0.24897043  1
  Na  Na1  1  0.68602863  0.35725974  0.24854754  1
  Na  Na2  1  0.31706918  0.62469029  0.74941481  1
  Na  Na3  1  0.81690268  0.62395622  0.74923924  1
  Na  Na4  1  0.15634213  0.34731088  0.57798875  1
  Na  Na5  1  0.65608734  0.34704945  0.57711446  1
  Na  Na6  1  0.01634106  0.68793335  0.57856790  1
  Na  Na7  1  0.51672224  0.68770522  0.57813532  1
  Na  Na8  1  0.32563262  0.96259414  0.57836578  1
  Na  Na9  1  0.82695745  0.96673267  0.57838791  1
  Na  Na10  1  0.15593147  0.96506034  0.07783125  1
  Na  Na11  1  0.65700941  0.96700223  0.07820943  1
  Na  Na12  1  0.32601182  0.68687653  0.07840689  1
  Na  Na13  1  0.82649768  0.68834395  0.07801008  1
  Na  Na14  1  0.01651807  0.34675248  0.07774376  1
  Na  Na15  1  0.51728478  0.34634834  0.07917975  1
  Na  Na16  1  0.66192205  0.02411944  0.41087196  1
  Na  Na17  1  0.35112223  0.67804693  0.40961415  1
  Na  Na18  1  0.00017654  0.99903582  0.49364625  1
  Na  Na19  1  0.49967044  0.01687479  0.48964501  1
  Na  Na20  1  0.99985415  0.99962868  0.99556306  1
  Na  Na21  1  0.49988087  0.99950119  0.99593397  1
  Na  Na22  1  0.33342590  0.31806587  0.83136896  1
  Na  Na23  1  0.83334049  0.31827572  0.83142801  1
  Na  Na24  1  0.33454534  0.34036324  0.32552127  1
  Na  Na25  1  0.84562928  0.34250050  0.32707149  1
  Na  Na26  1  0.16192370  0.65306486  0.16658839  1
  Na  Na27  1  0.66561647  0.67971333  0.16665676  1
  Na  Na28  1  0.16053586  0.66733062  0.66766241  1
  Na  Na29  1  0.66042200  0.66710777  0.66784515  1
  Ca  Ca0  1  0.49999112  0.00570076  0.34992630  1
  Ca  Ca1  1  0.33366311  0.32511232  0.68937458  1
  Ca  Ca2  1  0.83350476  0.32476003  0.68969067  1
  Ca  Ca3  1  0.33142095  0.33973698  0.18588329  1
  Ca  Ca4  1  0.83916245  0.33438648  0.18763202  1
  Ca  Ca5  1  0.16658938  0.66756249  0.00854235  1
  Ca  Ca6  1  0.66651725  0.66653745  0.00886151  1
  Ca  Ca7  1  0.16173950  0.66046666  0.51060986  1
  Ca  Ca8  1  0.66946676  0.66811659  0.51131058  1
  Zr  Zr0  1  0.00031658  0.99906627  0.35137703  1
  Zr  Zr1  1  0.00126945  0.00290406  0.85339492  1
  Zr  Zr2  1  0.50128630  0.00291933  0.85336404  1
  Zr  Zr3  1  0.00177565  0.00362099  0.65164969  1
  Zr  Zr4  1  0.50161633  0.00283521  0.65095522  1
  Zr  Zr5  1  0.99977855  -0.00007854  0.15152731  1
  Zr  Zr6  1  0.50007504  0.99641250  0.15255017  1
  Zr  Zr7  1  0.33308225  0.33483785  0.97853877  1
  Zr  Zr8  1  0.83365582  0.33455523  0.97860779  1
  Zr  Zr9  1  0.33234562  0.32374824  0.47950797  1
  Zr  Zr10  1  0.83674641  0.34112751  0.47897006  1
  Zr  Zr11  1  0.16335336  0.66156245  0.31606448  1
  Zr  Zr12  1  0.66479323  0.66755949  0.31662997  1
  Zr  Zr13  1  0.16356057  0.66708510  0.81842995  1
  Zr  Zr14  1  0.66351100  0.66688301  0.81849468  1
  P  P0  1  0.14457687  0.99007418  0.25135864  1
  P  P1  1  0.64853801  0.99327067  0.25246521  1
  P  P2  1  0.34643368  0.70342705  0.25321191  1
  P  P3  1  0.85056944  0.70961093  0.25166959  1
  P  P4  1  0.00415580  0.29489775  0.25182130  1
  P  P5  1  0.50372252  0.30335547  0.24897965  1
  P  P6  1  0.14498707  0.30063462  0.75172367  1
  P  P7  1  0.64477449  0.30013501  0.75161210  1
  P  P8  1  0.00451019  0.71421404  0.75131616  1
  P  P9  1  0.50451220  0.71432187  0.75126758  1
  P  P10  1  0.35160476  0.98991343  0.75193944  1
  P  P11  1  0.85147721  0.98970830  0.75202516  1
  P  P12  1  0.48011779  0.32910980  0.58408760  1
  P  P13  1  0.97953183  0.32815206  0.58417545  1
  P  P14  1  0.18372983  0.03870524  0.58399639  1
  P  P15  1  0.68446145  0.04111977  0.58198050  1
  P  P16  1  0.33573581  0.63094717  0.58471938  1
  P  P17  1  0.83661160  0.63213009  0.58698529  1
  P  P18  1  0.48008113  0.63127955  0.08283714  1
  P  P19  1  0.98071285  0.63293958  0.08281446  1
  P  P20  1  0.33560819  0.03924569  0.08535735  1
  P  P21  1  0.83574451  0.04023475  0.08286827  1
  P  P22  1  0.18301906  0.32805474  0.08219383  1
  P  P23  1  0.68478622  0.32874493  0.08568729  1
  P  P24  1  0.31752986  0.66458403  0.91608575  1
  P  P25  1  0.81747787  0.66425786  0.91608421  1
  P  P26  1  0.01449062  0.36487552  0.91815590  1
  P  P27  1  0.51443440  0.36460388  0.91831081  1
  P  P28  1  0.16793296  0.97104298  0.91798866  1
  P  P29  1  0.66783392  0.97085600  0.91803785  1
  P  P30  1  0.31384974  0.96508394  0.41815336  1
  P  P31  1  0.81793267  0.97060708  0.41784755  1
  P  P32  1  0.16733158  0.36478541  0.41803227  1
  P  P33  1  0.67028800  0.36872701  0.41829536  1
  P  P34  1  0.01582381  0.66773752  0.41766071  1
  P  P35  1  0.51499931  0.66105391  0.41952308  1
  O  O0  1  0.09450022  0.00280285  0.30245896  1
  O  O1  1  0.60864753  0.01239463  0.30755230  1
  O  O2  1  0.39368165  0.78329164  0.30895996  1
  O  O3  1  0.90732381  0.81084962  0.30273288  1
  O  O4  1  0.49198099  0.19466071  0.30118404  1
  O  O5  1  0.00033714  0.18273929  0.30258039  1
  O  O6  1  0.09454880  0.18703471  0.80250274  1
  O  O7  1  0.59445348  0.18697632  0.80252040  1
  O  O8  1  0.49882906  0.81711569  0.80180391  1
  O  O9  1  0.99877993  0.81716471  0.80179949  1
  O  O10  1  0.40783696  -0.00144049  0.80276272  1
  O  O11  1  0.90780605  -0.00150705  0.80278666  1
  O  O12  1  0.39508169  0.97096265  0.69497932  1
  O  O13  1  0.89498570  0.97098473  0.69501319  1
  O  O14  1  0.09446180  0.21406528  0.69427736  1
  O  O15  1  0.59429575  0.21345036  0.69421327  1
  O  O16  1  0.01398162  0.81726583  0.69395706  1
  O  O17  1  0.51402677  0.81719136  0.69385679  1
  O  O18  1  0.39632675  0.82210167  0.19903819  1
  O  O19  1  0.89399601  0.81171253  0.19463588  1
  O  O20  1  0.01182986  0.20884326  0.19455063  1
  O  O21  1  0.51647629  0.21437686  0.19333235  1
  O  O22  1  0.09410213  0.97719811  0.19432828  1
  O  O23  1  0.59066264  0.97302507  0.19769059  1
  O  O24  1  0.44205844  0.36079997  0.63713960  1
  O  O25  1  0.94120982  0.35924883  0.63718304  1
  O  O26  1  0.23760361  0.11682050  0.63701586  1
  O  O27  1  0.73984597  0.12270678  0.63417099  1
  O  O28  1  0.32242860  0.52945201  0.63981768  1
  O  O29  1  0.82353018  0.53351708  0.64260031  1
  O  O30  1  0.44224803  0.52400202  0.13606722  1
  O  O31  1  0.94348673  0.52746604  0.13654516  1
  O  O32  1  0.32129653  0.10747402  0.14174067  1
  O  O33  1  0.81991520  0.11552617  0.13614295  1
  O  O34  1  0.23577502  0.35845234  0.13581185  1
  O  O35  1  0.73397390  0.35713461  0.14171570  1
  O  O36  1  0.22858992  0.30351735  0.02848081  1
  O  O37  1  0.73302998  0.30605393  0.03308278  1
  O  O38  1  0.42225399  0.54189920  0.02872995  1
  O  O39  1  0.92270097  0.54209699  0.02902868  1
  O  O40  1  0.34719775  0.15993461  0.03327148  1
  O  O41  1  0.84906765  0.15630378  0.02898977  1
  O  O42  1  0.22887494  0.15278579  0.52964958  1
  O  O43  1  0.72688176  0.14951422  0.52593413  1
  O  O44  1  0.34730570  0.53981536  0.53051011  1
  O  O45  1  0.84787158  0.53593768  0.53413482  1
  O  O46  1  0.42179427  0.30176838  0.53002536  1
  O  O47  1  0.92300782  0.30429143  0.52959513  1
  O  O48  1  0.28621920  0.69533436  0.97320966  1
  O  O49  1  0.78615843  0.69516381  0.97317314  1
  O  O50  1  0.05955113  0.42394432  0.97597134  1
  O  O51  1  0.55956909  0.42337016  0.97613888  1
  O  O52  1  0.15192246  0.88072588  0.97578003  1
  O  O53  1  0.65197344  0.88015604  0.97576221  1
  O  O54  1  0.27529900  0.86902503  0.47438738  1
  O  O55  1  0.78934710  0.88377355  0.47642550  1
  O  O56  1  0.15165018  0.42206684  0.47626866  1
  O  O57  1  0.66170569  0.44197188  0.47542549  1
  O  O58  1  0.05890577  0.69744302  0.47636108  1
  O  O59  1  0.56309625  0.68599828  0.47610035  1
  O  O60  1  0.06660806  0.64517347  0.36793611  1
  O  O61  1  0.56549785  0.64491591  0.36737210  1
  O  O62  1  0.25728642  0.87038776  0.36410298  1
  O  O63  1  0.75297471  0.86702814  0.36903835  1
  O  O64  1  0.18031207  0.49275316  0.36872071  1
  O  O65  1  0.67685618  0.48027205  0.36456373  1
  O  O66  1  0.06646365  0.48870572  0.86795846  1
  O  O67  1  0.56630032  0.48870383  0.86811218  1
  O  O68  1  0.17762125  0.86728061  0.86767374  1
  O  O69  1  0.67783496  0.86765098  0.86765827  1
  O  O70  1  0.25804340  0.64389308  0.86390860  1
  O  O71  1  0.75801353  0.64383449  0.86391535  1
  O  O72  1  0.00189048  0.81809459  0.40587173  1
  O  O73  1  0.50283343  0.81367433  0.41286209  1
  O  O74  1  0.40083832  0.98196515  0.41362475  1
  O  O75  1  0.90686754  0.99930272  0.40526062  1
  O  O76  1  0.09302735  0.18599726  0.40586733  1
  O  O77  1  0.59774569  0.18689635  0.41401009  1
  O  O78  1  0.00191662  0.18762487  0.90586893  1
  O  O79  1  0.50198334  0.18751800  0.90591746  1
  O  O80  1  0.09200873  0.99682313  0.90584914  1
  O  O81  1  0.59184660  0.99643179  0.90590753  1
  O  O82  1  0.40721386  0.81714175  0.90542480  1
  O  O83  1  0.90720526  0.81693173  0.90539338  1
  O  O84  1  0.48364929  0.16062584  0.58848287  1
  O  O85  1  0.98322936  0.15961905  0.58851935  1
  O  O86  1  0.09611448  0.03303809  0.58790332  1
  O  O87  1  0.59643911  0.03358753  0.58756673  1
  O  O88  1  0.41963410  0.80867448  0.58840464  1
  O  O89  1  0.92080081  0.80885148  0.58861467  1
  O  O90  1  0.48347791  0.80718466  0.08807366  1
  O  O91  1  0.98436259  0.80902415  0.08765891  1
  O  O92  1  0.41969644  0.03053248  0.08814946  1
  O  O93  1  0.92000420  0.03189274  0.08812177  1
  O  O94  1  0.09483497  0.15896880  0.08714764  1
  O  O95  1  0.59661682  0.15921959  0.08828272  1
  O  O96  1  0.34130953  0.14217085  0.75180217  1
  O  O97  1  0.84104029  0.14175901  0.75190830  1
  O  O98  1  0.23372400  0.32753660  0.75113163  1
  O  O99  1  0.73347622  0.32672961  0.75107713  1
  O  O100  1  0.42273069  0.54605736  0.75018364  1
  O  O101  1  0.92286740  0.54588586  0.75022970  1
  O  O102  1  0.33171712  0.52719114  0.24724930  1
  O  O103  1  0.83721859  0.53230478  0.25131003  1
  O  O104  1  0.42581637  0.32064077  0.24347190  1
  O  O105  1  0.92692694  0.31287193  0.25243726  1
  O  O106  1  0.23428637  0.13873475  0.25146900  1
  O  O107  1  0.73346424  0.15339776  0.24557603  1
  O  O108  1  0.32344255  0.50149620  0.91957543  1
  O  O109  1  0.82318260  0.50102169  0.91964918  1
  O  O110  1  0.42686848  0.35186490  0.92017779  1
  O  O111  1  0.92713401  0.35300079  0.91984417  1
  O  O112  1  0.24992699  0.14529152  0.91986932  1
  O  O113  1  0.74938642  0.14590777  0.92009619  1
  O  O114  1  0.32046365  0.14156216  0.42084054  1
  O  O115  1  0.81920758  0.14239148  0.42012511  1
  O  O116  1  0.25265138  0.36484368  0.42069354  1
  O  O117  1  0.75373662  0.35838028  0.42004694  1
  O  O118  1  0.42574330  0.49939496  0.42121512  1
  O  O119  1  0.92847377  0.50285966  0.42003056  1
  O  O120  1  0.16756781  0.47722706  0.07569812  1
  O  O121  1  0.66994237  0.47829920  0.07741739  1
  O  O122  1  0.07085812  0.66425230  0.07605399  1
  O  O123  1  0.57065774  0.66456362  0.07618645  1
  O  O124  1  0.26062899  0.85959427  0.07696449  1
  O  O125  1  0.76133243  0.85935899  0.07594610  1
  O  O126  1  0.16725777  0.85774971  0.57806355  1
  O  O127  1  0.66814550  0.85967437  0.57751125  1
  O  O128  1  0.26045545  0.66016359  0.57788203  1
  O  O129  1  0.76164516  0.66154079  0.57960193  1
  O  O130  1  0.07012806  0.47694546  0.57833861  1
  O  O131  1  0.57049309  0.47748244  0.57717486  1
  O  O132  1  0.14986427  0.82588199  0.25599893  1
  O  O133  1  0.65502828  0.83027758  0.25480564  1
  O  O134  1  0.26134364  0.70791353  0.25336285  1
  O  O135  1  0.76224928  0.69455540  0.25716572  1
  O  O136  1  0.08624408  0.46929996  0.25677173  1
  O  O137  1  0.58870502  0.47567640  0.25348963  1
  O  O138  1  0.15186995  0.47709213  0.75595110  1
  O  O139  1  0.65185425  0.47687195  0.75592667  1
  O  O140  1  0.08406273  0.69677322  0.75646937  1
  O  O141  1  0.58400008  0.69663748  0.75653233  1
  O  O142  1  0.26537575  0.82048025  0.75579980  1
  O  O143  1  0.76532628  0.82039497  0.75586631  1
loop_
_geom_bond_atom_site_label_1
_geom_bond_atom_site_label_2
_geom_bond_distance
_geom_bond_site_symmetry_2
Na0 O106 2.407801 1_555
Na0 O134 2.448665 1_545
Na0 O104 2.496724 1_555
Na0 O32 2.627202 1_555
Na0 O132 2.743365 1_545
Na0 O62 2.941799 1_545
Na0 O18 2.950775 1_545
Na0 O4 2.960581 1_555
Na1 O103 2.413378 1_555
Na1 O107 2.433312 1_555
Na1 O137 2.520745 1_555
Na1 O35 2.622505 1_555
Na1 O135 2.694729 1_555
Na1 O65 2.948346 1_555
Na1 O21 2.991375 1_555
Na1 O1 3.068019 1_555
Na2 O98 2.369235 1_555
Na2 O100 2.388242 1_555
Na2 O142 2.425793 1_555
Na2 O138 2.635366 1_555
Na2 O28 2.698508 1_555
Na2 O70 2.899594 1_555
Na3 O99 2.369940 1_555
Na3 O101 2.389987 1_555
Na3 O143 2.430103 1_555
Na3 O29 2.623939 1_555
Na3 O139 2.633397 1_555
Na3 O71 2.903975 1_555
Na4 O130 2.414204 1_555
Na4 O56 2.462813 1_555
Na4 O128 2.532169 1_555
Na4 O86 2.533622 1_555
Na4 O85 2.765333 1_455
Na4 O14 2.936325 1_555
Na4 O42 2.936605 1_555
Na4 O28 3.004277 1_555
Na5 O131 2.409949 1_555
Na5 O57 2.490997 1_555
Na5 O87 2.529364 1_555
Na5 O129 2.549180 1_555
Na5 O84 2.756205 1_555
Na6 O126 2.404646 1_555
Na6 O58 2.476667 1_555
Na6 O89 2.516870 1_455
Na6 O130 2.582263 1_555
Na6 O86 2.756313 1_565
Na6 O45 2.871382 1_455
Na6 O16 2.929758 1_555
Na6 O25 2.947644 1_455
Na7 O127 2.413803 1_555
Na7 O59 2.510915 1_555
Na7 O88 2.543900 1_555
Na7 O131 2.575498 1_555
Na7 O87 2.762863 1_565
Na7 O44 2.915308 1_555
Na7 O17 2.938695 1_555
Na7 O24 2.939279 1_555
Na8 O128 2.413686 1_555
Na8 O84 2.548237 1_565
Na8 O54 2.563277 1_555
Na8 O126 2.565761 1_555
Na8 O88 2.737952 1_555
Na8 O46 2.926967 1_565
Na8 O26 2.962284 1_565
Na8 O12 2.965701 1_555
Na9 O129 2.436568 1_555
Na9 O55 2.466326 1_555
Na9 O85 2.516631 1_565
Na9 O127 2.569533 1_555
Na9 O89 2.766188 1_555
Na9 O47 2.919532 1_565
Na9 O27 2.931385 1_565
Na9 O13 2.962441 1_555
Na10 O122 2.399285 1_555
Na10 O52 2.472647 1_554
Na10 O94 2.549193 1_565
Na10 O124 2.552869 1_555
Na10 O91 2.740473 1_455
Na10 O36 2.932500 1_565
Na10 O22 2.947155 1_555
Na10 O32 3.021708 1_565
Na11 O123 2.413528 1_555
Na11 O53 2.485936 1_554
Na11 O95 2.526196 1_565
Na11 O125 2.562078 1_555
Na11 O90 2.770745 1_555
Na11 O37 2.896312 1_565
Na11 O33 2.917303 1_565
Na11 O23 3.031317 1_555
Na12 O124 2.425756 1_555
Na12 O90 2.536276 1_555
Na12 O48 2.550819 1_554
Na12 O120 2.561806 1_555
Na12 O92 2.745944 1_565
Na12 O38 2.931947 1_555
Na12 O34 2.933393 1_555
Na12 O18 3.061584 1_555
Na13 O125 2.408550 1_555
Na13 O121 2.535560 1_555
Na13 O91 2.542529 1_555
Na13 O49 2.543325 1_554
Na13 O93 2.745672 1_565
Na13 O39 2.933960 1_555
Na13 O19 2.945465 1_555
Na13 O35 3.022898 1_555
Na14 O120 2.409044 1_555
Na14 O50 2.469893 1_554
Na14 O93 2.536098 1_455
Na14 O122 2.568498 1_555
Na14 O94 2.756118 1_555
Na14 O41 2.896828 1_455
Na14 O31 2.941869 1_455
Na14 O20 2.965249 1_555
Na15 O121 2.434490 1_555
Na15 O51 2.495268 1_554
Na15 O92 2.542718 1_555
Na15 O123 2.578631 1_555
Na15 O95 2.765871 1_555
Na15 O21 2.900681 1_555
Na15 O40 2.907067 1_555
Na15 O30 2.926823 1_555
Na16 O77 2.325996 1_555
Na16 O115 2.535015 1_555
Na16 O1 2.561876 1_555
Na16 O73 2.571842 1_545
Na16 O117 2.670966 1_555
Na16 O63 2.872786 1_545
Na16 O43 2.905579 1_555
Na17 O73 2.417184 1_555
Na17 O74 2.468137 1_555
Na17 O2 2.490331 1_555
Na17 O116 2.530584 1_555
Na17 O118 2.629331 1_555
Na17 O64 2.876896 1_555
Na18 O72 2.634557 1_555
Na18 O76 2.653521 1_565
Na18 O75 2.666907 1_455
Na18 O86 2.719048 1_565
Na18 O89 2.728645 1_455
Na18 O85 2.747998 1_465
Na19 O74 2.428798 1_545
Na19 O77 2.433661 1_555
Na19 O73 2.599372 1_545
Na19 O84 2.728921 1_555
Na19 O87 2.833363 1_555
Na19 O88 2.866063 1_545
Na20 O94 2.665167 1_666
Na20 O91 2.679906 1_556
Na20 O83 2.681421 1_555
Na20 O80 2.686578 1_655
Na20 O78 2.687022 1_665
Na20 O93 2.694520 1_566
Na21 O90 2.686496 1_556
Na21 O82 2.686676 1_555
Na21 O92 2.687579 1_566
Na21 O81 2.690750 1_555
Na21 O95 2.692258 1_566
Na21 O79 2.692667 1_565
Na22 O96 2.501519 1_555
Na22 O112 2.572520 1_555
Na22 O110 2.591860 1_555
Na22 O98 2.637951 1_555
Na22 O100 2.675388 1_555
Na22 O108 2.711003 1_555
Na23 O97 2.503294 1_555
Na23 O113 2.576840 1_555
Na23 O111 2.586771 1_555
Na23 O99 2.638362 1_555
Na23 O101 2.674839 1_555
Na23 O109 2.708351 1_555
Na24 O102 2.512963 1_555
Na24 O106 2.515878 1_555
Na24 O104 2.598699 1_555
Na24 O118 2.715731 1_555
Na24 O116 2.738617 1_555
Na24 O114 2.790383 1_555
Na25 O105 2.386444 1_555
Na25 O103 2.530891 1_555
Na25 O119 2.617602 1_555
Na25 O107 2.686691 1_555
Na25 O115 2.711051 1_555
Na25 O117 2.782895 1_555
Na26 O134 2.585483 1_555
Na26 O136 2.603290 1_555
Na26 O132 2.683723 1_555
Na26 O120 2.685157 1_555
Na26 O122 2.712409 1_555
Na26 O124 2.780765 1_555
Na27 O133 2.525714 1_555
Na27 O137 2.624012 1_555
Na27 O123 2.680952 1_555
Na27 O135 2.701744 1_555
Na27 O125 2.702707 1_555
Na27 O121 2.800451 1_555
Na28 O140 2.578448 1_555
Na28 O138 2.639801 1_555
Na28 O142 2.667755 1_555
Na28 O126 2.674167 1_555
Na28 O130 2.676706 1_555
Na28 O128 2.794573 1_555
Na29 O141 2.575984 1_555
Na29 O139 2.636578 1_555
Na29 O143 2.666456 1_555
Na29 O127 2.694643 1_555
Na29 O131 2.695863 1_555
Na29 O129 2.779270 1_555
Ca0 O4 2.136824 1_555
Ca0 O1 2.197693 1_555
Ca0 O2 2.209842 1_545
Ca0 O74 2.267162 1_545
Ca0 O77 2.278130 1_555
Ca0 O73 2.308271 1_545
Ca1 O26 2.203031 1_555
Ca1 O24 2.209173 1_555
Ca1 O96 2.273243 1_555
Ca1 O28 2.296482 1_555
Ca1 O100 2.332904 1_555
Ca1 O98 2.335868 1_555
Ca2 O27 2.202069 1_555
Ca2 O25 2.205516 1_555
Ca2 O97 2.269708 1_555
Ca2 O29 2.292530 1_555
Ca2 O99 2.330250 1_555
Ca2 O101 2.331452 1_555
Ca3 O34 2.181514 1_555
Ca3 O30 2.209627 1_555
Ca3 O102 2.230712 1_555
Ca3 O104 2.261406 1_555
Ca3 O32 2.289218 1_555
Ca3 O106 2.364429 1_555
Ca4 O31 2.192446 1_555
Ca4 O33 2.208828 1_555
Ca4 O107 2.256857 1_555
Ca4 O105 2.280456 1_555
Ca4 O35 2.304255 1_555
Ca4 O103 2.355378 1_555
Ca5 O48 2.237036 1_554
Ca5 O52 2.240184 1_554
Ca5 O50 2.242711 1_554
Ca5 O122 2.341210 1_555
Ca5 O120 2.345897 1_555
Ca5 O124 2.353682 1_555
Ca6 O49 2.237283 1_554
Ca6 O51 2.240953 1_554
Ca6 O53 2.245474 1_554
Ca6 O125 2.340985 1_555
Ca6 O123 2.344609 1_555
Ca6 O121 2.370422 1_555
Ca7 O54 2.172007 1_555
Ca7 O58 2.226300 1_555
Ca7 O56 2.250395 1_555
Ca7 O130 2.298412 1_555
Ca7 O126 2.355804 1_555
Ca7 O128 2.389424 1_555
Ca8 O57 2.176467 1_555
Ca8 O59 2.197919 1_555
Ca8 O55 2.247616 1_555
Ca8 O129 2.337364 1_555
Ca8 O127 2.343131 1_555
Ca8 O131 2.345220 1_555
O0 P0 1.538013 1_545
O0 Zr0 2.053934 1_545
O1 P1 1.523309 1_545
O2 P2 1.520594 1_555
O3 P3 1.539953 1_555
O3 Zr0 2.051616 1_655
O4 P5 1.511503 1_555
O5 P4 1.540074 1_555
O5 Zr0 2.030604 1_545
O6 P6 1.535122 1_555
O6 Zr1 2.068051 1_555
O7 P7 1.535317 1_555
O7 Zr2 2.066278 1_555
O8 P9 1.539167 1_555
O8 Zr2 2.065435 1_565
O9 P8 1.539500 1_655
O9 Zr1 2.065190 1_665
O10 P10 1.539399 1_545
O10 Zr2 2.060706 1_555
O11 P11 1.539093 1_545
O11 Zr1 2.060821 1_655
O12 P10 1.594852 1_555
O12 Zr4 2.093093 1_565
O13 P11 1.595411 1_555
O13 Zr3 2.087462 1_665
O14 P6 1.586032 1_555
O14 Zr3 2.075230 1_555
O15 P7 1.585051 1_555
O15 Zr4 2.082955 1_555
O16 P8 1.587410 1_555
O16 Zr3 2.080448 1_565
O17 P9 1.587351 1_555
O17 Zr4 2.083165 1_565
O18 P2 1.611112 1_555
O18 Zr6 2.071874 1_555
O19 P3 1.582596 1_555
O19 Zr5 2.095513 1_565
O20 P4 1.584759 1_555
O20 Zr5 2.074462 1_455
O21 P5 1.603922 1_555
O21 Zr6 2.095674 1_545
O22 P0 1.581084 1_555
O22 Zr5 2.094744 1_465
O23 P1 1.602459 1_555
O23 Zr6 2.064676 1_555
O24 P12 1.511260 1_555
O25 P13 1.510818 1_555
O26 P14 1.510820 1_555
O27 P15 1.511942 1_555
O28 P16 1.524219 1_555
O29 P17 1.520957 1_555
O30 P18 1.510669 1_555
O31 P19 1.511727 1_555
O32 P20 1.525768 1_555
O33 P21 1.511175 1_555
O34 P22 1.510005 1_555
O35 P23 1.524358 1_555
O36 P22 1.576406 1_555
O36 Zr7 2.133248 1_554
O37 P23 1.579705 1_555
O37 Zr8 2.142509 1_554
O38 P18 1.578141 1_555
O38 Zr7 2.126701 1_554
O39 P19 1.576178 1_555
O39 Zr8 2.131108 1_554
O40 P20 1.577548 1_555
O40 Zr7 2.161472 1_554
O41 P21 1.577093 1_555
O41 Zr8 2.141942 1_554
O42 P14 1.579102 1_555
O42 Zr9 2.105046 1_555
O43 P15 1.581095 1_555
O43 Zr10 2.188554 1_555
O44 P16 1.580363 1_555
O44 Zr9 2.205994 1_555
O45 P17 1.581930 1_555
O45 Zr10 2.123860 1_555
O46 P12 1.581424 1_555
O46 Zr9 2.106376 1_555
O47 P13 1.577292 1_555
O47 Zr10 2.129077 1_555
O48 P24 1.522845 1_555
O49 P25 1.522759 1_555
O50 P26 1.521047 1_555
O51 P27 1.521571 1_555
O52 P28 1.521532 1_555
O53 P29 1.521983 1_555
O54 P30 1.530955 1_555
O55 P31 1.525070 1_555
O56 P32 1.525063 1_555
O57 P33 1.526367 1_555
O58 P34 1.524333 1_555
O59 P35 1.529273 1_555
O60 P34 1.559227 1_555
O60 Zr11 2.086915 1_555
O61 P35 1.573625 1_555
O61 Zr12 2.090519 1_555
O62 P30 1.577789 1_555
O62 Zr11 2.137964 1_555
O63 P31 1.569084 1_555
O63 Zr12 2.114787 1_555
O64 P32 1.567964 1_555
O64 Zr11 2.114804 1_555
O65 P33 1.576134 1_555
O65 Zr12 2.150572 1_555
O66 P26 1.569682 1_555
O66 Zr13 2.061164 1_555
O67 P27 1.570267 1_555
O67 Zr14 2.062621 1_555
O68 P28 1.570482 1_555
O68 Zr13 2.067692 1_555
O69 P29 1.570600 1_555
O69 Zr14 2.069476 1_555
O70 P24 1.573175 1_555
O70 Zr13 2.129354 1_555
O71 P25 1.573333 1_555
O71 Zr14 2.128335 1_555
O72 P34 1.551474 1_555
O72 Zr0 2.098586 1_555
O73 P35 1.535805 1_555
O74 P30 1.530269 1_555
O75 P31 1.546977 1_555
O75 Zr0 2.123061 1_655
O76 P32 1.546826 1_555
O76 Zr0 2.121739 1_545
O77 P33 1.531348 1_555
O78 P26 1.553507 1_555
O78 Zr1 2.082846 1_555
O79 P27 1.553337 1_555
O79 Zr2 2.082633 1_555
O80 P28 1.553474 1_555
O80 Zr1 2.084256 1_565
O81 P29 1.553433 1_555
O81 Zr2 2.084386 1_565
O82 P24 1.556997 1_555
O82 Zr2 2.095661 1_565
O83 P25 1.557985 1_555
O83 Zr1 2.095490 1_665
O84 P12 1.586299 1_555
O84 Zr4 2.186001 1_555
O85 P13 1.588297 1_555
O85 Zr3 2.189099 1_655
O86 P14 1.587263 1_555
O86 Zr3 2.186875 1_555
O87 P15 1.589336 1_555
O87 Zr4 2.184471 1_555
O88 P16 1.589237 1_555
O88 Zr4 2.201314 1_565
O89 P17 1.584882 1_555
O89 Zr3 2.206293 1_665
O90 P18 1.591983 1_555
O90 Zr6 2.193299 1_555
O91 P19 1.590777 1_555
O91 Zr5 2.200770 1_565
O92 P20 1.588332 1_555
O92 Zr6 2.226576 1_545
O93 P21 1.592920 1_555
O93 Zr5 2.193746 1_555
O94 P22 1.589795 1_555
O94 Zr5 2.200497 1_455
O95 P23 1.588526 1_555
O95 Zr6 2.220648 1_545
O96 P10 1.504186 1_545
O97 P11 1.503842 1_545
O98 P6 1.521743 1_555
O99 P7 1.522153 1_555
O100 P9 1.522801 1_555
O101 P8 1.521894 1_655
O102 P2 1.509668 1_555
O103 P3 1.522352 1_555
O104 P5 1.522994 1_555
O105 P4 1.509122 1_655
O106 P0 1.524490 1_545
O107 P1 1.523947 1_545
O108 P24 1.559322 1_555
O108 Zr7 2.123340 1_555
O109 P25 1.558664 1_555
O109 Zr8 2.128787 1_555
O110 P27 1.554362 1_555
O110 Zr7 2.132390 1_555
O111 P26 1.553960 1_655
O111 Zr8 2.129657 1_555
O112 P28 1.554331 1_545
O112 Zr7 2.129929 1_555
O113 P29 1.554862 1_545
O113 Zr8 2.130243 1_555
O114 P30 1.566791 1_545
O114 Zr9 2.080261 1_555
O115 P31 1.569129 1_545
O115 Zr10 2.168833 1_555
O116 P32 1.568850 1_555
O116 Zr9 2.165177 1_555
O117 P33 1.583970 1_555
O117 Zr10 2.108717 1_555
O118 P35 1.566516 1_555
O118 Zr9 2.142166 1_555
O119 P34 1.560530 1_655
O119 Zr10 2.096269 1_555
O120 P22 1.541495 1_555
O121 P23 1.542455 1_555
O122 P19 1.540508 1_455
O123 P18 1.541712 1_555
O124 P20 1.542746 1_565
O125 P21 1.542278 1_565
O126 P14 1.540873 1_565
O127 P15 1.543650 1_565
O128 P16 1.544022 1_555
O129 P17 1.540802 1_555
O130 P13 1.541237 1_455
O131 P12 1.539718 1_555
O132 P0 1.564717 1_555
O132 Zr11 2.155598 1_555
O133 P1 1.563210 1_555
O133 Zr12 2.140369 1_555
O134 P2 1.584860 1_555
O134 Zr11 2.181207 1_555
O135 P3 1.563464 1_555
O135 Zr12 2.171480 1_555
O136 P4 1.559451 1_555
O136 Zr11 2.120264 1_555
O137 P5 1.573624 1_555
O137 Zr12 2.172597 1_555
O138 P6 1.566248 1_555
O138 Zr13 2.192934 1_555
O139 P7 1.567347 1_555
O139 Zr14 2.194605 1_555
O140 P8 1.553204 1_555
O140 Zr13 2.157959 1_555
O141 P9 1.553513 1_555
O141 Zr14 2.158448 1_555
O142 P10 1.571004 1_555
O142 Zr13 2.222388 1_555
O143 P11 1.569711 1_555
O143 Zr14 2.222590 1_555
