# generated using pymatgen
data_MgCo6(O5F)2
_symmetry_space_group_name_H-M   'P 1'
_cell_length_a   4.85743107
_cell_length_b   14.43582313
_cell_length_c   2.85814918
_cell_angle_alpha   89.98580990
_cell_angle_beta   90.00797128
_cell_angle_gamma   98.31690461
_symmetry_Int_Tables_number   1
_chemical_formula_structural   MgCo6(O5F)2
_chemical_formula_sum   'Mg1 Co6 O10 F2'
_cell_volume   198.30856941
_cell_formula_units_Z   1
loop_
 _symmetry_equiv_pos_site_id
 _symmetry_equiv_pos_as_xyz
  1  'x, y, z'
loop_
 _atom_site_type_symbol
 _atom_site_label
 _atom_site_symmetry_multiplicity
 _atom_site_fract_x
 _atom_site_fract_y
 _atom_site_fract_z
 _atom_site_occupancy
  Mg  Mg0  1  0.47401308  0.99654355  0.98789840  1
  Co  Co0  1  0.97590064  0.99597660  0.98783876  1
  Co  Co1  1  0.96497612  0.36275153  0.98823658  1
  Co  Co2  1  0.09560370  0.64302790  0.98782877  1
  Co  Co3  1  0.31320357  0.19580622  0.48767633  1
  Co  Co4  1  0.53464887  0.50524387  0.48802444  1
  Co  Co5  1  0.59776958  0.79822931  0.48794597  1
  O  O0  1  0.07553988  0.29290451  0.48825530  1
  O  O1  1  0.17622652  0.94893285  0.48797484  1
  O  O2  1  0.24227682  0.58284587  0.48796626  1
  O  O3  1  0.41151548  0.73364671  0.98786807  1
  O  O4  1  0.23932723  0.10368998  0.98780600  1
  O  O5  1  0.33906062  0.44327152  0.98810881  1
  O  O6  1  0.73103188  0.56923556  0.98786974  1
  O  O7  1  0.69653925  0.88616965  0.98783420  1
  O  O8  1  0.77042198  0.04067742  0.48783059  1
  O  O9  1  0.80925864  0.42096764  0.48823524  1
  F  F0  1  0.57373031  0.25820683  0.98811321  1
  F  F1  1  0.93728784  0.72187349  0.48752148  1
loop_
_geom_bond_atom_site_label_1
_geom_bond_atom_site_label_2
_geom_bond_distance
_geom_bond_site_symmetry_2
Mg0 O4 2.049892 1_565
Mg0 O7 2.050688 1_555
Mg0 O8 2.062789 1_566
Mg0 O8 2.063116 1_565
Mg0 O1 2.078127 1_555
Mg0 O1 2.078470 1_556
Co0 O4 1.865349 1_665
Co0 O8 1.907982 1_565
Co0 O1 1.908205 1_655
Co0 O1 1.908333 1_656
Co0 O8 1.908395 1_566
Co0 O7 1.931792 1_555
Co1 O0 1.871693 1_656
Co1 O9 1.871805 1_555
Co1 O0 1.872106 1_655
Co1 O9 1.872278 1_556
Co1 O5 2.010446 1_655
Co1 F0 2.249359 1_555
Co2 O2 1.866403 1_555
Co2 O2 1.866523 1_556
Co2 O3 1.866894 1_555
Co2 O6 1.930039 1_455
Co2 F1 2.044737 1_456
Co2 F1 2.045421 1_455
Co3 O0 1.940515 1_555
Co3 O4 1.949619 1_554
Co3 O4 1.949753 1_555
Co3 F0 2.030192 1_554
Co3 F0 2.032016 1_555
Co4 O5 1.870532 1_554
Co4 O5 1.870764 1_555
Co4 O6 1.884052 1_555
Co4 O6 1.884576 1_554
Co4 O9 1.931027 1_555
Co4 O2 1.931869 1_555
Co5 O3 1.866817 1_555
Co5 O3 1.867319 1_554
Co5 O7 1.925522 1_555
Co5 O7 1.925628 1_554
Co5 F1 2.112034 1_555
