# generated using pymatgen
data_Li2Fe2(MoO4)3
_symmetry_space_group_name_H-M   'P 1'
_cell_length_a   9.48097600
_cell_length_b   9.66914100
_cell_length_c   13.21034800
_cell_angle_alpha   90.00000000
_cell_angle_beta   90.00000000
_cell_angle_gamma   90.00000000
_symmetry_Int_Tables_number   1
_chemical_formula_structural   Li2Fe2(MoO4)3
_chemical_formula_sum   'Li8 Fe8 Mo12 O48'
_cell_volume   1211.03082876
_cell_formula_units_Z   4
loop_
 _symmetry_equiv_pos_site_id
 _symmetry_equiv_pos_as_xyz
  1  'x, y, z'
loop_
 _atom_site_type_symbol
 _atom_site_label
 _atom_site_symmetry_multiplicity
 _atom_site_fract_x
 _atom_site_fract_y
 _atom_site_fract_z
 _atom_site_occupancy
  Li  Li0  1  0.23371600  0.27728000  0.81013200  1
  Li  Li1  1  0.73371600  0.22272000  0.68986800  1
  Li  Li2  1  0.26628400  0.27728000  0.18986800  1
  Li  Li3  1  0.76628400  0.22272000  0.31013200  1
  Li  Li4  1  0.76628400  0.72272000  0.18986800  1
  Li  Li5  1  0.26628400  0.77728000  0.31013200  1
  Li  Li6  1  0.73371600  0.72272000  0.81013200  1
  Li  Li7  1  0.23371600  0.77728000  0.68986800  1
  Fe  Fe0  1  0.03483700  0.25383800  0.62195200  1
  Fe  Fe1  1  0.53483700  0.24616200  0.87804800  1
  Fe  Fe2  1  0.46516300  0.25383800  0.37804800  1
  Fe  Fe3  1  0.96516300  0.24616200  0.12195200  1
  Fe  Fe4  1  0.96516300  0.74616200  0.37804800  1
  Fe  Fe5  1  0.46516300  0.75383800  0.12195200  1
  Fe  Fe6  1  0.53483700  0.74616200  0.62195200  1
  Fe  Fe7  1  0.03483700  0.75383800  0.87804800  1
  Mo  Mo0  1  0.39759600  0.09719100  0.64301300  1
  Mo  Mo1  1  0.89759600  0.40280900  0.85698700  1
  Mo  Mo2  1  0.10240400  0.09719100  0.35698700  1
  Mo  Mo3  1  0.60240400  0.40280900  0.14301300  1
  Mo  Mo4  1  0.60240400  0.90280900  0.35698700  1
  Mo  Mo5  1  0.10240400  0.59719100  0.14301300  1
  Mo  Mo6  1  0.89759600  0.90280900  0.64301300  1
  Mo  Mo7  1  0.39759600  0.59719100  0.85698700  1
  Mo  Mo8  1  0.25000000  0.03700600  0.00000000  1
  Mo  Mo9  1  0.75000000  0.46299400  0.50000000  1
  Mo  Mo10  1  0.75000000  0.96299400  0.00000000  1
  Mo  Mo11  1  0.25000000  0.53700600  0.50000000  1
  O  O0  1  0.23090000  0.17096700  0.67984500  1
  O  O1  1  0.73090000  0.32903300  0.82015500  1
  O  O2  1  0.26910000  0.17096700  0.32015500  1
  O  O3  1  0.76910000  0.32903300  0.17984500  1
  O  O4  1  0.76910000  0.82903300  0.32015500  1
  O  O5  1  0.26910000  0.67096700  0.17984500  1
  O  O6  1  0.73090000  0.82903300  0.67984500  1
  O  O7  1  0.23090000  0.67096700  0.82015500  1
  O  O8  1  0.43209000  0.14107300  0.51540300  1
  O  O9  1  0.93209000  0.35892700  0.98459700  1
  O  O10  1  0.06791000  0.14107300  0.48459700  1
  O  O11  1  0.56791000  0.35892700  0.01540300  1
  O  O12  1  0.56791000  0.85892700  0.48459700  1
  O  O13  1  0.06791000  0.64107300  0.01540300  1
  O  O14  1  0.93209000  0.85892700  0.51540300  1
  O  O15  1  0.43209000  0.64107300  0.98459700  1
  O  O16  1  0.12454900  0.43111200  0.56375100  1
  O  O17  1  0.62454900  0.06888800  0.93624900  1
  O  O18  1  0.37545100  0.43111200  0.43624900  1
  O  O19  1  0.87545100  0.06888800  0.06375100  1
  O  O20  1  0.87545100  0.56888800  0.43624900  1
  O  O21  1  0.37545100  0.93111200  0.06375100  1
  O  O22  1  0.62454900  0.56888800  0.56375100  1
  O  O23  1  0.12454900  0.93111200  0.93624900  1
  O  O24  1  0.53554100  0.17134700  0.71995900  1
  O  O25  1  0.03554100  0.32865300  0.78004100  1
  O  O26  1  0.96445900  0.17134700  0.28004100  1
  O  O27  1  0.46445900  0.32865300  0.21995900  1
  O  O28  1  0.46445900  0.82865300  0.28004100  1
  O  O29  1  0.96445900  0.67134700  0.21995900  1
  O  O30  1  0.03554100  0.82865300  0.71995900  1
  O  O31  1  0.53554100  0.67134700  0.78004100  1
  O  O32  1  0.33281900  0.14770700  0.90682700  1
  O  O33  1  0.83281900  0.35229300  0.59317300  1
  O  O34  1  0.16718100  0.14770700  0.09317300  1
  O  O35  1  0.66718100  0.35229300  0.40682700  1
  O  O36  1  0.66718100  0.85229300  0.09317300  1
  O  O37  1  0.16718100  0.64770700  0.40682700  1
  O  O38  1  0.83281900  0.85229300  0.90682700  1
  O  O39  1  0.33281900  0.64770700  0.59317300  1
  O  O40  1  0.39258700  0.41093500  0.83840500  1
  O  O41  1  0.89258700  0.08906500  0.66159500  1
  O  O42  1  0.10741300  0.41093500  0.16159500  1
  O  O43  1  0.60741300  0.08906500  0.33840500  1
  O  O44  1  0.60741300  0.58906500  0.16159500  1
  O  O45  1  0.10741300  0.91093500  0.33840500  1
  O  O46  1  0.89258700  0.58906500  0.83840500  1
  O  O47  1  0.39258700  0.91093500  0.66159500  1
loop_
_geom_bond_atom_site_label_1
_geom_bond_atom_site_label_2
_geom_bond_distance
_geom_bond_site_symmetry_2
Li0 O25 1.983683 1_555
Li0 O0 2.004923 1_555
Li0 O40 2.019507 1_555
Li0 O32 2.020935 1_555
Li1 O24 1.983683 1_555
Li1 O1 2.004923 1_555
Li1 O41 2.019507 1_555
Li1 O33 2.020935 1_555
Li2 O27 1.983683 1_555
Li2 O2 2.004923 1_555
Li2 O42 2.019507 1_555
Li2 O34 2.020935 1_555
Li3 O26 1.983683 1_555
Li3 O3 2.004923 1_555
Li3 O43 2.019507 1_555
Li3 O35 2.020935 1_555
Li4 O29 1.983683 1_555
Li4 O4 2.004923 1_555
Li4 O44 2.019507 1_555
Li4 O36 2.020935 1_555
Li5 O28 1.983683 1_555
Li5 O5 2.004923 1_555
Li5 O45 2.019507 1_555
Li5 O37 2.020935 1_555
Li6 O31 1.983683 1_555
Li6 O6 2.004923 1_555
Li6 O46 2.019507 1_555
Li6 O38 2.020935 1_555
Li7 O30 1.983683 1_555
Li7 O7 2.004923 1_555
Li7 O47 2.019507 1_555
Li7 O39 2.020935 1_555
Fe0 O16 2.062203 1_555
Fe0 O10 2.140001 1_555
Fe0 O41 2.152091 1_455
Fe0 O0 2.163876 1_555
Fe0 O33 2.172389 1_455
Fe0 O25 2.210160 1_555
Fe1 O17 2.062203 1_555
Fe1 O11 2.140001 1_556
Fe1 O40 2.152091 1_555
Fe1 O1 2.163876 1_555
Fe1 O32 2.172389 1_555
Fe1 O24 2.210160 1_555
Fe2 O18 2.062203 1_555
Fe2 O8 2.140001 1_555
Fe2 O43 2.152091 1_555
Fe2 O2 2.163876 1_555
Fe2 O35 2.172389 1_555
Fe2 O27 2.210160 1_555
Fe3 O19 2.062203 1_555
Fe3 O9 2.140001 1_554
Fe3 O42 2.152091 1_655
Fe3 O3 2.163876 1_555
Fe3 O34 2.172389 1_655
Fe3 O26 2.210160 1_555
Fe4 O20 2.062203 1_555
Fe4 O14 2.140001 1_555
Fe4 O45 2.152091 1_655
Fe4 O4 2.163876 1_555
Fe4 O37 2.172389 1_655
Fe4 O29 2.210160 1_555
Fe5 O21 2.062203 1_555
Fe5 O15 2.140001 1_554
Fe5 O44 2.152091 1_555
Fe5 O5 2.163876 1_555
Fe5 O36 2.172389 1_555
Fe5 O28 2.210160 1_555
Fe6 O22 2.062203 1_555
Fe6 O12 2.140001 1_555
Fe6 O47 2.152091 1_555
Fe6 O6 2.163876 1_555
Fe6 O39 2.172389 1_555
Fe6 O31 2.210160 1_555
Fe7 O23 2.062203 1_555
Fe7 O13 2.140001 1_556
Fe7 O46 2.152091 1_455
Fe7 O7 2.163876 1_555
Fe7 O38 2.172389 1_455
Fe7 O30 2.210160 1_555
Mo0 O8 1.768845 1_555
Mo0 O0 1.800946 1_555
Mo0 O24 1.804950 1_555
Mo0 O47 1.818208 1_545
Mo1 O9 1.768845 1_555
Mo1 O1 1.800946 1_555
Mo1 O25 1.804950 1_655
Mo1 O46 1.818208 1_555
Mo2 O10 1.768845 1_555
Mo2 O2 1.800946 1_555
Mo2 O26 1.804950 1_455
Mo2 O45 1.818208 1_545
Mo3 O11 1.768845 1_555
Mo3 O3 1.800946 1_555
Mo3 O27 1.804950 1_555
Mo3 O44 1.818208 1_555
Mo4 O12 1.768845 1_555
Mo4 O4 1.800946 1_555
Mo4 O28 1.804950 1_555
Mo4 O43 1.818208 1_565
Mo5 O13 1.768845 1_555
Mo5 O5 1.800946 1_555
Mo5 O29 1.804950 1_455
Mo5 O42 1.818208 1_555
Mo6 O14 1.768845 1_555
Mo6 O6 1.800946 1_555
Mo6 O30 1.804950 1_655
Mo6 O41 1.818208 1_565
Mo7 O15 1.768845 1_555
Mo7 O7 1.800946 1_555
Mo7 O31 1.804950 1_555
Mo7 O40 1.818208 1_555
Mo8 O21 1.781096 1_545
Mo8 O23 1.781096 1_544
Mo8 O34 1.810319 1_555
Mo8 O32 1.810319 1_554
Mo9 O20 1.781096 1_555
Mo9 O22 1.781096 1_555
Mo9 O33 1.810319 1_555
Mo9 O35 1.810319 1_555
Mo10 O19 1.781096 1_565
Mo10 O17 1.781096 1_564
Mo10 O36 1.810319 1_555
Mo10 O38 1.810319 1_554
Mo11 O18 1.781096 1_555
Mo11 O16 1.781096 1_555
Mo11 O39 1.810319 1_555
Mo11 O37 1.810319 1_555
