# generated using pymatgen
data_La2In
_symmetry_space_group_name_H-M   'P 1'
_cell_length_a   5.65376970
_cell_length_b   5.65376970
_cell_length_c   7.15689242
_cell_angle_alpha   89.99999671
_cell_angle_beta   90.00000329
_cell_angle_gamma   120.00004679
_symmetry_Int_Tables_number   1
_chemical_formula_structural   La2In
_chemical_formula_sum   'La4 In2'
_cell_volume   198.12128850
_cell_formula_units_Z   2
loop_
 _symmetry_equiv_pos_site_id
 _symmetry_equiv_pos_as_xyz
  1  'x, y, z'
loop_
 _atom_site_type_symbol
 _atom_site_label
 _atom_site_symmetry_multiplicity
 _atom_site_fract_x
 _atom_site_fract_y
 _atom_site_fract_z
 _atom_site_occupancy
  La  La0  1  -0.00000000  0.00000000  0.50000000  1
  La  La1  1  -0.00000000  0.00000000  -0.00000000  1
  La  La2  1  0.33333330  0.66666670  0.75005478  1
  La  La3  1  0.66666670  0.33333330  0.24994522  1
  In  In0  1  0.66666681  0.33333319  0.75002581  1
  In  In1  1  0.33333319  0.66666681  0.24997419  1
loop_
_geom_bond_atom_site_label_1
_geom_bond_atom_site_label_2
_geom_bond_distance
_geom_bond_site_symmetry_2
La0 La1 3.578446 1_555
La0 La1 3.578446 1_556
La0 La3 3.722600 1_445
La0 La2 3.722600 1_555
La0 La2 3.722600 1_445
La0 La3 3.722600 1_555
La0 La2 3.722601 1_545
La0 La3 3.722601 1_455
La1 La3 3.722223 1_445
La1 La3 3.722223 1_555
La1 La2 3.722223 1_444
La1 La2 3.722223 1_554
La1 La2 3.722225 1_544
La1 La3 3.722225 1_455
In0 La2 3.264203 1_545
In0 La2 3.264203 1_655
In0 La2 3.264208 1_555
In0 La3 3.577869 1_556
In0 La3 3.579023 1_555
In0 La1 3.722323 1_666
In0 La1 3.722323 1_556
In0 La1 3.722323 1_656
In0 La0 3.722501 1_665
In0 La0 3.722501 1_555
In0 La0 3.722501 1_655
In1 La3 3.264203 1_455
In1 La3 3.264203 1_565
In1 La3 3.264208 1_555
In1 La2 3.577869 1_554
In1 La2 3.579023 1_555
In1 La1 3.722323 1_665
In1 La1 3.722323 1_555
In1 La1 3.722323 1_565
In1 La0 3.722501 1_665
In1 La0 3.722501 1_555
In1 La0 3.722501 1_565
