# generated using pymatgen
data_Na5CaSiSn3P5O24
_symmetry_space_group_name_H-M   'P 1'
_cell_length_a   9.05719352
_cell_length_b   9.03604907
_cell_length_c   22.73670042
_cell_angle_alpha   89.98286664
_cell_angle_beta   89.91863694
_cell_angle_gamma   120.01303582
_symmetry_Int_Tables_number   1
_chemical_formula_structural   Na5CaSiSn3P5O24
_chemical_formula_sum   'Na15 Ca3 Si3 Sn9 P15 O72'
_cell_volume   1611.28551498
_cell_formula_units_Z   3
loop_
 _symmetry_equiv_pos_site_id
 _symmetry_equiv_pos_as_xyz
  1  'x, y, z'
loop_
 _atom_site_type_symbol
 _atom_site_label
 _atom_site_symmetry_multiplicity
 _atom_site_fract_x
 _atom_site_fract_y
 _atom_site_fract_z
 _atom_site_occupancy
  Na  Na0  1  0.64500982  0.01227044  0.24299250  1
  Na  Na1  1  0.36811718  0.35558635  0.24309102  1
  Na  Na2  1  0.98866712  0.63422585  0.24365556  1
  Na  Na3  1  0.63142305  0.62196471  0.74930042  1
  Na  Na4  1  0.99060816  0.36782212  0.74949799  1
  Na  Na5  1  0.37960604  0.01054525  0.74373069  1
  Na  Na6  1  0.65869796  0.97670213  0.58308768  1
  Na  Na7  1  0.33160932  0.30603780  0.92482286  1
  Na  Na8  1  0.32449241  0.03279171  0.41597348  1
  Na  Na9  1  0.00165026  0.00065385  0.49686987  1
  Na  Na10  1  0.98126810  0.98823289  0.00229683  1
  Na  Na11  1  0.68161662  0.33892326  0.84161556  1
  Na  Na12  1  0.67914617  0.34510267  0.33218102  1
  Na  Na13  1  0.33360357  0.66737645  0.15726299  1
  Na  Na14  1  0.32152237  0.66265979  0.65964593  1
  Ca  Ca0  1  0.99176481  0.99956488  0.35647275  1
  Ca  Ca1  1  0.66488430  0.33364298  0.67910297  1
  Ca  Ca2  1  0.66937824  0.33407001  0.17339931  1
  Si  Si0  1  0.36300019  0.02830552  0.58270770  1
  Si  Si1  1  0.62783282  0.66383029  0.91706568  1
  Si  Si2  1  0.03455559  0.37355272  0.91581165  1
  Sn  Sn0  1  0.99466583  0.99645082  0.85816752  1
  Sn  Sn1  1  0.00622892  0.99956381  0.64507432  1
  Sn  Sn2  1  0.99918761  0.00087374  0.14563973  1
  Sn  Sn3  1  0.67505339  0.33787816  0.98451182  1
  Sn  Sn4  1  0.66749308  0.33763718  0.48448578  1
  Sn  Sn5  1  0.33462116  0.66610786  0.01580504  1
  Sn  Sn6  1  0.32899368  0.66118435  0.51836844  1
  Sn  Sn7  1  0.33200046  0.66369894  0.31794864  1
  Sn  Sn8  1  0.33193444  0.66434093  0.82151802  1
  P  P0  1  0.29253714  0.99290463  0.25300905  1
  P  P1  1  0.70075173  0.70765570  0.25066327  1
  P  P2  1  0.00741376  0.29992931  0.25035776  1
  P  P3  1  0.28160247  0.29086290  0.75307911  1
  P  P4  1  0.01063067  0.71819510  0.75298021  1
  P  P5  1  0.70880140  0.99197941  0.75108425  1
  P  P6  1  0.96874163  0.33314810  0.58459362  1
  P  P7  1  0.66668696  0.63689026  0.58411436  1
  P  P8  1  0.97679548  0.64257097  0.08349631  1
  P  P9  1  0.66447957  0.02564816  0.08331939  1
  P  P10  1  0.35938054  0.33251813  0.08253029  1
  P  P11  1  0.33670671  0.96268117  0.91607951  1
  P  P12  1  0.62037888  0.96404084  0.42007968  1
  P  P13  1  0.34678942  0.38037623  0.41852259  1
  P  P14  1  0.03555675  0.65386982  0.41843254  1
  O  O0  1  0.22172771  0.01943808  0.31005624  1
  O  O1  1  0.80800840  0.78285138  0.30472585  1
  O  O2  1  0.97727914  0.19333742  0.30456240  1
  O  O3  1  0.19958183  0.18105344  0.80844765  1
  O  O4  1  0.98430526  0.80531782  0.80664682  1
  O  O5  1  0.82569043  0.01734543  0.80353576  1
  O  O6  1  0.78443180  0.96097855  0.69313461  1
  O  O7  1  0.16659335  0.20816589  0.69803445  1
  O  O8  1  0.04074854  0.82801631  0.69650314  1
  O  O9  1  0.78210168  0.82569640  0.19493945  1
  O  O10  1  0.04288787  0.21819217  0.19452822  1
  O  O11  1  0.17076901  0.95963957  0.19897761  1
  O  O12  1  0.90887475  0.36608535  0.64306481  1
  O  O13  1  0.46950955  0.09016400  0.64307204  1
  O  O14  1  0.63950213  0.54711254  0.64284539  1
  O  O15  1  0.91488206  0.55254529  0.14235778  1
  O  O16  1  0.64057575  0.08878584  0.14255191  1
  O  O17  1  0.45122588  0.35504606  0.14043000  1
  O  O18  1  0.45142203  0.30798511  0.02766071  1
  O  O19  1  0.85365039  0.54780933  0.03131551  1
  O  O20  1  0.69045372  0.14877613  0.03114207  1
  O  O21  1  0.45857032  0.15147090  0.52470803  1
  O  O22  1  0.70051136  0.54912812  0.53147396  1
  O  O23  1  0.84343389  0.30075010  0.53264463  1
  O  O24  1  0.53595921  0.70143326  0.97037725  1
  O  O25  1  0.17081553  0.46566075  0.96791661  1
  O  O26  1  0.30239605  0.84272275  0.96752012  1
  O  O27  1  0.52666167  0.85624940  0.47460694  1
  O  O28  1  0.32788055  0.47396830  0.47144269  1
  O  O29  1  0.15341534  0.67575486  0.47011757  1
  O  O30  1  0.11118976  0.62783215  0.35917931  1
  O  O31  1  0.50857681  0.88200598  0.36283011  1
  O  O32  1  0.36634655  0.48007777  0.35947438  1
  O  O33  1  0.10612640  0.48074163  0.85253094  1
  O  O34  1  0.36765137  0.89202683  0.85668453  1
  O  O35  1  0.51536990  0.62458514  0.85445819  1
  O  O36  1  0.02668352  0.81706477  0.41770779  1
  O  O37  1  0.79566595  0.98567412  0.41967928  1
  O  O38  1  0.19580250  0.19941978  0.41862638  1
  O  O39  1  0.03408592  0.19037594  0.91136697  1
  O  O40  1  0.17990152  0.98854027  0.91027294  1
  O  O41  1  0.81928200  0.82893535  0.91287218  1
  O  O42  1  0.96878701  0.15932327  0.58694808  1
  O  O43  1  0.17477109  0.01449716  0.58478971  1
  O  O44  1  0.82358817  0.82361644  0.58608351  1
  O  O45  1  0.99036746  0.82252951  0.08555305  1
  O  O46  1  0.82988135  0.01047636  0.08454170  1
  O  O47  1  0.17942849  0.16625416  0.08439476  1
  O  O48  1  0.68879124  0.15042354  0.74928478  1
  O  O49  1  0.46047888  0.31356922  0.74870615  1
  O  O50  1  0.85407136  0.53869670  0.74966579  1
  O  O51  1  0.66849005  0.52481911  0.24322353  1
  O  O52  1  0.85676516  0.33170569  0.24353772  1
  O  O53  1  0.47363699  0.14496626  0.24450413  1
  O  O54  1  0.63094284  0.48333801  0.92408113  1
  O  O55  1  0.84409263  0.34638016  0.92364275  1
  O  O56  1  0.49303899  0.14394081  0.92334334  1
  O  O57  1  0.62458957  0.14039880  0.42212190  1
  O  O58  1  0.51527179  0.37094275  0.42152735  1
  O  O59  1  0.85810277  0.48891943  0.42412342  1
  O  O60  1  0.33845449  0.49193761  0.07489186  1
  O  O61  1  0.15604864  0.66486453  0.07261844  1
  O  O62  1  0.50402919  0.84779382  0.07367760  1
  O  O63  1  0.34629737  0.83808870  0.57495413  1
  O  O64  1  0.51017112  0.66183796  0.57423417  1
  O  O65  1  0.15154009  0.48166452  0.57413197  1
  O  O66  1  0.30264793  0.82137008  0.25513732  1
  O  O67  1  0.52066829  0.69924716  0.25526777  1
  O  O68  1  0.17915249  0.48019082  0.25418233  1
  O  O69  1  0.29535363  0.47184735  0.75526598  1
  O  O70  1  0.17941866  0.70810084  0.75644242  1
  O  O71  1  0.52802204  0.82599770  0.75632130  1
loop_
_geom_bond_atom_site_label_1
_geom_bond_atom_site_label_2
_geom_bond_distance
_geom_bond_site_symmetry_2
Na0 O53 2.389518 1_555
Na0 O16 2.392063 1_555
Na0 O67 2.481640 1_545
Na0 O52 2.544015 1_555
Na0 O66 2.704310 1_545
Na0 O9 2.769308 1_545
Na0 O2 2.963252 1_555
Na0 O31 2.978246 1_545
Na1 O51 2.361761 1_555
Na1 O17 2.452282 1_555
Na1 O68 2.487416 1_555
Na1 O53 2.521140 1_555
Na1 O67 2.708898 1_555
Na1 O10 2.790878 1_555
Na1 O32 2.878823 1_555
Na2 O52 2.373339 1_555
Na2 O15 2.409965 1_555
Na2 O66 2.491266 1_655
Na2 O51 2.553230 1_555
Na2 O68 2.715580 1_655
Na2 O11 2.745949 1_655
Na2 O30 2.864664 1_655
Na2 O1 2.932918 1_555
Na3 O49 2.418004 1_555
Na3 O71 2.455334 1_555
Na3 O50 2.480057 1_555
Na3 O14 2.524149 1_555
Na3 O35 2.615301 1_555
Na3 O69 2.644165 1_555
Na4 O50 2.413189 1_555
Na4 O69 2.434078 1_655
Na4 O48 2.441226 1_555
Na4 O12 2.529397 1_555
Na4 O33 2.562052 1_655
Na4 O70 2.672906 1_655
Na4 O7 2.878745 1_655
Na4 O5 3.005041 1_555
Na5 O13 2.413753 1_555
Na5 O70 2.425019 1_545
Na5 O48 2.432217 1_555
Na5 O49 2.457789 1_555
Na5 O71 2.629267 1_545
Na5 O34 2.763301 1_545
Na5 O8 2.870395 1_545
Na6 O42 2.446026 1_565
Na6 O63 2.462758 1_555
Na6 O64 2.473291 1_555
Na6 O44 2.493073 1_555
Na6 O27 2.721438 1_555
Na6 O13 2.756631 1_565
Na6 O6 2.783399 1_555
Na6 O23 2.789289 1_565
Na7 O54 2.360475 1_555
Na7 O39 2.373297 1_555
Na7 O40 2.507277 1_545
Na7 O56 2.535065 1_555
Na7 O18 2.575495 1_556
Na7 O25 2.694355 1_555
Na7 O3 2.892473 1_555
Na7 O35 2.968497 1_555
Na8 O38 2.320495 1_555
Na8 O57 2.389556 1_555
Na8 O36 2.411753 1_545
Na8 O0 2.564084 1_555
Na8 O58 2.656513 1_555
Na8 O21 2.728393 1_555
Na8 O31 2.892080 1_545
Na9 O43 2.506612 1_555
Na9 O38 2.512475 1_555
Na9 O37 2.517137 1_445
Na9 O36 2.533754 1_545
Na9 O44 2.585026 1_445
Na9 O42 2.601115 1_455
Na10 O46 2.384507 1_565
Na10 O45 2.440133 1_555
Na10 O41 2.501195 1_554
Na10 O47 2.533033 1_665
Na10 O39 2.638246 1_664
Na10 O40 2.756581 1_654
Na11 O55 2.357346 1_555
Na11 O54 2.455054 1_555
Na11 O56 2.540271 1_555
Na11 O50 2.690138 1_555
Na11 O48 2.724877 1_555
Na11 O49 2.842493 1_555
Na12 O59 2.567110 1_555
Na12 O58 2.592809 1_555
Na12 O52 2.617344 1_555
Na12 O51 2.625404 1_555
Na12 O57 2.632104 1_555
Na12 O53 2.711874 1_555
Na13 O60 2.468563 1_555
Na13 O62 2.474774 1_555
Na13 O61 2.502560 1_555
Na13 O68 2.701062 1_555
Na13 O66 2.712447 1_555
Na13 O67 2.727976 1_555
Na14 O63 2.431511 1_555
Na14 O65 2.513337 1_555
Na14 O64 2.587284 1_555
Na14 O70 2.681412 1_555
Na14 O69 2.709820 1_555
Na14 O71 2.785688 1_555
Ca0 O2 2.169113 1_565
Ca0 O1 2.176107 1_555
Ca0 O37 2.237232 1_555
Ca0 O0 2.259123 1_665
Ca0 O36 2.297731 1_655
Ca0 O38 2.311658 1_665
Ca1 O13 2.180210 1_555
Ca1 O14 2.212779 1_555
Ca1 O12 2.233269 1_555
Ca1 O49 2.370734 1_555
Ca1 O48 2.385817 1_555
Ca1 O50 2.403468 1_555
Ca2 O17 2.209207 1_555
Ca2 O16 2.212561 1_555
Ca2 O15 2.223286 1_555
Ca2 O52 2.338376 1_555
Ca2 O51 2.346653 1_555
Ca2 O53 2.374067 1_555
O0 P0 1.517505 1_545
O1 P1 1.503294 1_555
O2 P2 1.502143 1_655
O3 P3 1.542864 1_555
O3 Sn0 2.097818 1_445
O4 P4 1.533958 1_655
O4 Sn0 2.050178 1_555
O5 P5 1.535116 1_545
O5 Sn0 2.053085 1_545
O6 P5 1.572685 1_555
O6 Sn1 2.154994 1_655
O7 P3 1.560561 1_555
O7 Sn1 2.092850 1_545
O8 P4 1.560618 1_555
O8 Sn1 2.086312 1_555
O9 P1 1.579914 1_555
O9 Sn2 2.122994 1_565
O10 P2 1.580144 1_555
O10 Sn2 2.115032 1_455
O11 P0 1.577442 1_555
O11 Sn2 2.146842 1_465
O12 P6 1.519749 1_555
O13 Si0 1.609827 1_555
O14 P7 1.516735 1_555
O15 P8 1.519262 1_555
O16 P9 1.519638 1_555
O17 P10 1.516685 1_555
O18 P10 1.575617 1_555
O18 Sn3 2.141228 1_554
O19 P8 1.560046 1_555
O19 Sn3 2.069746 1_554
O20 P9 1.561147 1_555
O20 Sn3 2.073901 1_554
O21 Si0 1.661038 1_555
O21 Sn4 2.014086 1_555
O22 P7 1.548484 1_555
O22 Sn4 2.076849 1_555
O23 P6 1.562218 1_555
O23 Sn4 2.094157 1_555
O24 Si1 1.599175 1_555
O24 Sn5 1.976419 1_556
O25 Si2 1.611358 1_555
O25 Sn5 1.996195 1_556
O26 P11 1.516802 1_555
O26 Sn5 2.074410 1_556
O27 P12 1.541240 1_555
O27 Sn6 2.034470 1_555
O28 P13 1.528796 1_555
O28 Sn6 1.996079 1_555
O29 P14 1.533652 1_555
O29 Sn6 1.991004 1_555
O30 P14 1.580640 1_555
O30 Sn7 2.080775 1_555
O31 P12 1.588272 1_555
O31 Sn7 2.083296 1_555
O32 P13 1.576211 1_555
O32 Sn7 2.063354 1_555
O33 Si2 1.672384 1_555
O33 Sn8 2.008283 1_555
O34 P11 1.577436 1_555
O34 Sn8 2.076700 1_555
O35 Si1 1.683056 1_555
O35 Sn8 2.012637 1_555
O36 P14 1.516520 1_555
O37 P12 1.499429 1_555
O38 P13 1.518816 1_555
O39 Si2 1.656187 1_555
O39 Sn0 2.009423 1_445
O40 P11 1.556129 1_555
O40 Sn0 2.085409 1_455
O41 Si1 1.628823 1_555
O41 Sn0 1.987313 1_555
O42 P6 1.571791 1_555
O42 Sn1 2.106054 1_645
O43 Si0 1.646576 1_555
O43 Sn1 2.003770 1_545
O44 P7 1.571588 1_555
O44 Sn1 2.107043 1_655
O45 P8 1.568961 1_555
O45 Sn2 2.083907 1_565
O46 P9 1.571423 1_555
O46 Sn2 2.104243 1_555
O47 P10 1.570192 1_555
O47 Sn2 2.095003 1_455
O48 P5 1.530972 1_545
O49 P3 1.530933 1_555
O50 P4 1.531883 1_655
O51 P1 1.536510 1_555
O52 P2 1.536467 1_655
O53 P0 1.536259 1_545
O54 Si1 1.652879 1_555
O54 Sn3 2.073857 1_555
O55 Si2 1.625791 1_655
O55 Sn3 2.035075 1_555
O56 P11 1.547759 1_545
O56 Sn3 2.200184 1_555
O57 P12 1.575549 1_545
O57 Sn4 2.155982 1_555
O58 P13 1.571929 1_555
O58 Sn4 2.112086 1_555
O59 P14 1.557017 1_655
O59 Sn4 2.089005 1_555
O60 P10 1.553790 1_555
O60 Sn5 2.082414 1_555
O61 P8 1.552176 1_455
O61 Sn5 2.064097 1_555
O62 P9 1.551585 1_565
O62 Sn5 2.065906 1_555
O63 Si0 1.657830 1_565
O63 Sn6 1.996563 1_555
O64 P7 1.559302 1_555
O64 Sn6 2.074229 1_555
O65 P6 1.540986 1_455
O65 Sn6 2.051064 1_555
O66 P0 1.598492 1_555
O66 Sn7 2.125753 1_555
O67 P1 1.597684 1_555
O67 Sn7 2.120837 1_555
O68 P2 1.595634 1_555
O68 Sn7 2.116314 1_555
O69 P3 1.577584 1_555
O69 Sn8 2.197905 1_555
O70 P4 1.578421 1_555
O70 Sn8 2.192176 1_555
O71 P5 1.577086 1_555
O71 Sn8 2.209357 1_555
