# generated using pymatgen
data_K3YbMgV2O8
_symmetry_space_group_name_H-M   'P 1'
_cell_length_a   5.97394397
_cell_length_b   5.97351630
_cell_length_c   8.28736455
_cell_angle_alpha   86.11754494
_cell_angle_beta   93.88892298
_cell_angle_gamma   119.59716699
_symmetry_Int_Tables_number   1
_chemical_formula_structural   K3YbMgV2O8
_chemical_formula_sum   'K3 Yb1 Mg1 V2 O8'
_cell_volume   256.35851627
_cell_formula_units_Z   1
loop_
 _symmetry_equiv_pos_site_id
 _symmetry_equiv_pos_as_xyz
  1  'x, y, z'
loop_
 _atom_site_type_symbol
 _atom_site_label
 _atom_site_symmetry_multiplicity
 _atom_site_fract_x
 _atom_site_fract_y
 _atom_site_fract_z
 _atom_site_occupancy
  K  K0  1  0.69305626  0.30684893  0.24207048  1
  K  K1  1  0.30694374  0.69315107  0.75792952  1
  K  K2  1  0.00000000  0.00000000  0.00000000  1
  Yb  Yb0  1  0.00000000  0.00000000  0.50000000  1
  Mg  Mg0  1  0.50000000  0.50000000  0.50000000  1
  V  V0  1  0.70198180  0.29816048  0.74135429  1
  V  V1  1  0.29801820  0.70183952  0.25864571  1
  O  O0  1  0.67050541  0.32953407  0.93803820  1
  O  O1  1  0.32949459  0.67046593  0.06196180  1
  O  O2  1  0.82902376  0.61637549  0.62228634  1
  O  O3  1  0.38361442  0.17099059  0.62226447  1
  O  O4  1  0.86679729  0.13326707  0.70184548  1
  O  O5  1  0.17097624  0.38362451  0.37771366  1
  O  O6  1  0.61638558  0.82900941  0.37773553  1
  O  O7  1  0.13320271  0.86673293  0.29815452  1
loop_
_geom_bond_atom_site_label_1
_geom_bond_atom_site_label_2
_geom_bond_distance
_geom_bond_site_symmetry_2
K0 O0 2.512127 1_554
K0 O6 2.822266 1_545
K0 O5 2.822491 1_655
K0 O7 3.110207 1_655
K0 O7 3.110233 1_545
K1 O1 2.512127 1_556
K1 O3 2.822266 1_565
K1 O2 2.822491 1_455
K1 O4 3.110207 1_455
K1 O4 3.110233 1_565
K2 O7 2.732220 1_545
K2 O4 2.732220 1_454
Mg0 O6 1.961826 1_555
Mg0 O3 1.961826 1_555
Mg0 O2 1.961948 1_555
Mg0 O5 1.961948 1_555
O0 V0 1.686744 1_555
O1 V1 1.686744 1_555
O2 V0 1.893542 1_555
O2 Yb0 2.198982 1_665
O3 V0 1.894237 1_555
O3 Yb0 2.198814 1_555
O4 V0 1.758478 1_555
O4 Yb0 2.247604 1_655
O5 V1 1.893542 1_555
O5 Yb0 2.198982 1_555
O6 V1 1.894237 1_555
O6 Yb0 2.198814 1_665
O7 V1 1.758478 1_555
O7 Yb0 2.247604 1_565
