# generated using pymatgen
data_Mn2Co3Ge
_symmetry_space_group_name_H-M   'P 1'
_cell_length_a   4.79742172
_cell_length_b   4.79742172
_cell_length_c   7.61269200
_cell_angle_alpha   90.00000000
_cell_angle_beta   90.00000000
_cell_angle_gamma   119.99999612
_symmetry_Int_Tables_number   1
_chemical_formula_structural   Mn2Co3Ge
_chemical_formula_sum   'Mn4 Co6 Ge2'
_cell_volume   151.73462709
_cell_formula_units_Z   2
loop_
 _symmetry_equiv_pos_site_id
 _symmetry_equiv_pos_as_xyz
  1  'x, y, z'
loop_
 _atom_site_type_symbol
 _atom_site_label
 _atom_site_symmetry_multiplicity
 _atom_site_fract_x
 _atom_site_fract_y
 _atom_site_fract_z
 _atom_site_occupancy
  Mn  Mn0  1  0.33333300  0.66666700  0.06509000  1
  Mn  Mn1  1  0.33333300  0.66666700  0.43491000  1
  Mn  Mn2  1  0.66666700  0.33333300  0.93491000  1
  Mn  Mn3  1  0.66666700  0.33333300  0.56509000  1
  Co  Co0  1  0.82654000  0.65308000  0.25000000  1
  Co  Co1  1  0.17346000  0.34692000  0.75000000  1
  Co  Co2  1  0.65308000  0.82654000  0.75000000  1
  Co  Co3  1  0.34692000  0.17346000  0.25000000  1
  Co  Co4  1  0.17346000  0.82654000  0.75000000  1
  Co  Co5  1  0.82654000  0.17346000  0.25000000  1
  Ge  Ge0  1  0.00000000  0.00000000  0.00000000  1
  Ge  Ge1  1  0.00000000  0.00000000  0.50000000  1
loop_
_geom_bond_atom_site_label_1
_geom_bond_atom_site_label_2
_geom_bond_distance
_geom_bond_site_symmetry_2
Mn0 Mn1 2.815326 1_555
Mn0 Mn2 2.941744 1_454
Mn0 Mn2 2.941744 1_564
Mn0 Mn2 2.941752 1_554
Mn1 Mn3 2.941744 1_455
Mn1 Mn3 2.941744 1_565
Mn1 Mn3 2.941752 1_555
Mn2 Mn3 2.815326 1_555
Co0 Co5 2.300939 1_555
Co0 Co3 2.300940 1_555
Co0 Ge1 2.387371 1_665
Co0 Ge0 2.387371 1_665
Co0 Co5 2.496482 1_565
Co0 Co3 2.496482 1_665
Co0 Mn3 2.741981 1_555
Co0 Mn2 2.741981 1_554
Co0 Mn0 2.781817 1_655
Co0 Mn1 2.781817 1_655
Co0 Mn0 2.781821 1_555
Co0 Mn1 2.781821 1_555
Co1 Co4 2.300939 1_555
Co1 Co2 2.300940 1_555
Co1 Ge1 2.387371 1_555
Co1 Ge0 2.387371 1_556
Co1 Co4 2.496482 1_545
Co1 Co2 2.496482 1_445
Co1 Mn1 2.741981 1_555
Co1 Mn0 2.741981 1_556
Co1 Mn2 2.781817 1_455
Co1 Mn3 2.781817 1_455
Co1 Mn2 2.781821 1_555
Co1 Mn3 2.781821 1_555
Co2 Co4 2.300939 1_555
Co2 Ge0 2.387371 1_666
Co2 Ge1 2.387371 1_665
Co2 Co4 2.496482 1_655
Co2 Mn1 2.741981 1_555
Co2 Mn0 2.741981 1_556
Co2 Mn3 2.781817 1_565
Co2 Mn2 2.781817 1_565
Co2 Mn2 2.781821 1_555
Co2 Mn3 2.781821 1_555
Co3 Co5 2.300939 1_555
Co3 Ge1 2.387371 1_555
Co3 Ge0 2.387371 1_555
Co3 Co5 2.496482 1_455
Co3 Mn2 2.741981 1_554
Co3 Mn3 2.741981 1_555
Co3 Mn1 2.781817 1_545
Co3 Mn0 2.781817 1_545
Co3 Mn0 2.781821 1_555
Co3 Mn1 2.781821 1_555
Co4 Ge0 2.387371 1_566
Co4 Ge1 2.387371 1_565
Co4 Mn1 2.741979 1_555
Co4 Mn0 2.741979 1_556
Co4 Mn3 2.781819 1_565
Co4 Mn2 2.781819 1_565
Co4 Mn2 2.781819 1_455
Co4 Mn3 2.781819 1_455
Co5 Ge1 2.387371 1_655
Co5 Ge0 2.387371 1_655
Co5 Mn2 2.741979 1_554
Co5 Mn3 2.741979 1_555
Co5 Mn0 2.781819 1_545
Co5 Mn1 2.781819 1_655
Co5 Mn0 2.781819 1_655
Co5 Mn1 2.781819 1_545
Ge0 Mn0 2.813764 1_545
Ge0 Mn2 2.813764 1_454
Ge0 Mn0 2.813768 1_555
Ge0 Mn0 2.813768 1_445
Ge0 Mn2 2.813768 1_554
Ge0 Mn2 2.813768 1_444
Ge1 Mn1 2.813764 1_545
Ge1 Mn3 2.813764 1_455
Ge1 Mn1 2.813768 1_555
Ge1 Mn1 2.813768 1_445
Ge1 Mn3 2.813768 1_555
Ge1 Mn3 2.813768 1_445
