# generated using pymatgen
data_MgMn2(SO5)2
_symmetry_space_group_name_H-M   'P 1'
_cell_length_a   5.60711401
_cell_length_b   5.28700837
_cell_length_c   7.62454030
_cell_angle_alpha   68.91779847
_cell_angle_beta   114.16986238
_cell_angle_gamma   84.54228026
_symmetry_Int_Tables_number   1
_chemical_formula_structural   MgMn2(SO5)2
_chemical_formula_sum   'Mg1 Mn2 S2 O10'
_cell_volume   184.44599681
_cell_formula_units_Z   1
loop_
 _symmetry_equiv_pos_site_id
 _symmetry_equiv_pos_as_xyz
  1  'x, y, z'
loop_
 _atom_site_type_symbol
 _atom_site_label
 _atom_site_symmetry_multiplicity
 _atom_site_fract_x
 _atom_site_fract_y
 _atom_site_fract_z
 _atom_site_occupancy
  Mg  Mg0  1  0.59483400  0.52698600  0.70756800  1
  Mn  Mn0  1  0.00511500  0.50110100  0.49547400  1
  Mn  Mn1  1  0.50584400  0.99437900  0.01837000  1
  S  S0  1  0.88797600  0.91082100  0.75850800  1
  S  S1  1  0.13155200  0.09309200  0.25517300  1
  O  O0  1  0.33412100  0.33485300  0.76006700  1
  O  O1  1  0.67536300  0.65555700  0.25530000  1
  O  O2  1  0.17947800  0.81330600  0.90968800  1
  O  O3  1  0.79361800  0.22951300  0.64653000  1
  O  O4  1  0.84361600  0.16480700  0.08175000  1
  O  O5  1  0.22624700  0.77771800  0.40370400  1
  O  O6  1  0.82702900  0.78829300  0.59978200  1
  O  O7  1  0.71514600  0.80454200  0.86012800  1
  O  O8  1  0.14856000  0.24274500  0.38639400  1
  O  O9  1  0.30650000  0.16228700  0.15620500  1
loop_
_geom_bond_atom_site_label_1
_geom_bond_atom_site_label_2
_geom_bond_distance
_geom_bond_site_symmetry_2
Mg0 O0 1.948901 1_555
Mg0 O3 2.133149 1_555
Mg0 O6 2.163470 1_555
Mg0 O7 2.176057 1_555
Mg0 O5 2.178211 1_555
Mg0 O4 2.460633 1_556
Mn0 O1 1.817474 1_455
Mn0 O0 1.901037 1_555
Mn0 O8 2.088169 1_555
Mn0 O5 2.117784 1_555
Mn0 O3 2.246602 1_455
Mn0 O6 2.272828 1_455
Mn1 O1 1.821471 1_555
Mn1 O0 1.900822 1_564
Mn1 O4 2.126214 1_565
Mn1 O9 2.141544 1_565
Mn1 O2 2.148055 1_554
Mn1 O7 2.376333 1_554
O2 S0 1.461292 1_455
O3 S0 1.507795 1_545
O4 S1 1.507801 1_655
O5 S1 1.524907 1_565
O6 S0 1.506155 1_555
O7 S0 1.503462 1_555
O8 S1 1.463501 1_555
O9 S1 1.463326 1_555
