# generated using pymatgen
data_Na14Hf8Si11SO48
_symmetry_space_group_name_H-M   'P 1'
_cell_length_a   18.35669480
_cell_length_b   9.18422227
_cell_length_c   22.89139705
_cell_angle_alpha   90.01572815
_cell_angle_beta   90.01073248
_cell_angle_gamma   119.99876973
_symmetry_Int_Tables_number   1
_chemical_formula_structural   Na14Hf8Si11SO48
_chemical_formula_sum   'Na42 Hf24 Si33 S3 O144'
_cell_volume   3342.29777692
_cell_formula_units_Z   3
loop_
 _symmetry_equiv_pos_site_id
 _symmetry_equiv_pos_as_xyz
  1  'x, y, z'
loop_
 _atom_site_type_symbol
 _atom_site_label
 _atom_site_symmetry_multiplicity
 _atom_site_fract_x
 _atom_site_fract_y
 _atom_site_fract_z
 _atom_site_occupancy
  Na  Na0  1  0.32068915  -0.00001071  0.24998336  1
  Na  Na1  1  0.82061664  0.00001170  0.25001942  1
  Na  Na2  1  0.32040189  0.64186579  0.75056706  1
  Na  Na3  1  0.81725829  0.63313295  0.74949721  1
  Na  Na4  1  0.50051126  0.36419986  0.75084661  1
  Na  Na5  1  0.68408876  0.00210250  0.74947441  1
  Na  Na6  1  0.15094935  0.33494996  0.58106127  1
  Na  Na7  1  0.65075155  0.33290419  0.58391481  1
  Na  Na8  1  0.01621216  0.69508943  0.58360297  1
  Na  Na9  1  0.51690694  0.70116049  0.58301233  1
  Na  Na10  1  0.33309174  0.96594223  0.58359460  1
  Na  Na11  1  0.83221786  0.96943892  0.58344709  1
  Na  Na12  1  0.15129085  0.96815924  0.08165992  1
  Na  Na13  1  0.65122122  0.96869467  0.08158476  1
  Na  Na14  1  0.33212614  0.69624784  0.08352162  1
  Na  Na15  1  0.83206869  0.69583301  0.08377419  1
  Na  Na16  1  0.01688633  0.33665152  0.08346676  1
  Na  Na17  1  0.51675255  0.33610347  0.08355791  1
  Na  Na18  1  0.48333298  0.66686662  0.91651013  1
  Na  Na19  1  0.98420648  0.66329102  0.91655013  1
  Na  Na20  1  0.34964015  0.03220510  0.91650196  1
  Na  Na21  1  0.84862785  0.03427666  0.91654085  1
  Na  Na22  1  0.16735563  0.30407934  0.91891510  1
  Na  Na23  1  0.66644420  0.29922744  0.91641324  1
  Na  Na24  1  0.48412182  0.30395421  0.41626615  1
  Na  Na25  1  0.98397796  0.30407732  0.41647158  1
  Na  Na26  1  0.16700068  0.03130409  0.41834101  1
  Na  Na27  1  0.66698583  0.03171719  0.41854441  1
  Na  Na28  1  0.34868491  0.66392543  0.41638406  1
  Na  Na29  1  0.84859266  0.66328061  0.41640927  1
  Na  Na30  1  0.00073515  0.00072178  0.49979130  1
  Na  Na31  1  0.50060642  0.99950197  0.50089139  1
  Na  Na32  1  0.00111577  0.00170557  0.00030119  1
  Na  Na33  1  0.50038714  0.00000713  0.99902249  1
  Na  Na34  1  0.33366970  0.32779463  0.83421664  1
  Na  Na35  1  0.83722956  0.33418616  0.83131969  1
  Na  Na36  1  0.33770945  0.34674676  0.33194053  1
  Na  Na37  1  0.83764112  0.34672184  0.33210378  1
  Na  Na38  1  0.16431556  0.65333943  0.16789396  1
  Na  Na39  1  0.66431477  0.65323228  0.16804935  1
  Na  Na40  1  0.16388225  0.67471053  0.66775147  1
  Na  Na41  1  0.66711848  0.66728895  0.66679725  1
  Hf  Hf0  1  0.99434726  0.99666748  0.35246630  1
  Hf  Hf1  1  0.49439522  0.99677387  0.35254880  1
  Hf  Hf2  1  0.99495460  0.99186451  0.85293924  1
  Hf  Hf3  1  0.49935155  0.00007893  0.85124984  1
  Hf  Hf4  1  0.99611711  0.98866447  0.64697566  1
  Hf  Hf5  1  0.49974971  -0.00017874  0.64881955  1
  Hf  Hf6  1  0.99602587  0.00328292  0.14754341  1
  Hf  Hf7  1  0.49600994  0.00337271  0.14745730  1
  Hf  Hf8  1  0.33522984  0.32861445  0.68360899  1
  Hf  Hf9  1  0.83690393  0.33514624  0.68681428  1
  Hf  Hf10  1  0.33883007  0.34756307  0.18532925  1
  Hf  Hf11  1  0.83882596  0.34765603  0.18531483  1
  Hf  Hf12  1  0.33354200  0.33489572  0.98191367  1
  Hf  Hf13  1  0.83331761  0.33337171  0.98178993  1
  Hf  Hf14  1  0.33355055  0.33367510  0.48146019  1
  Hf  Hf15  1  0.83401019  0.33282941  0.48180021  1
  Hf  Hf16  1  0.16687053  0.66588843  0.01824401  1
  Hf  Hf17  1  0.66682576  0.66645970  0.01849969  1
  Hf  Hf18  1  0.16646096  0.66639910  0.51821583  1
  Hf  Hf19  1  0.66646251  0.66704818  0.51811636  1
  Hf  Hf20  1  0.16498494  0.65248869  0.31467509  1
  Hf  Hf21  1  0.66498720  0.65229043  0.31471524  1
  Hf  Hf22  1  0.16479149  0.67692436  0.81535986  1
  Hf  Hf23  1  0.66693267  0.66731024  0.81443481  1
  Si  Si0  1  0.35195486  0.70337014  0.25014071  1
  Si  Si1  1  0.85189409  0.70329400  0.25013381  1
  Si  Si2  1  0.00026502  0.29662413  0.24985551  1
  Si  Si3  1  0.50027730  0.29658720  0.24985741  1
  Si  Si4  1  0.64689184  0.29325155  0.74999447  1
  Si  Si5  1  0.00184311  0.70626810  0.74974747  1
  Si  Si6  1  0.49875857  0.70506369  0.75003242  1
  Si  Si7  1  0.35140574  0.99810097  0.74994654  1
  Si  Si8  1  0.85385148  0.00275198  0.75020046  1
  Si  Si9  1  0.48051053  0.33318623  0.58269767  1
  Si  Si10  1  0.98035606  0.33384424  0.58322427  1
  Si  Si11  1  0.18706914  0.04111211  0.58282536  1
  Si  Si12  1  0.68729680  0.04162772  0.58384385  1
  Si  Si13  1  0.33292107  0.62504166  0.58424376  1
  Si  Si14  1  0.83215662  0.62287731  0.58364686  1
  Si  Si15  1  0.48086903  0.62831276  0.08266222  1
  Si  Si16  1  0.98086071  0.62817808  0.08250574  1
  Si  Si17  1  0.33193972  0.04219684  0.08446452  1
  Si  Si18  1  0.83199765  0.04210286  0.08458612  1
  Si  Si19  1  0.18751616  0.33238146  0.08364120  1
  Si  Si20  1  0.68756710  0.33232330  0.08358989  1
  Si  Si21  1  0.31210706  0.66573380  0.91525216  1
  Si  Si22  1  0.81223302  0.66462261  0.91677541  1
  Si  Si23  1  0.02101297  0.37467367  0.91652890  1
  Si  Si24  1  0.52022994  0.37385686  0.91651616  1
  Si  Si25  1  0.16705484  0.96161431  0.91776866  1
  Si  Si26  1  0.66651893  0.95970835  0.91666770  1
  Si  Si27  1  0.31094557  0.95788457  0.41548701  1
  Si  Si28  1  0.81095314  0.95797022  0.41541343  1
  Si  Si29  1  0.16671379  0.37196351  0.41739785  1
  Si  Si30  1  0.66680293  0.37198899  0.41761257  1
  Si  Si31  1  0.02131827  0.66764106  0.41637428  1
  Si  Si32  1  0.52129215  0.66765535  0.41628887  1
  S  S0  1  0.14593931  0.00002056  0.25002005  1
  S  S1  1  0.64589606  -0.00002611  0.25000092  1
  S  S2  1  0.14614337  0.29240101  0.74996410  1
  O  O0  1  0.10508918  0.02281518  0.30293341  1
  O  O1  1  0.60510655  0.02281661  0.30291975  1
  O  O2  1  0.41101679  0.79569480  0.30790625  1
  O  O3  1  0.91101909  0.79571592  0.30788364  1
  O  O4  1  0.48610684  0.17460580  0.30696498  1
  O  O5  1  0.98613518  0.17457316  0.30696088  1
  O  O6  1  0.10557606  0.18754921  0.80295854  1
  O  O7  1  0.60253273  0.17304097  0.80727067  1
  O  O8  1  0.48269095  0.79281598  0.80729329  1
  O  O9  1  0.98709128  0.79910619  0.80699241  1
  O  O10  1  0.41246548  0.03301723  0.80731622  1
  O  O11  1  0.91197590  0.02703515  0.80797435  1
  O  O12  1  0.39673180  0.96901072  0.69242745  1
  O  O13  1  0.89887957  0.97083363  0.69314478  1
  O  O14  1  0.09392374  0.21018726  0.69693658  1
  O  O15  1  0.58622782  0.20626835  0.69275913  1
  O  O16  1  0.01433142  0.82441687  0.69207050  1
  O  O17  1  0.51554150  0.82502142  0.69266196  1
  O  O18  1  0.39879682  0.82533672  0.19302299  1
  O  O19  1  0.89877846  0.82532570  0.19301632  1
  O  O20  1  0.01313854  0.20414614  0.19211975  1
  O  O21  1  0.51314376  0.20422629  0.19211756  1
  O  O22  1  0.09366327  0.97719045  0.19707218  1
  O  O23  1  0.59369459  0.97718224  0.19707400  1
  O  O24  1  0.43686678  0.36690488  0.64013225  1
  O  O25  1  0.93485359  0.36885533  0.63796427  1
  O  O26  1  0.24938652  0.13278240  0.63822641  1
  O  O27  1  0.74733930  0.12832062  0.64070628  1
  O  O28  1  0.31607518  0.50463641  0.64159805  1
  O  O29  1  0.81611712  0.50567220  0.64079769  1
  O  O30  1  0.43599920  0.50199107  0.13784799  1
  O  O31  1  0.93589501  0.50213256  0.13776305  1
  O  O32  1  0.31539488  0.12723364  0.14168269  1
  O  O33  1  0.81542844  0.12724758  0.14173337  1
  O  O34  1  0.25034377  0.36557662  0.13835488  1
  O  O35  1  0.75037511  0.36571358  0.13838655  1
  O  O36  1  0.22857799  0.29825101  0.02485564  1
  O  O37  1  0.72897873  0.29863154  0.02492207  1
  O  O38  1  0.42074130  0.54502842  0.02505982  1
  O  O39  1  0.92065574  0.54491970  0.02492915  1
  O  O40  1  0.35028035  0.16163851  0.02659629  1
  O  O41  1  0.85042739  0.16119427  0.02664192  1
  O  O42  1  0.22874570  0.15893071  0.52478386  1
  O  O43  1  0.73029817  0.16023012  0.52585612  1
  O  O44  1  0.34945052  0.53799708  0.52679071  1
  O  O45  1  0.85064195  0.54057279  0.52588528  1
  O  O46  1  0.41998484  0.29988743  0.52586742  1
  O  O47  1  0.92102039  0.29646252  0.52497095  1
  O  O48  1  0.26918368  0.69929373  0.97316621  1
  O  O49  1  0.77080028  0.70140450  0.97416003  1
  O  O50  1  0.07942439  0.45735684  0.97507782  1
  O  O51  1  0.58016423  0.46063929  0.97394178  1
  O  O52  1  0.14822121  0.84106802  0.97520996  1
  O  O53  1  0.65026897  0.84000875  0.97411470  1
  O  O54  1  0.26975985  0.83862070  0.47341246  1
  O  O55  1  0.76981845  0.83888701  0.47334565  1
  O  O56  1  0.14832552  0.45524348  0.47504521  1
  O  O57  1  0.64823551  0.45555153  0.47509735  1
  O  O58  1  0.07960185  0.70172858  0.47508718  1
  O  O59  1  0.57949298  0.70140947  0.47499230  1
  O  O60  1  0.06752777  0.63447242  0.36164806  1
  O  O61  1  0.56743638  0.63418149  0.36157848  1
  O  O62  1  0.25178380  0.87276404  0.35829621  1
  O  O63  1  0.75184103  0.87273677  0.35823993  1
  O  O64  1  0.18489414  0.49804306  0.36216126  1
  O  O65  1  0.68493166  0.49802614  0.36227874  1
  O  O66  1  0.06697185  0.49993867  0.86164737  1
  O  O67  1  0.56374194  0.49377451  0.85933025  1
  O  O68  1  0.18482600  0.87198579  0.86229282  1
  O  O69  1  0.68327433  0.87280697  0.85944718  1
  O  O70  1  0.25195269  0.63073412  0.85811682  1
  O  O71  1  0.75334947  0.63368521  0.85943550  1
  O  O72  1  0.01312159  0.83749559  0.40940493  1
  O  O73  1  0.51308880  0.83736159  0.40932771  1
  O  O74  1  0.40551053  0.97692643  0.41036277  1
  O  O75  1  0.90559736  0.97704959  0.41041133  1
  O  O76  1  0.08358514  0.18487222  0.40901942  1
  O  O77  1  0.58369008  0.18509656  0.40894577  1
  O  O78  1  0.01319936  0.18878293  0.90935744  1
  O  O79  1  0.51120045  0.18724913  0.91102513  1
  O  O80  1  0.08391360  0.98272170  0.90915475  1
  O  O81  1  0.58205898  0.97721046  0.91096797  1
  O  O82  1  0.40570028  0.83483559  0.91045939  1
  O  O83  1  0.90636730  0.83475445  0.91092826  1
  O  O84  1  0.48859025  0.16422015  0.58882609  1
  O  O85  1  0.99130658  0.16758101  0.59133828  1
  O  O86  1  0.09439377  0.02617852  0.59027558  1
  O  O87  1  0.59350744  0.02258392  0.58908714  1
  O  O88  1  0.41734986  0.81162220  0.58948568  1
  O  O89  1  0.91729405  0.81201345  0.58909700  1
  O  O90  1  0.49120280  0.81508398  0.09112973  1
  O  O91  1  0.99114004  0.81510693  0.09102351  1
  O  O92  1  0.41697363  0.02308408  0.08962880  1
  O  O93  1  0.91710056  0.02299722  0.08958612  1
  O  O94  1  0.09432744  0.16251724  0.09055296  1
  O  O95  1  0.59444658  0.16262884  0.09062367  1
  O  O96  1  0.34612867  0.17119872  0.74396496  1
  O  O97  1  0.83982102  0.16329863  0.74500738  1
  O  O98  1  0.23094996  0.31079102  0.74484755  1
  O  O99  1  0.73949504  0.31090579  0.74435918  1
  O  O100  1  0.41294878  0.51914911  0.74449826  1
  O  O101  1  0.91331859  0.52757663  0.74432574  1
  O  O102  1  0.34157286  0.51711035  0.24464838  1
  O  O103  1  0.84159716  0.51716316  0.24466813  1
  O  O104  1  0.41048845  0.29602532  0.24455840  1
  O  O105  1  0.91048754  0.29598969  0.24454588  1
  O  O106  1  0.23058385  0.15036201  0.24497525  1
  O  O107  1  0.73062387  0.15039449  0.24496553  1
  O  O108  1  0.32162758  0.49759572  0.92215393  1
  O  O109  1  0.82258625  0.49853063  0.92244530  1
  O  O110  1  0.42686688  0.35579452  0.92241085  1
  O  O111  1  0.92723493  0.35448218  0.92264392  1
  O  O112  1  0.25143681  0.14730909  0.92276067  1
  O  O113  1  0.75114892  0.14577886  0.92270563  1
  O  O114  1  0.32222181  0.14583825  0.42242724  1
  O  O115  1  0.82213175  0.14589842  0.42226106  1
  O  O116  1  0.25121351  0.35542048  0.42269916  1
  O  O117  1  0.75131216  0.35522641  0.42302890  1
  O  O118  1  0.42740532  0.50011293  0.42252789  1
  O  O119  1  0.92750259  0.50005695  0.42250404  1
  O  O120  1  0.17767437  0.50020864  0.07751244  1
  O  O121  1  0.67759894  0.49997363  0.07740886  1
  O  O122  1  0.07366789  0.64490513  0.07725540  1
  O  O123  1  0.57367238  0.64500621  0.07720476  1
  O  O124  1  0.24926876  0.85398540  0.07745207  1
  O  O125  1  0.74927938  0.85405083  0.07768518  1
  O  O126  1  0.17767078  0.85442957  0.57741546  1
  O  O127  1  0.67821315  0.85461998  0.57736575  1
  O  O128  1  0.24875417  0.64348275  0.57772485  1
  O  O129  1  0.74935619  0.64530345  0.57739517  1
  O  O130  1  0.07356166  0.50219704  0.57726107  1
  O  O131  1  0.57317438  0.50243801  0.57778959  1
  O  O132  1  0.15538292  0.84971030  0.25505177  1
  O  O133  1  0.65541630  0.84969321  0.25505713  1
  O  O134  1  0.26245416  0.70395073  0.25546071  1
  O  O135  1  0.76245034  0.70395530  0.25544388  1
  O  O136  1  0.08303462  0.48287429  0.25531325  1
  O  O137  1  0.58304389  0.48290078  0.25530061  1
  O  O138  1  0.15570585  0.46093680  0.75499476  1
  O  O139  1  0.65489483  0.47903909  0.75581075  1
  O  O140  1  0.08452617  0.68555015  0.75533808  1
  O  O141  1  0.58298959  0.68681802  0.75556824  1
  O  O142  1  0.26178595  0.82169415  0.75573511  1
  O  O143  1  0.76115997  0.82995808  0.75551497  1
loop_
_geom_bond_atom_site_label_1
_geom_bond_atom_site_label_2
_geom_bond_distance
_geom_bond_site_symmetry_2
Na0 O104 2.375609 1_555
Na0 O134 2.375851 1_545
Na0 O132 2.634132 1_545
Na0 O106 2.634491 1_555
Na0 O32 2.763411 1_555
Na0 O62 2.763632 1_545
Na0 O4 2.936261 1_555
Na0 O18 2.937390 1_545
Na1 O105 2.375403 1_555
Na1 O135 2.376092 1_545
Na1 O133 2.632352 1_545
Na1 O107 2.632776 1_555
Na1 O63 2.761238 1_545
Na1 O33 2.762597 1_555
Na1 O5 2.937248 1_555
Na1 O19 2.938823 1_545
Na2 O142 2.382532 1_555
Na2 O100 2.467854 1_555
Na2 O138 2.624562 1_555
Na2 O98 2.639332 1_555
Na2 O70 2.742874 1_555
Na2 O28 2.777620 1_555
Na2 O8 2.889777 1_555
Na2 O12 2.924919 1_555
Na3 O101 2.402642 1_555
Na3 O143 2.491689 1_555
Na3 O99 2.566131 1_555
Na3 O139 2.586365 1_555
Na3 O29 2.745219 1_555
Na3 O71 2.777922 1_555
Na3 O13 2.980683 1_555
Na3 O9 3.003399 1_555
Na4 O139 2.483472 1_555
Na4 O96 2.484874 1_555
Na4 O141 2.568498 1_555
Na4 O100 2.630067 1_555
Na4 O67 2.747087 1_555
Na4 O24 2.795838 1_555
Na4 O10 2.936318 1_555
Na4 O15 2.937642 1_555
Na5 O97 2.478441 1_555
Na5 O99 2.491487 1_555
Na5 O141 2.544607 1_545
Na5 O143 2.599431 1_545
Na5 O27 2.747367 1_555
Na5 O69 2.780591 1_545
Na5 O7 2.967541 1_555
Na5 O17 2.979035 1_545
Na6 O128 2.484272 1_555
Na6 O86 2.494122 1_555
Na6 O85 2.549916 1_455
Na6 O130 2.562622 1_555
Na6 O56 2.677158 1_555
Na6 O14 2.871942 1_555
Na6 O42 2.936078 1_555
Na6 O28 2.968263 1_555
Na7 O87 2.499297 1_555
Na7 O129 2.517495 1_555
Na7 O84 2.581181 1_555
Na7 O131 2.586358 1_555
Na7 O57 2.743989 1_555
Na7 O15 2.754784 1_555
Na7 O29 2.934084 1_555
Na7 O43 2.954452 1_555
Na8 O130 2.476421 1_555
Na8 O89 2.532984 1_455
Na8 O126 2.570822 1_555
Na8 O86 2.639176 1_565
Na8 O58 2.731044 1_555
Na8 O16 2.759813 1_555
Na8 O25 2.878266 1_455
Na8 O45 2.946441 1_455
Na9 O88 2.499015 1_555
Na9 O131 2.509414 1_555
Na9 O87 2.561233 1_565
Na9 O127 2.568661 1_555
Na9 O59 2.726306 1_555
Na9 O17 2.760783 1_555
Na9 O44 2.956741 1_555
Na9 O24 2.963986 1_555
Na10 O84 2.506040 1_565
Na10 O126 2.507298 1_555
Na10 O128 2.569145 1_555
Na10 O88 2.571251 1_555
Na10 O12 2.745585 1_555
Na10 O54 2.778207 1_555
Na10 O26 2.937168 1_565
Na10 O46 2.967865 1_565
Na11 O127 2.478337 1_555
Na11 O85 2.560873 1_565
Na11 O129 2.581998 1_555
Na11 O89 2.608455 1_555
Na11 O55 2.779548 1_555
Na11 O13 2.790435 1_555
Na11 O27 2.923726 1_565
Na11 O47 2.928670 1_565
Na12 O94 2.487471 1_565
Na12 O124 2.495900 1_555
Na12 O91 2.555899 1_455
Na12 O122 2.573741 1_555
Na12 O52 2.690012 1_554
Na12 O22 2.862601 1_555
Na12 O36 2.931964 1_565
Na12 O32 2.948457 1_565
Na13 O95 2.481435 1_565
Na13 O125 2.500378 1_555
Na13 O90 2.554004 1_555
Na13 O123 2.577251 1_555
Na13 O53 2.725282 1_554
Na13 O23 2.862457 1_555
Na13 O37 2.929128 1_565
Na13 O33 2.951344 1_565
Na14 O120 2.488831 1_555
Na14 O90 2.561520 1_555
Na14 O124 2.575816 1_555
Na14 O92 2.603926 1_565
Na14 O18 2.780819 1_555
Na14 O48 2.783643 1_554
Na14 O34 2.914816 1_555
Na14 O38 2.936805 1_555
Na15 O121 2.489295 1_555
Na15 O91 2.560312 1_555
Na15 O125 2.578536 1_555
Na15 O93 2.606221 1_565
Na15 O49 2.760487 1_554
Na15 O19 2.776403 1_555
Na15 O35 2.908672 1_555
Na15 O39 2.938301 1_555
Na16 O122 2.484171 1_555
Na16 O93 2.529235 1_455
Na16 O120 2.559957 1_555
Na16 O94 2.622658 1_555
Na16 O50 2.726362 1_554
Na16 O20 2.754993 1_555
Na16 O31 2.885167 1_455
Na16 O41 2.949457 1_455
Na17 O123 2.489523 1_555
Na17 O92 2.524626 1_555
Na17 O121 2.561151 1_555
Na17 O95 2.621230 1_555
Na17 O21 2.751087 1_555
Na17 O51 2.762412 1_554
Na17 O30 2.884635 1_555
Na17 O40 2.950781 1_555
Na18 O81 2.501894 1_555
Na18 O110 2.508762 1_555
Na18 O82 2.574535 1_555
Na18 O108 2.574980 1_555
Na18 O38 2.731984 1_556
Na18 O8 2.757543 1_555
Na18 O67 2.960604 1_555
Na18 O53 2.963544 1_555
Na19 O111 2.488237 1_555
Na19 O80 2.572232 1_655
Na19 O109 2.573133 1_555
Na19 O83 2.605413 1_555
Na19 O39 2.726219 1_556
Na19 O9 2.790005 1_555
Na19 O66 2.901302 1_655
Na19 O52 2.935193 1_655
Na20 O82 2.495838 1_545
Na20 O112 2.508665 1_555
Na20 O79 2.572192 1_555
Na20 O110 2.578187 1_555
Na20 O10 2.751297 1_555
Na20 O40 2.783721 1_556
Na20 O68 2.899021 1_545
Na20 O48 2.949518 1_545
Na21 O113 2.470411 1_555
Na21 O83 2.537692 1_545
Na21 O111 2.550790 1_555
Na21 O78 2.623102 1_655
Na21 O11 2.758878 1_555
Na21 O41 2.769821 1_556
Na21 O69 2.935462 1_545
Na21 O49 2.960154 1_545
Na22 O108 2.480108 1_555
Na22 O78 2.485996 1_555
Na22 O80 2.566300 1_545
Na22 O112 2.585590 1_555
Na22 O36 2.684461 1_556
Na22 O6 2.874202 1_555
Na22 O50 2.917527 1_555
Na22 O70 2.948453 1_555
Na23 O79 2.502629 1_555
Na23 O109 2.517615 1_555
Na23 O81 2.565223 1_545
Na23 O113 2.572134 1_555
Na23 O37 2.737305 1_556
Na23 O7 2.756692 1_555
Na23 O71 2.963875 1_555
Na23 O51 2.964438 1_555
Na24 O118 2.495122 1_555
Na24 O77 2.560368 1_555
Na24 O114 2.577950 1_555
Na24 O74 2.605247 1_545
Na24 O46 2.763951 1_555
Na24 O4 2.777510 1_555
Na24 O61 2.910174 1_555
Na24 O57 2.937861 1_555
Na25 O119 2.489851 1_555
Na25 O76 2.563730 1_655
Na25 O115 2.576627 1_555
Na25 O75 2.605533 1_545
Na25 O47 2.725737 1_555
Na25 O5 2.783170 1_555
Na25 O60 2.912737 1_655
Na25 O56 2.938713 1_655
Na26 O72 2.482138 1_545
Na26 O114 2.497348 1_555
Na26 O76 2.557160 1_555
Na26 O116 2.580508 1_555
Na26 O42 2.695301 1_555
Na26 O0 2.861324 1_555
Na26 O58 2.927516 1_545
Na26 O62 2.949126 1_545
Na27 O73 2.483678 1_545
Na27 O115 2.496249 1_555
Na27 O77 2.554300 1_555
Na27 O117 2.575909 1_555
Na27 O43 2.721015 1_555
Na27 O1 2.865040 1_555
Na27 O59 2.929662 1_545
Na27 O63 2.955987 1_545
Na28 O116 2.486209 1_555
Na28 O74 2.524397 1_555
Na28 O118 2.558407 1_555
Na28 O73 2.620016 1_555
Na28 O2 2.749212 1_555
Na28 O44 2.782664 1_555
Na28 O64 2.884233 1_555
Na28 O54 2.949826 1_555
Na29 O117 2.482874 1_555
Na29 O75 2.530429 1_555
Na29 O119 2.556630 1_555
Na29 O72 2.622124 1_655
Na29 O3 2.751967 1_555
Na29 O45 2.756035 1_555
Na29 O65 2.881434 1_555
Na29 O55 2.953394 1_555
Na30 O89 2.622545 1_445
Na30 O86 2.626273 1_555
Na30 O75 2.627209 1_445
Na30 O72 2.630473 1_545
Na30 O76 2.630986 1_555
Na30 O85 2.652117 1_455
Na31 O87 2.581899 1_565
Na31 O84 2.592562 1_565
Na31 O88 2.606185 1_555
Na31 O73 2.646316 1_555
Na31 O74 2.649772 1_555
Na31 O77 2.658035 1_565
Na32 O94 2.616741 1_555
Na32 O83 2.625243 1_444
Na32 O93 2.626143 1_455
Na32 O78 2.637485 1_554
Na32 O80 2.638145 1_544
Na32 O91 2.640404 1_445
Na33 O81 2.582499 1_545
Na33 O79 2.591356 1_555
Na33 O82 2.606298 1_545
Na33 O92 2.648935 1_556
Na33 O95 2.650857 1_556
Na33 O90 2.659755 1_546
Na34 O110 2.574363 1_555
Na34 O112 2.575955 1_555
Na34 O96 2.591625 1_555
Na34 O100 2.621088 1_555
Na34 O108 2.622258 1_555
Na34 O98 2.732949 1_555
Na35 O97 2.538170 1_555
Na35 O101 2.567792 1_555
Na35 O111 2.612546 1_555
Na35 O99 2.615716 1_555
Na35 O109 2.665713 1_555
Na35 O113 2.671407 1_555
Na36 O102 2.517330 1_555
Na36 O104 2.574075 1_555
Na36 O118 2.583244 1_555
Na36 O116 2.640341 1_555
Na36 O114 2.693299 1_555
Na36 O106 2.744655 1_555
Na37 O103 2.519893 1_555
Na37 O105 2.578001 1_555
Na37 O119 2.580855 1_555
Na37 O117 2.640943 1_555
Na37 O115 2.686912 1_555
Na37 O107 2.746600 1_555
Na38 O136 2.519697 1_555
Na38 O134 2.576892 1_555
Na38 O120 2.581107 1_555
Na38 O122 2.636204 1_555
Na38 O124 2.691418 1_555
Na38 O132 2.748471 1_555
Na39 O137 2.516190 1_555
Na39 O135 2.573619 1_555
Na39 O121 2.586052 1_555
Na39 O123 2.640405 1_555
Na39 O125 2.690726 1_555
Na39 O133 2.746304 1_555
Na40 O140 2.509557 1_555
Na40 O126 2.578578 1_555
Na40 O142 2.584537 1_555
Na40 O130 2.630638 1_555
Na40 O128 2.684074 1_555
Na40 O138 2.751970 1_555
Na41 O143 2.598958 1_555
Na41 O131 2.608405 1_555
Na41 O139 2.608775 1_555
Na41 O129 2.610318 1_555
Na41 O141 2.612369 1_555
Na41 O127 2.616170 1_555
Hf0 O3 1.990707 1_555
Hf0 O5 2.006169 1_565
Hf0 O75 2.038008 1_555
Hf0 O72 2.111722 1_655
Hf0 O76 2.124545 1_665
Hf0 O0 2.233539 1_665
Hf1 O2 1.992326 1_555
Hf1 O4 2.007200 1_565
Hf1 O74 2.037271 1_555
Hf1 O73 2.110423 1_555
Hf1 O77 2.123216 1_565
Hf1 O1 2.234512 1_565
Hf2 O11 1.993890 1_565
Hf2 O9 2.001142 1_555
Hf2 O83 2.035707 1_555
Hf2 O78 2.108036 1_665
Hf2 O80 2.113313 1_655
Hf2 O6 2.239454 1_665
Hf3 O7 2.029128 1_555
Hf3 O10 2.031951 1_555
Hf3 O8 2.036225 1_545
Hf3 O82 2.118675 1_545
Hf3 O79 2.121175 1_555
Hf3 O81 2.129828 1_545
Hf4 O16 1.989475 1_655
Hf4 O13 2.009574 1_555
Hf4 O89 2.032709 1_555
Hf4 O86 2.106536 1_665
Hf4 O85 2.115713 1_565
Hf4 O14 2.239651 1_665
Hf5 O15 2.028623 1_555
Hf5 O12 2.029402 1_545
Hf5 O17 2.033402 1_545
Hf5 O88 2.122238 1_545
Hf5 O87 2.125263 1_555
Hf5 O84 2.125572 1_555
Hf6 O20 1.990597 1_655
Hf6 O19 2.006401 1_545
Hf6 O93 2.038074 1_555
Hf6 O94 2.111859 1_655
Hf6 O91 2.124286 1_545
Hf6 O22 2.232511 1_645
Hf7 O21 1.991388 1_555
Hf7 O18 2.007469 1_545
Hf7 O92 2.037685 1_555
Hf7 O95 2.110958 1_555
Hf7 O90 2.122958 1_545
Hf7 O23 2.234734 1_545
Hf8 O24 1.984914 1_555
Hf8 O26 1.990357 1_555
Hf8 O28 2.056962 1_555
Hf8 O96 2.080704 1_555
Hf8 O100 2.131156 1_555
Hf8 O98 2.311715 1_555
Hf9 O25 2.005878 1_555
Hf9 O27 2.073808 1_555
Hf9 O29 2.075182 1_555
Hf9 O101 2.084068 1_555
Hf9 O97 2.086634 1_555
Hf9 O99 2.141283 1_555
Hf10 O30 1.961223 1_555
Hf10 O34 2.022430 1_555
Hf10 O102 2.047336 1_555
Hf10 O32 2.099129 1_555
Hf10 O104 2.101175 1_555
Hf10 O106 2.344466 1_555
Hf11 O31 1.961233 1_555
Hf11 O35 2.021516 1_555
Hf11 O103 2.047393 1_555
Hf11 O33 2.099238 1_555
Hf11 O105 2.101883 1_555
Hf11 O107 2.344350 1_555
Hf12 O36 2.035813 1_556
Hf12 O40 2.040179 1_556
Hf12 O38 2.042436 1_556
Hf12 O112 2.115362 1_555
Hf12 O108 2.116572 1_555
Hf12 O110 2.121135 1_555
Hf13 O37 2.033448 1_556
Hf13 O41 2.037346 1_556
Hf13 O39 2.050359 1_556
Hf13 O113 2.114739 1_555
Hf13 O109 2.117772 1_555
Hf13 O111 2.123610 1_555
Hf14 O44 2.033345 1_555
Hf14 O46 2.034457 1_555
Hf14 O42 2.043184 1_555
Hf14 O116 2.105922 1_555
Hf14 O114 2.117864 1_555
Hf14 O118 2.119747 1_555
Hf15 O43 2.034257 1_555
Hf15 O45 2.041639 1_555
Hf15 O47 2.042628 1_555
Hf15 O117 2.113871 1_555
Hf15 O115 2.115859 1_555
Hf15 O119 2.124372 1_555
Hf16 O48 2.027564 1_554
Hf16 O50 2.036001 1_554
Hf16 O52 2.056130 1_554
Hf16 O122 2.111966 1_555
Hf16 O124 2.119959 1_555
Hf16 O120 2.120909 1_555
Hf17 O51 2.033629 1_554
Hf17 O53 2.037265 1_554
Hf17 O49 2.040700 1_554
Hf17 O123 2.105442 1_555
Hf17 O125 2.117817 1_555
Hf17 O121 2.121080 1_555
Hf18 O58 2.034497 1_555
Hf18 O54 2.037603 1_555
Hf18 O56 2.049772 1_555
Hf18 O130 2.107043 1_555
Hf18 O128 2.121162 1_555
Hf18 O126 2.122335 1_555
Hf19 O59 2.031306 1_555
Hf19 O55 2.036705 1_555
Hf19 O57 2.050291 1_555
Hf19 O127 2.116792 1_555
Hf19 O131 2.120674 1_555
Hf19 O129 2.121308 1_555
Hf20 O64 1.961200 1_555
Hf20 O60 2.022104 1_555
Hf20 O136 2.047188 1_555
Hf20 O62 2.098473 1_555
Hf20 O134 2.101830 1_555
Hf20 O132 2.344215 1_555
Hf21 O65 1.961178 1_555
Hf21 O61 2.021914 1_555
Hf21 O137 2.047133 1_555
Hf21 O63 2.098623 1_555
Hf21 O135 2.102217 1_555
Hf21 O133 2.345763 1_555
Hf22 O68 1.959311 1_555
Hf22 O66 2.017975 1_555
Hf22 O140 2.044762 1_555
Hf22 O70 2.091958 1_555
Hf22 O142 2.106083 1_555
Hf22 O138 2.353690 1_555
Hf23 O69 2.036268 1_555
Hf23 O71 2.040196 1_555
Hf23 O67 2.041382 1_555
Hf23 O139 2.110963 1_555
Hf23 O143 2.112035 1_555
Hf23 O141 2.120803 1_555
O0 S0 1.493477 1_555
O1 S1 1.493114 1_555
O2 Si0 1.650022 1_555
O3 Si1 1.650363 1_555
O4 Si3 1.655666 1_555
O5 Si2 1.656144 1_655
O6 S2 1.495804 1_555
O7 Si4 1.644159 1_555
O8 Si6 1.640714 1_555
O9 Si5 1.657688 1_655
O10 Si7 1.650343 1_545
O11 Si8 1.642742 1_555
O12 Si7 1.649197 1_555
O13 Si8 1.648482 1_565
O14 S2 1.495924 1_555
O15 Si4 1.644443 1_555
O16 Si5 1.650869 1_555
O17 Si6 1.641636 1_555
O18 Si0 1.655832 1_555
O19 Si1 1.656218 1_555
O20 Si2 1.650512 1_555
O21 Si3 1.649905 1_555
O22 S0 1.494027 1_565
O23 S1 1.492919 1_565
O24 Si9 1.647605 1_555
O25 Si10 1.624813 1_555
O26 Si11 1.631435 1_555
O27 Si12 1.632309 1_555
O28 Si13 1.643546 1_555
O29 Si14 1.625100 1_555
O30 Si15 1.632766 1_555
O31 Si16 1.633138 1_555
O32 Si17 1.629281 1_555
O33 Si18 1.628735 1_555
O34 Si19 1.624624 1_555
O35 Si20 1.625568 1_555
O36 Si19 1.647328 1_555
O37 Si20 1.647001 1_555
O38 Si15 1.642166 1_555
O39 Si16 1.642285 1_555
O40 Si17 1.644128 1_555
O41 Si18 1.643507 1_555
O42 Si11 1.641601 1_555
O43 Si12 1.647130 1_555
O44 Si13 1.644080 1_555
O45 Si14 1.640418 1_555
O46 Si9 1.637020 1_555
O47 Si10 1.645519 1_555
O48 Si21 1.648157 1_555
O49 Si22 1.635608 1_555
O50 Si23 1.645408 1_555
O51 Si24 1.641878 1_555
O52 Si25 1.640873 1_555
O53 Si26 1.643138 1_555
O54 Si27 1.643994 1_555
O55 Si28 1.643276 1_555
O56 Si29 1.642605 1_555
O57 Si30 1.642544 1_555
O58 Si31 1.647231 1_555
O59 Si32 1.646627 1_555
O60 Si31 1.624906 1_555
O61 Si32 1.625147 1_555
O62 Si27 1.629251 1_555
O63 Si28 1.628697 1_555
O64 Si29 1.632654 1_555
O65 Si30 1.634285 1_555
O66 Si23 1.626123 1_555
O67 Si24 1.638942 1_555
O68 Si25 1.632429 1_555
O69 Si26 1.640846 1_555
O70 Si21 1.636330 1_555
O71 Si22 1.632219 1_555
O72 Si31 1.648173 1_555
O73 Si32 1.646873 1_555
O74 Si27 1.659581 1_555
O75 Si28 1.660687 1_555
O76 Si29 1.641837 1_555
O77 Si30 1.641439 1_555
O78 Si23 1.648404 1_555
O79 Si24 1.642059 1_555
O80 Si25 1.643624 1_555
O81 Si26 1.641878 1_555
O82 Si21 1.645537 1_555
O83 Si22 1.656996 1_555
O84 Si9 1.637100 1_555
O85 Si10 1.647335 1_555
O86 Si11 1.645852 1_555
O87 Si12 1.645630 1_555
O88 Si13 1.642231 1_555
O89 Si14 1.661503 1_555
O90 Si15 1.640244 1_555
O91 Si16 1.642217 1_555
O92 Si17 1.659898 1_555
O93 Si18 1.660855 1_555
O94 Si19 1.648258 1_555
O95 Si20 1.647156 1_555
O96 Si7 1.646088 1_545
O97 Si8 1.623094 1_555
O98 S2 1.484226 1_555
O99 Si4 1.630041 1_555
O100 Si6 1.650168 1_555
O101 Si5 1.637822 1_655
O102 Si0 1.628596 1_555
O103 Si1 1.628013 1_555
O104 Si3 1.650094 1_555
O105 Si2 1.649573 1_655
O106 S0 1.479506 1_555
O107 S1 1.480679 1_555
O108 Si21 1.646238 1_555
O109 Si22 1.633979 1_555
O110 Si24 1.642793 1_555
O111 Si23 1.642643 1_655
O112 Si25 1.636823 1_545
O113 Si26 1.642553 1_545
O114 Si27 1.640249 1_545
O115 Si28 1.640532 1_545
O116 Si29 1.636898 1_555
O117 Si30 1.638412 1_555
O118 Si32 1.645230 1_555
O119 Si31 1.644414 1_655
O120 Si19 1.645201 1_555
O121 Si20 1.645035 1_555
O122 Si16 1.636700 1_455
O123 Si15 1.637118 1_555
O124 Si17 1.641150 1_565
O125 Si18 1.640385 1_565
O126 Si11 1.639761 1_565
O127 Si12 1.647163 1_565
O128 Si13 1.643062 1_555
O129 Si14 1.638935 1_555
O130 Si10 1.640588 1_455
O131 Si9 1.636607 1_555
O132 S0 1.479336 1_565
O133 S1 1.479932 1_565
O134 Si0 1.650132 1_555
O135 Si1 1.649444 1_555
O136 Si2 1.628207 1_555
O137 Si3 1.628499 1_555
O138 S2 1.472472 1_555
O139 Si4 1.643174 1_555
O140 Si5 1.626344 1_555
O141 Si6 1.641314 1_555
O142 Si7 1.638244 1_555
O143 Si8 1.651805 1_565
