# generated using pymatgen
data_Ba5MgBi3O11
_symmetry_space_group_name_H-M   'P 1'
_cell_length_a   6.79110619
_cell_length_b   6.45377086
_cell_length_c   9.50220901
_cell_angle_alpha   90.00000000
_cell_angle_beta   90.00000000
_cell_angle_gamma   88.94419851
_symmetry_Int_Tables_number   1
_chemical_formula_structural   Ba5MgBi3O11
_chemical_formula_sum   'Ba5 Mg1 Bi3 O11'
_cell_volume   416.39442206
_cell_formula_units_Z   1
loop_
 _symmetry_equiv_pos_site_id
 _symmetry_equiv_pos_as_xyz
  1  'x, y, z'
loop_
 _atom_site_type_symbol
 _atom_site_label
 _atom_site_symmetry_multiplicity
 _atom_site_fract_x
 _atom_site_fract_y
 _atom_site_fract_z
 _atom_site_occupancy
  Ba  Ba0  1  0.62288653  0.91213907  0.28608484  1
  Ba  Ba1  1  0.62288653  0.91213907  0.71391516  1
  Ba  Ba2  1  0.04889864  0.03198073  0.50000000  1
  Ba  Ba3  1  0.08144703  0.52387803  0.24198658  1
  Ba  Ba4  1  0.08144703  0.52387803  0.75801342  1
  Mg  Mg0  1  0.43861394  0.04072443  0.00000000  1
  Bi  Bi0  1  0.98121988  0.00911625  0.00000000  1
  Bi  Bi1  1  0.49277558  0.51987078  0.00000000  1
  Bi  Bi2  1  0.51646114  0.46353649  0.50000000  1
  O  O0  1  0.67290637  0.22966426  0.00000000  1
  O  O1  1  0.22831884  0.27107777  0.00000000  1
  O  O2  1  0.67748880  0.80773337  0.00000000  1
  O  O3  1  0.99280782  0.92936723  0.24107144  1
  O  O4  1  0.66736740  0.16949797  0.50000000  1
  O  O5  1  0.47235230  0.53039145  0.25239634  1
  O  O6  1  0.25488137  0.79940968  0.00000000  1
  O  O7  1  0.75649479  0.70815398  0.50000000  1
  O  O8  1  0.17770190  0.40556472  0.50000000  1
  O  O9  1  0.47235230  0.53039145  0.74760366  1
  O  O10  1  0.99280782  0.92936723  0.75892856  1
loop_
_geom_bond_atom_site_label_1
_geom_bond_atom_site_label_2
_geom_bond_distance
_geom_bond_site_symmetry_2
Ba0 O3 2.552769 1_555
Ba0 O7 2.577614 1_555
Ba0 O4 2.645785 1_565
Ba0 O5 2.703748 1_555
Ba0 O2 2.823512 1_555
Ba1 O10 2.552769 1_555
Ba1 O7 2.577614 1_555
Ba1 O4 2.645785 1_565
Ba1 O9 2.703748 1_555
Ba1 O2 2.823512 1_556
Ba2 O3 2.578080 1_445
Ba2 O10 2.578080 1_445
Ba2 O8 2.579902 1_555
Ba2 O4 2.723289 1_455
Ba2 O7 2.909265 1_445
Ba3 O8 2.646272 1_555
Ba3 O5 2.657628 1_555
Ba3 O3 2.674457 1_455
Ba3 O1 2.980603 1_555
Ba3 O6 3.148612 1_555
Ba4 O8 2.646272 1_555
Ba4 O9 2.657628 1_555
Ba4 O10 2.674457 1_455
Ba4 O1 2.980603 1_556
Ba4 O6 3.148612 1_556
Mg0 O6 2.013442 1_545
Mg0 O0 2.022372 1_555
Mg0 O1 2.042413 1_555
Mg0 O2 2.191517 1_545
Bi0 O6 2.278790 1_645
Bi0 O3 2.348820 1_545
Bi0 O10 2.348820 1_544
Bi0 O1 2.403903 1_655
Bi0 O2 2.458163 1_545
Bi0 O0 2.510000 1_555
Bi1 O0 2.218074 1_555
Bi1 O2 2.260716 1_555
Bi1 O6 2.399447 1_555
Bi1 O5 2.403217 1_555
Bi1 O9 2.403217 1_554
Bi1 O1 2.431017 1_555
Bi2 O4 2.140021 1_555
Bi2 O7 2.290055 1_555
Bi2 O8 2.337569 1_555
Bi2 O9 2.409712 1_555
Bi2 O5 2.409712 1_555
