# generated using pymatgen
data_NaNbAl(PO4)3
_symmetry_space_group_name_H-M   'P 1'
_cell_length_a   8.58448779
_cell_length_b   8.58448753
_cell_length_c   22.28749522
_cell_angle_alpha   90.00000000
_cell_angle_beta   90.00000000
_cell_angle_gamma   120.00000105
_symmetry_Int_Tables_number   1
_chemical_formula_structural   NaNbAl(PO4)3
_chemical_formula_sum   'Na6 Nb6 Al6 P18 O72'
_cell_volume   1422.39642290
_cell_formula_units_Z   6
loop_
 _symmetry_equiv_pos_site_id
 _symmetry_equiv_pos_as_xyz
  1  'x, y, z'
loop_
 _atom_site_type_symbol
 _atom_site_label
 _atom_site_symmetry_multiplicity
 _atom_site_fract_x
 _atom_site_fract_y
 _atom_site_fract_z
 _atom_site_occupancy
  Na  Na0  1  0.00000000  0.00000000  0.49355587  1
  Na  Na1  1  0.00000000  0.00000000  0.99355587  1
  Na  Na2  1  0.66666700  0.33333300  0.82688887  1
  Na  Na3  1  0.66666700  0.33333300  0.32688887  1
  Na  Na4  1  0.33333300  0.66666700  0.16022287  1
  Na  Na5  1  0.33333300  0.66666700  0.66022287  1
  Nb  Nb0  1  0.00000000  0.00000000  0.64314302  1
  Nb  Nb1  1  0.00000000  0.00000000  0.14314302  1
  Nb  Nb2  1  0.66666700  0.33333300  0.97647602  1
  Nb  Nb3  1  0.66666700  0.33333300  0.47647602  1
  Nb  Nb4  1  0.33333300  0.66666700  0.30981002  1
  Nb  Nb5  1  0.33333300  0.66666700  0.80981002  1
  Al  Al0  1  0.00000000  0.00000000  0.35371953  1
  Al  Al1  1  0.00000000  0.00000000  0.85371953  1
  Al  Al2  1  0.66666700  0.33333300  0.68705253  1
  Al  Al3  1  0.66666700  0.33333300  0.18705253  1
  Al  Al4  1  0.33333300  0.66666700  0.02038653  1
  Al  Al5  1  0.33333300  0.66666700  0.52038653  1
  P  P0  1  0.29222053  0.01458473  0.25211112  1
  P  P1  1  0.72236420  0.70777947  0.25211112  1
  P  P2  1  0.98541527  0.27763580  0.25211112  1
  P  P3  1  0.29222053  0.27763580  0.75211112  1
  P  P4  1  0.98541527  0.70777947  0.75211112  1
  P  P5  1  0.72236420  0.01458473  0.75211112  1
  P  P6  1  0.95888753  0.34791773  0.58544412  1
  P  P7  1  0.38903120  0.04111247  0.58544412  1
  P  P8  1  0.65208227  0.61096880  0.58544412  1
  P  P9  1  0.95888753  0.61096880  0.08544412  1
  P  P10  1  0.65208227  0.04111247  0.08544412  1
  P  P11  1  0.38903120  0.34791773  0.08544412  1
  P  P12  1  0.62555353  0.68125173  0.91877812  1
  P  P13  1  0.05569720  0.37444647  0.91877812  1
  P  P14  1  0.31874827  0.94430280  0.91877812  1
  P  P15  1  0.62555353  0.94430280  0.41877812  1
  P  P16  1  0.31874827  0.37444647  0.41877812  1
  P  P17  1  0.05569720  0.68125173  0.41877812  1
  O  O0  1  0.20122142  0.03518611  0.30741070  1
  O  O1  1  0.83396469  0.79877858  0.30741070  1
  O  O2  1  0.96481389  0.16603531  0.30741070  1
  O  O3  1  0.20122142  0.16603531  0.80741070  1
  O  O4  1  0.96481389  0.79877858  0.80741070  1
  O  O5  1  0.83396469  0.03518611  0.80741070  1
  O  O6  1  0.80217718  0.97653927  0.69454718  1
  O  O7  1  0.17436209  0.19782282  0.69454718  1
  O  O8  1  0.02346073  0.82563791  0.69454718  1
  O  O9  1  0.80217718  0.82563791  0.19454718  1
  O  O10  1  0.02346073  0.19782282  0.19454718  1
  O  O11  1  0.17436209  0.97653927  0.19454718  1
  O  O12  1  0.86788842  0.36851911  0.64074370  1
  O  O13  1  0.50063169  0.13211158  0.64074370  1
  O  O14  1  0.63148089  0.49936831  0.64074370  1
  O  O15  1  0.86788842  0.49936831  0.14074370  1
  O  O16  1  0.63148089  0.13211158  0.14074370  1
  O  O17  1  0.50063169  0.36851911  0.14074370  1
  O  O18  1  0.46884418  0.30987227  0.02788018  1
  O  O19  1  0.84102909  0.53115582  0.02788018  1
  O  O20  1  0.69012773  0.15897091  0.02788018  1
  O  O21  1  0.46884418  0.15897091  0.52788018  1
  O  O22  1  0.69012773  0.53115582  0.52788018  1
  O  O23  1  0.84102909  0.30987227  0.52788018  1
  O  O24  1  0.53455442  0.70185311  0.97407770  1
  O  O25  1  0.16729769  0.46544558  0.97407770  1
  O  O26  1  0.29814689  0.83270231  0.97407770  1
  O  O27  1  0.53455442  0.83270231  0.47407770  1
  O  O28  1  0.29814689  0.46544558  0.47407770  1
  O  O29  1  0.16729769  0.70185311  0.47407770  1
  O  O30  1  0.13551018  0.64320627  0.36121418  1
  O  O31  1  0.50769509  0.86448982  0.36121418  1
  O  O32  1  0.35679373  0.49230491  0.36121418  1
  O  O33  1  0.13551018  0.49230491  0.86121418  1
  O  O34  1  0.35679373  0.86448982  0.86121418  1
  O  O35  1  0.50769509  0.64320627  0.86121418  1
  O  O36  1  0.03202595  0.84371823  0.40930267  1
  O  O37  1  0.81169228  0.96797405  0.40930267  1
  O  O38  1  0.15628177  0.18830772  0.40930267  1
  O  O39  1  0.03202595  0.18830772  0.90930267  1
  O  O40  1  0.15628177  0.96797405  0.90930267  1
  O  O41  1  0.81169228  0.84371823  0.90930267  1
  O  O42  1  0.97618068  0.17372276  0.58982219  1
  O  O43  1  0.19754208  0.02381932  0.58982219  1
  O  O44  1  0.82627724  0.80245792  0.58982219  1
  O  O45  1  0.97618068  0.80245792  0.08982219  1
  O  O46  1  0.82627724  0.02381932  0.08982219  1
  O  O47  1  0.19754208  0.17372276  0.08982219  1
  O  O48  1  0.69869295  0.17705123  0.74263567  1
  O  O49  1  0.47835928  0.30130705  0.74263567  1
  O  O50  1  0.82294877  0.52164072  0.74263567  1
  O  O51  1  0.69869295  0.52164072  0.24263567  1
  O  O52  1  0.82294877  0.30130705  0.24263567  1
  O  O53  1  0.47835928  0.17705123  0.24263567  1
  O  O54  1  0.64284768  0.50705576  0.92315519  1
  O  O55  1  0.86420908  0.35715232  0.92315519  1
  O  O56  1  0.49294424  0.13579092  0.92315519  1
  O  O57  1  0.64284768  0.13579092  0.42315519  1
  O  O58  1  0.49294424  0.35715232  0.42315519  1
  O  O59  1  0.86420908  0.50705576  0.42315519  1
  O  O60  1  0.36535895  0.51038523  0.07596967  1
  O  O61  1  0.14502528  0.63464105  0.07596967  1
  O  O62  1  0.48961477  0.85497472  0.07596967  1
  O  O63  1  0.36535895  0.85497472  0.57596967  1
  O  O64  1  0.48961477  0.63464105  0.57596967  1
  O  O65  1  0.14502528  0.51038523  0.57596967  1
  O  O66  1  0.30951368  0.84038976  0.25648919  1
  O  O67  1  0.53087508  0.69048632  0.25648919  1
  O  O68  1  0.15961024  0.46912492  0.25648919  1
  O  O69  1  0.30951368  0.46912492  0.75648919  1
  O  O70  1  0.15961024  0.69048632  0.75648919  1
  O  O71  1  0.53087508  0.84038976  0.75648919  1
loop_
_geom_bond_atom_site_label_1
_geom_bond_atom_site_label_2
_geom_bond_distance
_geom_bond_site_symmetry_2
Na0 O38 2.402170 1_555
Na0 O36 2.402170 1_545
Na0 O37 2.402170 1_445
Na0 O44 2.678453 1_445
Na0 O42 2.678453 1_455
Na0 O43 2.678453 1_555
Na1 O39 2.402170 1_555
Na1 O41 2.402170 1_445
Na1 O40 2.402170 1_545
Na1 O45 2.678453 1_446
Na1 O47 2.678453 1_556
Na1 O46 2.678453 1_456
Na2 O50 2.402170 1_555
Na2 O48 2.402170 1_555
Na2 O49 2.402170 1_555
Na2 O56 2.678453 1_555
Na2 O54 2.678453 1_555
Na2 O55 2.678453 1_555
Na3 O51 2.402170 1_555
Na3 O53 2.402170 1_555
Na3 O52 2.402170 1_555
Na3 O57 2.678453 1_555
Na3 O59 2.678453 1_555
Na3 O58 2.678453 1_555
Na4 O62 2.402170 1_555
Na4 O60 2.402170 1_555
Na4 O61 2.402170 1_555
Na4 O68 2.678453 1_555
Na4 O66 2.678453 1_555
Na4 O67 2.678453 1_555
Na5 O63 2.402170 1_555
Na5 O65 2.402170 1_555
Na5 O64 2.402170 1_555
Na5 O69 2.678453 1_555
Na5 O71 2.678453 1_555
Na5 O70 2.678453 1_555
Nb0 O7 1.973579 1_555
Nb0 O8 1.973579 1_545
Nb0 O6 1.973579 1_445
Nb0 O44 1.995759 1_445
Nb0 O42 1.995759 1_455
Nb0 O43 1.995759 1_555
Nb1 O10 1.973579 1_555
Nb1 O9 1.973579 1_445
Nb1 O11 1.973579 1_545
Nb1 O45 1.995759 1_445
Nb1 O47 1.995759 1_555
Nb1 O46 1.995759 1_455
Nb2 O19 1.973579 1_556
Nb2 O20 1.973579 1_556
Nb2 O18 1.973579 1_556
Nb2 O56 1.995759 1_555
Nb2 O54 1.995759 1_555
Nb2 O55 1.995759 1_555
Nb3 O22 1.973579 1_555
Nb3 O21 1.973579 1_555
Nb3 O23 1.973579 1_555
Nb3 O57 1.995759 1_555
Nb3 O59 1.995759 1_555
Nb3 O58 1.995759 1_555
Nb4 O31 1.973579 1_555
Nb4 O32 1.973579 1_555
Nb4 O30 1.973579 1_555
Nb4 O68 1.995759 1_555
Nb4 O66 1.995759 1_555
Nb4 O67 1.995759 1_555
Nb5 O34 1.973579 1_555
Nb5 O33 1.973579 1_555
Nb5 O35 1.973579 1_555
Nb5 O69 1.995759 1_555
Nb5 O71 1.995759 1_555
Nb5 O70 1.995759 1_555
Al0 O1 1.902254 1_445
Al0 O2 1.902254 1_455
Al0 O0 1.902254 1_555
Al0 O38 1.943955 1_555
Al0 O36 1.943955 1_545
Al0 O37 1.943955 1_445
Al1 O4 1.902254 1_445
Al1 O3 1.902254 1_555
Al1 O5 1.902254 1_455
Al1 O39 1.943955 1_555
Al1 O41 1.943955 1_445
Al1 O40 1.943955 1_545
Al2 O13 1.902254 1_555
Al2 O14 1.902254 1_555
Al2 O12 1.902254 1_555
Al2 O50 1.943955 1_555
Al2 O48 1.943955 1_555
Al2 O49 1.943955 1_555
Al3 O16 1.902254 1_555
Al3 O15 1.902254 1_555
Al3 O17 1.902254 1_555
Al3 O51 1.943955 1_555
Al3 O53 1.943955 1_555
Al3 O52 1.943955 1_555
Al4 O25 1.902254 1_554
Al4 O26 1.902254 1_554
Al4 O24 1.902254 1_554
Al4 O62 1.943955 1_555
Al4 O60 1.943955 1_555
Al4 O61 1.943955 1_555
Al5 O28 1.902254 1_555
Al5 O27 1.902254 1_555
Al5 O29 1.902254 1_555
Al5 O63 1.943955 1_555
Al5 O65 1.943955 1_555
Al5 O64 1.943955 1_555
O0 P0 1.516147 1_555
O1 P1 1.516147 1_555
O2 P2 1.516147 1_555
O3 P3 1.516147 1_555
O4 P4 1.516147 1_555
O5 P5 1.516147 1_555
O6 P5 1.563922 1_565
O7 P3 1.563922 1_555
O8 P4 1.563922 1_455
O9 P1 1.563922 1_555
O10 P2 1.563922 1_455
O11 P0 1.563922 1_565
O12 P6 1.516147 1_555
O13 P7 1.516147 1_555
O14 P8 1.516147 1_555
O15 P9 1.516147 1_555
O16 P10 1.516147 1_555
O17 P11 1.516147 1_555
O18 P11 1.563922 1_555
O19 P9 1.563922 1_555
O20 P10 1.563922 1_555
O21 P7 1.563922 1_555
O22 P8 1.563922 1_555
O23 P6 1.563922 1_555
O24 P12 1.516147 1_555
O25 P13 1.516147 1_555
O26 P14 1.516147 1_555
O27 P15 1.516147 1_555
O28 P16 1.516147 1_555
O29 P17 1.516147 1_555
O30 P17 1.563922 1_555
O31 P15 1.563922 1_555
O32 P16 1.563922 1_555
O33 P13 1.563922 1_555
O34 P14 1.563922 1_555
O35 P12 1.563922 1_555
O36 P17 1.521337 1_555
O37 P15 1.521345 1_555
O38 P16 1.521342 1_555
O39 P13 1.521345 1_555
O40 P14 1.521337 1_555
O41 P12 1.521342 1_555
O42 P6 1.577877 1_555
O43 P7 1.577886 1_555
O44 P8 1.577882 1_555
O45 P9 1.577886 1_555
O46 P10 1.577877 1_555
O47 P11 1.577882 1_555
O48 P5 1.521337 1_555
O49 P3 1.521345 1_555
O50 P4 1.521342 1_555
O51 P1 1.521345 1_555
O52 P2 1.521337 1_555
O53 P0 1.521342 1_555
O54 P12 1.577889 1_555
O55 P13 1.577872 1_655
O56 P14 1.577880 1_545
O57 P15 1.577872 1_545
O58 P16 1.577889 1_555
O59 P17 1.577880 1_655
O60 P11 1.521347 1_555
O61 P9 1.521330 1_455
O62 P10 1.521337 1_565
O63 P7 1.521330 1_565
O64 P8 1.521347 1_555
O65 P6 1.521337 1_455
O66 P0 1.577877 1_565
O67 P1 1.577886 1_555
O68 P2 1.577882 1_455
O69 P3 1.577886 1_555
O70 P4 1.577877 1_455
O71 P5 1.577882 1_565
