# generated using pymatgen
data_Na3LaMgSi(SO6)2
_symmetry_space_group_name_H-M   'P 1'
_cell_length_a   9.46997736
_cell_length_b   9.45603786
_cell_length_c   23.22210775
_cell_angle_alpha   89.79339102
_cell_angle_beta   90.00000000
_cell_angle_gamma   120.04877608
_symmetry_Int_Tables_number   1
_chemical_formula_structural   Na3LaMgSi(SO6)2
_chemical_formula_sum   'Na18 La6 Mg6 Si6 S12 O72'
_cell_volume   1800.00195247
_cell_formula_units_Z   6
loop_
 _symmetry_equiv_pos_site_id
 _symmetry_equiv_pos_as_xyz
  1  'x, y, z'
loop_
 _atom_site_type_symbol
 _atom_site_label
 _atom_site_symmetry_multiplicity
 _atom_site_fract_x
 _atom_site_fract_y
 _atom_site_fract_z
 _atom_site_occupancy
  Na  Na0  1  0.62300831  0.01194788  0.25357715  1
  Na  Na1  1  0.00916506  0.64709105  0.23709826  1
  Na  Na2  1  0.63792600  0.64709105  0.73709826  1
  Na  Na3  1  0.38893957  0.01194788  0.75357715  1
  Na  Na4  1  0.31944856  0.35121977  0.58615674  1
  Na  Na5  1  0.64690344  0.94074602  0.57897764  1
  Na  Na6  1  0.29384358  0.94074602  0.07897764  1
  Na  Na7  1  0.03177221  0.35121977  0.08615674  1
  Na  Na8  1  0.98858623  0.68747785  0.92655493  1
  Na  Na9  1  0.68694727  0.02833583  0.90269078  1
  Na  Na10  1  0.34138756  0.02833583  0.40269078  1
  Na  Na11  1  0.69889062  0.68747785  0.42655493  1
  Na  Na12  1  0.96672357  0.98096403  0.49167376  1
  Na  Na13  1  0.01424046  0.98096403  0.99167376  1
  Na  Na14  1  0.65461897  0.30150130  0.82591052  1
  Na  Na15  1  0.64688333  0.30150130  0.32591052  1
  Na  Na16  1  0.33025272  0.67082736  0.15907286  1
  Na  Na17  1  0.34057364  0.67082736  0.65907286  1
  La  La0  1  0.98133609  0.98306488  0.65089641  1
  La  La1  1  0.00172879  0.98306488  0.15089641  1
  La  La2  1  0.65471177  0.33771083  0.98556115  1
  La  La3  1  0.68300005  0.33771083  0.48556115  1
  La  La4  1  0.33557259  0.67181199  0.31915281  1
  La  La5  1  0.33623840  0.67181199  0.81915281  1
  Mg  Mg0  1  0.01171072  0.01799486  0.34925967  1
  Mg  Mg1  1  0.00628414  0.01799486  0.84925967  1
  Mg  Mg2  1  0.68214760  0.33992695  0.68279431  1
  Mg  Mg3  1  0.65778036  0.33992695  0.18279431  1
  Mg  Mg4  1  0.30685516  0.67246082  0.01436851  1
  Mg  Mg5  1  0.36560467  0.67246082  0.51436851  1
  Si  Si0  1  0.31210016  0.01497041  0.25266539  1
  Si  Si1  1  0.70287025  0.01497041  0.75266539  1
  Si  Si2  1  0.65161830  0.62572561  0.58405137  1
  Si  Si3  1  0.97410831  0.62572561  0.08405137  1
  Si  Si4  1  0.31979172  0.96956486  0.91566684  1
  Si  Si5  1  0.64977215  0.96956486  0.41566684  1
  S  S0  1  0.70504694  0.68948908  0.25447090  1
  S  S1  1  0.98481506  0.29236648  0.24902175  1
  S  S2  1  0.30755142  0.29236648  0.74902175  1
  S  S3  1  0.98444214  0.68948908  0.75447090  1
  S  S4  1  0.98205560  0.34910171  0.58720107  1
  S  S5  1  0.37363686  0.02926044  0.58505753  1
  S  S6  1  0.65562457  0.02926044  0.08505753  1
  S  S7  1  0.36704711  0.34910171  0.08720107  1
  S  S8  1  0.64318769  0.68340397  0.91757110  1
  S  S9  1  0.03551845  0.35511186  0.92119207  1
  S  S10  1  0.31959241  0.35511186  0.42119207  1
  S  S11  1  0.04021528  0.68340397  0.41757110  1
  O  O0  1  0.21202457  0.02196576  0.30967244  1
  O  O1  1  0.80446900  0.77694508  0.30535765  1
  O  O2  1  0.97713562  0.18588163  0.29722797  1
  O  O3  1  0.20874601  0.18588163  0.79722797  1
  O  O4  1  0.97247608  0.77694508  0.80535765  1
  O  O5  1  0.80994119  0.02196576  0.80967244  1
  O  O6  1  0.77786006  0.98090432  0.69367248  1
  O  O7  1  0.22429355  0.22633595  0.69324255  1
  O  O8  1  0.01977199  0.79359347  0.70224277  1
  O  O9  1  0.77382148  0.79359347  0.20224277  1
  O  O10  1  0.00204239  0.22633595  0.19324255  1
  O  O11  1  0.20304426  0.98090432  0.19367248  1
  O  O12  1  0.88780096  0.35556338  0.63637155  1
  O  O13  1  0.47954543  0.11658883  0.63498253  1
  O  O14  1  0.64309849  0.51395258  0.64019667  1
  O  O15  1  0.87085509  0.51395258  0.14019667  1
  O  O16  1  0.63704440  0.11658883  0.13498253  1
  O  O17  1  0.46776342  0.35556338  0.13637155  1
  O  O18  1  0.42733043  0.31075502  0.03369786  1
  O  O19  1  0.88177693  0.54387264  0.02314639  1
  O  O20  1  0.67569047  0.12225941  0.03087548  1
  O  O21  1  0.44656995  0.12225941  0.53087548  1
  O  O22  1  0.66209671  0.54387264  0.52314639  1
  O  O23  1  0.88342559  0.31075502  0.53369786  1
  O  O24  1  0.53861650  0.67966572  0.96544582  1
  O  O25  1  0.13191539  0.44032761  0.97328938  1
  O  O26  1  0.29685531  0.84921351  0.97154632  1
  O  O27  1  0.55235719  0.84921351  0.47154632  1
  O  O28  1  0.30841121  0.44032761  0.47328938  1
  O  O29  1  0.14104822  0.67966572  0.46544582  1
  O  O30  1  0.10137596  0.66054980  0.36156575  1
  O  O31  1  0.54037602  0.89017014  0.35661536  1
  O  O32  1  0.33888602  0.45340304  0.36926930  1
  O  O33  1  0.11451602  0.45340304  0.86926930  1
  O  O34  1  0.34979313  0.89017014  0.85661536  1
  O  O35  1  0.55917284  0.66054980  0.86156575  1
  O  O36  1  0.04157808  0.84229368  0.41755645  1
  O  O37  1  0.82599362  0.97540247  0.40864433  1
  O  O38  1  0.17413604  0.18952067  0.41710727  1
  O  O39  1  0.01538463  0.18952067  0.91710727  1
  O  O40  1  0.14940885  0.97540247  0.90864433  1
  O  O41  1  0.80071561  0.84229368  0.91755645  1
  O  O42  1  0.01594452  0.20983874  0.59231188  1
  O  O43  1  0.21194235  0.01806034  0.59008067  1
  O  O44  1  0.80629593  0.81765006  0.58226418  1
  O  O45  1  0.01135413  0.81765006  0.08226418  1
  O  O46  1  0.80611799  0.01806034  0.09008067  1
  O  O47  1  0.19389422  0.20983874  0.09231188  1
  O  O48  1  0.67323326  0.17161361  0.74490070  1
  O  O49  1  0.46975469  0.30104668  0.74900547  1
  O  O50  1  0.82719987  0.53376185  0.74740010  1
  O  O51  1  0.70656298  0.53376185  0.24740010  1
  O  O52  1  0.83129299  0.30104668  0.24900547  1
  O  O53  1  0.49838135  0.17161361  0.24490070  1
  O  O54  1  0.68454892  0.55031503  0.92083427  1
  O  O55  1  0.86833107  0.33666229  0.92308031  1
  O  O56  1  0.49485645  0.14585534  0.91869026  1
  O  O57  1  0.65099990  0.14585534  0.41869026  1
  O  O58  1  0.46833222  0.33666229  0.42308031  1
  O  O59  1  0.86576711  0.55031503  0.42083427  1
  O  O60  1  0.35944749  0.50105904  0.08121116  1
  O  O61  1  0.15701759  0.63863848  0.08257326  1
  O  O62  1  0.50694783  0.86476812  0.08085489  1
  O  O63  1  0.35781929  0.86476812  0.58085489  1
  O  O64  1  0.48161989  0.63863848  0.58257326  1
  O  O65  1  0.14161055  0.50105904  0.58121116  1
  O  O66  1  0.32753014  0.84340852  0.25219885  1
  O  O67  1  0.53525312  0.65812081  0.25815127  1
  O  O68  1  0.12498076  0.46266054  0.25407291  1
  O  O69  1  0.33767878  0.46266054  0.75407291  1
  O  O70  1  0.12286670  0.65812081  0.75815127  1
  O  O71  1  0.51587738  0.84340852  0.75219885  1
loop_
_geom_bond_atom_site_label_1
_geom_bond_atom_site_label_2
_geom_bond_distance
_geom_bond_site_symmetry_2
Na0 O53 2.344214 1_555
Na0 O66 2.430025 1_545
Na0 O52 2.443956 1_555
Na0 O31 2.596420 1_545
Na1 O68 2.512046 1_555
Na1 O51 2.517975 1_455
Na1 O15 2.594847 1_455
Na1 O66 2.656770 1_555
Na1 O52 2.845111 1_455
Na1 O11 2.919717 1_555
Na1 O30 3.004079 1_555
Na2 O69 2.512054 1_555
Na2 O50 2.517984 1_555
Na2 O14 2.594849 1_555
Na2 O71 2.656777 1_555
Na2 O49 2.845111 1_555
Na2 O6 2.919717 1_555
Na2 O35 3.004081 1_555
Na3 O48 2.344222 1_555
Na3 O71 2.430017 1_545
Na3 O49 2.443954 1_555
Na3 O34 2.596419 1_545
Na4 O64 2.360172 1_555
Na4 O42 2.493811 1_555
Na4 O65 2.691760 1_555
Na4 O7 2.702524 1_555
Na4 O28 2.768198 1_555
Na4 O43 2.784867 1_555
Na4 O14 2.937229 1_555
Na5 O44 2.323377 1_555
Na5 O63 2.458184 1_555
Na5 O64 2.477522 1_555
Na5 O27 2.648436 1_555
Na5 O6 2.883028 1_555
Na6 O45 2.323386 1_555
Na6 O62 2.458165 1_555
Na6 O61 2.477521 1_555
Na6 O26 2.648433 1_554
Na6 O11 2.883032 1_555
Na7 O61 2.360173 1_555
Na7 O47 2.493802 1_555
Na7 O60 2.691744 1_555
Na7 O10 2.702523 1_555
Na7 O25 2.768195 1_554
Na7 O46 2.784869 1_455
Na7 O15 2.937229 1_455
Na8 O40 2.396741 1_655
Na8 O54 2.500236 1_555
Na8 O19 2.549681 1_556
Na8 O26 2.737360 1_655
Na8 O41 2.821043 1_555
Na8 O55 2.920034 1_555
Na8 O4 2.961799 1_555
Na9 O5 2.469296 1_555
Na9 O41 2.503709 1_545
Na9 O55 2.582564 1_555
Na9 O56 2.590277 1_555
Na9 O39 2.713886 1_655
Na9 O34 2.979681 1_545
Na10 O0 2.469292 1_555
Na10 O36 2.503701 1_545
Na10 O58 2.582562 1_555
Na10 O57 2.590294 1_555
Na10 O38 2.713878 1_555
Na10 O31 2.979681 1_545
Na11 O37 2.396741 1_555
Na11 O59 2.500252 1_555
Na11 O22 2.549683 1_555
Na11 O27 2.737360 1_555
Na11 O36 2.821052 1_655
Na11 O58 2.920031 1_555
Na11 O1 2.961801 1_555
Na12 O37 2.329605 1_555
Na12 O36 2.476185 1_655
Na12 O44 2.597205 1_555
Na12 O38 2.615674 1_665
Na13 O40 2.329605 1_555
Na13 O41 2.476185 1_455
Na13 O45 2.597205 1_556
Na13 O39 2.615674 1_565
Na14 O48 2.304795 1_555
Na14 O49 2.499356 1_555
Na14 O56 2.616168 1_555
Na14 O50 2.682351 1_555
Na14 O55 2.937646 1_555
Na15 O53 2.304795 1_555
Na15 O52 2.499356 1_555
Na15 O57 2.616168 1_555
Na15 O51 2.682351 1_555
Na15 O58 2.937646 1_555
Na16 O61 2.333174 1_555
Na16 O62 2.522933 1_555
Na16 O60 2.527495 1_555
Na16 O66 2.721805 1_555
Na16 O68 2.942279 1_555
Na16 O67 3.051001 1_555
Na17 O64 2.333174 1_555
Na17 O63 2.522933 1_555
Na17 O65 2.527495 1_555
Na17 O71 2.721805 1_555
Na17 O69 2.942279 1_555
Na17 O70 3.051001 1_555
La0 O6 2.158839 1_555
La0 O44 2.270650 1_555
La0 O8 2.324206 1_655
La0 O42 2.414902 1_665
La0 O43 2.479122 1_665
La0 O7 2.503646 1_665
La1 O11 2.158839 1_555
La1 O45 2.270650 1_555
La1 O9 2.324206 1_455
La1 O47 2.414902 1_565
La1 O46 2.479122 1_465
La1 O10 2.503646 1_565
La2 O19 2.236107 1_556
La2 O56 2.294408 1_555
La2 O18 2.323679 1_556
La2 O20 2.384814 1_556
La2 O54 2.406269 1_555
La2 O55 2.493575 1_555
La3 O22 2.236107 1_555
La3 O57 2.294408 1_555
La3 O23 2.323679 1_555
La3 O21 2.384814 1_555
La3 O59 2.406269 1_555
La3 O58 2.493575 1_555
La4 O31 2.187290 1_555
La4 O66 2.271941 1_555
La4 O30 2.379687 1_555
La4 O32 2.380840 1_555
La4 O67 2.417796 1_555
La4 O68 2.498847 1_555
La5 O34 2.187290 1_555
La5 O71 2.271941 1_555
La5 O35 2.379687 1_555
La5 O33 2.380840 1_555
La5 O70 2.417796 1_555
La5 O69 2.498847 1_555
Mg0 O0 2.091273 1_555
Mg0 O37 2.108013 1_445
Mg0 O2 2.143406 1_455
Mg0 O38 2.235846 1_555
Mg0 O1 2.371360 1_445
Mg0 O36 2.409848 1_545
Mg1 O5 2.091273 1_455
Mg1 O40 2.108013 1_545
Mg1 O3 2.143406 1_555
Mg1 O39 2.235846 1_555
Mg1 O4 2.371360 1_445
Mg1 O41 2.409848 1_445
Mg2 O14 2.102604 1_555
Mg2 O48 2.114047 1_555
Mg2 O12 2.165033 1_555
Mg2 O50 2.235097 1_555
Mg2 O13 2.309327 1_555
Mg2 O49 2.408355 1_555
Mg3 O15 2.102604 1_555
Mg3 O53 2.114047 1_555
Mg3 O17 2.165034 1_555
Mg3 O51 2.235097 1_555
Mg3 O16 2.309327 1_555
Mg3 O52 2.408355 1_555
Mg4 O26 1.984408 1_554
Mg4 O61 2.041126 1_555
Mg4 O25 2.201389 1_554
Mg4 O62 2.418793 1_555
Mg4 O24 2.441734 1_554
Mg4 O60 2.464684 1_555
Mg5 O27 1.984408 1_555
Mg5 O64 2.041126 1_555
Mg5 O28 2.201388 1_555
Mg5 O63 2.418793 1_555
Mg5 O29 2.441734 1_555
Mg5 O65 2.464684 1_555
O0 Si0 1.648775 1_555
O1 S0 1.481235 1_555
O2 S1 1.480165 1_555
O3 S2 1.480165 1_555
O4 S3 1.481235 1_555
O5 Si1 1.648775 1_555
O6 Si1 1.648363 1_565
O7 S2 1.483965 1_555
O8 S3 1.487802 1_455
O9 S0 1.487802 1_555
O10 S1 1.483965 1_455
O11 Si0 1.648363 1_565
O12 S4 1.469481 1_555
O13 S5 1.486410 1_555
O14 Si2 1.651726 1_555
O15 Si3 1.651726 1_555
O16 S6 1.486410 1_555
O17 S7 1.469481 1_555
O18 S7 1.487162 1_555
O19 Si3 1.641373 1_555
O20 S6 1.489041 1_555
O21 S5 1.489041 1_555
O22 Si2 1.641373 1_555
O23 S4 1.487162 1_555
O24 S8 1.477352 1_555
O25 S9 1.488841 1_555
O26 Si4 1.663728 1_555
O27 Si5 1.663728 1_555
O28 S10 1.488842 1_555
O29 S11 1.477352 1_555
O30 S11 1.483579 1_555
O31 Si5 1.657064 1_555
O32 S10 1.474092 1_555
O33 S9 1.474092 1_555
O34 Si4 1.657064 1_555
O35 S8 1.483579 1_555
O36 S11 1.496045 1_555
O37 Si5 1.649927 1_555
O38 S10 1.482991 1_555
O39 S9 1.482995 1_555
O40 Si4 1.649918 1_555
O41 S8 1.496050 1_555
O42 S4 1.507766 1_455
O43 S5 1.485607 1_555
O44 Si2 1.666784 1_555
O45 Si3 1.666787 1_455
O46 S6 1.485598 1_555
O47 S7 1.507773 1_555
O48 Si1 1.649157 1_555
O49 S2 1.496648 1_555
O50 S3 1.489466 1_555
O51 S0 1.489471 1_555
O52 S1 1.496639 1_555
O53 Si0 1.649162 1_555
O54 S8 1.495309 1_555
O55 S9 1.504126 1_655
O56 Si4 1.662964 1_545
O57 Si5 1.662955 1_545
O58 S10 1.504145 1_555
O59 S11 1.495296 1_655
O60 S7 1.480329 1_555
O61 Si3 1.674687 1_455
O62 S6 1.489683 1_565
O63 S5 1.489675 1_565
O64 Si2 1.674705 1_555
O65 S4 1.480319 1_455
O66 Si0 1.700247 1_565
O67 S0 1.484229 1_555
O68 S1 1.493149 1_455
O69 S2 1.493152 1_555
O70 S3 1.484220 1_455
O71 Si1 1.700253 1_565
