# generated using pymatgen
data_U(CoGe)2
_symmetry_space_group_name_H-M   'P 1'
_cell_length_a   4.06253878
_cell_length_b   4.06253737
_cell_length_c   5.49143696
_cell_angle_alpha   111.70928834
_cell_angle_beta   111.70930107
_cell_angle_gamma   90.00000649
_symmetry_Int_Tables_number   1
_chemical_formula_structural   U(CoGe)2
_chemical_formula_sum   'U1 Co2 Ge2'
_cell_volume   77.24215163
_cell_formula_units_Z   1
loop_
 _symmetry_equiv_pos_site_id
 _symmetry_equiv_pos_as_xyz
  1  'x, y, z'
loop_
 _atom_site_type_symbol
 _atom_site_label
 _atom_site_symmetry_multiplicity
 _atom_site_fract_x
 _atom_site_fract_y
 _atom_site_fract_z
 _atom_site_occupancy
  U  U0  1  0.00000000  -0.00000000  -0.00000000  1
  Co  Co0  1  0.25000000  0.75000000  0.50000000  1
  Co  Co1  1  0.75000000  0.25000000  0.50000000  1
  Ge  Ge0  1  0.63275890  0.63275890  0.26551679  1
  Ge  Ge1  1  0.36724110  0.36724110  0.73448321  1
loop_
_geom_bond_atom_site_label_1
_geom_bond_atom_site_label_2
_geom_bond_distance
_geom_bond_site_symmetry_2
Co0 Ge1 2.308759 1_565
Co0 Ge0 2.308759 1_455
Co0 Ge1 2.308762 1_555
Co0 Ge0 2.308763 1_555
Co0 U0 3.098709 1_565
Co0 U0 3.098709 1_555
Co0 U0 3.098709 1_666
Co0 U0 3.098709 1_566
Co1 Ge0 2.308759 1_545
Co1 Ge1 2.308759 1_655
Co1 Ge0 2.308762 1_555
Co1 Ge1 2.308763 1_555
Co1 U0 3.098709 1_656
Co1 U0 3.098709 1_666
Co1 U0 3.098709 1_555
Co1 U0 3.098709 1_655
Ge0 Ge1 2.485315 1_554
Ge0 U0 3.129902 1_665
Ge0 U0 3.129905 1_565
Ge0 U0 3.129905 1_655
Ge0 U0 3.129908 1_555
Ge1 U0 3.129902 1_556
Ge1 U0 3.129905 1_656
Ge1 U0 3.129905 1_566
Ge1 U0 3.129908 1_666
