# generated using pymatgen
data_Na14Hf2Mg6Si5S7O48
_symmetry_space_group_name_H-M   'P 1'
_cell_length_a   18.23549968
_cell_length_b   9.11633374
_cell_length_c   22.30858126
_cell_angle_alpha   90.03257524
_cell_angle_beta   90.02953334
_cell_angle_gamma   120.15597006
_symmetry_Int_Tables_number   1
_chemical_formula_structural   Na14Hf2Mg6Si5S7O48
_chemical_formula_sum   'Na42 Hf6 Mg18 Si15 S21 O144'
_cell_volume   3206.67909808
_cell_formula_units_Z   3
loop_
 _symmetry_equiv_pos_site_id
 _symmetry_equiv_pos_as_xyz
  1  'x, y, z'
loop_
 _atom_site_type_symbol
 _atom_site_label
 _atom_site_symmetry_multiplicity
 _atom_site_fract_x
 _atom_site_fract_y
 _atom_site_fract_z
 _atom_site_occupancy
  Na  Na0  1  0.80976186  0.00280963  0.25089197  1
  Na  Na1  1  0.68794856  0.35077263  0.24421074  1
  Na  Na2  1  0.50631187  0.64938781  0.24686346  1
  Na  Na3  1  0.30789441  0.61479663  0.75102741  1
  Na  Na4  1  0.00629438  0.37808330  0.74565242  1
  Na  Na5  1  0.17463823  0.00165916  0.74334668  1
  Na  Na6  1  0.15278384  0.32559593  0.57649095  1
  Na  Na7  1  0.66951430  0.36171856  0.58269690  1
  Na  Na8  1  0.01451265  0.69729575  0.57489278  1
  Na  Na9  1  0.52514666  0.68500310  0.58753702  1
  Na  Na10  1  0.32508568  0.99154172  0.58395667  1
  Na  Na11  1  0.82338110  0.95324757  0.58768671  1
  Na  Na12  1  0.16415297  0.96987625  0.07721472  1
  Na  Na13  1  0.65843841  0.98694038  0.06966242  1
  Na  Na14  1  0.31904653  0.69055519  0.08238023  1
  Na  Na15  1  0.82811520  0.66259334  0.07857495  1
  Na  Na16  1  0.02488619  0.36553839  0.08313366  1
  Na  Na17  1  0.51358840  0.32949689  0.06603184  1
  Na  Na18  1  0.49079649  0.66764484  0.91905244  1
  Na  Na19  1  0.98077822  0.66293221  0.91275987  1
  Na  Na20  1  0.35568641  0.04952851  0.92436450  1
  Na  Na21  1  0.84467096  0.03968415  0.91184630  1
  Na  Na22  1  0.16757199  0.29441350  0.91444441  1
  Na  Na23  1  0.66053576  0.28597575  0.92640731  1
  Na  Na24  1  0.48147176  0.30544478  0.42940686  1
  Na  Na25  1  0.99187108  0.31578377  0.42400401  1
  Na  Na26  1  0.15765521  0.03064440  0.43134143  1
  Na  Na27  1  0.67123156  0.04456606  0.42218920  1
  Na  Na28  1  0.34120243  0.64961812  0.41863003  1
  Na  Na29  1  0.85704442  0.66262336  0.42824891  1
  Na  Na30  1  0.00531297  0.98555534  0.49884594  1
  Na  Na31  1  0.50874659  0.01838065  0.50344995  1
  Na  Na32  1  0.00806364  0.99852393  0.99672436  1
  Na  Na33  1  0.50557209  0.02391255  0.99115900  1
  Na  Na34  1  0.33668556  0.33107028  0.83038711  1
  Na  Na35  1  0.82929919  0.33532053  0.82515238  1
  Na  Na36  1  0.31686437  0.32266526  0.33348955  1
  Na  Na37  1  0.84071653  0.34480430  0.33291282  1
  Na  Na38  1  0.16764153  0.67209348  0.15350462  1
  Na  Na39  1  0.66776135  0.66175764  0.16330660  1
  Na  Na40  1  0.15771926  0.67299324  0.67051021  1
  Na  Na41  1  0.67139381  0.66681367  0.65542169  1
  Hf  Hf0  1  0.00447687  0.98966137  0.65222817  1
  Hf  Hf1  1  0.50544031  0.01471907  0.64675696  1
  Hf  Hf2  1  0.00559745  0.99719870  0.14634881  1
  Hf  Hf3  1  0.50358746  0.00588279  0.14855927  1
  Hf  Hf4  1  0.16167369  0.65304295  0.31652925  1
  Hf  Hf5  1  0.66276236  0.67117098  0.81707109  1
  Mg  Mg0  1  0.00541049  0.00208075  0.35558190  1
  Mg  Mg1  1  0.50508333  0.00503297  0.34441376  1
  Mg  Mg2  1  0.00471247  0.99275907  0.83701487  1
  Mg  Mg3  1  0.50501627  0.00817273  0.85474932  1
  Mg  Mg4  1  0.33033813  0.31616618  0.68140648  1
  Mg  Mg5  1  0.82916603  0.34406024  0.68161691  1
  Mg  Mg6  1  0.32025698  0.31429672  0.17703881  1
  Mg  Mg7  1  0.83155779  0.34193711  0.18082495  1
  Mg  Mg8  1  0.33238693  0.31671872  0.98641813  1
  Mg  Mg9  1  0.82635021  0.33549567  0.98603606  1
  Mg  Mg10  1  0.32585089  0.32079041  0.48837240  1
  Mg  Mg11  1  0.83516924  0.34924893  0.49022279  1
  Mg  Mg12  1  0.16616751  0.66907102  0.02158040  1
  Mg  Mg13  1  0.66075027  0.65255094  0.01206973  1
  Mg  Mg14  1  0.15791622  0.66424744  0.51422316  1
  Mg  Mg15  1  0.66696964  0.66739141  0.52285216  1
  Mg  Mg16  1  0.66597023  0.67362079  0.31558689  1
  Mg  Mg17  1  0.16131200  0.65851626  0.81218040  1
  Si  Si0  1  0.65312436  0.00040337  0.25272400  1
  Si  Si1  1  0.15436805  0.30407280  0.75222212  1
  Si  Si2  1  0.99502176  0.68422816  0.75586755  1
  Si  Si3  1  0.47714927  0.33568018  0.58051002  1
  Si  Si4  1  0.18404489  0.02526645  0.58349710  1
  Si  Si5  1  0.69052493  0.04495606  0.58086334  1
  Si  Si6  1  0.83507908  0.63682638  0.58170902  1
  Si  Si7  1  0.97698207  0.61821329  0.08080471  1
  Si  Si8  1  0.33505333  0.03715916  0.08314305  1
  Si  Si9  1  0.18848567  0.33810673  0.07981982  1
  Si  Si10  1  0.68528948  0.34452836  0.08560266  1
  Si  Si11  1  0.51260344  0.36468020  0.91800440  1
  Si  Si12  1  0.66935976  0.96932835  0.92200689  1
  Si  Si13  1  0.16941700  0.37017539  0.42135353  1
  Si  Si14  1  0.01246027  0.66042974  0.41773999  1
  S  S0  1  0.15010383  0.00158859  0.25252566  1
  S  S1  1  0.35239701  0.70292011  0.25206051  1
  S  S2  1  0.85340318  0.70942520  0.25316450  1
  S  S3  1  0.99974152  0.29025895  0.25125137  1
  S  S4  1  0.49837917  0.29649694  0.25348894  1
  S  S5  1  0.64833447  0.29818555  0.75306170  1
  S  S6  1  0.50021042  0.70940316  0.75141634  1
  S  S7  1  0.35597892  0.00022331  0.75351391  1
  S  S8  1  0.85068894  0.99598958  0.75191444  1
  S  S9  1  0.98042154  0.33118406  0.58390116  1
  S  S10  1  0.33453752  0.63123433  0.58438201  1
  S  S11  1  0.47955599  0.62696014  0.08636598  1
  S  S12  1  0.83460491  0.03778802  0.08540284  1
  S  S13  1  0.31182472  0.66655330  0.91563693  1
  S  S14  1  0.81514663  0.67417341  0.91700428  1
  S  S15  1  0.01866376  0.36776337  0.91784214  1
  S  S16  1  0.16573689  0.95688889  0.91623458  1
  S  S17  1  0.31708912  0.95903371  0.41420478  1
  S  S18  1  0.81221006  0.95810603  0.41470912  1
  S  S19  1  0.66250908  0.37356140  0.41285036  1
  S  S20  1  0.51901547  0.66945758  0.41493435  1
  O  O0  1  0.10498434  0.01327541  0.30539860  1
  O  O1  1  0.60831022  0.03079534  0.31077737  1
  O  O2  1  0.40297521  0.79176197  0.30621552  1
  O  O3  1  0.90435280  0.80336847  0.30594056  1
  O  O4  1  0.48542102  0.19193441  0.30733134  1
  O  O5  1  0.99205086  0.18769739  0.30471494  1
  O  O6  1  0.11032637  0.18950030  0.81189264  1
  O  O7  1  0.60305027  0.19651383  0.80589947  1
  O  O8  1  0.49255726  0.79659935  0.80491035  1
  O  O9  1  0.98178400  0.76853623  0.81601860  1
  O  O10  1  0.40795405  0.01209092  0.80588778  1
  O  O11  1  0.90167209  0.01337946  0.80651223  1
  O  O12  1  0.39739106  0.97716860  0.69787655  1
  O  O13  1  0.89378300  0.97916609  0.69756185  1
  O  O14  1  0.08931665  0.20558685  0.69413305  1
  O  O15  1  0.59513690  0.21381068  0.69729341  1
  O  O16  1  0.00831447  0.81513240  0.69798451  1
  O  O17  1  0.50907254  0.81211212  0.69617434  1
  O  O18  1  0.39527315  0.80603183  0.19760353  1
  O  O19  1  0.89409264  0.81538297  0.19784273  1
  O  O20  1  0.00827319  0.20560388  0.19617784  1
  O  O21  1  0.50719865  0.20599958  0.19973515  1
  O  O22  1  0.09812787  0.98212951  0.19674868  1
  O  O23  1  0.58774677  0.97046591  0.19494323  1
  O  O24  1  0.43245793  0.37564912  0.63512269  1
  O  O25  1  0.93990518  0.35225181  0.63771777  1
  O  O26  1  0.24142415  0.10993652  0.64292309  1
  O  O27  1  0.75300958  0.13418245  0.63644122  1
  O  O28  1  0.32284253  0.52762422  0.63804778  1
  O  O29  1  0.81578523  0.50778970  0.63609490  1
  O  O30  1  0.43983220  0.52794681  0.14174960  1
  O  O31  1  0.93384587  0.49176797  0.13680259  1
  O  O32  1  0.32031923  0.12704991  0.14026339  1
  O  O33  1  0.82219441  0.11636780  0.13989577  1
  O  O34  1  0.24916072  0.38100943  0.13749531  1
  O  O35  1  0.74012516  0.37189982  0.14620539  1
  O  O36  1  0.22214549  0.28633910  0.02015645  1
  O  O37  1  0.72125669  0.29602963  0.02645719  1
  O  O38  1  0.42904986  0.54838008  0.03219131  1
  O  O39  1  0.91940509  0.55431199  0.01999163  1
  O  O40  1  0.36205499  0.15411087  0.02258374  1
  O  O41  1  0.85156494  0.14318558  0.03135136  1
  O  O42  1  0.22128171  0.14269681  0.52335348  1
  O  O43  1  0.72114521  0.15716981  0.51877777  1
  O  O44  1  0.35278804  0.56116102  0.52952943  1
  O  O45  1  0.86047246  0.57256446  0.52059996  1
  O  O46  1  0.42058773  0.28738900  0.51884591  1
  O  O47  1  0.93035096  0.30991432  0.52836694  1
  O  O48  1  0.27276458  0.69265604  0.96998408  1
  O  O49  1  0.77496261  0.69079930  0.97257097  1
  O  O50  1  0.07197886  0.45021036  0.97144471  1
  O  O51  1  0.57052708  0.44264681  0.97757698  1
  O  O52  1  0.15828859  0.85724403  0.97079359  1
  O  O53  1  0.65666828  0.85481442  0.98139746  1
  O  O54  1  0.28061857  0.86166610  0.46951291  1
  O  O55  1  0.77097458  0.85096356  0.46765930  1
  O  O56  1  0.15918512  0.46261223  0.48020785  1
  O  O57  1  0.65451841  0.45805707  0.46688704  1
  O  O58  1  0.07137658  0.69928072  0.47650754  1
  O  O59  1  0.57272695  0.69414452  0.46790511  1
  O  O60  1  0.06905539  0.64057206  0.36064192  1
  O  O61  1  0.55894606  0.64816039  0.35965982  1
  O  O62  1  0.26114230  0.86728872  0.36141760  1
  O  O63  1  0.76051516  0.87679768  0.35959222  1
  O  O64  1  0.18385996  0.50258105  0.36323875  1
  O  O65  1  0.66964274  0.47307884  0.35795216  1
  O  O66  1  0.06018264  0.46946140  0.86311712  1
  O  O67  1  0.57050342  0.49797237  0.86226255  1
  O  O68  1  0.17330045  0.87113948  0.86195693  1
  O  O69  1  0.68285806  0.86330492  0.86486283  1
  O  O70  1  0.25934028  0.64619953  0.86163118  1
  O  O71  1  0.75998387  0.65487507  0.86400872  1
  O  O72  1  0.00034676  0.82478528  0.40876894  1
  O  O73  1  0.50771346  0.82210051  0.41064380  1
  O  O74  1  0.40299251  0.97641825  0.40627741  1
  O  O75  1  0.89854856  0.97874297  0.40883061  1
  O  O76  1  0.08296530  0.18713851  0.41172323  1
  O  O77  1  0.58244866  0.20061522  0.41074535  1
  O  O78  1  0.00664305  0.19237787  0.91362416  1
  O  O79  1  0.50049879  0.17600150  0.90913461  1
  O  O80  1  0.08788717  0.97386586  0.91471526  1
  O  O81  1  0.58272818  0.97912479  0.91220715  1
  O  O82  1  0.39886096  0.81891798  0.90984075  1
  O  O83  1  0.89927983  0.83174274  0.91199692  1
  O  O84  1  0.48333381  0.15638113  0.59240067  1
  O  O85  1  0.98761788  0.17414733  0.58804471  1
  O  O86  1  0.08856890  0.00997943  0.58950858  1
  O  O87  1  0.59105667  0.02118495  0.59217527  1
  O  O88  1  0.41335691  0.80697957  0.59192670  1
  O  O89  1  0.91712976  0.83356428  0.59132812  1
  O  O90  1  0.48661585  0.80039037  0.09074574  1
  O  O91  1  0.98424604  0.81107636  0.09348110  1
  O  O92  1  0.41688704  0.00327679  0.09337638  1
  O  O93  1  0.91259229  0.01895345  0.09332569  1
  O  O94  1  0.09005481  0.16220509  0.09174006  1
  O  O95  1  0.58798851  0.17050659  0.09250954  1
  O  O96  1  0.34861393  0.15369836  0.74880479  1
  O  O97  1  0.84206893  0.14732214  0.74750004  1
  O  O98  1  0.24851241  0.32114854  0.74481990  1
  O  O99  1  0.73094951  0.30947978  0.74766089  1
  O  O100  1  0.42358699  0.54136814  0.74648151  1
  O  O101  1  0.91798069  0.49019871  0.74631170  1
  O  O102  1  0.34886625  0.53666124  0.24856109  1
  O  O103  1  0.84632256  0.54124113  0.24927639  1
  O  O104  1  0.42754514  0.33051162  0.24685208  1
  O  O105  1  0.92325727  0.30556188  0.24674857  1
  O  O106  1  0.23402848  0.15630729  0.24800920  1
  O  O107  1  0.74809657  0.16805921  0.24533139  1
  O  O108  1  0.32038196  0.51300208  0.92034146  1
  O  O109  1  0.82300870  0.52019930  0.91718278  1
  O  O110  1  0.42221243  0.36358897  0.91680276  1
  O  O111  1  0.93352444  0.35279685  0.92272355  1
  O  O112  1  0.24292571  0.12934174  0.91827605  1
  O  O113  1  0.75552343  0.15748190  0.92043131  1
  O  O114  1  0.32539239  0.12989318  0.41444384  1
  O  O115  1  0.82082171  0.12882423  0.41968015  1
  O  O116  1  0.25584066  0.35499641  0.41986738  1
  O  O117  1  0.73815432  0.35245382  0.41460207  1
  O  O118  1  0.43338354  0.51473517  0.41996052  1
  O  O119  1  0.92179437  0.48043726  0.41720035  1
  O  O120  1  0.16928648  0.49352510  0.07377045  1
  O  O121  1  0.67429129  0.51186115  0.07942576  1
  O  O122  1  0.07498939  0.66310668  0.07501069  1
  O  O123  1  0.56708893  0.65512592  0.08263461  1
  O  O124  1  0.25202194  0.84893701  0.07613793  1
  O  O125  1  0.76051105  0.86499893  0.07951165  1
  O  O126  1  0.17332085  0.83581570  0.57840097  1
  O  O127  1  0.67013160  0.84935020  0.57523547  1
  O  O128  1  0.26127971  0.65575788  0.57769466  1
  O  O129  1  0.75234009  0.66053236  0.57521056  1
  O  O130  1  0.06750408  0.48104293  0.57987888  1
  O  O131  1  0.57516963  0.48782074  0.57439445  1
  O  O132  1  0.15852892  0.84722424  0.25463831  1
  O  O133  1  0.65798396  0.82383151  0.25329429  1
  O  O134  1  0.26677153  0.68458697  0.25416733  1
  O  O135  1  0.76655365  0.68815294  0.25566231  1
  O  O136  1  0.07869463  0.46178352  0.25355159  1
  O  O137  1  0.58022248  0.46176198  0.25604680  1
  O  O138  1  0.16354762  0.49269436  0.75297923  1
  O  O139  1  0.65686113  0.46940821  0.75521044  1
  O  O140  1  0.08715239  0.69066931  0.75473723  1
  O  O141  1  0.57890578  0.69629554  0.75397995  1
  O  O142  1  0.27082877  0.84630414  0.75618134  1
  O  O143  1  0.76553507  0.83758245  0.75474846  1
loop_
_geom_bond_atom_site_label_1
_geom_bond_atom_site_label_2
_geom_bond_distance
_geom_bond_site_symmetry_2
Na0 O107 2.291595 1_555
Na0 O133 2.405939 1_545
Na0 O105 2.484129 1_555
Na0 O135 2.567128 1_545
Na0 O63 2.641104 1_545
Na0 O33 2.649944 1_555
Na1 O35 2.353946 1_555
Na1 O107 2.411167 1_555
Na1 O103 2.515868 1_555
Na1 O137 2.636239 1_555
Na1 O135 2.673751 1_555
Na1 O65 2.857390 1_555
Na1 O1 2.928179 1_555
Na1 O21 3.035597 1_555
Na2 O133 2.404059 1_555
Na2 O104 2.513668 1_555
Na2 O102 2.517236 1_555
Na2 O30 2.615288 1_555
Na2 O137 2.664681 1_555
Na2 O61 2.694735 1_555
Na2 O23 2.784409 1_555
Na3 O138 2.286038 1_555
Na3 O98 2.333456 1_555
Na3 O100 2.515611 1_555
Na3 O142 2.521372 1_555
Na3 O70 2.685172 1_555
Na3 O28 2.697111 1_555
Na4 O101 2.300471 1_455
Na4 O140 2.472471 1_555
Na4 O138 2.516054 1_555
Na4 O25 2.651198 1_455
Na4 O97 2.658232 1_455
Na4 O66 2.774684 1_555
Na4 O14 2.911626 1_555
Na5 O140 2.470709 1_545
Na5 O26 2.504807 1_555
Na5 O98 2.521242 1_555
Na5 O96 2.753605 1_555
Na5 O142 2.767761 1_545
Na5 O16 2.815634 1_545
Na5 O68 2.896947 1_545
Na5 O6 2.943244 1_555
Na6 O56 2.458516 1_555
Na6 O86 2.519997 1_555
Na6 O130 2.578071 1_555
Na6 O85 2.620559 1_455
Na6 O128 2.644094 1_555
Na6 O42 2.799530 1_555
Na6 O14 2.856267 1_555
Na7 O129 2.365750 1_555
Na7 O131 2.510523 1_555
Na7 O29 2.594839 1_555
Na7 O87 2.695860 1_555
Na7 O57 2.786397 1_555
Na7 O43 2.856451 1_555
Na7 O15 2.891950 1_555
Na7 O84 2.948482 1_555
Na8 O58 2.424132 1_555
Na8 O86 2.487247 1_565
Na8 O126 2.512513 1_555
Na8 O130 2.597473 1_555
Na8 O89 2.654773 1_455
Na8 O45 2.726947 1_455
Na9 O127 2.309003 1_555
Na9 O131 2.407592 1_555
Na9 O87 2.673308 1_565
Na9 O24 2.674554 1_555
Na9 O17 2.764241 1_555
Na9 O88 2.771158 1_555
Na9 O59 2.795057 1_555
Na10 O126 2.396228 1_555
Na10 O84 2.502669 1_565
Na10 O26 2.622537 1_565
Na10 O128 2.676681 1_555
Na10 O54 2.758151 1_555
Na10 O46 2.775744 1_565
Na10 O88 2.859140 1_555
Na10 O12 2.895660 1_555
Na11 O129 2.324240 1_555
Na11 O89 2.448184 1_555
Na11 O127 2.474563 1_555
Na11 O85 2.639213 1_565
Na11 O13 2.720939 1_555
Na11 O27 2.770652 1_565
Na11 O55 2.837558 1_555
Na12 O124 2.357658 1_555
Na12 O122 2.428654 1_555
Na12 O52 2.566857 1_554
Na12 O94 2.717549 1_565
Na12 O36 2.828776 1_565
Na12 O32 2.834625 1_565
Na12 O91 2.867135 1_455
Na12 O22 2.951461 1_555
Na13 O53 2.299406 1_554
Na13 O125 2.612940 1_555
Na13 O95 2.621134 1_565
Na13 O37 2.634807 1_565
Na13 O123 2.635843 1_555
Na13 O90 2.753097 1_555
Na14 O124 2.317555 1_555
Na14 O120 2.406643 1_555
Na14 O92 2.501853 1_565
Na14 O48 2.648362 1_554
Na14 O90 2.701833 1_555
Na14 O34 2.737055 1_555
Na14 O18 2.858452 1_555
Na15 O121 2.425767 1_555
Na15 O91 2.485038 1_555
Na15 O49 2.616600 1_554
Na15 O39 2.665620 1_555
Na15 O125 2.685223 1_555
Na15 O35 2.758358 1_555
Na15 O93 2.829405 1_565
Na15 O19 2.962383 1_555
Na16 O120 2.291899 1_555
Na16 O122 2.395218 1_555
Na16 O50 2.622950 1_554
Na16 O94 2.664310 1_555
Na16 O31 2.726495 1_455
Na16 O93 2.780056 1_455
Na16 O20 2.852811 1_555
Na17 O51 2.228088 1_554
Na17 O95 2.503247 1_555
Na17 O121 2.558247 1_555
Na17 O40 2.586145 1_555
Na17 O123 2.643831 1_555
Na17 O92 2.657104 1_555
Na18 O110 2.401402 1_555
Na18 O81 2.472816 1_555
Na18 O82 2.660354 1_555
Na18 O108 2.691454 1_555
Na18 O38 2.756161 1_556
Na18 O8 2.798661 1_555
Na18 O67 2.892882 1_555
Na18 O53 2.966904 1_555
Na19 O9 2.359976 1_555
Na19 O109 2.493845 1_555
Na19 O80 2.507766 1_655
Na19 O111 2.517678 1_555
Na19 O39 2.616801 1_556
Na19 O83 2.622055 1_555
Na20 O79 2.315288 1_555
Na20 O40 2.368470 1_556
Na20 O110 2.491681 1_555
Na20 O112 2.505797 1_555
Na20 O82 2.609034 1_545
Na20 O10 2.887738 1_555
Na20 O48 2.994885 1_545
Na21 O113 2.363623 1_555
Na21 O111 2.486774 1_555
Na21 O83 2.545947 1_545
Na21 O78 2.555820 1_655
Na21 O11 2.629082 1_555
Na21 O69 2.760226 1_545
Na21 O41 2.809129 1_556
Na22 O108 2.484656 1_555
Na22 O6 2.496071 1_555
Na22 O112 2.497531 1_555
Na22 O80 2.526786 1_545
Na22 O36 2.574622 1_556
Na22 O78 2.595167 1_555
Na23 O81 2.439158 1_545
Na23 O37 2.472127 1_556
Na23 O113 2.535530 1_555
Na23 O79 2.594068 1_555
Na23 O109 2.650424 1_555
Na23 O7 2.850779 1_555
Na23 O51 2.896976 1_555
Na24 O46 2.249412 1_555
Na24 O118 2.476886 1_555
Na24 O114 2.489054 1_555
Na24 O77 2.499115 1_555
Na24 O74 2.645001 1_545
Na24 O57 2.859633 1_555
Na24 O4 2.926500 1_555
Na25 O119 2.415860 1_555
Na25 O76 2.483405 1_655
Na25 O47 2.573791 1_555
Na25 O75 2.682555 1_545
Na25 O115 2.702156 1_555
Na25 O5 2.906137 1_555
Na25 O56 2.926373 1_655
Na25 O60 2.926710 1_655
Na26 O42 2.325393 1_555
Na26 O76 2.456482 1_555
Na26 O72 2.567682 1_545
Na26 O116 2.587800 1_555
Na26 O114 2.745510 1_555
Na26 O58 2.801058 1_545
Na26 O0 2.947099 1_555
Na27 O43 2.362607 1_555
Na27 O115 2.435020 1_555
Na27 O117 2.440367 1_555
Na27 O73 2.644522 1_545
Na27 O77 2.650310 1_555
Na27 O1 2.713243 1_555
Na27 O59 2.951640 1_545
Na28 O116 2.331797 1_555
Na28 O118 2.532836 1_555
Na28 O74 2.617219 1_555
Na28 O73 2.632092 1_555
Na28 O44 2.643585 1_555
Na28 O64 2.772450 1_555
Na28 O2 2.788766 1_555
Na28 O54 2.896622 1_555
Na29 O45 2.230656 1_555
Na29 O72 2.307296 1_655
Na29 O119 2.486673 1_555
Na29 O117 2.574396 1_555
Na29 O75 2.622194 1_555
Na29 O3 2.954602 1_555
Na29 O55 2.981881 1_555
Na30 O72 2.461187 1_555
Na30 O86 2.470215 1_565
Na30 O89 2.555459 1_455
Na30 O76 2.559726 1_565
Na30 O85 2.752063 1_465
Na30 O75 2.775096 1_455
Na31 O87 2.475813 1_555
Na31 O84 2.513767 1_555
Na31 O77 2.570371 1_555
Na31 O88 2.697312 1_545
Na31 O73 2.729555 1_545
Na31 O74 2.796103 1_545
Na32 O80 2.418159 1_555
Na32 O78 2.571035 1_565
Na32 O94 2.589718 1_566
Na32 O83 2.604244 1_455
Na32 O91 2.650919 1_456
Na32 O93 2.835318 1_466
Na33 O79 2.326124 1_555
Na33 O81 2.414002 1_545
Na33 O82 2.628463 1_545
Na33 O95 2.670555 1_556
Na33 O92 2.747595 1_556
Na33 O90 2.916443 1_546
Na34 O110 2.401768 1_555
Na34 O98 2.467351 1_555
Na34 O96 2.514903 1_555
Na34 O100 2.577814 1_555
Na34 O112 2.645372 1_555
Na34 O108 2.712654 1_555
Na35 O101 2.326772 1_555
Na35 O99 2.415022 1_555
Na35 O97 2.527934 1_555
Na35 O113 2.602255 1_555
Na35 O109 2.694333 1_555
Na35 O111 2.840191 1_555
Na36 O116 2.317216 1_555
Na36 O106 2.431110 1_555
Na36 O102 2.568571 1_555
Na36 O114 2.579147 1_555
Na36 O118 2.748781 1_555
Na36 O104 2.770093 1_555
Na37 O119 2.325561 1_555
Na37 O103 2.553168 1_555
Na37 O107 2.554412 1_555
Na37 O105 2.575188 1_555
Na37 O117 2.637846 1_555
Na37 O115 2.653772 1_555
Na38 O124 2.336482 1_555
Na38 O122 2.405274 1_555
Na38 O120 2.420892 1_555
Na38 O132 2.815962 1_555
Na38 O134 2.848206 1_555
Na38 O136 2.858724 1_555
Na39 O121 2.354559 1_555
Na39 O123 2.549051 1_555
Na39 O133 2.550798 1_555
Na39 O125 2.578120 1_555
Na39 O135 2.666160 1_555
Na39 O137 2.690032 1_555
Na40 O140 2.328722 1_555
Na40 O126 2.467045 1_555
Na40 O138 2.505280 1_555
Na40 O130 2.637542 1_555
Na40 O142 2.668638 1_555
Na40 O128 2.860093 1_555
Na41 O129 2.339147 1_555
Na41 O127 2.451819 1_555
Na41 O131 2.475009 1_555
Na41 O143 2.754567 1_555
Na41 O139 2.791158 1_555
Na41 O141 2.865236 1_555
Hf0 O16 1.921451 1_555
Hf0 O86 2.015108 1_565
Hf0 O14 2.019631 1_565
Hf0 O89 2.031288 1_455
Hf0 O13 2.216910 1_455
Hf0 O85 2.344147 1_465
Hf1 O84 1.955783 1_555
Hf1 O87 1.957862 1_555
Hf1 O15 2.062442 1_555
Hf1 O12 2.150584 1_545
Hf1 O88 2.168548 1_545
Hf1 O17 2.180924 1_545
Hf2 O91 1.937798 1_455
Hf2 O94 1.948138 1_565
Hf2 O22 2.088362 1_555
Hf2 O93 2.156631 1_465
Hf2 O20 2.179922 1_565
Hf2 O19 2.195417 1_455
Hf3 O95 1.966723 1_555
Hf3 O92 1.993970 1_555
Hf3 O23 2.006695 1_545
Hf3 O21 2.124327 1_555
Hf3 O90 2.164009 1_545
Hf3 O18 2.192412 1_545
Hf4 O60 1.908613 1_555
Hf4 O64 1.920858 1_555
Hf4 O62 2.131694 1_555
Hf4 O136 2.155894 1_555
Hf4 O134 2.267300 1_555
Hf4 O132 2.268919 1_555
Hf5 O67 1.916901 1_555
Hf5 O69 1.921337 1_555
Hf5 O71 2.127089 1_555
Hf5 O141 2.172979 1_555
Hf5 O143 2.212540 1_555
Hf5 O139 2.257720 1_555
Mg0 O72 1.970049 1_545
Mg0 O76 2.003359 1_555
Mg0 O0 2.092088 1_555
Mg0 O3 2.132045 1_445
Mg0 O5 2.150926 1_455
Mg0 O75 2.199969 1_445
Mg1 O1 1.928500 1_555
Mg1 O4 2.081138 1_555
Mg1 O2 2.081472 1_545
Mg1 O77 2.196968 1_555
Mg1 O74 2.225684 1_545
Mg1 O73 2.247115 1_545
Mg2 O9 1.926796 1_455
Mg2 O6 1.942125 1_565
Mg2 O11 2.093490 1_465
Mg2 O80 2.365347 1_555
Mg2 O83 2.412434 1_455
Mg2 O78 2.483092 1_565
Mg3 O79 1.986015 1_555
Mg3 O81 2.024082 1_545
Mg3 O7 2.061970 1_555
Mg3 O10 2.093763 1_555
Mg3 O8 2.136584 1_545
Mg3 O82 2.209920 1_545
Mg4 O24 1.953464 1_555
Mg4 O26 1.958220 1_555
Mg4 O98 2.073642 1_555
Mg4 O28 2.221965 1_555
Mg4 O96 2.250200 1_555
Mg4 O100 2.387569 1_555
Mg5 O29 1.919928 1_555
Mg5 O27 1.982878 1_555
Mg5 O101 2.075680 1_555
Mg5 O25 2.212053 1_555
Mg5 O99 2.216728 1_555
Mg5 O97 2.420524 1_555
Mg6 O32 1.894014 1_555
Mg6 O34 1.902778 1_555
Mg6 O106 2.187089 1_555
Mg6 O30 2.214604 1_555
Mg6 O102 2.420792 1_555
Mg6 O104 2.445648 1_555
Mg7 O31 1.937278 1_555
Mg7 O35 1.976745 1_555
Mg7 O107 2.116797 1_555
Mg7 O33 2.176333 1_555
Mg7 O103 2.282655 1_555
Mg7 O105 2.371531 1_555
Mg8 O40 1.986901 1_556
Mg8 O36 2.031488 1_556
Mg8 O110 2.139559 1_555
Mg8 O38 2.205778 1_556
Mg8 O112 2.254955 1_555
Mg8 O108 2.412253 1_555
Mg9 O37 1.981083 1_556
Mg9 O39 2.007124 1_556
Mg9 O113 2.081629 1_555
Mg9 O41 2.262389 1_556
Mg9 O109 2.303095 1_555
Mg9 O111 2.352183 1_555
Mg10 O42 1.942567 1_555
Mg10 O46 2.016664 1_555
Mg10 O116 2.112154 1_555
Mg10 O44 2.191317 1_555
Mg10 O114 2.393899 1_555
Mg10 O118 2.413137 1_555
Mg11 O45 1.967492 1_555
Mg11 O43 2.034689 1_555
Mg11 O47 2.118831 1_555
Mg11 O119 2.164744 1_555
Mg11 O117 2.454684 1_555
Mg11 O115 2.459819 1_555
Mg12 O120 2.003340 1_555
Mg12 O124 2.009388 1_555
Mg12 O122 2.024721 1_555
Mg12 O52 2.120548 1_554
Mg12 O48 2.175397 1_554
Mg12 O50 2.175840 1_554
Mg13 O51 1.947968 1_554
Mg13 O53 2.003248 1_554
Mg13 O121 2.069743 1_555
Mg13 O49 2.123288 1_554
Mg13 O123 2.332125 1_555
Mg13 O125 2.403750 1_555
Mg14 O58 1.950799 1_555
Mg14 O56 1.999103 1_555
Mg14 O126 2.032400 1_555
Mg14 O130 2.211710 1_555
Mg14 O54 2.280103 1_555
Mg14 O128 2.389071 1_555
Mg15 O129 1.971746 1_555
Mg15 O127 2.005538 1_555
Mg15 O131 2.013732 1_555
Mg15 O55 2.174750 1_555
Mg15 O57 2.194040 1_555
Mg15 O59 2.221438 1_555
Mg16 O133 2.007451 1_555
Mg16 O63 2.038302 1_555
Mg16 O65 2.089251 1_555
Mg16 O61 2.092027 1_555
Mg16 O137 2.213639 1_555
Mg16 O135 2.219800 1_555
Mg17 O140 1.988421 1_555
Mg17 O138 2.022572 1_555
Mg17 O66 2.115081 1_555
Mg17 O68 2.147000 1_555
Mg17 O70 2.150552 1_555
Mg17 O142 2.247167 1_555
O0 S0 1.472586 1_555
O1 Si0 1.627887 1_555
O2 S1 1.487753 1_555
O3 S2 1.476863 1_555
O4 S4 1.477336 1_555
O5 S3 1.478543 1_555
O6 Si1 1.633349 1_555
O7 S5 1.470942 1_555
O8 S6 1.478532 1_555
O9 Si2 1.623333 1_555
O10 S7 1.473375 1_555
O11 S8 1.491152 1_545
O12 S7 1.521560 1_565
O13 S8 1.494376 1_555
O14 Si1 1.679173 1_555
O15 S5 1.525943 1_555
O16 Si2 1.691670 1_455
O17 S6 1.507002 1_555
O18 S1 1.494877 1_555
O19 S2 1.512921 1_555
O20 S3 1.499678 1_455
O21 S4 1.508937 1_555
O22 S0 1.519114 1_565
O23 Si0 1.681802 1_565
O24 Si3 1.606281 1_555
O25 S9 1.472196 1_555
O26 Si4 1.622986 1_555
O27 Si5 1.601069 1_555
O28 S10 1.473130 1_555
O29 Si6 1.601821 1_555
O30 S11 1.487036 1_555
O31 Si7 1.612370 1_555
O32 Si8 1.608690 1_555
O33 S12 1.484720 1_555
O34 Si9 1.611163 1_555
O35 Si10 1.624040 1_555
O36 Si9 1.631629 1_555
O37 Si10 1.630396 1_555
O38 S11 1.468682 1_555
O39 Si7 1.632594 1_555
O40 Si8 1.636834 1_555
O41 S12 1.475122 1_555
O42 Si4 1.636936 1_555
O43 Si5 1.644724 1_555
O44 S10 1.493109 1_555
O45 Si6 1.639631 1_555
O46 Si3 1.640631 1_555
O47 S9 1.492250 1_555
O48 S13 1.484843 1_555
O49 S14 1.486232 1_555
O50 S15 1.484479 1_555
O51 Si11 1.621807 1_555
O52 S16 1.484086 1_555
O53 Si12 1.630320 1_555
O54 S17 1.470223 1_555
O55 S18 1.476178 1_555
O56 Si13 1.620417 1_555
O57 S19 1.476368 1_555
O58 Si14 1.616847 1_555
O59 S20 1.477646 1_555
O60 Si14 1.705635 1_555
O61 S20 1.493694 1_555
O62 S17 1.505810 1_555
O63 S18 1.498557 1_555
O64 Si13 1.699964 1_555
O65 S19 1.490886 1_555
O66 S15 1.490037 1_555
O67 Si11 1.688708 1_555
O68 S16 1.484489 1_555
O69 Si12 1.690526 1_555
O70 S13 1.490667 1_555
O71 S14 1.503758 1_555
O72 Si14 1.632984 1_555
O73 S20 1.508744 1_555
O74 S17 1.503719 1_555
O75 S18 1.494675 1_555
O76 Si13 1.634645 1_555
O77 S19 1.518756 1_555
O78 S15 1.503654 1_555
O79 Si11 1.632354 1_555
O80 S16 1.503712 1_555
O81 Si12 1.640994 1_555
O82 S13 1.500190 1_555
O83 S14 1.488568 1_555
O84 Si3 1.714791 1_555
O85 S9 1.504703 1_555
O86 Si4 1.680819 1_555
O87 Si5 1.733874 1_555
O88 S10 1.531955 1_555
O89 Si6 1.674682 1_555
O90 S11 1.523529 1_555
O91 Si7 1.718779 1_555
O92 Si8 1.684417 1_555
O93 S12 1.525880 1_555
O94 Si9 1.724259 1_555
O95 Si10 1.691513 1_555
O96 S7 1.474986 1_555
O97 S8 1.468236 1_545
O98 Si1 1.652457 1_555
O99 S5 1.462565 1_555
O100 S6 1.469770 1_555
O101 Si2 1.628027 1_555
O102 S1 1.486376 1_555
O103 S2 1.475094 1_555
O104 S4 1.479470 1_555
O105 S3 1.473154 1_555
O106 S0 1.474204 1_555
O107 Si0 1.644293 1_555
O108 S13 1.488116 1_555
O109 S14 1.480906 1_555
O110 Si11 1.643555 1_555
O111 S15 1.492740 1_655
O112 S16 1.493816 1_545
O113 Si12 1.644538 1_545
O114 S17 1.487328 1_545
O115 S18 1.487729 1_545
O116 Si13 1.650185 1_555
O117 S19 1.485939 1_555
O118 S20 1.492623 1_555
O119 Si14 1.643287 1_655
O120 Si9 1.626896 1_555
O121 Si10 1.641292 1_555
O122 Si7 1.625959 1_455
O123 S11 1.486308 1_555
O124 Si8 1.628010 1_565
O125 S12 1.478293 1_565
O126 Si4 1.641476 1_565
O127 Si5 1.633193 1_565
O128 S10 1.468586 1_555
O129 Si6 1.634494 1_555
O130 S9 1.488887 1_455
O131 Si3 1.626935 1_555
O132 S0 1.491117 1_565
O133 Si0 1.656035 1_565
O134 S1 1.485287 1_555
O135 S2 1.496826 1_555
O136 S3 1.502836 1_455
O137 S4 1.497072 1_555
O138 Si1 1.641914 1_555
O139 S5 1.489635 1_555
O140 Si2 1.651537 1_455
O141 S6 1.499709 1_555
O142 S7 1.481429 1_565
O143 S8 1.499293 1_555
