# generated using pymatgen
data_Na3Y2(PO4)3
_symmetry_space_group_name_H-M   'P 1'
_cell_length_a   9.34277709
_cell_length_b   9.34277674
_cell_length_c   23.30853879
_cell_angle_alpha   89.75741901
_cell_angle_beta   90.24258100
_cell_angle_gamma   120.03558790
_symmetry_Int_Tables_number   1
_chemical_formula_structural   Na3Y2(PO4)3
_chemical_formula_sum   'Na18 Y12 P18 O72'
_cell_volume   1761.31322897
_cell_formula_units_Z   6
loop_
 _symmetry_equiv_pos_site_id
 _symmetry_equiv_pos_as_xyz
  1  'x, y, z'
loop_
 _atom_site_type_symbol
 _atom_site_label
 _atom_site_symmetry_multiplicity
 _atom_site_fract_x
 _atom_site_fract_y
 _atom_site_fract_z
 _atom_site_occupancy
  Na  Na0  1  0.00011060  0.99987241  0.50000799  1
  Na  Na1  1  0.00012759  0.99988940  0.00000799  1
  Na  Na2  1  0.63140623  0.31702482  0.83356091  1
  Na  Na3  1  0.68297518  0.36859377  0.33356091  1
  Na  Na4  1  0.33334861  0.66636782  0.16669908  1
  Na  Na5  1  0.33363218  0.66665139  0.66669908  1
  Na  Na6  1  0.63811116  0.00309799  0.24989299  1
  Na  Na7  1  0.35889469  0.35819723  0.25005106  1
  Na  Na8  1  0.64180277  0.64110531  0.75005106  1
  Na  Na9  1  0.99690201  0.36188884  0.74989299  1
  Na  Na10  1  0.02871224  0.69305666  0.58263639  1
  Na  Na11  1  0.66776934  0.97317657  0.58289831  1
  Na  Na12  1  0.30694334  0.97128776  0.08263639  1
  Na  Na13  1  0.02682343  0.33223066  0.08289831  1
  Na  Na14  1  0.97023821  0.66351680  0.91828453  1
  Na  Na15  1  0.69638169  0.02957409  0.91671916  1
  Na  Na16  1  0.97042591  0.30361831  0.41671916  1
  Na  Na17  1  0.33648320  0.02976179  0.41828453  1
  Y  Y0  1  0.98995099  0.98448647  0.34956022  1
  Y  Y1  1  0.01551353  0.01004901  0.84956022  1
  Y  Y2  1  0.01559679  0.00929382  0.65039254  1
  Y  Y3  1  0.99070618  0.98440321  0.15039254  1
  Y  Y4  1  0.65365201  0.32550149  0.68265349  1
  Y  Y5  1  0.67449851  0.34634799  0.18265349  1
  Y  Y6  1  0.65930177  0.34074338  0.98412669  1
  Y  Y7  1  0.65925662  0.34069823  0.48412669  1
  Y  Y8  1  0.34379415  0.66096062  0.01616652  1
  Y  Y9  1  0.33903938  0.65620585  0.51616652  1
  Y  Y10  1  0.32873122  0.66611856  0.31714604  1
  Y  Y11  1  0.33388144  0.67126878  0.81714604  1
  P  P0  1  0.30633351  0.00349327  0.24968568  1
  P  P1  1  0.68875033  0.69415708  0.25068716  1
  P  P2  1  0.99948399  0.29603379  0.24930391  1
  P  P3  1  0.30584292  0.31124967  0.75068716  1
  P  P4  1  0.99650673  0.69366649  0.74968568  1
  P  P5  1  0.70396621  0.00051601  0.74930391  1
  P  P6  1  0.96291220  0.33318494  0.58351406  1
  P  P7  1  0.36267519  0.02366693  0.57876767  1
  P  P8  1  0.67188372  0.64187056  0.58778890  1
  P  P9  1  0.97633307  0.63732481  0.07876767  1
  P  P10  1  0.66681506  0.03708780  0.08351406  1
  P  P11  1  0.35812944  0.32811628  0.08778890  1
  P  P12  1  0.64192844  0.67180889  0.91171758  1
  P  P13  1  0.02613651  0.36327508  0.91750056  1
  P  P14  1  0.33441897  0.96451360  0.92095832  1
  P  P15  1  0.63672492  0.97386349  0.41750056  1
  P  P16  1  0.32819111  0.35807156  0.41171758  1
  P  P17  1  0.03548640  0.66558103  0.42095832  1
  O  O0  1  0.21620681  0.01650502  0.30360500  1
  O  O1  1  0.78960163  0.77806717  0.30481149  1
  O  O2  1  0.97992520  0.18931485  0.30322402  1
  O  O3  1  0.22193283  0.21039837  0.80481149  1
  O  O4  1  0.98349498  0.78379319  0.80360500  1
  O  O5  1  0.81068515  0.02007480  0.80322402  1
  O  O6  1  0.79221140  0.98330331  0.69556005  1
  O  O7  1  0.20080996  0.22241827  0.69738159  1
  O  O8  1  0.01342218  0.79555674  0.69516736  1
  O  O9  1  0.77758173  0.79919004  0.19738159  1
  O  O10  1  0.01669669  0.20778860  0.19556005  1
  O  O11  1  0.20444326  0.98657782  0.19516736  1
  O  O12  1  0.87701109  0.35325344  0.63736616  1
  O  O13  1  0.47465255  0.12106290  0.62971251  1
  O  O14  1  0.65526301  0.54750996  0.64403179  1
  O  O15  1  0.87893710  0.52534745  0.12971251  1
  O  O16  1  0.64674656  0.12298891  0.13736616  1
  O  O17  1  0.45249004  0.34473699  0.14403179  1
  O  O18  1  0.45461849  0.31410535  0.03665760  1
  O  O19  1  0.88179939  0.56149680  0.02223770  1
  O  O20  1  0.68551458  0.14363311  0.02961076  1
  O  O21  1  0.43850320  0.11820061  0.52223770  1
  O  O22  1  0.68589465  0.54538151  0.53665760  1
  O  O23  1  0.85636689  0.31448542  0.52961076  1
  O  O24  1  0.54702419  0.68914880  0.96279257  1
  O  O25  1  0.12765513  0.44881675  0.97196967  1
  O  O26  1  0.31716365  0.86660315  0.97684673  1
  O  O27  1  0.55118325  0.87234487  0.47196967  1
  O  O28  1  0.31085120  0.45297581  0.46279257  1
  O  O29  1  0.13339685  0.68283635  0.47684673  1
  O  O30  1  0.12799441  0.64434675  0.36991934  1
  O  O31  1  0.53241258  0.88473072  0.36357310  1
  O  O32  1  0.34356865  0.45166405  0.35528180  1
  O  O33  1  0.11526928  0.46758742  0.86357310  1
  O  O34  1  0.35565325  0.87200559  0.86991934  1
  O  O35  1  0.54833595  0.65643135  0.85528180  1
  O  O36  1  0.02740313  0.82658738  0.41522995  1
  O  O37  1  0.81604305  0.00404395  0.41473562  1
  O  O38  1  0.16877637  0.18388735  0.41243949  1
  O  O39  1  0.99595605  0.18395695  0.91473562  1
  O  O40  1  0.17341262  0.97259687  0.91522995  1
  O  O41  1  0.81611265  0.83122363  0.91243949  1
  O  O42  1  0.97376098  0.17303258  0.58680602  1
  O  O43  1  0.18405502  0.99365991  0.58390599  1
  O  O44  1  0.83246614  0.81509448  0.58701968  1
  O  O45  1  0.00634009  0.81594498  0.08390599  1
  O  O46  1  0.82696742  0.02623902  0.08680602  1
  O  O47  1  0.18490552  0.16753386  0.08701968  1
  O  O48  1  0.69043102  0.15919413  0.74593946  1
  O  O49  1  0.48330880  0.33887533  0.74805764  1
  O  O50  1  0.83517168  0.52093223  0.74775719  1
  O  O51  1  0.66112467  0.51669120  0.24805764  1
  O  O52  1  0.84080587  0.30956898  0.24593946  1
  O  O53  1  0.47906777  0.16482832  0.24775719  1
  O  O54  1  0.66739164  0.52073331  0.91718936  1
  O  O55  1  0.85261434  0.35037498  0.91930507  1
  O  O56  1  0.49173341  0.13810141  0.92164176  1
  O  O57  1  0.64962502  0.14738566  0.41930507  1
  O  O58  1  0.47926669  0.33260836  0.41718936  1
  O  O59  1  0.86189859  0.50826659  0.42164176  1
  O  O60  1  0.32902759  0.47734442  0.08263052  1
  O  O61  1  0.14845701  0.64817353  0.07956162  1
  O  O62  1  0.50867092  0.86451960  0.08012853  1
  O  O63  1  0.35182647  0.85154299  0.57956162  1
  O  O64  1  0.52265558  0.67097241  0.58263052  1
  O  O65  1  0.13548040  0.49132908  0.58012853  1
  O  O66  1  0.33746331  0.85514738  0.25267611  1
  O  O67  1  0.51669725  0.68279920  0.25199988  1
  O  O68  1  0.15852092  0.46763883  0.25250707  1
  O  O69  1  0.31720080  0.48330275  0.75199988  1
  O  O70  1  0.14485262  0.66253669  0.75267611  1
  O  O71  1  0.53236117  0.84147908  0.75250707  1
loop_
_geom_bond_atom_site_label_1
_geom_bond_atom_site_label_2
_geom_bond_distance
_geom_bond_site_symmetry_2
Na0 O44 2.614789 1_455
Na0 O43 2.617511 1_555
Na0 O38 2.624953 1_565
Na0 O37 2.635686 1_465
Na0 O36 2.652444 1_555
Na0 O42 2.683575 1_465
Na1 O47 2.614789 1_565
Na1 O45 2.617511 1_555
Na1 O41 2.624953 1_454
Na1 O39 2.635686 1_464
Na1 O40 2.652444 1_554
Na1 O46 2.683575 1_465
Na2 O49 2.486762 1_555
Na2 O56 2.553838 1_555
Na2 O54 2.630614 1_555
Na2 O48 2.738368 1_555
Na2 O50 2.760914 1_555
Na2 O55 2.772773 1_555
Na3 O51 2.486762 1_555
Na3 O59 2.553838 1_555
Na3 O58 2.630614 1_555
Na3 O52 2.738368 1_555
Na3 O53 2.760914 1_555
Na3 O57 2.772773 1_555
Na4 O67 2.573221 1_555
Na4 O61 2.610982 1_555
Na4 O60 2.630087 1_555
Na4 O68 2.660021 1_555
Na4 O66 2.662634 1_555
Na4 O62 2.672572 1_555
Na5 O69 2.573221 1_555
Na5 O63 2.610982 1_555
Na5 O64 2.630087 1_555
Na5 O71 2.660021 1_555
Na5 O70 2.662634 1_555
Na5 O65 2.672572 1_555
Na6 O66 2.432835 1_545
Na6 O52 2.522746 1_555
Na6 O53 2.596136 1_555
Na6 O67 2.616326 1_545
Na6 O16 2.833175 1_555
Na6 O31 2.850133 1_545
Na7 O51 2.445969 1_555
Na7 O68 2.543802 1_555
Na7 O53 2.561076 1_555
Na7 O67 2.626309 1_555
Na7 O32 2.635420 1_555
Na7 O17 2.649165 1_555
Na8 O49 2.445969 1_555
Na8 O71 2.543802 1_555
Na8 O50 2.561076 1_555
Na8 O69 2.626309 1_555
Na8 O35 2.635420 1_555
Na8 O14 2.649165 1_555
Na9 O70 2.432835 1_655
Na9 O48 2.522746 1_555
Na9 O50 2.596136 1_555
Na9 O69 2.616326 1_655
Na9 O12 2.833175 1_555
Na9 O33 2.850133 1_655
Na10 O43 2.432010 1_555
Na10 O65 2.536529 1_555
Na10 O44 2.601423 1_455
Na10 O63 2.614743 1_555
Na10 O29 2.676149 1_555
Na10 O8 2.824648 1_555
Na11 O64 2.444981 1_555
Na11 O42 2.514571 1_565
Na11 O63 2.579006 1_555
Na11 O44 2.613578 1_555
Na11 O27 2.780054 1_555
Na11 O6 2.850014 1_555
Na12 O45 2.432010 1_555
Na12 O62 2.536529 1_555
Na12 O47 2.601423 1_565
Na12 O61 2.614742 1_555
Na12 O26 2.676149 1_554
Na12 O11 2.824648 1_555
Na13 O60 2.444981 1_555
Na13 O46 2.514571 1_455
Na13 O61 2.579006 1_555
Na13 O47 2.613578 1_555
Na13 O25 2.780054 1_554
Na13 O10 2.850014 1_555
Na14 O54 2.450925 1_555
Na14 O40 2.541456 1_655
Na14 O55 2.559015 1_555
Na14 O19 2.582850 1_556
Na14 O41 2.608106 1_555
Na14 O4 2.874215 1_555
Na15 O39 2.423916 1_555
Na15 O56 2.576919 1_555
Na15 O55 2.595863 1_555
Na15 O41 2.602519 1_545
Na15 O20 2.864285 1_556
Na15 O5 2.875287 1_555
Na15 O24 2.959222 1_545
Na15 O34 2.963723 1_545
Na16 O37 2.423916 1_555
Na16 O59 2.576919 1_555
Na16 O57 2.595863 1_555
Na16 O38 2.602519 1_655
Na16 O23 2.864285 1_555
Na16 O2 2.875287 1_555
Na16 O28 2.959222 1_655
Na16 O30 2.963723 1_655
Na17 O58 2.450924 1_555
Na17 O36 2.541456 1_545
Na17 O57 2.559015 1_555
Na17 O21 2.582850 1_555
Na17 O38 2.608106 1_555
Na17 O0 2.874215 1_555
O0 P0 1.554356 1_555
O0 Y0 2.255809 1_445
O1 P1 1.533872 1_555
O1 Y0 2.167395 1_555
O2 P2 1.554345 1_555
O2 Y0 2.235719 1_545
O3 P3 1.533872 1_555
O3 Y1 2.167395 1_555
O4 P4 1.554356 1_555
O4 Y1 2.255809 1_665
O5 P5 1.554345 1_555
O5 Y1 2.235719 1_655
O6 P5 1.554992 1_565
O6 Y2 2.243251 1_665
O7 P3 1.542271 1_555
O7 Y2 2.170672 1_555
O8 P4 1.544928 1_455
O8 Y2 2.240336 1_565
O9 P1 1.542271 1_555
O9 Y3 2.170672 1_555
O10 P2 1.554992 1_455
O10 Y3 2.243251 1_445
O11 P0 1.544928 1_565
O11 Y3 2.240336 1_455
O12 P6 1.554339 1_555
O12 Y4 2.238499 1_555
O13 P7 1.542132 1_555
O13 Y4 2.184598 1_555
O14 P8 1.541029 1_555
O14 Y4 2.250749 1_555
O15 P9 1.542132 1_555
O15 Y5 2.184598 1_555
O16 P10 1.554339 1_555
O16 Y5 2.238499 1_555
O17 P11 1.541029 1_555
O17 Y5 2.250749 1_555
O18 P11 1.542310 1_555
O18 Y6 2.181486 1_554
O19 P9 1.545889 1_555
O19 Y6 2.252096 1_554
O20 P10 1.554714 1_555
O20 Y6 2.237860 1_554
O21 P7 1.545889 1_555
O21 Y7 2.252096 1_555
O22 P8 1.542310 1_555
O22 Y7 2.181486 1_555
O23 P6 1.554714 1_555
O23 Y7 2.237860 1_555
O24 P12 1.544036 1_555
O24 Y8 2.176901 1_556
O25 P13 1.545880 1_555
O25 Y8 2.249523 1_556
O26 P14 1.550417 1_555
O26 Y8 2.248295 1_556
O27 P15 1.545880 1_555
O27 Y9 2.249523 1_555
O28 P16 1.544036 1_555
O28 Y9 2.176901 1_555
O29 P17 1.550417 1_555
O29 Y9 2.248295 1_555
O30 P17 1.544003 1_555
O30 Y10 2.169617 1_555
O31 P15 1.552183 1_555
O31 Y10 2.252613 1_555
O32 P16 1.543279 1_555
O32 Y10 2.255144 1_555
O33 P13 1.552183 1_555
O33 Y11 2.252613 1_555
O34 P14 1.544003 1_555
O34 Y11 2.169617 1_555
O35 P12 1.543279 1_555
O35 Y11 2.255144 1_555
O36 P17 1.548620 1_555
O36 Y0 2.265992 1_455
O37 P15 1.555072 1_545
O37 Y0 2.302511 1_545
O38 P16 1.562196 1_555
O38 Y0 2.301420 1_445
O39 P13 1.555072 1_655
O39 Y1 2.302511 1_655
O40 P14 1.548620 1_555
O40 Y1 2.265992 1_565
O41 P12 1.562196 1_555
O41 Y1 2.301420 1_665
O42 P6 1.551052 1_555
O42 Y2 2.294363 1_655
O43 P7 1.552713 1_565
O43 Y2 2.269952 1_565
O44 P8 1.561951 1_555
O44 Y2 2.301051 1_665
O45 P9 1.552713 1_455
O45 Y3 2.269952 1_455
O46 P10 1.551052 1_555
O46 Y3 2.294363 1_545
O47 P11 1.561951 1_555
O47 Y3 2.301051 1_445
O48 P5 1.551301 1_555
O48 Y4 2.284511 1_555
O49 P3 1.546527 1_555
O49 Y4 2.256915 1_555
O50 P4 1.563113 1_555
O50 Y4 2.326894 1_555
O51 P1 1.546527 1_555
O51 Y5 2.256915 1_555
O52 P2 1.551301 1_555
O52 Y5 2.284511 1_555
O53 P0 1.563113 1_555
O53 Y5 2.326894 1_555
O54 P12 1.549019 1_555
O54 Y6 2.262591 1_555
O55 P13 1.565072 1_655
O55 Y6 2.326387 1_555
O56 P14 1.550632 1_545
O56 Y6 2.278902 1_555
O57 P15 1.565072 1_545
O57 Y7 2.326387 1_555
O58 P16 1.549019 1_555
O58 Y7 2.262591 1_555
O59 P17 1.550633 1_655
O59 Y7 2.278902 1_555
O60 P11 1.552409 1_555
O60 Y8 2.259261 1_555
O61 P9 1.559887 1_455
O61 Y8 2.308979 1_555
O62 P10 1.550499 1_565
O62 Y8 2.298748 1_555
O63 P7 1.559886 1_565
O63 Y9 2.308979 1_555
O64 P8 1.552409 1_555
O64 Y9 2.259261 1_555
O65 P6 1.550499 1_455
O65 Y9 2.298748 1_555
O66 P0 1.553343 1_565
O66 Y10 2.284304 1_555
O67 P1 1.557477 1_555
O67 Y10 2.271693 1_555
O68 P2 1.548897 1_455
O68 Y10 2.299734 1_555
O69 P3 1.557477 1_555
O69 Y11 2.271693 1_555
O70 P4 1.553343 1_455
O70 Y11 2.284304 1_555
O71 P5 1.548898 1_565
O71 Y11 2.299734 1_555
