# generated using pymatgen
data_ScNb3Si3(SO8)3
_symmetry_space_group_name_H-M   'P 1'
_cell_length_a   8.93754271
_cell_length_b   8.92767382
_cell_length_c   22.97832879
_cell_angle_alpha   89.58202790
_cell_angle_beta   89.82270358
_cell_angle_gamma   119.94693223
_symmetry_Int_Tables_number   1
_chemical_formula_structural   ScNb3Si3(SO8)3
_chemical_formula_sum   'Sc3 Nb9 Si9 S9 O72'
_cell_volume   1588.59365785
_cell_formula_units_Z   3
loop_
 _symmetry_equiv_pos_site_id
 _symmetry_equiv_pos_as_xyz
  1  'x, y, z'
loop_
 _atom_site_type_symbol
 _atom_site_label
 _atom_site_symmetry_multiplicity
 _atom_site_fract_x
 _atom_site_fract_y
 _atom_site_fract_z
 _atom_site_occupancy
  Sc  Sc0  1  0.00229665  0.00916162  0.36115148  1
  Sc  Sc1  1  0.67775335  0.34546658  0.69482419  1
  Sc  Sc2  1  0.67386892  0.32886773  0.18604583  1
  Nb  Nb0  1  0.00751206  0.98649051  0.85803643  1
  Nb  Nb1  1  0.01478942  0.01587156  0.64655761  1
  Nb  Nb2  1  0.99867012  0.99475076  0.13924171  1
  Nb  Nb3  1  0.67953529  0.33966881  0.97388111  1
  Nb  Nb4  1  0.66914094  0.32267285  0.47471053  1
  Nb  Nb5  1  0.34405307  0.68764555  0.02328272  1
  Nb  Nb6  1  0.33683136  0.65489457  0.52361233  1
  Nb  Nb7  1  0.34475678  0.66986037  0.31149440  1
  Nb  Nb8  1  0.34146821  0.67238369  0.80734814  1
  Si  Si0  1  0.28835516  0.28731077  0.75270323  1
  Si  Si1  1  0.00269443  0.71420096  0.74956325  1
  Si  Si2  1  0.94770524  0.33105260  0.58506317  1
  Si  Si3  1  0.95147825  0.60995872  0.08344827  1
  Si  Si4  1  0.66811485  0.05480793  0.08447249  1
  Si  Si5  1  0.61479130  0.66690558  0.91580153  1
  Si  Si6  1  0.34225924  0.95663220  0.91547868  1
  Si  Si7  1  0.61669259  0.94731237  0.41681552  1
  Si  Si8  1  0.33919612  0.38067953  0.41717610  1
  S  S0  1  0.28330481  0.99760723  0.25079107  1
  S  S1  1  0.71477727  0.71442567  0.25007785  1
  S  S2  1  0.00393799  0.28878780  0.25048311  1
  S  S3  1  0.71819475  0.99921612  0.75021749  1
  S  S4  1  0.37982464  0.04452643  0.58258904  1
  S  S5  1  0.67128691  0.62193565  0.58320209  1
  S  S6  1  0.38051241  0.33472878  0.08340043  1
  S  S7  1  0.05181980  0.38168458  0.91596036  1
  S  S8  1  0.05029765  0.66416883  0.41679077  1
  O  O0  1  0.19912564  0.01655665  0.30252463  1
  O  O1  1  0.81782038  0.79369458  0.30153865  1
  O  O2  1  0.97922500  0.18183820  0.30234860  1
  O  O3  1  0.17784445  0.16579960  0.80773539  1
  O  O4  1  0.97873342  0.81221101  0.80717397  1
  O  O5  1  0.81992218  0.02177587  0.80246273  1
  O  O6  1  0.79892678  0.97067110  0.69712190  1
  O  O7  1  0.16062589  0.19730209  0.69338501  1
  O  O8  1  0.02901596  0.84156041  0.69266212  1
  O  O9  1  0.79636858  0.82687110  0.19730616  1
  O  O10  1  0.03534774  0.21057937  0.19818901  1
  O  O11  1  0.17402148  0.97101318  0.19813853  1
  O  O12  1  0.86196487  0.36231302  0.63984908  1
  O  O13  1  0.48290005  0.11659388  0.63377083  1
  O  O14  1  0.63029103  0.51394090  0.63480143  1
  O  O15  1  0.86616469  0.50621996  0.14196882  1
  O  O16  1  0.62992570  0.12686394  0.14217856  1
  O  O17  1  0.48240843  0.36415098  0.13604367  1
  O  O18  1  0.45241649  0.29696584  0.03179322  1
  O  O19  1  0.82943488  0.52835380  0.02649990  1
  O  O20  1  0.69991306  0.17379734  0.02709567  1
  O  O21  1  0.46063148  0.15721531  0.52930929  1
  O  O22  1  0.69386407  0.54075195  0.53055457  1
  O  O23  1  0.82909027  0.30875894  0.52588173  1
  O  O24  1  0.51611083  0.68519976  0.97300377  1
  O  O25  1  0.15319851  0.45669231  0.96865889  1
  O  O26  1  0.30621088  0.83430067  0.97384768  1
  O  O27  1  0.51252410  0.83194594  0.47299621  1
  O  O28  1  0.31111619  0.47918325  0.47297735  1
  O  O29  1  0.15524320  0.68948673  0.46880542  1
  O  O30  1  0.12743791  0.63088627  0.36398158  1
  O  O31  1  0.48978466  0.85817436  0.35860114  1
  O  O32  1  0.36489478  0.50950756  0.35958906  1
  O  O33  1  0.12769894  0.49106282  0.86377943  1
  O  O34  1  0.36645389  0.86032139  0.86017707  1
  O  O35  1  0.49445054  0.63600415  0.85921626  1
  O  O36  1  0.02977422  0.81458500  0.40786555  1
  O  O37  1  0.79944529  0.96523906  0.40602898  1
  O  O38  1  0.17667412  0.19617997  0.40667628  1
  O  O39  1  0.02240343  0.20569387  0.90830400  1
  O  O40  1  0.16984730  0.97578315  0.90828080  1
  O  O41  1  0.80180757  0.83991475  0.90526876  1
  O  O42  1  0.97156269  0.16018642  0.59269106  1
  O  O43  1  0.20488696  0.02828572  0.58837819  1
  O  O44  1  0.82092059  0.79651434  0.58984745  1
  O  O45  1  0.98203986  0.81189393  0.09654072  1
  O  O46  1  0.84103183  0.03002862  0.09716633  1
  O  O47  1  0.20259357  0.17416793  0.09426752  1
  O  O48  1  0.69132741  0.14540714  0.74239778  1
  O  O49  1  0.46435316  0.29498316  0.73892797  1
  O  O50  1  0.83523314  0.53034185  0.74408990  1
  O  O51  1  0.68113321  0.53952081  0.24130844  1
  O  O52  1  0.85347921  0.31123046  0.24374503  1
  O  O53  1  0.45506869  0.14737555  0.24268369  1
  O  O54  1  0.64048648  0.50007341  0.92927599  1
  O  O55  1  0.87600624  0.36686635  0.92276152  1
  O  O56  1  0.50704983  0.14556560  0.92928007  1
  O  O57  1  0.63038303  0.13807951  0.42676392  1
  O  O58  1  0.51578840  0.37742857  0.43094538  1
  O  O59  1  0.87567498  0.50721411  0.42472722  1
  O  O60  1  0.34717926  0.47823013  0.07368299  1
  O  O61  1  0.14030247  0.63417308  0.06967025  1
  O  O62  1  0.50931734  0.85712933  0.07260470  1
  O  O63  1  0.35191750  0.86864157  0.57099887  1
  O  O64  1  0.51339994  0.64487960  0.57349030  1
  O  O65  1  0.14095201  0.49819819  0.56884833  1
  O  O66  1  0.29690535  0.83566042  0.25790060  1
  O  O67  1  0.53847994  0.70480151  0.25664644  1
  O  O68  1  0.16190204  0.46547710  0.25872449  1
  O  O69  1  0.29922708  0.47431092  0.76234519  1
  O  O70  1  0.17893188  0.70690339  0.76152282  1
  O  O71  1  0.54548748  0.83679493  0.75515422  1
loop_
_geom_bond_atom_site_label_1
_geom_bond_atom_site_label_2
_geom_bond_distance
_geom_bond_site_symmetry_2
Nb0 O4 1.865956 1_455
Nb0 O40 1.895878 1_555
Nb0 O3 1.935235 1_565
Nb0 O41 1.958401 1_455
Nb0 O39 2.226103 1_565
Nb0 O5 2.252907 1_465
Nb1 O7 1.845695 1_555
Nb1 O8 1.932505 1_545
Nb1 O42 1.953954 1_455
Nb1 O6 2.106405 1_445
Nb1 O43 2.117049 1_555
Nb1 O44 2.280110 1_445
Nb2 O45 1.852531 1_555
Nb2 O46 1.861704 1_565
Nb2 O47 2.001242 1_665
Nb2 O9 2.132128 1_555
Nb2 O11 2.161747 1_655
Nb2 O10 2.250578 1_665
Nb3 O54 1.924278 1_555
Nb3 O56 1.948927 1_555
Nb3 O19 1.970012 1_556
Nb3 O20 1.991356 1_556
Nb3 O55 2.019791 1_555
Nb3 O18 2.289072 1_556
Nb4 O57 1.873121 1_555
Nb4 O23 1.904519 1_555
Nb4 O58 1.949132 1_555
Nb4 O59 2.088974 1_555
Nb4 O21 2.106888 1_555
Nb4 O22 2.257144 1_555
Nb5 O26 1.881958 1_554
Nb5 O62 1.886702 1_555
Nb5 O24 1.929482 1_554
Nb5 O61 1.947519 1_555
Nb5 O60 2.204121 1_555
Nb5 O25 2.296952 1_554
Nb6 O28 1.880345 1_555
Nb6 O65 1.903869 1_555
Nb6 O27 1.949552 1_555
Nb6 O64 1.990604 1_555
Nb6 O63 2.149329 1_555
Nb6 O29 2.196075 1_555
Nb7 O31 1.880903 1_555
Nb7 O32 1.881098 1_555
Nb7 O67 2.031010 1_555
Nb7 O66 2.121132 1_555
Nb7 O68 2.130234 1_555
Nb7 O30 2.157042 1_555
Nb8 O69 1.923910 1_555
Nb8 O70 1.940548 1_555
Nb8 O35 1.960419 1_555
Nb8 O34 1.998988 1_555
Nb8 O71 2.050947 1_555
Nb8 O33 2.195076 1_555
O0 S0 1.460226 1_545
O0 Sc0 2.186759 1_555
O1 S1 1.454472 1_555
O1 Sc0 2.276184 1_665
O2 S2 1.466973 1_655
O2 Sc0 2.129197 1_655
O3 Si0 1.629095 1_555
O4 Si1 1.663177 1_655
O5 S3 1.461464 1_545
O6 S3 1.502252 1_555
O7 Si0 1.707788 1_555
O8 Si1 1.663446 1_555
O9 S1 1.501945 1_555
O10 S2 1.488651 1_555
O11 S0 1.501372 1_555
O12 Si2 1.569265 1_555
O12 Sc1 2.016470 1_555
O13 S4 1.439361 1_555
O13 Sc1 2.383338 1_555
O14 S5 1.448296 1_555
O14 Sc1 2.225943 1_555
O15 Si3 1.586761 1_555
O15 Sc2 1.932748 1_555
O16 Si4 1.586641 1_555
O16 Sc2 1.935063 1_555
O17 S6 1.460909 1_555
O17 Sc2 2.211910 1_555
O18 S6 1.466395 1_555
O19 Si3 1.631647 1_555
O20 Si4 1.619665 1_555
O21 S4 1.511202 1_555
O22 S5 1.478791 1_555
O23 Si2 1.677795 1_555
O24 Si5 1.634619 1_555
O25 S7 1.465804 1_555
O26 Si6 1.649270 1_555
O27 Si7 1.615522 1_555
O28 Si8 1.647798 1_555
O29 S8 1.469214 1_555
O30 S8 1.496910 1_555
O31 Si7 1.683123 1_555
O32 Si8 1.684855 1_555
O33 S7 1.472362 1_555
O34 Si6 1.612675 1_555
O35 Si5 1.625168 1_555
O36 S8 1.456412 1_555
O36 Sc0 2.151846 1_565
O37 Si7 1.578239 1_555
O37 Sc0 1.943411 1_665
O38 Si8 1.581282 1_555
O38 Sc0 1.936113 1_555
O39 S7 1.469900 1_555
O40 Si6 1.641732 1_555
O41 Si5 1.628668 1_555
O42 Si2 1.650521 1_555
O43 S4 1.501796 1_555
O44 S5 1.471298 1_555
O45 Si3 1.712316 1_555
O46 Si4 1.692817 1_555
O47 S6 1.536971 1_555
O48 S3 1.450206 1_545
O48 Sc1 2.142060 1_555
O49 Si0 1.571054 1_555
O49 Sc1 1.997751 1_555
O50 Si1 1.581648 1_655
O50 Sc1 1.924705 1_555
O51 S1 1.451024 1_555
O51 Sc2 2.250995 1_555
O52 S2 1.463645 1_655
O52 Sc2 2.149887 1_555
O53 S0 1.457547 1_545
O53 Sc2 2.221096 1_555
O54 Si5 1.643836 1_555
O55 S7 1.517127 1_655
O56 Si6 1.626431 1_545
O57 Si7 1.663009 1_545
O58 Si8 1.625015 1_555
O59 S8 1.497871 1_655
O60 S6 1.468745 1_555
O61 Si3 1.620647 1_455
O62 Si4 1.646794 1_565
O63 S4 1.488049 1_565
O64 S5 1.540419 1_555
O65 Si2 1.662332 1_455
O66 S0 1.517882 1_555
O67 S1 1.541446 1_555
O68 S2 1.516542 1_555
O69 Si0 1.639893 1_555
O70 Si1 1.632689 1_555
O71 S3 1.503323 1_555
