# generated using pymatgen
data_MgCo3NiO8
_symmetry_space_group_name_H-M   'P 1'
_cell_length_a   5.68518205
_cell_length_b   5.75151955
_cell_length_c   5.79343321
_cell_angle_alpha   73.44409109
_cell_angle_beta   60.00149830
_cell_angle_gamma   61.95985555
_symmetry_Int_Tables_number   1
_chemical_formula_structural   MgCo3NiO8
_chemical_formula_sum   'Mg1 Co3 Ni1 O8'
_cell_volume   144.49245318
_cell_formula_units_Z   1
loop_
 _symmetry_equiv_pos_site_id
 _symmetry_equiv_pos_as_xyz
  1  'x, y, z'
loop_
 _atom_site_type_symbol
 _atom_site_label
 _atom_site_symmetry_multiplicity
 _atom_site_fract_x
 _atom_site_fract_y
 _atom_site_fract_z
 _atom_site_occupancy
  Mg  Mg0  1  0.75195795  0.01306162  0.50718524  1
  Co  Co0  1  0.47534952  0.01577672  0.03326455  1
  Co  Co1  1  0.99552280  0.51200084  0.00534026  1
  Co  Co2  1  0.49060893  0.51027755  0.00184191  1
  Ni  Ni0  1  0.00409036  0.00779219  0.98206909  1
  O  O0  1  0.28939548  0.16330730  0.79989781  1
  O  O1  1  0.75866506  0.17094038  0.79854398  1
  O  O2  1  0.23948196  0.70041621  0.80059645  1
  O  O3  1  0.72496876  0.71945422  0.81770188  1
  O  O4  1  0.23953862  0.31609938  0.20878319  1
  O  O5  1  0.75727803  0.30481318  0.19421945  1
  O  O6  1  0.19098787  0.85255511  0.21276857  1
  O  O7  1  0.72501166  0.85636231  0.21070362  1
loop_
_geom_bond_atom_site_label_1
_geom_bond_atom_site_label_2
_geom_bond_distance
_geom_bond_site_symmetry_2
Mg0 O3 2.085129 1_545
Mg0 O5 2.088806 1_555
Mg0 O6 2.113131 1_645
Mg0 O1 2.155379 1_555
Mg0 O0 2.185717 1_555
Mg0 O7 2.249713 1_545
Co0 O4 1.809849 1_555
Co0 O0 1.896730 1_554
Co0 O7 1.900096 1_545
Co0 O3 1.909201 1_544
Co0 O1 1.926029 1_554
Co0 O6 1.940536 1_545
Co1 O2 1.881603 1_654
Co1 O5 1.935014 1_555
Co1 O4 1.997956 1_655
Co1 O3 2.044161 1_554
Co1 O7 2.086379 1_555
Co1 O0 2.109912 1_654
Co2 O3 1.927439 1_554
Co2 O4 1.935600 1_555
Co2 O2 2.015819 1_554
Co2 O5 2.047367 1_555
Co2 O1 2.058546 1_554
Co2 O6 2.099301 1_555
Ni0 O2 1.857325 1_545
Ni0 O6 1.886950 1_546
Ni0 O7 1.889615 1_446
Ni0 O5 1.901653 1_456
Ni0 O1 1.908333 1_455
Ni0 O0 1.912868 1_555
