# generated using pymatgen
data_Rb2MnCl4
_symmetry_space_group_name_H-M   'P 1'
_cell_length_a   5.04465781
_cell_length_b   5.04465873
_cell_length_c   8.86125975
_cell_angle_alpha   106.53773638
_cell_angle_beta   106.53773810
_cell_angle_gamma   89.99999683
_symmetry_Int_Tables_number   1
_chemical_formula_structural   Rb2MnCl4
_chemical_formula_sum   'Rb2 Mn1 Cl4'
_cell_volume   206.42802072
_cell_formula_units_Z   1
loop_
 _symmetry_equiv_pos_site_id
 _symmetry_equiv_pos_as_xyz
  1  'x, y, z'
loop_
 _atom_site_type_symbol
 _atom_site_label
 _atom_site_symmetry_multiplicity
 _atom_site_fract_x
 _atom_site_fract_y
 _atom_site_fract_z
 _atom_site_occupancy
  Rb  Rb0  1  0.35832353  0.35832353  0.71664606  1
  Rb  Rb1  1  0.64167647  0.64167647  0.28335394  1
  Mn  Mn0  1  -0.00000000  -0.00000000  -0.00000000  1
  Cl  Cl0  1  0.84392059  0.84392059  0.68784117  1
  Cl  Cl1  1  0.15607941  0.15607941  0.31215883  1
  Cl  Cl2  1  -0.00000000  0.50000000  -0.00000000  1
  Cl  Cl3  1  0.50000000  -0.00000000  -0.00000000  1
loop_
_geom_bond_atom_site_label_1
_geom_bond_atom_site_label_2
_geom_bond_distance
_geom_bond_site_symmetry_2
Cl0 Mn0 2.532100 1_666
Cl0 Rb1 3.281028 1_555
Cl0 Rb0 3.574753 1_555
Cl0 Rb0 3.574756 1_655
Cl0 Rb0 3.574756 1_565
Cl0 Rb0 3.574760 1_665
Cl1 Mn0 2.532100 1_555
Cl1 Rb0 3.281028 1_555
Cl1 Rb1 3.574753 1_555
Cl1 Rb1 3.574756 1_455
Cl1 Rb1 3.574756 1_545
Cl1 Rb1 3.574760 1_445
Cl2 Mn0 2.522329 1_555
Cl2 Mn0 2.522329 1_565
Cl2 Rb0 3.412475 1_454
Cl2 Rb1 3.412475 1_555
Cl2 Rb0 3.412479 1_554
Cl2 Rb1 3.412479 1_455
Cl3 Mn0 2.522329 1_555
Cl3 Mn0 2.522329 1_655
Cl3 Rb0 3.412476 1_544
Cl3 Rb1 3.412476 1_555
Cl3 Rb1 3.412479 1_545
Cl3 Rb0 3.412479 1_554
