# generated using pymatgen
data_Tm6MgWO12
_symmetry_space_group_name_H-M   'P 1'
_cell_length_a   6.59565007
_cell_length_b   6.56828713
_cell_length_c   6.34143706
_cell_angle_alpha   98.86796166
_cell_angle_beta   97.81980585
_cell_angle_gamma   100.43712934
_symmetry_Int_Tables_number   1
_chemical_formula_structural   Tm6MgWO12
_chemical_formula_sum   'Tm6 Mg1 W1 O12'
_cell_volume   263.12049224
_cell_formula_units_Z   1
loop_
 _symmetry_equiv_pos_site_id
 _symmetry_equiv_pos_as_xyz
  1  'x, y, z'
loop_
 _atom_site_type_symbol
 _atom_site_label
 _atom_site_symmetry_multiplicity
 _atom_site_fract_x
 _atom_site_fract_y
 _atom_site_fract_z
 _atom_site_occupancy
  Tm  Tm0  1  0.41150600  0.86966300  0.73872600  1
  Tm  Tm1  1  0.32474300  0.57513800  0.14052100  1
  Tm  Tm2  1  0.14848800  0.34277300  0.61044700  1
  Tm  Tm3  1  0.82678100  0.65655200  0.39619500  1
  Tm  Tm4  1  0.69200400  0.39537300  0.86219300  1
  Tm  Tm5  1  0.63608300  0.12500300  0.30493000  1
  Mg  Mg0  1  0.19475900  0.93972800  0.36722300  1
  W  W0  1  0.99180500  0.99872800  0.97372400  1
  O  O0  1  0.05650000  0.91821700  0.67269900  1
  O  O1  1  0.30405300  0.92134400  0.08312400  1
  O  O2  1  0.17236400  0.62535000  0.42583300  1
  O  O3  1  0.57615600  0.82014300  0.42553900  1
  O  O4  1  0.07918500  0.31371900  0.94140000  1
  O  O5  1  0.42549100  0.56552500  0.81672100  1
  O  O6  1  0.57645000  0.40990500  0.18386200  1
  O  O7  1  0.88937700  0.70572500  0.05498800  1
  O  O8  1  0.40985300  0.16200400  0.56835900  1
  O  O9  1  0.82244200  0.39531600  0.56705300  1
  O  O10  1  0.68961700  0.06949200  0.93856000  1
  O  O11  1  0.98067500  0.10697000  0.30290600  1
loop_
_geom_bond_atom_site_label_1
_geom_bond_atom_site_label_2
_geom_bond_distance
_geom_bond_site_symmetry_2
Mg0 O11 1.977436 1_465
Mg0 O8 1.988489 1_565
Mg0 O1 2.024312 1_555
Mg0 O2 2.136569 1_555
Mg0 O0 2.263298 1_555
O0 W0 2.024331 1_455
O0 Tm3 2.393435 1_455
O0 Tm0 2.409267 1_555
O0 Tm2 2.844619 1_565
O1 W0 2.253949 1_454
O1 Tm0 2.380559 1_554
O1 Tm1 2.382476 1_555
O1 Tm5 2.466585 1_565
O2 Tm1 2.196209 1_555
O2 Tm3 2.310258 1_455
O2 Tm2 2.335487 1_555
O2 Tm0 2.499923 1_555
O3 Tm3 2.141805 1_555
O3 Tm5 2.240208 1_565
O3 Tm0 2.396928 1_555
O3 Tm1 2.434555 1_555
O4 W0 2.094185 1_445
O4 Tm1 2.221117 1_556
O4 Tm2 2.236716 1_555
O4 Tm4 2.700300 1_455
O5 Tm0 2.145410 1_555
O5 Tm2 2.231773 1_555
O5 Tm1 2.237932 1_556
O5 Tm4 2.257292 1_555
O6 Tm1 2.151788 1_555
O6 Tm5 2.207582 1_555
O6 Tm3 2.217446 1_555
O6 Tm4 2.267230 1_554
O7 W0 2.086918 1_554
O7 Tm4 2.276374 1_554
O7 Tm3 2.316635 1_555
O8 Tm2 2.285134 1_555
O8 Tm0 2.344866 1_545
O8 Tm5 2.400138 1_555
O8 Tm4 2.535167 1_555
O9 Tm4 2.163596 1_555
O9 Tm3 2.163983 1_555
O9 Tm2 2.226335 1_655
O9 Tm5 2.273683 1_555
O10 W0 2.117776 1_545
O10 Tm0 2.162338 1_545
O10 Tm4 2.264042 1_555
O10 Tm5 2.379935 1_556
O11 W0 2.114590 1_544
O11 Tm5 2.298882 1_555
O11 Tm2 2.299482 1_655
