# generated using pymatgen
data_UFe2
_symmetry_space_group_name_H-M   'P 1'
_cell_length_a   5.03271404
_cell_length_b   5.03268320
_cell_length_c   5.03272355
_cell_angle_alpha   60.00134978
_cell_angle_beta   59.99991342
_cell_angle_gamma   60.00069919
_symmetry_Int_Tables_number   1
_chemical_formula_structural   UFe2
_chemical_formula_sum   'U2 Fe4'
_cell_volume   90.13560253
_cell_formula_units_Z   2
loop_
 _symmetry_equiv_pos_site_id
 _symmetry_equiv_pos_as_xyz
  1  'x, y, z'
loop_
 _atom_site_type_symbol
 _atom_site_label
 _atom_site_symmetry_multiplicity
 _atom_site_fract_x
 _atom_site_fract_y
 _atom_site_fract_z
 _atom_site_occupancy
  U  U0  1  0.12502379  0.12498152  0.12501171  1
  U  U1  1  0.87497621  0.87501848  0.87498829  1
  Fe  Fe0  1  0.50000000  -0.00000000  0.50000000  1
  Fe  Fe1  1  0.00000000  0.50000000  0.50000000  1
  Fe  Fe2  1  0.50000000  0.50000000  0.50000000  1
  Fe  Fe3  1  0.50000000  0.50000000  -0.00000000  1
loop_
_geom_bond_atom_site_label_1
_geom_bond_atom_site_label_2
_geom_bond_distance
_geom_bond_site_symmetry_2
U0 U1 3.081704 1_544
U0 U1 3.081829 1_445
U0 U1 3.082016 1_444
U0 U1 3.082077 1_454
Fe0 Fe2 2.516342 1_545
Fe0 Fe2 2.516342 1_555
Fe0 Fe1 2.516376 1_555
Fe0 Fe1 2.516376 1_645
Fe0 Fe3 2.516403 1_555
Fe0 Fe3 2.516403 1_546
Fe0 U0 2.950596 1_555
Fe0 U1 2.950596 1_545
Fe0 U0 2.950692 1_556
Fe0 U1 2.950692 1_544
Fe0 U0 2.950749 1_655
Fe0 U1 2.950749 1_445
Fe1 Fe3 2.516356 1_456
Fe1 Fe3 2.516356 1_555
Fe1 Fe2 2.516357 1_555
Fe1 Fe2 2.516357 1_455
Fe1 U1 2.950640 1_455
Fe1 U0 2.950640 1_555
Fe1 U0 2.950679 1_565
Fe1 U1 2.950679 1_445
Fe1 U0 2.950843 1_556
Fe1 U1 2.950843 1_454
Fe2 Fe3 2.516362 1_555
Fe2 Fe3 2.516362 1_556
Fe2 U1 2.950632 1_545
Fe2 U0 2.950632 1_565
Fe2 U0 2.950727 1_556
Fe2 U1 2.950727 1_554
Fe2 U0 2.950746 1_655
Fe2 U1 2.950746 1_455
Fe3 U1 2.950627 1_554
Fe3 U0 2.950627 1_555
Fe3 U1 2.950627 1_544
Fe3 U0 2.950627 1_565
Fe3 U1 2.950848 1_454
Fe3 U0 2.950848 1_655
