# generated using pymatgen
data_CsSr2Nb3O10
_symmetry_space_group_name_H-M   'P 1'
_cell_length_a   3.99915500
_cell_length_b   3.99915500
_cell_length_c   15.67115000
_cell_angle_alpha   90.00000000
_cell_angle_beta   90.00000000
_cell_angle_gamma   90.00000000
_symmetry_Int_Tables_number   1
_chemical_formula_structural   CsSr2Nb3O10
_chemical_formula_sum   'Cs1 Sr2 Nb3 O10'
_cell_volume   250.63247422
_cell_formula_units_Z   1
loop_
 _symmetry_equiv_pos_site_id
 _symmetry_equiv_pos_as_xyz
  1  'x, y, z'
loop_
 _atom_site_type_symbol
 _atom_site_label
 _atom_site_symmetry_multiplicity
 _atom_site_fract_x
 _atom_site_fract_y
 _atom_site_fract_z
 _atom_site_occupancy
  Cs  Cs0  1  0.50000000  0.50000000  0.50000000  1
  Sr  Sr0  1  0.50000000  0.50000000  0.85500400  1
  Sr  Sr1  1  0.50000000  0.50000000  0.14499600  1
  Nb  Nb0  1  0.00000000  0.00000000  0.71812200  1
  Nb  Nb1  1  0.00000000  0.00000000  0.28187800  1
  Nb  Nb2  1  0.00000000  0.00000000  0.00000000  1
  O  O0  1  0.00000000  0.00000000  0.60362300  1
  O  O1  1  0.00000000  0.00000000  0.39637700  1
  O  O2  1  0.50000000  0.00000000  0.74402900  1
  O  O3  1  0.00000000  0.50000000  0.74402900  1
  O  O4  1  0.50000000  0.00000000  0.25597100  1
  O  O5  1  0.00000000  0.50000000  0.25597100  1
  O  O6  1  0.00000000  0.50000000  0.00000000  1
  O  O7  1  0.50000000  0.00000000  0.00000000  1
  O  O8  1  0.00000000  0.00000000  0.12669800  1
  O  O9  1  0.00000000  0.00000000  0.87330200  1
loop_
_geom_bond_atom_site_label_1
_geom_bond_atom_site_label_2
_geom_bond_distance
_geom_bond_site_symmetry_2
Cs0 O1 3.260927 1_555
Cs0 O0 3.260927 1_555
Cs0 O0 3.260927 1_565
Cs0 O1 3.260927 1_565
Cs0 O0 3.260927 1_665
Cs0 O1 3.260927 1_665
Cs0 O1 3.260927 1_655
Cs0 O0 3.260927 1_655
Nb0 O0 1.794331 1_555
Nb0 O3 2.040377 1_545
Nb0 O2 2.040377 1_455
Nb0 O2 2.040377 1_555
Nb0 O3 2.040377 1_555
Nb0 O9 2.431849 1_555
Nb1 O1 1.794331 1_555
Nb1 O5 2.040377 1_555
Nb1 O4 2.040377 1_455
Nb1 O5 2.040377 1_545
Nb1 O4 2.040377 1_555
Nb1 O8 2.431849 1_555
Nb2 O8 1.985503 1_555
Nb2 O9 1.985503 1_554
Nb2 O6 1.999578 1_545
Nb2 O7 1.999578 1_555
Nb2 O7 1.999578 1_455
Nb2 O6 1.999578 1_555
O2 Sr0 2.650056 1_545
O2 Sr0 2.650056 1_555
O3 Sr0 2.650056 1_555
O3 Sr0 2.650056 1_455
O4 Sr1 2.650056 1_545
O4 Sr1 2.650056 1_555
O5 Sr1 2.650056 1_455
O5 Sr1 2.650056 1_555
O6 Sr1 3.026789 1_455
O6 Sr1 3.026789 1_555
O6 Sr0 3.026789 1_454
O6 Sr0 3.026789 1_554
O7 Sr1 3.026789 1_545
O7 Sr1 3.026789 1_555
O7 Sr0 3.026789 1_544
O7 Sr0 3.026789 1_554
O8 Sr1 2.842331 1_455
O8 Sr1 2.842331 1_545
O8 Sr1 2.842331 1_555
O8 Sr1 2.842331 1_445
O9 Sr0 2.842331 1_455
O9 Sr0 2.842331 1_555
O9 Sr0 2.842331 1_445
O9 Sr0 2.842331 1_545
