# generated using pymatgen
data_Na2Mg3Zr(SO4)6
_symmetry_space_group_name_H-M   'P 1'
_cell_length_a   8.71383244
_cell_length_b   8.71383217
_cell_length_c   23.01755740
_cell_angle_alpha   90.00000000
_cell_angle_beta   90.00000000
_cell_angle_gamma   120.00000104
_symmetry_Int_Tables_number   1
_chemical_formula_structural   Na2Mg3Zr(SO4)6
_chemical_formula_sum   'Na6 Mg9 Zr3 S18 O72'
_cell_volume   1513.59002650
_cell_formula_units_Z   3
loop_
 _symmetry_equiv_pos_site_id
 _symmetry_equiv_pos_as_xyz
  1  'x, y, z'
loop_
 _atom_site_type_symbol
 _atom_site_label
 _atom_site_symmetry_multiplicity
 _atom_site_fract_x
 _atom_site_fract_y
 _atom_site_fract_z
 _atom_site_occupancy
  Na  Na0  1  -0.00000000  -0.00000000  0.51008974  1
  Na  Na1  1  -0.00000000  -0.00000000  0.00707465  1
  Na  Na2  1  0.66666700  0.33333300  0.82641233  1
  Na  Na3  1  0.66666700  0.33333300  0.33766278  1
  Na  Na4  1  0.33333300  0.66666700  0.17889516  1
  Na  Na5  1  0.33333300  0.66666700  0.65700558  1
  Mg  Mg0  1  -0.00000000  -0.00000000  0.64375934  1
  Mg  Mg1  1  -0.00000000  -0.00000000  0.15232519  1
  Mg  Mg2  1  0.66666700  0.33333300  0.67641072  1
  Mg  Mg3  1  0.66666700  0.33333300  0.18754832  1
  Mg  Mg4  1  0.66666700  0.33333300  0.98391815  1
  Mg  Mg5  1  0.66666700  0.33333300  0.48705844  1
  Mg  Mg6  1  0.33333300  0.66666700  0.52059461  1
  Mg  Mg7  1  0.33333300  0.66666700  0.31813760  1
  Mg  Mg8  1  0.33333300  0.66666700  0.81163609  1
  Zr  Zr0  1  -0.00000000  -0.00000000  0.35437836  1
  Zr  Zr1  1  -0.00000000  -0.00000000  0.84810507  1
  Zr  Zr2  1  0.33333300  0.66666700  0.02243690  1
  S  S0  1  0.29591632  0.99841923  0.24776307  1
  S  S1  1  0.70250291  0.70408368  0.24776307  1
  S  S2  1  0.00158077  0.29749709  0.24776307  1
  S  S3  1  0.29914008  0.29856392  0.74717892  1
  S  S4  1  -0.00057616  0.70085992  0.74717892  1
  S  S5  1  0.70143608  0.00057616  0.74717892  1
  S  S6  1  0.96179138  0.33444031  0.58339563  1
  S  S7  1  0.37264993  0.03820862  0.58339563  1
  S  S8  1  0.66555969  0.62735007  0.58339563  1
  S  S9  1  0.94945383  0.62564594  0.08377939  1
  S  S10  1  0.67619311  0.05054617  0.08377939  1
  S  S11  1  0.37435406  0.32380689  0.08377939  1
  S  S12  1  0.62312932  0.66061159  0.91547116  1
  S  S13  1  0.03748127  0.37687068  0.91547116  1
  S  S14  1  0.33938841  0.96251873  0.91547116  1
  S  S15  1  0.61680259  0.95937219  0.41699187  1
  S  S16  1  0.34256861  0.38319741  0.41699187  1
  S  S17  1  0.04062781  0.65743139  0.41699187  1
  O  O0  1  0.20673648  0.02108870  0.30063574  1
  O  O1  1  0.81435222  0.79326352  0.30063574  1
  O  O2  1  0.97891130  0.18564778  0.30063574  1
  O  O3  1  0.20946445  0.18621783  0.80293315  1
  O  O4  1  0.97675339  0.79053555  0.80293315  1
  O  O5  1  0.81378217  0.02324661  0.80293315  1
  O  O6  1  0.79167452  0.97738249  0.69794224  1
  O  O7  1  0.18570797  0.20832548  0.69794224  1
  O  O8  1  0.02261751  0.81429203  0.69794224  1
  O  O9  1  0.78714213  0.81235037  0.19587737  1
  O  O10  1  0.02520824  0.21285787  0.19587737  1
  O  O11  1  0.18764963  0.97479176  0.19587737  1
  O  O12  1  0.88081261  0.35840371  0.63668975  1
  O  O13  1  0.47759210  0.11918739  0.63668975  1
  O  O14  1  0.64159629  0.52240790  0.63668975  1
  O  O15  1  0.87324554  0.51767119  0.13533961  1
  O  O16  1  0.64442664  0.12675446  0.13533961  1
  O  O17  1  0.48232881  0.35557336  0.13533961  1
  O  O18  1  0.45524606  0.30662158  0.02998443  1
  O  O19  1  0.85137652  0.54475394  0.02998443  1
  O  O20  1  0.69337842  0.14862348  0.02998443  1
  O  O21  1  0.45619589  0.14601749  0.53123872  1
  O  O22  1  0.68982259  0.54380411  0.53123872  1
  O  O23  1  0.85398251  0.31017741  0.53123872  1
  O  O24  1  0.53976732  0.68722339  0.96902534  1
  O  O25  1  0.14745507  0.46023268  0.96902534  1
  O  O26  1  0.31277661  0.85254493  0.96902534  1
  O  O27  1  0.54071531  0.85095587  0.46855441  1
  O  O28  1  0.31023956  0.45928469  0.46855441  1
  O  O29  1  0.14904413  0.68976044  0.46855441  1
  O  O30  1  0.12172514  0.63990487  0.36324264  1
  O  O31  1  0.51817873  0.87827486  0.36324264  1
  O  O32  1  0.36009513  0.48182127  0.36324264  1
  O  O33  1  0.12477552  0.48115449  0.86409276  1
  O  O34  1  0.35637797  0.87522448  0.86409276  1
  O  O35  1  0.51884551  0.64362203  0.86409276  1
  O  O36  1  0.02135124  0.82348163  0.40970747  1
  O  O37  1  0.80213039  0.97864876  0.40970747  1
  O  O38  1  0.17651837  0.19786961  0.40970747  1
  O  O39  1  0.02213192  0.19698623  0.91239938  1
  O  O40  1  0.17485432  0.97786808  0.91239938  1
  O  O41  1  0.80301377  0.82514568  0.91239938  1
  O  O42  1  0.97972604  0.17369315  0.58893761  1
  O  O43  1  0.19396710  0.02027396  0.58893761  1
  O  O44  1  0.82630685  0.80603290  0.58893761  1
  O  O45  1  0.97704420  0.80637902  0.08905612  1
  O  O46  1  0.82933482  0.02295580  0.08905612  1
  O  O47  1  0.19362098  0.17066518  0.08905612  1
  O  O48  1  0.68811588  0.16183170  0.74501099  1
  O  O49  1  0.47371682  0.31188412  0.74501099  1
  O  O50  1  0.83816830  0.52628318  0.74501099  1
  O  O51  1  0.68876901  0.52870226  0.24399356  1
  O  O52  1  0.83993424  0.31123099  0.24399356  1
  O  O53  1  0.47129774  0.16006576  0.24399356  1
  O  O54  1  0.64417884  0.50488911  0.92320824  1
  O  O55  1  0.86071128  0.35582116  0.92320824  1
  O  O56  1  0.49511089  0.13928872  0.92320824  1
  O  O57  1  0.64419910  0.13979832  0.42255694  1
  O  O58  1  0.49560021  0.35580090  0.42255694  1
  O  O59  1  0.86020168  0.50439979  0.42255694  1
  O  O60  1  0.35449350  0.48947635  0.07706161  1
  O  O61  1  0.13498185  0.64550650  0.07706161  1
  O  O62  1  0.51052365  0.86501815  0.07706161  1
  O  O63  1  0.35363964  0.85955669  0.57792222  1
  O  O64  1  0.50591605  0.64636036  0.57792222  1
  O  O65  1  0.14044331  0.49408395  0.57792222  1
  O  O66  1  0.31248812  0.83905668  0.25540023  1
  O  O67  1  0.52656757  0.68751188  0.25540023  1
  O  O68  1  0.16094332  0.47343243  0.25540023  1
  O  O69  1  0.31293516  0.47179106  0.75679307  1
  O  O70  1  0.15885491  0.68706484  0.75679307  1
  O  O71  1  0.52820893  0.84114509  0.75679307  1
loop_
_geom_bond_atom_site_label_1
_geom_bond_atom_site_label_2
_geom_bond_distance
_geom_bond_site_symmetry_2
Na0 O44 2.425528 1_445
Na0 O43 2.425528 1_555
Na0 O42 2.425528 1_455
Na0 O38 2.832907 1_555
Na0 O36 2.832907 1_545
Na0 O37 2.832907 1_445
Na1 O45 2.471825 1_445
Na1 O47 2.471825 1_555
Na1 O46 2.471825 1_455
Na1 O39 2.720557 1_554
Na1 O41 2.720557 1_444
Na1 O40 2.720557 1_544
Na2 O50 2.461337 1_555
Na2 O48 2.461337 1_555
Na2 O49 2.461337 1_555
Na2 O54 2.744104 1_555
Na2 O56 2.744104 1_555
Na2 O55 2.744104 1_555
Na3 O57 2.523992 1_555
Na3 O59 2.523992 1_555
Na3 O58 2.523992 1_555
Na3 O52 2.693683 1_555
Na3 O53 2.693683 1_555
Na3 O51 2.693683 1_555
Na4 O66 2.379780 1_555
Na4 O68 2.379780 1_555
Na4 O67 2.379780 1_555
Na4 O62 2.863007 1_555
Na4 O60 2.863007 1_555
Na4 O61 2.863007 1_555
Na5 O63 2.423329 1_555
Na5 O65 2.423329 1_555
Na5 O64 2.423329 1_555
Na5 O71 2.808727 1_555
Na5 O70 2.808727 1_555
Na5 O69 2.808727 1_555
Mg0 O44 2.044914 1_445
Mg0 O43 2.044914 1_555
Mg0 O42 2.044914 1_455
Mg0 O7 2.128811 1_555
Mg0 O8 2.128811 1_545
Mg0 O6 2.128811 1_445
Mg1 O10 2.021403 1_555
Mg1 O9 2.021403 1_445
Mg1 O11 2.021403 1_545
Mg1 O45 2.160997 1_445
Mg1 O47 2.160997 1_555
Mg1 O46 2.160997 1_455
Mg2 O13 1.989482 1_555
Mg2 O14 1.989482 1_555
Mg2 O12 1.989483 1_555
Mg2 O50 2.245184 1_555
Mg2 O48 2.245184 1_555
Mg2 O49 2.245184 1_555
Mg3 O52 2.072544 1_555
Mg3 O53 2.072544 1_555
Mg3 O51 2.072544 1_555
Mg3 O16 2.091208 1_555
Mg3 O15 2.091209 1_555
Mg3 O17 2.091209 1_555
Mg4 O19 2.035607 1_556
Mg4 O20 2.035607 1_556
Mg4 O18 2.035607 1_556
Mg4 O54 2.125749 1_555
Mg4 O56 2.125749 1_555
Mg4 O55 2.125749 1_555
Mg5 O23 2.017023 1_555
Mg5 O21 2.017023 1_555
Mg5 O22 2.017023 1_555
Mg5 O57 2.180926 1_555
Mg5 O59 2.180926 1_555
Mg5 O58 2.180926 1_555
Mg6 O63 2.073693 1_555
Mg6 O65 2.073693 1_555
Mg6 O64 2.073693 1_555
Mg6 O28 2.092189 1_555
Mg6 O27 2.092189 1_555
Mg6 O29 2.092189 1_555
Mg7 O31 2.025409 1_555
Mg7 O32 2.025409 1_555
Mg7 O30 2.025409 1_555
Mg7 O66 2.155849 1_555
Mg7 O68 2.155850 1_555
Mg7 O67 2.155850 1_555
Mg8 O71 2.051072 1_555
Mg8 O70 2.051072 1_555
Mg8 O69 2.051072 1_555
Mg8 O34 2.106173 1_555
Mg8 O33 2.106173 1_555
Mg8 O35 2.106173 1_555
O0 S0 1.509138 1_545
O0 Zr0 2.116184 1_555
O1 S1 1.509138 1_555
O1 Zr0 2.116184 1_665
O2 S2 1.509138 1_655
O2 Zr0 2.116184 1_655
O3 S3 1.565545 1_555
O3 Zr1 2.020858 1_555
O4 S4 1.565545 1_655
O4 Zr1 2.020858 1_665
O5 S5 1.565545 1_555
O5 Zr1 2.020858 1_655
O6 S5 1.449985 1_565
O7 S3 1.449985 1_555
O8 S4 1.449985 1_555
O9 S1 1.471224 1_555
O10 S2 1.471224 1_555
O11 S0 1.471224 1_555
O12 S6 1.481102 1_555
O13 S7 1.481102 1_555
O14 S8 1.481102 1_555
O15 S9 1.452548 1_555
O16 S10 1.452548 1_555
O17 S11 1.452548 1_555
O18 S11 1.469029 1_555
O19 S9 1.469029 1_555
O20 S10 1.469029 1_555
O21 S7 1.473047 1_555
O22 S8 1.473047 1_555
O23 S6 1.473047 1_555
O24 S12 1.506451 1_555
O24 Zr2 2.111186 1_556
O25 S13 1.506451 1_555
O25 Zr2 2.111186 1_556
O26 S14 1.506451 1_555
O26 Zr2 2.111186 1_556
O27 S15 1.454070 1_555
O28 S16 1.454070 1_555
O29 S17 1.454070 1_555
O30 S17 1.470114 1_555
O31 S15 1.470114 1_555
O32 S16 1.470114 1_555
O33 S13 1.453169 1_555
O34 S14 1.453169 1_555
O35 S12 1.453169 1_555
O36 S17 1.546930 1_555
O36 Zr0 2.075718 1_565
O37 S15 1.546938 1_555
O37 Zr0 2.075718 1_665
O38 S16 1.546935 1_555
O38 Zr0 2.075718 1_555
O39 S13 1.506731 1_555
O39 Zr1 2.200601 1_555
O40 S14 1.506722 1_555
O40 Zr1 2.200601 1_565
O41 S12 1.506727 1_555
O41 Zr1 2.200601 1_665
O42 S6 1.490512 1_555
O43 S7 1.490521 1_555
O44 S8 1.490517 1_555
O45 S9 1.474505 1_555
O46 S10 1.474496 1_555
O47 S11 1.474501 1_555
O48 S5 1.467486 1_555
O49 S3 1.467495 1_555
O50 S4 1.467491 1_655
O51 S1 1.474615 1_555
O52 S2 1.474606 1_655
O53 S0 1.474611 1_545
O54 S12 1.468175 1_555
O55 S13 1.468157 1_655
O56 S14 1.468164 1_545
O57 S15 1.473055 1_545
O58 S16 1.473072 1_555
O59 S17 1.473062 1_655
O60 S11 1.545225 1_555
O60 Zr2 2.069670 1_555
O61 S9 1.545208 1_455
O61 Zr2 2.069670 1_555
O62 S10 1.545215 1_565
O62 Zr2 2.069670 1_555
O63 S7 1.486231 1_565
O64 S8 1.486248 1_555
O65 S6 1.486238 1_455
O66 S0 1.476704 1_555
O67 S1 1.476712 1_555
O68 S2 1.476709 1_555
O69 S3 1.469856 1_555
O70 S4 1.469848 1_555
O71 S5 1.469852 1_565
