# generated using pymatgen
data_Na3Zn2Ga2PS5O24
_symmetry_space_group_name_H-M   'P 1'
_cell_length_a   8.65863636
_cell_length_b   8.65149932
_cell_length_c   22.37315675
_cell_angle_alpha   90.11318272
_cell_angle_beta   89.74532869
_cell_angle_gamma   119.92567001
_symmetry_Int_Tables_number   1
_chemical_formula_structural   Na3Zn2Ga2PS5O24
_chemical_formula_sum   'Na9 Zn6 Ga6 P3 S15 O72'
_cell_volume   1452.51045551
_cell_formula_units_Z   3
loop_
 _symmetry_equiv_pos_site_id
 _symmetry_equiv_pos_as_xyz
  1  'x, y, z'
loop_
 _atom_site_type_symbol
 _atom_site_label
 _atom_site_symmetry_multiplicity
 _atom_site_fract_x
 _atom_site_fract_y
 _atom_site_fract_z
 _atom_site_occupancy
  Na  Na0  1  0.36692758  0.99676651  0.74974471  1
  Na  Na1  1  0.66442282  0.96499932  0.58551051  1
  Na  Na2  1  0.66985545  0.70066952  0.08261226  1
  Na  Na3  1  0.01286728  0.00133187  0.50071698  1
  Na  Na4  1  0.00764495  0.00250230  0.00036514  1
  Na  Na5  1  0.67437990  0.33731512  0.83400738  1
  Na  Na6  1  0.66669296  0.33336914  0.33342638  1
  Na  Na7  1  0.31997422  0.66497920  0.16714831  1
  Na  Na8  1  0.33062601  0.66059218  0.66673812  1
  Zn  Zn0  1  0.00512225  0.99989838  0.64912950  1
  Zn  Zn1  1  0.00660747  0.99754345  0.14886523  1
  Zn  Zn2  1  0.31685826  0.66452497  0.01677342  1
  Zn  Zn3  1  0.32689773  0.66925027  0.51647675  1
  Zn  Zn4  1  0.33168233  0.66570194  0.31709136  1
  Zn  Zn5  1  0.34103487  0.66777575  0.81721471  1
  Ga  Ga0  1  0.00190809  0.00125144  0.34942826  1
  Ga  Ga1  1  0.99060705  0.00231104  0.84915264  1
  Ga  Ga2  1  0.66837469  0.32514550  0.68381449  1
  Ga  Ga3  1  0.67592224  0.33755389  0.18423097  1
  Ga  Ga4  1  0.67451928  0.34015376  0.98317105  1
  Ga  Ga5  1  0.65736460  0.32942871  0.48282042  1
  P  P0  1  0.71039502  0.00105371  0.74829491  1
  P  P1  1  0.37355203  0.04428570  0.58324368  1
  P  P2  1  0.95753680  0.62114786  0.08371647  1
  S  S0  1  0.29528769  0.00276189  0.24964617  1
  S  S1  1  0.70701036  0.70650409  0.24967334  1
  S  S2  1  0.99860527  0.28989897  0.24944533  1
  S  S3  1  0.29165408  0.29385865  0.74991114  1
  S  S4  1  0.99469892  0.70436780  0.75012166  1
  S  S5  1  0.95746804  0.33759579  0.58250730  1
  S  S6  1  0.66622136  0.61799484  0.58341190  1
  S  S7  1  0.66636935  0.04658648  0.08333404  1
  S  S8  1  0.37781846  0.33049763  0.08322973  1
  S  S9  1  0.62969425  0.66625585  0.91768559  1
  S  S10  1  0.03822107  0.37045333  0.91618737  1
  S  S11  1  0.33309528  0.96660975  0.91621701  1
  S  S12  1  0.63159328  0.96365951  0.41647741  1
  S  S13  1  0.33280113  0.37151570  0.41649995  1
  S  S14  1  0.03493947  0.66580661  0.41636776  1
  O  O0  1  0.21493998  0.03574897  0.30452395  1
  O  O1  1  0.82210157  0.78902311  0.30344835  1
  O  O2  1  0.96602599  0.17799727  0.30447793  1
  O  O3  1  0.21463984  0.17514325  0.80403403  1
  O  O4  1  0.96582945  0.78588413  0.80501349  1
  O  O5  1  0.82643271  0.03511433  0.80473217  1
  O  O6  1  0.78790732  0.97124853  0.69091298  1
  O  O7  1  0.18621262  0.21505012  0.69613547  1
  O  O8  1  0.03301380  0.81725663  0.69685203  1
  O  O9  1  0.78331381  0.81192466  0.19470916  1
  O  O10  1  0.02651291  0.20999441  0.19567385  1
  O  O11  1  0.18695533  0.97269147  0.19624838  1
  O  O12  1  0.87763480  0.36787171  0.63752144  1
  O  O13  1  0.49286505  0.12497164  0.64066534  1
  O  O14  1  0.63979535  0.50927482  0.63804947  1
  O  O15  1  0.86983486  0.50517770  0.14005203  1
  O  O16  1  0.63398283  0.12516289  0.13792840  1
  O  O17  1  0.49160900  0.36396545  0.13754663  1
  O  O18  1  0.45891422  0.30071146  0.02862566  1
  O  O19  1  0.83406621  0.53842302  0.02813998  1
  O  O20  1  0.69365264  0.15514819  0.02880782  1
  O  O21  1  0.46445879  0.16151444  0.52769901  1
  O  O22  1  0.69734874  0.53912222  0.52872375  1
  O  O23  1  0.84202151  0.30413161  0.52896518  1
  O  O24  1  0.55431194  0.69771085  0.97278321  1
  O  O25  1  0.14561015  0.44454086  0.97026585  1
  O  O26  1  0.30134261  0.85599542  0.96948061  1
  O  O27  1  0.55892629  0.85786908  0.47180688  1
  O  O28  1  0.30064774  0.44725868  0.47079596  1
  O  O29  1  0.14345051  0.70010002  0.47028921  1
  O  O30  1  0.11129201  0.63291572  0.36243458  1
  O  O31  1  0.52020978  0.88473693  0.36354865  1
  O  O32  1  0.36521295  0.47945069  0.36245980  1
  O  O33  1  0.11446523  0.47974915  0.86235867  1
  O  O34  1  0.36562067  0.89221259  0.86107678  1
  O  O35  1  0.52049443  0.63458461  0.86423961  1
  O  O36  1  0.01631773  0.82945405  0.40872857  1
  O  O37  1  0.81312273  0.98196617  0.40865749  1
  O  O38  1  0.17047330  0.18865781  0.40922281  1
  O  O39  1  0.01963274  0.18839298  0.90954724  1
  O  O40  1  0.16990922  0.98432765  0.90875493  1
  O  O41  1  0.81156686  0.82824872  0.91027049  1
  O  O42  1  0.96754752  0.17228170  0.58758453  1
  O  O43  1  0.19043798  0.02707275  0.58876628  1
  O  O44  1  0.82420969  0.79903623  0.58745800  1
  O  O45  1  0.96669957  0.80423551  0.08844391  1
  O  O46  1  0.82711074  0.02831249  0.08846837  1
  O  O47  1  0.20000284  0.17364995  0.08878347  1
  O  O48  1  0.68815977  0.17208580  0.74418473  1
  O  O49  1  0.47257289  0.30806682  0.74457946  1
  O  O50  1  0.83151346  0.52646194  0.74338233  1
  O  O51  1  0.69095110  0.52547708  0.24465301  1
  O  O52  1  0.83232150  0.30440733  0.24482769  1
  O  O53  1  0.47547403  0.16804127  0.24349662  1
  O  O54  1  0.64742789  0.50251619  0.92354969  1
  O  O55  1  0.85533910  0.34940342  0.92329060  1
  O  O56  1  0.49639737  0.14716872  0.92417196  1
  O  O57  1  0.65189099  0.14596011  0.42330528  1
  O  O58  1  0.49594576  0.35243454  0.42292025  1
  O  O59  1  0.85346743  0.50369014  0.42431147  1
  O  O60  1  0.36831163  0.49676402  0.07768136  1
  O  O61  1  0.14098701  0.63847401  0.07855940  1
  O  O62  1  0.50894491  0.86502793  0.07807394  1
  O  O63  1  0.36651080  0.86207429  0.57810275  1
  O  O64  1  0.50554971  0.63684585  0.57833249  1
  O  O65  1  0.13480219  0.49530947  0.57729179  1
  O  O66  1  0.31462922  0.84398817  0.25714072  1
  O  O67  1  0.52921652  0.68742457  0.25718337  1
  O  O68  1  0.15620661  0.46858683  0.25661229  1
  O  O69  1  0.31083770  0.47062202  0.75761654  1
  O  O70  1  0.15547160  0.68619760  0.75737149  1
  O  O71  1  0.51976836  0.84040684  0.75590500  1
loop_
_geom_bond_atom_site_label_1
_geom_bond_atom_site_label_2
_geom_bond_distance
_geom_bond_site_symmetry_2
Na0 O71 2.321386 1_555
Na0 O49 2.376077 1_565
Na0 O70 2.385658 1_555
Na0 O48 2.416773 1_565
Na0 O34 2.649737 1_555
Na0 O13 2.674956 1_565
Na0 O3 2.757583 1_565
Na0 O8 2.777518 1_555
Na1 O63 2.277213 1_555
Na1 O42 2.326243 1_565
Na1 O44 2.441417 1_555
Na1 O64 2.466107 1_555
Na1 O6 2.582906 1_555
Na1 O27 2.707679 1_555
Na1 O13 2.770013 1_565
Na1 O23 2.840646 1_565
Na2 O45 2.265136 1_555
Na2 O60 2.312459 1_555
Na2 O62 2.439663 1_555
Na2 O46 2.460750 1_565
Na2 O24 2.652461 1_554
Na2 O9 2.692645 1_555
Na2 O19 2.728802 1_555
Na2 O17 2.808855 1_555
Na3 O43 2.444952 1_555
Na3 O38 2.541785 1_555
Na3 O36 2.545468 1_545
Na3 O44 2.574954 1_445
Na3 O42 2.584465 1_455
Na3 O37 2.646259 1_445
Na4 O45 2.520240 1_445
Na4 O40 2.528470 1_544
Na4 O47 2.537098 1_555
Na4 O39 2.563243 1_554
Na4 O41 2.585128 1_444
Na4 O46 2.588040 1_455
Na5 O48 2.500581 1_555
Na5 O55 2.513898 1_555
Na5 O50 2.531233 1_555
Na5 O54 2.535328 1_555
Na5 O56 2.570313 1_555
Na5 O49 2.590058 1_555
Na6 O52 2.525869 1_555
Na6 O51 2.532234 1_555
Na6 O58 2.537267 1_555
Na6 O53 2.547694 1_555
Na6 O57 2.547967 1_555
Na6 O59 2.561459 1_555
Na7 O61 2.460432 1_555
Na7 O68 2.547217 1_555
Na7 O66 2.552020 1_555
Na7 O62 2.608321 1_555
Na7 O60 2.624599 1_555
Na7 O67 2.656635 1_555
Na8 O65 2.554255 1_555
Na8 O64 2.555501 1_555
Na8 O63 2.556424 1_555
Na8 O71 2.560622 1_555
Na8 O69 2.567825 1_555
Na8 O70 2.601351 1_555
Ga0 O2 1.982167 1_455
Ga0 O0 1.983998 1_555
Ga0 O1 2.001997 1_445
Ga0 O37 2.040917 1_445
Ga0 O36 2.044305 1_545
Ga0 O38 2.048513 1_555
Ga1 O5 1.872207 1_555
Ga1 O39 2.017777 1_655
Ga1 O3 2.027861 1_655
Ga1 O4 2.030016 1_545
Ga1 O41 2.049585 1_545
Ga1 O40 2.114929 1_645
Ga2 O13 1.902917 1_555
Ga2 O12 1.951650 1_555
Ga2 O48 1.960261 1_555
Ga2 O14 2.012279 1_555
Ga2 O50 2.087536 1_555
Ga2 O49 2.115361 1_555
Ga3 O15 1.860277 1_555
Ga3 O16 1.977750 1_555
Ga3 O17 2.017337 1_555
Ga3 O52 2.039476 1_555
Ga3 O51 2.066266 1_555
Ga3 O53 2.090179 1_555
Ga4 O19 1.871955 1_556
Ga4 O20 1.975940 1_556
Ga4 O18 1.996162 1_556
Ga4 O55 2.027136 1_555
Ga4 O54 2.036278 1_555
Ga4 O56 2.085379 1_555
Ga5 O21 1.865016 1_555
Ga5 O22 1.958294 1_555
Ga5 O23 2.008699 1_555
Ga5 O58 2.020982 1_555
Ga5 O57 2.052280 1_555
Ga5 O59 2.074489 1_555
O0 S0 1.504006 1_555
O1 S1 1.499222 1_555
O2 S2 1.503978 1_555
O3 S3 1.510035 1_555
O4 S4 1.495937 1_555
O5 P0 1.550831 1_555
O6 P0 1.526048 1_565
O6 Zn0 1.998211 1_655
O7 S3 1.459920 1_555
O7 Zn0 2.030818 1_545
O8 S4 1.470419 1_455
O8 Zn0 2.021092 1_555
O9 S1 1.475309 1_555
O9 Zn1 2.063973 1_655
O10 S2 1.464370 1_455
O10 Zn1 2.045162 1_545
O11 S0 1.462892 1_565
O11 Zn1 1.989764 1_555
O12 S5 1.494394 1_555
O13 P1 1.579158 1_555
O14 S6 1.489525 1_555
O15 P2 1.551845 1_555
O16 S7 1.488820 1_555
O17 S8 1.502005 1_555
O18 S8 1.491174 1_555
O19 P2 1.564015 1_555
O20 S7 1.485511 1_555
O21 P1 1.546699 1_555
O22 S6 1.487481 1_555
O23 S5 1.496175 1_555
O24 S9 1.479324 1_555
O24 Zn2 2.161590 1_556
O25 S10 1.466833 1_555
O25 Zn2 2.023284 1_556
O26 S11 1.466481 1_555
O26 Zn2 2.027769 1_556
O27 S12 1.479501 1_555
O27 Zn3 2.101311 1_555
O28 S13 1.469171 1_555
O28 Zn3 2.084109 1_555
O29 S14 1.468574 1_555
O29 Zn3 2.025033 1_555
O30 S14 1.467415 1_555
O30 Zn4 2.048170 1_555
O31 S12 1.465795 1_555
O31 Zn4 2.063226 1_555
O32 S13 1.467144 1_555
O32 Zn4 2.046191 1_555
O33 S10 1.467961 1_555
O33 Zn5 2.078391 1_555
O34 S11 1.479915 1_555
O34 Zn5 2.088180 1_555
O35 S9 1.466009 1_555
O35 Zn5 2.016138 1_555
O36 S14 1.512830 1_555
O37 S12 1.508484 1_555
O38 S13 1.512354 1_555
O39 S10 1.508392 1_555
O40 S11 1.505374 1_555
O41 S9 1.506027 1_555
O42 S5 1.480306 1_555
O42 Zn0 2.173079 1_645
O43 P1 1.521204 1_555
O43 Zn0 2.014807 1_545
O44 S6 1.481720 1_555
O44 Zn0 2.161281 1_655
O45 P2 1.549358 1_555
O45 Zn1 2.040188 1_655
O46 S7 1.482005 1_555
O46 Zn1 2.178348 1_645
O47 S8 1.463459 1_555
O47 Zn1 2.091610 1_545
O48 P0 1.587426 1_555
O49 S3 1.513131 1_555
O50 S4 1.489728 1_555
O51 S1 1.505640 1_555
O52 S2 1.510336 1_555
O53 S0 1.506880 1_555
O54 S9 1.505147 1_555
O55 S10 1.508664 1_655
O56 S11 1.506154 1_545
O57 S12 1.504799 1_545
O58 S13 1.509278 1_555
O59 S14 1.505771 1_655
O60 S8 1.486698 1_555
O60 Zn2 2.195525 1_555
O61 P2 1.523076 1_455
O61 Zn2 1.980075 1_555
O62 S7 1.484436 1_565
O62 Zn2 2.188271 1_555
O63 P1 1.550949 1_565
O63 Zn3 2.055677 1_555
O64 S6 1.484184 1_555
O64 Zn3 2.199976 1_555
O65 S5 1.463454 1_455
O65 Zn3 2.091170 1_555
O66 S0 1.474351 1_565
O66 Zn4 2.106455 1_555
O67 S1 1.472977 1_555
O67 Zn4 2.101689 1_555
O68 S2 1.474405 1_455
O68 Zn4 2.114599 1_555
O69 S3 1.463468 1_555
O69 Zn5 2.074798 1_555
O70 S4 1.486383 1_455
O70 Zn5 2.162183 1_555
O71 P0 1.547443 1_565
O71 Zn5 2.047005 1_555
