# generated using pymatgen
data_Rb2ZnH12(SeO7)2
_symmetry_space_group_name_H-M   'P 1'
_cell_length_a   12.80854100
_cell_length_b   6.45603800
_cell_length_c   9.41547815
_cell_angle_alpha   75.27413775
_cell_angle_beta   90.00000000
_cell_angle_gamma   90.00000000
_symmetry_Int_Tables_number   1
_chemical_formula_structural   Rb2ZnH12(SeO7)2
_chemical_formula_sum   'Rb4 Zn2 H24 Se4 O28'
_cell_volume   753.01452681
_cell_formula_units_Z   2
loop_
 _symmetry_equiv_pos_site_id
 _symmetry_equiv_pos_as_xyz
  1  'x, y, z'
loop_
 _atom_site_type_symbol
 _atom_site_label
 _atom_site_symmetry_multiplicity
 _atom_site_fract_x
 _atom_site_fract_y
 _atom_site_fract_z
 _atom_site_occupancy
  Rb  Rb0  1  0.34634800  0.65620300  0.13357900  1
  Rb  Rb1  1  0.84634800  0.34379700  0.36642100  1
  Rb  Rb2  1  0.65365200  0.34379700  0.86642100  1
  Rb  Rb3  1  0.15365200  0.65620300  0.63357900  1
  Zn  Zn0  1  0.00000000  0.00000000  0.00000000  1
  Zn  Zn1  1  0.50000000  0.00000000  0.50000000  1
  H  H0  1  0.63834900  0.67637800  0.52835400  1
  H  H1  1  0.13834900  0.32362200  0.97164600  1
  H  H2  1  0.36165100  0.32362200  0.47164600  1
  H  H3  1  0.86165100  0.67637800  0.02835400  1
  H  H4  1  0.55777100  0.66582400  0.40255000  1
  H  H5  1  0.05777100  0.33417600  0.09745000  1
  H  H6  1  0.40419000  0.07143800  0.23010500  1
  H  H7  1  0.90419000  0.92856200  0.26989500  1
  H  H8  1  0.59581000  0.92856200  0.76989500  1
  H  H9  1  0.09581000  0.07143800  0.73010500  1
  H  H10  1  0.37260000  0.90280100  0.74145100  1
  H  H11  1  0.87260000  0.09719900  0.75854900  1
  H  H12  1  0.62740000  0.09719900  0.25854900  1
  H  H13  1  0.12740000  0.90280100  0.24145100  1
  H  H14  1  0.40932600  0.68202500  0.70666700  1
  H  H15  1  0.90932600  0.31797500  0.79333300  1
  H  H16  1  0.59067400  0.31797500  0.29333300  1
  H  H17  1  0.09067400  0.68202500  0.20666700  1
  H  H18  1  0.81659300  0.99886600  0.14742000  1
  H  H19  1  0.31659300  0.00113400  0.35258000  1
  H  H20  1  0.94222900  0.66582400  0.90255000  1
  H  H21  1  0.44222900  0.33417600  0.59745000  1
  H  H22  1  0.68340700  0.99886600  0.64742000  1
  H  H23  1  0.18340700  0.00113400  0.85258000  1
  Se  Se0  1  0.14016300  0.26696800  0.40357700  1
  Se  Se1  1  0.64016300  0.73303200  0.09642300  1
  Se  Se2  1  0.35983700  0.26696800  0.90357700  1
  Se  Se3  1  0.85983700  0.73303200  0.59642300  1
  O  O0  1  0.61238800  0.16756000  0.33862500  1
  O  O1  1  0.88761200  0.16756000  0.83862500  1
  O  O2  1  0.10976200  0.97298000  0.82878000  1
  O  O3  1  0.60976200  0.02702000  0.67122000  1
  O  O4  1  0.89023800  0.02702000  0.17122000  1
  O  O5  1  0.39023800  0.97298000  0.32878000  1
  O  O6  1  0.93585800  0.70688800  0.99721200  1
  O  O7  1  0.11238800  0.83244000  0.16137500  1
  O  O8  1  0.06414200  0.29311200  0.00278800  1
  O  O9  1  0.56414200  0.70688800  0.49721200  1
  O  O10  1  0.31822400  0.03353100  0.87414200  1
  O  O11  1  0.81822400  0.96646900  0.62585800  1
  O  O12  1  0.68177600  0.96646900  0.12585800  1
  O  O13  1  0.18177600  0.03353100  0.37414200  1
  O  O14  1  0.43542200  0.40010900  0.76382600  1
  O  O15  1  0.93542200  0.59989100  0.73617400  1
  O  O16  1  0.56457800  0.59989100  0.23617400  1
  O  O17  1  0.06457800  0.40010900  0.26382600  1
  O  O18  1  0.43042800  0.22477300  0.05749800  1
  O  O19  1  0.93042800  0.77522700  0.44250200  1
  O  O20  1  0.56957200  0.77522700  0.94250200  1
  O  O21  1  0.06957200  0.22477300  0.55749800  1
  O  O22  1  0.43585800  0.29311200  0.50278800  1
  O  O23  1  0.75684200  0.57702400  0.58576400  1
  O  O24  1  0.74315800  0.57702400  0.08576400  1
  O  O25  1  0.24315800  0.42297600  0.41423600  1
  O  O26  1  0.38761200  0.83244000  0.66137500  1
  O  O27  1  0.25684200  0.42297600  0.91423600  1
loop_
_geom_bond_atom_site_label_1
_geom_bond_atom_site_label_2
_geom_bond_distance
_geom_bond_site_symmetry_2
H0 O9 0.999415 1_555
H0 O23 1.682508 1_555
H1 O8 0.999415 1_556
H1 O27 1.682508 1_555
H2 O22 0.999415 1_555
H2 O25 1.682508 1_555
H3 O6 0.999415 1_554
H3 O24 1.682508 1_555
H4 O9 0.995723 1_555
H5 O8 0.995723 1_555
H6 O5 0.999462 1_545
H6 Rb0 3.130504 1_545
H7 O4 0.999462 1_565
H7 Rb1 3.130504 1_565
H8 O3 0.999462 1_565
H8 Rb2 3.130504 1_565
H9 O2 0.999462 1_545
H9 Rb3 3.130504 1_545
H10 O26 0.992915 1_555
H11 O1 0.992915 1_555
H12 O0 0.992915 1_555
H13 O7 0.992915 1_555
H14 O26 0.995833 1_555
H15 O1 0.995833 1_555
H16 O0 0.995833 1_555
H17 O7 0.995833 1_555
H18 O4 0.996869 1_565
H19 O5 0.996869 1_545
H20 O6 0.995723 1_555
H21 O22 0.995723 1_555
H22 O3 0.996869 1_565
H23 O2 0.996869 1_545
O0 Zn1 2.171518 1_555
O0 Rb1 3.239534 1_555
O1 Zn0 2.171518 1_656
O1 Rb2 3.239534 1_555
O2 Zn0 2.179187 1_566
O2 Rb3 3.128481 1_555
O3 Zn1 2.179187 1_555
O3 Rb2 3.128481 1_555
O4 Zn0 2.179187 1_655
O4 Rb1 3.128481 1_555
O5 Zn1 2.179187 1_565
O5 Rb0 3.128481 1_555
O6 Zn0 2.069268 1_666
O7 Zn0 2.171518 1_565
O7 Rb0 3.239534 1_555
O8 Zn0 2.069268 1_555
O9 Zn1 2.069268 1_565
O10 Se2 1.686573 1_555
O10 Rb0 3.000960 1_546
O11 Se3 1.686573 1_555
O11 Rb1 3.000960 1_565
O12 Se1 1.686573 1_555
O12 Rb2 3.000960 1_564
O13 Se0 1.686573 1_555
O13 Rb3 3.000960 1_545
O14 Se2 1.683008 1_555
O14 Rb2 2.949566 1_555
O15 Se3 1.683008 1_555
O15 Rb3 2.949566 1_655
O16 Se1 1.683008 1_555
O16 Rb0 2.949566 1_555
O17 Se0 1.683008 1_555
O17 Rb1 2.949566 1_455
O18 Se2 1.670723 1_554
O18 Rb0 3.231928 1_555
O18 Rb2 3.361431 1_554
O19 Se3 1.670723 1_555
O19 Rb1 3.231928 1_555
O19 Rb3 3.361431 1_655
O20 Se1 1.670723 1_556
O20 Rb2 3.231928 1_555
O20 Rb0 3.361431 1_556
O21 Se0 1.670723 1_555
O21 Rb3 3.231928 1_555
O21 Rb1 3.361431 1_455
O22 Zn1 2.069268 1_555
O23 Se3 1.678163 1_555
O23 Rb2 2.995698 1_555
O23 Rb1 3.070435 1_555
O24 Se1 1.678163 1_555
O24 Rb1 2.995698 1_555
O24 Rb2 3.070435 1_554
O25 Se0 1.678163 1_555
O25 Rb0 2.995698 1_555
O25 Rb3 3.070435 1_555
O26 Zn1 2.171518 1_565
O26 Rb3 3.239534 1_555
O27 Se2 1.678163 1_555
O27 Rb3 2.995698 1_555
O27 Rb0 3.070435 1_556
