# generated using pymatgen
data_Na2YScSi(SO6)2
_symmetry_space_group_name_H-M   'P 1'
_cell_length_a   9.15753965
_cell_length_b   9.16935895
_cell_length_c   23.47190271
_cell_angle_alpha   90.09592821
_cell_angle_beta   89.72923167
_cell_angle_gamma   119.87112983
_symmetry_Int_Tables_number   1
_chemical_formula_structural   Na2YScSi(SO6)2
_chemical_formula_sum   'Na12 Y6 Sc6 Si6 S12 O72'
_cell_volume   1709.04788250
_cell_formula_units_Z   6
loop_
 _symmetry_equiv_pos_site_id
 _symmetry_equiv_pos_as_xyz
  1  'x, y, z'
loop_
 _atom_site_type_symbol
 _atom_site_label
 _atom_site_symmetry_multiplicity
 _atom_site_fract_x
 _atom_site_fract_y
 _atom_site_fract_z
 _atom_site_occupancy
  Na  Na0  1  0.00141295  0.62851015  0.25251114  1
  Na  Na1  1  0.37584916  0.00246443  0.74943548  1
  Na  Na2  1  0.65992371  0.97031626  0.59258546  1
  Na  Na3  1  0.02895983  0.33991725  0.09450542  1
  Na  Na4  1  0.98723628  0.67835362  0.92652241  1
  Na  Na5  1  0.32091100  0.01503438  0.42266911  1
  Na  Na6  1  0.01330578  0.98481521  0.50087393  1
  Na  Na7  1  0.01784084  0.98178023  0.00136614  1
  Na  Na8  1  0.65746567  0.30111334  0.83297567  1
  Na  Na9  1  0.69035339  0.34009931  0.33553214  1
  Na  Na10  1  0.32924774  0.65863011  0.16940166  1
  Na  Na11  1  0.33968370  0.67181393  0.66617924  1
  Y  Y0  1  0.99480448  0.00780881  0.84829467  1
  Y  Y1  1  0.00133770  0.99466538  0.15247972  1
  Y  Y2  1  0.65593877  0.32555023  0.98233786  1
  Y  Y3  1  0.33101644  0.68318054  0.02000358  1
  Y  Y4  1  0.31742483  0.67052743  0.51744756  1
  Y  Y5  1  0.35132783  0.68222129  0.81244138  1
  Sc  Sc0  1  0.99117050  0.00472687  0.34995213  1
  Sc  Sc1  1  0.00333757  0.99739944  0.64695557  1
  Sc  Sc2  1  0.66351560  0.32149497  0.68302572  1
  Sc  Sc3  1  0.68304675  0.33920533  0.18711144  1
  Sc  Sc4  1  0.66881244  0.34149601  0.48215425  1
  Sc  Sc5  1  0.30900738  0.64662225  0.31771144  1
  Si  Si0  1  0.00088697  0.29879246  0.24865048  1
  Si  Si1  1  0.70562693  0.00532663  0.74289801  1
  Si  Si2  1  0.37203568  0.04653231  0.58212639  1
  Si  Si3  1  0.96081225  0.63003296  0.08310358  1
  Si  Si4  1  0.33026540  0.97219659  0.91221887  1
  Si  Si5  1  0.02497159  0.66852212  0.41351077  1
  S  S0  1  0.30229647  0.00074863  0.25420411  1
  S  S1  1  0.69838848  0.70140689  0.25281115  1
  S  S2  1  0.29708332  0.29341842  0.74549814  1
  S  S3  1  0.99226632  0.70018231  0.74792200  1
  S  S4  1  0.95345933  0.32781585  0.58377559  1
  S  S5  1  0.67176417  0.62597793  0.58454940  1
  S  S6  1  0.66839272  0.04109053  0.08690350  1
  S  S7  1  0.37250073  0.33377617  0.08716935  1
  S  S8  1  0.63248423  0.66537049  0.91711830  1
  S  S9  1  0.04022967  0.37218866  0.91782045  1
  S  S10  1  0.62815069  0.96169155  0.41610088  1
  S  S11  1  0.33342166  0.36799641  0.41542243  1
  O  O0  1  0.21926553  0.02232363  0.30540447  1
  O  O1  1  0.81519525  0.78485796  0.30145112  1
  O  O2  1  0.98162820  0.17289815  0.30131289  1
  O  O3  1  0.22667358  0.19187891  0.79834485  1
  O  O4  1  0.97348052  0.77289326  0.80229570  1
  O  O5  1  0.80728720  0.02124509  0.80105350  1
  O  O6  1  0.80463309  0.99012243  0.68630258  1
  O  O7  1  0.19052120  0.20276245  0.69613432  1
  O  O8  1  0.02266713  0.81903756  0.69994014  1
  O  O9  1  0.77195281  0.79980373  0.19993391  1
  O  O10  1  0.02410185  0.22615900  0.18791541  1
  O  O11  1  0.19025379  0.96324353  0.20368128  1
  O  O12  1  0.87625996  0.35257596  0.63529829  1
  O  O13  1  0.49181493  0.14031883  0.63805776  1
  O  O14  1  0.65727603  0.52868646  0.63557501  1
  O  O15  1  0.85614262  0.50877185  0.13906439  1
  O  O16  1  0.64727112  0.12638921  0.13715348  1
  O  O17  1  0.47088521  0.34063451  0.13747652  1
  O  O18  1  0.44720159  0.31370125  0.03384067  1
  O  O19  1  0.86490328  0.54302367  0.02336645  1
  O  O20  1  0.68428177  0.13558410  0.03406144  1
  O  O21  1  0.46724636  0.15573880  0.52384938  1
  O  O22  1  0.69192589  0.54586004  0.53215360  1
  O  O23  1  0.85160656  0.31151216  0.53243502  1
  O  O24  1  0.54739035  0.67557366  0.96905752  1
  O  O25  1  0.13593391  0.44881620  0.97093929  1
  O  O26  1  0.30679809  0.84938573  0.96692087  1
  O  O27  1  0.55977524  0.86524317  0.47014204  1
  O  O28  1  0.31207484  0.44508781  0.46772797  1
  O  O29  1  0.15512067  0.71282213  0.46730906  1
  O  O30  1  0.11769986  0.64099500  0.35658932  1
  O  O31  1  0.51599767  0.87122782  0.36778105  1
  O  O32  1  0.35646327  0.47434607  0.36505013  1
  O  O33  1  0.13019803  0.47483709  0.86737772  1
  O  O34  1  0.34388462  0.88254765  0.85295807  1
  O  O35  1  0.53232800  0.64571135  0.86560561  1
  O  O36  1  0.01778087  0.84430831  0.40521223  1
  O  O37  1  0.80028005  0.98719082  0.40864260  1
  O  O38  1  0.18273468  0.19573708  0.40917856  1
  O  O39  1  0.01406959  0.20016575  0.91456032  1
  O  O40  1  0.15141598  0.97419981  0.91267494  1
  O  O41  1  0.80163521  0.81931807  0.91375348  1
  O  O42  1  0.96153421  0.16896018  0.58695711  1
  O  O43  1  0.18181426  0.02115681  0.58917201  1
  O  O44  1  0.82270591  0.80048506  0.58740323  1
  O  O45  1  0.98743541  0.81913167  0.08751655  1
  O  O46  1  0.82684620  0.03383192  0.09023450  1
  O  O47  1  0.19714422  0.18655102  0.08923366  1
  O  O48  1  0.67618751  0.17098703  0.74130439  1
  O  O49  1  0.46847468  0.31432779  0.73968913  1
  O  O50  1  0.84202460  0.53531759  0.73962147  1
  O  O51  1  0.68545078  0.53216005  0.24693975  1
  O  O52  1  0.83351116  0.32713803  0.24707186  1
  O  O53  1  0.46720451  0.15344578  0.24539601  1
  O  O54  1  0.66093062  0.51899007  0.91855290  1
  O  O55  1  0.87411965  0.36610180  0.91963516  1
  O  O56  1  0.49773115  0.15735954  0.91609768  1
  O  O57  1  0.63599199  0.12907358  0.42075312  1
  O  O58  1  0.48413620  0.34493622  0.41953856  1
  O  O59  1  0.84106694  0.49896692  0.42401139  1
  O  O60  1  0.35814480  0.48876019  0.08446426  1
  O  O61  1  0.14274369  0.63031747  0.08553185  1
  O  O62  1  0.52198032  0.86845907  0.08452857  1
  O  O63  1  0.36906457  0.86300121  0.58057553  1
  O  O64  1  0.51964949  0.64649842  0.57997464  1
  O  O65  1  0.12733851  0.47360904  0.57939124  1
  O  O66  1  0.32260531  0.84920512  0.26019283  1
  O  O67  1  0.53115292  0.68361604  0.26181984  1
  O  O68  1  0.16652740  0.49244106  0.25642729  1
  O  O69  1  0.30851954  0.45960515  0.75011189  1
  O  O70  1  0.14693722  0.68330276  0.75031078  1
  O  O71  1  0.51230288  0.83861367  0.74368330  1
loop_
_geom_bond_atom_site_label_1
_geom_bond_atom_site_label_2
_geom_bond_distance
_geom_bond_site_symmetry_2
Na0 O68 2.394214 1_555
Na0 O52 2.405218 1_455
Na0 O51 2.574196 1_455
Na0 O66 2.617986 1_555
Na0 O30 2.648993 1_555
Na0 O11 2.903559 1_555
Na0 O15 2.938459 1_455
Na0 O1 2.948556 1_455
Na1 O71 2.388449 1_545
Na1 O48 2.398187 1_555
Na1 O49 2.556032 1_555
Na1 O70 2.616902 1_545
Na1 O34 2.623092 1_545
Na1 O13 2.864880 1_555
Na1 O3 2.922748 1_555
Na1 O8 3.041291 1_545
Na2 O63 2.353228 1_555
Na2 O42 2.439247 1_565
Na2 O6 2.532655 1_555
Na2 O64 2.599090 1_555
Na2 O44 2.640436 1_555
Na2 O13 2.882413 1_565
Na3 O61 2.335927 1_555
Na3 O10 2.420254 1_555
Na3 O46 2.477741 1_455
Na3 O47 2.553435 1_555
Na3 O60 2.627121 1_555
Na4 O40 2.379214 1_655
Na4 O55 2.518437 1_555
Na4 O19 2.561742 1_556
Na4 O54 2.598898 1_555
Na4 O41 2.616059 1_555
Na4 O26 2.715175 1_655
Na5 O36 2.450359 1_545
Na5 O57 2.532655 1_555
Na5 O38 2.557494 1_555
Na5 O29 2.624073 1_545
Na5 O58 2.624112 1_555
Na5 O21 2.719943 1_555
Na5 O0 2.921222 1_555
Na5 O31 2.984838 1_545
Na6 O43 2.510644 1_565
Na6 O36 2.597159 1_555
Na6 O44 2.658502 1_455
Na6 O38 2.788069 1_565
Na6 O42 2.816959 1_465
Na6 O37 2.928313 1_455
Na7 O40 2.427947 1_554
Na7 O45 2.445779 1_455
Na7 O47 2.724547 1_565
Na7 O41 2.731008 1_454
Na7 O39 2.871520 1_564
Na7 O46 2.903734 1_465
Na8 O56 2.396816 1_555
Na8 O48 2.504906 1_555
Na8 O55 2.699120 1_555
Na8 O54 2.819736 1_555
Na8 O49 2.837248 1_555
Na8 O50 2.938534 1_555
Na9 O52 2.484466 1_555
Na9 O59 2.520747 1_555
Na9 O57 2.652767 1_555
Na9 O58 2.739358 1_555
Na9 O51 2.742141 1_555
Na9 O53 2.850626 1_555
Na10 O68 2.536691 1_555
Na10 O61 2.539313 1_555
Na10 O60 2.620294 1_555
Na10 O62 2.717075 1_555
Na10 O66 2.773230 1_555
Na10 O67 2.791232 1_555
Na11 O71 2.399373 1_555
Na11 O63 2.592237 1_555
Na11 O70 2.679131 1_555
Na11 O69 2.683871 1_555
Na11 O64 2.685516 1_555
Na11 O65 2.781860 1_555
O0 S0 1.483892 1_555
O0 Sc0 2.264200 1_455
O1 S1 1.492121 1_555
O1 Sc0 2.175050 1_565
O2 Si0 1.640582 1_655
O2 Sc0 1.957015 1_555
O3 S2 1.489815 1_555
O3 Y0 2.268288 1_455
O4 S3 1.487363 1_555
O4 Y0 2.327851 1_565
O5 Si1 1.620881 1_555
O5 Y0 2.103013 1_555
O6 Si1 1.649246 1_565
O6 Sc1 2.007954 1_655
O7 S2 1.478245 1_555
O7 Sc1 2.147742 1_545
O8 S3 1.494167 1_455
O8 Sc1 2.133072 1_555
O9 S1 1.482791 1_555
O9 Y1 2.256453 1_655
O10 Si0 1.629720 1_555
O10 Y1 2.189942 1_545
O11 S0 1.495310 1_565
O11 Y1 2.244453 1_555
O12 S4 1.471293 1_555
O12 Sc2 2.135207 1_555
O13 Si2 1.654207 1_555
O13 Sc2 1.937538 1_555
O14 S5 1.460148 1_555
O14 Sc2 2.229087 1_555
O15 Si3 1.676821 1_555
O15 Sc3 1.932854 1_555
O16 S6 1.478420 1_555
O16 Sc3 2.156249 1_555
O17 S7 1.470834 1_555
O17 Sc3 2.275750 1_555
O18 S7 1.478251 1_555
O18 Y2 2.213323 1_554
O19 Si3 1.638239 1_555
O19 Y2 2.185325 1_554
O20 S6 1.478704 1_555
O20 Y2 2.244057 1_554
O21 Si2 1.660611 1_555
O21 Sc4 2.030483 1_555
O22 S5 1.488686 1_555
O22 Sc4 2.129188 1_555
O23 S4 1.488494 1_555
O23 Sc4 2.179152 1_555
O24 S8 1.471556 1_555
O24 Y3 2.340076 1_556
O25 S9 1.486708 1_555
O25 Y3 2.307134 1_556
O26 Si4 1.650456 1_555
O26 Y3 2.066347 1_556
O27 S10 1.492581 1_555
O27 Y4 2.319999 1_555
O28 S11 1.475681 1_555
O28 Y4 2.351374 1_555
O29 Si5 1.646297 1_555
O29 Y4 2.082475 1_555
O30 Si5 1.664775 1_555
O30 Sc5 1.949248 1_555
O31 S10 1.479341 1_555
O31 Sc5 2.310849 1_555
O32 S11 1.479835 1_555
O32 Sc5 2.147802 1_555
O33 S9 1.479387 1_555
O33 Y5 2.350998 1_555
O34 Si4 1.650064 1_555
O34 Y5 2.097946 1_555
O35 S8 1.476723 1_555
O35 Y5 2.233893 1_555
O36 Si5 1.657475 1_555
O36 Sc0 2.066839 1_465
O37 S10 1.483371 1_555
O37 Sc0 2.162724 1_565
O38 S11 1.500181 1_555
O38 Sc0 2.243189 1_455
O39 S9 1.474659 1_555
O39 Y0 2.290140 1_455
O40 Si4 1.647030 1_555
O40 Y0 2.213059 1_465
O41 S8 1.489778 1_555
O41 Y0 2.326969 1_565
O42 S4 1.496813 1_555
O42 Sc1 2.284036 1_645
O43 Si2 1.646082 1_555
O43 Sc1 2.045398 1_545
O44 S5 1.507601 1_555
O44 Sc1 2.233501 1_655
O45 Si3 1.629472 1_555
O45 Y1 2.172866 1_655
O46 S6 1.487737 1_555
O46 Y1 2.326437 1_645
O47 S7 1.497854 1_555
O47 Y1 2.314236 1_545
O48 Si1 1.670221 1_555
O48 Sc2 1.989111 1_555
O49 S2 1.488984 1_555
O49 Sc2 2.196422 1_555
O50 S3 1.464903 1_555
O50 Sc2 2.258366 1_555
O51 S1 1.502554 1_555
O51 Sc3 2.248554 1_555
O52 Si0 1.677988 1_655
O52 Sc3 2.015504 1_555
O53 S0 1.474966 1_555
O53 Sc3 2.303980 1_555
O54 S8 1.489648 1_555
O54 Y2 2.305888 1_555
O55 S9 1.494550 1_655
O55 Y2 2.351666 1_555
O56 Si4 1.627870 1_545
O56 Y2 2.163880 1_555
O57 S10 1.504122 1_545
O57 Sc4 2.317929 1_555
O58 S11 1.500317 1_555
O58 Sc4 2.257857 1_555
O59 Si5 1.644193 1_655
O59 Sc4 2.037913 1_555
O60 S7 1.492424 1_555
O60 Y3 2.445960 1_555
O61 Si3 1.665991 1_455
O61 Y3 2.172136 1_555
O62 S6 1.480800 1_565
O62 Y3 2.301133 1_555
O63 Si2 1.669816 1_565
O63 Y4 2.168047 1_555
O64 S5 1.499979 1_555
O64 Y4 2.462752 1_555
O65 S4 1.487182 1_455
O65 Y4 2.293107 1_555
O66 S0 1.497844 1_565
O66 Sc5 2.250580 1_555
O67 S1 1.471364 1_555
O67 Sc5 2.294210 1_555
O68 Si0 1.675023 1_555
O68 Sc5 1.985889 1_555
O69 S2 1.478286 1_555
O69 Y5 2.378875 1_555
O70 S3 1.500817 1_455
O70 Y5 2.382112 1_555
O71 Si1 1.665949 1_565
O71 Y5 2.171098 1_555
