# generated using pymatgen
data_Sr2MnGe2O7
_symmetry_space_group_name_H-M   'P 1'
_cell_length_a   8.39348300
_cell_length_b   8.39347100
_cell_length_c   10.77758200
_cell_angle_alpha   89.99948011
_cell_angle_beta   90.00037038
_cell_angle_gamma   90.00019114
_symmetry_Int_Tables_number   1
_chemical_formula_structural   Sr2MnGe2O7
_chemical_formula_sum   'Sr8 Mn4 Ge8 O28'
_cell_volume   759.28556806
_cell_formula_units_Z   4
loop_
 _symmetry_equiv_pos_site_id
 _symmetry_equiv_pos_as_xyz
  1  'x, y, z'
loop_
 _atom_site_type_symbol
 _atom_site_label
 _atom_site_symmetry_multiplicity
 _atom_site_fract_x
 _atom_site_fract_y
 _atom_site_fract_z
 _atom_site_occupancy
  Sr  Sr0  1  0.83305500  0.33306300  0.25306700  1
  Sr  Sr1  1  0.83305300  0.33306300  0.75306700  1
  Sr  Sr2  1  0.66694600  0.83306200  0.24693700  1
  Sr  Sr3  1  0.66694900  0.83306400  0.74693700  1
  Sr  Sr4  1  0.16694600  0.66695900  0.25306700  1
  Sr  Sr5  1  0.16694700  0.66695600  0.75306700  1
  Sr  Sr6  1  0.33305400  0.16695800  0.24693600  1
  Sr  Sr7  1  0.33305300  0.16695700  0.74693700  1
  Mn  Mn0  1  0.50008500  0.49972200  0.50013300  1
  Mn  Mn1  1  0.00018400  0.00009800  0.99986400  1
  Mn  Mn2  1  0.49992500  0.49980300  0.99986100  1
  Mn  Mn3  1  0.99977000  0.99990600  0.50006100  1
  Ge  Ge0  1  0.35911000  0.85911600  0.47171000  1
  Ge  Ge1  1  0.35910900  0.85911800  0.97172100  1
  Ge  Ge2  1  0.14089500  0.35912400  0.02828900  1
  Ge  Ge3  1  0.14089100  0.35912000  0.52828500  1
  Ge  Ge4  1  0.64089600  0.14089900  0.47171400  1
  Ge  Ge5  1  0.64089000  0.14090600  0.97172000  1
  Ge  Ge6  1  0.85910700  0.64090300  0.02829000  1
  Ge  Ge7  1  0.85911300  0.64091000  0.52828600  1
  O  O0  1  0.00000300  0.50000600  0.09517600  1
  O  O1  1  0.00000000  0.50001300  0.59517900  1
  O  O2  1  0.50000700  0.00001600  0.40482700  1
  O  O3  1  0.49999800  0.00001400  0.90482800  1
  O  O4  1  0.36094700  0.86095900  0.13327200  1
  O  O5  1  0.36094800  0.86095700  0.63327300  1
  O  O6  1  0.13905000  0.36095900  0.36673100  1
  O  O7  1  0.13905200  0.36095800  0.86672800  1
  O  O8  1  0.63905600  0.13906300  0.13327400  1
  O  O9  1  0.63905300  0.13906700  0.63327500  1
  O  O10  1  0.86094900  0.63906100  0.36673200  1
  O  O11  1  0.86095000  0.63906000  0.86672600  1
  O  O12  1  0.31577200  0.41883900  0.10850900  1
  O  O13  1  0.31577200  0.41883300  0.60851800  1
  O  O14  1  0.18422500  0.91884000  0.39149500  1
  O  O15  1  0.18422800  0.91883600  0.89148600  1
  O  O16  1  0.68422200  0.58117800  0.10850600  1
  O  O17  1  0.68422800  0.58118800  0.60851700  1
  O  O18  1  0.81577100  0.08118500  0.39149400  1
  O  O19  1  0.81577100  0.08118500  0.89148800  1
  O  O20  1  0.58117900  0.31578000  0.39148600  1
  O  O21  1  0.58117100  0.31577700  0.89149200  1
  O  O22  1  0.91882800  0.81579200  0.10851200  1
  O  O23  1  0.91882800  0.81578200  0.60851100  1
  O  O24  1  0.41883200  0.68422300  0.39149300  1
  O  O25  1  0.41882800  0.68424200  0.89149500  1
  O  O26  1  0.08117700  0.18423700  0.10851700  1
  O  O27  1  0.08117200  0.18424000  0.60851100  1
loop_
_geom_bond_atom_site_label_1
_geom_bond_atom_site_label_2
_geom_bond_distance
_geom_bond_site_symmetry_2
Mn0 O20 2.053812 1_555
Mn0 O13 2.053967 1_555
Mn0 O17 2.054489 1_555
Mn0 O24 2.057719 1_555
Mn1 O15 2.053272 1_545
Mn1 O26 2.054803 1_556
Mn1 O19 2.055086 1_455
Mn1 O22 2.056825 1_446
Mn2 O21 2.053059 1_555
Mn2 O12 2.054778 1_556
Mn2 O25 2.055214 1_555
Mn2 O16 2.056807 1_556
Mn3 O23 2.053309 1_555
Mn3 O18 2.054177 1_565
Mn3 O27 2.055927 1_665
Mn3 O14 2.056476 1_655
Ge0 O5 1.741395 1_555
Ge0 O14 1.775778 1_555
Ge0 O24 1.775853 1_555
Ge0 O2 1.821212 1_565
Ge1 O4 1.741266 1_556
Ge1 O25 1.775775 1_555
Ge1 O15 1.775841 1_555
Ge1 O3 1.821189 1_565
Ge2 O7 1.741373 1_554
Ge2 O12 1.775729 1_555
Ge2 O26 1.775844 1_555
Ge2 O0 1.821117 1_555
Ge3 O6 1.741298 1_555
Ge3 O27 1.775787 1_555
Ge3 O13 1.775821 1_555
Ge3 O1 1.821201 1_555
Ge4 O9 1.741373 1_555
Ge4 O18 1.775725 1_555
Ge4 O20 1.775800 1_555
Ge4 O2 1.821095 1_555
Ge5 O8 1.741298 1_556
Ge5 O21 1.775735 1_555
Ge5 O19 1.775846 1_555
Ge5 O3 1.821182 1_555
Ge6 O11 1.741407 1_554
Ge6 O16 1.775792 1_555
Ge6 O22 1.775843 1_555
Ge6 O0 1.821202 1_655
Ge7 O10 1.741299 1_555
Ge7 O23 1.775727 1_555
Ge7 O17 1.775864 1_555
Ge7 O1 1.821182 1_655
O0 Sr0 2.612034 1_455
O0 Sr4 2.612061 1_555
O1 Sr5 2.612013 1_555
O1 Sr1 2.612040 1_455
O2 Sr6 2.612045 1_555
O2 Sr2 2.612058 1_545
O3 Sr7 2.612014 1_555
O3 Sr3 2.612101 1_545
O4 Sr4 2.640054 1_555
O4 Sr2 2.855199 1_555
O4 Sr6 2.855207 1_565
O5 Sr5 2.640054 1_555
O5 Sr3 2.855206 1_555
O5 Sr7 2.855216 1_565
O6 Sr6 2.640096 1_555
O6 Sr0 2.855163 1_455
O6 Sr4 2.855195 1_555
O7 Sr7 2.640059 1_555
O7 Sr5 2.855165 1_555
O7 Sr1 2.855179 1_455
O8 Sr0 2.640037 1_555
O8 Sr2 2.855194 1_545
O8 Sr6 2.855222 1_555
O9 Sr1 2.640017 1_555
O9 Sr7 2.855203 1_555
O9 Sr3 2.855208 1_545
O10 Sr2 2.640066 1_555
O10 Sr4 2.855197 1_655
O10 Sr0 2.855202 1_555
O11 Sr3 2.640040 1_555
O11 Sr5 2.855168 1_655
O11 Sr1 2.855168 1_555
O12 Sr6 2.591607 1_555
O12 Sr4 2.885310 1_555
O13 Sr7 2.591523 1_555
O13 Sr5 2.885272 1_555
O14 Sr4 2.591633 1_555
O14 Sr6 2.885289 1_565
O15 Sr5 2.591572 1_555
O15 Sr7 2.885234 1_565
O16 Sr2 2.591673 1_555
O16 Sr0 2.885294 1_555
O17 Sr3 2.591551 1_555
O17 Sr1 2.885261 1_555
O18 Sr0 2.591588 1_555
O18 Sr2 2.885304 1_545
O19 Sr1 2.591550 1_555
O19 Sr3 2.885246 1_545
O20 Sr0 2.591544 1_555
O20 Sr6 2.885259 1_555
O21 Sr1 2.591624 1_555
O21 Sr7 2.885239 1_555
O22 Sr2 2.591619 1_555
O22 Sr4 2.885280 1_655
O23 Sr3 2.591610 1_555
O23 Sr5 2.885266 1_655
O24 Sr4 2.591633 1_555
O24 Sr2 2.885292 1_555
O25 Sr5 2.591622 1_555
O25 Sr3 2.885284 1_555
O26 Sr6 2.591534 1_555
O26 Sr0 2.885276 1_455
O27 Sr7 2.591607 1_555
O27 Sr1 2.885282 1_455
