# generated using pymatgen
data_MgFe6O7F5
_symmetry_space_group_name_H-M   'P 1'
_cell_length_a   4.95099382
_cell_length_b   7.80539922
_cell_length_c   5.81639948
_cell_angle_alpha   97.83929042
_cell_angle_beta   95.78065772
_cell_angle_gamma   87.06902042
_symmetry_Int_Tables_number   1
_chemical_formula_structural   MgFe6O7F5
_chemical_formula_sum   'Mg1 Fe6 O7 F5'
_cell_volume   221.37931143
_cell_formula_units_Z   1
loop_
 _symmetry_equiv_pos_site_id
 _symmetry_equiv_pos_as_xyz
  1  'x, y, z'
loop_
 _atom_site_type_symbol
 _atom_site_label
 _atom_site_symmetry_multiplicity
 _atom_site_fract_x
 _atom_site_fract_y
 _atom_site_fract_z
 _atom_site_occupancy
  Mg  Mg0  1  0.49012200  0.00276400  0.99695100  1
  Fe  Fe0  1  0.51267200  0.62771700  0.19539300  1
  Fe  Fe1  1  0.52204200  0.00432400  0.50637100  1
  Fe  Fe2  1  0.51029900  0.35763000  0.79700000  1
  Fe  Fe3  1  0.03825700  0.69097300  0.66290600  1
  Fe  Fe4  1  0.96891600  0.29722500  0.33576400  1
  Fe  Fe5  1  0.98276300  0.00203500  0.98058500  1
  O  O0  1  0.76046900  0.08821600  0.27469100  1
  O  O1  1  0.69247300  0.12009600  0.79102300  1
  O  O2  1  0.70772600  0.76545400  0.46137400  1
  O  O3  1  0.71781200  0.42161800  0.11950100  1
  O  O4  1  0.29790300  0.56858100  0.88364400  1
  O  O5  1  0.28864700  0.23050700  0.53151000  1
  O  O6  1  0.23259800  0.90058300  0.72417400  1
  F  F0  1  0.80325400  0.44254400  0.61271600  1
  F  F1  1  0.76324200  0.77695300  0.95152600  1
  F  F2  1  0.29051400  0.88574100  0.20702700  1
  F  F3  1  0.22570000  0.21492900  0.06119300  1
  F  F4  1  0.20848000  0.56044000  0.38284000  1
loop_
_geom_bond_atom_site_label_1
_geom_bond_atom_site_label_2
_geom_bond_distance
_geom_bond_site_symmetry_2
Mg0 O1 1.977833 1_555
Mg0 O6 2.032309 1_545
Mg0 O0 2.051315 1_556
Fe0 O3 1.882490 1_555
Fe0 O2 1.957882 1_555
Fe0 O4 2.016207 1_554
Fe1 O1 1.912638 1_555
Fe1 O2 2.032236 1_545
Fe1 O5 2.056318 1_555
Fe1 O0 2.068406 1_555
Fe1 O6 2.253513 1_545
Fe2 O4 1.942742 1_555
Fe2 O5 1.981261 1_555
Fe2 O1 2.017405 1_555
Fe2 O3 2.057254 1_556
Fe3 O6 1.913752 1_555
Fe3 O4 2.022396 1_555
Fe3 O2 2.022915 1_455
Fe4 O5 1.946197 1_655
Fe4 O0 1.947551 1_555
Fe4 O3 1.991293 1_555
Fe5 O1 1.988207 1_555
Fe5 O6 2.081004 1_645
Fe5 O0 2.140019 1_556
F0 Fe4 2.055905 1_555
F0 Fe2 2.072965 1_555
F0 Fe3 2.281862 1_655
F1 Fe5 2.091317 1_565
F1 Mg0 2.169345 1_565
F1 Fe3 2.276430 1_655
F1 Fe0 2.420906 1_556
F2 Mg0 1.985950 1_564
F2 Fe1 2.114000 1_565
F2 Fe5 2.158858 1_464
F2 Fe0 2.240929 1_555
F3 Mg0 2.074601 1_554
F3 Fe5 2.075112 1_454
F3 Fe4 2.150583 1_455
F3 Fe2 2.578937 1_554
F4 Fe3 2.034182 1_555
F4 Fe0 2.073754 1_555
F4 Fe4 2.394378 1_455
