# generated using pymatgen
data_Ce2Ni2Sn
_symmetry_space_group_name_H-M   'P 1'
_cell_length_a   4.37099595
_cell_length_b   5.53719246
_cell_length_c   5.53719180
_cell_angle_alpha   62.40565336
_cell_angle_beta   66.75308129
_cell_angle_gamma   66.75308756
_symmetry_Int_Tables_number   1
_chemical_formula_structural   Ce2Ni2Sn
_chemical_formula_sum   'Ce2 Ni2 Sn1'
_cell_volume   105.37096972
_cell_formula_units_Z   1
loop_
 _symmetry_equiv_pos_site_id
 _symmetry_equiv_pos_as_xyz
  1  'x, y, z'
loop_
 _atom_site_type_symbol
 _atom_site_label
 _atom_site_symmetry_multiplicity
 _atom_site_fract_x
 _atom_site_fract_y
 _atom_site_fract_z
 _atom_site_occupancy
  Ce  Ce0  1  0.80002626  0.69997374  0.69997374  1
  Ce  Ce1  1  0.19997374  0.30002626  0.30002626  1
  Ni  Ni0  1  0.50000000  0.28642712  0.71357288  1
  Ni  Ni1  1  0.50000000  0.71357288  0.28642712  1
  Sn  Sn0  1  0.00000000  -0.00000000  0.00000000  1
loop_
_geom_bond_atom_site_label_1
_geom_bond_atom_site_label_2
_geom_bond_distance
_geom_bond_site_symmetry_2
Ce0 Ni1 3.009549 1_556
Ce0 Ni0 3.009549 1_565
Ce0 Ni1 3.016933 1_655
Ce0 Ni0 3.016933 1_655
Ce0 Ni1 3.016934 1_555
Ce0 Ni0 3.016934 1_555
Ce0 Sn0 3.324634 1_665
Ce0 Sn0 3.324635 1_656
Ce0 Sn0 3.336659 1_566
Ce0 Sn0 3.336660 1_666
Ce0 Ce1 3.360982 1_655
Ce0 Ce1 3.703037 1_556
Ce0 Ce1 3.703038 1_656
Ce0 Ce1 3.703038 1_665
Ce0 Ce1 3.703038 1_565
Ce1 Ni0 3.009549 1_554
Ce1 Ni1 3.009549 1_545
Ce1 Ni0 3.016933 1_455
Ce1 Ni1 3.016933 1_455
Ce1 Ni0 3.016934 1_555
Ce1 Ni1 3.016934 1_555
Ce1 Sn0 3.324634 1_556
Ce1 Sn0 3.324635 1_565
Ce1 Sn0 3.336659 1_655
Ce1 Sn0 3.336660 1_555
Ni0 Ni1 2.450662 1_555
Ni0 Sn0 2.734391 1_556
Ni0 Sn0 2.734391 1_656
Ni1 Sn0 2.734391 1_665
Ni1 Sn0 2.734391 1_565
