# generated using pymatgen
data_MgV5O12
_symmetry_space_group_name_H-M   'P 1'
_cell_length_a   5.50110664
_cell_length_b   10.69686234
_cell_length_c   9.50662924
_cell_angle_alpha   28.38478317
_cell_angle_beta   49.37397771
_cell_angle_gamma   55.89249706
_symmetry_Int_Tables_number   1
_chemical_formula_structural   MgV5O12
_chemical_formula_sum   'Mg1 V5 O12'
_cell_volume   201.72859731
_cell_formula_units_Z   1
loop_
 _symmetry_equiv_pos_site_id
 _symmetry_equiv_pos_as_xyz
  1  'x, y, z'
loop_
 _atom_site_type_symbol
 _atom_site_label
 _atom_site_symmetry_multiplicity
 _atom_site_fract_x
 _atom_site_fract_y
 _atom_site_fract_z
 _atom_site_occupancy
  Mg  Mg0  1  0.80021900  0.01042600  0.77267500  1
  V  V0  1  0.03488500  0.01702300  0.97209300  1
  V  V1  1  0.97719000  0.48127500  0.01713000  1
  V  V2  1  0.51361200  0.96359400  0.53891300  1
  V  V3  1  0.49710600  0.51534700  0.47775500  1
  V  V4  1  0.31554100  0.00064400  0.28652800  1
  O  O0  1  0.33558500  0.28227200  0.12679200  1
  O  O1  1  0.22975900  0.10023500  0.62965200  1
  O  O2  1  0.12319600  0.30866200  0.72731000  1
  O  O3  1  0.87968400  0.16214300  0.24578200  1
  O  O4  1  0.35005700  0.82681100  0.09703700  1
  O  O5  1  0.73416300  0.37503900  0.35847800  1
  O  O6  1  0.21548500  0.66078000  0.58888400  1
  O  O7  1  0.58948100  0.18107900  0.86656100  1
  O  O8  1  0.12335200  0.81981800  0.71691700  1
  O  O9  1  0.82104700  0.70863600  0.21782700  1
  O  O10  1  0.71096300  0.89806600  0.33137600  1
  O  O11  1  0.60797700  0.68815100  0.85842100  1
loop_
_geom_bond_atom_site_label_1
_geom_bond_atom_site_label_2
_geom_bond_distance
_geom_bond_site_symmetry_2
Mg0 O5 2.024854 1_555
Mg0 O8 2.051315 1_645
Mg0 O4 2.086325 1_546
Mg0 O1 2.102081 1_655
Mg0 O9 2.126505 1_546
Mg0 O7 2.149159 1_555
O0 V4 1.870459 1_555
O0 V1 1.889530 1_455
O0 V2 2.383724 1_545
O1 V2 1.795423 1_545
O1 V0 1.991560 1_555
O2 V0 1.684400 1_555
O2 V3 2.064836 1_555
O3 V2 1.845687 1_545
O3 V1 2.035867 1_555
O3 V4 2.066410 1_655
O4 V0 1.740655 1_564
O4 V3 2.103982 1_555
O5 V1 1.781796 1_555
O5 V3 2.028001 1_555
O6 V4 1.891753 1_565
O6 V3 1.998476 1_555
O6 V1 2.024372 1_456
O7 V4 1.950449 1_556
O7 V3 1.964403 1_555
O7 V0 2.317483 1_655
O8 V1 1.999404 1_456
O8 V2 2.056828 1_555
O8 V4 2.082029 1_565
O9 V3 1.721826 1_555
O9 V0 2.221897 1_664
O10 V0 1.852113 1_664
O10 V4 1.955830 1_565
O10 V2 2.086428 1_555
O11 V2 1.663634 1_555
O11 V1 2.091384 1_556
