# generated using pymatgen
data_Ta11(CoSe4)2
_symmetry_space_group_name_H-M   'P 1'
_cell_length_a   3.43777800
_cell_length_b   12.19471300
_cell_length_c   19.64119500
_cell_angle_alpha   90.00000000
_cell_angle_beta   90.00000000
_cell_angle_gamma   90.00000000
_symmetry_Int_Tables_number   1
_chemical_formula_structural   Ta11(CoSe4)2
_chemical_formula_sum   'Ta22 Co4 Se16'
_cell_volume   823.41224122
_cell_formula_units_Z   2
loop_
 _symmetry_equiv_pos_site_id
 _symmetry_equiv_pos_as_xyz
  1  'x, y, z'
loop_
 _atom_site_type_symbol
 _atom_site_label
 _atom_site_symmetry_multiplicity
 _atom_site_fract_x
 _atom_site_fract_y
 _atom_site_fract_z
 _atom_site_occupancy
  Ta  Ta0  1  0.50000000  0.82005200  0.05338800  1
  Ta  Ta1  1  0.50000000  0.17994800  0.94661200  1
  Ta  Ta2  1  0.00000000  0.67994800  0.55338800  1
  Ta  Ta3  1  0.00000000  0.32005200  0.44661200  1
  Ta  Ta4  1  0.50000000  0.44614300  0.74228500  1
  Ta  Ta5  1  0.50000000  0.55385700  0.25771500  1
  Ta  Ta6  1  0.00000000  0.94614300  0.75771500  1
  Ta  Ta7  1  0.00000000  0.05385700  0.24228500  1
  Ta  Ta8  1  0.50000000  0.06070600  0.11579200  1
  Ta  Ta9  1  0.50000000  0.93929400  0.88420800  1
  Ta  Ta10  1  0.00000000  0.56070600  0.38420800  1
  Ta  Ta11  1  0.00000000  0.43929400  0.61579200  1
  Ta  Ta12  1  0.50000000  0.17403600  0.35317600  1
  Ta  Ta13  1  0.50000000  0.82596400  0.64682400  1
  Ta  Ta14  1  0.00000000  0.67403600  0.14682400  1
  Ta  Ta15  1  0.00000000  0.32596400  0.85317600  1
  Ta  Ta16  1  0.50000000  0.15259500  0.78840900  1
  Ta  Ta17  1  0.50000000  0.84740500  0.21159100  1
  Ta  Ta18  1  0.00000000  0.65259500  0.71159100  1
  Ta  Ta19  1  0.00000000  0.34740500  0.28840900  1
  Ta  Ta20  1  0.50000000  0.50000000  0.50000000  1
  Ta  Ta21  1  0.00000000  0.00000000  0.00000000  1
  Co  Co0  1  0.00000000  0.09342100  0.87158300  1
  Co  Co1  1  0.00000000  0.90657900  0.12841700  1
  Co  Co2  1  0.50000000  0.59342100  0.62841700  1
  Co  Co3  1  0.50000000  0.40657900  0.37158300  1
  Se  Se0  1  0.50000000  0.29560700  0.55475600  1
  Se  Se1  1  0.50000000  0.70439300  0.44524400  1
  Se  Se2  1  0.00000000  0.79560700  0.94524400  1
  Se  Se3  1  0.00000000  0.20439300  0.05475600  1
  Se  Se4  1  0.50000000  0.04032300  0.67438400  1
  Se  Se5  1  0.50000000  0.95967700  0.32561600  1
  Se  Se6  1  0.00000000  0.54032300  0.82561600  1
  Se  Se7  1  0.00000000  0.45967700  0.17438400  1
  Se  Se8  1  0.50000000  0.39005300  0.94574000  1
  Se  Se9  1  0.50000000  0.60994700  0.05426000  1
  Se  Se10  1  0.00000000  0.89005300  0.55426000  1
  Se  Se11  1  0.00000000  0.10994700  0.44574000  1
  Se  Se12  1  0.00000000  0.28372300  0.71429900  1
  Se  Se13  1  0.00000000  0.71627700  0.28570100  1
  Se  Se14  1  0.50000000  0.78372300  0.78570100  1
  Se  Se15  1  0.50000000  0.21627700  0.21429900  1
loop_
_geom_bond_atom_site_label_1
_geom_bond_atom_site_label_2
_geom_bond_distance
_geom_bond_site_symmetry_2
Co0 Ta16 2.478723 1_455
Co0 Ta16 2.478723 1_555
Co0 Ta1 2.497927 1_455
Co0 Ta1 2.497927 1_555
Co0 Ta9 2.559046 1_545
Co0 Ta9 2.559046 1_445
Co0 Ta21 2.767614 1_556
Co0 Ta15 2.858748 1_555
Co0 Ta6 2.868381 1_545
Co1 Ta17 2.478723 1_555
Co1 Ta17 2.478723 1_455
Co1 Ta0 2.497927 1_455
Co1 Ta0 2.497927 1_555
Co1 Ta8 2.559046 1_465
Co1 Ta8 2.559046 1_565
Co1 Ta21 2.767614 1_565
Co1 Ta14 2.858748 1_555
Co1 Ta7 2.868381 1_565
Co2 Ta18 2.478723 1_655
Co2 Ta18 2.478723 1_555
Co2 Ta2 2.497927 1_555
Co2 Ta2 2.497927 1_655
Co2 Ta11 2.559046 1_655
Co2 Ta11 2.559046 1_555
Co2 Ta20 2.767614 1_555
Co2 Ta13 2.858748 1_555
Co2 Ta4 2.868381 1_555
Co3 Ta19 2.478723 1_555
Co3 Ta19 2.478723 1_655
Co3 Ta3 2.497927 1_555
Co3 Ta3 2.497927 1_655
Co3 Ta10 2.559046 1_655
Co3 Ta10 2.559046 1_555
Co3 Ta20 2.767614 1_555
Co3 Ta12 2.858748 1_555
Co3 Ta5 2.868381 1_555
Se0 Ta20 2.714640 1_555
Se0 Ta11 2.731672 1_655
Se0 Ta11 2.731672 1_555
Se0 Ta3 2.748663 1_655
Se0 Ta3 2.748663 1_555
Se1 Ta20 2.714640 1_555
Se1 Ta10 2.731672 1_555
Se1 Ta10 2.731672 1_655
Se1 Ta2 2.748663 1_555
Se1 Ta2 2.748663 1_655
Se2 Ta21 2.714640 1_566
Se2 Ta9 2.731672 1_555
Se2 Ta9 2.731672 1_455
Se2 Ta0 2.748663 1_556
Se2 Ta0 2.748663 1_456
Se3 Ta21 2.714640 1_555
Se3 Ta8 2.731672 1_455
Se3 Ta8 2.731672 1_555
Se3 Ta1 2.748663 1_454
Se3 Ta1 2.748663 1_554
Se4 Ta16 2.624929 1_555
Se4 Ta6 2.636756 1_545
Se4 Ta6 2.636756 1_645
Se4 Ta13 2.669505 1_545
Se5 Ta17 2.624929 1_555
Se5 Ta7 2.636756 1_665
Se5 Ta7 2.636756 1_565
Se5 Ta12 2.669505 1_565
Se6 Ta18 2.624929 1_555
Se6 Ta4 2.636756 1_555
Se6 Ta4 2.636756 1_455
Se6 Ta15 2.669505 1_555
Se7 Ta19 2.624929 1_555
Se7 Ta5 2.636756 1_555
Se7 Ta5 2.636756 1_455
Se7 Ta14 2.669505 1_555
Se8 Ta1 2.562227 1_555
Se8 Ta15 2.621214 1_555
Se8 Ta15 2.621214 1_655
Se9 Ta0 2.562227 1_555
Se9 Ta14 2.621214 1_555
Se9 Ta14 2.621214 1_655
Se10 Ta2 2.562227 1_555
Se10 Ta13 2.621214 1_455
Se10 Ta13 2.621214 1_555
Se11 Ta3 2.562227 1_555
Se11 Ta12 2.621214 1_555
Se11 Ta12 2.621214 1_455
Se12 Ta4 2.679508 1_555
Se12 Ta4 2.679508 1_455
Se12 Ta11 2.709721 1_555
Se12 Ta16 2.762317 1_555
Se12 Ta16 2.762317 1_455
Se12 Ta15 2.775923 1_555
Se13 Ta5 2.679508 1_455
Se13 Ta5 2.679508 1_555
Se13 Ta10 2.709721 1_555
Se13 Ta17 2.762317 1_455
Se13 Ta17 2.762317 1_555
Se13 Ta14 2.775923 1_555
Se14 Ta6 2.679508 1_555
Se14 Ta6 2.679508 1_655
Se14 Ta9 2.709721 1_555
Se14 Ta18 2.762317 1_655
Se14 Ta18 2.762317 1_555
Se14 Ta13 2.775923 1_555
Se15 Ta7 2.679508 1_555
Se15 Ta7 2.679508 1_655
Se15 Ta8 2.709721 1_555
Se15 Ta19 2.762317 1_555
Se15 Ta19 2.762317 1_655
Se15 Ta12 2.775923 1_555
