# generated using pymatgen
data_Na10Y7TaSi6(SO8)6
_symmetry_space_group_name_H-M   'P 1'
_cell_length_a   18.65419088
_cell_length_b   9.34907274
_cell_length_c   23.50980787
_cell_angle_alpha   90.13788596
_cell_angle_beta   89.81323858
_cell_angle_gamma   119.98077438
_symmetry_Int_Tables_number   1
_chemical_formula_structural   Na10Y7TaSi6(SO8)6
_chemical_formula_sum   'Na30 Y21 Ta3 Si18 S18 O144'
_cell_volume   3551.45476949
_cell_formula_units_Z   3
loop_
 _symmetry_equiv_pos_site_id
 _symmetry_equiv_pos_as_xyz
  1  'x, y, z'
loop_
 _atom_site_type_symbol
 _atom_site_label
 _atom_site_symmetry_multiplicity
 _atom_site_fract_x
 _atom_site_fract_y
 _atom_site_fract_z
 _atom_site_occupancy
  Na  Na0  1  0.32163236  0.01116123  0.24686846  1
  Na  Na1  1  0.82655505  0.00387378  0.25033300  1
  Na  Na2  1  0.18559212  0.35655979  0.24921521  1
  Na  Na3  1  0.68739739  0.38177369  0.23172877  1
  Na  Na4  1  0.99507267  0.63117458  0.24028293  1
  Na  Na5  1  0.49279766  0.61723781  0.25057824  1
  Na  Na6  1  0.30970520  0.62063703  0.74889356  1
  Na  Na7  1  0.80996736  0.62402847  0.74663377  1
  Na  Na8  1  0.99400725  0.34208645  0.74338839  1
  Na  Na9  1  0.69126086  0.01915131  0.75731191  1
  Na  Na10  1  0.16652635  0.34556044  0.58273074  1
  Na  Na11  1  0.00858610  0.68901059  0.58676431  1
  Na  Na12  1  0.32809872  0.96388080  0.58850565  1
  Na  Na13  1  0.83522048  0.97544122  0.58092003  1
  Na  Na14  1  0.82886578  0.66839977  0.07210772  1
  Na  Na15  1  0.17087020  0.31121842  0.90471590  1
  Na  Na16  1  0.67281277  0.31720919  0.91621906  1
  Na  Na17  1  0.35586735  0.66612537  0.41767318  1
  Na  Na18  1  0.99994033  0.99371698  0.49735897  1
  Na  Na19  1  0.50694998  0.96088609  0.50009826  1
  Na  Na20  1  0.98550727  0.95484823  0.99788324  1
  Na  Na21  1  0.48587988  0.94420239  0.00132879  1
  Na  Na22  1  0.32801537  0.33085899  0.83697242  1
  Na  Na23  1  0.82678955  0.33703796  0.83828126  1
  Na  Na24  1  0.35022353  0.34404887  0.33246706  1
  Na  Na25  1  0.84452634  0.35363047  0.32937468  1
  Na  Na26  1  0.15148725  0.66165269  0.16409707  1
  Na  Na27  1  0.64454126  0.62757708  0.15768518  1
  Na  Na28  1  0.16404099  0.66046434  0.66035382  1
  Na  Na29  1  0.66971524  0.62109015  0.66882837  1
  Y  Y0  1  0.99870362  0.99845005  0.34808575  1
  Y  Y1  1  0.50058247  0.99552057  0.35155020  1
  Y  Y2  1  0.99326063  0.99615274  0.85222248  1
  Y  Y3  1  0.49754411  0.99533160  0.85347572  1
  Y  Y4  1  0.50545772  0.00642007  0.64870651  1
  Y  Y5  1  0.32631131  0.32852020  0.68204480  1
  Y  Y6  1  0.82866530  0.33824629  0.68152417  1
  Y  Y7  1  0.33996703  0.34612653  0.18260097  1
  Y  Y8  1  0.84077211  0.34971883  0.17683606  1
  Y  Y9  1  0.34198669  0.36134984  0.98659974  1
  Y  Y10  1  0.83459469  0.34980821  0.98861881  1
  Y  Y11  1  0.33363952  0.34195140  0.48377030  1
  Y  Y12  1  0.84025695  0.34745603  0.48609871  1
  Y  Y13  1  0.16931218  0.67165110  0.01911109  1
  Y  Y14  1  0.66503537  0.66450016  0.02031751  1
  Y  Y15  1  0.16506365  0.66499764  0.51950518  1
  Y  Y16  1  0.66160401  0.65868799  0.51439632  1
  Y  Y17  1  0.16376630  0.66440916  0.30781777  1
  Y  Y18  1  0.66040687  0.65431723  0.31630784  1
  Y  Y19  1  0.16836137  0.66371754  0.81732103  1
  Y  Y20  1  0.67325080  0.66243113  0.81572123  1
  Ta  Ta0  1  0.00100288  0.01432216  0.64742680  1
  Ta  Ta1  1  -0.00113003  0.99051077  0.15304969  1
  Ta  Ta2  1  0.49758902  0.00523729  0.14578968  1
  Si  Si0  1  0.14690905  0.00260876  0.24968886  1
  Si  Si1  1  0.35478430  0.71234880  0.24960798  1
  Si  Si2  1  0.85081924  0.70173744  0.25026082  1
  Si  Si3  1  0.99618167  0.28615570  0.24766643  1
  Si  Si4  1  0.50087603  0.29065560  0.24981271  1
  Si  Si5  1  0.14669115  0.29622779  0.75352962  1
  Si  Si6  1  0.65097064  0.29700333  0.75457333  1
  Si  Si7  1  0.85130829  0.00051901  0.74667514  1
  Si  Si8  1  0.98078804  0.33068926  0.58801420  1
  Si  Si9  1  0.18193331  0.03616178  0.58390032  1
  Si  Si10  1  0.33640762  0.64562082  0.58275944  1
  Si  Si11  1  0.83514421  0.64465043  0.58893146  1
  Si  Si12  1  0.48948521  0.65058198  0.08990782  1
  Si  Si13  1  0.98995656  0.65469744  0.08893443  1
  Si  Si14  1  0.67854962  0.32783372  0.08572223  1
  Si  Si15  1  0.31659838  0.66113697  0.91432101  1
  Si  Si16  1  0.81997006  0.66372600  0.91968689  1
  Si  Si17  1  0.51220690  0.66263942  0.41328798  1
  S  S0  1  0.64448404  -0.00062339  0.24520569  1
  S  S1  1  0.00243246  0.71271471  0.74573069  1
  S  S2  1  0.49927649  0.70122714  0.74965979  1
  S  S3  1  0.35033485  0.00031523  0.74872404  1
  S  S4  1  0.48215049  0.33343032  0.58515816  1
  S  S5  1  0.68368490  0.03404828  0.58145601  1
  S  S6  1  0.33744522  0.03348224  0.08630943  1
  S  S7  1  0.84094729  0.03359673  0.08653848  1
  S  S8  1  0.17573297  0.32037137  0.08505779  1
  S  S9  1  0.01657369  0.36960895  0.91690063  1
  S  S10  1  0.51635916  0.36930428  0.91633632  1
  S  S11  1  0.16892236  0.97062132  0.91747378  1
  S  S12  1  0.66857369  0.97102333  0.91426852  1
  S  S13  1  0.31408205  0.96388210  0.41594442  1
  S  S14  1  0.81720111  0.97206872  0.41724579  1
  S  S15  1  0.16535668  0.36521041  0.41589377  1
  S  S16  1  0.67131810  0.36610470  0.41576729  1
  S  S17  1  0.01472659  0.66597401  0.41643714  1
  O  O0  1  0.10878549  0.04305243  0.30471860  1
  O  O1  1  0.60996404  0.02674440  0.29786862  1
  O  O2  1  0.40665786  0.78083768  0.30842694  1
  O  O3  1  0.91268404  0.78298285  0.30330455  1
  O  O4  1  0.49051214  0.18315622  0.30590139  1
  O  O5  1  0.98028291  0.17283066  0.30316580  1
  O  O6  1  0.10832555  0.20491092  0.81343208  1
  O  O7  1  0.60818270  0.19146802  0.81277069  1
  O  O8  1  0.48549835  0.78237644  0.79959818  1
  O  O9  1  0.99669987  0.79834007  0.79644060  1
  O  O10  1  0.39992646  0.00585370  0.79841451  1
  O  O11  1  0.90963472  0.02515954  0.80062923  1
  O  O12  1  0.38888846  0.98314212  0.69526398  1
  O  O13  1  0.90517895  0.98276312  0.69096464  1
  O  O14  1  0.08347074  0.17929868  0.69895763  1
  O  O15  1  0.59844526  0.19351455  0.69864948  1
  O  O16  1  0.00710599  0.80667873  0.69293180  1
  O  O17  1  0.50493905  0.79554277  0.69750788  1
  O  O18  1  0.41197699  0.84179662  0.19711363  1
  O  O19  1  0.90547326  0.82452023  0.19280597  1
  O  O20  1  0.00429304  0.17966110  0.19198466  1
  O  O21  1  0.50809162  0.18451283  0.19442874  1
  O  O22  1  0.08239424  0.98388297  0.19469396  1
  O  O23  1  0.59089983  0.98496364  0.19596009  1
  O  O24  1  0.44436193  0.35351151  0.63742978  1
  O  O25  1  0.94744159  0.37086954  0.64629520  1
  O  O26  1  0.24819675  0.10824434  0.63600990  1
  O  O27  1  0.72922653  0.10883056  0.63526005  1
  O  O28  1  0.32381193  0.53115344  0.63946741  1
  O  O29  1  0.81890866  0.54702375  0.64911849  1
  O  O30  1  0.45181017  0.54581799  0.14834595  1
  O  O31  1  0.95427042  0.56214202  0.14992951  1
  O  O32  1  0.32812873  0.10515694  0.13997238  1
  O  O33  1  0.83138248  0.10512212  0.14041931  1
  O  O34  1  0.22533394  0.33960495  0.13653689  1
  O  O35  1  0.73380868  0.35093473  0.14249142  1
  O  O36  1  0.21593504  0.29894652  0.03355376  1
  O  O37  1  0.71870830  0.29679083  0.02831086  1
  O  O38  1  0.42825882  0.55854716  0.03542655  1
  O  O39  1  0.91970631  0.55641139  0.03973830  1
  O  O40  1  0.34654200  0.13617523  0.03656259  1
  O  O41  1  0.84993316  0.13807773  0.03741101  1
  O  O42  1  0.21730707  0.16041403  0.52974432  1
  O  O43  1  0.72680742  0.14128429  0.53249932  1
  O  O44  1  0.34112044  0.55435896  0.52439655  1
  O  O45  1  0.85833950  0.55328976  0.53789952  1
  O  O46  1  0.43050268  0.31387853  0.53473269  1
  O  O47  1  0.91398874  0.27317064  0.53638004  1
  O  O48  1  0.26074743  0.66813673  0.96633142  1
  O  O49  1  0.77169535  0.67260906  0.97676731  1
  O  O50  1  0.06821956  0.46795909  0.96506554  1
  O  O51  1  0.56567612  0.45523728  0.96709630  1
  O  O52  1  0.16062798  0.87125113  0.96821645  1
  O  O53  1  0.66205435  0.86457040  0.96202570  1
  O  O54  1  0.27087807  0.86554640  0.46759558  1
  O  O55  1  0.77227451  0.87691095  0.46885434  1
  O  O56  1  0.16319850  0.45430460  0.46777159  1
  O  O57  1  0.66801631  0.45889768  0.46587113  1
  O  O58  1  0.05888434  0.66483535  0.46867810  1
  O  O59  1  0.56948361  0.66602013  0.46657337  1
  O  O60  1  0.05956112  0.66273096  0.36474243  1
  O  O61  1  0.55578790  0.65970113  0.35202767  1
  O  O62  1  0.26586213  0.87744687  0.36426288  1
  O  O63  1  0.77189883  0.88433034  0.36461794  1
  O  O64  1  0.16807412  0.46071417  0.36430040  1
  O  O65  1  0.67788349  0.45914834  0.36263226  1
  O  O66  1  0.05238118  0.46151530  0.86231507  1
  O  O67  1  0.55457939  0.46799538  0.86452606  1
  O  O68  1  0.17131733  0.88310657  0.86511685  1
  O  O69  1  0.66845200  0.89330687  0.85862519  1
  O  O70  1  0.26585802  0.64239028  0.85339864  1
  O  O71  1  0.76582155  0.64927040  0.86175479  1
  O  O72  1  0.00631682  0.81530122  0.41800397  1
  O  O73  1  0.50053303  0.82668762  0.41894999  1
  O  O74  1  0.39573193  0.97206576  0.41474872  1
  O  O75  1  0.90073957  0.98818144  0.41847379  1
  O  O76  1  0.09144537  0.19895439  0.41661100  1
  O  O77  1  0.59604637  0.20178886  0.41524844  1
  O  O78  1  0.01915872  0.21237370  0.91617998  1
  O  O79  1  0.51500465  0.20814723  0.91305287  1
  O  O80  1  0.09715632  0.99926307  0.91538170  1
  O  O81  1  0.59575902  0.99854406  0.91643779  1
  O  O82  1  0.40968135  0.82312060  0.91525316  1
  O  O83  1  0.91337819  0.82514107  0.91801526  1
  O  O84  1  0.48668509  0.17879606  0.58848753  1
  O  O85  1  0.99434731  0.16563796  0.59579240  1
  O  O86  1  0.09066526  0.02113819  0.59994239  1
  O  O87  1  0.59882399  0.00910521  0.58386091  1
  O  O88  1  0.41391544  0.83634675  0.58496545  1
  O  O89  1  0.92503425  0.82829469  0.59531417  1
  O  O90  1  0.49191804  0.83252756  0.09705525  1
  O  O91  1  0.99133138  0.83802774  0.09160491  1
  O  O92  1  0.41554722  0.02109172  0.09009985  1
  O  O93  1  0.91761279  0.01691151  0.08980850  1
  O  O94  1  0.09172138  0.16922523  0.09119361  1
  O  O95  1  0.58494521  0.16366666  0.09707198  1
  O  O96  1  0.34294857  0.14962991  0.74803803  1
  O  O97  1  0.84258262  0.16502528  0.74115757  1
  O  O98  1  0.24225190  0.33443488  0.74670018  1
  O  O99  1  0.74517107  0.31832042  0.75308741  1
  O  O100  1  0.42689882  0.53184243  0.74628318  1
  O  O101  1  0.92638266  0.54635112  0.74435648  1
  O  O102  1  0.33518157  0.52160696  0.24246379  1
  O  O103  1  0.83342249  0.51206567  0.24461538  1
  O  O104  1  0.41852880  0.31065052  0.24539487  1
  O  O105  1  0.91460538  0.30878340  0.24402009  1
  O  O106  1  0.23961914  0.15451554  0.23890802  1
  O  O107  1  0.72983071  0.14052244  0.23860614  1
  O  O108  1  0.31672342  0.48262492  0.91749059  1
  O  O109  1  0.82019706  0.48543764  0.91838338  1
  O  O110  1  0.43038929  0.33796770  0.92131668  1
  O  O111  1  0.93093841  0.33587968  0.92199335  1
  O  O112  1  0.24579032  0.13512000  0.92045704  1
  O  O113  1  0.74514308  0.13486125  0.91797771  1
  O  O114  1  0.32337932  0.12950451  0.41913505  1
  O  O115  1  0.82388647  0.13744124  0.41817984  1
  O  O116  1  0.24328148  0.35810871  0.41557102  1
  O  O117  1  0.74644215  0.34934726  0.41926002  1
  O  O118  1  0.41774033  0.49801378  0.41464443  1
  O  O119  1  0.93128544  0.51329639  0.41574243  1
  O  O120  1  0.16535539  0.46694534  0.07934786  1
  O  O121  1  0.67352783  0.49769684  0.08173957  1
  O  O122  1  0.08189460  0.68110284  0.08006110  1
  O  O123  1  0.58339910  0.68762151  0.08124139  1
  O  O124  1  0.26705514  0.86382950  0.08062255  1
  O  O125  1  0.76974960  0.86419448  0.08050171  1
  O  O126  1  0.16007408  0.84477132  0.57521025  1
  O  O127  1  0.68056081  0.87289930  0.57617055  1
  O  O128  1  0.25054311  0.65938824  0.58173163  1
  O  O129  1  0.76144418  0.68656736  0.57717264  1
  O  O130  1  0.07385521  0.48163029  0.57649855  1
  O  O131  1  0.56704680  0.47702813  0.57957950  1
  O  O132  1  0.14302701  0.82365356  0.25030690  1
  O  O133  1  0.64869521  0.84444480  0.24833668  1
  O  O134  1  0.26624790  0.71152079  0.25078843  1
  O  O135  1  0.76541366  0.71047452  0.25186644  1
  O  O136  1  0.08319963  0.46407526  0.24910236  1
  O  O137  1  0.58622027  0.47331130  0.24859463  1
  O  O138  1  0.14689490  0.47518165  0.74827512  1
  O  O139  1  0.66142373  0.48235710  0.75240811  1
  O  O140  1  0.07580449  0.69048961  0.74788503  1
  O  O141  1  0.57784139  0.70020538  0.75558980  1
  O  O142  1  0.26673579  0.84740337  0.75208434  1
  O  O143  1  0.75952122  0.83486749  0.74729531  1
loop_
_geom_bond_atom_site_label_1
_geom_bond_atom_site_label_2
_geom_bond_distance
_geom_bond_site_symmetry_2
Na0 O134 2.455929 1_545
Na0 O104 2.459690 1_555
Na0 O106 2.494813 1_555
Na0 O32 2.646666 1_555
Na0 O132 2.888219 1_545
Na1 O135 2.387415 1_545
Na1 O105 2.483325 1_555
Na1 O107 2.696728 1_555
Na1 O33 2.739799 1_555
Na1 O5 2.783538 1_555
Na1 O133 2.879257 1_545
Na1 O63 2.892291 1_545
Na2 O102 2.426495 1_555
Na2 O106 2.557596 1_555
Na2 O136 2.564667 1_555
Na2 O34 2.773949 1_555
Na2 O0 2.855786 1_555
Na2 O134 2.878817 1_555
Na2 O64 2.945333 1_555
Na3 O35 2.338546 1_555
Na3 O103 2.383919 1_555
Na3 O137 2.461615 1_555
Na3 O135 2.704355 1_555
Na3 O107 2.743496 1_555
Na4 O31 2.240768 1_555
Na4 O132 2.439198 1_655
Na4 O105 2.612319 1_555
Na4 O103 2.643096 1_555
Na4 O136 2.785058 1_655
Na4 O3 2.954082 1_555
Na5 O104 2.486090 1_555
Na5 O30 2.510197 1_555
Na5 O61 2.602749 1_555
Na5 O133 2.607281 1_555
Na5 O102 2.618428 1_555
Na5 O137 2.681906 1_555
Na6 O98 2.319555 1_555
Na6 O142 2.615332 1_555
Na6 O70 2.626299 1_555
Na6 O138 2.635515 1_555
Na6 O100 2.699042 1_555
Na6 O28 2.755464 1_555
Na7 O139 2.404447 1_555
Na7 O29 2.431365 1_555
Na7 O99 2.490172 1_555
Na7 O143 2.573870 1_555
Na7 O101 2.611789 1_555
Na7 O71 2.869750 1_555
Na8 O97 2.459529 1_555
Na8 O138 2.479945 1_655
Na8 O25 2.507370 1_555
Na8 O101 2.765138 1_555
Na8 O140 2.825112 1_655
Na8 O11 2.900346 1_555
Na8 O14 2.951582 1_655
Na8 O66 3.006563 1_655
Na9 O99 2.456361 1_555
Na9 O97 2.473930 1_555
Na9 O69 2.597128 1_545
Na9 O143 2.614157 1_545
Na9 O141 2.657867 1_545
Na10 O128 2.543547 1_555
Na10 O130 2.613159 1_555
Na10 O42 2.658182 1_555
Na10 O86 2.660492 1_555
Na10 O85 2.799345 1_455
Na10 O28 2.885280 1_555
Na10 O56 2.901595 1_555
Na11 O126 2.462554 1_555
Na11 O89 2.488043 1_455
Na11 O45 2.691618 1_455
Na11 O86 2.707182 1_565
Na11 O16 2.730851 1_555
Na11 O130 2.766713 1_555
Na11 O25 2.953883 1_455
Na11 O58 2.971629 1_555
Na12 O88 2.428483 1_555
Na12 O128 2.470930 1_555
Na12 O84 2.616892 1_565
Na12 O26 2.698683 1_565
Na12 O12 2.725817 1_555
Na12 O126 2.770991 1_555
Na12 O54 3.015165 1_555
Na13 O129 2.341065 1_555
Na13 O127 2.548022 1_555
Na13 O85 2.612276 1_565
Na13 O47 2.630542 1_565
Na13 O89 2.668974 1_555
Na13 O55 2.845369 1_555
Na13 O13 2.886670 1_555
Na14 O49 2.494170 1_554
Na14 O39 2.511520 1_555
Na14 O121 2.523999 1_555
Na14 O125 2.572943 1_555
Na14 O91 2.666857 1_555
Na14 O93 2.852573 1_565
Na15 O108 2.388790 1_555
Na15 O6 2.408688 1_555
Na15 O78 2.513622 1_555
Na15 O80 2.540245 1_545
Na15 O112 2.665808 1_555
Na15 O70 2.949998 1_555
Na16 O109 2.390399 1_555
Na16 O81 2.581104 1_545
Na16 O79 2.590808 1_555
Na16 O113 2.651052 1_555
Na16 O7 2.709103 1_555
Na16 O37 2.809709 1_556
Na17 O73 2.342760 1_555
Na17 O118 2.370512 1_555
Na17 O74 2.571702 1_555
Na17 O116 2.580970 1_555
Na17 O44 2.680237 1_555
Na17 O2 2.761553 1_555
Na18 O72 2.541428 1_655
Na18 O75 2.606284 1_555
Na18 O76 2.631017 1_665
Na18 O89 2.735705 1_555
Na18 O85 2.845649 1_565
Na18 O86 2.887271 1_665
Na19 O73 2.251206 1_555
Na19 O87 2.502789 1_565
Na19 O88 2.513472 1_555
Na19 O77 2.841301 1_565
Na19 O74 2.930247 1_555
Na20 O83 2.276273 1_555
Na20 O91 2.488219 1_556
Na20 O93 2.705892 1_566
Na20 O80 2.717610 1_655
Na20 O78 2.895549 1_665
Na20 O94 2.965369 1_666
Na21 O82 2.407597 1_554
Na21 O90 2.509588 1_555
Na21 O81 2.716612 1_554
Na21 O92 2.740641 1_565
Na22 O108 2.433939 1_555
Na22 O112 2.597327 1_555
Na22 O98 2.672199 1_555
Na22 O110 2.735059 1_555
Na22 O96 2.787609 1_555
Na22 O100 2.829954 1_555
Na23 O109 2.375463 1_555
Na23 O99 2.472287 1_555
Na23 O113 2.554263 1_555
Na23 O111 2.773794 1_555
Na23 O97 2.887584 1_555
Na23 O101 2.918472 1_555
Na24 O118 2.362490 1_555
Na24 O104 2.507785 1_555
Na24 O114 2.726673 1_555
Na24 O102 2.792477 1_555
Na24 O116 2.837177 1_555
Na24 O106 2.931178 1_555
Na25 O105 2.537343 1_555
Na25 O103 2.555622 1_555
Na25 O119 2.561794 1_555
Na25 O117 2.777926 1_555
Na25 O115 2.798137 1_555
Na25 O107 2.974888 1_555
Na26 O122 2.424051 1_555
Na26 O132 2.578496 1_555
Na26 O136 2.584198 1_555
Na26 O120 2.792879 1_555
Na26 O134 2.824972 1_555
Na26 O124 2.826548 1_555
Na27 O123 2.346051 1_555
Na27 O121 2.365198 1_555
Na27 O137 2.502615 1_555
Na27 O125 2.910231 1_555
Na27 O133 2.912401 1_555
Na27 O135 2.977431 1_555
Na28 O128 2.452986 1_555
Na28 O130 2.589742 1_555
Na28 O138 2.614314 1_555
Na28 O126 2.669529 1_555
Na28 O140 2.731240 1_555
Na28 O142 2.835101 1_555
Na29 O139 2.318834 1_555
Na29 O143 2.619196 1_555
Na29 O129 2.623231 1_555
Na29 O131 2.705390 1_555
O0 Si0 1.607132 1_555
O0 Y0 2.136070 1_445
O1 S0 1.473415 1_555
O1 Y1 2.287139 1_545
O2 Si1 1.625970 1_555
O2 Y1 2.147854 1_555
O3 Si2 1.610167 1_555
O3 Y0 2.124002 1_555
O4 Si4 1.611448 1_555
O4 Y1 2.145703 1_545
O5 Si3 1.613384 1_555
O5 Y0 2.112284 1_545
O6 Si5 1.616453 1_555
O6 Y2 2.248785 1_445
O7 Si6 1.641609 1_555
O7 Y3 2.179691 1_545
O8 S2 1.486150 1_555
O8 Y3 2.271853 1_555
O9 S1 1.467545 1_655
O9 Y2 2.291386 1_555
O10 S3 1.477186 1_555
O10 Y3 2.279544 1_545
O11 Si7 1.613363 1_555
O11 Y2 2.101194 1_545
O12 S3 1.493713 1_565
O12 Y4 2.342341 1_565
O13 Si7 1.705851 1_565
O13 Ta0 1.947406 1_665
O14 Si5 1.716545 1_555
O14 Ta0 1.960863 1_555
O15 Si6 1.636938 1_555
O15 Y4 2.101928 1_555
O16 S1 1.499376 1_555
O16 Ta0 2.271052 1_565
O17 S2 1.484322 1_555
O17 Y4 2.279256 1_565
O18 Si1 1.683491 1_555
O18 Ta2 1.974511 1_565
O19 Si2 1.735079 1_555
O19 Ta1 1.900391 1_655
O20 Si3 1.694350 1_455
O20 Ta1 1.946612 1_545
O21 Si4 1.680582 1_555
O21 Ta2 1.954277 1_555
O22 Si0 1.717300 1_565
O22 Ta1 1.869948 1_555
O23 S0 1.493277 1_565
O23 Ta2 2.191152 1_565
O24 S4 1.472360 1_555
O24 Y5 2.340102 1_555
O25 Si8 1.622018 1_555
O25 Y6 2.236531 1_555
O26 Si9 1.629810 1_555
O26 Y5 2.129816 1_555
O27 S5 1.489864 1_555
O27 Y6 2.291247 1_555
O28 Si10 1.652690 1_555
O28 Y5 2.165809 1_555
O29 Si11 1.629147 1_555
O29 Y6 2.187798 1_555
O30 Si12 1.628799 1_555
O30 Y7 2.142499 1_555
O31 Si13 1.634707 1_555
O31 Y8 2.149847 1_555
O32 S6 1.477080 1_555
O32 Y7 2.371036 1_555
O33 S7 1.482323 1_555
O33 Y8 2.363083 1_555
O34 S8 1.480933 1_555
O34 Y7 2.373540 1_555
O35 Si14 1.635710 1_555
O35 Y8 2.160228 1_555
O36 S8 1.487187 1_555
O36 Y9 2.388118 1_554
O37 Si14 1.635849 1_555
O37 Y10 2.169765 1_554
O38 Si12 1.645432 1_555
O38 Y9 2.084024 1_554
O39 Si13 1.643370 1_555
O39 Y10 2.152285 1_554
O40 S6 1.469579 1_555
O40 Y9 2.451538 1_554
O41 S7 1.468584 1_555
O41 Y10 2.427998 1_554
O42 Si9 1.625247 1_555
O42 Y11 2.251799 1_555
O43 S5 1.473239 1_555
O43 Y12 2.302672 1_555
O44 Si10 1.639179 1_555
O44 Y11 2.142418 1_555
O45 Si11 1.648399 1_555
O45 Y12 2.154689 1_555
O46 S4 1.482375 1_555
O46 Y11 2.293218 1_555
O47 Si8 1.628653 1_555
O47 Y12 2.177306 1_555
O48 Si15 1.626137 1_555
O48 Y13 2.119439 1_556
O49 Si16 1.638597 1_555
O49 Y14 2.202068 1_556
O50 S9 1.473973 1_555
O50 Y13 2.282985 1_556
O51 S10 1.476401 1_555
O51 Y14 2.282048 1_556
O52 S11 1.473302 1_555
O52 Y13 2.292222 1_556
O53 S12 1.466085 1_555
O53 Y14 2.344487 1_556
O54 S13 1.492571 1_555
O54 Y15 2.279804 1_555
O55 S14 1.489748 1_555
O55 Y16 2.314605 1_555
O56 S15 1.487025 1_555
O56 Y15 2.297992 1_555
O57 S16 1.480518 1_555
O57 Y16 2.239822 1_555
O58 S17 1.484074 1_555
O58 Y15 2.315906 1_555
O59 Si17 1.639116 1_555
O59 Y16 2.086257 1_555
O60 S17 1.481883 1_555
O60 Y17 2.350006 1_555
O61 Si17 1.658432 1_555
O61 Y18 2.145624 1_555
O62 S13 1.488065 1_555
O62 Y17 2.359610 1_555
O63 S14 1.492308 1_555
O63 Y18 2.402829 1_555
O64 S15 1.493524 1_555
O64 Y17 2.358423 1_555
O65 S16 1.493293 1_555
O65 Y18 2.286505 1_555
O66 S9 1.502473 1_555
O66 Y19 2.297942 1_555
O67 S10 1.478372 1_555
O67 Y20 2.343751 1_555
O68 S11 1.489249 1_555
O68 Y19 2.312769 1_555
O69 S12 1.494325 1_555
O69 Y20 2.422079 1_555
O70 Si15 1.679244 1_555
O70 Y19 2.107179 1_555
O71 Si16 1.662883 1_555
O71 Y20 2.096069 1_555
O72 S17 1.481074 1_555
O72 Y0 2.431482 1_455
O73 Si17 1.658311 1_555
O73 Y1 2.238937 1_555
O74 S13 1.486533 1_555
O74 Y1 2.373852 1_555
O75 S14 1.489167 1_555
O75 Y0 2.427522 1_555
O76 S15 1.474920 1_555
O76 Y0 2.421725 1_445
O77 S16 1.475092 1_555
O77 Y1 2.388306 1_545
O78 S9 1.494738 1_555
O78 Y2 2.365312 1_445
O79 S10 1.496013 1_555
O79 Y3 2.316984 1_545
O80 S11 1.491678 1_555
O80 Y2 2.433943 1_455
O81 S12 1.504174 1_555
O81 Y3 2.347575 1_555
O82 Si15 1.637363 1_555
O82 Y3 2.178608 1_555
O83 Si16 1.639170 1_555
O83 Y2 2.187470 1_555
O84 S4 1.492012 1_555
O84 Y4 2.302670 1_555
O85 Si8 1.694177 1_555
O85 Ta0 1.917043 1_655
O86 Si9 1.678588 1_555
O86 Ta0 1.982288 1_555
O87 S5 1.481232 1_555
O87 Y4 2.301598 1_555
O88 Si10 1.641975 1_555
O88 Y4 2.231917 1_565
O89 Si11 1.704449 1_555
O89 Ta0 2.017890 1_665
O90 Si12 1.686800 1_555
O90 Ta2 1.937074 1_565
O91 Si13 1.702307 1_555
O91 Ta1 1.982381 1_655
O92 S6 1.521043 1_555
O92 Ta2 2.078228 1_555
O93 S7 1.516330 1_555
O93 Ta1 2.226980 1_645
O94 S8 1.503288 1_555
O94 Ta1 2.238178 1_545
O95 Si14 1.672212 1_555
O95 Ta2 1.935170 1_555
O96 S3 1.469791 1_555
O96 Y5 2.415561 1_555
O97 Si7 1.630950 1_555
O97 Y6 2.255892 1_555
O98 Si5 1.641065 1_555
O98 Y5 2.200703 1_555
O99 Si6 1.666864 1_555
O99 Y6 2.232847 1_555
O100 S2 1.483311 1_555
O100 Y5 2.419688 1_555
O101 S1 1.492500 1_655
O101 Y6 2.397788 1_555
O102 Si1 1.639875 1_555
O102 Y7 2.194214 1_555
O103 Si2 1.640544 1_555
O103 Y8 2.248682 1_555
O104 Si4 1.641194 1_555
O104 Y7 2.222461 1_555
O105 Si3 1.640264 1_555
O105 Y8 2.254347 1_555
O106 Si0 1.617495 1_555
O106 Y7 2.260390 1_555
O107 S0 1.483170 1_555
O107 Y8 2.483105 1_555
O108 Si15 1.671930 1_555
O108 Y9 2.166859 1_555
O109 Si16 1.669158 1_555
O109 Y10 2.181706 1_555
O110 S10 1.483499 1_555
O110 Y9 2.337734 1_555
O111 S9 1.470079 1_655
O111 Y10 2.432068 1_555
O112 S11 1.490764 1_545
O112 Y9 2.514106 1_555
O113 S12 1.485789 1_545
O113 Y10 2.496303 1_555
O114 S13 1.471201 1_545
O114 Y11 2.428593 1_555
O115 S14 1.487801 1_545
O115 Y12 2.426284 1_555
O116 S15 1.487908 1_555
O116 Y11 2.389122 1_555
O117 S16 1.488416 1_555
O117 Y12 2.362440 1_555
O118 Si17 1.662658 1_555
O118 Y11 2.222213 1_555
O119 S17 1.496685 1_655
O119 Y12 2.320785 1_555
O120 S8 1.483064 1_555
O120 Y13 2.354739 1_555
O121 Si14 1.639798 1_555
O121 Y14 2.191217 1_555
O122 Si13 1.618817 1_455
O122 Y13 2.201918 1_555
O123 Si12 1.619336 1_555
O123 Y14 2.174998 1_555
O124 S6 1.475265 1_565
O124 Y13 2.318297 1_555
O125 S7 1.479964 1_565
O125 Y14 2.379857 1_555
O126 Si9 1.636848 1_565
O126 Y15 2.166454 1_555
O127 S5 1.483259 1_565
O127 Y16 2.350853 1_555
O128 Si10 1.670033 1_555
O128 Y15 2.187387 1_555
O129 Si11 1.631431 1_555
O129 Y16 2.290346 1_555
O130 Si8 1.621412 1_455
O130 Y15 2.170291 1_555
O131 S4 1.483975 1_555
O131 Y16 2.311932 1_555
O132 Si0 1.638178 1_565
O132 Y17 2.187005 1_555
O133 S0 1.491282 1_565
O133 Y18 2.482926 1_555
O134 Si1 1.647864 1_555
O134 Y17 2.188802 1_555
O135 Si2 1.635832 1_555
O135 Y18 2.316142 1_555
O136 Si3 1.644534 1_455
O136 Y17 2.204531 1_555
O137 Si4 1.653588 1_555
O137 Y18 2.230231 1_555
O138 Si5 1.676012 1_555
O138 Y19 2.277552 1_555
O139 Si6 1.645041 1_555
O139 Y20 2.171951 1_555
O140 S1 1.484520 1_555
O140 Y19 2.482088 1_555
O141 S2 1.477409 1_555
O141 Y20 2.436764 1_555
O142 S3 1.501181 1_565
O142 Y19 2.348122 1_555
O143 Si7 1.637109 1_565
O143 Y20 2.275822 1_555
