# generated using pymatgen
data_MgAl4(CuO4)2
_symmetry_space_group_name_H-M   'P 1'
_cell_length_a   5.74908778
_cell_length_b   5.74908722
_cell_length_c   6.05923351
_cell_angle_alpha   61.67923578
_cell_angle_beta   61.67923537
_cell_angle_gamma   60.00000255
_symmetry_Int_Tables_number   1
_chemical_formula_structural   MgAl4(CuO4)2
_chemical_formula_sum   'Mg1 Al4 Cu2 O8'
_cell_volume   145.10067565
_cell_formula_units_Z   1
loop_
 _symmetry_equiv_pos_site_id
 _symmetry_equiv_pos_as_xyz
  1  'x, y, z'
loop_
 _atom_site_type_symbol
 _atom_site_label
 _atom_site_symmetry_multiplicity
 _atom_site_fract_x
 _atom_site_fract_y
 _atom_site_fract_z
 _atom_site_occupancy
  Mg  Mg0  1  0.00000000  0.00000000  0.50000000  1
  Al  Al0  1  0.50000000  0.00000000  0.50000000  1
  Al  Al1  1  0.00000000  0.50000000  0.50000000  1
  Al  Al2  1  0.50000000  0.50000000  0.00000000  1
  Al  Al3  1  0.50000000  0.50000000  0.50000000  1
  Cu  Cu0  1  0.15620500  0.15620500  0.03138500  1
  Cu  Cu1  1  0.84379500  0.84379500  0.96861500  1
  O  O0  1  0.74355500  0.74355500  0.72611100  1
  O  O1  1  0.27798000  0.27798000  0.66605800  1
  O  O2  1  0.25644500  0.71322000  0.27388900  1
  O  O3  1  0.71322000  0.25644500  0.27388900  1
  O  O4  1  0.74355500  0.28678000  0.72611100  1
  O  O5  1  0.28678000  0.74355500  0.72611100  1
  O  O6  1  0.25644500  0.25644500  0.27388900  1
  O  O7  1  0.72202000  0.72202000  0.33394200  1
loop_
_geom_bond_atom_site_label_1
_geom_bond_atom_site_label_2
_geom_bond_distance
_geom_bond_site_symmetry_2
Mg0 O6 2.136567 1_555
Mg0 O0 2.136567 1_445
Mg0 O2 2.136571 1_545
Mg0 O4 2.136571 1_455
Mg0 O3 2.136572 1_455
Mg0 O5 2.136572 1_545
Al0 O1 1.860893 1_555
Al0 O7 1.860893 1_545
Al0 O3 1.962290 1_555
Al0 O5 1.962290 1_545
Al0 O0 1.962295 1_545
Al0 O6 1.962295 1_555
Al1 O1 1.860893 1_555
Al1 O7 1.860893 1_455
Al1 O4 1.962290 1_455
Al1 O2 1.962290 1_555
Al1 O0 1.962294 1_455
Al1 O6 1.962294 1_555
Al2 O2 2.055809 1_555
Al2 O4 2.055809 1_554
Al2 O5 2.055810 1_554
Al2 O3 2.055810 1_555
Al2 O0 2.055813 1_554
Al2 O6 2.055813 1_555
Al3 O7 1.860902 1_555
Al3 O1 1.860902 1_555
Al3 O5 1.962295 1_555
Al3 O3 1.962295 1_555
Al3 O4 1.962295 1_555
Al3 O2 1.962295 1_555
Cu0 O1 1.851922 1_554
Cu0 O6 2.182275 1_555
Cu0 O2 2.182279 1_545
Cu0 O3 2.182279 1_455
Cu1 O7 1.851922 1_556
Cu1 O0 2.182275 1_555
Cu1 O4 2.182279 1_565
Cu1 O5 2.182279 1_655
