# generated using pymatgen
data_Ba3(GeN)2
_symmetry_space_group_name_H-M   'P 1'
_cell_length_a   4.08063195
_cell_length_b   9.69688334
_cell_length_c   10.21287489
_cell_angle_alpha   113.68066637
_cell_angle_beta   90.00000000
_cell_angle_gamma   90.00000000
_symmetry_Int_Tables_number   1
_chemical_formula_structural   Ba3(GeN)2
_chemical_formula_sum   'Ba6 Ge4 N4'
_cell_volume   370.09002588
_cell_formula_units_Z   2
loop_
 _symmetry_equiv_pos_site_id
 _symmetry_equiv_pos_as_xyz
  1  'x, y, z'
loop_
 _atom_site_type_symbol
 _atom_site_label
 _atom_site_symmetry_multiplicity
 _atom_site_fract_x
 _atom_site_fract_y
 _atom_site_fract_z
 _atom_site_occupancy
  Ba  Ba0  1  0.75000000  0.97178207  0.82613433  1
  Ba  Ba1  1  0.25000000  0.02821793  0.17386567  1
  Ba  Ba2  1  0.75000000  0.38569858  0.14391859  1
  Ba  Ba3  1  0.25000000  0.61430142  0.85608141  1
  Ba  Ba4  1  0.75000000  0.18808248  0.55947065  1
  Ba  Ba5  1  0.25000000  0.81191752  0.44052935  1
  Ge  Ge0  1  0.25000000  0.24581882  0.84695260  1
  Ge  Ge1  1  0.25000000  0.42292731  0.44540078  1
  Ge  Ge2  1  0.75000000  0.75418118  0.15304740  1
  Ge  Ge3  1  0.75000000  0.57707269  0.55459922  1
  N  N0  1  0.75000000  0.81885925  0.00242283  1
  N  N1  1  0.25000000  0.18114075  0.99757717  1
  N  N2  1  0.75000000  0.92907195  0.32336630  1
  N  N3  1  0.25000000  0.07092805  0.67663370  1
loop_
_geom_bond_atom_site_label_1
_geom_bond_atom_site_label_2
_geom_bond_distance
_geom_bond_site_symmetry_2
Ba0 N0 2.754085 1_556
Ba0 N1 2.914569 1_565
Ba0 N1 2.914569 1_665
Ba0 N3 2.932157 1_565
Ba0 N3 2.932157 1_665
Ba0 Ge3 3.716677 1_555
Ba1 N1 2.754085 1_554
Ba1 N0 2.914569 1_545
Ba1 N0 2.914569 1_445
Ba1 N2 2.932157 1_445
Ba1 N2 2.932157 1_545
Ba1 Ge1 3.716677 1_555
Ba2 N1 2.819539 1_654
Ba2 N1 2.819539 1_554
Ba2 Ge1 3.588954 1_555
Ba2 Ge1 3.588954 1_655
Ba2 Ge3 3.844880 1_555
Ba3 N0 2.819539 1_556
Ba3 N0 2.819539 1_456
Ba3 Ge3 3.588954 1_455
Ba3 Ge3 3.588954 1_555
Ba3 Ge1 3.844880 1_555
Ba4 N2 2.694007 1_545
Ba4 N3 2.824389 1_555
Ba4 N3 2.824389 1_655
Ba4 Ge1 3.582885 1_655
Ba4 Ge1 3.582885 1_555
Ba4 Ge3 3.792248 1_555
Ba5 N3 2.694007 1_565
Ba5 N2 2.824389 1_555
Ba5 N2 2.824389 1_455
Ba5 Ge3 3.582885 1_555
Ba5 Ge3 3.582885 1_455
Ba5 Ge1 3.792248 1_555
Ge0 N3 1.879396 1_555
Ge0 N1 1.880091 1_555
Ge1 Ge3 2.510340 1_455
Ge1 Ge3 2.510340 1_555
Ge2 N2 1.879396 1_555
Ge2 N0 1.880091 1_555
