# generated using pymatgen
data_Na7Ca3HfP5SO24
_symmetry_space_group_name_H-M   'P 1'
_cell_length_a   9.40931716
_cell_length_b   9.42209226
_cell_length_c   22.47815085
_cell_angle_alpha   90.11026900
_cell_angle_beta   89.96414934
_cell_angle_gamma   120.11368754
_symmetry_Int_Tables_number   1
_chemical_formula_structural   Na7Ca3HfP5SO24
_chemical_formula_sum   'Na21 Ca9 Hf3 P15 S3 O72'
_cell_volume   1723.84086061
_cell_formula_units_Z   3
loop_
 _symmetry_equiv_pos_site_id
 _symmetry_equiv_pos_as_xyz
  1  'x, y, z'
loop_
 _atom_site_type_symbol
 _atom_site_label
 _atom_site_symmetry_multiplicity
 _atom_site_fract_x
 _atom_site_fract_y
 _atom_site_fract_z
 _atom_site_occupancy
  Na  Na0  1  0.62115283  0.99622299  0.25055547  1
  Na  Na1  1  0.36676328  0.35127126  0.25401578  1
  Na  Na2  1  0.01397618  0.64997518  0.25039640  1
  Na  Na3  1  0.66100493  0.64974685  0.74736786  1
  Na  Na4  1  0.98698383  0.34385526  0.74691998  1
  Na  Na5  1  0.29582473  0.34705040  0.58628413  1
  Na  Na6  1  0.02544331  0.69156220  0.58921562  1
  Na  Na7  1  0.67417769  0.95434132  0.58525100  1
  Na  Na8  1  0.29343716  0.95998880  0.07604694  1
  Na  Na9  1  0.66293972  0.70170197  0.07101553  1
  Na  Na10  1  0.04377333  0.33930992  0.07178331  1
  Na  Na11  1  0.98222451  0.67740354  0.90239793  1
  Na  Na12  1  0.32073553  0.29696690  0.90332378  1
  Na  Na13  1  0.32505371  0.00830107  0.40959003  1
  Na  Na14  1  0.69036158  0.68006964  0.42041607  1
  Na  Na15  1  0.99337408  0.01981110  0.49534612  1
  Na  Na16  1  0.97970004  -0.00018358  0.99228926  1
  Na  Na17  1  0.64376700  0.29464867  0.82550865  1
  Na  Na18  1  0.66901166  0.31854323  0.33662887  1
  Na  Na19  1  0.33250377  0.67909898  0.15962507  1
  Na  Na20  1  0.33406028  0.67245407  0.67333885  1
  Ca  Ca0  1  0.00594395  0.00983053  0.35107517  1
  Ca  Ca1  1  0.99706666  0.00112891  0.84717521  1
  Ca  Ca2  1  0.99902767  0.99827996  0.65742414  1
  Ca  Ca3  1  0.00667638  0.00035902  0.14490096  1
  Ca  Ca4  1  0.66323500  0.33244560  0.68586288  1
  Ca  Ca5  1  0.66254644  0.32914390  0.17876581  1
  Ca  Ca6  1  0.33845131  0.67303535  0.01097703  1
  Ca  Ca7  1  0.32666885  0.65748370  0.51146645  1
  Ca  Ca8  1  0.32722558  0.66319690  0.32594448  1
  Hf  Hf0  1  0.66639043  0.32894019  0.98168371  1
  Hf  Hf1  1  0.67960324  0.34046343  0.48286335  1
  Hf  Hf2  1  0.33649269  0.67506194  0.82138830  1
  P  P0  1  0.30857587  0.99500464  0.25011469  1
  P  P1  1  0.31063022  0.32514384  0.75413001  1
  P  P2  1  0.00890594  0.68805562  0.75214794  1
  P  P3  1  0.68347233  0.98903345  0.74738230  1
  P  P4  1  0.96560622  0.33015894  0.58737371  1
  P  P5  1  0.66954606  0.63508825  0.58359721  1
  P  P6  1  0.96324549  0.63197419  0.08278219  1
  P  P7  1  0.66980511  0.03521885  0.08468844  1
  P  P8  1  0.36760126  0.33363807  0.08229216  1
  P  P9  1  0.63475970  0.65427248  0.92022857  1
  P  P10  1  0.02711870  0.36890274  0.92095247  1
  P  P11  1  0.33765079  0.97546754  0.92241985  1
  P  P12  1  0.64207896  0.98275318  0.41920281  1
  P  P13  1  0.34688967  0.35223238  0.41918725  1
  P  P14  1  0.01528129  0.66672358  0.41666652  1
  S  S0  1  0.68980437  0.69409773  0.25056637  1
  S  S1  1  0.00394023  0.31089944  0.24630017  1
  S  S2  1  0.36680740  0.03799810  0.57891108  1
  O  O0  1  0.21465066  -0.00172968  0.30589415  1
  O  O1  1  0.78059559  0.78500148  0.30435724  1
  O  O2  1  0.99184883  0.20556163  0.29660032  1
  O  O3  1  0.22375991  0.22382901  0.80901834  1
  O  O4  1  0.98984297  0.77959000  0.80492465  1
  O  O5  1  0.81078735  0.01215610  0.79376391  1
  O  O6  1  0.73575280  0.95065093  0.68634245  1
  O  O7  1  0.20985812  0.24713978  0.69650854  1
  O  O8  1  0.02602645  0.77726609  0.69253139  1
  O  O9  1  0.77594117  0.78826474  0.19602293  1
  O  O10  1  0.00649639  0.23185736  0.18917784  1
  O  O11  1  0.21413717  0.99068362  0.19285208  1
  O  O12  1  0.88912593  0.33372121  0.64680002  1
  O  O13  1  0.46474888  0.12272709  0.63189192  1
  O  O14  1  0.66051893  0.54647428  0.64149219  1
  O  O15  1  0.88715767  0.55002615  0.14246956  1
  O  O16  1  0.66586613  0.10652497  0.14576383  1
  O  O17  1  0.44810175  0.33987885  0.14241191  1
  O  O18  1  0.48455876  0.33446313  0.03045459  1
  O  O19  1  0.85088333  0.51571290  0.02998951  1
  O  O20  1  0.66525278  0.15249381  0.03430372  1
  O  O21  1  0.46116608  0.13242309  0.52413253  1
  O  O22  1  0.66649709  0.52178929  0.52973117  1
  O  O23  1  0.84818049  0.33068226  0.53603822  1
  O  O24  1  0.56782097  0.67341088  0.97937560  1
  O  O25  1  0.11299522  0.44125758  0.98007037  1
  O  O26  1  0.31871278  0.89312798  0.98222444  1
  O  O27  1  0.55147466  0.87728505  0.47358687  1
  O  O28  1  0.33808692  0.44200606  0.47461858  1
  O  O29  1  0.12627024  0.68845972  0.46981208  1
  O  O30  1  0.08700380  0.64713931  0.35761822  1
  O  O31  1  0.53719230  0.90953329  0.36193248  1
  O  O32  1  0.36668667  0.45185868  0.36180007  1
  O  O33  1  0.13368930  0.49621570  0.87024981  1
  O  O34  1  0.34894789  0.86230501  0.87270647  1
  O  O35  1  0.51136564  0.64145958  0.86948690  1
  O  O36  1  0.97984083  0.80973215  0.41598725  1
  O  O37  1  0.81079943  0.99708744  0.41536320  1
  O  O38  1  0.20241946  0.17525281  0.41795705  1
  O  O39  1  0.01115951  0.20266474  0.91155484  1
  O  O40  1  0.19137899  0.00087480  0.91200147  1
  O  O41  1  0.81107237  0.79151148  0.91128041  1
  O  O42  1  0.97880841  0.17369101  0.57962323  1
  O  O43  1  0.20730663  0.03398709  0.57892133  1
  O  O44  1  0.83266835  0.80141324  0.57799379  1
  O  O45  1  0.96579328  0.79691571  0.07488050  1
  O  O46  1  0.83027331  0.03003202  0.07483011  1
  O  O47  1  0.20049672  0.17277511  0.07402905  1
  O  O48  1  0.65947593  0.13785202  0.74758596  1
  O  O49  1  0.48960189  0.36215690  0.75190155  1
  O  O50  1  0.86042058  0.51023515  0.75241036  1
  O  O51  1  0.67873242  0.52995700  0.25154780  1
  O  O52  1  0.86038599  0.33796326  0.24996321  1
  O  O53  1  0.48377492  0.15281215  0.25324401  1
  O  O54  1  0.63256451  0.48389493  0.91891514  1
  O  O55  1  0.85517349  0.36262503  0.91978271  1
  O  O56  1  0.50018590  0.14883196  0.92011476  1
  O  O57  1  0.65995195  0.15873497  0.42600102  1
  O  O58  1  0.50998610  0.33961819  0.42245342  1
  O  O59  1  0.84038419  0.50489232  0.42417783  1
  O  O60  1  0.34621410  0.48519030  0.07828561  1
  O  O61  1  0.13808915  0.65658482  0.07972948  1
  O  O62  1  0.51781574  0.86166330  0.08051196  1
  O  O63  1  0.34024282  0.86900630  0.57776578  1
  O  O64  1  0.51901029  0.66000012  0.58019514  1
  O  O65  1  0.13739189  0.48700545  0.58248442  1
  O  O66  1  0.32611150  0.83811100  0.24915784  1
  O  O67  1  0.52070950  0.67087549  0.25042167  1
  O  O68  1  0.15912516  0.47330317  0.24963039  1
  O  O69  1  0.31825638  0.49805271  0.76028546  1
  O  O70  1  0.16927396  0.67392025  0.76035100  1
  O  O71  1  0.51381974  0.82802239  0.76258449  1
loop_
_geom_bond_atom_site_label_1
_geom_bond_atom_site_label_2
_geom_bond_distance
_geom_bond_site_symmetry_2
Na0 O53 2.400959 1_565
Na0 O66 2.403592 1_555
Na0 O16 2.524880 1_565
Na0 O31 2.630007 1_555
Na0 O67 2.717183 1_555
Na0 O52 2.856962 1_565
Na1 O51 2.548601 1_555
Na1 O32 2.599997 1_555
Na1 O53 2.602827 1_555
Na1 O67 2.607054 1_555
Na1 O17 2.639996 1_555
Na1 O68 2.720957 1_555
Na2 O30 2.510465 1_555
Na2 O52 2.543199 1_455
Na2 O66 2.558295 1_555
Na2 O68 2.630145 1_555
Na2 O15 2.657714 1_455
Na2 O51 2.765942 1_455
Na3 O49 2.360003 1_555
Na3 O14 2.568529 1_555
Na3 O71 2.681031 1_555
Na3 O50 2.781593 1_555
Na3 O69 2.811244 1_555
Na3 O6 2.902976 1_555
Na3 O4 2.990787 1_555
Na3 O35 3.067462 1_555
Na4 O50 2.400683 1_555
Na4 O12 2.415635 1_555
Na4 O48 2.694843 1_555
Na4 O70 2.710935 1_655
Na4 O69 2.715208 1_655
Na4 O7 2.902218 1_655
Na4 O5 2.904499 1_555
Na5 O65 2.437550 1_555
Na5 O42 2.588195 1_455
Na5 O28 2.628547 1_555
Na5 O64 2.628883 1_555
Na5 O7 2.630888 1_555
Na5 O43 2.637225 1_555
Na6 O8 2.456370 1_555
Na6 O44 2.512073 1_455
Na6 O63 2.581988 1_555
Na6 O65 2.623546 1_555
Na6 O43 2.802430 1_565
Na6 O29 2.851131 1_555
Na7 O6 2.350027 1_555
Na7 O64 2.402461 1_555
Na7 O44 2.545924 1_555
Na7 O42 2.561179 1_565
Na7 O27 2.704759 1_555
Na7 O63 2.830667 1_555
Na8 O26 2.246267 1_554
Na8 O61 2.474557 1_555
Na8 O47 2.558539 1_565
Na8 O45 2.666949 1_455
Na8 O62 2.699813 1_555
Na8 O11 2.783010 1_555
Na9 O24 2.208180 1_554
Na9 O62 2.499060 1_555
Na9 O45 2.523413 1_555
Na9 O60 2.640069 1_555
Na9 O46 2.677332 1_565
Na9 O9 2.969211 1_555
Na10 O25 2.230469 1_554
Na10 O60 2.466533 1_555
Na10 O46 2.580403 1_455
Na10 O47 2.638467 1_555
Na10 O61 2.663089 1_555
Na10 O10 2.786424 1_555
Na11 O41 2.350615 1_555
Na11 O4 2.381465 1_555
Na11 O55 2.612345 1_555
Na11 O40 2.681033 1_665
Na11 O33 2.811245 1_655
Na11 O54 2.875494 1_555
Na12 O3 2.273088 1_555
Na12 O40 2.428383 1_555
Na12 O54 2.578224 1_555
Na12 O39 2.590671 1_555
Na12 O56 2.703559 1_555
Na12 O35 2.914975 1_555
Na13 O38 2.379341 1_555
Na13 O0 2.534718 1_555
Na13 O58 2.720843 1_555
Na13 O57 2.755463 1_555
Na13 O31 2.802739 1_545
Na13 O36 2.823892 1_445
Na13 O21 2.850729 1_555
Na13 O29 2.961262 1_545
Na14 O36 2.362751 1_555
Na14 O37 2.612220 1_555
Na14 O59 2.657568 1_555
Na14 O1 2.769291 1_555
Na14 O58 2.776669 1_555
Na14 O22 2.826609 1_555
Na14 O27 3.002544 1_555
Na14 O32 3.009635 1_555
Na15 O37 2.421295 1_545
Na15 O42 2.428607 1_555
Na15 O38 2.480908 1_655
Na15 O36 2.617257 1_545
Na15 O44 2.619377 1_545
Na15 O43 2.707955 1_655
Na16 O46 2.428299 1_556
Na16 O39 2.545360 1_655
Na16 O41 2.559381 1_545
Na16 O45 2.623134 1_546
Na16 O47 2.635104 1_656
Na16 O40 2.683252 1_655
Na17 O48 2.341198 1_555
Na17 O49 2.485805 1_555
Na17 O56 2.525913 1_555
Na17 O50 2.614420 1_555
Na17 O55 2.753061 1_555
Na17 O54 2.787973 1_555
Na18 O57 2.488549 1_555
Na18 O53 2.500241 1_555
Na18 O58 2.508624 1_555
Na18 O59 2.589495 1_555
Na18 O52 2.595650 1_555
Na18 O51 2.732291 1_555
Na19 O62 2.481912 1_555
Na19 O61 2.495978 1_555
Na19 O66 2.525321 1_555
Na19 O60 2.630764 1_555
Na19 O68 2.711306 1_555
Na19 O67 2.729523 1_555
Na20 O70 2.499471 1_555
Na20 O69 2.511729 1_555
Na20 O71 2.557129 1_555
Na20 O65 2.719322 1_555
Na20 O64 2.761381 1_555
Na20 O63 2.820516 1_555
Ca0 O0 2.260852 1_555
Ca0 O2 2.274282 1_455
Ca0 O38 2.282606 1_555
Ca0 O37 2.291360 1_445
Ca0 O36 2.299852 1_445
Ca0 O1 2.360783 1_445
Ca1 O5 2.170305 1_555
Ca1 O4 2.261357 1_545
Ca1 O3 2.280756 1_655
Ca1 O39 2.335500 1_655
Ca1 O40 2.339648 1_655
Ca1 O41 2.362072 1_545
Ca2 O7 2.352010 1_665
Ca2 O8 2.358207 1_655
Ca2 O6 2.375757 1_555
Ca2 O42 2.480558 1_565
Ca2 O44 2.481123 1_555
Ca2 O43 2.530617 1_665
Ca3 O11 2.272050 1_545
Ca3 O47 2.352948 1_555
Ca3 O45 2.355595 1_445
Ca3 O9 2.383216 1_445
Ca3 O10 2.396566 1_555
Ca3 O46 2.405131 1_455
Ca4 O14 2.263086 1_555
Ca4 O13 2.270428 1_555
Ca4 O48 2.287463 1_555
Ca4 O12 2.293659 1_555
Ca4 O50 2.315446 1_555
Ca4 O49 2.324950 1_555
Ca5 O17 2.226341 1_555
Ca5 O16 2.238451 1_555
Ca5 O15 2.248197 1_555
Ca5 O53 2.365465 1_555
Ca5 O52 2.425170 1_555
Ca5 O51 2.445182 1_555
Ca6 O25 2.258182 1_554
Ca6 O26 2.268116 1_554
Ca6 O24 2.270001 1_554
Ca6 O62 2.330846 1_555
Ca6 O60 2.359472 1_555
Ca6 O61 2.381318 1_555
Ca7 O28 2.243163 1_555
Ca7 O29 2.252308 1_555
Ca7 O27 2.257684 1_555
Ca7 O65 2.331534 1_555
Ca7 O64 2.371274 1_555
Ca7 O63 2.437753 1_555
Ca8 O30 2.300890 1_555
Ca8 O31 2.310447 1_555
Ca8 O32 2.345413 1_555
Ca8 O66 2.392417 1_555
Ca8 O68 2.407799 1_555
Ca8 O67 2.462919 1_555
Hf0 O20 2.037821 1_556
Hf0 O18 2.053905 1_556
Hf0 O19 2.054022 1_556
Hf0 O56 2.138105 1_555
Hf0 O55 2.150579 1_555
Hf0 O54 2.167572 1_555
Hf1 O59 2.020537 1_555
Hf1 O23 2.025505 1_555
Hf1 O22 2.061131 1_555
Hf1 O57 2.067342 1_555
Hf1 O58 2.093093 1_555
Hf1 O21 2.211156 1_555
Hf2 O71 2.049350 1_555
Hf2 O34 2.059546 1_555
Hf2 O70 2.084180 1_555
Hf2 O69 2.098035 1_555
Hf2 O33 2.113086 1_555
Hf2 O35 2.122005 1_555
O0 P0 1.542664 1_545
O1 S0 1.479346 1_555
O2 S1 1.472154 1_655
O3 P1 1.523788 1_555
O4 P2 1.527865 1_655
O5 P3 1.519310 1_545
O6 P3 1.559195 1_555
O7 P1 1.554169 1_555
O8 P2 1.548049 1_555
O9 S0 1.492862 1_555
O10 S1 1.489342 1_555
O11 P0 1.553376 1_555
O12 P4 1.525187 1_555
O13 S2 1.471173 1_555
O14 P5 1.526687 1_555
O15 P6 1.535216 1_555
O16 P7 1.535865 1_555
O17 P8 1.536134 1_555
O18 P8 1.599595 1_555
O19 P6 1.600125 1_555
O20 P7 1.599331 1_555
O21 S2 1.518615 1_555
O22 P5 1.603373 1_555
O23 P4 1.599828 1_555
O24 P9 1.519485 1_555
O25 P10 1.525994 1_555
O26 P11 1.518474 1_555
O27 P12 1.536871 1_555
O28 P13 1.530016 1_555
O29 P14 1.531560 1_555
O30 P14 1.540809 1_555
O31 P12 1.556321 1_555
O32 P13 1.552008 1_555
O33 P10 1.593804 1_555
O34 P11 1.582991 1_555
O35 P9 1.588716 1_555
O36 P14 1.542073 1_655
O37 P12 1.526667 1_555
O38 P13 1.534462 1_555
O39 P10 1.511043 1_555
O40 P11 1.528930 1_545
O41 P9 1.520773 1_555
O42 P4 1.549826 1_555
O43 S2 1.482193 1_555
O44 P5 1.553866 1_555
O45 P6 1.552741 1_555
O46 P7 1.550762 1_555
O47 P8 1.553045 1_555
O48 P3 1.527998 1_545
O49 P1 1.539693 1_555
O50 P2 1.552516 1_655
O51 S0 1.497201 1_555
O52 S1 1.497238 1_655
O53 P0 1.572742 1_545
O54 P9 1.595266 1_555
O55 P10 1.589267 1_655
O56 P11 1.582178 1_545
O57 P12 1.587524 1_545
O58 P13 1.599308 1_555
O59 P14 1.595127 1_655
O60 P8 1.541583 1_555
O61 P6 1.543422 1_455
O62 P7 1.543064 1_565
O63 S2 1.482873 1_565
O64 P5 1.549534 1_555
O65 P4 1.553128 1_455
O66 P0 1.567667 1_555
O67 S0 1.493338 1_555
O68 S1 1.495618 1_555
O69 P1 1.600096 1_555
O70 P2 1.590843 1_555
O71 P3 1.593033 1_555
