# generated using pymatgen
data_RbMnP3HO10
_symmetry_space_group_name_H-M   'P 1'
_cell_length_a   7.51548205
_cell_length_b   7.51548205
_cell_length_c   9.26692556
_cell_angle_alpha   74.01583928
_cell_angle_beta   74.01583928
_cell_angle_gamma   68.70677321
_symmetry_Int_Tables_number   1
_chemical_formula_structural   RbMnP3HO10
_chemical_formula_sum   'Rb2 Mn2 P6 H2 O20'
_cell_volume   459.75817976
_cell_formula_units_Z   2
loop_
 _symmetry_equiv_pos_site_id
 _symmetry_equiv_pos_as_xyz
  1  'x, y, z'
loop_
 _atom_site_type_symbol
 _atom_site_label
 _atom_site_symmetry_multiplicity
 _atom_site_fract_x
 _atom_site_fract_y
 _atom_site_fract_z
 _atom_site_occupancy
  Rb  Rb0  1  0.43848200  0.56151800  0.75000000  1
  Rb  Rb1  1  0.56151800  0.43848200  0.25000000  1
  Mn  Mn0  1  0.00000000  0.50000000  0.50000000  1
  Mn  Mn1  1  0.50000000  0.00000000  0.00000000  1
  P  P0  1  0.87003700  0.12996300  0.75000000  1
  P  P1  1  0.12996300  0.87003700  0.25000000  1
  P  P2  1  0.26823800  0.14436600  0.70605100  1
  P  P3  1  0.85563400  0.73176200  0.79394900  1
  P  P4  1  0.73176200  0.85563400  0.29394900  1
  P  P5  1  0.14436600  0.26823800  0.20605100  1
  H  H0  1  0.00000000  0.50000000  0.00000000  1
  H  H1  1  0.50000000  0.00000000  0.50000000  1
  O  O0  1  0.84587500  0.28748500  0.60913900  1
  O  O1  1  0.71251500  0.15412500  0.89086100  1
  O  O2  1  0.15412500  0.71251500  0.39086100  1
  O  O3  1  0.28748500  0.84587500  0.10913900  1
  O  O4  1  0.36915900  0.15038800  0.82526600  1
  O  O5  1  0.84961200  0.63084100  0.67473400  1
  O  O6  1  0.63084100  0.84961200  0.17473400  1
  O  O7  1  0.15038800  0.36915900  0.32526600  1
  O  O8  1  0.09564900  0.07037200  0.30119700  1
  O  O9  1  0.92962800  0.90435100  0.19880300  1
  O  O10  1  0.90435100  0.92962800  0.69880300  1
  O  O11  1  0.07037200  0.09564900  0.80119700  1
  O  O12  1  0.35028300  0.21604500  0.10588400  1
  O  O13  1  0.78395500  0.64971700  0.39411600  1
  O  O14  1  0.64971700  0.78395500  0.89411600  1
  O  O15  1  0.21604500  0.35028300  0.60588400  1
  O  O16  1  0.98178700  0.37849000  0.11444500  1
  O  O17  1  0.62151000  0.01821300  0.38555500  1
  O  O18  1  0.01821300  0.62151000  0.88555500  1
  O  O19  1  0.37849000  0.98178700  0.61444500  1
loop_
_geom_bond_atom_site_label_1
_geom_bond_atom_site_label_2
_geom_bond_distance
_geom_bond_site_symmetry_2
Mn0 O15 1.951331 1_555
Mn0 O13 1.951331 1_455
Mn0 O5 1.981955 1_455
Mn0 O7 1.981955 1_555
Mn0 O2 2.173547 1_555
Mn0 O0 2.173547 1_455
Mn1 O12 1.951331 1_555
Mn1 O14 1.951331 1_544
Mn1 O6 1.981955 1_545
Mn1 O4 1.981955 1_554
Mn1 O1 2.173547 1_554
Mn1 O3 2.173547 1_545
H0 O16 1.206189 1_455
H0 O18 1.206189 1_554
H1 O19 1.206189 1_545
H1 O17 1.206189 1_555
O0 P0 1.503910 1_555
O0 Rb0 3.165368 1_555
O1 P0 1.503910 1_555
O1 Rb0 3.165368 1_555
O2 P1 1.503910 1_555
O2 Rb1 3.165368 1_555
O3 P1 1.503910 1_555
O3 Rb1 3.165368 1_555
O4 P2 1.520448 1_555
O4 Rb0 3.176027 1_555
O5 P3 1.520448 1_555
O5 Rb0 3.176027 1_555
O6 P4 1.520448 1_555
O6 Rb1 3.176027 1_555
O7 P5 1.520448 1_555
O7 Rb1 3.176027 1_555
O8 P1 1.613225 1_545
O8 P5 1.618128 1_555
O9 P1 1.613225 1_655
O9 P4 1.618128 1_555
O10 P0 1.613225 1_565
O10 P3 1.618128 1_555
O11 P0 1.613225 1_455
O11 P2 1.618128 1_555
O12 P5 1.542385 1_555
O12 Rb1 3.379831 1_555
O13 P4 1.542385 1_555
O13 Rb1 3.379831 1_555
O14 P3 1.542385 1_555
O14 Rb0 3.379831 1_555
O15 P2 1.542385 1_555
O15 Rb0 3.379831 1_555
O16 P5 1.532549 1_655
O16 Rb1 2.974898 1_555
O17 P4 1.532549 1_545
O17 Rb1 2.974898 1_555
O18 P3 1.532549 1_455
O18 Rb0 2.974898 1_555
O19 P2 1.532549 1_565
O19 Rb0 2.974898 1_555
