# generated using pymatgen
data_Ba2PrMgCu3O7
_symmetry_space_group_name_H-M   'P 1'
_cell_length_a   3.77023252
_cell_length_b   4.02736931
_cell_length_c   14.65254599
_cell_angle_alpha   90.00000000
_cell_angle_beta   90.00000000
_cell_angle_gamma   90.00000000
_symmetry_Int_Tables_number   1
_chemical_formula_structural   Ba2PrMgCu3O7
_chemical_formula_sum   'Ba2 Pr1 Mg1 Cu3 O7'
_cell_volume   222.48599819
_cell_formula_units_Z   1
loop_
 _symmetry_equiv_pos_site_id
 _symmetry_equiv_pos_as_xyz
  1  'x, y, z'
loop_
 _atom_site_type_symbol
 _atom_site_label
 _atom_site_symmetry_multiplicity
 _atom_site_fract_x
 _atom_site_fract_y
 _atom_site_fract_z
 _atom_site_occupancy
  Ba  Ba0  1  0.50000000  0.50000000  0.77659309  1
  Ba  Ba1  1  0.50000000  0.50000000  0.08620688  1
  Pr  Pr0  1  0.50000000  0.50000000  0.51841071  1
  Mg  Mg0  1  0.50000000  0.00000000  0.27249750  1
  Cu  Cu0  1  0.00000000  0.00000000  0.64145865  1
  Cu  Cu1  1  0.00000000  0.00000000  0.41076603  1
  Cu  Cu2  1  0.00000000  0.00000000  0.93705861  1
  O  O0  1  0.50000000  0.00000000  0.98310001  1
  O  O1  1  0.00000000  0.50000000  0.63288709  1
  O  O2  1  0.00000000  0.50000000  0.41625934  1
  O  O3  1  0.50000000  0.00000000  0.61479076  1
  O  O4  1  0.50000000  0.00000000  0.40443289  1
  O  O5  1  0.00000000  0.00000000  0.80483712  1
  O  O6  1  0.00000000  0.00000000  0.20625730  1
loop_
_geom_bond_atom_site_label_1
_geom_bond_atom_site_label_2
_geom_bond_distance
_geom_bond_site_symmetry_2
Ba0 O5 2.789240 1_655
Ba0 O5 2.789240 1_665
Ba0 O5 2.789240 1_555
Ba0 O5 2.789240 1_565
Ba0 O1 2.826210 1_555
Ba0 O1 2.826210 1_655
Ba0 O3 3.110578 1_555
Ba0 O3 3.110578 1_565
Ba1 O0 2.517415 1_564
Ba1 O0 2.517415 1_554
Mg0 O4 1.933189 1_555
Mg0 O6 2.120307 1_655
Mg0 O6 2.120307 1_555
Cu0 O3 1.925189 1_455
Cu0 O3 1.925189 1_555
Cu0 O1 2.017598 1_545
Cu0 O1 2.017598 1_555
Cu0 O5 2.393911 1_555
Cu1 O4 1.887399 1_555
Cu1 O4 1.887399 1_455
Cu1 O2 2.015293 1_555
Cu1 O2 2.015293 1_545
Cu2 O5 1.937381 1_555
Cu2 O0 2.002194 1_555
Cu2 O0 2.002194 1_455
O1 Pr0 2.523338 1_455
O1 Pr0 2.523338 1_555
O2 Pr0 2.407074 1_555
O2 Pr0 2.407074 1_455
O3 Pr0 2.459527 1_545
O3 Pr0 2.459527 1_555
O4 Pr0 2.616112 1_545
O4 Pr0 2.616112 1_555
