# generated using pymatgen
data_CsSbSI2
_symmetry_space_group_name_H-M   'P 1'
_cell_length_a   11.35718000
_cell_length_b   12.34200300
_cell_length_c   11.72907400
_cell_angle_alpha   90.00000000
_cell_angle_beta   90.00000000
_cell_angle_gamma   90.00000000
_symmetry_Int_Tables_number   1
_chemical_formula_structural   CsSbSI2
_chemical_formula_sum   'Cs8 Sb8 S8 I16'
_cell_volume   1644.06840343
_cell_formula_units_Z   8
loop_
 _symmetry_equiv_pos_site_id
 _symmetry_equiv_pos_as_xyz
  1  'x, y, z'
loop_
 _atom_site_type_symbol
 _atom_site_label
 _atom_site_symmetry_multiplicity
 _atom_site_fract_x
 _atom_site_fract_y
 _atom_site_fract_z
 _atom_site_occupancy
  Cs  Cs0  1  0.00000000  0.00000000  0.00000000  1
  Cs  Cs1  1  0.50000000  0.00000000  0.00000000  1
  Cs  Cs2  1  0.50000000  0.50000000  0.00000000  1
  Cs  Cs3  1  0.00000000  0.50000000  0.00000000  1
  Cs  Cs4  1  0.00000000  0.00000000  0.50000000  1
  Cs  Cs5  1  0.50000000  0.00000000  0.50000000  1
  Cs  Cs6  1  0.50000000  0.50000000  0.50000000  1
  Cs  Cs7  1  0.00000000  0.50000000  0.50000000  1
  Sb  Sb0  1  0.77922900  0.25000000  0.78854000  1
  Sb  Sb1  1  0.77922900  0.75000000  0.21146000  1
  Sb  Sb2  1  0.72077100  0.25000000  0.21146000  1
  Sb  Sb3  1  0.72077100  0.75000000  0.78854000  1
  Sb  Sb4  1  0.22077100  0.75000000  0.21146000  1
  Sb  Sb5  1  0.22077100  0.25000000  0.78854000  1
  Sb  Sb6  1  0.27922900  0.75000000  0.78854000  1
  Sb  Sb7  1  0.27922900  0.25000000  0.21146000  1
  S  S0  1  0.00000000  0.25000000  0.75485800  1
  S  S1  1  0.00000000  0.75000000  0.24514200  1
  S  S2  1  0.50000000  0.25000000  0.24514200  1
  S  S3  1  0.50000000  0.75000000  0.75485800  1
  S  S4  1  0.25000000  0.25000000  0.00000000  1
  S  S5  1  0.25000000  0.75000000  0.00000000  1
  S  S6  1  0.75000000  0.75000000  0.00000000  1
  S  S7  1  0.75000000  0.25000000  0.00000000  1
  I  I0  1  0.25000000  0.00000000  0.23935900  1
  I  I1  1  0.25000000  0.00000000  0.76064100  1
  I  I2  1  0.75000000  0.00000000  0.76064100  1
  I  I3  1  0.75000000  0.00000000  0.23935900  1
  I  I4  1  0.75000000  0.50000000  0.23935900  1
  I  I5  1  0.75000000  0.50000000  0.76064100  1
  I  I6  1  0.25000000  0.50000000  0.76064100  1
  I  I7  1  0.25000000  0.50000000  0.23935900  1
  I  I8  1  0.00000000  0.25000000  0.24615100  1
  I  I9  1  0.00000000  0.75000000  0.75384900  1
  I  I10  1  0.50000000  0.25000000  0.75384900  1
  I  I11  1  0.50000000  0.75000000  0.24615100  1
  I  I12  1  0.25000000  0.25000000  0.50000000  1
  I  I13  1  0.25000000  0.75000000  0.50000000  1
  I  I14  1  0.75000000  0.75000000  0.50000000  1
  I  I15  1  0.75000000  0.25000000  0.50000000  1
loop_
_geom_bond_atom_site_label_1
_geom_bond_atom_site_label_2
_geom_bond_distance
_geom_bond_site_symmetry_2
Cs0 I3 3.992922 1_455
Cs0 I2 3.992922 1_454
Cs0 I1 3.992922 1_554
Cs0 I0 3.992922 1_555
Cs0 S5 4.193079 1_545
Cs0 S4 4.193079 1_555
Cs0 S7 4.193079 1_455
Cs0 S6 4.193079 1_445
Cs0 S0 4.217535 1_554
Cs0 S1 4.217535 1_545
Cs0 I9 4.225612 1_544
Cs0 I8 4.225612 1_555
Cs1 I1 3.992922 1_554
Cs1 I3 3.992922 1_555
Cs1 I0 3.992922 1_555
Cs1 I2 3.992922 1_554
Cs1 S5 4.193079 1_545
Cs1 S7 4.193079 1_555
Cs1 S6 4.193079 1_545
Cs1 S4 4.193079 1_555
Cs1 S3 4.217535 1_544
Cs1 S2 4.217535 1_555
Cs1 I11 4.225612 1_545
Cs1 I10 4.225612 1_554
Cs2 I6 3.992922 1_554
Cs2 I5 3.992922 1_554
Cs2 I4 3.992922 1_555
Cs2 I7 3.992922 1_555
Cs2 S7 4.193079 1_555
Cs2 S4 4.193079 1_555
Cs2 S5 4.193079 1_555
Cs2 S6 4.193079 1_555
Cs2 S3 4.217535 1_554
Cs2 S2 4.217535 1_555
Cs2 I11 4.225612 1_555
Cs2 I10 4.225612 1_554
Cs3 I6 3.992922 1_554
Cs3 I4 3.992922 1_455
Cs3 I5 3.992922 1_454
Cs3 I7 3.992922 1_555
Cs3 S4 4.193079 1_555
Cs3 S6 4.193079 1_455
Cs3 S5 4.193079 1_555
Cs3 S7 4.193079 1_455
Cs3 S0 4.217535 1_554
Cs3 S1 4.217535 1_555
Cs3 I8 4.225612 1_555
Cs3 I9 4.225612 1_554
Cs4 I0 4.172208 1_555
Cs4 I2 4.172208 1_455
Cs4 I1 4.172208 1_555
Cs4 I3 4.172208 1_455
Cs4 I12 4.193079 1_555
Cs4 I15 4.193079 1_455
Cs4 I13 4.193079 1_545
Cs4 I14 4.193079 1_445
Cs4 I9 4.287809 1_545
Cs4 I8 4.287809 1_555
Cs5 I0 4.172208 1_555
Cs5 I2 4.172208 1_555
Cs5 I3 4.172208 1_555
Cs5 I1 4.172208 1_555
Cs5 I15 4.193079 1_555
Cs5 I12 4.193079 1_555
Cs5 I13 4.193079 1_545
Cs5 I14 4.193079 1_545
Cs5 I10 4.287809 1_555
Cs5 I11 4.287809 1_545
Cs6 I4 4.172208 1_555
Cs6 I6 4.172208 1_555
Cs6 I7 4.172208 1_555
Cs6 I5 4.172208 1_555
Cs6 I13 4.193079 1_555
Cs6 I15 4.193079 1_555
Cs6 I14 4.193079 1_555
Cs6 I12 4.193079 1_555
Cs6 I11 4.287809 1_555
Cs6 I10 4.287809 1_555
Cs7 I5 4.172208 1_455
Cs7 I6 4.172208 1_555
Cs7 I7 4.172208 1_555
Cs7 I4 4.172208 1_455
Cs7 I13 4.193079 1_555
Cs7 I12 4.193079 1_555
Cs7 I14 4.193079 1_455
Cs7 I15 4.193079 1_455
Cs7 I9 4.287809 1_555
Cs7 I8 4.287809 1_555
S0 Sb5 2.538268 1_555
S0 Sb0 2.538268 1_455
S1 Sb4 2.538268 1_555
S1 Sb1 2.538268 1_455
S2 Sb7 2.538268 1_555
S2 Sb2 2.538268 1_555
S3 Sb6 2.538268 1_555
S3 Sb3 2.538268 1_555
S4 Sb5 2.502346 1_554
S4 Sb7 2.502346 1_555
S5 Sb6 2.502346 1_554
S5 Sb4 2.502346 1_555
S6 Sb1 2.502346 1_555
S6 Sb3 2.502346 1_554
S7 Sb0 2.502346 1_554
S7 Sb2 2.502346 1_555
I0 Sb7 3.120511 1_555
I0 Sb4 3.120511 1_545
I1 Sb5 3.120511 1_555
I1 Sb6 3.120511 1_545
I2 Sb3 3.120511 1_545
I2 Sb0 3.120511 1_555
I3 Sb2 3.120511 1_555
I3 Sb1 3.120511 1_545
I4 Sb1 3.120511 1_555
I4 Sb2 3.120511 1_555
I5 Sb3 3.120511 1_555
I5 Sb0 3.120511 1_555
I6 Sb5 3.120511 1_555
I6 Sb6 3.120511 1_555
I7 Sb4 3.120511 1_555
I7 Sb7 3.120511 1_555
I8 Sb2 3.197251 1_455
I8 Sb7 3.197251 1_555
I9 Sb3 3.197251 1_455
I9 Sb6 3.197251 1_555
I10 Sb0 3.197251 1_555
I10 Sb5 3.197251 1_555
I11 Sb1 3.197251 1_555
I11 Sb4 3.197251 1_555
I12 Sb7 3.400549 1_555
I12 Sb5 3.400549 1_555
I13 Sb6 3.400549 1_555
I13 Sb4 3.400549 1_555
I14 Sb3 3.400549 1_555
I14 Sb1 3.400549 1_555
I15 Sb0 3.400549 1_555
I15 Sb2 3.400549 1_555
