# generated using pymatgen
data_MgCo2(BiO3)4
_symmetry_space_group_name_H-M   'P 1'
_cell_length_a   5.13542534
_cell_length_b   5.13703234
_cell_length_c   10.04318400
_cell_angle_alpha   90.00001686
_cell_angle_beta   90.00003943
_cell_angle_gamma   89.95835755
_symmetry_Int_Tables_number   1
_chemical_formula_structural   MgCo2(BiO3)4
_chemical_formula_sum   'Mg1 Co2 Bi4 O12'
_cell_volume   264.94762090
_cell_formula_units_Z   1
loop_
 _symmetry_equiv_pos_site_id
 _symmetry_equiv_pos_as_xyz
  1  'x, y, z'
loop_
 _atom_site_type_symbol
 _atom_site_label
 _atom_site_symmetry_multiplicity
 _atom_site_fract_x
 _atom_site_fract_y
 _atom_site_fract_z
 _atom_site_occupancy
  Mg  Mg0  1  0.50000000  0.00000000  0.24973500  1
  Co  Co0  1  0.00000000  0.00000000  0.99688200  1
  Co  Co1  1  0.50000000  0.50000000  0.50315900  1
  Bi  Bi0  1  0.99999900  0.00000000  0.35431600  1
  Bi  Bi1  1  0.00000000  0.00000000  0.67764300  1
  Bi  Bi2  1  0.50000100  0.50000200  0.14593300  1
  Bi  Bi3  1  0.49999800  0.49999800  0.82247000  1
  O  O0  1  0.20658800  0.79635700  0.50994300  1
  O  O1  1  0.20627700  0.82624100  0.16480200  1
  O  O2  1  0.19058000  0.80929100  0.84154500  1
  O  O3  1  0.32718500  0.29456000  0.33454400  1
  O  O4  1  0.30913500  0.30937900  0.65860400  1
  O  O5  1  0.29657300  0.29388200  0.99049100  1
  O  O6  1  0.70342600  0.70611800  0.99049100  1
  O  O7  1  0.67281600  0.70543900  0.33454600  1
  O  O8  1  0.69086500  0.69062200  0.65860600  1
  O  O9  1  0.79372100  0.17375600  0.16480200  1
  O  O10  1  0.80942300  0.19071200  0.84154500  1
  O  O11  1  0.79341300  0.20364300  0.50994300  1
loop_
_geom_bond_atom_site_label_1
_geom_bond_atom_site_label_2
_geom_bond_distance
_geom_bond_site_symmetry_2
Mg0 O3 1.949568 1_555
Mg0 O7 1.949583 1_545
Mg0 O9 1.949743 1_555
Mg0 O1 1.949757 1_545
Co0 O10 2.085687 1_455
Co0 O2 2.085688 1_545
Co0 O5 2.146210 1_555
Co0 O6 2.146213 1_445
Co0 O9 2.182119 1_456
Co0 O1 2.182120 1_546
Co1 O4 2.087642 1_555
Co1 O8 2.087658 1_555
Co1 O0 2.142295 1_555
Co1 O11 2.142299 1_555
Co1 O7 2.184122 1_555
Co1 O3 2.184137 1_555
Bi0 O11 2.158986 1_555
Bi0 O0 2.158993 1_645
Bi0 O7 2.270672 1_545
Bi0 O3 2.270682 1_655
Bi0 O9 2.353753 1_555
Bi0 O1 2.353760 1_645
Bi1 O2 2.150787 1_545
Bi1 O10 2.150788 1_455
Bi1 O11 2.248324 1_455
Bi1 O0 2.248327 1_545
Bi1 O8 2.255289 1_445
Bi1 O4 2.255295 1_555
Bi2 O6 2.156664 1_554
Bi2 O5 2.156680 1_554
Bi2 O1 2.261889 1_555
Bi2 O9 2.261902 1_555
Bi2 O3 2.343285 1_555
Bi2 O7 2.343286 1_555
Bi3 O4 2.151609 1_555
Bi3 O8 2.151617 1_555
Bi3 O5 2.249801 1_555
Bi3 O6 2.249816 1_555
Bi3 O10 2.254411 1_555
Bi3 O2 2.254411 1_555
