# generated using pymatgen
data_MgTi4O8
_symmetry_space_group_name_H-M   'P 1'
_cell_length_a   6.66607226
_cell_length_b   6.66607112
_cell_length_c   6.66607200
_cell_angle_alpha   59.99999563
_cell_angle_beta   60.00000131
_cell_angle_gamma   59.99999806
_symmetry_Int_Tables_number   1
_chemical_formula_structural   MgTi4O8
_chemical_formula_sum   'Mg1 Ti4 O8'
_cell_volume   209.45703235
_cell_formula_units_Z   1
loop_
 _symmetry_equiv_pos_site_id
 _symmetry_equiv_pos_as_xyz
  1  'x, y, z'
loop_
 _atom_site_type_symbol
 _atom_site_label
 _atom_site_symmetry_multiplicity
 _atom_site_fract_x
 _atom_site_fract_y
 _atom_site_fract_z
 _atom_site_occupancy
  Mg  Mg0  1  0.37500000  0.37500000  0.37500000  1
  Ti  Ti0  1  0.51681800  0.94954600  0.51681800  1
  Ti  Ti1  1  0.51681800  0.51681800  0.94954600  1
  Ti  Ti2  1  0.94954600  0.51681800  0.51681800  1
  Ti  Ti3  1  0.51681800  0.51681800  0.51681800  1
  O  O0  1  0.26595200  0.26595200  0.26595200  1
  O  O1  1  0.70214500  0.26595200  0.26595200  1
  O  O2  1  0.26595200  0.70214500  0.26595200  1
  O  O3  1  0.26595200  0.26595200  0.70214500  1
  O  O4  1  0.72344000  0.32968000  0.72344000  1
  O  O5  1  0.72344000  0.72344000  0.32968000  1
  O  O6  1  0.32968000  0.72344000  0.72344000  1
  O  O7  1  0.72344000  0.72344000  0.72344000  1
loop_
_geom_bond_atom_site_label_1
_geom_bond_atom_site_label_2
_geom_bond_distance
_geom_bond_site_symmetry_2
Mg0 O0 1.780588 1_555
Mg0 O2 1.780593 1_555
Mg0 O3 1.780593 1_555
Mg0 O1 1.780593 1_555
O0 Ti0 2.404993 1_545
O0 Ti1 2.404993 1_554
O0 Ti2 2.404993 1_455
O1 Ti3 2.404991 1_555
O1 Ti0 2.404996 1_545
O1 Ti1 2.404997 1_554
O2 Ti3 2.404991 1_555
O2 Ti2 2.404997 1_455
O2 Ti1 2.404997 1_554
O3 Ti3 2.404991 1_555
O3 Ti0 2.404997 1_545
O3 Ti2 2.404997 1_455
O4 Ti2 1.952202 1_555
O4 Ti3 1.952202 1_555
O4 Ti1 1.952202 1_555
O5 Ti3 1.952202 1_555
O5 Ti0 1.952202 1_555
O5 Ti2 1.952202 1_555
O6 Ti0 1.952202 1_555
O6 Ti3 1.952202 1_555
O6 Ti1 1.952202 1_555
O7 Ti1 1.952202 1_555
O7 Ti0 1.952202 1_555
O7 Ti2 1.952202 1_555
