# generated using pymatgen
data_Na5LiN2
_symmetry_space_group_name_H-M   'P 1'
_cell_length_a   4.42927100
_cell_length_b   4.40026700
_cell_length_c   7.67275203
_cell_angle_alpha   89.99514617
_cell_angle_beta   90.00000000
_cell_angle_gamma   90.00000000
_symmetry_Int_Tables_number   1
_chemical_formula_structural   Na5LiN2
_chemical_formula_sum   'Na5 Li1 N2'
_cell_volume   149.54174478
_cell_formula_units_Z   1
loop_
 _symmetry_equiv_pos_site_id
 _symmetry_equiv_pos_as_xyz
  1  'x, y, z'
loop_
 _atom_site_type_symbol
 _atom_site_label
 _atom_site_symmetry_multiplicity
 _atom_site_fract_x
 _atom_site_fract_y
 _atom_site_fract_z
 _atom_site_occupancy
  Na  Na0  1  0.50000000  0.39482600  0.04414200  1
  Na  Na1  1  0.00000000  0.59292500  0.88194500  1
  Na  Na2  1  0.50000000  0.59139500  0.37212600  1
  Na  Na3  1  0.00000000  0.41917900  0.54328200  1
  Na  Na4  1  0.50000000  0.00161100  0.70600500  1
  Li  Li0  1  0.00000000  0.99859200  0.21270600  1
  N  N0  1  0.50000000  0.50181400  0.71164000  1
  N  N1  1  0.00000000  0.49665800  0.21115300  1
loop_
_geom_bond_atom_site_label_1
_geom_bond_atom_site_label_2
_geom_bond_distance
_geom_bond_site_symmetry_2
Li0 N1 2.191655 1_565
Li0 N1 2.208677 1_555
N0 Na4 2.199662 1_565
N0 Na4 2.201455 1_555
N0 Na3 2.589512 1_555
N0 Na3 2.589512 1_655
N0 Na0 2.594239 1_556
N0 Na1 2.602483 1_655
N0 Na1 2.602483 1_555
N0 Na2 2.634628 1_555
N1 Na1 2.561169 1_554
N1 Na2 2.569818 1_455
N1 Na2 2.569818 1_555
N1 Na3 2.571019 1_555
N1 Na0 2.597607 1_455
N1 Na0 2.597607 1_555
