# generated using pymatgen
data_Na9Ca5NbSi3(SO6)6
_symmetry_space_group_name_H-M   'P 1'
_cell_length_a   9.41250849
_cell_length_b   9.38042550
_cell_length_c   23.61230363
_cell_angle_alpha   89.57206010
_cell_angle_beta   90.00000000
_cell_angle_gamma   120.11320411
_symmetry_Int_Tables_number   1
_chemical_formula_structural   Na9Ca5NbSi3(SO6)6
_chemical_formula_sum   'Na18 Ca10 Nb2 Si6 S12 O72'
_cell_volume   1803.36726563
_cell_formula_units_Z   2
loop_
 _symmetry_equiv_pos_site_id
 _symmetry_equiv_pos_as_xyz
  1  'x, y, z'
loop_
 _atom_site_type_symbol
 _atom_site_label
 _atom_site_symmetry_multiplicity
 _atom_site_fract_x
 _atom_site_fract_y
 _atom_site_fract_z
 _atom_site_occupancy
  Na  Na0  1  0.64587897  0.99982131  0.24039944  1
  Na  Na1  1  0.37668725  0.33794825  0.25182167  1
  Na  Na2  1  0.99544353  0.66193515  0.24695294  1
  Na  Na3  1  0.66649162  0.66193515  0.74695294  1
  Na  Na4  1  0.96126100  0.33794825  0.75182167  1
  Na  Na5  1  0.35394233  0.99982131  0.74039944  1
  Na  Na6  1  0.30297172  0.33674211  0.57200935  1
  Na  Na7  1  0.03377138  0.33674211  0.07200935  1
  Na  Na8  1  0.95970470  0.65711494  0.90716320  1
  Na  Na9  1  0.72467870  0.05276520  0.90612618  1
  Na  Na10  1  0.32808550  0.05276520  0.40612618  1
  Na  Na11  1  0.69740925  0.65711494  0.40716320  1
  Na  Na12  1  0.00898882  0.02696243  0.49958851  1
  Na  Na13  1  0.01797361  0.02696243  0.99958851  1
  Na  Na14  1  0.69019121  0.33575733  0.82870788  1
  Na  Na15  1  0.64556712  0.33575733  0.32870788  1
  Na  Na16  1  0.35488175  0.69671992  0.15705105  1
  Na  Na17  1  0.34183717  0.69671992  0.65705105  1
  Ca  Ca0  1  0.00825765  0.00863305  0.34813102  1
  Ca  Ca1  1  0.00037541  0.00863305  0.84813102  1
  Ca  Ca2  1  0.97850841  0.97523030  0.65498007  1
  Ca  Ca3  1  0.99672189  0.97523030  0.15498007  1
  Ca  Ca4  1  0.67564489  0.33285022  0.68036345  1
  Ca  Ca5  1  0.65720634  0.33285022  0.18036345  1
  Ca  Ca6  1  0.66196368  0.33464834  0.98112440  1
  Ca  Ca7  1  0.67268566  0.33464834  0.48112440  1
  Ca  Ca8  1  0.33545020  0.66305302  0.01711401  1
  Ca  Ca9  1  0.32760182  0.66305302  0.51711401  1
  Nb  Nb0  1  0.33688050  0.65669321  0.31674117  1
  Nb  Nb1  1  0.31981171  0.65669321  0.81674117  1
  Si  Si0  1  0.30632116  0.99227413  0.25627538  1
  Si  Si1  1  0.69721784  0.69861756  0.25699728  1
  Si  Si2  1  0.00139972  0.69861756  0.75699728  1
  Si  Si3  1  0.68595297  0.99227413  0.75627538  1
  Si  Si4  1  0.03294179  0.36466304  0.92183458  1
  Si  Si5  1  0.33172025  0.36466304  0.42183458  1
  S  S0  1  0.01068437  0.31360481  0.24983857  1
  S  S1  1  0.30292045  0.31360481  0.74983857  1
  S  S2  1  0.97642056  0.33150995  0.58561089  1
  S  S3  1  0.36064744  0.03502862  0.58291910  1
  S  S4  1  0.66397961  0.63434591  0.58225028  1
  S  S5  1  0.97036730  0.63434591  0.08225028  1
  S  S6  1  0.67438219  0.03502862  0.08291910  1
  S  S7  1  0.35509039  0.33150995  0.08561089  1
  S  S8  1  0.62466001  0.66590267  0.91373567  1
  S  S9  1  0.33475576  0.95282760  0.91354180  1
  S  S10  1  0.61807085  0.95282760  0.41354180  1
  S  S11  1  0.04124166  0.66590267  0.41373567  1
  O  O0  1  0.24176854  0.04486404  0.31174723  1
  O  O1  1  0.79549345  0.76980158  0.31550928  1
  O  O2  1  0.98038169  0.20675839  0.29925571  1
  O  O3  1  0.22637670  0.20675839  0.79925571  1
  O  O4  1  0.97430812  0.76980158  0.81550928  1
  O  O5  1  0.80309550  0.04486404  0.81174723  1
  O  O6  1  0.75695068  0.93220400  0.70441537  1
  O  O7  1  0.20170441  0.24981062  0.69833355  1
  O  O8  1  0.06927699  0.83047603  0.70500423  1
  O  O9  1  0.76119904  0.83047603  0.20500423  1
  O  O10  1  0.04810621  0.24981062  0.19833355  1
  O  O11  1  0.17525332  0.93220400  0.20441537  1
  O  O12  1  0.89665786  0.33456570  0.63954719  1
  O  O13  1  0.45256329  0.11581307  0.63552523  1
  O  O14  1  0.65428555  0.53951781  0.63462897  1
  O  O15  1  0.88523326  0.53951781  0.13462897  1
  O  O16  1  0.66325078  0.11581307  0.13552523  1
  O  O17  1  0.43790884  0.33456570  0.13954719  1
  O  O18  1  0.44757936  0.32597754  0.03593973  1
  O  O19  1  0.87473127  0.54562508  0.03115068  1
  O  O20  1  0.67803665  0.13173895  0.03172489  1
  O  O21  1  0.45370330  0.13173895  0.53172489  1
  O  O22  1  0.67089481  0.54562508  0.53115068  1
  O  O23  1  0.87839918  0.32597754  0.53593973  1
  O  O24  1  0.54349662  0.68332085  0.96390045  1
  O  O25  1  0.12331118  0.45511193  0.97936325  1
  O  O26  1  0.32100108  0.85712010  0.96439135  1
  O  O27  1  0.53611802  0.85712010  0.46439135  1
  O  O28  1  0.33179975  0.45511193  0.47936325  1
  O  O29  1  0.13982323  0.68332085  0.46390045  1
  O  O30  1  0.12994679  0.65828593  0.36124977  1
  O  O31  1  0.51408437  0.85964199  0.36175556  1
  O  O32  1  0.32830400  0.49084420  0.36696943  1
  O  O33  1  0.16253920  0.49084420  0.86696943  1
  O  O34  1  0.34555662  0.85964199  0.86175556  1
  O  O35  1  0.52833814  0.65828593  0.86124977  1
  O  O36  1  0.02078573  0.81348462  0.41059887  1
  O  O37  1  0.78156325  0.96936735  0.40849562  1
  O  O38  1  0.17454849  0.17902973  0.41833170  1
  O  O39  1  0.00448124  0.17902973  0.91833170  1
  O  O40  1  0.18780411  0.96936735  0.90849562  1
  O  O41  1  0.79269889  0.81348462  0.91059887  1
  O  O42  1  0.00103651  0.18499524  0.58473450  1
  O  O43  1  0.20052387  0.03377423  0.58316182  1
  O  O44  1  0.81112126  0.80135695  0.58237808  1
  O  O45  1  0.99023569  0.80135695  0.08237808  1
  O  O46  1  0.83325036  0.03377423  0.08316182  1
  O  O47  1  0.18395873  0.18499524  0.08473450  1
  O  O48  1  0.64209866  0.13905897  0.74517541  1
  O  O49  1  0.47275241  0.34399814  0.74270126  1
  O  O50  1  0.84619046  0.51323974  0.74638905  1
  O  O51  1  0.66705027  0.51323974  0.24638905  1
  O  O52  1  0.87124673  0.34399814  0.24270126  1
  O  O53  1  0.49696130  0.13905897  0.24517541  1
  O  O54  1  0.63866358  0.51471610  0.91489971  1
  O  O55  1  0.85937578  0.36677391  0.91055414  1
  O  O56  1  0.49026952  0.11439624  0.91231196  1
  O  O57  1  0.62412772  0.11439624  0.41231196  1
  O  O58  1  0.50739913  0.36677391  0.41055414  1
  O  O59  1  0.87605352  0.51471610  0.41489971  1
  O  O60  1  0.33870772  0.48317417  0.08467007  1
  O  O61  1  0.13496911  0.64416139  0.08209742  1
  O  O62  1  0.53024553  0.86537907  0.08130513  1
  O  O63  1  0.33513254  0.86537907  0.58130513  1
  O  O64  1  0.50919128  0.64416139  0.58209742  1
  O  O65  1  0.14446545  0.48317417  0.58467007  1
  O  O66  1  0.31920766  0.81940375  0.26942652  1
  O  O67  1  0.49921906  0.66507036  0.26778776  1
  O  O68  1  0.16270285  0.48346014  0.25995824  1
  O  O69  1  0.32075629  0.48346014  0.75995824  1
  O  O70  1  0.16585030  0.66507036  0.76778776  1
  O  O71  1  0.50019509  0.81940375  0.76942652  1
loop_
_geom_bond_atom_site_label_1
_geom_bond_atom_site_label_2
_geom_bond_distance
_geom_bond_site_symmetry_2
Na0 O53 2.350019 1_565
Na0 O9 2.479947 1_555
Na0 O16 2.669082 1_565
Na0 O66 2.747626 1_555
Na0 O67 2.793603 1_555
Na0 O52 2.838441 1_565
Na1 O51 2.382698 1_555
Na1 O53 2.628807 1_555
Na1 O67 2.711898 1_555
Na1 O17 2.716760 1_555
Na1 O0 2.758964 1_555
Na2 O11 2.440735 1_655
Na2 O52 2.603343 1_555
Na2 O51 2.678459 1_555
Na2 O66 2.691693 1_655
Na2 O68 2.830671 1_655
Na2 O15 2.877372 1_555
Na2 O30 2.988252 1_655
Na2 O1 3.020192 1_555
Na3 O6 2.440735 1_555
Na3 O49 2.603342 1_555
Na3 O50 2.678467 1_555
Na3 O71 2.691701 1_555
Na3 O69 2.830679 1_555
Na3 O14 2.877374 1_555
Na3 O35 2.988256 1_555
Na3 O4 3.020192 1_555
Na4 O50 2.382690 1_555
Na4 O48 2.628800 1_555
Na4 O70 2.711897 1_655
Na4 O12 2.716758 1_555
Na4 O5 2.758964 1_555
Na5 O48 2.350027 1_565
Na5 O8 2.479946 1_555
Na5 O13 2.669083 1_565
Na5 O71 2.747618 1_555
Na5 O70 2.793604 1_555
Na5 O49 2.838439 1_565
Na6 O28 2.398638 1_555
Na6 O42 2.475409 1_555
Na6 O65 2.502896 1_555
Na6 O43 2.512956 1_555
Na6 O64 2.556156 1_555
Na7 O25 2.398635 1_554
Na7 O47 2.475401 1_555
Na7 O60 2.502880 1_555
Na7 O46 2.512957 1_455
Na7 O61 2.556160 1_555
Na8 O4 2.374841 1_555
Na8 O55 2.394112 1_555
Na8 O40 2.623195 1_655
Na8 O54 2.625845 1_555
Na8 O41 2.635250 1_555
Na9 O39 2.301539 1_655
Na9 O5 2.360905 1_555
Na9 O56 2.550462 1_555
Na9 O55 2.559666 1_555
Na9 O41 2.626311 1_545
Na10 O38 2.301530 1_555
Na10 O0 2.360902 1_555
Na10 O57 2.550480 1_555
Na10 O58 2.559667 1_555
Na10 O36 2.626305 1_545
Na11 O1 2.374842 1_555
Na11 O58 2.394109 1_555
Na11 O37 2.623193 1_555
Na11 O59 2.625862 1_555
Na11 O36 2.635258 1_655
Na12 O38 2.423439 1_555
Na12 O42 2.530039 1_555
Na12 O43 2.652301 1_555
Na12 O44 2.784245 1_445
Na12 O37 2.890945 1_445
Na12 O36 2.953576 1_545
Na13 O39 2.423439 1_555
Na13 O47 2.530039 1_556
Na13 O46 2.652301 1_456
Na13 O45 2.784245 1_446
Na13 O40 2.890945 1_545
Na13 O41 2.953576 1_445
Na14 O55 2.428766 1_555
Na14 O50 2.490908 1_555
Na14 O48 2.591519 1_555
Na14 O56 2.787065 1_555
Na14 O54 2.839592 1_555
Na14 O49 2.911244 1_555
Na15 O58 2.428766 1_555
Na15 O51 2.490908 1_555
Na15 O53 2.591519 1_555
Na15 O57 2.787065 1_555
Na15 O59 2.839592 1_555
Na15 O52 2.911244 1_555
Na16 O62 2.400787 1_555
Na16 O61 2.578564 1_555
Na16 O60 2.588800 1_555
Na17 O63 2.400787 1_555
Na17 O64 2.578564 1_555
Na17 O65 2.588800 1_555
Ca0 O0 2.220479 1_555
Ca0 O1 2.268670 1_445
Ca0 O38 2.298170 1_555
Ca0 O2 2.304775 1_455
Ca0 O36 2.390990 1_545
Ca0 O37 2.433879 1_445
Ca1 O5 2.220479 1_455
Ca1 O4 2.268670 1_445
Ca1 O39 2.298170 1_555
Ca1 O3 2.304774 1_555
Ca1 O41 2.390990 1_445
Ca1 O40 2.433879 1_545
Ca2 O6 2.241159 1_555
Ca2 O8 2.260313 1_655
Ca2 O44 2.354694 1_555
Ca2 O42 2.490076 1_665
Ca2 O43 2.525629 1_665
Ca2 O7 2.589468 1_665
Ca3 O11 2.241159 1_655
Ca3 O9 2.260313 1_555
Ca3 O45 2.354694 1_555
Ca3 O47 2.490076 1_665
Ca3 O46 2.525629 1_565
Ca3 O10 2.589468 1_665
Ca4 O48 2.264674 1_555
Ca4 O50 2.276951 1_555
Ca4 O12 2.285361 1_555
Ca4 O14 2.307530 1_555
Ca4 O13 2.327546 1_555
Ca4 O49 2.455053 1_555
Ca5 O53 2.264674 1_555
Ca5 O51 2.276951 1_555
Ca5 O17 2.285361 1_555
Ca5 O15 2.307530 1_555
Ca5 O16 2.327546 1_555
Ca5 O52 2.455053 1_555
Ca6 O20 2.308297 1_556
Ca6 O19 2.319621 1_556
Ca6 O18 2.363791 1_556
Ca6 O54 2.382995 1_555
Ca6 O55 2.398079 1_555
Ca6 O56 2.494024 1_555
Ca7 O21 2.308297 1_555
Ca7 O22 2.319621 1_555
Ca7 O23 2.363791 1_555
Ca7 O59 2.382995 1_555
Ca7 O58 2.398079 1_555
Ca7 O57 2.494024 1_555
Ca8 O25 2.168912 1_554
Ca8 O24 2.252217 1_554
Ca8 O26 2.257616 1_554
Ca8 O60 2.324711 1_555
Ca8 O61 2.367928 1_555
Ca8 O62 2.410891 1_555
Ca9 O28 2.168912 1_555
Ca9 O29 2.252217 1_555
Ca9 O27 2.257616 1_555
Ca9 O65 2.324711 1_555
Ca9 O64 2.367928 1_555
Ca9 O63 2.410891 1_555
Nb0 O67 1.885542 1_555
Nb0 O32 1.918294 1_555
Nb0 O66 1.958236 1_555
Nb0 O31 2.092854 1_555
Nb0 O68 2.117883 1_555
Nb0 O30 2.219897 1_555
Nb1 O70 1.885542 1_555
Nb1 O33 1.918294 1_555
Nb1 O71 1.958236 1_555
Nb1 O34 2.092854 1_555
Nb1 O69 2.117883 1_555
Nb1 O35 2.219897 1_555
O0 Si0 1.624371 1_545
O1 Si1 1.613803 1_555
O2 S0 1.463938 1_655
O3 S1 1.463938 1_555
O4 Si2 1.613803 1_655
O5 Si3 1.624371 1_545
O6 Si3 1.628413 1_555
O7 S1 1.477691 1_555
O8 Si2 1.621616 1_555
O9 Si1 1.621616 1_555
O10 S0 1.477691 1_555
O11 Si0 1.628413 1_555
O12 S2 1.486125 1_555
O13 S3 1.490603 1_555
O14 S4 1.493766 1_555
O15 S5 1.493766 1_555
O16 S6 1.490603 1_555
O17 S7 1.486125 1_555
O18 S7 1.477287 1_555
O19 S5 1.490653 1_555
O20 S6 1.495895 1_555
O21 S3 1.495895 1_555
O22 S4 1.490653 1_555
O23 S2 1.477287 1_555
O24 S8 1.463391 1_555
O25 Si4 1.606753 1_555
O26 S9 1.460019 1_555
O27 S10 1.460019 1_555
O28 Si5 1.606753 1_555
O29 S11 1.463391 1_555
O30 S11 1.516346 1_555
O31 S10 1.541032 1_555
O32 Si5 1.759434 1_555
O33 Si4 1.759434 1_555
O34 S9 1.541032 1_555
O35 S8 1.516346 1_555
O36 S11 1.491644 1_555
O37 S10 1.471921 1_555
O38 Si5 1.626305 1_555
O39 Si4 1.626308 1_555
O40 S9 1.471912 1_555
O41 S8 1.491649 1_555
O42 S2 1.504313 1_455
O43 S3 1.501306 1_555
O44 S4 1.481690 1_555
O45 S5 1.481694 1_555
O46 S6 1.501297 1_555
O47 S7 1.504319 1_555
O48 Si3 1.643124 1_545
O49 S1 1.485599 1_555
O50 Si2 1.636539 1_655
O51 Si1 1.636542 1_555
O52 S0 1.485590 1_655
O53 Si0 1.643130 1_545
O54 S8 1.488755 1_555
O55 Si4 1.665133 1_655
O56 S9 1.487869 1_545
O57 S10 1.487860 1_545
O58 Si5 1.665151 1_555
O59 S11 1.488744 1_655
O60 S7 1.505966 1_555
O61 S5 1.505233 1_455
O62 S6 1.486294 1_565
O63 S3 1.486287 1_565
O64 S4 1.505252 1_555
O65 S2 1.505955 1_455
O66 Si0 1.711888 1_555
O67 Si1 1.745714 1_555
O68 S0 1.536622 1_555
O69 S1 1.536626 1_555
O70 Si2 1.745705 1_555
O71 Si3 1.711893 1_555
