# generated using pymatgen
data_NaGa2Sn2P3(SO8)3
_symmetry_space_group_name_H-M   'P 1'
_cell_length_a   8.62603657
_cell_length_b   8.63646075
_cell_length_c   22.47355303
_cell_angle_alpha   89.99002972
_cell_angle_beta   89.77845261
_cell_angle_gamma   119.99230323
_symmetry_Int_Tables_number   1
_chemical_formula_structural   NaGa2Sn2P3(SO8)3
_chemical_formula_sum   'Na3 Ga6 Sn6 P9 S9 O72'
_cell_volume   1450.03543519
_cell_formula_units_Z   3
loop_
 _symmetry_equiv_pos_site_id
 _symmetry_equiv_pos_as_xyz
  1  'x, y, z'
loop_
 _atom_site_type_symbol
 _atom_site_label
 _atom_site_symmetry_multiplicity
 _atom_site_fract_x
 _atom_site_fract_y
 _atom_site_fract_z
 _atom_site_occupancy
  Na  Na0  1  0.67694028  0.33506511  0.83414752  1
  Na  Na1  1  0.66320459  0.33938403  0.33089406  1
  Na  Na2  1  0.34322105  0.67277926  0.16975310  1
  Ga  Ga0  1  0.67616566  0.33401639  0.68867371  1
  Ga  Ga1  1  0.64660196  0.32558143  0.18561501  1
  Ga  Ga2  1  0.67058232  0.32568246  0.98483570  1
  Ga  Ga3  1  0.66601905  0.34274748  0.47620662  1
  Ga  Ga4  1  0.33354388  0.66463404  0.31374353  1
  Ga  Ga5  1  0.32296071  0.66800073  0.81146294  1
  Sn  Sn0  1  0.00639346  0.99489142  0.35301002  1
  Sn  Sn1  1  0.99411572  0.00176702  0.85310608  1
  Sn  Sn2  1  0.99528633  0.99466603  0.64858753  1
  Sn  Sn3  1  -0.00002181  0.99936292  0.14563226  1
  Sn  Sn4  1  0.33453891  0.66258879  0.02061419  1
  Sn  Sn5  1  0.32911330  0.66323550  0.51757623  1
  P  P0  1  0.29744421  0.99693199  0.24951138  1
  P  P1  1  0.70293262  0.70195921  0.24989638  1
  P  P2  1  0.99943676  0.70425263  0.75044882  1
  P  P3  1  0.69754330  0.99647621  0.75036613  1
  P  P4  1  0.66693776  0.04878056  0.08422511  1
  P  P5  1  0.38270780  0.33176736  0.08244853  1
  P  P6  1  0.04001393  0.38051862  0.91535528  1
  P  P7  1  0.33534138  0.37723456  0.41501909  1
  P  P8  1  0.04139264  0.66084619  0.41566866  1
  S  S0  1  0.99820478  0.29619354  0.25031507  1
  S  S1  1  0.29817749  0.29781596  0.74950982  1
  S  S2  1  0.95163905  0.33190691  0.58300043  1
  S  S3  1  0.38287883  0.04915730  0.58328816  1
  S  S4  1  0.66485229  0.61786844  0.58352077  1
  S  S5  1  0.95034556  0.61735301  0.08379149  1
  S  S6  1  0.62150376  0.65971534  0.91502656  1
  S  S7  1  0.33684329  0.96083256  0.91564905  1
  S  S8  1  0.62514424  0.96207627  0.41617610  1
  O  O0  1  0.22089193  0.04180400  0.30537790  1
  O  O1  1  0.81916266  0.78521915  0.30647184  1
  O  O2  1  0.96295534  0.18223253  0.30456253  1
  O  O3  1  0.22124416  0.17913483  0.80277840  1
  O  O4  1  0.95949203  0.78714962  0.80575006  1
  O  O5  1  0.82516044  0.04551504  0.80448675  1
  O  O6  1  0.77976064  0.96196585  0.69330090  1
  O  O7  1  0.18383159  0.21971177  0.69525590  1
  O  O8  1  0.04040245  0.82278334  0.69364513  1
  O  O9  1  0.78434159  0.82312336  0.19418221  1
  O  O10  1  0.03544974  0.21862627  0.19652714  1
  O  O11  1  0.17827226  0.96110812  0.19381216  1
  O  O12  1  0.87393367  0.36275643  0.63729126  1
  O  O13  1  0.48992165  0.12815281  0.63745590  1
  O  O14  1  0.63452846  0.50898823  0.63747551  1
  O  O15  1  0.87446494  0.50887539  0.13755012  1
  O  O16  1  0.63549675  0.13075709  0.13999063  1
  O  O17  1  0.49606402  0.37156668  0.13851269  1
  O  O18  1  0.46621542  0.30744715  0.02517806  1
  O  O19  1  0.84817878  0.54243910  0.02846381  1
  O  O20  1  0.69861597  0.15535112  0.02643437  1
  O  O21  1  0.46248024  0.15738870  0.52923018  1
  O  O22  1  0.69642183  0.54010683  0.52970191  1
  O  O23  1  0.84238038  0.30156790  0.52967101  1
  O  O24  1  0.55023080  0.70021140  0.96988646  1
  O  O25  1  0.15461174  0.45697535  0.97217141  1
  O  O26  1  0.30167740  0.85095147  0.97051460  1
  O  O27  1  0.55375947  0.85273188  0.47233980  1
  O  O28  1  0.30030714  0.45008152  0.47434315  1
  O  O29  1  0.15364372  0.70358579  0.47417512  1
  O  O30  1  0.12935428  0.63024984  0.36139570  1
  O  O31  1  0.51157917  0.88141760  0.36412478  1
  O  O32  1  0.37236427  0.49968981  0.36145792  1
  O  O33  1  0.12921848  0.49715303  0.86005281  1
  O  O34  1  0.36909283  0.87949736  0.86271710  1
  O  O35  1  0.51097765  0.63393546  0.86209667  1
  O  O36  1  0.01765433  0.82545463  0.41142629  1
  O  O37  1  0.80410086  0.98098573  0.41002908  1
  O  O38  1  0.16499199  0.19356363  0.40917401  1
  O  O39  1  0.02514845  0.19433337  0.90930399  1
  O  O40  1  0.17281328  0.97534721  0.90932877  1
  O  O41  1  0.80250424  0.82252218  0.91065582  1
  O  O42  1  0.97423966  0.17143413  0.58946104  1
  O  O43  1  0.20014279  0.02929933  0.58919900  1
  O  O44  1  0.82718860  0.79980099  0.58826839  1
  O  O45  1  0.97152083  0.79794182  0.08785935  1
  O  O46  1  0.83125361  0.02407928  0.08983765  1
  O  O47  1  0.19522530  0.16545950  0.08906044  1
  O  O48  1  0.68142171  0.16553450  0.74190936  1
  O  O49  1  0.47430622  0.31114704  0.74121460  1
  O  O50  1  0.82736424  0.52158653  0.74220167  1
  O  O51  1  0.69320742  0.52005662  0.24242864  1
  O  O52  1  0.83822443  0.31295211  0.24306414  1
  O  O53  1  0.48310029  0.16522610  0.24384114  1
  O  O54  1  0.63960713  0.49998472  0.92249109  1
  O  O55  1  0.85266948  0.36148384  0.92295239  1
  O  O56  1  0.49600190  0.14034975  0.92185121  1
  O  O57  1  0.64071749  0.13930630  0.42473575  1
  O  O58  1  0.50203236  0.35560423  0.42321033  1
  O  O59  1  0.85655064  0.48989998  0.42405415  1
  O  O60  1  0.35910333  0.50057485  0.07903747  1
  O  O61  1  0.13511561  0.64009251  0.07892274  1
  O  O62  1  0.49431461  0.85896142  0.07818714  1
  O  O63  1  0.36241079  0.86687125  0.57763590  1
  O  O64  1  0.50498683  0.64107662  0.57764640  1
  O  O65  1  0.13364392  0.49342484  0.57858279  1
  O  O66  1  0.31003663  0.82695755  0.25799830  1
  O  O67  1  0.51777275  0.68585001  0.25759157  1
  O  O68  1  0.16162770  0.47212073  0.25670953  1
  O  O69  1  0.31324020  0.47189449  0.75805158  1
  O  O70  1  0.16476001  0.68748220  0.75842104  1
  O  O71  1  0.51917835  0.82833194  0.76153308  1
loop_
_geom_bond_atom_site_label_1
_geom_bond_atom_site_label_2
_geom_bond_distance
_geom_bond_site_symmetry_2
Na0 O55 2.451670 1_555
Na0 O50 2.537083 1_555
Na0 O48 2.549359 1_555
Na0 O56 2.549482 1_555
Na0 O54 2.555153 1_555
Na0 O49 2.669700 1_555
Na1 O51 2.458783 1_555
Na1 O53 2.488320 1_555
Na1 O58 2.535602 1_555
Na1 O52 2.559129 1_555
Na1 O59 2.591359 1_555
Na1 O57 2.670514 1_555
Na2 O67 2.455569 1_555
Na2 O66 2.483061 1_555
Na2 O62 2.530156 1_555
Na2 O68 2.556773 1_555
Na2 O60 2.567012 1_555
Na2 O61 2.644029 1_555
Ga0 O48 1.901700 1_555
Ga0 O50 1.916479 1_555
Ga0 O12 1.966381 1_555
Ga0 O49 2.026173 1_555
Ga0 O13 2.055795 1_555
Ga0 O14 2.069212 1_555
Ga1 O17 1.868307 1_555
Ga1 O53 1.910949 1_555
Ga1 O16 1.931796 1_555
Ga1 O51 1.985567 1_555
Ga1 O15 2.099607 1_555
Ga1 O52 2.146561 1_555
Ga2 O20 1.858331 1_556
Ga2 O18 1.914301 1_556
Ga2 O19 1.989405 1_556
Ga2 O55 1.998560 1_555
Ga2 O56 2.107327 1_555
Ga2 O54 2.169071 1_555
Ga3 O59 1.893773 1_555
Ga3 O58 1.897848 1_555
Ga3 O22 1.993903 1_555
Ga3 O57 2.022878 1_555
Ga3 O21 2.058745 1_555
Ga3 O23 2.106995 1_555
Ga4 O32 1.941764 1_555
Ga4 O30 1.949298 1_555
Ga4 O67 1.960814 1_555
Ga4 O66 1.965068 1_555
Ga4 O68 2.038826 1_555
Ga4 O31 2.070108 1_555
Ga5 O70 1.885095 1_555
Ga5 O33 1.919001 1_555
Ga5 O71 1.919096 1_555
Ga5 O34 2.024630 1_555
Ga5 O69 2.043491 1_555
Ga5 O35 2.122023 1_555
O0 P0 1.553116 1_545
O0 Sn0 1.992135 1_545
O1 P1 1.558290 1_555
O1 Sn0 2.017717 1_655
O2 S0 1.498315 1_555
O2 Sn0 2.133615 1_645
O3 S1 1.495829 1_555
O3 Sn1 2.108569 1_455
O4 P2 1.555476 1_555
O4 Sn1 2.026604 1_565
O5 P3 1.554013 1_545
O5 Sn1 2.005839 1_555
O6 P3 1.562350 1_555
O6 Sn2 2.001605 1_555
O7 S1 1.502978 1_555
O7 Sn2 2.091963 1_445
O8 P2 1.561045 1_455
O8 Sn2 1.990111 1_455
O9 P1 1.553695 1_555
O9 Sn3 2.029858 1_655
O10 S0 1.491864 1_455
O10 Sn3 2.100475 1_545
O11 P0 1.552895 1_555
O11 Sn3 2.041487 1_555
O12 S2 1.476912 1_555
O13 S3 1.476190 1_555
O14 S4 1.474513 1_555
O15 S5 1.464984 1_555
O16 P4 1.528098 1_555
O17 P5 1.528211 1_555
O18 P5 1.537448 1_555
O19 S5 1.476497 1_555
O20 P4 1.534266 1_555
O21 S3 1.473976 1_555
O22 S4 1.472636 1_555
O23 S2 1.468082 1_555
O24 S6 1.493184 1_555
O24 Sn4 2.060587 1_556
O25 P6 1.549528 1_555
O25 Sn4 2.001439 1_556
O26 S7 1.490582 1_555
O26 Sn4 2.111240 1_556
O27 S8 1.508747 1_555
O27 Sn5 2.068950 1_555
O28 P7 1.565851 1_555
O28 Sn5 1.984897 1_555
O29 P8 1.566949 1_555
O29 Sn5 1.975462 1_555
O30 P8 1.525330 1_555
O31 S8 1.462938 1_555
O32 P7 1.525876 1_555
O33 P6 1.539050 1_555
O34 S7 1.476141 1_555
O35 S6 1.473143 1_555
O36 P8 1.537272 1_555
O36 Sn0 2.004173 1_555
O37 S8 1.474796 1_555
O37 Sn0 2.115317 1_655
O38 P7 1.537509 1_555
O38 Sn0 2.018941 1_545
O39 P6 1.553901 1_555
O39 Sn1 1.997717 1_455
O40 S7 1.488888 1_555
O40 Sn1 2.095525 1_465
O41 S6 1.492767 1_555
O41 Sn1 2.055669 1_565
O42 S2 1.500043 1_555
O42 Sn2 2.099415 1_545
O43 S3 1.503277 1_555
O43 Sn2 2.108706 1_445
O44 S4 1.497526 1_555
O44 Sn2 2.085360 1_555
O45 S5 1.479725 1_555
O45 Sn3 2.085287 1_655
O46 P4 1.540813 1_555
O46 Sn3 2.015124 1_645
O47 P5 1.541514 1_555
O47 Sn3 2.019427 1_545
O48 P3 1.546077 1_545
O49 S1 1.476205 1_555
O50 P2 1.545137 1_555
O51 P1 1.540022 1_555
O52 S0 1.467416 1_555
O53 P0 1.537769 1_545
O54 S6 1.473453 1_555
O55 P6 1.549198 1_655
O56 S7 1.476999 1_545
O57 S8 1.480757 1_545
O58 P7 1.551410 1_555
O59 P8 1.549706 1_655
O60 P5 1.571517 1_555
O60 Sn4 2.006135 1_555
O61 S5 1.508824 1_455
O61 Sn4 2.088644 1_555
O62 P4 1.576172 1_565
O62 Sn4 2.031645 1_555
O63 S3 1.499367 1_565
O63 Sn5 2.120409 1_555
O64 S4 1.495659 1_555
O64 Sn5 2.113452 1_555
O65 S2 1.493246 1_455
O65 Sn5 2.093502 1_555
O66 P0 1.537081 1_555
O67 P1 1.541426 1_555
O68 S0 1.475363 1_455
O69 S1 1.455681 1_555
O70 P2 1.515013 1_455
O71 P3 1.517281 1_555
