# generated using pymatgen
data_YH12(ClO2)3
_symmetry_space_group_name_H-M   'P 1'
_cell_length_a   6.46902367
_cell_length_b   7.78377398
_cell_length_c   11.90179421
_cell_angle_alpha   52.98786633
_cell_angle_beta   90.00000000
_cell_angle_gamma   90.00000000
_symmetry_Int_Tables_number   1
_chemical_formula_structural   YH12(ClO2)3
_chemical_formula_sum   'Y2 H24 Cl6 O12'
_cell_volume   478.54269301
_cell_formula_units_Z   2
loop_
 _symmetry_equiv_pos_site_id
 _symmetry_equiv_pos_as_xyz
  1  'x, y, z'
loop_
 _atom_site_type_symbol
 _atom_site_label
 _atom_site_symmetry_multiplicity
 _atom_site_fract_x
 _atom_site_fract_y
 _atom_site_fract_z
 _atom_site_occupancy
  Y  Y0  1  0.84384640  0.00000000  0.75000000  1
  Y  Y1  1  0.15615360  0.00000000  0.25000000  1
  H  H0  1  0.90433764  0.75762237  0.63205923  1
  H  H1  1  0.90433764  0.24237763  0.86794077  1
  H  H2  1  0.09566236  0.24237763  0.36794077  1
  H  H3  1  0.09566236  0.75762237  0.13205923  1
  H  H4  1  0.08520578  0.67798507  0.73901077  1
  H  H5  1  0.08520578  0.32201493  0.76098923  1
  H  H6  1  0.91479422  0.32201493  0.26098923  1
  H  H7  1  0.91479422  0.67798507  0.23901077  1
  H  H8  1  0.52990038  0.79873348  0.68262244  1
  H  H9  1  0.52990038  0.20126652  0.81737756  1
  H  H10  1  0.47009962  0.20126652  0.31737756  1
  H  H11  1  0.47009962  0.79873348  0.18262244  1
  H  H12  1  0.44996691  0.03198017  0.61381657  1
  H  H13  1  0.44996691  0.96801983  0.88618343  1
  H  H14  1  0.55003309  0.96801983  0.38618343  1
  H  H15  1  0.55003309  0.03198017  0.11381657  1
  H  H16  1  0.75227036  0.53446624  0.95833704  1
  H  H17  1  0.75227036  0.46553376  0.54166296  1
  H  H18  1  0.24772964  0.46553376  0.04166296  1
  H  H19  1  0.24772964  0.53446624  0.45833704  1
  H  H20  1  0.33486849  0.63252016  0.52990796  1
  H  H21  1  0.33486849  0.36747984  0.97009204  1
  H  H22  1  0.66513151  0.36747984  0.47009204  1
  H  H23  1  0.66513151  0.63252016  0.02990796  1
  Cl  Cl0  1  0.37172843  0.50000000  0.75000000  1
  Cl  Cl1  1  0.62827157  0.50000000  0.25000000  1
  Cl  Cl2  1  0.16743310  0.20237228  0.55792376  1
  Cl  Cl3  1  0.16743310  0.79762772  0.94207624  1
  Cl  Cl4  1  0.83256690  0.79762772  0.44207624  1
  Cl  Cl5  1  0.83256690  0.20237228  0.05792376  1
  O  O0  1  0.94691978  0.74051358  0.71755349  1
  O  O1  1  0.94691978  0.25948642  0.78244651  1
  O  O2  1  0.05308022  0.25948642  0.28244651  1
  O  O3  1  0.05308022  0.74051358  0.21755349  1
  O  O4  1  0.57615915  0.94429003  0.64403176  1
  O  O5  1  0.57615915  0.05570997  0.85596824  1
  O  O6  1  0.42384085  0.05570997  0.35596824  1
  O  O7  1  0.42384085  0.94429003  0.14403176  1
  O  O8  1  0.70153620  0.66898023  0.93809960  1
  O  O9  1  0.70153620  0.33101977  0.56190040  1
  O  O10  1  0.29846380  0.33101977  0.06190040  1
  O  O11  1  0.29846380  0.66898023  0.43809960  1
loop_
_geom_bond_atom_site_label_1
_geom_bond_atom_site_label_2
_geom_bond_distance
_geom_bond_site_symmetry_2
H0 O0 0.982776 1_555
H1 O1 0.982776 1_555
H2 O2 0.982776 1_555
H3 O3 0.982776 1_555
H4 O0 0.976074 1_455
H5 O1 0.976074 1_455
H6 O2 0.976074 1_655
H7 O3 0.976074 1_655
H8 O4 0.978586 1_555
H9 O5 0.978586 1_555
H10 O6 0.978586 1_555
H11 O7 0.978586 1_555
H12 O4 0.982903 1_545
H13 O5 0.982903 1_565
H14 O6 0.982903 1_565
H15 O7 0.982903 1_545
H16 O8 0.978962 1_555
H17 O9 0.978962 1_555
H18 O10 0.978962 1_555
H19 O11 0.978962 1_555
H20 O11 0.978064 1_555
H21 O10 0.978064 1_556
H22 O9 0.978064 1_555
H23 O8 0.978064 1_554
Cl2 H12 2.116575 1_555
Cl2 H2 2.139523 1_555
Cl2 H19 2.160519 1_555
Cl2 Y0 2.784544 1_455
Cl3 H13 2.116575 1_555
Cl3 H3 2.139523 1_556
Cl3 H18 2.160519 1_556
Cl3 Y0 2.784544 1_465
Cl4 H14 2.116575 1_555
Cl4 H0 2.139523 1_555
Cl4 H17 2.160519 1_555
Cl4 Y1 2.784544 1_665
Cl5 H15 2.116575 1_555
Cl5 H1 2.139523 1_554
Cl5 H16 2.160519 1_554
Cl5 Y1 2.784544 1_655
O0 Y0 2.369036 1_565
O1 Y0 2.369036 1_555
O2 Y1 2.369036 1_555
O3 Y1 2.369036 1_565
O4 Y0 2.331491 1_565
O5 Y0 2.331491 1_555
O6 Y1 2.331491 1_555
O7 Y1 2.331491 1_565
O8 Y0 2.356562 1_565
O9 Y0 2.356562 1_555
O10 Y1 2.356562 1_555
O11 Y1 2.356562 1_565
