# generated using pymatgen
data_Na4Hf3Zn(PO4)6
_symmetry_space_group_name_H-M   'P 1'
_cell_length_a   8.92497706
_cell_length_b   8.94532171
_cell_length_c   22.87877017
_cell_angle_alpha   90.01649670
_cell_angle_beta   89.97608856
_cell_angle_gamma   120.01314561
_symmetry_Int_Tables_number   1
_chemical_formula_structural   Na4Hf3Zn(PO4)6
_chemical_formula_sum   'Na12 Hf9 Zn3 P18 O72'
_cell_volume   1581.64421255
_cell_formula_units_Z   3
loop_
 _symmetry_equiv_pos_site_id
 _symmetry_equiv_pos_as_xyz
  1  'x, y, z'
loop_
 _atom_site_type_symbol
 _atom_site_label
 _atom_site_symmetry_multiplicity
 _atom_site_fract_x
 _atom_site_fract_y
 _atom_site_fract_z
 _atom_site_occupancy
  Na  Na0  1  0.64161824  0.01254326  0.24643797  1
  Na  Na1  1  0.37067396  0.35797192  0.24635107  1
  Na  Na2  1  0.98734593  0.62839078  0.24612853  1
  Na  Na3  1  0.98757800  0.36219649  0.74443557  1
  Na  Na4  1  0.37346086  0.00968315  0.74454133  1
  Na  Na5  1  0.70715570  0.67631266  0.41485393  1
  Na  Na6  1  0.00959138  0.01007658  0.49505422  1
  Na  Na7  1  0.99998202  0.00009070  0.00123238  1
  Na  Na8  1  0.66597127  0.34276569  0.83089692  1
  Na  Na9  1  0.66583461  0.32453501  0.33184123  1
  Na  Na10  1  0.33320115  0.66664994  0.16215496  1
  Na  Na11  1  0.34265105  0.66580896  0.66223625  1
  Hf  Hf0  1  0.99943730  0.99830829  0.85428419  1
  Hf  Hf1  1  0.99718834  0.99714018  0.64371846  1
  Hf  Hf2  1  0.00046829  0.00028028  0.14549125  1
  Hf  Hf3  1  0.66691472  0.33280135  0.98192245  1
  Hf  Hf4  1  0.66602581  0.32779422  0.48266954  1
  Hf  Hf5  1  0.33315482  0.66652626  0.02046379  1
  Hf  Hf6  1  0.33123127  0.66591552  0.52030762  1
  Hf  Hf7  1  0.33124552  0.66669593  0.31704803  1
  Hf  Hf8  1  0.33804093  0.66585746  0.81541866  1
  Zn  Zn0  1  0.00777380  0.00875548  0.35152067  1
  Zn  Zn1  1  0.66568296  0.34079607  0.67911057  1
  Zn  Zn2  1  0.66666405  0.33289807  0.17723719  1
  P  P0  1  0.29169679  0.00174231  0.25127487  1
  P  P1  1  0.70912685  0.70755366  0.25224235  1
  P  P2  1  0.99780277  0.28944322  0.25135544  1
  P  P3  1  0.29192569  0.29007982  0.74980134  1
  P  P4  1  0.99642343  0.70670616  0.75028404  1
  P  P5  1  0.70930336  0.99969708  0.74995459  1
  P  P6  1  0.95843149  0.33425412  0.58612981  1
  P  P7  1  0.37637355  0.04110906  0.58608978  1
  P  P8  1  0.66484682  0.62220008  0.58366427  1
  P  P9  1  0.95801810  0.62434146  0.08512500  1
  P  P10  1  0.66581741  0.04151651  0.08510371  1
  P  P11  1  0.37588384  0.33432762  0.08509044  1
  P  P12  1  0.62553691  0.66548143  0.91779241  1
  P  P13  1  0.04111075  0.37518606  0.91642089  1
  P  P14  1  0.33486177  0.95890359  0.91656094  1
  P  P15  1  0.62810817  0.96079027  0.41670970  1
  P  P16  1  0.32968646  0.36968999  0.41719918  1
  P  P17  1  0.03883247  0.66855631  0.41721911  1
  O  O0  1  0.21104667  0.03265648  0.30481549  1
  O  O1  1  0.81545235  0.78442092  0.30771326  1
  O  O2  1  0.96515552  0.17700729  0.30478634  1
  O  O3  1  0.19988652  0.17579204  0.80421347  1
  O  O4  1  0.97862825  0.79970408  0.80479551  1
  O  O5  1  0.82392047  0.02342925  0.80401652  1
  O  O6  1  0.79512440  0.97207566  0.69584008  1
  O  O7  1  0.17223696  0.20529379  0.69635402  1
  O  O8  1  0.03240947  0.82619266  0.69682853  1
  O  O9  1  0.79549864  0.82785005  0.19819402  1
  O  O10  1  0.03407174  0.20751438  0.19646406  1
  O  O11  1  0.17387322  0.96632193  0.19634434  1
  O  O12  1  0.88661761  0.36333245  0.64282737  1
  O  O13  1  0.47813173  0.11233467  0.64268112  1
  O  O14  1  0.63341163  0.51499266  0.63800577  1
  O  O15  1  0.88792828  0.52395746  0.14211531  1
  O  O16  1  0.63551872  0.11173554  0.14203480  1
  O  O17  1  0.47640582  0.36455059  0.14205458  1
  O  O18  1  0.46586625  0.30903168  0.03103691  1
  O  O19  1  0.84301855  0.53422901  0.03107566  1
  O  O20  1  0.69134874  0.15668683  0.03107591  1
  O  O21  1  0.46550490  0.15682438  0.53171619  1
  O  O22  1  0.69211434  0.54065374  0.52703108  1
  O  O23  1  0.84298294  0.30865286  0.53178083  1
  O  O24  1  0.53736121  0.69194721  0.97111849  1
  O  O25  1  0.15702305  0.46524752  0.96944108  1
  O  O26  1  0.30892648  0.84323965  0.96957387  1
  O  O27  1  0.53109908  0.84156260  0.46885524  1
  O  O28  1  0.31402513  0.46951147  0.46974953  1
  O  O29  1  0.15466275  0.68647653  0.46950260  1
  O  O30  1  0.12236462  0.64021712  0.36065298  1
  O  O31  1  0.51569282  0.87642115  0.36018671  1
  O  O32  1  0.36395504  0.48708939  0.36112476  1
  O  O33  1  0.12526785  0.48402953  0.86013138  1
  O  O34  1  0.35930342  0.87462268  0.86027565  1
  O  O35  1  0.51284158  0.64032558  0.86261304  1
  O  O36  1  0.01399926  0.82467853  0.41291899  1
  O  O37  1  0.80288926  0.97010495  0.41216770  1
  O  O38  1  0.17139753  0.19309023  0.41255411  1
  O  O39  1  0.02296040  0.19448478  0.90978749  1
  O  O40  1  0.17185520  0.97705774  0.91015825  1
  O  O41  1  0.80565213  0.82829087  0.91038975  1
  O  O42  1  0.97708525  0.17001947  0.58951316  1
  O  O43  1  0.19343110  0.02307191  0.58987844  1
  O  O44  1  0.82963931  0.80542325  0.58901011  1
  O  O45  1  0.97666128  0.80730335  0.08921312  1
  O  O46  1  0.83034556  0.02263816  0.08920689  1
  O  O47  1  0.19257028  0.16968321  0.08911983  1
  O  O48  1  0.68926408  0.16050487  0.74677209  1
  O  O49  1  0.46916136  0.30429528  0.74578663  1
  O  O50  1  0.84258326  0.52354832  0.74640311  1
  O  O51  1  0.68243346  0.52431877  0.24432250  1
  O  O52  1  0.84176870  0.31795522  0.24394951  1
  O  O53  1  0.47618326  0.15792802  0.24400683  1
  O  O54  1  0.64358823  0.50337209  0.92359488  1
  O  O55  1  0.86049890  0.35721666  0.92311173  1
  O  O56  1  0.49698350  0.13952412  0.92315992  1
  O  O57  1  0.64124049  0.13959490  0.42301311  1
  O  O58  1  0.50329146  0.36663249  0.42322653  1
  O  O59  1  0.85666821  0.50229669  0.42310862  1
  O  O60  1  0.35236352  0.49382712  0.07526052  1
  O  O61  1  0.14131912  0.64762036  0.07526732  1
  O  O62  1  0.50576729  0.85871627  0.07522355  1
  O  O63  1  0.35286563  0.85884448  0.57558874  1
  O  O64  1  0.50621069  0.64826027  0.57487485  1
  O  O65  1  0.14107419  0.49367450  0.57600675  1
  O  O66  1  0.30696515  0.83260502  0.25613732  1
  O  O67  1  0.52434152  0.69217473  0.25619036  1
  O  O68  1  0.16712876  0.47387496  0.25653423  1
  O  O69  1  0.30085274  0.46900801  0.75709464  1
  O  O70  1  0.16730466  0.69479676  0.75711272  1
  O  O71  1  0.52423288  0.83722676  0.75660152  1
loop_
_geom_bond_atom_site_label_1
_geom_bond_atom_site_label_2
_geom_bond_distance
_geom_bond_site_symmetry_2
Na0 O52 2.403308 1_555
Na0 O53 2.407400 1_555
Na0 O67 2.521414 1_545
Na0 O16 2.558401 1_555
Na0 O66 2.598287 1_545
Na0 O2 2.834912 1_555
Na0 O9 2.846336 1_545
Na0 O31 2.854607 1_545
Na1 O53 2.403626 1_555
Na1 O51 2.411704 1_555
Na1 O68 2.512589 1_555
Na1 O17 2.555470 1_555
Na1 O67 2.601381 1_555
Na1 O10 2.845386 1_555
Na1 O0 2.853135 1_555
Na1 O32 2.881020 1_555
Na2 O51 2.395763 1_555
Na2 O52 2.406773 1_555
Na2 O66 2.512770 1_655
Na2 O15 2.548373 1_555
Na2 O68 2.600181 1_655
Na2 O11 2.858790 1_655
Na2 O30 2.864191 1_655
Na2 O1 2.902776 1_555
Na3 O48 2.353943 1_555
Na3 O50 2.372414 1_555
Na3 O69 2.478356 1_655
Na3 O12 2.495405 1_555
Na3 O70 2.595113 1_655
Na3 O7 2.864937 1_655
Na3 O33 2.892339 1_655
Na3 O5 2.957616 1_555
Na4 O49 2.328905 1_555
Na4 O48 2.441905 1_555
Na4 O70 2.493499 1_545
Na4 O13 2.507604 1_555
Na4 O71 2.518728 1_545
Na4 O8 2.855612 1_545
Na4 O34 2.887147 1_545
Na4 O3 2.961662 1_555
Na5 O37 2.322548 1_555
Na5 O36 2.372141 1_655
Na5 O58 2.445170 1_555
Na5 O59 2.513511 1_555
Na5 O1 2.634832 1_555
Na5 O22 2.813532 1_555
Na5 O27 2.915732 1_555
Na5 O32 2.928082 1_555
Na6 O38 2.441856 1_555
Na6 O36 2.519249 1_545
Na6 O37 2.543605 1_445
Na6 O42 2.685982 1_455
Na6 O43 2.687788 1_555
Na6 O44 2.758558 1_445
Na7 O46 2.585875 1_555
Na7 O47 2.586802 1_655
Na7 O45 2.590689 1_545
Na7 O41 2.650317 1_544
Na7 O40 2.655262 1_644
Na7 O39 2.662320 1_654
Na8 O50 2.507171 1_555
Na8 O49 2.528481 1_555
Na8 O48 2.596663 1_555
Na8 O54 2.624273 1_555
Na8 O55 2.694516 1_555
Na8 O56 2.700414 1_555
Na9 O53 2.569419 1_555
Na9 O52 2.569495 1_555
Na9 O57 2.602760 1_555
Na9 O51 2.638565 1_555
Na9 O59 2.661044 1_555
Na9 O58 2.676046 1_555
Na10 O61 2.573804 1_555
Na10 O62 2.575229 1_555
Na10 O60 2.575649 1_555
Na10 O67 2.684028 1_555
Na10 O66 2.688398 1_555
Na10 O68 2.697328 1_555
Na11 O64 2.525287 1_555
Na11 O65 2.594142 1_555
Na11 O63 2.600813 1_555
Na11 O71 2.674655 1_555
Na11 O69 2.700524 1_555
Na11 O70 2.762409 1_555
Hf0 O4 2.035100 1_555
Hf0 O5 2.044705 1_565
Hf0 O3 2.047282 1_665
Hf0 O41 2.078421 1_555
Hf0 O40 2.081506 1_655
Hf0 O39 2.089617 1_665
Hf1 O44 2.044187 1_555
Hf1 O43 2.056858 1_665
Hf1 O42 2.059265 1_565
Hf1 O6 2.078085 1_555
Hf1 O8 2.096648 1_655
Hf1 O7 2.109062 1_665
Hf2 O47 2.073488 1_555
Hf2 O46 2.075847 1_455
Hf2 O11 2.076799 1_545
Hf2 O45 2.077238 1_445
Hf2 O10 2.080697 1_555
Hf2 O9 2.087100 1_445
Hf3 O20 2.034458 1_556
Hf3 O18 2.035765 1_556
Hf3 O19 2.036852 1_556
Hf3 O55 2.112799 1_555
Hf3 O54 2.114573 1_555
Hf3 O56 2.115180 1_555
Hf4 O23 2.014508 1_555
Hf4 O21 2.015485 1_555
Hf4 O22 2.065298 1_555
Hf4 O57 2.091017 1_555
Hf4 O59 2.128579 1_555
Hf4 O58 2.141597 1_555
Hf5 O24 2.057116 1_554
Hf5 O61 2.059310 1_555
Hf5 O26 2.060187 1_554
Hf5 O25 2.060204 1_554
Hf5 O62 2.061399 1_555
Hf5 O60 2.062502 1_555
Hf6 O29 2.039577 1_555
Hf6 O28 2.043848 1_555
Hf6 O27 2.057154 1_555
Hf6 O65 2.064350 1_555
Hf6 O64 2.066608 1_555
Hf6 O63 2.069038 1_555
Hf7 O30 2.020806 1_555
Hf7 O31 2.028384 1_555
Hf7 O32 2.038092 1_555
Hf7 O68 2.123724 1_555
Hf7 O66 2.124791 1_555
Hf7 O67 2.136785 1_555
Hf8 O35 2.002475 1_555
Hf8 O33 2.051234 1_555
Hf8 O34 2.054564 1_555
Hf8 O71 2.091198 1_555
Hf8 O69 2.098995 1_555
Hf8 O70 2.136593 1_555
O0 P0 1.514355 1_555
O0 Zn0 2.022213 1_555
O1 P1 1.526984 1_555
O1 Zn0 2.128897 1_665
O2 P2 1.515936 1_555
O2 Zn0 2.031530 1_655
O3 P3 1.558665 1_555
O4 P4 1.550511 1_555
O5 P5 1.550809 1_545
O6 P5 1.539129 1_555
O7 P3 1.549722 1_555
O8 P4 1.548646 1_455
O9 P1 1.565696 1_555
O10 P2 1.567005 1_455
O11 P0 1.566255 1_565
O12 P6 1.525453 1_555
O12 Zn1 2.054004 1_555
O13 P7 1.526021 1_555
O13 Zn1 2.061814 1_555
O14 P8 1.508425 1_555
O14 Zn1 1.961005 1_555
O15 P9 1.528325 1_555
O15 Zn2 2.022244 1_555
O16 P10 1.527538 1_555
O16 Zn2 2.022124 1_555
O17 P11 1.527946 1_555
O17 Zn2 2.023294 1_555
O18 P11 1.551237 1_555
O19 P9 1.550857 1_555
O20 P10 1.551411 1_555
O21 P7 1.558194 1_555
O22 P8 1.564274 1_555
O23 P6 1.557274 1_555
O24 P12 1.532732 1_555
O25 P13 1.535394 1_555
O26 P14 1.534939 1_555
O27 P15 1.544834 1_555
O28 P16 1.544820 1_555
O29 P17 1.536357 1_555
O30 P17 1.575754 1_555
O31 P15 1.578457 1_555
O32 P16 1.587894 1_555
O33 P13 1.561719 1_555
O34 P14 1.561404 1_555
O35 P12 1.559005 1_555
O36 P17 1.522807 1_555
O36 Zn0 2.186464 1_565
O37 P15 1.523458 1_555
O37 Zn0 2.180414 1_665
O38 P16 1.506676 1_555
O38 Zn0 2.095910 1_555
O39 P13 1.549210 1_555
O40 P14 1.549485 1_555
O41 P12 1.546507 1_555
O42 P6 1.561031 1_555
O43 P7 1.560700 1_555
O44 P8 1.566177 1_555
O45 P9 1.562869 1_555
O46 P10 1.562612 1_555
O47 P11 1.563250 1_555
O48 P5 1.537515 1_545
O48 Zn1 2.320109 1_555
O49 P3 1.524937 1_555
O49 Zn1 2.221518 1_555
O50 P4 1.525451 1_555
O50 Zn1 2.225758 1_555
O51 P1 1.544486 1_555
O51 Zn2 2.250583 1_555
O52 P2 1.545523 1_555
O52 Zn2 2.236268 1_555
O53 P0 1.545728 1_555
O53 Zn2 2.238473 1_555
O54 P12 1.542814 1_555
O55 P13 1.545403 1_655
O56 P14 1.545385 1_545
O57 P15 1.550859 1_545
O58 P16 1.569408 1_555
O59 P17 1.566624 1_655
O60 P11 1.558903 1_555
O61 P9 1.558685 1_455
O62 P10 1.558453 1_565
O63 P7 1.554864 1_565
O64 P8 1.558777 1_555
O65 P6 1.555255 1_455
O66 P0 1.589479 1_565
O67 P1 1.587411 1_555
O68 P2 1.589187 1_455
O69 P3 1.571082 1_555
O70 P4 1.588858 1_455
O71 P5 1.569083 1_555
