# generated using pymatgen
data_Rb2CdCl4
_symmetry_space_group_name_H-M   'P 1'
_cell_length_a   5.21698511
_cell_length_b   5.21698593
_cell_length_c   8.93538802
_cell_angle_alpha   106.97343937
_cell_angle_beta   106.97344757
_cell_angle_gamma   90.00000514
_symmetry_Int_Tables_number   1
_chemical_formula_structural   Rb2CdCl4
_chemical_formula_sum   'Rb2 Cd1 Cl4'
_cell_volume   221.50086249
_cell_formula_units_Z   1
loop_
 _symmetry_equiv_pos_site_id
 _symmetry_equiv_pos_as_xyz
  1  'x, y, z'
loop_
 _atom_site_type_symbol
 _atom_site_label
 _atom_site_symmetry_multiplicity
 _atom_site_fract_x
 _atom_site_fract_y
 _atom_site_fract_z
 _atom_site_occupancy
  Rb  Rb0  1  0.36003152  0.36003152  0.72006303  1
  Rb  Rb1  1  0.63996848  0.63996848  0.27993697  1
  Cd  Cd0  1  -0.00000000  0.00000000  0.00000000  1
  Cl  Cl0  1  0.50000000  0.00000000  0.00000000  1
  Cl  Cl1  1  -0.00000000  0.50000000  0.00000000  1
  Cl  Cl2  1  0.16031631  0.16031631  0.32063262  1
  Cl  Cl3  1  0.83968369  0.83968369  0.67936738  1
loop_
_geom_bond_atom_site_label_1
_geom_bond_atom_site_label_2
_geom_bond_distance
_geom_bond_site_symmetry_2
Cd0 Cl0 2.608493 1_455
Cd0 Cl0 2.608493 1_555
Cd0 Cl1 2.608493 1_545
Cd0 Cl1 2.608493 1_555
Cd0 Cl2 2.609419 1_555
Cd0 Cl3 2.609419 1_444
Cl0 Rb1 3.463313 1_555
Cl0 Rb0 3.463313 1_544
Cl0 Rb0 3.463314 1_554
Cl0 Rb1 3.463314 1_545
Cl1 Rb1 3.463313 1_555
Cl1 Rb0 3.463313 1_454
Cl1 Rb0 3.463314 1_554
Cl1 Rb1 3.463314 1_455
Cl2 Rb0 3.250703 1_555
Cl2 Rb1 3.703803 1_445
Cl2 Rb1 3.703803 1_555
Cl2 Rb1 3.703803 1_455
Cl2 Rb1 3.703804 1_545
Cl3 Rb1 3.250703 1_555
Cl3 Rb0 3.703803 1_665
Cl3 Rb0 3.703803 1_555
Cl3 Rb0 3.703803 1_655
Cl3 Rb0 3.703804 1_565
