# generated using pymatgen
data_LiV(PO3)3
_symmetry_space_group_name_H-M   'P 1'
_cell_length_a   9.79046000
_cell_length_b   9.48129452
_cell_length_c   9.46943914
_cell_angle_alpha   108.54197618
_cell_angle_beta   104.37136781
_cell_angle_gamma   109.92598715
_symmetry_Int_Tables_number   1
_chemical_formula_structural   LiV(PO3)3
_chemical_formula_sum   'Li4 V4 P12 O36'
_cell_volume   718.06349441
_cell_formula_units_Z   4
loop_
 _symmetry_equiv_pos_site_id
 _symmetry_equiv_pos_as_xyz
  1  'x, y, z'
loop_
 _atom_site_type_symbol
 _atom_site_label
 _atom_site_symmetry_multiplicity
 _atom_site_fract_x
 _atom_site_fract_y
 _atom_site_fract_z
 _atom_site_occupancy
  Li  Li0  1  0.50178800  0.93151200  0.34594200  1
  Li  Li1  1  0.33208900  0.15050600  0.35893900  1
  Li  Li2  1  0.66791100  0.84949400  0.64106100  1
  Li  Li3  1  0.49821200  0.06848800  0.65405800  1
  V  V0  1  0.27440200  0.22918900  0.74780800  1
  V  V1  1  0.21340400  0.29846000  0.09775700  1
  V  V2  1  0.78659600  0.70154000  0.90224300  1
  V  V3  1  0.72559800  0.77081100  0.25219200  1
  P  P0  1  0.07756900  0.90884500  0.81070100  1
  P  P1  1  0.10553600  0.84855800  0.48862100  1
  P  P2  1  0.16325300  0.78882300  0.05625100  1
  P  P3  1  0.35329200  0.61072900  0.00175800  1
  P  P4  1  0.29447200  0.66275200  0.43129400  1
  P  P5  1  0.40888100  0.56911000  0.69304800  1
  P  P6  1  0.59111900  0.43089000  0.30695200  1
  P  P7  1  0.70552800  0.33724800  0.56870600  1
  P  P8  1  0.64670800  0.38927100  0.99824200  1
  P  P9  1  0.83674700  0.21117700  0.94374900  1
  P  P10  1  0.89446400  0.15144200  0.51137900  1
  P  P11  1  0.92243100  0.09115500  0.18929900  1
  O  O0  1  0.07265500  0.81138300  0.63586500  1
  O  O1  1  0.00136300  0.27211300  0.95251600  1
  O  O2  1  0.17293200  0.83928600  0.90930500  1
  O  O3  1  0.19669100  0.62803900  0.99837400  1
  O  O4  1  0.14186900  0.69708800  0.40577100  1
  O  O5  1  0.04221900  0.17690100  0.62923900  1
  O  O6  1  0.18466200  0.09508000  0.87800000  1
  O  O7  1  0.31911300  0.43175300  0.96844900  1
  O  O8  1  0.37282600  0.64190600  0.85037000  1
  O  O9  1  0.28957500  0.60107600  0.57179200  1
  O  O10  1  0.29794400  0.92487600  0.21255600  1
  O  O11  1  0.08839800  0.14465700  0.19552300  1
  O  O12  1  0.25668200  0.52173500  0.27790100  1
  O  O13  1  0.44415200  0.82439600  0.49786500  1
  O  O14  1  0.35708600  0.38498800  0.63516700  1
  O  O15  1  0.25374500  0.01373300  0.55913100  1
  O  O16  1  0.57774200  0.68366000  0.72916500  1
  O  O17  1  0.50684500  0.25211000  0.84581900  1
  O  O18  1  0.49315500  0.74789000  0.15418100  1
  O  O19  1  0.42225800  0.31634000  0.27083500  1
  O  O20  1  0.74625500  0.98626700  0.44086900  1
  O  O21  1  0.64291400  0.61501200  0.36483300  1
  O  O22  1  0.55584800  0.17560400  0.50213500  1
  O  O23  1  0.74331800  0.47826500  0.72209900  1
  O  O24  1  0.91160200  0.85534300  0.80447700  1
  O  O25  1  0.70205600  0.07512400  0.78744400  1
  O  O26  1  0.71042500  0.39892400  0.42820800  1
  O  O27  1  0.62717400  0.35809400  0.14963000  1
  O  O28  1  0.68088700  0.56824700  0.03155100  1
  O  O29  1  0.81533800  0.90492000  0.12200000  1
  O  O30  1  0.95778100  0.82309900  0.37076100  1
  O  O31  1  0.85813100  0.30291200  0.59422900  1
  O  O32  1  0.80330900  0.37196100  0.00162600  1
  O  O33  1  0.82706800  0.16071400  0.09069500  1
  O  O34  1  0.99863700  0.72788700  0.04748400  1
  O  O35  1  0.92734500  0.18861700  0.36413500  1
loop_
_geom_bond_atom_site_label_1
_geom_bond_atom_site_label_2
_geom_bond_distance
_geom_bond_site_symmetry_2
Li0 O18 2.036761 1_555
Li0 O10 2.048122 1_555
Li0 O13 2.088324 1_555
Li0 O22 2.103149 1_565
Li0 O20 2.143447 1_555
Li1 O10 2.001550 1_545
Li1 O19 2.049725 1_555
Li1 O22 2.158550 1_555
Li1 O11 2.472338 1_555
Li2 O25 2.001550 1_565
Li2 O16 2.049725 1_555
Li2 O13 2.158550 1_555
Li2 O24 2.472338 1_555
Li3 O17 2.036761 1_555
Li3 O25 2.048122 1_555
Li3 O22 2.088324 1_555
Li3 O13 2.103149 1_545
Li3 O15 2.143447 1_555
O0 P0 1.598241 1_555
O0 P1 1.621737 1_555
O1 P9 1.485448 1_455
O1 V1 2.067448 1_556
O2 P0 1.599089 1_555
O2 P2 1.622387 1_556
O3 P3 1.590321 1_556
O3 P2 1.621520 1_556
O4 P1 1.604579 1_555
O4 P4 1.612113 1_555
O5 P10 1.478410 1_455
O5 V0 2.069932 1_555
O6 P0 1.521197 1_545
O6 V0 2.163756 1_555
O6 V1 2.217059 1_556
O7 P3 1.520251 1_556
O7 V0 2.160191 1_555
O7 V1 2.211191 1_556
O8 P3 1.595657 1_556
O8 P5 1.610437 1_555
O9 P5 1.603587 1_555
O9 P4 1.619159 1_555
O10 P2 1.500338 1_555
O11 P11 1.507546 1_455
O11 V1 2.164724 1_555
O12 P4 1.481650 1_555
O12 V1 2.074610 1_555
O13 P4 1.513226 1_555
O14 P5 1.501724 1_555
O14 V0 2.142606 1_555
O15 P1 1.519541 1_545
O15 V0 2.150319 1_555
O16 P5 1.512918 1_555
O16 V2 2.195315 1_555
O17 P8 1.503610 1_555
O17 V0 2.138615 1_555
O18 P3 1.503610 1_555
O18 V3 2.138615 1_555
O19 P6 1.512918 1_555
O19 V1 2.195315 1_555
O20 P10 1.519541 1_565
O20 V3 2.150319 1_555
O21 P6 1.501724 1_555
O21 V3 2.142606 1_555
O22 P7 1.513226 1_555
O23 P7 1.481650 1_555
O23 V2 2.074610 1_555
O24 P0 1.507546 1_655
O24 V2 2.164724 1_555
O25 P9 1.500338 1_555
O26 P6 1.603587 1_555
O26 P7 1.619159 1_555
O27 P8 1.595657 1_554
O27 P6 1.610437 1_555
O28 P8 1.520251 1_554
O28 V3 2.160191 1_555
O28 V2 2.211191 1_554
O29 P11 1.521197 1_565
O29 V3 2.163756 1_555
O29 V2 2.217059 1_554
O30 P1 1.478410 1_655
O30 V3 2.069932 1_555
O31 P10 1.604579 1_555
O31 P7 1.612113 1_555
O32 P8 1.590321 1_554
O32 P9 1.621520 1_554
O33 P11 1.599089 1_555
O33 P9 1.622387 1_554
O34 P2 1.485448 1_655
O34 V2 2.067448 1_554
O35 P11 1.598241 1_555
O35 P10 1.621737 1_555
