# generated using pymatgen
data_MgMn6(O2F)4
_symmetry_space_group_name_H-M   'P 1'
_cell_length_a   11.07175030
_cell_length_b   7.83344206
_cell_length_c   2.96055100
_cell_angle_alpha   90.00000000
_cell_angle_beta   90.00000000
_cell_angle_gamma   111.92441322
_symmetry_Int_Tables_number   1
_chemical_formula_structural   MgMn6(O2F)4
_chemical_formula_sum   'Mg1 Mn6 O8 F4'
_cell_volume   238.19814129
_cell_formula_units_Z   1
loop_
 _symmetry_equiv_pos_site_id
 _symmetry_equiv_pos_as_xyz
  1  'x, y, z'
loop_
 _atom_site_type_symbol
 _atom_site_label
 _atom_site_symmetry_multiplicity
 _atom_site_fract_x
 _atom_site_fract_y
 _atom_site_fract_z
 _atom_site_occupancy
  Mg  Mg0  1  0.15630900  0.81600900  0.50000000  1
  Mn  Mn0  1  0.00629200  0.05332100  0.00000000  1
  Mn  Mn1  1  0.34002100  0.19833500  0.50000000  1
  Mn  Mn2  1  0.01041000  0.46806100  0.50000000  1
  Mn  Mn3  1  0.64891100  0.26300500  0.00000000  1
  Mn  Mn4  1  0.36109900  0.67113400  0.00000000  1
  Mn  Mn5  1  0.66130100  0.85278700  0.50000000  1
  O  O0  1  0.12597800  0.05833700  0.50000000  1
  O  O1  1  0.99610400  0.30522300  0.00000000  1
  O  O2  1  0.03496400  0.65755000  0.00000000  1
  O  O3  1  0.67845400  0.02671400  0.00000000  1
  O  O4  1  0.53125300  0.23307000  0.50000000  1
  O  O5  1  0.23739700  0.62131500  0.50000000  1
  O  O6  1  0.47786500  0.77318800  0.50000000  1
  O  O7  1  0.66528900  0.70539600  0.00000000  1
  F  F0  1  0.35184800  0.38423800  0.00000000  1
  F  F1  1  0.77849500  0.37418400  0.50000000  1
  F  F2  1  0.29421400  0.96389200  0.00000000  1
  F  F3  1  0.86879400  0.94924100  0.50000000  1
loop_
_geom_bond_atom_site_label_1
_geom_bond_atom_site_label_2
_geom_bond_distance
_geom_bond_site_symmetry_2
Mg0 O5 2.038265 1_555
Mg0 O0 2.047490 1_565
Mg0 O2 2.071626 1_555
Mg0 O2 2.071626 1_556
Mn0 O0 1.977336 1_555
Mn0 O0 1.977336 1_554
Mn0 O1 2.018092 1_455
Mn1 O4 2.031421 1_555
Mn1 O0 2.208618 1_555
Mn2 O1 1.921597 1_455
Mn2 O1 1.921597 1_456
Mn2 O2 2.041342 1_555
Mn2 O2 2.041342 1_556
Mn2 O5 2.346077 1_555
Mn3 O4 1.927450 1_555
Mn3 O4 1.927450 1_554
Mn3 O3 1.996299 1_555
Mn4 O6 1.931285 1_554
Mn4 O6 1.931285 1_555
Mn4 O5 1.954526 1_555
Mn4 O5 1.954526 1_554
Mn5 O7 1.887932 1_556
Mn5 O7 1.887932 1_555
Mn5 O6 1.888889 1_555
Mn5 O3 1.972390 1_566
Mn5 O3 1.972390 1_565
F0 Mn1 2.046132 1_555
F0 Mn1 2.046132 1_554
F0 Mn4 2.211182 1_555
F1 Mn3 2.018671 1_555
F1 Mn3 2.018671 1_556
F1 Mn2 2.392451 1_655
F2 Mg0 2.131574 1_554
F2 Mg0 2.131574 1_555
F2 Mn1 2.263980 1_564
F2 Mn1 2.263980 1_565
F2 Mn4 2.660045 1_555
F3 Mn0 2.060728 1_666
F3 Mn0 2.060728 1_665
F3 Mn5 2.133612 1_555
