# generated using pymatgen
data_MgFe6(O5F)2
_symmetry_space_group_name_H-M   'P 1'
_cell_length_a   4.99586952
_cell_length_b   7.62715025
_cell_length_c   5.60184304
_cell_angle_alpha   96.35908118
_cell_angle_beta   93.93619877
_cell_angle_gamma   86.43970544
_symmetry_Int_Tables_number   1
_chemical_formula_structural   MgFe6(O5F)2
_chemical_formula_sum   'Mg1 Fe6 O10 F2'
_cell_volume   211.32035749
_cell_formula_units_Z   1
loop_
 _symmetry_equiv_pos_site_id
 _symmetry_equiv_pos_as_xyz
  1  'x, y, z'
loop_
 _atom_site_type_symbol
 _atom_site_label
 _atom_site_symmetry_multiplicity
 _atom_site_fract_x
 _atom_site_fract_y
 _atom_site_fract_z
 _atom_site_occupancy
  Mg  Mg0  1  0.00082600  0.82957300  0.33066300  1
  Fe  Fe0  1  0.53033000  0.67108000  0.14065400  1
  Fe  Fe1  1  0.47200100  0.98821600  0.51896100  1
  Fe  Fe2  1  0.50866100  0.33138400  0.82400600  1
  Fe  Fe3  1  0.97521900  0.64055200  0.71794300  1
  Fe  Fe4  1  0.99950500  0.32881800  0.33042600  1
  Fe  Fe5  1  0.02671500  0.01733700  0.94209500  1
  O  O0  1  0.82283500  0.41798600  0.62000000  1
  O  O1  1  0.83494900  0.77358900  0.99525000  1
  O  O2  1  0.67567900  0.09890000  0.79754100  1
  O  O3  1  0.68190300  0.75765600  0.47084300  1
  O  O4  1  0.69624200  0.42743200  0.12550500  1
  O  O5  1  0.32614500  0.56002900  0.86342300  1
  O  O6  1  0.30567900  0.23280600  0.53414300  1
  O  O7  1  0.31922600  0.90000900  0.18785900  1
  O  O8  1  0.17268800  0.23988800  0.04387400  1
  O  O9  1  0.16827800  0.88538000  0.66504000  1
  F  F0  1  0.83225400  0.08029400  0.30222400  1
  F  F1  1  0.16475400  0.57799900  0.36335900  1
loop_
_geom_bond_atom_site_label_1
_geom_bond_atom_site_label_2
_geom_bond_distance
_geom_bond_site_symmetry_2
Mg0 O3 1.957511 1_455
Mg0 O7 1.958283 1_555
Mg0 O9 2.010498 1_555
Mg0 O1 2.012934 1_454
Fe0 O5 1.941193 1_554
Fe0 O4 1.982695 1_555
Fe0 O7 1.984512 1_555
Fe0 O3 2.007476 1_555
Fe0 O1 2.012404 1_554
Fe1 O2 1.944294 1_565
Fe1 O6 1.989946 1_565
Fe1 O3 1.992352 1_555
Fe1 O9 2.011884 1_555
Fe1 O7 2.017020 1_555
Fe2 O2 1.907197 1_555
Fe2 O5 1.914747 1_555
Fe2 O6 1.956643 1_555
Fe2 O4 1.965022 1_556
Fe2 O0 2.179015 1_555
Fe2 O8 2.332593 1_556
Fe3 O1 1.909398 1_555
Fe3 O0 1.912875 1_555
Fe3 O5 1.973823 1_655
Fe3 O3 2.166552 1_555
Fe3 O9 2.211460 1_655
Fe4 O8 1.913627 1_655
Fe4 O0 1.936633 1_555
Fe4 O6 1.996152 1_655
Fe4 O4 1.997460 1_555
Fe5 O8 1.902744 1_556
Fe5 O9 1.907397 1_545
Fe5 O2 1.974694 1_455
Fe5 O7 2.160095 1_546
Fe5 O1 2.201310 1_445
F0 Mg0 2.059250 1_645
F0 Fe4 2.104379 1_555
F0 Fe5 2.289277 1_654
F0 Fe1 2.419170 1_545
F1 Mg0 2.061093 1_555
F1 Fe4 2.103315 1_455
F1 Fe3 2.249866 1_455
F1 Fe0 2.462946 1_555
