# generated using pymatgen
data_CaNbP(SO6)2
_symmetry_space_group_name_H-M   'P 1'
_cell_length_a   9.13294744
_cell_length_b   9.11700364
_cell_length_c   22.80952533
_cell_angle_alpha   90.34429813
_cell_angle_beta   90.00000000
_cell_angle_gamma   120.05786665
_symmetry_Int_Tables_number   1
_chemical_formula_structural   CaNbP(SO6)2
_chemical_formula_sum   'Ca6 Nb6 P6 S12 O72'
_cell_volume   1643.78860345
_cell_formula_units_Z   6
loop_
 _symmetry_equiv_pos_site_id
 _symmetry_equiv_pos_as_xyz
  1  'x, y, z'
loop_
 _atom_site_type_symbol
 _atom_site_label
 _atom_site_symmetry_multiplicity
 _atom_site_fract_x
 _atom_site_fract_y
 _atom_site_fract_z
 _atom_site_occupancy
  Ca  Ca0  1  0.99838207  0.00292799  0.36202726  1
  Ca  Ca1  1  0.00454592  0.00292799  0.86202726  1
  Ca  Ca2  1  0.66538701  0.33377239  0.69516852  1
  Ca  Ca3  1  0.66838638  0.33377239  0.19516852  1
  Ca  Ca4  1  0.33010264  0.66610006  0.02854524  1
  Ca  Ca5  1  0.33599643  0.66610006  0.52854524  1
  Nb  Nb0  1  0.00454105  0.01447215  0.64349648  1
  Nb  Nb1  1  0.00993110  0.01447215  0.14349648  1
  Nb  Nb2  1  0.65586091  0.32910458  0.97706289  1
  Nb  Nb3  1  0.67324467  0.32910458  0.47706289  1
  Nb  Nb4  1  0.33866531  0.66962803  0.31054564  1
  Nb  Nb5  1  0.33096173  0.66962803  0.81054564  1
  P  P0  1  0.01963863  0.29580976  0.25175135  1
  P  P1  1  0.27617113  0.29580976  0.75175135  1
  P  P2  1  0.94276523  0.31944322  0.58443867  1
  P  P3  1  0.37667898  0.31944322  0.08443867  1
  P  P4  1  0.34894469  0.95695715  0.91812332  1
  P  P5  1  0.60801146  0.95695715  0.41812332  1
  S  S0  1  0.27493404  0.97867633  0.25044171  1
  S  S1  1  0.70707942  0.72499756  0.25011923  1
  S  S2  1  0.01791814  0.72499756  0.75011923  1
  S  S3  1  0.70374229  0.97867633  0.75044171  1
  S  S4  1  0.37053065  0.05815574  0.58304227  1
  S  S5  1  0.68959727  0.63018038  0.58420533  1
  S  S6  1  0.94058411  0.63018038  0.08420533  1
  S  S7  1  0.68762609  0.05815574  0.08304227  1
  S  S8  1  0.60765339  0.64776726  0.91665201  1
  S  S9  1  0.03509679  0.39298326  0.91675617  1
  S  S10  1  0.35788548  0.39298326  0.41675617  1
  S  S11  1  0.04011287  0.64776726  0.41665201  1
  O  O0  1  0.20341206  0.00648057  0.30265353  1
  O  O1  1  0.80597728  0.79448490  0.30273287  1
  O  O2  1  0.99290529  0.18761019  0.30336538  1
  O  O3  1  0.19470490  0.18761019  0.80336538  1
  O  O4  1  0.98850762  0.79448490  0.80273287  1
  O  O5  1  0.80306851  0.00648057  0.80265353  1
  O  O6  1  0.78750938  0.94873470  0.69748461  1
  O  O7  1  0.15005493  0.19861961  0.69523732  1
  O  O8  1  0.04881842  0.83654080  0.69789775  1
  O  O9  1  0.78772238  0.83654080  0.19789775  1
  O  O10  1  0.04856468  0.19861961  0.19523732  1
  O  O11  1  0.16122532  0.94873470  0.19748461  1
  O  O12  1  0.86340974  0.34265006  0.63761957  1
  O  O13  1  0.47009946  0.12941836  0.63542034  1
  O  O14  1  0.65861324  0.52823666  0.63584067  1
  O  O15  1  0.86962442  0.52823666  0.13584067  1
  O  O16  1  0.65931991  0.12941836  0.13542034  1
  O  O17  1  0.47924133  0.34265006  0.13761957  1
  O  O18  1  0.47037475  0.28868892  0.02870192  1
  O  O19  1  0.82754882  0.54440979  0.03113747  1
  O  O20  1  0.71877573  0.17220344  0.03062445  1
  O  O21  1  0.45342871  0.17220344  0.53062445  1
  O  O22  1  0.71686198  0.54440979  0.53113747  1
  O  O23  1  0.81831517  0.28868892  0.52870192  1
  O  O24  1  0.53677453  0.67510490  0.96894845  1
  O  O25  1  0.13937235  0.46191290  0.96820790  1
  O  O26  1  0.32801754  0.85741767  0.97172228  1
  O  O27  1  0.52939913  0.85741767  0.47172228  1
  O  O28  1  0.32253955  0.46191290  0.46820790  1
  O  O29  1  0.13832936  0.67510490  0.46894845  1
  O  O30  1  0.12208408  0.61564334  0.36382599  1
  O  O31  1  0.48470834  0.86407314  0.36283223  1
  O  O32  1  0.38471413  0.50759621  0.36399669  1
  O  O33  1  0.12288108  0.50759621  0.86399669  1
  O  O34  1  0.37936379  0.86407314  0.86283223  1
  O  O35  1  0.49355825  0.61564334  0.86382599  1
  O  O36  1  0.00292094  0.78149539  0.40515416  1
  O  O37  1  0.78527122  0.00207100  0.40509006  1
  O  O38  1  0.22723881  0.22058981  0.40425127  1
  O  O39  1  0.99335100  0.22058981  0.90425127  1
  O  O40  1  0.21679978  0.00207100  0.90509006  1
  O  O41  1  0.77857445  0.78149539  0.90515416  1
  O  O42  1  0.94429029  0.14209644  0.59328045  1
  O  O43  1  0.19880740  0.05226485  0.59122840  1
  O  O44  1  0.85452669  0.79957145  0.59331116  1
  O  O45  1  0.94504476  0.79957145  0.09331116  1
  O  O46  1  0.85345746  0.05226485  0.09122840  1
  O  O47  1  0.19780615  0.14209644  0.09328045  1
  O  O48  1  0.66467980  0.11110182  0.73934834  1
  O  O49  1  0.45082250  0.33665757  0.73645024  1
  O  O50  1  0.88770553  0.55144184  0.73967428  1
  O  O51  1  0.66373731  0.55144184  0.23967428  1
  O  O52  1  0.88583606  0.33665757  0.23645024  1
  O  O53  1  0.44642302  0.11110182  0.23934834  1
  O  O54  1  0.61549985  0.48256006  0.92440966  1
  O  O55  1  0.86889690  0.39260639  0.92553718  1
  O  O56  1  0.52556983  0.13863033  0.92761225  1
  O  O57  1  0.61306150  0.13863033  0.42761225  1
  O  O58  1  0.52371049  0.39260639  0.42553718  1
  O  O59  1  0.86706122  0.48256006  0.42440966  1
  O  O60  1  0.33092367  0.44991873  0.06993225  1
  O  O61  1  0.11187576  0.66818585  0.07310864  1
  O  O62  1  0.55573342  0.88619031  0.07192637  1
  O  O63  1  0.33045589  0.88619031  0.57192637  1
  O  O64  1  0.55630909  0.66818585  0.57310864  1
  O  O65  1  0.11899406  0.44991873  0.56993225  1
  O  O66  1  0.27898984  0.81178780  0.25821368  1
  O  O67  1  0.53451544  0.71958430  0.25917892  1
  O  O68  1  0.19299104  0.47244405  0.26166717  1
  O  O69  1  0.27945201  0.47244405  0.76166717  1
  O  O70  1  0.18506786  0.71958430  0.75917892  1
  O  O71  1  0.53279697  0.81178780  0.75821368  1
loop_
_geom_bond_atom_site_label_1
_geom_bond_atom_site_label_2
_geom_bond_distance
_geom_bond_site_symmetry_2
Ca0 O37 2.176676 1_555
Ca0 O2 2.177000 1_555
Ca0 O38 2.248610 1_655
Ca0 O1 2.269877 1_545
Ca0 O36 2.269945 1_645
Ca0 O0 2.298102 1_655
Ca1 O40 2.176676 1_555
Ca1 O3 2.177000 1_555
Ca1 O39 2.248610 1_455
Ca1 O4 2.269877 1_445
Ca1 O41 2.269945 1_445
Ca1 O5 2.298102 1_455
Ca2 O49 2.186030 1_555
Ca2 O12 2.203421 1_555
Ca2 O50 2.242934 1_555
Ca2 O14 2.262096 1_555
Ca2 O48 2.268976 1_555
Ca2 O13 2.269411 1_555
Ca3 O52 2.186030 1_555
Ca3 O17 2.203421 1_555
Ca3 O51 2.242934 1_555
Ca3 O15 2.262096 1_555
Ca3 O53 2.268976 1_555
Ca3 O16 2.269411 1_555
Ca4 O26 2.187025 1_554
Ca4 O60 2.193842 1_555
Ca4 O61 2.245790 1_555
Ca4 O62 2.255177 1_555
Ca4 O25 2.261569 1_554
Ca4 O24 2.294231 1_554
Ca5 O27 2.187025 1_555
Ca5 O65 2.193842 1_555
Ca5 O64 2.245790 1_555
Ca5 O63 2.255177 1_555
Ca5 O28 2.261569 1_555
Ca5 O29 2.294231 1_555
Nb0 O42 1.904205 1_455
Nb0 O7 1.928399 1_555
Nb0 O43 2.020026 1_555
Nb0 O44 2.076089 1_445
Nb0 O6 2.150201 1_445
Nb0 O8 2.239674 1_545
Nb1 O47 1.904205 1_555
Nb1 O10 1.928399 1_555
Nb1 O46 2.020026 1_455
Nb1 O45 2.076089 1_445
Nb1 O11 2.150201 1_545
Nb1 O9 2.239674 1_445
Nb2 O56 1.900077 1_555
Nb2 O18 1.942372 1_556
Nb2 O54 2.018026 1_555
Nb2 O55 2.093270 1_555
Nb2 O20 2.171030 1_556
Nb2 O19 2.172721 1_556
Nb3 O57 1.900077 1_555
Nb3 O23 1.942372 1_555
Nb3 O59 2.018026 1_555
Nb3 O58 2.093270 1_555
Nb3 O21 2.171030 1_555
Nb3 O22 2.172721 1_555
Nb4 O68 1.955720 1_555
Nb4 O31 1.987465 1_555
Nb4 O67 1.992470 1_555
Nb4 O66 2.031720 1_555
Nb4 O32 2.118858 1_555
Nb4 O30 2.159565 1_555
Nb5 O69 1.955720 1_555
Nb5 O34 1.987465 1_555
Nb5 O70 1.992470 1_555
Nb5 O71 2.031720 1_555
Nb5 O33 2.118858 1_555
Nb5 O35 2.159565 1_555
O0 S0 1.439266 1_545
O1 S1 1.440499 1_555
O2 P0 1.480341 1_655
O3 P1 1.480341 1_555
O4 S2 1.440499 1_655
O5 S3 1.439266 1_545
O6 S3 1.524510 1_555
O7 P1 1.654501 1_555
O8 S2 1.503232 1_555
O9 S1 1.503232 1_555
O10 P0 1.654501 1_555
O11 S0 1.524510 1_555
O12 P2 1.480539 1_555
O13 S4 1.440563 1_555
O14 S5 1.442481 1_555
O15 S6 1.442481 1_555
O16 S7 1.440563 1_555
O17 P3 1.480539 1_555
O18 P3 1.631936 1_555
O19 S6 1.523929 1_555
O20 S7 1.519935 1_555
O21 S4 1.519935 1_555
O22 S5 1.523929 1_555
O23 P2 1.631936 1_555
O24 S8 1.436007 1_555
O25 S9 1.439029 1_555
O26 P4 1.481331 1_555
O27 P5 1.481331 1_555
O28 S10 1.439029 1_555
O29 S11 1.436007 1_555
O30 S11 1.521021 1_555
O31 P5 1.614826 1_555
O32 S10 1.535825 1_555
O33 S9 1.535825 1_555
O34 P4 1.614826 1_555
O35 S8 1.521021 1_555
O36 S11 1.445441 1_555
O37 P5 1.487563 1_545
O38 S10 1.446139 1_555
O39 S9 1.446142 1_655
O40 P4 1.487554 1_545
O41 S8 1.445447 1_555
O42 P2 1.637565 1_555
O43 S4 1.553441 1_555
O44 S5 1.537169 1_555
O45 S6 1.537173 1_555
O46 S7 1.553432 1_555
O47 P3 1.637569 1_555
O48 S3 1.443633 1_545
O49 P1 1.487038 1_555
O50 S2 1.444013 1_655
O51 S1 1.444016 1_555
O52 P0 1.487030 1_655
O53 S0 1.443639 1_545
O54 S8 1.554476 1_555
O55 S9 1.529352 1_655
O56 P4 1.646677 1_545
O57 P5 1.646669 1_545
O58 S10 1.529370 1_555
O59 S11 1.554466 1_655
O60 P3 1.483852 1_555
O61 S6 1.445515 1_455
O62 S7 1.441071 1_565
O63 S4 1.441065 1_565
O64 S5 1.445532 1_555
O65 P2 1.483839 1_455
O66 S0 1.551622 1_555
O67 S1 1.565623 1_555
O68 P0 1.610165 1_555
O69 P1 1.610170 1_555
O70 S2 1.565614 1_555
O71 S3 1.551627 1_555
