# generated using pymatgen
data_Na2Ca4Ta4Si3(S3O16)3
_symmetry_space_group_name_H-M   'P 1'
_cell_length_a   18.04563883
_cell_length_b   9.05391525
_cell_length_c   23.53339230
_cell_angle_alpha   89.92372542
_cell_angle_beta   90.03088691
_cell_angle_gamma   120.16882312
_symmetry_Int_Tables_number   1
_chemical_formula_structural   Na2Ca4Ta4Si3(S3O16)3
_chemical_formula_sum   'Na6 Ca12 Ta12 Si9 S27 O144'
_cell_volume   3324.16165728
_cell_formula_units_Z   3
loop_
 _symmetry_equiv_pos_site_id
 _symmetry_equiv_pos_as_xyz
  1  'x, y, z'
loop_
 _atom_site_type_symbol
 _atom_site_label
 _atom_site_symmetry_multiplicity
 _atom_site_fract_x
 _atom_site_fract_y
 _atom_site_fract_z
 _atom_site_occupancy
  Na  Na0  1  0.99853074  0.99783214  0.49985863  1
  Na  Na1  1  0.49889184  0.00140576  0.99623737  1
  Na  Na2  1  0.33398652  0.33360728  0.83576581  1
  Na  Na3  1  0.82876112  0.33300561  0.83312101  1
  Na  Na4  1  0.33848858  0.34076311  0.33789961  1
  Na  Na5  1  0.83188521  0.32942699  0.33918520  1
  Ca  Ca0  1  0.99903099  0.99846391  0.35464741  1
  Ca  Ca1  1  0.50333002  0.00671229  0.85085985  1
  Ca  Ca2  1  0.99994955  0.99900040  0.64750493  1
  Ca  Ca3  1  0.50004172  0.00180872  0.14791145  1
  Ca  Ca4  1  0.32465807  0.32751625  0.98212736  1
  Ca  Ca5  1  0.84216518  0.33900039  0.98324644  1
  Ca  Ca6  1  0.34070214  0.34866841  0.48396098  1
  Ca  Ca7  1  0.82670385  0.32343952  0.48317294  1
  Ca  Ca8  1  0.16156042  0.66361504  0.30765241  1
  Ca  Ca9  1  0.67065883  0.66802230  0.30747684  1
  Ca  Ca10  1  0.17258685  0.67557811  0.80735658  1
  Ca  Ca11  1  0.66035721  0.64911686  0.80380591  1
  Ta  Ta0  1  0.50022529  0.01016270  0.35420593  1
  Ta  Ta1  1  0.00010235  0.98890743  0.85145738  1
  Ta  Ta2  1  0.50484978  0.01057659  0.64311316  1
  Ta  Ta3  1  0.99928828  0.99885025  0.14230891  1
  Ta  Ta4  1  0.33752284  0.33934016  0.67953861  1
  Ta  Ta5  1  0.82997432  0.33067826  0.68856111  1
  Ta  Ta6  1  0.33691881  0.33636791  0.18402815  1
  Ta  Ta7  1  0.83391817  0.33180017  0.17871819  1
  Ta  Ta8  1  0.16106578  0.64974272  0.02388737  1
  Ta  Ta9  1  0.67215875  0.67454663  0.02066413  1
  Ta  Ta10  1  0.17064376  0.66669293  0.52395487  1
  Ta  Ta11  1  0.66368453  0.67412369  0.52635518  1
  Si  Si0  1  0.49565257  0.28963976  0.24791650  1
  Si  Si1  1  0.64282925  0.28171512  0.75004763  1
  Si  Si2  1  0.99761195  0.69947804  0.74598206  1
  Si  Si3  1  0.47935731  0.32956312  0.58045897  1
  Si  Si4  1  0.68912689  0.04601341  0.58487800  1
  Si  Si5  1  0.33497729  0.63061707  0.58499258  1
  Si  Si6  1  0.97995348  0.62981921  0.08170217  1
  Si  Si7  1  0.83157522  0.03691647  0.08345983  1
  Si  Si8  1  0.18825927  0.33363848  0.08548001  1
  S  S0  1  0.14826923  0.01424931  0.24557479  1
  S  S1  1  0.64940041  0.01874173  0.25191366  1
  S  S2  1  0.35825220  0.70067230  0.25121348  1
  S  S3  1  0.85927902  0.70159358  0.24558508  1
  S  S4  1  0.99123237  0.28243539  0.24573900  1
  S  S5  1  0.14926571  0.28052041  0.75172650  1
  S  S6  1  0.49106739  0.70161874  0.74596085  1
  S  S7  1  0.35773515  0.01555335  0.74473114  1
  S  S8  1  0.85969859  0.01612106  0.75182115  1
  S  S9  1  0.98342181  0.34325470  0.58131460  1
  S  S10  1  0.18869375  0.03696135  0.58015991  1
  S  S11  1  0.82945300  0.62243954  0.58115297  1
  S  S12  1  0.48334729  0.61903205  0.08175344  1
  S  S13  1  0.32865556  0.03619650  0.08110981  1
  S  S14  1  0.68932090  0.34080529  0.08026795  1
  S  S15  1  0.31141416  0.67331157  0.92044540  1
  S  S16  1  0.81395311  0.67799941  0.91514615  1
  S  S17  1  0.02578088  0.37264802  0.91508262  1
  S  S18  1  0.52348421  0.37852339  0.92089651  1
  S  S19  1  0.16175129  0.95181886  0.91500481  1
  S  S20  1  0.66478687  0.95063059  0.91895327  1
  S  S21  1  0.31344920  0.95126673  0.41482731  1
  S  S22  1  0.81117584  0.95042633  0.41981828  1
  S  S23  1  0.16532752  0.38117734  0.41934024  1
  S  S24  1  0.66336916  0.37254804  0.41474411  1
  S  S25  1  0.02415435  0.66930792  0.41983732  1
  S  S26  1  0.52588761  0.67908406  0.41504760  1
  O  O0  1  0.11903990  0.05215403  0.29864436  1
  O  O1  1  0.60091906  0.03700037  0.30326252  1
  O  O2  1  0.41542937  0.78665036  0.30260534  1
  O  O3  1  0.90835966  0.76120119  0.29847515  1
  O  O4  1  0.48156824  0.15092257  0.30684096  1
  O  O5  1  0.97488543  0.18714466  0.29888371  1
  O  O6  1  0.09913192  0.16299902  0.80358387  1
  O  O7  1  0.61913950  0.17583462  0.80783754  1
  O  O8  1  0.47108982  0.75669380  0.79938089  1
  O  O9  1  0.98164930  0.80997161  0.80659890  1
  O  O10  1  0.40581747  0.05540967  0.79828094  1
  O  O11  1  0.91821016  0.04167853  0.80351198  1
  O  O12  1  0.40508741  0.00155147  0.69644813  1
  O  O13  1  0.89560833  0.99399066  0.70048290  1
  O  O14  1  0.10023503  0.21122289  0.70047397  1
  O  O15  1  0.58040931  0.16261500  0.69790477  1
  O  O16  1  0.00618300  0.81363464  0.69410220  1
  O  O17  1  0.49588211  0.80564404  0.69732457  1
  O  O18  1  0.39448938  0.79534146  0.19949276  1
  O  O19  1  0.90993537  0.81568343  0.19775004  1
  O  O20  1  0.99844345  0.18552781  0.19755090  1
  O  O21  1  0.50292326  0.19718004  0.19426153  1
  O  O22  1  0.09086974  0.99788229  0.19797727  1
  O  O23  1  0.60046966  0.99026507  0.20043543  1
  O  O24  1  0.42859193  0.36379181  0.63612737  1
  O  O25  1  0.94587557  0.37366023  0.63294009  1
  O  O26  1  0.24306917  0.11691203  0.63246105  1
  O  O27  1  0.75857430  0.14306426  0.63761900  1
  O  O28  1  0.31239429  0.48706625  0.63871611  1
  O  O29  1  0.81695925  0.51380847  0.63260763  1
  O  O30  1  0.43993304  0.50724481  0.13477808  1
  O  O31  1  0.92764184  0.49193748  0.13685903  1
  O  O32  1  0.31817511  0.12710238  0.13319699  1
  O  O33  1  0.81241808  0.13509097  0.13868912  1
  O  O34  1  0.25612867  0.36966900  0.13952901  1
  O  O35  1  0.74466910  0.36608547  0.13323753  1
  O  O36  1  0.21631019  0.28248763  0.03000887  1
  O  O37  1  0.72760569  0.31507154  0.03054792  1
  O  O38  1  0.43058241  0.54193675  0.03246956  1
  O  O39  1  0.92304475  0.57234663  0.02779961  1
  O  O40  1  0.34551514  0.14172571  0.03134013  1
  O  O41  1  0.85529725  0.14734761  0.02881724  1
  O  O42  1  0.22677022  0.13714507  0.52953998  1
  O  O43  1  0.71732260  0.14801059  0.52794670  1
  O  O44  1  0.35309422  0.56396960  0.52876257  1
  O  O45  1  0.84501410  0.55090521  0.53051449  1
  O  O46  1  0.42442597  0.28394493  0.52565078  1
  O  O47  1  0.93311065  0.31880252  0.53048582  1
  O  O48  1  0.25743615  0.67763546  0.97133429  1
  O  O49  1  0.77016573  0.69521691  0.96947327  1
  O  O50  1  0.07782895  0.46327795  0.97040316  1
  O  O51  1  0.58051680  0.48462261  0.97224909  1
  O  O52  1  0.14821515  0.84769776  0.96736068  1
  O  O53  1  0.66468206  0.83973391  0.97225018  1
  O  O54  1  0.27181019  0.84736805  0.46767210  1
  O  O55  1  0.75891430  0.83960137  0.47039835  1
  O  O56  1  0.16361001  0.48603486  0.47119290  1
  O  O57  1  0.64877669  0.44675072  0.46655314  1
  O  O58  1  0.07988927  0.67734896  0.47028776  1
  O  O59  1  0.57691761  0.69680237  0.46920325  1
  O  O60  1  0.06392437  0.65814212  0.36693419  1
  O  O61  1  0.56870911  0.65945491  0.36629390  1
  O  O62  1  0.26256660  0.86776901  0.36444910  1
  O  O63  1  0.76664290  0.87190781  0.36712686  1
  O  O64  1  0.17016418  0.47481495  0.36758392  1
  O  O65  1  0.67308345  0.47034894  0.36381184  1
  O  O66  1  0.06976149  0.48055889  0.86723321  1
  O  O67  1  0.56353385  0.47162833  0.86906701  1
  O  O68  1  0.17266097  0.87369091  0.86472641  1
  O  O69  1  0.66991928  0.86549060  0.86840213  1
  O  O70  1  0.26627535  0.66123061  0.86816231  1
  O  O71  1  0.76173214  0.65963498  0.86610808  1
  O  O72  1  0.02051088  0.82925977  0.42203647  1
  O  O73  1  0.52036993  0.84069067  0.40741803  1
  O  O74  1  0.40039573  0.95657726  0.40733777  1
  O  O75  1  0.89555997  0.95918189  0.42319938  1
  O  O76  1  0.08432397  0.21556861  0.42308934  1
  O  O77  1  0.58083579  0.19143540  0.40579309  1
  O  O78  1  0.02160267  0.20327522  0.91025284  1
  O  O79  1  0.52008183  0.21272049  0.92495339  1
  O  O80  1  0.08006246  0.96748430  0.90625705  1
  O  O81  1  0.58330901  0.94882411  0.92585921  1
  O  O82  1  0.39486277  0.83261777  0.92477684  1
  O  O83  1  0.89990612  0.84519246  0.90905773  1
  O  O84  1  0.49850989  0.18115930  0.60120745  1
  O  O85  1  0.00190977  0.20462615  0.58766527  1
  O  O86  1  0.10162396  0.00395071  0.58780036  1
  O  O87  1  0.59202042  0.99681530  0.60341692  1
  O  O88  1  0.40686764  0.81419157  0.60826782  1
  O  O89  1  0.89809254  0.79906308  0.58842842  1
  O  O90  1  0.49843940  0.79104274  0.09120465  1
  O  O91  1  0.00060703  0.81783193  0.10555098  1
  O  O92  1  0.39812377  0.00017569  0.09000360  1
  O  O93  1  0.90683247  0.99900736  0.10614625  1
  O  O94  1  0.09193666  0.18460766  0.10672428  1
  O  O95  1  0.60294635  0.19783811  0.08918165  1
  O  O96  1  0.34460859  0.16920317  0.73332365  1
  O  O97  1  0.85661432  0.18209042  0.74750696  1
  O  O98  1  0.23329172  0.28103828  0.74849586  1
  O  O99  1  0.74023356  0.30121451  0.73159181  1
  O  O100  1  0.41088541  0.51684119  0.73619407  1
  O  O101  1  0.90609544  0.51208577  0.73836117  1
  O  O102  1  0.35325434  0.52524779  0.24480341  1
  O  O103  1  0.84694435  0.52448673  0.23358533  1
  O  O104  1  0.40235458  0.29463455  0.23880299  1
  O  O105  1  0.91124323  0.30065340  0.23553867  1
  O  O106  1  0.23659804  0.16952982  0.23309055  1
  O  O107  1  0.73462572  0.18729813  0.24714263  1
  O  O108  1  0.32122319  0.52233452  0.92525551  1
  O  O109  1  0.82855432  0.53549419  0.92195164  1
  O  O110  1  0.43830562  0.36018511  0.92657890  1
  O  O111  1  0.93962874  0.34704551  0.92083388  1
  O  O112  1  0.23372432  0.12689321  0.92023707  1
  O  O113  1  0.73970933  0.12086738  0.92497918  1
  O  O114  1  0.32954524  0.12512223  0.41995355  1
  O  O115  1  0.82222149  0.12223359  0.42376367  1
  O  O116  1  0.24018084  0.35976669  0.42324992  1
  O  O117  1  0.73469434  0.33974814  0.41926562  1
  O  O118  1  0.43833955  0.53409464  0.41954433  1
  O  O119  1  0.93833883  0.51781032  0.42419802  1
  O  O120  1  0.17824707  0.50676226  0.07225353  1
  O  O121  1  0.68516020  0.50327456  0.07336412  1
  O  O122  1  0.07408781  0.64404292  0.06981524  1
  O  O123  1  0.56919196  0.62809565  0.07470976  1
  O  O124  1  0.24582540  0.86767615  0.07339664  1
  O  O125  1  0.74559444  0.84393690  0.07191413  1
  O  O126  1  0.18342741  0.86342870  0.57152858  1
  O  O127  1  0.68053287  0.85195092  0.57228371  1
  O  O128  1  0.24636630  0.64702051  0.57152450  1
  O  O129  1  0.74628431  0.62756862  0.57131153  1
  O  O130  1  0.07203237  0.50840566  0.57161818  1
  O  O131  1  0.57401739  0.50618271  0.56909896  1
  O  O132  1  0.15812822  0.86475506  0.24771665  1
  O  O133  1  0.66667465  0.88248943  0.26327833  1
  O  O134  1  0.27242619  0.66964047  0.26182876  1
  O  O135  1  0.77589056  0.68769830  0.24678151  1
  O  O136  1  0.06578272  0.45324551  0.24700196  1
  O  O137  1  0.56689932  0.47401126  0.26358329  1
  O  O138  1  0.16494796  0.44952104  0.76398729  1
  O  O139  1  0.65770792  0.46906035  0.74587813  1
  O  O140  1  0.07060891  0.66527189  0.76363770  1
  O  O141  1  0.56543428  0.68016400  0.74810772  1
  O  O142  1  0.27312902  0.86463493  0.74724977  1
  O  O143  1  0.77434125  0.87623744  0.76388296  1
loop_
_geom_bond_atom_site_label_1
_geom_bond_atom_site_label_2
_geom_bond_distance
_geom_bond_site_symmetry_2
Na0 O75 2.484829 1_555
Na0 O72 2.541165 1_655
Na0 O76 2.544221 1_665
Na0 O89 2.753891 1_555
Na0 O86 2.764014 1_665
Na0 O85 2.770304 1_665
Na1 O82 2.409905 1_545
Na1 O79 2.424389 1_555
Na1 O81 2.454412 1_545
Na1 O95 2.850003 1_556
Na1 O92 2.856562 1_556
Na1 O90 2.931799 1_546
Na2 O98 2.622141 1_555
Na2 O112 2.705280 1_555
Na2 O110 2.776837 1_555
Na2 O108 2.795293 1_555
Na2 O100 2.801436 1_555
Na2 O96 2.891577 1_555
Na3 O97 2.622535 1_555
Na3 O101 2.696088 1_555
Na3 O109 2.783573 1_555
Na3 O113 2.799102 1_555
Na3 O99 2.807026 1_555
Na3 O111 2.832021 1_555
Na4 O118 2.614860 1_555
Na4 O102 2.684099 1_555
Na4 O114 2.690776 1_555
Na4 O104 2.725906 1_555
Na4 O116 2.742759 1_555
Na4 O106 3.001358 1_555
Na5 O117 2.608666 1_555
Na5 O107 2.676096 1_555
Na5 O115 2.678217 1_555
Na5 O119 2.704387 1_555
Na5 O105 2.906646 1_555
Na5 O103 2.979144 1_555
Ca0 O3 2.347707 1_555
Ca0 O75 2.355799 1_555
Ca0 O5 2.360477 1_565
Ca0 O72 2.366837 1_655
Ca0 O0 2.367811 1_665
Ca0 O76 2.406644 1_665
Ca1 O7 2.125798 1_555
Ca1 O10 2.365992 1_555
Ca1 O8 2.369198 1_545
Ca1 O79 2.460092 1_555
Ca1 O81 2.495597 1_545
Ca1 O82 2.497415 1_545
Ca2 O16 2.053418 1_655
Ca2 O13 2.240159 1_555
Ca2 O14 2.242728 1_665
Ca2 O89 2.290834 1_555
Ca2 O86 2.294025 1_665
Ca2 O85 2.318888 1_665
Ca3 O21 2.057678 1_555
Ca3 O23 2.238479 1_545
Ca3 O18 2.239129 1_545
Ca3 O95 2.278649 1_555
Ca3 O92 2.282529 1_555
Ca3 O90 2.318288 1_545
Ca4 O36 2.111570 1_556
Ca4 O40 2.223334 1_556
Ca4 O108 2.238274 1_555
Ca4 O38 2.258329 1_556
Ca4 O112 2.263203 1_555
Ca4 O110 2.322605 1_555
Ca5 O39 2.144299 1_556
Ca5 O41 2.150650 1_556
Ca5 O37 2.260857 1_556
Ca5 O111 2.264885 1_555
Ca5 O113 2.352334 1_555
Ca5 O109 2.395415 1_555
Ca6 O46 2.115507 1_555
Ca6 O44 2.128040 1_555
Ca6 O42 2.254912 1_555
Ca6 O118 2.289976 1_555
Ca6 O116 2.349873 1_555
Ca6 O114 2.450342 1_555
Ca7 O43 2.091838 1_555
Ca7 O45 2.216647 1_555
Ca7 O47 2.237672 1_555
Ca7 O115 2.266800 1_555
Ca7 O117 2.298619 1_555
Ca7 O119 2.348343 1_555
Ca8 O60 2.228854 1_555
Ca8 O134 2.249653 1_555
Ca8 O62 2.267837 1_555
Ca8 O64 2.279339 1_555
Ca8 O136 2.312587 1_555
Ca8 O132 2.327269 1_555
Ca9 O137 2.086960 1_555
Ca9 O133 2.234364 1_555
Ca9 O65 2.243870 1_555
Ca9 O61 2.272802 1_555
Ca9 O63 2.273518 1_555
Ca9 O135 2.310909 1_555
Ca10 O140 2.068674 1_555
Ca10 O138 2.229687 1_555
Ca10 O68 2.245923 1_555
Ca10 O142 2.257766 1_555
Ca10 O70 2.267274 1_555
Ca10 O66 2.291167 1_555
Ca11 O139 2.108511 1_555
Ca11 O143 2.255609 1_555
Ca11 O67 2.273360 1_555
Ca11 O141 2.282951 1_555
Ca11 O71 2.308192 1_555
Ca11 O69 2.417926 1_555
O0 S0 1.462721 1_555
O1 S1 1.549205 1_555
O1 Ta0 2.087085 1_555
O2 S2 1.525502 1_555
O2 Ta0 2.191682 1_565
O3 S3 1.464620 1_555
O4 Si0 1.799941 1_555
O4 Ta0 1.845821 1_555
O5 S4 1.461942 1_555
O6 S5 1.571675 1_555
O6 Ta1 2.028199 1_545
O7 Si1 1.592659 1_555
O8 S6 1.463520 1_555
O9 Ta1 1.819863 1_655
O9 Si2 1.847327 1_555
O10 S7 1.468514 1_555
O11 S8 1.549837 1_555
O11 Ta1 2.095638 1_645
O12 S7 1.465485 1_555
O12 Ta2 2.162726 1_555
O13 S8 1.432382 1_565
O14 S5 1.440206 1_555
O15 Si1 1.648803 1_555
O15 Ta2 1.879630 1_555
O16 Si2 1.555302 1_455
O17 S6 1.455901 1_555
O17 Ta2 2.188285 1_565
O18 S2 1.441699 1_555
O19 S3 1.489571 1_555
O19 Ta3 2.088370 1_555
O20 S4 1.479979 1_555
O20 Ta3 2.139798 1_545
O21 Si0 1.557480 1_555
O22 S0 1.481375 1_565
O22 Ta3 2.111819 1_455
O23 S1 1.443825 1_565
O24 Si3 1.714428 1_555
O24 Ta4 1.851756 1_555
O25 S9 1.483287 1_555
O25 Ta5 2.328678 1_555
O26 S10 1.512911 1_555
O26 Ta4 2.177635 1_555
O27 Si4 1.666612 1_555
O27 Ta5 1.945943 1_555
O28 Si5 1.708086 1_555
O28 Ta4 1.877010 1_555
O29 S11 1.502900 1_555
O29 Ta5 2.218880 1_555
O30 S12 1.547900 1_555
O30 Ta6 2.073516 1_555
O31 Si6 1.716675 1_555
O31 Ta7 1.861813 1_555
O32 S13 1.541147 1_555
O32 Ta6 2.120526 1_555
O33 Si7 1.706254 1_555
O33 Ta7 1.876009 1_555
O34 Si8 1.679925 1_555
O34 Ta6 1.937108 1_555
O35 S14 1.540622 1_555
O35 Ta7 2.082204 1_555
O36 Si8 1.553315 1_555
O37 S14 1.436686 1_555
O38 S12 1.439438 1_555
O39 Si6 1.548473 1_555
O40 S13 1.443091 1_555
O41 Si7 1.550324 1_555
O42 S10 1.444143 1_555
O43 Si4 1.559452 1_555
O44 Si5 1.556584 1_555
O45 S11 1.450406 1_555
O46 Si3 1.550930 1_555
O47 S9 1.449701 1_555
O48 S15 1.557006 1_555
O48 Ta8 2.043953 1_556
O49 S16 1.551986 1_555
O49 Ta9 2.069607 1_556
O50 S17 1.573935 1_555
O50 Ta8 2.036031 1_556
O51 S18 1.565419 1_555
O51 Ta9 2.033439 1_556
O52 S19 1.494068 1_555
O52 Ta8 2.333810 1_556
O53 S20 1.604998 1_555
O53 Ta9 1.936806 1_556
O54 S21 1.511138 1_555
O54 Ta10 2.181368 1_555
O55 S22 1.536231 1_555
O55 Ta11 2.083589 1_555
O56 S23 1.556927 1_555
O56 Ta10 2.007439 1_555
O57 S24 1.479048 1_555
O57 Ta11 2.396155 1_555
O58 S25 1.533569 1_555
O58 Ta10 2.107793 1_555
O59 S26 1.532579 1_555
O59 Ta11 2.150088 1_555
O60 S25 1.466117 1_555
O61 S26 1.443826 1_555
O62 S21 1.457298 1_555
O63 S22 1.454605 1_555
O64 S23 1.460439 1_555
O65 S24 1.446670 1_555
O66 S17 1.439141 1_555
O67 S18 1.451385 1_555
O68 S19 1.442770 1_555
O69 S20 1.446496 1_555
O70 S15 1.448819 1_555
O71 S16 1.445452 1_555
O72 S25 1.483294 1_555
O73 S26 1.526020 1_555
O73 Ta0 2.147014 1_565
O74 S21 1.555509 1_555
O74 Ta0 2.041205 1_565
O75 S22 1.486603 1_555
O76 S23 1.479725 1_555
O77 S24 1.580303 1_555
O77 Ta0 1.971629 1_555
O78 S17 1.501476 1_555
O78 Ta1 2.254264 1_545
O79 S18 1.474235 1_555
O80 S19 1.563742 1_555
O80 Ta1 2.015299 1_555
O81 S20 1.471258 1_555
O82 S15 1.474985 1_555
O83 S16 1.535434 1_555
O83 Ta1 2.105484 1_655
O84 Si3 1.621128 1_555
O84 Ta2 1.882649 1_555
O85 S9 1.459221 1_455
O86 S10 1.455536 1_555
O87 Si4 1.635619 1_565
O87 Ta2 1.887220 1_565
O88 Si5 1.606223 1_555
O88 Ta2 1.950051 1_565
O89 S11 1.459598 1_555
O90 S12 1.457256 1_555
O91 Si6 1.648092 1_455
O91 Ta3 1.864921 1_455
O92 S13 1.460182 1_555
O93 Si7 1.647547 1_565
O93 Ta3 1.873164 1_555
O94 Si8 1.653404 1_555
O94 Ta3 1.869935 1_445
O95 S14 1.456284 1_555
O96 S7 1.547118 1_555
O96 Ta4 2.045462 1_555
O97 S8 1.534627 1_555
O97 Ta5 2.146998 1_555
O98 S5 1.515901 1_555
O98 Ta4 2.335176 1_555
O99 Si1 1.731507 1_555
O99 Ta5 1.812742 1_555
O100 S6 1.585214 1_555
O100 Ta4 1.994594 1_555
O101 Si2 1.679986 1_555
O101 Ta5 1.921924 1_555
O102 S2 1.552471 1_555
O102 Ta6 2.134557 1_555
O103 S3 1.530665 1_555
O103 Ta7 2.087938 1_555
O104 Si0 1.720098 1_555
O104 Ta6 1.908995 1_555
O105 S4 1.551521 1_555
O105 Ta7 2.051133 1_555
O106 S0 1.533163 1_555
O106 Ta6 2.035012 1_555
O107 S1 1.532175 1_555
O107 Ta7 2.270785 1_555
O108 S15 1.468133 1_555
O109 S16 1.449437 1_555
O110 S18 1.466896 1_555
O111 S17 1.458417 1_655
O112 S19 1.464828 1_545
O113 S20 1.459306 1_545
O114 S21 1.455182 1_545
O115 S22 1.468587 1_545
O116 S23 1.460699 1_555
O117 S24 1.462910 1_555
O118 S26 1.464826 1_555
O119 S25 1.467969 1_655
O120 Si8 1.694021 1_555
O120 Ta8 1.861880 1_555
O121 S14 1.518612 1_555
O121 Ta9 2.087588 1_555
O122 Si6 1.661628 1_455
O122 Ta8 1.885392 1_555
O123 S12 1.518703 1_555
O123 Ta9 2.112528 1_555
O124 S13 1.517673 1_565
O124 Ta8 2.135678 1_555
O125 Si7 1.676317 1_565
O125 Ta9 1.877049 1_555
O126 S10 1.539337 1_565
O126 Ta10 2.017786 1_555
O127 Si4 1.710700 1_565
O127 Ta11 1.834437 1_555
O128 Si5 1.708060 1_555
O128 Ta10 1.842447 1_555
O129 S11 1.542058 1_555
O129 Ta11 2.036508 1_555
O130 S9 1.562405 1_455
O130 Ta10 1.978196 1_555
O131 Si3 1.673434 1_555
O131 Ta11 1.861952 1_555
O132 S0 1.451902 1_565
O133 S1 1.440852 1_565
O134 S2 1.450154 1_555
O135 S3 1.445958 1_555
O136 S4 1.453049 1_455
O137 Si0 1.555457 1_555
O138 S5 1.438910 1_555
O139 Si1 1.581353 1_555
O140 Si2 1.553344 1_455
O141 S6 1.450226 1_555
O142 S7 1.450745 1_565
O143 S8 1.447737 1_565
