# generated using pymatgen
data_La3(GePd)4
_symmetry_space_group_name_H-M   'P 1'
_cell_length_a   4.25056904
_cell_length_b   4.39939681
_cell_length_c   12.93759244
_cell_angle_alpha   99.78919694
_cell_angle_beta   99.45494771
_cell_angle_gamma   90.00000060
_symmetry_Int_Tables_number   1
_chemical_formula_structural   La3(GePd)4
_chemical_formula_sum   'La3 Ge4 Pd4'
_cell_volume   235.07378641
_cell_formula_units_Z   1
loop_
 _symmetry_equiv_pos_site_id
 _symmetry_equiv_pos_as_xyz
  1  'x, y, z'
loop_
 _atom_site_type_symbol
 _atom_site_label
 _atom_site_symmetry_multiplicity
 _atom_site_fract_x
 _atom_site_fract_y
 _atom_site_fract_z
 _atom_site_occupancy
  La  La0  1  0.85147169  0.35147169  0.70294538  1
  La  La1  1  0.14852831  0.64852831  0.29705462  1
  La  La2  1  0.00000000  0.00000000  -0.00000000  1
  Ge  Ge0  1  0.45005639  0.45005639  0.90011177  1
  Ge  Ge1  1  0.54994361  0.54994361  0.09988823  1
  Ge  Ge2  1  0.69715009  0.19715009  0.39430117  1
  Ge  Ge3  1  0.30284991  0.80284991  0.60569883  1
  Pd  Pd0  1  0.40270185  0.90270185  0.80540370  1
  Pd  Pd1  1  0.75049544  0.75049544  0.50099088  1
  Pd  Pd2  1  0.24950456  0.24950456  0.49900912  1
  Pd  Pd3  1  0.59729815  0.09729815  0.19459630  1
loop_
_geom_bond_atom_site_label_1
_geom_bond_atom_site_label_2
_geom_bond_distance
_geom_bond_site_symmetry_2
La0 Pd0 3.318792 1_545
La0 Pd0 3.318797 1_645
La0 Pd0 3.318798 1_555
La0 Pd0 3.318803 1_655
La0 Pd2 3.330031 1_555
La0 Pd2 3.330037 1_655
La0 Pd1 3.359142 1_545
La0 Pd1 3.359147 1_555
La1 Pd3 3.318792 1_565
La1 Pd3 3.318797 1_465
La1 Pd3 3.318798 1_555
La1 Pd3 3.318803 1_455
La1 Pd1 3.330031 1_555
La1 Pd1 3.330037 1_455
La1 Pd2 3.359142 1_565
La1 Pd2 3.359147 1_555
La2 Pd3 3.240511 1_555
La2 Pd0 3.240511 1_444
La2 Pd3 3.240511 1_455
La2 Pd0 3.240511 1_544
Ge0 Pd0 2.501218 1_555
Ge0 Pd0 2.501223 1_545
Ge0 Ge1 2.511356 1_556
Ge0 La0 3.264965 1_555
Ge0 La0 3.264973 1_455
Ge0 La2 3.306390 1_666
Ge0 La2 3.306393 1_566
Ge0 La2 3.306393 1_656
Ge0 La2 3.306396 1_556
Ge1 Pd3 2.501218 1_555
Ge1 Pd3 2.501223 1_565
Ge1 La1 3.264965 1_555
Ge1 La1 3.264973 1_655
Ge1 La2 3.306390 1_555
Ge1 La2 3.306393 1_655
Ge1 La2 3.306393 1_565
Ge1 La2 3.306396 1_665
Ge2 Pd2 2.499876 1_555
Ge2 Pd2 2.499880 1_655
Ge2 Pd3 2.510456 1_555
Ge2 Pd1 2.576320 1_545
Ge2 Pd1 2.576323 1_555
Ge2 La1 3.293916 1_545
Ge2 La1 3.293925 1_645
Ge2 La1 3.293925 1_555
Ge2 La1 3.293933 1_655
Ge3 Pd1 2.499876 1_555
Ge3 Pd1 2.499880 1_455
Ge3 Pd0 2.510456 1_555
Ge3 Pd2 2.576320 1_565
Ge3 Pd2 2.576323 1_555
Ge3 La0 3.293916 1_565
Ge3 La0 3.293925 1_465
Ge3 La0 3.293925 1_555
Ge3 La0 3.293933 1_455
