# generated using pymatgen
data_Na6Mg2Nb4Si3(PO6)6
_symmetry_space_group_name_H-M   'P 1'
_cell_length_a   8.93657285
_cell_length_b   8.93657255
_cell_length_c   22.54327097
_cell_angle_alpha   90.13839178
_cell_angle_beta   89.86160823
_cell_angle_gamma   120.19891261
_symmetry_Int_Tables_number   1
_chemical_formula_structural   Na6Mg2Nb4Si3(PO6)6
_chemical_formula_sum   'Na12 Mg4 Nb8 Si6 P12 O72'
_cell_volume   1556.01535925
_cell_formula_units_Z   2
loop_
 _symmetry_equiv_pos_site_id
 _symmetry_equiv_pos_as_xyz
  1  'x, y, z'
loop_
 _atom_site_type_symbol
 _atom_site_label
 _atom_site_symmetry_multiplicity
 _atom_site_fract_x
 _atom_site_fract_y
 _atom_site_fract_z
 _atom_site_occupancy
  Na  Na0  1  0.36599681  0.35699192  0.24456945  1
  Na  Na1  1  0.98624393  0.62903410  0.24233417  1
  Na  Na2  1  0.64300808  0.63400319  0.74456945  1
  Na  Na3  1  0.37096590  0.01375607  0.74233417  1
  Na  Na4  1  0.71082092  0.03349793  0.91292136  1
  Na  Na5  1  0.96650207  0.28917908  0.41292136  1
  Na  Na6  1  0.00510502  0.99154562  0.49309189  1
  Na  Na7  1  0.00845438  0.99489498  0.99309189  1
  Na  Na8  1  0.68043430  0.34490057  0.82853864  1
  Na  Na9  1  0.65509943  0.31956570  0.32853864  1
  Na  Na10  1  0.34351585  0.68648846  0.16291060  1
  Na  Na11  1  0.31351154  0.65648415  0.66291060  1
  Mg  Mg0  1  0.00364205  0.99791943  0.35436602  1
  Mg  Mg1  1  0.00208057  0.99635795  0.85436602  1
  Mg  Mg2  1  0.67423408  0.33182132  0.68409462  1
  Mg  Mg3  1  0.66817868  0.32576592  0.18409462  1
  Nb  Nb0  1  0.00304911  0.00541847  0.64321630  1
  Nb  Nb1  1  0.99458153  0.99695089  0.14321630  1
  Nb  Nb2  1  0.66984920  0.34179520  0.98232483  1
  Nb  Nb3  1  0.65820480  0.33015080  0.48232483  1
  Nb  Nb4  1  0.33751094  0.66922540  0.02216733  1
  Nb  Nb5  1  0.33077460  0.66248906  0.52216733  1
  Nb  Nb6  1  0.34046513  0.67083931  0.31279505  1
  Nb  Nb7  1  0.32916069  0.65953487  0.81279505  1
  Si  Si0  1  0.95053769  0.33294939  0.58482667  1
  Si  Si1  1  0.37798347  0.04175627  0.58857382  1
  Si  Si2  1  0.95824373  0.62201653  0.08857382  1
  Si  Si3  1  0.66705061  0.04946231  0.08482667  1
  Si  Si4  1  0.62842384  0.66402925  0.91608035  1
  Si  Si5  1  0.33597075  0.37157616  0.41608035  1
  P  P0  1  0.29018405  0.00411038  0.25169437  1
  P  P1  1  0.71327468  0.71330616  0.25203611  1
  P  P2  1  0.99432021  0.28629893  0.25384335  1
  P  P3  1  0.28669384  0.28672532  0.75203611  1
  P  P4  1  0.99588962  0.70981595  0.75169437  1
  P  P5  1  0.71370107  0.00567979  0.75384335  1
  P  P6  1  0.66571375  0.62163473  0.58652366  1
  P  P7  1  0.37836527  0.33428625  0.08652366  1
  P  P8  1  0.04257887  0.37542424  0.91777200  1
  P  P9  1  0.33028736  0.95639035  0.91662712  1
  P  P10  1  0.62457576  0.95742113  0.41777200  1
  P  P11  1  0.04360965  0.66971264  0.41662712  1
  O  O0  1  0.20347908  0.02577077  0.30590900  1
  O  O1  1  0.82388638  0.79853661  0.30547530  1
  O  O2  1  0.98250482  0.19080345  0.31058709  1
  O  O3  1  0.20146339  0.17611362  0.80547530  1
  O  O4  1  0.97422923  0.79652092  0.80590900  1
  O  O5  1  0.80919655  0.01749518  0.81058709  1
  O  O6  1  0.79923357  0.97006445  0.69846550  1
  O  O7  1  0.17505485  0.20107055  0.69444386  1
  O  O8  1  0.03081946  0.82951256  0.69566561  1
  O  O9  1  0.79892945  0.82494515  0.19444386  1
  O  O10  1  0.02993555  0.20076643  0.19846550  1
  O  O11  1  0.17048744  0.96918054  0.19566561  1
  O  O12  1  0.87621679  0.37358543  0.64144999  1
  O  O13  1  0.48039936  0.11703090  0.64823059  1
  O  O14  1  0.63114806  0.51881067  0.64294796  1
  O  O15  1  0.88296910  0.51960064  0.14823059  1
  O  O16  1  0.62641457  0.12378321  0.14144999  1
  O  O17  1  0.48118933  0.36885194  0.14294796  1
  O  O18  1  0.46876534  0.30672381  0.03084253  1
  O  O19  1  0.83153236  0.52679098  0.02927640  1
  O  O20  1  0.69452916  0.16151420  0.02273401  1
  O  O21  1  0.47320902  0.16846764  0.52927640  1
  O  O22  1  0.69327619  0.53123466  0.53084253  1
  O  O23  1  0.83848580  0.30547084  0.52273401  1
  O  O24  1  0.51552924  0.67969331  0.97080506  1
  O  O25  1  0.15240629  0.47178486  0.97187350  1
  O  O26  1  0.31510975  0.84149270  0.97066096  1
  O  O27  1  0.52821514  0.84759371  0.47187350  1
  O  O28  1  0.32030669  0.48447076  0.47080506  1
  O  O29  1  0.15850730  0.68489025  0.47066096  1
  O  O30  1  0.13476412  0.64070068  0.36028505  1
  O  O31  1  0.50677215  0.86722034  0.36142570  1
  O  O32  1  0.36167934  0.49814642  0.35649214  1
  O  O33  1  0.13277966  0.49322785  0.86142570  1
  O  O34  1  0.35929932  0.86523588  0.86028505  1
  O  O35  1  0.50185358  0.63832066  0.85649214  1
  O  O36  1  0.02337704  0.82512861  0.41206692  1
  O  O37  1  0.80276180  0.97946273  0.41195894  1
  O  O38  1  0.16098393  0.19055139  0.41364338  1
  O  O39  1  0.02053727  0.19723820  0.91195894  1
  O  O40  1  0.17487139  0.97662296  0.91206692  1
  O  O41  1  0.80944861  0.83901607  0.91364338  1
  O  O42  1  0.96978874  0.15729312  0.59140367  1
  O  O43  1  0.18231168  0.02050465  0.59065817  1
  O  O44  1  0.83006034  0.80441126  0.59000789  1
  O  O45  1  0.97949535  0.81768832  0.09065817  1
  O  O46  1  0.84270688  0.03021126  0.09140367  1
  O  O47  1  0.19558874  0.16993966  0.09000789  1
  O  O48  1  0.67693111  0.15397322  0.74764926  1
  O  O49  1  0.47297699  0.32289030  0.74504343  1
  O  O50  1  0.83753365  0.53004732  0.74407736  1
  O  O51  1  0.67710970  0.52702301  0.24504343  1
  O  O52  1  0.84602678  0.32306889  0.24764926  1
  O  O53  1  0.46995268  0.16246635  0.24407736  1
  O  O54  1  0.63459299  0.48390744  0.92209805  1
  O  O55  1  0.86101341  0.36178977  0.92135900  1
  O  O56  1  0.50585359  0.13084384  0.92119742  1
  O  O57  1  0.63821023  0.13898659  0.42135900  1
  O  O58  1  0.51609256  0.36540701  0.42209805  1
  O  O59  1  0.86915616  0.49414641  0.42119742  1
  O  O60  1  0.35074024  0.48966603  0.07365442  1
  O  O61  1  0.14932360  0.64828567  0.07338225  1
  O  O62  1  0.50581970  0.84946241  0.07239801  1
  O  O63  1  0.35171433  0.85067640  0.57338225  1
  O  O64  1  0.51033397  0.64925976  0.57365442  1
  O  O65  1  0.15053759  0.49418030  0.57239801  1
  O  O66  1  0.29975955  0.83048935  0.25617360  1
  O  O67  1  0.52769117  0.69928776  0.25515294  1
  O  O68  1  0.17068293  0.47561283  0.25586435  1
  O  O69  1  0.30071224  0.47230883  0.75515294  1
  O  O70  1  0.16951065  0.70024045  0.75617360  1
  O  O71  1  0.52438717  0.82931707  0.75586435  1
loop_
_geom_bond_atom_site_label_1
_geom_bond_atom_site_label_2
_geom_bond_distance
_geom_bond_site_symmetry_2
Na0 O53 2.347281 1_555
Na0 O51 2.406037 1_555
Na0 O68 2.468412 1_555
Na0 O17 2.489800 1_555
Na0 O67 2.655850 1_555
Na0 O10 2.799785 1_555
Na0 O32 2.826992 1_555
Na0 O0 2.910026 1_555
Na1 O15 2.323784 1_555
Na1 O52 2.369570 1_555
Na1 O51 2.435697 1_555
Na1 O66 2.472948 1_655
Na1 O68 2.639594 1_655
Na1 O11 2.833711 1_655
Na1 O1 2.935373 1_555
Na1 O30 2.952840 1_655
Na2 O50 2.347281 1_555
Na2 O49 2.406037 1_555
Na2 O71 2.468412 1_555
Na2 O14 2.489800 1_555
Na2 O69 2.655850 1_555
Na2 O6 2.799785 1_555
Na2 O35 2.826992 1_555
Na2 O4 2.910026 1_555
Na3 O13 2.323784 1_555
Na3 O48 2.369570 1_555
Na3 O49 2.435696 1_555
Na3 O70 2.472948 1_545
Na3 O71 2.639594 1_545
Na3 O8 2.833711 1_545
Na3 O3 2.935373 1_555
Na3 O34 2.952840 1_545
Na4 O41 2.310636 1_545
Na4 O39 2.393294 1_655
Na4 O56 2.397364 1_555
Na4 O5 2.496086 1_555
Na4 O55 2.545980 1_555
Na4 O20 2.758698 1_556
Na5 O38 2.310636 1_655
Na5 O37 2.393294 1_545
Na5 O59 2.397364 1_555
Na5 O2 2.496086 1_555
Na5 O57 2.545981 1_555
Na5 O23 2.758698 1_555
Na6 O36 2.409255 1_555
Na6 O38 2.412917 1_565
Na6 O37 2.538757 1_455
Na6 O43 2.648443 1_565
Na6 O44 2.717813 1_455
Na6 O42 2.767039 1_465
Na7 O40 2.409255 1_555
Na7 O41 2.412917 1_455
Na7 O39 2.538757 1_565
Na7 O45 2.648443 1_456
Na7 O47 2.717813 1_566
Na7 O46 2.767039 1_466
Na8 O50 2.449373 1_555
Na8 O48 2.483732 1_555
Na8 O54 2.579647 1_555
Na8 O49 2.582043 1_555
Na8 O55 2.602922 1_555
Na8 O56 2.730893 1_555
Na9 O53 2.449373 1_555
Na9 O52 2.483732 1_555
Na9 O58 2.579647 1_555
Na9 O51 2.582042 1_555
Na9 O57 2.602922 1_555
Na9 O59 2.730893 1_555
Na10 O62 2.502659 1_555
Na10 O61 2.572772 1_555
Na10 O66 2.591997 1_555
Na10 O67 2.621476 1_555
Na10 O60 2.691306 1_555
Na10 O68 2.720894 1_555
Na11 O65 2.502659 1_555
Na11 O63 2.572772 1_555
Na11 O70 2.591997 1_555
Na11 O69 2.621476 1_555
Na11 O64 2.691306 1_555
Na11 O71 2.720894 1_555
Mg0 O0 1.997313 1_565
Mg0 O1 2.022293 1_455
Mg0 O38 2.071026 1_565
Mg0 O2 2.077880 1_465
Mg0 O36 2.095782 1_555
Mg0 O37 2.151150 1_455
Mg1 O4 1.997313 1_455
Mg1 O3 2.022293 1_565
Mg1 O41 2.071026 1_455
Mg1 O5 2.077880 1_465
Mg1 O40 2.095782 1_555
Mg1 O39 2.151150 1_565
Mg2 O12 1.907158 1_555
Mg2 O13 1.998250 1_555
Mg2 O14 2.111291 1_555
Mg2 O50 2.119782 1_555
Mg2 O48 2.151520 1_555
Mg2 O49 2.230060 1_555
Mg3 O16 1.907158 1_555
Mg3 O15 1.998250 1_555
Mg3 O17 2.111291 1_555
Mg3 O53 2.119783 1_555
Mg3 O52 2.151520 1_555
Mg3 O51 2.230060 1_555
Nb0 O42 1.926112 1_455
Nb0 O43 1.939771 1_555
Nb0 O7 2.012115 1_555
Nb0 O44 2.064053 1_445
Nb0 O8 2.081741 1_545
Nb0 O6 2.093000 1_445
Nb1 O46 1.926112 1_565
Nb1 O45 1.939771 1_555
Nb1 O9 2.012115 1_555
Nb1 O47 2.064053 1_665
Nb1 O11 2.081741 1_655
Nb1 O10 2.093000 1_665
Nb2 O19 1.880698 1_556
Nb2 O20 1.959499 1_556
Nb2 O18 1.987282 1_556
Nb2 O54 1.992102 1_555
Nb2 O55 2.126510 1_555
Nb2 O56 2.195098 1_555
Nb3 O21 1.880698 1_555
Nb3 O23 1.959499 1_555
Nb3 O22 1.987282 1_555
Nb3 O58 1.992102 1_555
Nb3 O57 2.126510 1_555
Nb3 O59 2.195098 1_555
Nb4 O62 1.923834 1_555
Nb4 O24 1.929303 1_554
Nb4 O61 1.967577 1_555
Nb4 O26 2.019424 1_554
Nb4 O60 2.033855 1_555
Nb4 O25 2.048959 1_554
Nb5 O65 1.923834 1_555
Nb5 O28 1.929303 1_555
Nb5 O63 1.967577 1_555
Nb5 O29 2.019424 1_555
Nb5 O64 2.033855 1_555
Nb5 O27 2.048959 1_555
Nb6 O32 1.921098 1_555
Nb6 O31 1.966028 1_555
Nb6 O30 2.022793 1_555
Nb6 O67 2.028746 1_555
Nb6 O68 2.080537 1_555
Nb6 O66 2.080938 1_555
Nb7 O35 1.921098 1_555
Nb7 O33 1.966028 1_555
Nb7 O34 2.022793 1_555
Nb7 O69 2.028746 1_555
Nb7 O71 2.080537 1_555
Nb7 O70 2.080939 1_555
O0 P0 1.508886 1_555
O1 P1 1.500811 1_555
O2 P2 1.513189 1_555
O3 P3 1.500811 1_555
O4 P4 1.508886 1_555
O5 P5 1.513189 1_555
O6 P5 1.575522 1_565
O7 P3 1.581169 1_555
O8 P4 1.582944 1_455
O9 P1 1.581169 1_555
O10 P2 1.575522 1_455
O11 P0 1.582944 1_565
O12 Si0 1.561633 1_555
O13 Si1 1.575131 1_555
O14 P6 1.508621 1_555
O15 Si2 1.575131 1_555
O16 Si3 1.561633 1_555
O17 P7 1.508621 1_555
O18 P7 1.575667 1_555
O19 Si2 1.680998 1_555
O20 Si3 1.667369 1_555
O21 Si1 1.680998 1_555
O22 P6 1.575667 1_555
O23 Si0 1.667369 1_555
O24 Si4 1.641535 1_555
O25 P8 1.530616 1_555
O26 P9 1.556149 1_555
O27 P10 1.530616 1_555
O28 Si5 1.641535 1_555
O29 P11 1.556150 1_555
O30 P11 1.596850 1_555
O31 P10 1.587250 1_555
O32 Si5 1.697378 1_555
O33 P8 1.587250 1_555
O34 P9 1.596850 1_555
O35 Si4 1.697378 1_555
O36 P11 1.491871 1_555
O37 P10 1.508375 1_555
O38 Si5 1.587613 1_555
O39 P8 1.508375 1_555
O40 P9 1.491871 1_555
O41 Si4 1.587613 1_555
O42 Si0 1.669932 1_555
O43 Si1 1.661793 1_555
O44 P6 1.554922 1_555
O45 Si2 1.661793 1_555
O46 Si3 1.669932 1_555
O47 P7 1.554922 1_555
O48 P5 1.524114 1_555
O49 P3 1.535695 1_555
O50 P4 1.525045 1_555
O51 P1 1.535694 1_555
O52 P2 1.524114 1_555
O53 P0 1.525045 1_555
O54 Si4 1.644035 1_555
O55 P8 1.566733 1_655
O56 P9 1.562709 1_545
O57 P10 1.566733 1_545
O58 Si5 1.644035 1_555
O59 P11 1.562709 1_655
O60 P7 1.555754 1_555
O61 Si2 1.637857 1_455
O62 Si3 1.660679 1_565
O63 Si1 1.637857 1_565
O64 P6 1.555754 1_555
O65 Si0 1.660679 1_455
O66 P0 1.599774 1_565
O67 P1 1.600516 1_555
O68 P2 1.632748 1_455
O69 P3 1.600516 1_555
O70 P4 1.599774 1_455
O71 P5 1.632748 1_565
