# generated using pymatgen
data_Sr2MgTiMoO6
_symmetry_space_group_name_H-M   'P 1'
_cell_length_a   5.83684973
_cell_length_b   6.05799136
_cell_length_c   5.97887432
_cell_angle_alpha   94.47812496
_cell_angle_beta   119.13323618
_cell_angle_gamma   118.40288467
_symmetry_Int_Tables_number   1
_chemical_formula_structural   Sr2MgTiMoO6
_chemical_formula_sum   'Sr2 Mg1 Ti1 Mo1 O6'
_cell_volume   148.66020491
_cell_formula_units_Z   1
loop_
 _symmetry_equiv_pos_site_id
 _symmetry_equiv_pos_as_xyz
  1  'x, y, z'
loop_
 _atom_site_type_symbol
 _atom_site_label
 _atom_site_symmetry_multiplicity
 _atom_site_fract_x
 _atom_site_fract_y
 _atom_site_fract_z
 _atom_site_occupancy
  Sr  Sr0  1  0.53445800  0.69389900  0.32612100  1
  Sr  Sr1  1  0.46554200  0.30610100  0.67387900  1
  Mg  Mg0  1  0.50000000  0.00000000  0.00000000  1
  Ti  Ti0  1  0.00000000  0.50000000  0.50000000  1
  Mo  Mo0  1  0.00000000  0.00000000  0.00000000  1
  O  O0  1  0.00065400  0.79259800  0.30606300  1
  O  O1  1  0.99934700  0.20740200  0.69393700  1
  O  O2  1  0.97130300  0.28593900  0.19836300  1
  O  O3  1  0.02869700  0.71406100  0.80163700  1
  O  O4  1  0.51353400  0.25660400  0.25359300  1
  O  O5  1  0.48646600  0.74339600  0.74640700  1
loop_
_geom_bond_atom_site_label_1
_geom_bond_atom_site_label_2
_geom_bond_distance
_geom_bond_site_symmetry_2
Mg0 O2 1.985927 1_555
Mg0 O3 1.985927 1_544
Mg0 O5 2.029801 1_544
Mg0 O4 2.029801 1_555
Mo0 O4 2.115177 1_555
Mo0 O5 2.115177 1_444
Mo0 O2 2.140990 1_455
Mo0 O3 2.140990 1_544
Mo0 O0 2.298701 1_545
Mo0 O1 2.298702 1_454
O0 Ti0 2.192098 1_555
O0 Sr0 2.560755 1_455
O0 Sr1 2.639572 1_565
O1 Ti0 2.192099 1_655
O1 Sr1 2.560750 1_655
O1 Sr0 2.639573 1_545
O2 Ti0 2.023896 1_655
O2 Sr0 2.651074 1_655
O2 Sr1 2.836316 1_655
O2 Sr1 3.154717 1_554
O3 Ti0 2.023896 1_555
O3 Sr1 2.651074 1_455
O3 Sr0 2.836316 1_455
O3 Sr0 3.154717 1_556
O4 Ti0 2.002910 1_655
O4 Sr0 2.584975 1_555
O4 Sr1 2.670272 1_555
O5 Ti0 2.002910 1_555
O5 Sr1 2.584975 1_555
O5 Sr0 2.670272 1_555
