# generated using pymatgen
data_Yb2InGe2
_symmetry_space_group_name_H-M   'P 1'
_cell_length_a   4.41997900
_cell_length_b   7.33721000
_cell_length_c   7.33721000
_cell_angle_alpha   90.00000000
_cell_angle_beta   90.00000000
_cell_angle_gamma   90.00000000
_symmetry_Int_Tables_number   1
_chemical_formula_structural   Yb2InGe2
_chemical_formula_sum   'Yb4 In2 Ge4'
_cell_volume   237.94802505
_cell_formula_units_Z   2
loop_
 _symmetry_equiv_pos_site_id
 _symmetry_equiv_pos_as_xyz
  1  'x, y, z'
loop_
 _atom_site_type_symbol
 _atom_site_label
 _atom_site_symmetry_multiplicity
 _atom_site_fract_x
 _atom_site_fract_y
 _atom_site_fract_z
 _atom_site_occupancy
  Yb  Yb0  1  0.50000000  0.32607500  0.82607500  1
  Yb  Yb1  1  0.50000000  0.82607500  0.67392500  1
  Yb  Yb2  1  0.50000000  0.17392500  0.32607500  1
  Yb  Yb3  1  0.50000000  0.67392500  0.17392500  1
  In  In0  1  0.00000000  0.00000000  0.00000000  1
  In  In1  1  0.00000000  0.50000000  0.50000000  1
  Ge  Ge0  1  0.00000000  0.12223300  0.62223300  1
  Ge  Ge1  1  0.00000000  0.62223300  0.87776700  1
  Ge  Ge2  1  0.00000000  0.37776700  0.12223300  1
  Ge  Ge3  1  0.00000000  0.87776700  0.37776700  1
loop_
_geom_bond_atom_site_label_1
_geom_bond_atom_site_label_2
_geom_bond_distance
_geom_bond_site_symmetry_2
In0 Yb0 3.498072 1_454
In0 Yb3 3.498072 1_545
In0 Yb0 3.498072 1_554
In0 Yb3 3.498072 1_445
In0 Yb2 3.498072 1_455
In0 Yb2 3.498072 1_555
In0 Yb1 3.498072 1_444
In0 Yb1 3.498072 1_544
In1 Yb3 3.498072 1_555
In1 Yb1 3.498072 1_455
In1 Yb2 3.498072 1_455
In1 Yb1 3.498072 1_555
In1 Yb3 3.498072 1_455
In1 Yb2 3.498072 1_555
In1 Yb0 3.498072 1_455
In1 Yb0 3.498072 1_555
Ge0 Ge3 2.536673 1_545
Ge0 In0 2.913240 1_556
Ge0 In1 2.913240 1_555
Ge0 Yb0 3.059065 1_455
Ge0 Yb0 3.059065 1_555
Ge0 Yb1 3.122454 1_545
Ge0 Yb2 3.122454 1_455
Ge0 Yb2 3.122454 1_555
Ge0 Yb1 3.122454 1_445
Ge1 Ge2 2.536673 1_556
Ge1 In1 2.913240 1_555
Ge1 In0 2.913240 1_566
Ge1 Yb1 3.059065 1_455
Ge1 Yb1 3.059065 1_555
Ge1 Yb0 3.122454 1_555
Ge1 Yb0 3.122454 1_455
Ge1 Yb3 3.122454 1_556
Ge1 Yb3 3.122454 1_456
Ge2 In0 2.913240 1_555
Ge2 In1 2.913240 1_555
Ge2 Yb2 3.059065 1_455
Ge2 Yb2 3.059065 1_555
Ge2 Yb3 3.122454 1_555
Ge2 Yb0 3.122454 1_554
Ge2 Yb3 3.122454 1_455
Ge2 Yb0 3.122454 1_454
Ge3 In1 2.913240 1_555
Ge3 In0 2.913240 1_565
Ge3 Yb3 3.059065 1_555
Ge3 Yb3 3.059065 1_455
Ge3 Yb1 3.122454 1_455
Ge3 Yb1 3.122454 1_555
Ge3 Yb2 3.122454 1_465
Ge3 Yb2 3.122454 1_565
