# generated using pymatgen
data_Tb7O12
_symmetry_space_group_name_H-M   'P 1'
_cell_length_a   6.64329361
_cell_length_b   6.64329361
_cell_length_c   6.64329387
_cell_angle_alpha   99.50261582
_cell_angle_beta   99.50261582
_cell_angle_gamma   99.50260589
_symmetry_Int_Tables_number   1
_chemical_formula_structural   Tb7O12
_chemical_formula_sum   'Tb7 O12'
_cell_volume   279.56846265
_cell_formula_units_Z   1
loop_
 _symmetry_equiv_pos_site_id
 _symmetry_equiv_pos_as_xyz
  1  'x, y, z'
loop_
 _atom_site_type_symbol
 _atom_site_label
 _atom_site_symmetry_multiplicity
 _atom_site_fract_x
 _atom_site_fract_y
 _atom_site_fract_z
 _atom_site_occupancy
  Tb  Tb0  1  0.69778000  0.39152700  0.86168500  1
  Tb  Tb1  1  0.86168500  0.69778000  0.39152700  1
  Tb  Tb2  1  0.39152700  0.86168500  0.69778000  1
  Tb  Tb3  1  0.30222000  0.60847300  0.13831500  1
  Tb  Tb4  1  0.13831500  0.30222000  0.60847300  1
  Tb  Tb5  1  0.60847300  0.13831500  0.30222000  1
  Tb  Tb6  1  0.00000000  0.00000000  0.00000000  1
  O  O0  1  0.43595100  0.17940600  0.57903800  1
  O  O1  1  0.57903800  0.43595100  0.17940600  1
  O  O2  1  0.17940600  0.57903800  0.43595100  1
  O  O3  1  0.56404900  0.82059400  0.42096200  1
  O  O4  1  0.42096200  0.56404900  0.82059400  1
  O  O5  1  0.82059400  0.42096200  0.56404900  1
  O  O6  1  0.06300600  0.32620400  0.93577800  1
  O  O7  1  0.67379600  0.06422200  0.93699400  1
  O  O8  1  0.06422200  0.93699400  0.67379600  1
  O  O9  1  0.93699400  0.67379600  0.06422200  1
  O  O10  1  0.32620400  0.93577800  0.06300600  1
  O  O11  1  0.93577800  0.06300600  0.32620400  1
loop_
_geom_bond_atom_site_label_1
_geom_bond_atom_site_label_2
_geom_bond_distance
_geom_bond_site_symmetry_2
O0 Tb4 2.284999 1_555
O0 Tb5 2.324528 1_555
O0 Tb2 2.363351 1_545
O0 Tb0 2.403266 1_555
O1 Tb5 2.284999 1_555
O1 Tb3 2.324528 1_555
O1 Tb0 2.363351 1_554
O1 Tb1 2.403266 1_555
O2 Tb3 2.284999 1_555
O2 Tb4 2.324528 1_555
O2 Tb1 2.363351 1_455
O2 Tb2 2.403266 1_555
O3 Tb1 2.284999 1_555
O3 Tb2 2.324528 1_555
O3 Tb5 2.363351 1_565
O3 Tb3 2.403266 1_555
O4 Tb2 2.284999 1_555
O4 Tb0 2.324528 1_555
O4 Tb3 2.363351 1_556
O4 Tb4 2.403266 1_555
O5 Tb0 2.284999 1_555
O5 Tb1 2.324528 1_555
O5 Tb4 2.363351 1_655
O5 Tb5 2.403266 1_555
O6 Tb6 2.262335 1_556
O6 Tb4 2.296682 1_555
O6 Tb3 2.308498 1_556
O6 Tb0 2.518215 1_455
O7 Tb6 2.262334 1_656
O7 Tb0 2.296682 1_555
O7 Tb2 2.308498 1_545
O7 Tb5 2.518215 1_556
O8 Tb6 2.262335 1_566
O8 Tb2 2.296682 1_555
O8 Tb1 2.308498 1_455
O8 Tb4 2.518215 1_565
O9 Tb6 2.262335 1_665
O9 Tb1 2.296682 1_555
O9 Tb0 2.308498 1_554
O9 Tb3 2.518215 1_655
O10 Tb6 2.262334 1_565
O10 Tb3 2.296682 1_555
O10 Tb5 2.308498 1_565
O10 Tb2 2.518215 1_554
O11 Tb6 2.262335 1_655
O11 Tb5 2.296682 1_555
O11 Tb4 2.308498 1_655
O11 Tb1 2.518215 1_545
