# generated using pymatgen
data_Mo9Se11
_symmetry_space_group_name_H-M   'P 1'
_cell_length_a   9.02403729
_cell_length_b   9.02403729
_cell_length_c   11.17894900
_cell_angle_alpha   90.00000000
_cell_angle_beta   90.00000000
_cell_angle_gamma   95.79066905
_symmetry_Int_Tables_number   1
_chemical_formula_structural   Mo9Se11
_chemical_formula_sum   'Mo18 Se22'
_cell_volume   905.69282164
_cell_formula_units_Z   2
loop_
 _symmetry_equiv_pos_site_id
 _symmetry_equiv_pos_as_xyz
  1  'x, y, z'
loop_
 _atom_site_type_symbol
 _atom_site_label
 _atom_site_symmetry_multiplicity
 _atom_site_fract_x
 _atom_site_fract_y
 _atom_site_fract_z
 _atom_site_occupancy
  Mo  Mo0  1  0.48158600  0.90068800  0.37022300  1
  Mo  Mo1  1  0.51841400  0.09931200  0.87022300  1
  Mo  Mo2  1  0.90068800  0.48158600  0.62977700  1
  Mo  Mo3  1  0.09931200  0.51841400  0.12977700  1
  Mo  Mo4  1  0.51841400  0.09931200  0.62977700  1
  Mo  Mo5  1  0.48158600  0.90068800  0.12977700  1
  Mo  Mo6  1  0.09931200  0.51841400  0.37022300  1
  Mo  Mo7  1  0.90068800  0.48158600  0.87022300  1
  Mo  Mo8  1  0.69299900  0.92716300  0.75000000  1
  Mo  Mo9  1  0.30700100  0.07283700  0.25000000  1
  Mo  Mo10  1  0.92716300  0.69299900  0.25000000  1
  Mo  Mo11  1  0.07283700  0.30700100  0.75000000  1
  Mo  Mo12  1  0.35306500  0.64693500  0.25000000  1
  Mo  Mo13  1  0.64693500  0.35306500  0.75000000  1
  Mo  Mo14  1  0.82201000  0.17799000  0.62848900  1
  Mo  Mo15  1  0.17799000  0.82201000  0.12848900  1
  Mo  Mo16  1  0.17799000  0.82201000  0.37151100  1
  Mo  Mo17  1  0.82201000  0.17799000  0.87151100  1
  Se  Se0  1  0.41388800  0.87155800  0.75000000  1
  Se  Se1  1  0.58611200  0.12844200  0.25000000  1
  Se  Se2  1  0.87155800  0.41388800  0.25000000  1
  Se  Se3  1  0.12844200  0.58611200  0.75000000  1
  Se  Se4  1  0.94408500  0.70807600  0.48175600  1
  Se  Se5  1  0.05591500  0.29192400  0.98175600  1
  Se  Se6  1  0.70807600  0.94408500  0.51824400  1
  Se  Se7  1  0.29192400  0.05591500  0.01824400  1
  Se  Se8  1  0.05591500  0.29192400  0.51824400  1
  Se  Se9  1  0.94408500  0.70807600  0.01824400  1
  Se  Se10  1  0.29192400  0.05591500  0.48175600  1
  Se  Se11  1  0.70807600  0.94408500  0.98175600  1
  Se  Se12  1  0.36610900  0.27945400  0.75000000  1
  Se  Se13  1  0.63389100  0.72054600  0.25000000  1
  Se  Se14  1  0.27945400  0.36610900  0.25000000  1
  Se  Se15  1  0.72054600  0.63389100  0.75000000  1
  Se  Se16  1  0.65435000  0.34565000  0.51764000  1
  Se  Se17  1  0.34565000  0.65435000  0.01764000  1
  Se  Se18  1  0.98786100  0.01213900  0.75000000  1
  Se  Se19  1  0.01213900  0.98786100  0.25000000  1
  Se  Se20  1  0.65435000  0.34565000  0.98236000  1
  Se  Se21  1  0.34565000  0.65435000  0.48236000  1
loop_
_geom_bond_atom_site_label_1
_geom_bond_atom_site_label_2
_geom_bond_distance
_geom_bond_site_symmetry_2
Mo0 Se1 2.555165 1_565
Mo0 Se13 2.605511 1_555
Mo0 Se6 2.628172 1_555
Mo0 Se10 2.632451 1_565
Mo0 Se21 2.732678 1_555
Mo1 Se0 2.555165 1_545
Mo1 Se12 2.605511 1_555
Mo1 Se7 2.628172 1_556
Mo1 Se11 2.632451 1_545
Mo1 Se20 2.732678 1_555
Mo2 Se3 2.555165 1_655
Mo2 Se15 2.605511 1_555
Mo2 Se4 2.628172 1_555
Mo2 Se8 2.632451 1_655
Mo2 Se16 2.732678 1_555
Mo3 Se2 2.555165 1_455
Mo3 Se14 2.605511 1_555
Mo3 Se5 2.628172 1_554
Mo3 Se9 2.632451 1_455
Mo3 Se17 2.732678 1_555
Mo4 Se0 2.555165 1_545
Mo4 Se12 2.605511 1_555
Mo4 Se10 2.628172 1_555
Mo4 Se6 2.632451 1_545
Mo4 Se16 2.732678 1_555
Mo5 Se1 2.555165 1_565
Mo5 Se13 2.605511 1_555
Mo5 Se11 2.628172 1_554
Mo5 Se7 2.632451 1_565
Mo5 Se17 2.732678 1_555
Mo6 Se2 2.555165 1_455
Mo6 Se14 2.605511 1_555
Mo6 Se8 2.628172 1_555
Mo6 Se4 2.632451 1_455
Mo6 Se21 2.732678 1_555
Mo7 Se3 2.555165 1_655
Mo7 Se15 2.605511 1_555
Mo7 Se9 2.628172 1_556
Mo7 Se5 2.632451 1_655
Mo7 Se20 2.732678 1_555
Mo8 Se0 2.518064 1_555
Mo8 Se11 2.598042 1_555
Mo8 Se6 2.598042 1_555
Mo8 Se15 2.683001 1_555
Mo8 Se18 2.693769 1_565
Mo9 Se1 2.518064 1_555
Mo9 Se10 2.598042 1_555
Mo9 Se7 2.598042 1_555
Mo9 Se14 2.683001 1_555
Mo9 Se19 2.693769 1_545
Mo10 Se2 2.518064 1_555
Mo10 Se4 2.598042 1_555
Mo10 Se9 2.598042 1_555
Mo10 Se13 2.683001 1_555
Mo10 Se19 2.693769 1_655
Mo11 Se3 2.518064 1_555
Mo11 Se5 2.598042 1_555
Mo11 Se8 2.598042 1_555
Mo11 Se12 2.683001 1_555
Mo11 Se18 2.693769 1_455
Mo12 Se14 2.554145 1_555
Mo12 Se13 2.554145 1_555
Mo12 Se17 2.599438 1_555
Mo12 Se21 2.599438 1_555
Mo13 Se12 2.554145 1_555
Mo13 Se15 2.554145 1_555
Mo13 Se16 2.599438 1_555
Mo13 Se20 2.599438 1_555
Mo14 Se16 2.564298 1_555
Mo14 Se8 2.567756 1_655
Mo14 Se6 2.567756 1_545
Mo14 Se18 2.603276 1_555
Mo15 Se17 2.564298 1_555
Mo15 Se7 2.567756 1_565
Mo15 Se9 2.567756 1_455
Mo15 Se19 2.603276 1_555
Mo16 Se21 2.564298 1_555
Mo16 Se10 2.567756 1_565
Mo16 Se4 2.567756 1_455
Mo16 Se19 2.603276 1_555
Mo17 Se20 2.564298 1_555
Mo17 Se5 2.567756 1_655
Mo17 Se11 2.567756 1_545
Mo17 Se18 2.603276 1_555
