# generated using pymatgen
data_Rb2PbO3
_symmetry_space_group_name_H-M   'P 1'
_cell_length_a   6.07131830
_cell_length_b   7.38246056
_cell_length_c   10.92717084
_cell_angle_alpha   90.00000000
_cell_angle_beta   90.00000000
_cell_angle_gamma   90.00000000
_symmetry_Int_Tables_number   1
_chemical_formula_structural   Rb2PbO3
_chemical_formula_sum   'Rb8 Pb4 O12'
_cell_volume   489.76965158
_cell_formula_units_Z   4
loop_
 _symmetry_equiv_pos_site_id
 _symmetry_equiv_pos_as_xyz
  1  'x, y, z'
loop_
 _atom_site_type_symbol
 _atom_site_label
 _atom_site_symmetry_multiplicity
 _atom_site_fract_x
 _atom_site_fract_y
 _atom_site_fract_z
 _atom_site_occupancy
  Rb  Rb0  1  0.76758067  0.39325911  0.08670776  1
  Rb  Rb1  1  0.73241933  0.89325911  0.91329224  1
  Rb  Rb2  1  0.26758067  0.10674089  0.08670776  1
  Rb  Rb3  1  0.26758067  0.10674089  0.41329224  1
  Rb  Rb4  1  0.23241933  0.60674089  0.58670776  1
  Rb  Rb5  1  0.73241933  0.89325911  0.58670776  1
  Rb  Rb6  1  0.23241933  0.60674089  0.91329224  1
  Rb  Rb7  1  0.76758067  0.39325911  0.41329224  1
  Pb  Pb0  1  0.26378649  0.15632057  0.75000000  1
  Pb  Pb1  1  0.73621351  0.84367943  0.25000000  1
  Pb  Pb2  1  0.76378649  0.34367943  0.75000000  1
  Pb  Pb3  1  0.23621351  0.65632057  0.25000000  1
  O  O0  1  0.00507769  0.22857033  0.62008909  1
  O  O1  1  0.16161561  0.38725203  0.25000000  1
  O  O2  1  0.49492231  0.72857033  0.12008909  1
  O  O3  1  0.99492231  0.77142967  0.12008909  1
  O  O4  1  0.00507769  0.22857033  0.87991091  1
  O  O5  1  0.83838439  0.61274797  0.75000000  1
  O  O6  1  0.49492231  0.72857033  0.37991091  1
  O  O7  1  0.33838439  0.88725203  0.75000000  1
  O  O8  1  0.66161561  0.11274797  0.25000000  1
  O  O9  1  0.50507769  0.27142967  0.62008909  1
  O  O10  1  0.50507769  0.27142967  0.87991091  1
  O  O11  1  0.99492231  0.77142967  0.37991091  1
loop_
_geom_bond_atom_site_label_1
_geom_bond_atom_site_label_2
_geom_bond_distance
_geom_bond_site_symmetry_2
O0 Pb0 2.183289 1_555
O0 Pb2 2.209838 1_455
O0 Rb3 2.907781 1_555
O0 Rb7 2.943397 1_455
O0 Rb5 3.000183 1_445
O0 Rb4 3.135680 1_555
O1 Pb3 2.037366 1_555
O1 Rb3 2.808233 1_555
O1 Rb2 2.808233 1_555
O1 Rb7 2.984783 1_455
O1 Rb0 2.984783 1_455
O2 Pb3 2.183289 1_555
O2 Pb1 2.209838 1_555
O2 Rb6 2.907781 1_554
O2 Rb1 2.943397 1_554
O2 Rb0 3.000183 1_555
O2 Rb2 3.135680 1_565
O3 Pb1 2.183289 1_555
O3 Pb3 2.209838 1_655
O3 Rb1 2.907781 1_554
O3 Rb6 2.943397 1_654
O3 Rb2 3.000183 1_665
O3 Rb0 3.135680 1_555
O4 Pb0 2.183289 1_555
O4 Pb2 2.209838 1_455
O4 Rb2 2.907781 1_556
O4 Rb0 2.943397 1_456
O4 Rb1 3.000183 1_445
O4 Rb6 3.135680 1_555
O5 Pb2 2.037366 1_555
O5 Rb5 2.808233 1_555
O5 Rb1 2.808233 1_555
O5 Rb6 2.984783 1_655
O5 Rb4 2.984783 1_655
O6 Pb3 2.183289 1_555
O6 Pb1 2.209838 1_555
O6 Rb4 2.907781 1_555
O6 Rb5 2.943397 1_555
O6 Rb7 3.000183 1_555
O6 Rb3 3.135680 1_565
O7 Pb0 2.037366 1_565
O7 Rb4 2.808233 1_555
O7 Rb6 2.808233 1_555
O7 Rb1 2.984783 1_555
O7 Rb5 2.984783 1_555
O8 Pb1 2.037366 1_545
O8 Rb7 2.808233 1_555
O8 Rb0 2.808233 1_555
O8 Rb3 2.984783 1_555
O8 Rb2 2.984783 1_555
O9 Pb2 2.183289 1_555
O9 Pb0 2.209838 1_555
O9 Rb7 2.907781 1_555
O9 Rb3 2.943397 1_555
O9 Rb4 3.000183 1_555
O9 Rb5 3.135680 1_545
O10 Pb2 2.183289 1_555
O10 Pb0 2.209838 1_555
O10 Rb0 2.907781 1_556
O10 Rb2 2.943397 1_556
O10 Rb6 3.000183 1_555
O10 Rb1 3.135680 1_545
O11 Pb1 2.183289 1_555
O11 Pb3 2.209838 1_655
O11 Rb5 2.907781 1_555
O11 Rb4 2.943397 1_655
O11 Rb3 3.000183 1_665
O11 Rb7 3.135680 1_555
