# generated using pymatgen
data_Dy2GeO5
_symmetry_space_group_name_H-M   'P 1'
_cell_length_a   8.18385328
_cell_length_b   8.18385328
_cell_length_c   10.42901118
_cell_angle_alpha   61.27585871
_cell_angle_beta   61.27585871
_cell_angle_gamma   49.21836509
_symmetry_Int_Tables_number   1
_chemical_formula_structural   Dy2GeO5
_chemical_formula_sum   'Dy8 Ge4 O20'
_cell_volume   448.96402663
_cell_formula_units_Z   4
loop_
 _symmetry_equiv_pos_site_id
 _symmetry_equiv_pos_as_xyz
  1  'x, y, z'
loop_
 _atom_site_type_symbol
 _atom_site_label
 _atom_site_symmetry_multiplicity
 _atom_site_fract_x
 _atom_site_fract_y
 _atom_site_fract_z
 _atom_site_occupancy
  Dy  Dy0  1  0.72274947  0.20746027  0.96404711  1
  Dy  Dy1  1  0.79253973  0.27725053  0.53595289  1
  Dy  Dy2  1  0.27725053  0.79253973  0.03595289  1
  Dy  Dy3  1  0.20746027  0.72274947  0.46404711  1
  Dy  Dy4  1  0.99320510  0.73258385  0.83670942  1
  Dy  Dy5  1  0.26741615  0.00679490  0.66329058  1
  Dy  Dy6  1  0.00679490  0.26741615  0.16329058  1
  Dy  Dy7  1  0.73258385  0.99320510  0.33670942  1
  Ge  Ge0  1  0.78036254  0.58961785  0.69094681  1
  Ge  Ge1  1  0.41038215  0.21963746  0.80905319  1
  Ge  Ge2  1  0.21963746  0.41038215  0.30905319  1
  Ge  Ge3  1  0.58961785  0.78036254  0.19094681  1
  O  O0  1  0.77688708  0.63189381  0.05174800  1
  O  O1  1  0.36810619  0.22311292  0.44825200  1
  O  O2  1  0.22311292  0.36810619  0.94825200  1
  O  O3  1  0.63189381  0.77688708  0.55174800  1
  O  O4  1  0.58109933  0.58641044  0.36506907  1
  O  O5  1  0.41358956  0.41890067  0.13493093  1
  O  O6  1  0.41890067  0.41358956  0.63493093  1
  O  O7  1  0.58641044  0.58109933  0.86506907  1
  O  O8  1  0.95866598  0.64942793  0.67481388  1
  O  O9  1  0.35057207  0.04133402  0.82518612  1
  O  O10  1  0.04133402  0.35057207  0.32518612  1
  O  O11  1  0.64942793  0.95866598  0.17481388  1
  O  O12  1  0.88409089  0.08138468  0.39816805  1
  O  O13  1  0.91861532  0.11590911  0.10183195  1
  O  O14  1  0.11590911  0.91861532  0.60183195  1
  O  O15  1  0.08138468  0.88409089  0.89816805  1
  O  O16  1  0.08476824  0.68312941  0.32164425  1
  O  O17  1  0.31687059  0.91523176  0.17835575  1
  O  O18  1  0.91523176  0.31687059  0.67835575  1
  O  O19  1  0.68312941  0.08476824  0.82164425  1
loop_
_geom_bond_atom_site_label_1
_geom_bond_atom_site_label_2
_geom_bond_distance
_geom_bond_site_symmetry_2
Dy0 O13 2.192218 1_556
Dy0 O7 2.297121 1_555
Dy0 O11 2.315993 1_546
Dy0 O5 2.341486 1_556
Dy0 O19 2.374955 1_555
Dy0 O15 2.398427 1_645
Dy0 O18 2.632014 1_555
Dy1 O12 2.192218 1_555
Dy1 O6 2.297121 1_555
Dy1 O10 2.315993 1_655
Dy1 O4 2.341486 1_555
Dy1 O18 2.374955 1_555
Dy1 O14 2.398427 1_645
Dy1 O19 2.632014 1_555
Dy2 O15 2.192218 1_554
Dy2 O5 2.297121 1_555
Dy2 O9 2.315993 1_564
Dy2 O7 2.341486 1_554
Dy2 O17 2.374955 1_555
Dy2 O13 2.398427 1_465
Dy2 O16 2.632014 1_555
Dy3 O14 2.192218 1_555
Dy3 O4 2.297121 1_555
Dy3 O8 2.315993 1_455
Dy3 O6 2.341486 1_555
Dy3 O16 2.374955 1_555
Dy3 O12 2.398427 1_465
Dy3 O17 2.632014 1_555
Dy4 O15 2.201442 1_655
Dy4 O0 2.270644 1_556
Dy4 O19 2.272597 1_565
Dy4 O8 2.282149 1_555
Dy4 O2 2.286399 1_655
Dy4 O14 2.318366 1_655
Dy5 O14 2.201442 1_545
Dy5 O1 2.270644 1_555
Dy5 O18 2.272597 1_455
Dy5 O9 2.282149 1_555
Dy5 O3 2.286399 1_545
Dy5 O15 2.318366 1_545
Dy6 O13 2.201442 1_455
Dy6 O2 2.270644 1_554
Dy6 O17 2.272597 1_545
Dy6 O10 2.282149 1_555
Dy6 O0 2.286399 1_455
Dy6 O12 2.318366 1_455
Dy7 O12 2.201442 1_565
Dy7 O3 2.270644 1_555
Dy7 O16 2.272597 1_655
Dy7 O11 2.282149 1_555
Dy7 O1 2.286399 1_565
Dy7 O13 2.318366 1_565
Ge0 O8 1.736407 1_555
Ge0 O3 1.748393 1_555
Ge0 O7 1.753357 1_555
Ge0 O18 1.772519 1_555
Ge1 O9 1.736407 1_555
Ge1 O2 1.748393 1_555
Ge1 O6 1.753357 1_555
Ge1 O19 1.772519 1_555
Ge2 O10 1.736407 1_555
Ge2 O1 1.748393 1_555
Ge2 O5 1.753357 1_555
Ge2 O16 1.772519 1_555
Ge3 O11 1.736407 1_555
Ge3 O0 1.748393 1_555
Ge3 O4 1.753357 1_555
Ge3 O17 1.772519 1_555
