# generated using pymatgen
data_MgNb5(PO4)9
_symmetry_space_group_name_H-M   'P 1'
_cell_length_a   8.79900041
_cell_length_b   8.79900012
_cell_length_c   22.65376170
_cell_angle_alpha   90.00000000
_cell_angle_beta   90.00000000
_cell_angle_gamma   120.00000106
_symmetry_Int_Tables_number   1
_chemical_formula_structural   MgNb5(PO4)9
_chemical_formula_sum   'Mg2 Nb10 P18 O72'
_cell_volume   1518.92949818
_cell_formula_units_Z   2
loop_
 _symmetry_equiv_pos_site_id
 _symmetry_equiv_pos_as_xyz
  1  'x, y, z'
loop_
 _atom_site_type_symbol
 _atom_site_label
 _atom_site_symmetry_multiplicity
 _atom_site_fract_x
 _atom_site_fract_y
 _atom_site_fract_z
 _atom_site_occupancy
  Mg  Mg0  1  0.66666700  0.33333300  0.68998627  1
  Mg  Mg1  1  0.66666700  0.33333300  0.18998627  1
  Nb  Nb0  1  0.00000000  0.00000000  0.35522220  1
  Nb  Nb1  1  0.00000000  0.00000000  0.85522220  1
  Nb  Nb2  1  0.00000000  0.00000000  0.64304177  1
  Nb  Nb3  1  0.00000000  0.00000000  0.14304177  1
  Nb  Nb4  1  0.66666700  0.33333300  0.97786800  1
  Nb  Nb5  1  0.66666700  0.33333300  0.47786800  1
  Nb  Nb6  1  0.33333300  0.66666700  0.02499141  1
  Nb  Nb7  1  0.33333300  0.66666700  0.52499141  1
  Nb  Nb8  1  0.33333300  0.66666700  0.30664000  1
  Nb  Nb9  1  0.33333300  0.66666700  0.80664000  1
  P  P0  1  0.28963654  0.00538747  0.24930311  1
  P  P1  1  0.71575093  0.71036346  0.24930311  1
  P  P2  1  0.99461253  0.28424907  0.24930311  1
  P  P3  1  0.28963654  0.28424907  0.74930311  1
  P  P4  1  0.99461253  0.71036346  0.74930311  1
  P  P5  1  0.71575093  0.00538747  0.74930311  1
  P  P6  1  0.94959851  0.33285666  0.58520593  1
  P  P7  1  0.38325914  0.05040149  0.58520593  1
  P  P8  1  0.66714334  0.61674086  0.58520593  1
  P  P9  1  0.94959851  0.61674086  0.08520593  1
  P  P10  1  0.66714334  0.05040149  0.08520593  1
  P  P11  1  0.38325914  0.33285666  0.08520593  1
  P  P12  1  0.61755125  0.66644790  0.91625806  1
  P  P13  1  0.04889564  0.38244875  0.91625806  1
  P  P14  1  0.33355210  0.95110436  0.91625806  1
  P  P15  1  0.61755125  0.95110436  0.41625806  1
  P  P16  1  0.33355210  0.38244875  0.41625806  1
  P  P17  1  0.04889564  0.66644790  0.41625806  1
  O  O0  1  0.19252527  0.02279581  0.30514231  1
  O  O1  1  0.83027054  0.80747473  0.30514231  1
  O  O2  1  0.97720418  0.16972946  0.30514231  1
  O  O3  1  0.19252527  0.16972946  0.80514231  1
  O  O4  1  0.97720419  0.80747473  0.80514231  1
  O  O5  1  0.83027054  0.02279581  0.80514231  1
  O  O6  1  0.80068531  0.96668885  0.69531528  1
  O  O7  1  0.16600354  0.19931469  0.69531528  1
  O  O8  1  0.03331115  0.83399646  0.69531528  1
  O  O9  1  0.80068531  0.83399646  0.19531528  1
  O  O10  1  0.03331115  0.19931469  0.19531528  1
  O  O11  1  0.16600354  0.96668885  0.19531528  1
  O  O12  1  0.87609684  0.37027684  0.63850676  1
  O  O13  1  0.49418100  0.12390316  0.63850676  1
  O  O14  1  0.62972316  0.50581900  0.63850676  1
  O  O15  1  0.87609684  0.50581900  0.13850676  1
  O  O16  1  0.62972316  0.12390316  0.13850676  1
  O  O17  1  0.49418100  0.37027684  0.13850676  1
  O  O18  1  0.46754865  0.30346419  0.02814489  1
  O  O19  1  0.83591654  0.53245135  0.02814489  1
  O  O20  1  0.69653581  0.16408346  0.02814489  1
  O  O21  1  0.46754865  0.16408346  0.52814489  1
  O  O22  1  0.69653581  0.53245135  0.52814489  1
  O  O23  1  0.83591654  0.30346419  0.52814489  1
  O  O24  1  0.53299302  0.69651547  0.97125318  1
  O  O25  1  0.16352145  0.46700698  0.97125318  1
  O  O26  1  0.30348453  0.83647855  0.97125318  1
  O  O27  1  0.53299302  0.83647855  0.47125318  1
  O  O28  1  0.30348453  0.46700698  0.47125318  1
  O  O29  1  0.16352145  0.69651547  0.47125318  1
  O  O30  1  0.13331540  0.63498183  0.36163668  1
  O  O31  1  0.50166544  0.86668460  0.36163668  1
  O  O32  1  0.36501817  0.49833456  0.36163668  1
  O  O33  1  0.13331540  0.49833456  0.86163668  1
  O  O34  1  0.36501817  0.86668460  0.86163668  1
  O  O35  1  0.50166544  0.63498183  0.86163668  1
  O  O36  1  0.02589378  0.82766208  0.40692164  1
  O  O37  1  0.80176831  0.97410622  0.40692164  1
  O  O38  1  0.17233792  0.19823169  0.40692164  1
  O  O39  1  0.02589378  0.19823169  0.90692164  1
  O  O40  1  0.17233792  0.97410622  0.90692164  1
  O  O41  1  0.80176831  0.82766208  0.90692164  1
  O  O42  1  0.97439193  0.17061966  0.59209216  1
  O  O43  1  0.19622772  0.02560807  0.59209216  1
  O  O44  1  0.82938034  0.80377228  0.59209216  1
  O  O45  1  0.97439193  0.80377228  0.09209216  1
  O  O46  1  0.82938034  0.02560807  0.09209216  1
  O  O47  1  0.19622772  0.17061966  0.09209216  1
  O  O48  1  0.69420036  0.16070369  0.74295701  1
  O  O49  1  0.46650433  0.30579964  0.74295701  1
  O  O50  1  0.83929631  0.53349567  0.74295701  1
  O  O51  1  0.69420036  0.53349567  0.24295701  1
  O  O52  1  0.83929631  0.30579964  0.24295701  1
  O  O53  1  0.46650433  0.16070369  0.24295701  1
  O  O54  1  0.63950745  0.50441400  0.92674793  1
  O  O55  1  0.86490756  0.36049255  0.92674793  1
  O  O56  1  0.49558600  0.13509244  0.92674793  1
  O  O57  1  0.63950745  0.13509244  0.42674793  1
  O  O58  1  0.49558600  0.36049255  0.42674793  1
  O  O59  1  0.86490756  0.50441400  0.42674793  1
  O  O60  1  0.35467683  0.49249256  0.07090515  1
  O  O61  1  0.13781472  0.64532317  0.07090515  1
  O  O62  1  0.50750744  0.86218528  0.07090515  1
  O  O63  1  0.35467683  0.86218528  0.57090515  1
  O  O64  1  0.50750744  0.64532317  0.57090515  1
  O  O65  1  0.13781472  0.49249256  0.57090515  1
  O  O66  1  0.29955633  0.83283364  0.26036002  1
  O  O67  1  0.53327630  0.70044367  0.26036002  1
  O  O68  1  0.16716636  0.46672370  0.26036002  1
  O  O69  1  0.29955633  0.46672370  0.76036002  1
  O  O70  1  0.16716636  0.70044367  0.76036002  1
  O  O71  1  0.53327630  0.83283364  0.76036002  1
loop_
_geom_bond_atom_site_label_1
_geom_bond_atom_site_label_2
_geom_bond_distance
_geom_bond_site_symmetry_2
Mg0 O50 2.043015 1_555
Mg0 O48 2.043015 1_555
Mg0 O49 2.043015 1_555
Mg0 O13 2.064579 1_555
Mg0 O14 2.064579 1_555
Mg0 O12 2.064579 1_555
Mg1 O51 2.043015 1_555
Mg1 O53 2.043015 1_555
Mg1 O52 2.043015 1_555
Mg1 O16 2.064579 1_555
Mg1 O15 2.064579 1_555
Mg1 O17 2.064579 1_555
Nb0 O1 1.963992 1_445
Nb0 O0 1.963992 1_555
Nb0 O2 1.963992 1_455
Nb0 O38 2.017067 1_555
Nb0 O37 2.017067 1_445
Nb0 O36 2.017067 1_545
Nb1 O4 1.963992 1_445
Nb1 O3 1.963992 1_555
Nb1 O5 1.963992 1_455
Nb1 O39 2.017067 1_555
Nb1 O41 2.017067 1_445
Nb1 O40 2.017067 1_545
Nb2 O44 1.993759 1_445
Nb2 O43 1.993759 1_555
Nb2 O42 1.993759 1_455
Nb2 O7 2.012434 1_555
Nb2 O8 2.012434 1_545
Nb2 O6 2.012434 1_445
Nb3 O45 1.993759 1_445
Nb3 O47 1.993759 1_555
Nb3 O46 1.993759 1_455
Nb3 O10 2.012434 1_555
Nb3 O9 2.012434 1_445
Nb3 O11 2.012434 1_545
Nb4 O19 1.993864 1_556
Nb4 O20 1.993864 1_556
Nb4 O18 1.993864 1_556
Nb4 O54 2.005994 1_555
Nb4 O56 2.005994 1_555
Nb4 O55 2.005994 1_555
Nb5 O22 1.993864 1_555
Nb5 O21 1.993864 1_555
Nb5 O23 1.993864 1_555
Nb5 O58 2.005994 1_555
Nb5 O59 2.005994 1_555
Nb5 O57 2.005994 1_555
Nb6 O60 1.937442 1_555
Nb6 O62 1.937442 1_555
Nb6 O61 1.937442 1_555
Nb6 O25 2.043514 1_554
Nb6 O26 2.043514 1_554
Nb6 O24 2.043514 1_554
Nb7 O64 1.937442 1_555
Nb7 O65 1.937442 1_555
Nb7 O63 1.937442 1_555
Nb7 O28 2.043514 1_555
Nb7 O27 2.043514 1_555
Nb7 O29 2.043514 1_555
Nb8 O68 1.939015 1_555
Nb8 O67 1.939015 1_555
Nb8 O66 1.939015 1_555
Nb8 O31 2.058329 1_555
Nb8 O30 2.058329 1_555
Nb8 O32 2.058329 1_555
Nb9 O69 1.939015 1_555
Nb9 O71 1.939015 1_555
Nb9 O70 1.939015 1_555
Nb9 O34 2.058329 1_555
Nb9 O33 2.058329 1_555
Nb9 O35 2.058329 1_555
O0 P0 1.576272 1_555
O1 P1 1.576272 1_555
O2 P2 1.576272 1_555
O3 P3 1.576272 1_555
O4 P4 1.576272 1_555
O5 P5 1.576272 1_555
O6 P5 1.557155 1_565
O7 P3 1.557155 1_555
O8 P4 1.557155 1_455
O9 P1 1.557155 1_555
O10 P2 1.557155 1_455
O11 P0 1.557155 1_565
O12 P6 1.482431 1_555
O13 P7 1.482431 1_555
O14 P8 1.482431 1_555
O15 P9 1.482431 1_555
O16 P10 1.482431 1_555
O17 P11 1.482431 1_555
O18 P11 1.574706 1_555
O19 P9 1.574706 1_555
O20 P10 1.574706 1_555
O21 P7 1.574706 1_555
O22 P8 1.574706 1_555
O23 P6 1.574706 1_555
O24 P12 1.540308 1_555
O25 P13 1.540308 1_555
O26 P14 1.540308 1_555
O27 P15 1.540308 1_555
O28 P16 1.540308 1_555
O29 P17 1.540308 1_555
O30 P17 1.537918 1_555
O31 P15 1.537918 1_555
O32 P16 1.537918 1_555
O33 P13 1.537918 1_555
O34 P14 1.537918 1_555
O35 P12 1.537918 1_555
O36 P17 1.544347 1_555
O37 P15 1.544355 1_555
O38 P16 1.544352 1_555
O39 P13 1.544355 1_555
O40 P14 1.544347 1_555
O41 P12 1.544352 1_555
O42 P6 1.556013 1_555
O43 P7 1.556022 1_555
O44 P8 1.556018 1_555
O45 P9 1.556022 1_555
O46 P10 1.556013 1_555
O47 P11 1.556018 1_555
O48 P5 1.477647 1_555
O49 P3 1.477656 1_555
O50 P4 1.477652 1_555
O51 P1 1.477655 1_555
O52 P2 1.477647 1_555
O53 P0 1.477652 1_555
O54 P12 1.549826 1_555
O55 P13 1.549808 1_655
O56 P14 1.549815 1_545
O57 P15 1.549808 1_545
O58 P16 1.549826 1_555
O59 P17 1.549815 1_655
O60 P11 1.579388 1_555
O61 P9 1.579371 1_455
O62 P10 1.579378 1_565
O63 P7 1.579371 1_565
O64 P8 1.579388 1_555
O65 P6 1.579378 1_455
O66 P0 1.583705 1_565
O67 P1 1.583714 1_555
O68 P2 1.583710 1_455
O69 P3 1.583714 1_555
O70 P4 1.583705 1_455
O71 P5 1.583710 1_565
