# generated using pymatgen
data_K6Mg(SbO4)2
_symmetry_space_group_name_H-M   'P 1'
_cell_length_a   7.20533024
_cell_length_b   6.10063668
_cell_length_c   8.42468062
_cell_angle_alpha   81.00188501
_cell_angle_beta   103.78257062
_cell_angle_gamma   114.94973626
_symmetry_Int_Tables_number   1
_chemical_formula_structural   K6Mg(SbO4)2
_chemical_formula_sum   'K6 Mg1 Sb2 O8'
_cell_volume   325.43951804
_cell_formula_units_Z   1
loop_
 _symmetry_equiv_pos_site_id
 _symmetry_equiv_pos_as_xyz
  1  'x, y, z'
loop_
 _atom_site_type_symbol
 _atom_site_label
 _atom_site_symmetry_multiplicity
 _atom_site_fract_x
 _atom_site_fract_y
 _atom_site_fract_z
 _atom_site_occupancy
  K  K0  1  0.80284935  0.21177693  0.48904292  1
  K  K1  1  0.24281219  -0.06946352  0.45712149  1
  K  K2  1  0.32177216  0.48582570  0.32906902  1
  K  K3  1  0.85047439  0.69134926  0.70463448  1
  K  K4  1  0.28040926  0.91130689  0.01453576  1
  K  K5  1  0.71910759  0.05426337  0.86115033  1
  Mg  Mg0  1  0.80802088  0.92756891  0.20084601  1
  Sb  Sb0  1  0.69800483  0.47220818  0.14401195  1
  Sb  Sb1  1  0.32012966  0.45370067  0.78802577  1
  O  O0  1  0.91017680  0.77664228  0.05166541  1
  O  O1  1  0.55514083  0.34858432  0.90389253  1
  O  O2  1  0.48642558  0.20527101  0.25190045  1
  O  O3  1  0.83239103  0.65751423  0.36553155  1
  O  O4  1  0.47825847  0.70792837  0.63737672  1
  O  O5  1  0.16186180  0.17121216  0.65174912  1
  O  O6  1  0.87692843  0.27508196  0.18225378  1
  O  O7  1  0.53023676  0.68922928  0.09219270  1
loop_
_geom_bond_atom_site_label_1
_geom_bond_atom_site_label_2
_geom_bond_distance
_geom_bond_site_symmetry_2
K0 O2 2.639928 1_555
K0 O3 2.693447 1_555
K0 O6 2.699149 1_555
K0 O5 2.715913 1_655
K0 O4 3.256674 1_545
K1 O2 2.633824 1_555
K1 O4 2.664484 1_545
K1 O5 2.667554 1_555
K1 O3 2.697060 1_445
K2 O7 2.619085 1_555
K2 O2 2.681091 1_555
K2 O4 2.875808 1_555
K2 O6 2.930576 1_455
K2 O5 3.224313 1_555
K3 O4 2.647816 1_555
K3 O3 2.864523 1_555
K3 O5 2.886106 1_665
K3 O1 2.927269 1_555
K3 O0 2.948078 1_556
K4 O0 2.521391 1_455
K4 O7 2.592865 1_555
K4 O2 2.622991 1_565
K4 O1 2.747758 1_564
K4 O5 3.311774 1_564
K5 O1 2.635152 1_555
K5 O0 2.721015 1_546
K5 O4 2.761090 1_545
K5 O7 2.819475 1_546
K5 O6 2.967790 1_556
Mg0 O6 1.952131 1_565
Mg0 O7 2.011547 1_555
Mg0 O3 2.020650 1_555
Mg0 O0 2.084140 1_555
O0 Sb0 2.027590 1_555
O1 Sb1 2.040633 1_555
O1 Sb0 2.133246 1_556
O2 Sb0 1.976103 1_555
O3 Sb0 2.138653 1_555
O4 Sb1 1.974050 1_555
O5 Sb1 1.981315 1_555
O6 Sb0 2.049624 1_555
O7 Sb0 2.079108 1_555
