# generated using pymatgen
data_Na3LaTi3Si3(SO8)3
_symmetry_space_group_name_H-M   'P 1'
_cell_length_a   8.97859425
_cell_length_b   9.06381364
_cell_length_c   22.80091394
_cell_angle_alpha   89.53862372
_cell_angle_beta   90.80489976
_cell_angle_gamma   120.20563484
_symmetry_Int_Tables_number   1
_chemical_formula_structural   Na3LaTi3Si3(SO8)3
_chemical_formula_sum   'Na9 La3 Ti9 Si9 S9 O72'
_cell_volume   1603.44999526
_cell_formula_units_Z   3
loop_
 _symmetry_equiv_pos_site_id
 _symmetry_equiv_pos_as_xyz
  1  'x, y, z'
loop_
 _atom_site_type_symbol
 _atom_site_label
 _atom_site_symmetry_multiplicity
 _atom_site_fract_x
 _atom_site_fract_y
 _atom_site_fract_z
 _atom_site_occupancy
  Na  Na0  1  0.35000200  0.34927150  0.24004493  1
  Na  Na1  1  0.63031589  0.62234040  0.75698779  1
  Na  Na2  1  0.97071594  0.28982650  0.41756025  1
  Na  Na3  1  0.99247029  0.00042049  0.50547874  1
  Na  Na4  1  0.99339237  0.99112760  0.99929601  1
  Na  Na5  1  0.66300007  0.32933359  0.83685213  1
  Na  Na6  1  0.67829373  0.32907185  0.33036021  1
  Na  Na7  1  0.30731347  0.66261449  0.16377349  1
  Na  Na8  1  0.29394736  0.65024629  0.66509404  1
  La  La0  1  0.99608357  0.99558707  0.35826678  1
  La  La1  1  0.67876880  0.33486845  0.68555643  1
  La  La2  1  0.69486763  0.34924212  0.17061108  1
  Ti  Ti0  1  0.00711999  0.98611632  0.85557750  1
  Ti  Ti1  1  0.01930811  0.02252813  0.65023741  1
  Ti  Ti2  1  0.01845422  0.02223307  0.14048452  1
  Ti  Ti3  1  0.66301822  0.37002504  0.98387919  1
  Ti  Ti4  1  0.65623043  0.30498240  0.47923591  1
  Ti  Ti5  1  0.33818233  0.66389515  0.01647872  1
  Ti  Ti6  1  0.33978158  0.65461486  0.51887523  1
  Ti  Ti7  1  0.34382314  0.65579382  0.31604783  1
  Ti  Ti8  1  0.31636587  0.64520729  0.81247113  1
  Si  Si0  1  0.00629521  0.30398624  0.25222131  1
  Si  Si1  1  0.27806486  0.28747001  0.75739876  1
  Si  Si2  1  0.02020015  0.73159407  0.75127624  1
  Si  Si3  1  0.97148838  0.33118262  0.58116115  1
  Si  Si4  1  0.98611802  0.65485680  0.07950063  1
  Si  Si5  1  0.36642763  0.34416897  0.08283771  1
  Si  Si6  1  0.62225231  0.67571549  0.91432910  1
  Si  Si7  1  0.60341663  0.94954407  0.42028357  1
  Si  Si8  1  0.35894704  0.38844015  0.42028946  1
  S  S0  1  0.29128273  0.98427630  0.24601168  1
  S  S1  1  0.68976528  0.70369389  0.24795228  1
  S  S2  1  0.71447184  0.98491750  0.75412481  1
  S  S3  1  0.35730465  0.02456405  0.57947104  1
  S  S4  1  0.67157365  0.64014270  0.58159047  1
  S  S5  1  0.66709452  0.02660108  0.07748570  1
  S  S6  1  0.03936975  0.37715107  0.91661686  1
  S  S7  1  0.34182457  0.96019660  0.91483667  1
  S  S8  1  0.04440801  0.64379428  0.42037396  1
  O  O0  1  0.21586840  0.00605573  0.30046476  1
  O  O1  1  0.78395829  0.77048530  0.30365621  1
  O  O2  1  0.99691298  0.21274771  0.31411500  1
  O  O3  1  0.16803488  0.17092199  0.81194573  1
  O  O4  1  0.99782083  0.82487246  0.80977163  1
  O  O5  1  0.81209337  0.99446762  0.80721919  1
  O  O6  1  0.80072976  0.97657331  0.69968015  1
  O  O7  1  0.17102964  0.19985334  0.69488964  1
  O  O8  1  0.03209374  0.84824687  0.69329368  1
  O  O9  1  0.78235236  0.80318389  0.19658544  1
  O  O10  1  0.02588533  0.18735930  0.19621765  1
  O  O11  1  0.18155925  0.97465430  0.19385028  1
  O  O12  1  0.91094311  0.37565877  0.64086798  1
  O  O13  1  0.45646270  0.08977864  0.63450526  1
  O  O14  1  0.63553808  0.55092740  0.63909514  1
  O  O15  1  0.94979599  0.54730663  0.13895388  1
  O  O16  1  0.62670180  0.07484870  0.13423536  1
  O  O17  1  0.45710797  0.37976791  0.14567880  1
  O  O18  1  0.47915445  0.31507901  0.03120194  1
  O  O19  1  0.83341636  0.53533219  0.02856278  1
  O  O20  1  0.69240409  0.14605026  0.03012812  1
  O  O21  1  0.45391390  0.14310015  0.52954970  1
  O  O22  1  0.68326456  0.53697968  0.53441311  1
  O  O23  1  0.83141382  0.30169393  0.52588006  1
  O  O24  1  0.51733495  0.69284045  0.96820262  1
  O  O25  1  0.14961412  0.46660439  0.96733568  1
  O  O26  1  0.31635507  0.85680758  0.96750485  1
  O  O27  1  0.49318228  0.84315849  0.47591950  1
  O  O28  1  0.34057188  0.49820298  0.47257518  1
  O  O29  1  0.14021747  0.65161285  0.47348650  1
  O  O30  1  0.12916778  0.63291046  0.36584848  1
  O  O31  1  0.49581280  0.85330868  0.35921204  1
  O  O32  1  0.36921818  0.49681276  0.35849969  1
  O  O33  1  0.12183463  0.48384006  0.86211388  1
  O  O34  1  0.35447653  0.87362613  0.86206516  1
  O  O35  1  0.49946283  0.64339225  0.85508604  1
  O  O36  1  0.02087043  0.79333667  0.42089466  1
  O  O37  1  0.79868642  0.98701000  0.42511320  1
  O  O38  1  0.18458771  0.20570715  0.42334083  1
  O  O39  1  0.02417141  0.20740097  0.91232309  1
  O  O40  1  0.18274608  0.98069465  0.91088145  1
  O  O41  1  0.81740933  0.84070562  0.90878616  1
  O  O42  1  0.98082759  0.15294371  0.59078642  1
  O  O43  1  0.19026240  0.02187753  0.58338905  1
  O  O44  1  0.83032941  0.80917071  0.58496163  1
  O  O45  1  0.98320879  0.83324020  0.09095031  1
  O  O46  1  0.82765463  0.01442281  0.08456821  1
  O  O47  1  0.17582954  0.16612924  0.08713907  1
  O  O48  1  0.68924531  0.13368614  0.75425355  1
  O  O49  1  0.47231839  0.32326025  0.75633556  1
  O  O50  1  0.84305797  0.54902296  0.75205723  1
  O  O51  1  0.64819730  0.52190621  0.24592796  1
  O  O52  1  0.84273400  0.33077375  0.24822946  1
  O  O53  1  0.46426315  0.14206297  0.24167563  1
  O  O54  1  0.63817588  0.49904791  0.92538814  1
  O  O55  1  0.86694741  0.36086205  0.92122437  1
  O  O56  1  0.49549010  0.13371299  0.92025219  1
  O  O57  1  0.62451715  0.14514073  0.42400974  1
  O  O58  1  0.53410466  0.37890616  0.42859933  1
  O  O59  1  0.87070229  0.48300439  0.42080064  1
  O  O60  1  0.33348043  0.49984528  0.06562246  1
  O  O61  1  0.17051002  0.68543887  0.05704931  1
  O  O62  1  0.52059667  0.85054215  0.06633933  1
  O  O63  1  0.32582020  0.85026287  0.57063747  1
  O  O64  1  0.52105035  0.66907347  0.57286466  1
  O  O65  1  0.16434680  0.49448580  0.56887687  1
  O  O66  1  0.30144363  0.82802731  0.24885061  1
  O  O67  1  0.52027244  0.70223512  0.25144644  1
  O  O68  1  0.19258685  0.49163108  0.25577199  1
  O  O69  1  0.29020903  0.47829443  0.76036329  1
  O  O70  1  0.19226406  0.71318423  0.75980155  1
  O  O71  1  0.54165075  0.82361607  0.75361330  1
loop_
_geom_bond_atom_site_label_1
_geom_bond_atom_site_label_2
_geom_bond_distance
_geom_bond_site_symmetry_2
Na0 O17 2.326330 1_555
Na0 O51 2.326502 1_555
Na0 O68 2.376517 1_555
Na0 O53 2.552967 1_555
Na0 O10 2.695500 1_555
Na0 O67 2.778596 1_555
Na1 O50 2.321053 1_555
Na1 O71 2.329206 1_555
Na1 O49 2.343447 1_555
Na1 O35 2.593449 1_555
Na1 O69 2.651193 1_555
Na1 O14 2.776496 1_555
Na2 O59 2.337433 1_555
Na2 O37 2.383859 1_545
Na2 O38 2.398035 1_655
Na2 O2 2.512785 1_555
Na2 O57 2.703979 1_555
Na2 O23 2.811088 1_555
Na2 O30 2.936108 1_655
Na3 O44 2.427525 1_545
Na3 O42 2.428969 1_555
Na3 O43 2.432431 1_655
Na3 O37 2.470017 1_545
Na3 O38 2.598106 1_655
Na3 O36 2.803785 1_645
Na4 O45 2.499823 1_556
Na4 O41 2.529909 1_555
Na4 O46 2.538364 1_566
Na4 O47 2.560346 1_666
Na4 O40 2.687843 1_655
Na4 O39 2.694297 1_665
Na5 O49 2.474470 1_555
Na5 O56 2.522829 1_555
Na5 O55 2.553238 1_555
Na5 O54 2.626540 1_555
Na5 O50 2.665202 1_555
Na5 O48 2.689571 1_555
Na6 O52 2.396093 1_555
Na6 O59 2.589287 1_555
Na6 O57 2.594916 1_555
Na6 O51 2.690807 1_555
Na6 O53 2.706164 1_555
Na6 O58 2.753825 1_555
Na7 O66 2.478462 1_555
Na7 O68 2.503003 1_555
Na7 O67 2.644680 1_555
Na7 O61 2.763441 1_555
Na7 O60 2.767091 1_555
Na7 O62 2.877576 1_555
Na7 O15 2.880879 1_455
Na8 O70 2.534029 1_555
Na8 O65 2.546618 1_555
Na8 O69 2.653983 1_555
Na8 O63 2.727519 1_555
Na8 O71 2.810272 1_555
Na8 O64 2.893740 1_555
La0 O2 2.200289 1_565
La0 O1 2.324846 1_555
La0 O37 2.325010 1_555
La0 O38 2.329106 1_665
La0 O0 2.350055 1_665
La0 O36 2.410089 1_655
La1 O12 2.190569 1_555
La1 O50 2.312193 1_555
La1 O13 2.405949 1_555
La1 O14 2.414083 1_555
La1 O48 2.431018 1_555
La1 O49 2.436503 1_555
La2 O15 2.207678 1_555
La2 O52 2.252898 1_555
La2 O17 2.348308 1_555
La2 O16 2.394840 1_555
La2 O51 2.509433 1_555
La2 O53 2.563549 1_555
O0 S0 1.483589 1_545
O1 S1 1.470350 1_555
O2 Si0 1.611521 1_655
O3 Si1 1.613075 1_555
O3 Ti0 1.860466 1_545
O4 Si2 1.652479 1_655
O4 Ti0 1.770046 1_655
O5 S2 1.461793 1_555
O5 Ti0 2.089377 1_655
O6 S2 1.494669 1_555
O6 Ti1 2.127904 1_665
O7 Si1 1.672551 1_555
O7 Ti1 1.805499 1_555
O8 Si2 1.656805 1_555
O8 Ti1 1.904359 1_565
O9 S1 1.460145 1_555
O9 Ti2 2.423277 1_665
O10 Si0 1.730337 1_555
O10 Ti2 1.946047 1_555
O11 S0 1.508294 1_555
O11 Ti2 2.094783 1_565
O12 Si3 1.600464 1_555
O13 S3 1.472299 1_555
O14 S4 1.486369 1_555
O15 Si4 1.601717 1_555
O16 S5 1.476123 1_555
O17 Si5 1.590707 1_555
O18 Si5 1.669449 1_555
O18 Ti3 1.830757 1_554
O19 Si4 1.698032 1_555
O19 Ti3 1.816008 1_554
O20 S5 1.459545 1_555
O20 Ti3 2.408203 1_554
O21 S3 1.507533 1_555
O21 Ti4 2.029348 1_555
O22 S4 1.469888 1_555
O22 Ti4 2.363016 1_555
O23 Si3 1.692509 1_555
O23 Ti4 1.898858 1_555
O24 Si6 1.613401 1_555
O24 Ti5 1.867704 1_556
O25 S6 1.466257 1_555
O25 Ti5 2.062117 1_556
O26 S7 1.465105 1_555
O26 Ti5 2.156351 1_556
O27 Si7 1.604336 1_555
O27 Ti6 1.849138 1_555
O28 Si8 1.621117 1_555
O28 Ti6 1.777299 1_555
O29 S8 1.456830 1_555
O29 Ti6 2.044904 1_555
O30 S8 1.496198 1_555
O30 Ti7 2.168489 1_555
O31 Si7 1.663454 1_555
O31 Ti7 1.888985 1_555
O32 Si8 1.687741 1_555
O32 Ti7 1.835005 1_555
O33 S6 1.521096 1_555
O33 Ti8 1.982293 1_555
O34 S7 1.478212 1_555
O34 Ti8 2.235197 1_555
O35 Si6 1.662970 1_555
O35 Ti8 1.905007 1_555
O36 S8 1.473273 1_555
O37 Si7 1.611654 1_555
O38 Si8 1.609675 1_555
O39 S6 1.478593 1_555
O39 Ti0 2.333990 1_545
O40 S7 1.531607 1_555
O40 Ti0 2.024878 1_555
O41 Si6 1.639874 1_555
O41 Ti0 1.970708 1_655
O42 Si3 1.671884 1_555
O42 Ti1 1.930311 1_655
O43 S3 1.491633 1_555
O43 Ti1 2.180418 1_555
O44 S4 1.478617 1_555
O44 Ti1 2.346840 1_665
O45 Si4 1.653019 1_555
O45 Ti2 1.945704 1_665
O46 S5 1.506576 1_555
O46 Ti2 2.093635 1_655
O47 Si5 1.663046 1_555
O47 Ti2 1.829066 1_555
O48 S2 1.475437 1_545
O49 Si1 1.606097 1_555
O50 Si2 1.618751 1_655
O51 S1 1.496086 1_555
O52 Si0 1.605782 1_655
O53 S0 1.494769 1_545
O54 Si6 1.694394 1_555
O54 Ti3 1.850661 1_555
O55 S6 1.484525 1_655
O55 Ti3 2.372493 1_555
O56 S7 1.485683 1_545
O56 Ti3 2.387857 1_555
O57 Si7 1.688233 1_545
O57 Ti4 1.835715 1_555
O58 Si8 1.626273 1_555
O58 Ti4 1.917169 1_555
O59 S8 1.506518 1_655
O59 Ti4 2.235611 1_555
O60 Si5 1.624925 1_555
O60 Ti5 1.838372 1_555
O61 Si4 1.624685 1_455
O61 Ti5 1.870317 1_555
O62 S5 1.492084 1_565
O62 Ti5 2.006886 1_555
O63 S3 1.473264 1_565
O63 Ti6 2.194273 1_555
O64 S4 1.510980 1_555
O64 Ti6 1.978164 1_555
O65 Si3 1.641869 1_455
O65 Ti6 1.900229 1_555
O66 S0 1.465104 1_555
O66 Ti7 2.339252 1_555
O67 S1 1.518408 1_555
O67 Ti7 2.059440 1_555
O68 Si0 1.683115 1_555
O68 Ti7 1.973360 1_555
O69 Si1 1.679249 1_555
O69 Ti8 1.849087 1_555
O70 Si2 1.644003 1_555
O70 Ti8 1.924751 1_555
O71 S2 1.504141 1_555
O71 Ti8 2.292919 1_555
