# generated using pymatgen
data_MgTa2(FeO4)2
_symmetry_space_group_name_H-M   'P 1'
_cell_length_a   4.96606826
_cell_length_b   5.19865434
_cell_length_c   5.97057700
_cell_angle_alpha   89.99999935
_cell_angle_beta   90.00000958
_cell_angle_gamma   91.06140643
_symmetry_Int_Tables_number   1
_chemical_formula_structural   MgTa2(FeO4)2
_chemical_formula_sum   'Mg1 Ta2 Fe2 O8'
_cell_volume   154.11517599
_cell_formula_units_Z   1
loop_
 _symmetry_equiv_pos_site_id
 _symmetry_equiv_pos_as_xyz
  1  'x, y, z'
loop_
 _atom_site_type_symbol
 _atom_site_label
 _atom_site_symmetry_multiplicity
 _atom_site_fract_x
 _atom_site_fract_y
 _atom_site_fract_z
 _atom_site_occupancy
  Mg  Mg0  1  0.00000000  0.75000000  0.38015100  1
  Ta  Ta0  1  0.00000000  0.75000000  0.84515800  1
  Ta  Ta1  1  0.00000000  0.25000000  0.14889500  1
  Fe  Fe0  1  0.49999800  0.75000000  0.34477200  1
  Fe  Fe1  1  0.50000200  0.25000000  0.65756900  1
  O  O0  1  0.24606500  0.89016500  0.62570900  1
  O  O1  1  0.20839500  0.42823800  0.88846200  1
  O  O2  1  0.24203300  0.41951700  0.36441800  1
  O  O3  1  0.21029200  0.92382300  0.12361400  1
  O  O4  1  0.79160400  0.07176200  0.88846200  1
  O  O5  1  0.75393400  0.60983500  0.62570900  1
  O  O6  1  0.78970900  0.57617700  0.12361400  1
  O  O7  1  0.75796700  0.08048300  0.36441800  1
loop_
_geom_bond_atom_site_label_1
_geom_bond_atom_site_label_2
_geom_bond_distance
_geom_bond_site_symmetry_2
Mg0 O0 2.034874 1_555
Mg0 O5 2.034877 1_455
Mg0 O6 2.053836 1_455
Mg0 O3 2.053838 1_555
Mg0 O7 2.117020 1_465
Mg0 O2 2.117020 1_555
Fe0 O2 2.127232 1_555
Fe0 O7 2.127244 1_565
Fe0 O3 2.162906 1_555
Fe0 O6 2.162923 1_555
Fe0 O0 2.229074 1_555
Fe0 O5 2.229082 1_555
Fe1 O4 2.214898 1_555
Fe1 O1 2.214915 1_555
Fe1 O5 2.244634 1_555
Fe1 O0 2.244647 1_545
Fe1 O7 2.350122 1_555
Fe1 O2 2.350133 1_555
O0 Ta0 1.925595 1_555
O1 Ta0 2.000008 1_555
O1 Ta1 2.076513 1_556
O2 Ta1 1.959059 1_555
O3 Ta1 2.013539 1_565
O3 Ta0 2.153201 1_554
O4 Ta0 2.000011 1_645
O4 Ta1 2.076515 1_656
O5 Ta0 1.925598 1_655
O6 Ta1 2.013536 1_655
O6 Ta0 2.153199 1_654
O7 Ta1 1.959059 1_655
