# generated using pymatgen
data_MgTiMn3O8
_symmetry_space_group_name_H-M   'P 1'
_cell_length_a   6.23734891
_cell_length_b   6.23755564
_cell_length_c   6.28428240
_cell_angle_alpha   56.57514720
_cell_angle_beta   56.57623227
_cell_angle_gamma   56.72408011
_symmetry_Int_Tables_number   1
_chemical_formula_structural   MgTiMn3O8
_chemical_formula_sum   'Mg1 Ti1 Mn3 O8'
_cell_volume   159.40559636
_cell_formula_units_Z   1
loop_
 _symmetry_equiv_pos_site_id
 _symmetry_equiv_pos_as_xyz
  1  'x, y, z'
loop_
 _atom_site_type_symbol
 _atom_site_label
 _atom_site_symmetry_multiplicity
 _atom_site_fract_x
 _atom_site_fract_y
 _atom_site_fract_z
 _atom_site_occupancy
  Mg  Mg0  1  0.12500000  0.12500000  0.12500000  1
  Ti  Ti0  1  0.62500000  0.62500000  0.12500000  1
  Mn  Mn0  1  0.62500000  0.12500000  0.62500000  1
  Mn  Mn1  1  0.12500000  0.62500000  0.62500000  1
  Mn  Mn2  1  0.62500000  0.62500000  0.62500000  1
  O  O0  1  0.83642300  0.36556900  0.37008600  1
  O  O1  1  0.39102900  0.39105000  0.40192000  1
  O  O2  1  0.36558300  0.83641000  0.37008600  1
  O  O3  1  0.37063100  0.37061800  0.83055000  1
  O  O4  1  0.87936900  0.87938200  0.41945000  1
  O  O5  1  0.88441700  0.41359000  0.87991400  1
  O  O6  1  0.41357700  0.88443100  0.87991400  1
  O  O7  1  0.85897100  0.85895000  0.84808000  1
loop_
_geom_bond_atom_site_label_1
_geom_bond_atom_site_label_2
_geom_bond_distance
_geom_bond_site_symmetry_2
Mg0 O2 2.095686 1_545
Mg0 O5 2.095686 1_454
Mg0 O0 2.095692 1_455
Mg0 O6 2.095692 1_544
Mg0 O3 2.108993 1_554
Mg0 O4 2.108993 1_445
Mn0 O0 1.937232 1_555
Mn0 O6 1.937232 1_545
Mn0 O4 1.946314 1_545
Mn0 O3 1.946314 1_555
Mn0 O1 1.970345 1_555
Mn0 O7 1.970345 1_545
Mn1 O5 1.937236 1_455
Mn1 O2 1.937236 1_555
Mn1 O3 1.946305 1_555
Mn1 O4 1.946305 1_455
Mn1 O7 1.970317 1_455
Mn1 O1 1.970317 1_555
Mn2 O3 2.224912 1_555
Mn2 O4 2.224912 1_555
Mn2 O2 2.260577 1_555
Mn2 O5 2.260577 1_555
Mn2 O6 2.260713 1_555
Mn2 O0 2.260713 1_555
O0 Ti0 1.969740 1_555
O1 Ti0 2.007247 1_555
O2 Ti0 1.969749 1_555
O5 Ti0 1.969749 1_556
O6 Ti0 1.969740 1_556
O7 Ti0 2.007247 1_556
