# generated using pymatgen
data_Rb3TlCl6
_symmetry_space_group_name_H-M   'P 1'
_cell_length_a   7.96189573
_cell_length_b   12.61129966
_cell_length_c   13.31463385
_cell_angle_alpha   72.08653042
_cell_angle_beta   89.99997193
_cell_angle_gamma   90.00025638
_symmetry_Int_Tables_number   1
_chemical_formula_structural   Rb3TlCl6
_chemical_formula_sum   'Rb12 Tl4 Cl24'
_cell_volume   1272.10936056
_cell_formula_units_Z   4
loop_
 _symmetry_equiv_pos_site_id
 _symmetry_equiv_pos_as_xyz
  1  'x, y, z'
loop_
 _atom_site_type_symbol
 _atom_site_label
 _atom_site_symmetry_multiplicity
 _atom_site_fract_x
 _atom_site_fract_y
 _atom_site_fract_z
 _atom_site_occupancy
  Rb  Rb0  1  0.56430159  0.26260705  0.18431591  1
  Rb  Rb1  1  0.06430039  0.23739321  0.81568551  1
  Rb  Rb2  1  0.43569836  0.73739429  0.81568421  1
  Rb  Rb3  1  0.93570062  0.76260790  0.18431638  1
  Rb  Rb4  1  0.06845649  0.11577861  0.18090889  1
  Rb  Rb5  1  0.56845406  0.38422189  0.81909101  1
  Rb  Rb6  1  0.93154311  0.88422276  0.81909132  1
  Rb  Rb7  1  0.43154531  0.61577901  0.18090847  1
  Rb  Rb8  1  0.04722041  0.35810055  0.40473752  1
  Rb  Rb9  1  0.54722359  0.14190091  0.59526410  1
  Rb  Rb10  1  0.95277805  0.64189863  0.59526270  1
  Rb  Rb11  1  0.45277823  0.85809991  0.40473723  1
  Tl  Tl0  1  0.49999988  0.50000041  0.50000116  1
  Tl  Tl1  1  -0.00000175  0.00000001  0.50000006  1
  Tl  Tl2  1  0.50000196  0.00000085  -0.00000073  1
  Tl  Tl3  1  -0.00000191  0.49999961  -0.00000003  1
  Cl  Cl0  1  0.81285219  0.14962042  0.37144314  1
  Cl  Cl1  1  0.31284783  0.35038415  0.62855276  1
  Cl  Cl2  1  0.18714220  0.85036983  0.62855691  1
  Cl  Cl3  1  0.68715473  0.64961613  0.37144741  1
  Cl  Cl4  1  0.69953971  0.00653736  0.15173400  1
  Cl  Cl5  1  0.19953861  0.49346155  0.84826767  1
  Cl  Cl6  1  0.30046185  0.99346199  0.84826640  1
  Cl  Cl7  1  0.80046205  0.50653840  0.15173438  1
  Cl  Cl8  1  0.00047502  0.12316494  0.62133208  1
  Cl  Cl9  1  0.50046299  0.37683172  0.37867005  1
  Cl  Cl10  1  0.99953669  0.87683206  0.37866940  1
  Cl  Cl11  1  0.49953790  0.62316879  0.62132900  1
  Cl  Cl12  1  0.36142314  0.19031804  0.99886041  1
  Cl  Cl13  1  0.86140668  0.30968359  0.00113573  1
  Cl  Cl14  1  0.63857732  0.80968136  0.00114076  1
  Cl  Cl15  1  0.13857860  0.69031888  0.99886037  1
  Cl  Cl16  1  0.20836726  0.39383408  0.15008853  1
  Cl  Cl17  1  0.70837296  0.10616907  0.84990403  1
  Cl  Cl18  1  0.79163169  0.60616706  0.84991207  1
  Cl  Cl19  1  0.29163196  0.89383564  0.15008907  1
  Cl  Cl20  1  0.22528759  0.60407432  0.40114689  1
  Cl  Cl21  1  0.72528337  0.89592763  0.59885185  1
  Cl  Cl22  1  0.77471364  0.39592544  0.59885258  1
  Cl  Cl23  1  0.27471363  0.10407194  0.40114981  1
loop_
_geom_bond_atom_site_label_1
_geom_bond_atom_site_label_2
_geom_bond_distance
_geom_bond_site_symmetry_2
Cl0 Tl1 2.593008 1_655
Cl0 Rb0 3.157587 1_555
Cl0 Rb8 3.362766 1_655
Cl0 Rb4 3.380183 1_655
Cl0 Rb9 3.631087 1_555
Cl1 Tl0 2.592967 1_555
Cl1 Rb1 3.157620 1_555
Cl1 Rb9 3.362817 1_555
Cl1 Rb5 3.380215 1_555
Cl1 Rb8 3.631031 1_555
Cl2 Tl1 2.593063 1_565
Cl2 Rb2 3.157586 1_555
Cl2 Rb10 3.362655 1_455
Cl2 Rb6 3.380210 1_455
Cl2 Rb11 3.631077 1_555
Cl3 Tl0 2.592989 1_555
Cl3 Rb3 3.157600 1_555
Cl3 Rb11 3.362831 1_555
Cl3 Rb7 3.380235 1_555
Cl3 Rb10 3.631009 1_555
Cl4 Tl2 2.591291 1_555
Cl4 Rb4 3.317477 1_655
Cl4 Rb3 3.516560 1_545
Cl4 Rb0 3.555035 1_555
Cl4 Rb11 3.851342 1_545
Cl5 Tl3 2.591284 1_556
Cl5 Rb5 3.317475 1_555
Cl5 Rb2 3.516573 1_555
Cl5 Rb1 3.555012 1_555
Cl5 Rb10 3.851364 1_455
Cl6 Tl2 2.591291 1_566
Cl6 Rb6 3.317480 1_455
Cl6 Rb1 3.516584 1_565
Cl6 Rb2 3.555009 1_555
Cl6 Rb9 3.851338 1_565
Cl7 Tl3 2.591287 1_655
Cl7 Rb7 3.317481 1_555
Cl7 Rb0 3.516565 1_555
Cl7 Rb3 3.555026 1_555
Cl7 Rb8 3.851340 1_655
Cl8 Tl1 2.562439 1_555
Cl8 Rb1 3.364981 1_555
Cl8 Rb6 3.381389 1_445
Cl8 Rb8 3.460848 1_555
Cl8 Rb9 3.626137 1_455
Cl9 Tl0 2.562467 1_555
Cl9 Rb0 3.364977 1_555
Cl9 Rb7 3.381434 1_555
Cl9 Rb9 3.460824 1_555
Cl9 Rb8 3.626061 1_555
Cl10 Tl1 2.562454 1_665
Cl10 Rb3 3.364954 1_555
Cl10 Rb4 3.381418 1_665
Cl10 Rb10 3.460834 1_555
Cl10 Rb11 3.626056 1_655
Cl11 Tl0 2.562428 1_555
Cl11 Rb2 3.364998 1_555
Cl11 Rb5 3.381431 1_555
Cl11 Rb11 3.460809 1_555
Cl11 Rb10 3.626040 1_555
Cl12 Tl2 2.637414 1_556
Cl12 Rb4 3.286058 1_556
Cl12 Rb5 3.290203 1_555
Cl12 Rb0 3.304907 1_556
Cl12 Rb1 3.317586 1_555
Cl13 Tl3 2.637445 1_655
Cl13 Rb5 3.285953 1_554
Cl13 Rb4 3.290323 1_655
Cl13 Rb1 3.304919 1_654
Cl13 Rb0 3.317528 1_555
Cl14 Tl2 2.637419 1_565
Cl14 Rb6 3.286063 1_554
Cl14 Rb7 3.290186 1_555
Cl14 Rb2 3.304908 1_554
Cl14 Rb3 3.317597 1_555
Cl15 Tl3 2.637432 1_556
Cl15 Rb7 3.286063 1_556
Cl15 Rb6 3.290231 1_455
Cl15 Rb3 3.304914 1_456
Cl15 Rb2 3.317575 1_555
Cl16 Tl3 2.625365 1_555
Cl16 Rb0 3.242479 1_555
Cl16 Rb7 3.444828 1_555
Cl16 Rb8 3.522102 1_555
Cl16 Rb4 3.580583 1_555
Cl17 Tl2 2.625429 1_556
Cl17 Rb1 3.242403 1_655
Cl17 Rb6 3.444788 1_545
Cl17 Rb9 3.522004 1_555
Cl17 Rb5 3.580600 1_555
Cl18 Tl3 2.625353 1_656
Cl18 Rb2 3.242473 1_555
Cl18 Rb5 3.444835 1_555
Cl18 Rb10 3.522110 1_555
Cl18 Rb6 3.580587 1_555
Cl19 Tl2 2.625369 1_565
Cl19 Rb3 3.242449 1_455
Cl19 Rb4 3.444809 1_565
Cl19 Rb11 3.522088 1_555
Cl19 Rb7 3.580616 1_555
Cl20 Tl0 2.678876 1_555
Cl20 Rb7 3.324345 1_555
Cl20 Rb8 3.397609 1_555
Cl20 Rb10 3.517611 1_455
Cl20 Rb11 3.693251 1_555
Cl20 Rb3 3.754666 1_455
Cl21 Tl1 2.678864 1_665
Cl21 Rb6 3.324367 1_555
Cl21 Rb9 3.397600 1_565
Cl21 Rb11 3.517592 1_555
Cl21 Rb10 3.693313 1_555
Cl21 Rb2 3.754657 1_555
Cl22 Tl0 2.678877 1_555
Cl22 Rb5 3.324356 1_555
Cl22 Rb10 3.397596 1_555
Cl22 Rb8 3.517593 1_655
Cl22 Rb9 3.693230 1_555
Cl22 Rb1 3.754679 1_655
Cl23 Tl1 2.678859 1_555
Cl23 Rb4 3.324368 1_555
Cl23 Rb11 3.397603 1_545
Cl23 Rb9 3.517618 1_555
Cl23 Rb8 3.693298 1_555
Cl23 Rb0 3.754691 1_555
