# generated using pymatgen
data_BaYMgCrCuO5
_symmetry_space_group_name_H-M   'P 1'
_cell_length_a   3.73786151
_cell_length_b   4.34785586
_cell_length_c   9.28415585
_cell_angle_alpha   90.00156556
_cell_angle_beta   90.01099272
_cell_angle_gamma   90.00144896
_symmetry_Int_Tables_number   1
_chemical_formula_structural   BaYMgCrCuO5
_chemical_formula_sum   'Ba1 Y1 Mg1 Cr1 Cu1 O5'
_cell_volume   150.88315549
_cell_formula_units_Z   1
loop_
 _symmetry_equiv_pos_site_id
 _symmetry_equiv_pos_as_xyz
  1  'x, y, z'
loop_
 _atom_site_type_symbol
 _atom_site_label
 _atom_site_symmetry_multiplicity
 _atom_site_fract_x
 _atom_site_fract_y
 _atom_site_fract_z
 _atom_site_occupancy
  Ba  Ba0  1  0.00018587  0.00003505  0.83108851  1
  Y  Y0  1  0.99996017  0.99999304  0.42106251  1
  Mg  Mg0  1  0.99986910  0.49999224  0.10920865  1
  Cr  Cr0  1  0.50000379  0.50001510  0.62045303  1
  Cu  Cu0  1  0.50008115  0.49999058  0.33445578  1
  O  O0  1  0.99999575  0.50002174  0.67276894  1
  O  O1  1  0.50002339  0.00001705  0.61215879  1
  O  O2  1  0.00002985  0.49998846  0.32567412  1
  O  O3  1  0.50000053  0.99998404  0.28169803  1
  O  O4  1  0.49984339  0.49995570  0.00435064  1
loop_
_geom_bond_atom_site_label_1
_geom_bond_atom_site_label_2
_geom_bond_distance
_geom_bond_site_symmetry_2
Ba0 O0 2.624192 1_455
Ba0 O0 2.624222 1_445
Ba0 O1 2.761062 1_555
Ba0 O1 2.761356 1_455
Ba0 O4 3.286123 1_556
Ba0 O4 3.286700 1_546
Ba0 O4 3.287992 1_456
Ba0 O4 3.288444 1_446
Mg0 O2 2.009699 1_655
Mg0 O4 2.107202 1_555
Mg0 O4 2.107363 1_655
Cr0 O0 1.930895 1_555
Cr0 O0 1.931133 1_455
Cr0 O1 2.175281 1_555
Cr0 O1 2.175302 1_565
Cu0 O2 1.870532 1_655
Cu0 O2 1.870884 1_555
Cu0 O3 2.228410 1_555
Cu0 O3 2.228440 1_545
O1 Y0 2.576855 1_445
O1 Y0 2.577006 1_545
O2 Y0 2.347388 1_455
O2 Y0 2.347396 1_445
O3 Y0 2.272782 1_555
O3 Y0 2.273439 1_455
