# generated using pymatgen
data_Na8Ca3Hf(PO4)6
_symmetry_space_group_name_H-M   'P 1'
_cell_length_a   9.39486446
_cell_length_b   9.39486412
_cell_length_c   22.90328175
_cell_angle_alpha   90.00000000
_cell_angle_beta   90.00000000
_cell_angle_gamma   120.00000121
_symmetry_Int_Tables_number   1
_chemical_formula_structural   Na8Ca3Hf(PO4)6
_chemical_formula_sum   'Na24 Ca9 Hf3 P18 O72'
_cell_volume   1750.69045523
_cell_formula_units_Z   3
loop_
 _symmetry_equiv_pos_site_id
 _symmetry_equiv_pos_as_xyz
  1  'x, y, z'
loop_
 _atom_site_type_symbol
 _atom_site_label
 _atom_site_symmetry_multiplicity
 _atom_site_fract_x
 _atom_site_fract_y
 _atom_site_fract_z
 _atom_site_occupancy
  Na  Na0  1  0.63531047  0.99964013  0.25277658  1
  Na  Na1  1  0.36432966  0.36468953  0.25277658  1
  Na  Na2  1  0.00035987  0.63567034  0.25277658  1
  Na  Na3  1  0.64964600  0.63914580  0.74064785  1
  Na  Na4  1  0.98949980  0.35035400  0.74064785  1
  Na  Na5  1  0.36085420  0.01050020  0.74064785  1
  Na  Na6  1  0.29557640  0.33574393  0.57716341  1
  Na  Na7  1  0.04016853  0.70442360  0.57716341  1
  Na  Na8  1  0.66425607  0.95983147  0.57716341  1
  Na  Na9  1  0.29710907  0.96057610  0.09280394  1
  Na  Na10  1  0.66346803  0.70289093  0.09280394  1
  Na  Na11  1  0.03942390  0.33653197  0.09280394  1
  Na  Na12  1  0.97567392  0.68083922  0.91379877  1
  Na  Na13  1  0.70516430  0.02432608  0.91379877  1
  Na  Na14  1  0.31916078  0.29483570  0.91379877  1
  Na  Na15  1  0.98307863  0.30424324  0.40613845  1
  Na  Na16  1  0.32116361  0.01692137  0.40613845  1
  Na  Na17  1  0.69575676  0.67883639  0.40613845  1
  Na  Na18  1  0.00000000  0.00000000  0.49565556  1
  Na  Na19  1  0.00000000  0.00000000  0.00716857  1
  Na  Na20  1  0.66666700  0.33333300  0.82685774  1
  Na  Na21  1  0.66666700  0.33333300  0.32308775  1
  Na  Na22  1  0.33333300  0.66666700  0.17812227  1
  Na  Na23  1  0.33333300  0.66666700  0.65494099  1
  Ca  Ca0  1  0.00000000  0.00000000  0.34544304  1
  Ca  Ca1  1  0.00000000  0.00000000  0.84638393  1
  Ca  Ca2  1  0.00000000  0.00000000  0.65141603  1
  Ca  Ca3  1  0.00000000  0.00000000  0.15208000  1
  Ca  Ca4  1  0.66666700  0.33333300  0.68088536  1
  Ca  Ca5  1  0.66666700  0.33333300  0.18230792  1
  Ca  Ca6  1  0.33333300  0.66666700  0.01605227  1
  Ca  Ca7  1  0.33333300  0.66666700  0.51133478  1
  Ca  Ca8  1  0.33333300  0.66666700  0.32218932  1
  Hf  Hf0  1  0.66666700  0.33333300  0.98220875  1
  Hf  Hf1  1  0.66666700  0.33333300  0.48576596  1
  Hf  Hf2  1  0.33333300  0.66666700  0.81925796  1
  P  P0  1  0.30691843  0.99678500  0.24955025  1
  P  P1  1  0.68986657  0.69308157  0.24955025  1
  P  P2  1  0.00321500  0.31013343  0.24955025  1
  P  P3  1  0.30636782  0.31515466  0.75406546  1
  P  P4  1  0.00878684  0.69363218  0.75406546  1
  P  P5  1  0.68484534  0.99121316  0.75406546  1
  P  P6  1  0.96508987  0.33311287  0.58457717  1
  P  P7  1  0.36802400  0.03491013  0.58457717  1
  P  P8  1  0.66688713  0.63197600  0.58457717  1
  P  P9  1  0.95976419  0.62992347  0.07990814  1
  P  P10  1  0.67016028  0.04023581  0.07990814  1
  P  P11  1  0.37007653  0.32983972  0.07990814  1
  P  P12  1  0.62944029  0.65853136  0.91749178  1
  P  P13  1  0.02909006  0.37055971  0.91749178  1
  P  P14  1  0.34146864  0.97090994  0.91749178  1
  P  P15  1  0.64309349  0.98291041  0.42082643  1
  P  P16  1  0.33981592  0.35690651  0.42082643  1
  P  P17  1  0.01708959  0.66018408  0.42082643  1
  O  O0  1  0.21927636  0.00991008  0.30461919  1
  O  O1  1  0.79063371  0.78072364  0.30461919  1
  O  O2  1  0.99008992  0.20936629  0.30461919  1
  O  O3  1  0.22723216  0.21087464  0.80863250  1
  O  O4  1  0.98364248  0.77276784  0.80863250  1
  O  O5  1  0.78912536  0.01635752  0.80863250  1
  O  O6  1  0.75958742  0.95703328  0.69928425  1
  O  O7  1  0.19744586  0.24041258  0.69928425  1
  O  O8  1  0.04296672  0.80255414  0.69928425  1
  O  O9  1  0.77421749  0.79187996  0.19332139  1
  O  O10  1  0.01766246  0.22578251  0.19332139  1
  O  O11  1  0.20812004  0.98233754  0.19332139  1
  O  O12  1  0.89096227  0.34698916  0.64243367  1
  O  O13  1  0.45602789  0.10903773  0.64243367  1
  O  O14  1  0.65301084  0.54397211  0.64243367  1
  O  O15  1  0.87962916  0.53349838  0.13538702  1
  O  O16  1  0.65387022  0.12037084  0.13538702  1
  O  O17  1  0.46650162  0.34612978  0.13538702  1
  O  O18  1  0.47614525  0.32519671  0.02530260  1
  O  O19  1  0.84905246  0.52385475  0.02530260  1
  O  O20  1  0.67480329  0.15094754  0.02530260  1
  O  O21  1  0.47848916  0.14888227  0.53306615  1
  O  O22  1  0.67039410  0.52151084  0.53306615  1
  O  O23  1  0.85111773  0.32960590  0.53306615  1
  O  O24  1  0.55558224  0.68379856  0.97288073  1
  O  O25  1  0.12821531  0.44441776  0.97288073  1
  O  O26  1  0.31620144  0.87178469  0.97288073  1
  O  O27  1  0.56359927  0.87776580  0.47534456  1
  O  O28  1  0.31416554  0.43640073  0.47534456  1
  O  O29  1  0.12223420  0.68583446  0.47534456  1
  O  O30  1  0.09148635  0.62476195  0.36637915  1
  O  O31  1  0.53327461  0.90851365  0.36637915  1
  O  O32  1  0.37523805  0.46672539  0.36637915  1
  O  O33  1  0.12737267  0.48805617  0.86454253  1
  O  O34  1  0.36068250  0.87262733  0.86454253  1
  O  O35  1  0.51194383  0.63931750  0.86454253  1
  O  O36  1  0.99194058  0.80996853  0.41488705  1
  O  O37  1  0.81802795  0.00805942  0.41488705  1
  O  O38  1  0.19003147  0.18197205  0.41488705  1
  O  O39  1  0.00011285  0.19594921  0.90937839  1
  O  O40  1  0.19583635  0.99988715  0.90937839  1
  O  O41  1  0.80405079  0.80416365  0.90937839  1
  O  O42  1  0.97118434  0.17130094  0.58040349  1
  O  O43  1  0.20011660  0.02881566  0.58040349  1
  O  O44  1  0.82869906  0.79988340  0.58040349  1
  O  O45  1  0.96450535  0.79665302  0.07610666  1
  O  O46  1  0.83214768  0.03549465  0.07610666  1
  O  O47  1  0.20334698  0.16785232  0.07610666  1
  O  O48  1  0.65797677  0.14040056  0.74876226  1
  O  O49  1  0.48242479  0.34202323  0.74876226  1
  O  O50  1  0.85959944  0.51757521  0.74876226  1
  O  O51  1  0.67166328  0.51906320  0.24932758  1
  O  O52  1  0.84740092  0.32833672  0.24932758  1
  O  O53  1  0.48093680  0.15259908  0.24932758  1
  O  O54  1  0.63621280  0.49303541  0.91892614  1
  O  O55  1  0.85682361  0.36378720  0.91892614  1
  O  O56  1  0.50696459  0.14317639  0.91892614  1
  O  O57  1  0.66177575  0.15954213  0.42843784  1
  O  O58  1  0.49776738  0.33822425  0.42843784  1
  O  O59  1  0.84045787  0.50223262  0.42843784  1
  O  O60  1  0.34790974  0.48147949  0.07586448  1
  O  O61  1  0.13356874  0.65209026  0.07586448  1
  O  O62  1  0.51852051  0.86643126  0.07586448  1
  O  O63  1  0.34648365  0.86072545  0.57941834  1
  O  O64  1  0.51424080  0.65351635  0.57941834  1
  O  O65  1  0.13927455  0.48575920  0.57941834  1
  O  O66  1  0.32385715  0.84024209  0.25194641  1
  O  O67  1  0.51638394  0.67614285  0.25194641  1
  O  O68  1  0.15975791  0.48361606  0.25194641  1
  O  O69  1  0.32221005  0.49086730  0.76187999  1
  O  O70  1  0.16865625  0.67778995  0.76187999  1
  O  O71  1  0.50913270  0.83134375  0.76187999  1
loop_
_geom_bond_atom_site_label_1
_geom_bond_atom_site_label_2
_geom_bond_distance
_geom_bond_site_symmetry_2
Na0 O53 2.501773 1_565
Na0 O66 2.534350 1_555
Na0 O67 2.662672 1_555
Na0 O52 2.712841 1_565
Na0 O31 2.756978 1_555
Na0 O16 2.889248 1_565
Na1 O51 2.501781 1_555
Na1 O67 2.534350 1_555
Na1 O68 2.662681 1_555
Na1 O53 2.712848 1_555
Na1 O32 2.756980 1_555
Na1 O17 2.889251 1_555
Na2 O52 2.501781 1_455
Na2 O68 2.534342 1_555
Na2 O66 2.662674 1_555
Na2 O51 2.712839 1_455
Na2 O30 2.756977 1_555
Na2 O15 2.889249 1_455
Na3 O14 2.426660 1_555
Na3 O49 2.430909 1_555
Na3 O69 2.711982 1_555
Na3 O50 2.735428 1_555
Na3 O71 2.761029 1_555
Na3 O6 2.792645 1_555
Na4 O12 2.426657 1_555
Na4 O50 2.430901 1_555
Na4 O70 2.711981 1_655
Na4 O48 2.735421 1_555
Na4 O69 2.761020 1_655
Na4 O7 2.792645 1_655
Na5 O13 2.426659 1_555
Na5 O48 2.430909 1_555
Na5 O71 2.711973 1_545
Na5 O49 2.735419 1_555
Na5 O70 2.761021 1_545
Na5 O8 2.792645 1_545
Na6 O28 2.489533 1_555
Na6 O65 2.492965 1_555
Na6 O43 2.557071 1_555
Na6 O42 2.640443 1_455
Na6 O64 2.646254 1_555
Na6 O7 2.940989 1_555
Na7 O29 2.489526 1_555
Na7 O63 2.492948 1_555
Na7 O44 2.557080 1_455
Na7 O43 2.640443 1_565
Na7 O65 2.646240 1_555
Na7 O8 2.940991 1_555
Na8 O27 2.489530 1_555
Na8 O64 2.492948 1_555
Na8 O42 2.557073 1_565
Na8 O44 2.640435 1_555
Na8 O63 2.646258 1_555
Na8 O6 2.940988 1_555
Na9 O11 2.492331 1_555
Na9 O47 2.535680 1_565
Na9 O61 2.541210 1_555
Na9 O62 2.664506 1_555
Na9 O45 2.733107 1_455
Na9 O26 2.902011 1_554
Na10 O9 2.492329 1_555
Na10 O45 2.535671 1_555
Na10 O62 2.541226 1_555
Na10 O60 2.664520 1_555
Na10 O46 2.733107 1_565
Na10 O24 2.902017 1_554
Na11 O10 2.492328 1_555
Na11 O46 2.535673 1_455
Na11 O60 2.541209 1_555
Na11 O61 2.664524 1_555
Na11 O47 2.733099 1_555
Na11 O25 2.902015 1_554
Na12 O41 2.412576 1_555
Na12 O4 2.547245 1_555
Na12 O55 2.609032 1_555
Na12 O40 2.659540 1_655
Na12 O54 2.769626 1_555
Na12 O19 2.890977 1_556
Na13 O39 2.412584 1_655
Na13 O5 2.547248 1_555
Na13 O56 2.609014 1_555
Na13 O41 2.659547 1_545
Na13 O55 2.769624 1_555
Na13 O20 2.890972 1_556
Na14 O40 2.412584 1_545
Na14 O3 2.547247 1_555
Na14 O54 2.609029 1_555
Na14 O39 2.659539 1_555
Na14 O56 2.769641 1_555
Na14 O18 2.890980 1_556
Na15 O37 2.423367 1_555
Na15 O2 2.502753 1_555
Na15 O57 2.667817 1_555
Na15 O38 2.715408 1_655
Na15 O30 2.804846 1_655
Na15 O59 2.829916 1_555
Na16 O38 2.423359 1_555
Na16 O0 2.502749 1_555
Na16 O58 2.667818 1_555
Na16 O36 2.715400 1_445
Na16 O31 2.804846 1_545
Na16 O57 2.829933 1_555
Na17 O36 2.423368 1_555
Na17 O1 2.502751 1_555
Na17 O59 2.667833 1_555
Na17 O37 2.715399 1_565
Na17 O32 2.804846 1_555
Na17 O58 2.829931 1_555
Na18 O36 2.545568 1_445
Na18 O38 2.545568 1_555
Na18 O37 2.545568 1_455
Na18 O44 2.620397 1_445
Na18 O42 2.620397 1_455
Na18 O43 2.620397 1_555
Na19 O46 2.369976 1_455
Na19 O47 2.369976 1_555
Na19 O45 2.369976 1_445
Na19 O41 2.898853 1_444
Na19 O40 2.898853 1_544
Na19 O39 2.898853 1_554
Na20 O48 2.518600 1_555
Na20 O50 2.518600 1_555
Na20 O49 2.518601 1_555
Na20 O56 2.684915 1_555
Na20 O54 2.684915 1_555
Na20 O55 2.684915 1_555
Na21 O51 2.412242 1_555
Na21 O53 2.412242 1_555
Na21 O52 2.412242 1_555
Na21 O57 2.900833 1_555
Na21 O59 2.900833 1_555
Na21 O58 2.900834 1_555
Na22 O68 2.381425 1_555
Na22 O66 2.381425 1_555
Na22 O67 2.381425 1_555
Na22 O60 2.961268 1_555
Na22 O62 2.961268 1_555
Na22 O61 2.961268 1_555
Na23 O63 2.470996 1_555
Na23 O65 2.470996 1_555
Na23 O64 2.470996 1_555
Na23 O69 2.926603 1_555
Na23 O71 2.926603 1_555
Na23 O70 2.926603 1_555
Ca0 O1 2.221483 1_445
Ca0 O0 2.221483 1_555
Ca0 O2 2.221483 1_455
Ca0 O36 2.363810 1_445
Ca0 O38 2.363810 1_555
Ca0 O37 2.363810 1_455
Ca1 O4 2.236195 1_445
Ca1 O3 2.236195 1_555
Ca1 O5 2.236195 1_455
Ca1 O41 2.338511 1_445
Ca1 O40 2.338511 1_545
Ca1 O39 2.338511 1_555
Ca2 O7 2.356828 1_555
Ca2 O8 2.356828 1_545
Ca2 O6 2.356828 1_445
Ca2 O44 2.396710 1_445
Ca2 O42 2.396710 1_455
Ca2 O43 2.396710 1_555
Ca3 O9 2.251049 1_445
Ca3 O11 2.251049 1_545
Ca3 O10 2.251049 1_555
Ca3 O46 2.480235 1_455
Ca3 O47 2.480235 1_555
Ca3 O45 2.480235 1_445
Ca4 O13 2.227572 1_555
Ca4 O14 2.227572 1_555
Ca4 O12 2.227572 1_555
Ca4 O48 2.358156 1_555
Ca4 O50 2.358156 1_555
Ca4 O49 2.358156 1_555
Ca5 O16 2.220760 1_555
Ca5 O15 2.220760 1_555
Ca5 O17 2.220760 1_555
Ca5 O51 2.306760 1_555
Ca5 O53 2.306760 1_555
Ca5 O52 2.306760 1_555
Ca6 O25 2.242155 1_554
Ca6 O24 2.242155 1_554
Ca6 O26 2.242155 1_554
Ca6 O60 2.271690 1_555
Ca6 O62 2.271690 1_555
Ca6 O61 2.271690 1_555
Ca7 O27 2.236578 1_555
Ca7 O29 2.236578 1_555
Ca7 O28 2.236578 1_555
Ca7 O63 2.354875 1_555
Ca7 O65 2.354875 1_555
Ca7 O64 2.354875 1_555
Ca8 O68 2.323907 1_555
Ca8 O66 2.323907 1_555
Ca8 O67 2.323907 1_555
Ca8 O31 2.333950 1_555
Ca8 O30 2.333950 1_555
Ca8 O32 2.333950 1_555
Hf0 O19 2.011718 1_556
Hf0 O20 2.011718 1_556
Hf0 O18 2.011718 1_556
Hf0 O56 2.205218 1_555
Hf0 O54 2.205218 1_555
Hf0 O55 2.205218 1_555
Hf1 O21 2.058741 1_555
Hf1 O23 2.058741 1_555
Hf1 O22 2.058741 1_555
Hf1 O57 2.077716 1_555
Hf1 O59 2.077716 1_555
Hf1 O58 2.077716 1_555
Hf2 O69 2.071988 1_555
Hf2 O71 2.071988 1_555
Hf2 O70 2.071988 1_555
Hf2 O34 2.094912 1_555
Hf2 O33 2.094912 1_555
Hf2 O35 2.094913 1_555
O0 P0 1.544498 1_545
O1 P1 1.544498 1_555
O2 P2 1.544498 1_655
O3 P3 1.531695 1_555
O4 P4 1.531695 1_655
O5 P5 1.531695 1_545
O6 P5 1.547859 1_555
O7 P3 1.547859 1_555
O8 P4 1.547859 1_555
O9 P1 1.553217 1_555
O10 P2 1.553217 1_555
O11 P0 1.553217 1_555
O12 P6 1.532541 1_555
O13 P7 1.532541 1_555
O14 P8 1.532541 1_555
O15 P9 1.523149 1_555
O16 P10 1.523149 1_555
O17 P11 1.523149 1_555
O18 P11 1.613227 1_555
O19 P9 1.613227 1_555
O20 P10 1.613227 1_555
O21 P7 1.582460 1_555
O22 P8 1.582460 1_555
O23 P6 1.582460 1_555
O24 P12 1.520481 1_555
O25 P13 1.520481 1_555
O26 P14 1.520481 1_555
O27 P15 1.534576 1_555
O28 P16 1.534576 1_555
O29 P17 1.534576 1_555
O30 P17 1.544971 1_555
O31 P15 1.544971 1_555
O32 P16 1.544971 1_555
O33 P13 1.588241 1_555
O34 P14 1.588241 1_555
O35 P12 1.588241 1_555
O36 P17 1.545003 1_655
O37 P15 1.545013 1_545
O38 P16 1.545009 1_555
O39 P13 1.533983 1_555
O40 P14 1.533974 1_555
O41 P12 1.533980 1_555
O42 P6 1.552569 1_555
O43 P7 1.552578 1_555
O44 P8 1.552573 1_555
O45 P9 1.547064 1_555
O46 P10 1.547055 1_555
O47 P11 1.547059 1_555
O48 P5 1.548141 1_545
O49 P3 1.548151 1_555
O50 P4 1.548147 1_655
O51 P1 1.556441 1_555
O52 P2 1.556432 1_655
O53 P0 1.556437 1_545
O54 P12 1.587922 1_555
O55 P13 1.587903 1_655
O56 P14 1.587912 1_545
O57 P15 1.588600 1_545
O58 P16 1.588618 1_555
O59 P17 1.588607 1_655
O60 P11 1.542147 1_555
O61 P9 1.542128 1_455
O62 P10 1.542136 1_565
O63 P7 1.549739 1_565
O64 P8 1.549757 1_555
O65 P6 1.549746 1_455
O66 P0 1.557349 1_555
O67 P1 1.557358 1_555
O68 P2 1.557354 1_555
O69 P3 1.591734 1_555
O70 P4 1.591725 1_555
O71 P5 1.591730 1_555
