# generated using pymatgen
data_KMgMn16O32
_symmetry_space_group_name_H-M   'P 1'
_cell_length_a   5.89300972
_cell_length_b   9.70949640
_cell_length_c   10.26226020
_cell_angle_alpha   88.61393084
_cell_angle_beta   89.60901479
_cell_angle_gamma   90.18288507
_symmetry_Int_Tables_number   1
_chemical_formula_structural   KMgMn16O32
_chemical_formula_sum   'K1 Mg1 Mn16 O32'
_cell_volume   586.99882386
_cell_formula_units_Z   1
loop_
 _symmetry_equiv_pos_site_id
 _symmetry_equiv_pos_as_xyz
  1  'x, y, z'
loop_
 _atom_site_type_symbol
 _atom_site_label
 _atom_site_symmetry_multiplicity
 _atom_site_fract_x
 _atom_site_fract_y
 _atom_site_fract_z
 _atom_site_occupancy
  K  K0  1  0.01273700  0.49497500  0.50275200  1
  Mg  Mg0  1  0.74654000  0.98062300  0.85699100  1
  Mn  Mn0  1  0.49713900  0.17102200  0.35260500  1
  Mn  Mn1  1  0.99567700  0.16886200  0.34957700  1
  Mn  Mn2  1  0.50674100  0.34204300  0.84003000  1
  Mn  Mn3  1  0.00460700  0.34196900  0.84264400  1
  Mn  Mn4  1  0.00028300  0.65768500  0.16061200  1
  Mn  Mn5  1  0.50056000  0.65570200  0.16276400  1
  Mn  Mn6  1  0.99812800  0.82916400  0.64317400  1
  Mn  Mn7  1  0.49691100  0.82556700  0.64116300  1
  Mn  Mn8  1  0.75016200  0.66660600  0.85036000  1
  Mn  Mn9  1  0.25035900  0.67731200  0.85723400  1
  Mn  Mn10  1  0.74924200  0.84458900  0.33509400  1
  Mn  Mn11  1  0.24969400  0.84572100  0.33472800  1
  Mn  Mn12  1  0.74869300  0.16406700  0.65271600  1
  Mn  Mn13  1  0.24781000  0.14742500  0.66648300  1
  Mn  Mn14  1  0.75058800  0.33123400  0.14711400  1
  Mn  Mn15  1  0.25074600  0.33013500  0.14628700  1
  O  O0  1  0.74581800  0.95796000  0.64804100  1
  O  O1  1  0.24976900  0.95241600  0.64022600  1
  O  O2  1  0.75023200  0.68581000  0.04130300  1
  O  O3  1  0.25259700  0.68574000  0.04490500  1
  O  O4  1  0.75193300  0.31804500  0.96084800  1
  O  O5  1  0.25595300  0.31655700  0.96080500  1
  O  O6  1  0.74595700  0.04195600  0.34857900  1
  O  O7  1  0.24843100  0.04247000  0.34908000  1
  O  O8  1  0.00122800  0.45908500  0.15107500  1
  O  O9  1  0.50064600  0.45873800  0.15043200  1
  O  O10  1  0.99352200  0.18553800  0.53434800  1
  O  O11  1  0.49681200  0.18356400  0.54010200  1
  O  O12  1  0.49801200  0.81512200  0.45413200  1
  O  O13  1  0.99879200  0.81401400  0.45486300  1
  O  O14  1  0.50476900  0.54016600  0.85119600  1
  O  O15  1  0.00219100  0.54703800  0.85169800  1
  O  O16  1  0.51351100  0.81431300  0.83458300  1
  O  O17  1  0.97405200  0.81894700  0.83528400  1
  O  O18  1  0.00017800  0.85225200  0.21002900  1
  O  O19  1  0.50184300  0.85054600  0.20981600  1
  O  O20  1  0.99925800  0.19946700  0.15776500  1
  O  O21  1  0.50069500  0.19875500  0.16213900  1
  O  O22  1  0.52998800  0.13830800  0.79579200  1
  O  O23  1  0.98093600  0.13270300  0.78683100  1
  O  O24  1  0.74962400  0.30270700  0.33730800  1
  O  O25  1  0.24620400  0.30258600  0.33721500  1
  O  O26  1  0.75456500  0.35090900  0.70989700  1
  O  O27  1  0.25316000  0.34106500  0.71644300  1
  O  O28  1  0.75064200  0.69471400  0.65762500  1
  O  O29  1  0.24442000  0.69800800  0.66225900  1
  O  O30  1  0.75055100  0.65057500  0.28843000  1
  O  O31  1  0.24709200  0.65088200  0.28846800  1
loop_
_geom_bond_atom_site_label_1
_geom_bond_atom_site_label_2
_geom_bond_distance
_geom_bond_site_symmetry_2
K0 O25 2.899346 1_555
K0 O26 2.930648 1_455
K0 O29 2.932433 1_555
K0 O28 2.967738 1_455
K0 O31 2.969642 1_555
K0 O24 2.990415 1_455
K0 O27 2.991151 1_555
K0 O10 3.015798 1_455
K0 O30 3.067205 1_455
K0 O13 3.126115 1_455
Mg0 O17 2.082716 1_555
Mg0 O22 2.084216 1_565
Mg0 O23 2.128089 1_565
Mg0 O16 2.134087 1_555
Mg0 O0 2.160880 1_555
Mn0 O7 1.923168 1_555
Mn0 O11 1.930918 1_555
Mn0 O6 1.932754 1_555
Mn0 O24 1.961694 1_555
Mn0 O25 1.961879 1_555
Mn0 O21 1.966570 1_555
Mn1 O10 1.906927 1_555
Mn1 O6 1.916575 1_555
Mn1 O7 1.932997 1_655
Mn1 O24 1.952899 1_555
Mn1 O25 1.964380 1_655
Mn1 O20 1.983567 1_555
Mn2 O4 1.921451 1_555
Mn2 O14 1.929917 1_555
Mn2 O5 1.933756 1_555
Mn2 O27 1.966745 1_555
Mn2 O26 1.972494 1_555
Mn2 O22 2.045074 1_555
Mn3 O4 1.924081 1_455
Mn3 O5 1.933276 1_555
Mn3 O27 1.948729 1_555
Mn3 O15 1.995619 1_555
Mn3 O26 2.014211 1_455
Mn3 O23 2.128753 1_455
Mn4 O3 1.911195 1_555
Mn4 O8 1.933175 1_555
Mn4 O2 1.938054 1_455
Mn4 O30 1.964631 1_455
Mn4 O31 1.965663 1_555
Mn4 O18 1.967844 1_555
Mn5 O9 1.919658 1_555
Mn5 O3 1.921711 1_555
Mn5 O2 1.938688 1_555
Mn5 O19 1.963774 1_555
Mn5 O30 1.964484 1_555
Mn5 O31 1.966660 1_555
Mn6 O1 1.902212 1_655
Mn6 O13 1.941610 1_555
Mn6 O29 1.941709 1_655
Mn6 O0 1.947050 1_555
Mn6 O28 1.956716 1_555
Mn6 O17 1.975689 1_555
Mn7 O1 1.910296 1_555
Mn7 O12 1.924454 1_555
Mn7 O29 1.940527 1_555
Mn7 O0 1.950055 1_555
Mn7 O28 1.970707 1_555
Mn7 O16 1.988383 1_555
Mn8 O15 1.887947 1_655
Mn8 O14 1.893792 1_555
Mn8 O2 1.972846 1_556
Mn8 O17 1.981489 1_555
Mn8 O28 1.990068 1_555
Mn8 O16 2.008113 1_555
Mn9 O3 1.929776 1_556
Mn9 O15 1.932554 1_555
Mn9 O29 2.006662 1_555
Mn9 O14 2.010035 1_555
Mn9 O16 2.048242 1_555
Mn9 O17 2.144187 1_455
Mn10 O6 1.924810 1_565
Mn10 O12 1.929184 1_555
Mn10 O13 1.941981 1_555
Mn10 O19 1.950454 1_555
Mn10 O18 1.951489 1_655
Mn10 O30 1.954914 1_555
Mn11 O7 1.919586 1_565
Mn11 O12 1.934105 1_555
Mn11 O13 1.937713 1_455
Mn11 O19 1.955508 1_555
Mn11 O18 1.956033 1_555
Mn11 O31 1.961589 1_555
Mn12 O10 1.887468 1_555
Mn12 O11 1.894544 1_555
Mn12 O26 1.920424 1_555
Mn12 O22 1.958020 1_555
Mn12 O23 1.966771 1_555
Mn12 O0 2.002950 1_545
Mn13 O1 1.919018 1_545
Mn13 O27 1.960940 1_555
Mn13 O11 1.976643 1_555
Mn13 O23 1.995654 1_455
Mn13 O10 2.056272 1_455
Mn13 O22 2.135253 1_555
Mn14 O4 1.918847 1_554
Mn14 O8 1.927642 1_655
Mn14 O9 1.927761 1_555
Mn14 O20 1.950287 1_555
Mn14 O21 1.955040 1_555
Mn14 O24 1.964698 1_555
Mn15 O5 1.911248 1_554
Mn15 O9 1.929095 1_555
Mn15 O8 1.935425 1_555
Mn15 O20 1.948922 1_455
Mn15 O21 1.956660 1_555
Mn15 O25 1.971094 1_555
