# generated using pymatgen
data_MgMn4Zn2O8
_symmetry_space_group_name_H-M   'P 1'
_cell_length_a   2.97677906
_cell_length_b   5.37464504
_cell_length_c   11.98564502
_cell_angle_alpha   94.02272151
_cell_angle_beta   87.81014093
_cell_angle_gamma   105.10777229
_symmetry_Int_Tables_number   1
_chemical_formula_structural   MgMn4Zn2O8
_chemical_formula_sum   'Mg1 Mn4 Zn2 O8'
_cell_volume   184.63651452
_cell_formula_units_Z   1
loop_
 _symmetry_equiv_pos_site_id
 _symmetry_equiv_pos_as_xyz
  1  'x, y, z'
loop_
 _atom_site_type_symbol
 _atom_site_label
 _atom_site_symmetry_multiplicity
 _atom_site_fract_x
 _atom_site_fract_y
 _atom_site_fract_z
 _atom_site_occupancy
  Mg  Mg0  1  0.67370513  0.35850568  0.76022999  1
  Mn  Mn0  1  0.82140988  0.73503673  0.11263141  1
  Mn  Mn1  1  0.09051996  0.22249667  0.98928733  1
  Mn  Mn2  1  0.97799238  0.80805755  0.40292118  1
  Mn  Mn3  1  0.19003324  0.33565036  0.53433440  1
  Zn  Zn0  1  0.44861139  0.87149171  0.64192941  1
  Zn  Zn1  1  0.56706307  0.23482426  0.22607412  1
  O  O0  1  0.37251571  0.55689599  0.39609486  1
  O  O1  1  0.81272812  0.59364346  0.63420085  1
  O  O2  1  0.68817661  0.40752421  0.92202927  1
  O  O3  1  0.17586119  0.45770531  0.14431436  1
  O  O4  1  0.95690891  0.99065262  0.26020780  1
  O  O5  1  0.07777255  0.13786126  0.70220535  1
  O  O6  1  0.47234690  0.99058771  0.03811589  1
  O  O7  1  0.54935696  0.03656747  0.48542477  1
loop_
_geom_bond_atom_site_label_1
_geom_bond_atom_site_label_2
_geom_bond_distance
_geom_bond_site_symmetry_2
Mg0 O2 1.939282 1_555
Mg0 O5 1.975011 1_655
Mg0 O5 1.979619 1_555
Mg0 O1 1.999395 1_555
Mn0 O3 2.099786 1_655
Mn0 O3 2.142260 1_555
Mn0 O4 2.145578 1_555
Mn0 O6 2.179637 1_555
Mn0 O6 2.256402 1_655
Mn0 O2 2.759681 1_554
Mn1 O2 1.969865 1_455
Mn1 O2 1.970935 1_555
Mn1 O6 2.019816 1_546
Mn1 O6 2.026509 1_446
Mn1 O3 2.157378 1_556
Mn2 O0 1.950636 1_555
Mn2 O0 2.002929 1_655
Mn2 O4 2.041749 1_555
Mn2 O7 2.061138 1_665
Mn2 O7 2.159704 1_565
Mn3 O0 2.079736 1_555
Mn3 O7 2.188111 1_555
Mn3 O7 2.218106 1_455
Mn3 O1 2.256796 1_455
Mn3 O5 2.313782 1_555
Mn3 O1 2.321260 1_555
O1 Zn0 2.056725 1_555
O1 Zn0 2.083783 1_655
O3 Zn1 2.139368 1_455
O3 Zn1 2.174961 1_555
O4 Zn1 1.991123 1_665
O4 Zn1 2.035142 1_565
O5 Zn0 2.099497 1_545
O5 Zn0 2.154018 1_445
O6 Zn1 2.513653 1_565
O7 Zn0 2.108928 1_545
