# generated using pymatgen
data_Li3Cr2(PO4)3
_symmetry_space_group_name_H-M   'P 1'
_cell_length_a   8.72764900
_cell_length_b   8.67199700
_cell_length_c   14.97904774
_cell_angle_alpha   54.57332446
_cell_angle_beta   90.00000000
_cell_angle_gamma   90.00000000
_symmetry_Int_Tables_number   1
_chemical_formula_structural   Li3Cr2(PO4)3
_chemical_formula_sum   'Li12 Cr8 P12 O48'
_cell_volume   923.80973312
_cell_formula_units_Z   4
loop_
 _symmetry_equiv_pos_site_id
 _symmetry_equiv_pos_as_xyz
  1  'x, y, z'
loop_
 _atom_site_type_symbol
 _atom_site_label
 _atom_site_symmetry_multiplicity
 _atom_site_fract_x
 _atom_site_fract_y
 _atom_site_fract_z
 _atom_site_occupancy
  Li  Li0  1  0.92853400  0.34171400  0.71277700  1
  Li  Li1  1  0.26868500  0.37884100  0.81426000  1
  Li  Li2  1  0.22788200  0.04468000  0.18094300  1
  Li  Li3  1  0.72788200  0.95532000  0.31905700  1
  Li  Li4  1  0.76868500  0.62115900  0.68574000  1
  Li  Li5  1  0.42853400  0.65828600  0.78722300  1
  Li  Li6  1  0.57146600  0.34171400  0.21277700  1
  Li  Li7  1  0.23131500  0.37884100  0.31426000  1
  Li  Li8  1  0.27211800  0.04468000  0.68094300  1
  Li  Li9  1  0.77211800  0.95532000  0.81905700  1
  Li  Li10  1  0.73131500  0.62115900  0.18574000  1
  Li  Li11  1  0.07146600  0.65828600  0.28722300  1
  Cr  Cr0  1  0.46263000  0.63197800  0.61110200  1
  Cr  Cr1  1  0.54088500  0.13396700  0.11307100  1
  Cr  Cr2  1  0.04088500  0.86603300  0.38692900  1
  Cr  Cr3  1  0.96263000  0.36802200  0.88889800  1
  Cr  Cr4  1  0.03737000  0.63197800  0.11110200  1
  Cr  Cr5  1  0.95911500  0.13396700  0.61307100  1
  Cr  Cr6  1  0.45911500  0.86603300  0.88692900  1
  Cr  Cr7  1  0.53737000  0.36802200  0.38889800  1
  P  P0  1  0.75169400  0.54124600  0.50186300  1
  P  P1  1  0.89983000  0.96320200  0.14560700  1
  P  P2  1  0.60757200  0.25162400  0.85344100  1
  P  P3  1  0.39983000  0.03679800  0.35439300  1
  P  P4  1  0.10757200  0.74837600  0.64655900  1
  P  P5  1  0.25169400  0.45875400  0.99813700  1
  P  P6  1  0.74830600  0.54124600  0.00186300  1
  P  P7  1  0.89242800  0.25162400  0.35344100  1
  P  P8  1  0.60017000  0.96320200  0.64560700  1
  P  P9  1  0.39242800  0.74837600  0.14655900  1
  P  P10  1  0.10017000  0.03679800  0.85439300  1
  P  P11  1  0.24830600  0.45875400  0.49813700  1
  O  O0  1  0.14079500  0.62824600  0.42130700  1
  O  O1  1  0.35424700  0.48569200  0.56896400  1
  O  O2  1  0.39936400  0.91085500  0.16117800  1
  O  O3  1  0.09126000  0.23222000  0.83807600  1
  O  O4  1  0.84316300  0.72574600  0.42127800  1
  O  O5  1  0.57543300  0.18406700  0.97031300  1
  O  O6  1  0.66646400  0.57284100  0.58147000  1
  O  O7  1  0.94468700  0.12648200  0.03139600  1
  O  O8  1  0.73724900  0.98111400  0.17913200  1
  O  O9  1  0.77198600  0.34121500  0.81606000  1
  O  O10  1  0.02231300  0.94003200  0.22936800  1
  O  O11  1  0.48614800  0.40868300  0.77787500  1
  O  O12  1  0.98614800  0.59131700  0.72212500  1
  O  O13  1  0.52231300  0.05996800  0.27063200  1
  O  O14  1  0.27198600  0.65878500  0.68394000  1
  O  O15  1  0.23724900  0.01888600  0.32086800  1
  O  O16  1  0.44468700  0.87351800  0.46860400  1
  O  O17  1  0.16646400  0.42715900  0.91853000  1
  O  O18  1  0.07543300  0.81593300  0.52968700  1
  O  O19  1  0.34316300  0.27425400  0.07872200  1
  O  O20  1  0.89936400  0.08914500  0.33882200  1
  O  O21  1  0.59126000  0.76778000  0.66192400  1
  O  O22  1  0.64079500  0.37175400  0.07869300  1
  O  O23  1  0.85424700  0.51430800  0.93103600  1
  O  O24  1  0.14575300  0.48569200  0.06896400  1
  O  O25  1  0.35920500  0.62824600  0.92130700  1
  O  O26  1  0.40874000  0.23222000  0.33807600  1
  O  O27  1  0.10063600  0.91085500  0.66117800  1
  O  O28  1  0.65683700  0.72574600  0.92127800  1
  O  O29  1  0.92456700  0.18406700  0.47031300  1
  O  O30  1  0.83353600  0.57284100  0.08147000  1
  O  O31  1  0.55531300  0.12648200  0.53139600  1
  O  O32  1  0.76275100  0.98111400  0.67913200  1
  O  O33  1  0.72801400  0.34121500  0.31606000  1
  O  O34  1  0.47768700  0.94003200  0.72936800  1
  O  O35  1  0.01385200  0.40868300  0.27787500  1
  O  O36  1  0.51385200  0.59131700  0.22212500  1
  O  O37  1  0.97768700  0.05996800  0.77063200  1
  O  O38  1  0.22801400  0.65878500  0.18394000  1
  O  O39  1  0.26275100  0.01888600  0.82086800  1
  O  O40  1  0.05531300  0.87351800  0.96860400  1
  O  O41  1  0.33353600  0.42715900  0.41853000  1
  O  O42  1  0.42456700  0.81593300  0.02968700  1
  O  O43  1  0.15683700  0.27425400  0.57872200  1
  O  O44  1  0.90874000  0.76778000  0.16192400  1
  O  O45  1  0.60063600  0.08914500  0.83882200  1
  O  O46  1  0.64575300  0.51430800  0.43103600  1
  O  O47  1  0.85920500  0.37175400  0.57869300  1
loop_
_geom_bond_atom_site_label_1
_geom_bond_atom_site_label_2
_geom_bond_distance
_geom_bond_site_symmetry_2
Li0 O47 1.965015 1_555
Li0 O9 2.062155 1_555
Li0 O3 2.091687 1_655
Li0 O37 2.109508 1_555
Li0 O12 2.304156 1_555
Li1 O3 1.901570 1_555
Li1 O11 1.950045 1_555
Li1 O17 2.041968 1_555
Li1 O14 2.052071 1_555
Li2 O19 1.945844 1_555
Li2 O10 1.950766 1_545
Li2 O15 1.976403 1_555
Li2 O2 2.018100 1_545
Li3 O4 1.945844 1_555
Li3 O13 1.950766 1_565
Li3 O8 1.976403 1_555
Li3 O20 2.018100 1_565
Li4 O21 1.901570 1_555
Li4 O12 1.950045 1_555
Li4 O6 2.041968 1_555
Li4 O9 2.052071 1_555
Li5 O25 1.965015 1_555
Li5 O14 2.062155 1_555
Li5 O21 2.091687 1_555
Li5 O34 2.109508 1_555
Li5 O11 2.304156 1_555
Li6 O22 1.965015 1_555
Li6 O33 2.062155 1_555
Li6 O26 2.091687 1_555
Li6 O13 2.109508 1_555
Li6 O36 2.304156 1_555
Li7 O26 1.901570 1_555
Li7 O35 1.950045 1_555
Li7 O41 2.041968 1_555
Li7 O38 2.052071 1_555
Li8 O43 1.945844 1_555
Li8 O34 1.950766 1_545
Li8 O39 1.976403 1_555
Li8 O27 2.018100 1_545
Li9 O28 1.945844 1_555
Li9 O37 1.950766 1_565
Li9 O32 1.976403 1_555
Li9 O45 2.018100 1_565
Li10 O44 1.901570 1_555
Li10 O36 1.950045 1_555
Li10 O30 2.041968 1_555
Li10 O33 2.052071 1_555
Li11 O0 1.965015 1_555
Li11 O38 2.062155 1_555
Li11 O44 2.091687 1_455
Li11 O10 2.109508 1_555
Li11 O35 2.304156 1_555
Cr0 O16 1.945445 1_555
Cr0 O1 1.957241 1_555
Cr0 O6 1.971983 1_555
Cr0 O21 2.065457 1_555
Cr0 O14 2.075317 1_555
Cr0 O11 2.103399 1_555
Cr1 O5 1.943005 1_554
Cr1 O19 1.999239 1_555
Cr1 O22 2.011636 1_555
Cr1 O8 2.037814 1_545
Cr1 O2 2.042557 1_545
Cr1 O13 2.062132 1_555
Cr2 O18 1.943005 1_555
Cr2 O4 1.999239 1_455
Cr2 O0 2.011636 1_555
Cr2 O15 2.037814 1_565
Cr2 O20 2.042557 1_465
Cr2 O10 2.062132 1_555
Cr3 O7 1.945445 1_556
Cr3 O23 1.957241 1_555
Cr3 O17 1.971983 1_655
Cr3 O3 2.065457 1_655
Cr3 O9 2.075317 1_555
Cr3 O12 2.103399 1_555
Cr4 O40 1.945445 1_554
Cr4 O24 1.957241 1_555
Cr4 O30 1.971983 1_455
Cr4 O44 2.065457 1_455
Cr4 O38 2.075317 1_555
Cr4 O35 2.103399 1_555
Cr5 O29 1.943005 1_555
Cr5 O43 1.999239 1_655
Cr5 O47 2.011636 1_555
Cr5 O32 2.037814 1_545
Cr5 O27 2.042557 1_645
Cr5 O37 2.062132 1_555
Cr6 O42 1.943005 1_556
Cr6 O28 1.999239 1_555
Cr6 O25 2.011636 1_555
Cr6 O39 2.037814 1_565
Cr6 O45 2.042557 1_565
Cr6 O34 2.062132 1_555
Cr7 O31 1.945445 1_555
Cr7 O46 1.957241 1_555
Cr7 O41 1.971983 1_555
Cr7 O26 2.065457 1_555
Cr7 O33 2.075317 1_555
Cr7 O36 2.103399 1_555
O0 P11 1.550562 1_555
O1 P11 1.523930 1_555
O2 P9 1.547465 1_555
O3 P10 1.567671 1_555
O4 P0 1.554118 1_555
O5 P2 1.515783 1_555
O6 P0 1.558548 1_555
O7 P1 1.508852 1_545
O8 P1 1.542775 1_555
O9 P2 1.572223 1_555
O10 P1 1.570037 1_455
O11 P2 1.572280 1_555
O12 P4 1.572280 1_655
O13 P3 1.570037 1_555
O14 P4 1.572223 1_555
O15 P3 1.542775 1_555
O16 P3 1.508852 1_565
O17 P5 1.558548 1_555
O18 P4 1.515783 1_555
O19 P5 1.554118 1_554
O20 P7 1.547465 1_555
O21 P8 1.567671 1_555
O22 P6 1.550562 1_555
O23 P6 1.523930 1_556
O24 P5 1.523930 1_554
O25 P5 1.550562 1_555
O26 P3 1.567671 1_555
O27 P4 1.547465 1_555
O28 P6 1.554118 1_556
O29 P7 1.515783 1_555
O30 P6 1.558548 1_555
O31 P8 1.508852 1_545
O32 P8 1.542775 1_555
O33 P7 1.572223 1_555
O34 P8 1.570037 1_555
O35 P7 1.572280 1_455
O36 P9 1.572280 1_555
O37 P10 1.570037 1_655
O38 P9 1.572223 1_555
O39 P10 1.542775 1_555
O40 P10 1.508852 1_565
O41 P11 1.558548 1_555
O42 P9 1.515783 1_555
O43 P11 1.554118 1_555
O44 P1 1.567671 1_555
O45 P2 1.547465 1_555
O46 P0 1.523930 1_555
O47 P0 1.550562 1_555
