# generated using pymatgen
data_Na5Hf2Si3Ge2(PO8)3
_symmetry_space_group_name_H-M   'P 1'
_cell_length_a   8.83229331
_cell_length_b   8.82124564
_cell_length_c   22.19651567
_cell_angle_alpha   90.11321011
_cell_angle_beta   89.74208759
_cell_angle_gamma   119.69930322
_symmetry_Int_Tables_number   1
_chemical_formula_structural   Na5Hf2Si3Ge2(PO8)3
_chemical_formula_sum   'Na15 Hf6 Si9 Ge6 P9 O72'
_cell_volume   1502.18139991
_cell_formula_units_Z   3
loop_
 _symmetry_equiv_pos_site_id
 _symmetry_equiv_pos_as_xyz
  1  'x, y, z'
loop_
 _atom_site_type_symbol
 _atom_site_label
 _atom_site_symmetry_multiplicity
 _atom_site_fract_x
 _atom_site_fract_y
 _atom_site_fract_z
 _atom_site_occupancy
  Na  Na0  1  0.00169297  0.61969220  0.25039688  1
  Na  Na1  1  0.36624728  0.99953386  0.74638630  1
  Na  Na2  1  0.03275818  0.70074261  0.58044527  1
  Na  Na3  1  0.66236932  0.96113798  0.58486670  1
  Na  Na4  1  0.30081934  0.97396338  0.08149209  1
  Na  Na5  1  0.02646179  0.33947735  0.09092672  1
  Na  Na6  1  0.97816026  0.67171504  0.92031424  1
  Na  Na7  1  0.96922345  0.30282025  0.41432776  1
  Na  Na8  1  0.33683433  0.03272665  0.41886404  1
  Na  Na9  1  0.99740711  0.99721182  0.50032961  1
  Na  Na10  1  0.99474497  0.99932575  0.00060832  1
  Na  Na11  1  0.66712359  0.32613735  0.82916690  1
  Na  Na12  1  0.66219894  0.33347523  0.33866016  1
  Na  Na13  1  0.35525992  0.65597833  0.16850029  1
  Na  Na14  1  0.33445258  0.63780540  0.66134315  1
  Hf  Hf0  1  0.99714982  0.00639612  0.84920011  1
  Hf  Hf1  1  0.66290502  0.32874111  0.19235865  1
  Hf  Hf2  1  0.65658480  0.32899214  0.98113769  1
  Hf  Hf3  1  0.33483534  0.66750126  0.02083214  1
  Hf  Hf4  1  0.33655145  0.66526899  0.31481233  1
  Hf  Hf5  1  0.34039078  0.66916965  0.80677098  1
  Si  Si0  1  0.00174953  0.27673664  0.25325469  1
  Si  Si1  1  0.71618330  0.01410470  0.74081364  1
  Si  Si2  1  0.37590447  0.04836178  0.58211513  1
  Si  Si3  1  0.65967072  0.61398200  0.58321301  1
  Si  Si4  1  0.95412401  0.63454410  0.08654800  1
  Si  Si5  1  0.36540668  0.32733513  0.08890646  1
  Si  Si6  1  0.33705513  0.96649901  0.91369711  1
  Si  Si7  1  0.62770565  0.95967451  0.42094364  1
  Si  Si8  1  0.03736103  0.66577996  0.41941634  1
  Ge  Ge0  1  0.98700049  0.98993448  0.35636056  1
  Ge  Ge1  1  0.99789036  0.99682951  0.64287612  1
  Ge  Ge2  1  0.00015952  0.00187797  0.14847683  1
  Ge  Ge3  1  0.66455462  0.33268179  0.68120517  1
  Ge  Ge4  1  0.66803886  0.33741564  0.48289553  1
  Ge  Ge5  1  0.34371799  0.67755761  0.51967735  1
  P  P0  1  0.27638694  0.00127941  0.25382033  1
  P  P1  1  0.72345720  0.72692646  0.25093620  1
  P  P2  1  0.28937644  0.28324098  0.74134857  1
  P  P3  1  0.98587231  0.70047934  0.74415680  1
  P  P4  1  0.95691821  0.33399605  0.58157708  1
  P  P5  1  0.67512839  0.04098337  0.08633045  1
  P  P6  1  0.62575247  0.66653659  0.91446866  1
  P  P7  1  0.04340113  0.37491543  0.91640045  1
  P  P8  1  0.34000699  0.38241421  0.42184356  1
  O  O0  1  0.18962977  0.01847343  0.31228085  1
  O  O1  1  0.83503718  0.80226618  0.30853500  1
  O  O2  1  0.98344944  0.16690619  0.31520477  1
  O  O3  1  0.20883204  0.17070346  0.79840115  1
  O  O4  1  0.96739831  0.78682683  0.80220623  1
  O  O5  1  0.82856522  0.03864011  0.80100740  1
  O  O6  1  0.80702386  0.98080408  0.68159136  1
  O  O7  1  0.17280173  0.19208072  0.68658456  1
  O  O8  1  0.02755399  0.82496983  0.68890760  1
  O  O9  1  0.80825989  0.83229478  0.19355672  1
  O  O10  1  0.01818397  0.18878439  0.19023049  1
  O  O11  1  0.16886929  0.97273387  0.19544305  1
  O  O12  1  0.87242177  0.37384393  0.63625037  1
  O  O13  1  0.50532510  0.12886472  0.64029044  1
  O  O14  1  0.62798125  0.49341538  0.64250162  1
  O  O15  1  0.87034834  0.50211697  0.14367485  1
  O  O16  1  0.64003009  0.12350486  0.14155255  1
  O  O17  1  0.48485627  0.35157387  0.14634287  1
  O  O18  1  0.45326138  0.28623394  0.03053260  1
  O  O19  1  0.84474901  0.54534400  0.02522780  1
  O  O20  1  0.70681754  0.15890985  0.03080486  1
  O  O21  1  0.46475278  0.16719402  0.52209435  1
  O  O22  1  0.71299703  0.53095069  0.52660101  1
  O  O23  1  0.83910100  0.29191590  0.52480450  1
  O  O24  1  0.53610995  0.68062361  0.97160008  1
  O  O25  1  0.14333973  0.45823552  0.97538323  1
  O  O26  1  0.31399705  0.85098904  0.97445804  1
  O  O27  1  0.54443624  0.84217225  0.48178790  1
  O  O28  1  0.30020755  0.47181664  0.47513670  1
  O  O29  1  0.17259077  0.71035927  0.47712461  1
  O  O30  1  0.11736867  0.62158881  0.35956368  1
  O  O31  1  0.49559492  0.87232656  0.36501806  1
  O  O32  1  0.36600579  0.48854884  0.36415272  1
  O  O33  1  0.14247293  0.48996719  0.86224741  1
  O  O34  1  0.34761180  0.86411899  0.85351606  1
  O  O35  1  0.51832362  0.64738760  0.85796238  1
  O  O36  1  0.02842351  0.84836313  0.41067997  1
  O  O37  1  0.82527667  0.98706667  0.41203296  1
  O  O38  1  0.17607886  0.19715877  0.41693082  1
  O  O39  1  0.02078584  0.19235494  0.91159775  1
  O  O40  1  0.15735591  0.97545646  0.91009036  1
  O  O41  1  0.80778975  0.82953582  0.91015109  1
  O  O42  1  0.97506451  0.16830452  0.58761441  1
  O  O43  1  0.17481651  0.01586998  0.58921783  1
  O  O44  1  0.83753390  0.81365321  0.58867477  1
  O  O45  1  0.97797207  0.82901275  0.09456719  1
  O  O46  1  0.84012665  0.02602999  0.09179370  1
  O  O47  1  0.17112165  0.15201293  0.09318401  1
  O  O48  1  0.69333368  0.18897422  0.73682033  1
  O  O49  1  0.47132529  0.29718786  0.73756540  1
  O  O50  1  0.82066498  0.52198522  0.73804761  1
  O  O51  1  0.70468674  0.54300811  0.24693351  1
  O  O52  1  0.83086801  0.30541558  0.25264072  1
  O  O53  1  0.45832953  0.16232535  0.25120968  1
  O  O54  1  0.65298436  0.50712953  0.91867741  1
  O  O55  1  0.86563295  0.36732730  0.91980663  1
  O  O56  1  0.51056405  0.15544308  0.91729480  1
  O  O57  1  0.64587754  0.15627113  0.42700437  1
  O  O58  1  0.50344391  0.36158807  0.42696347  1
  O  O59  1  0.84785702  0.48806787  0.42775230  1
  O  O60  1  0.33574033  0.49319111  0.08175420  1
  O  O61  1  0.15293748  0.66285720  0.08100883  1
  O  O62  1  0.51214575  0.86119512  0.07909437  1
  O  O63  1  0.35288744  0.84785338  0.57704558  1
  O  O64  1  0.48774272  0.63987197  0.57591802  1
  O  O65  1  0.13708641  0.50143316  0.57478411  1
  O  O66  1  0.29267212  0.83395585  0.25681719  1
  O  O67  1  0.54337035  0.71111976  0.25598827  1
  O  O68  1  0.17378200  0.47404725  0.25419245  1
  O  O69  1  0.30783549  0.46489193  0.74809893  1
  O  O70  1  0.15132464  0.68124367  0.74945687  1
  O  O71  1  0.51792944  0.84214459  0.74632319  1
loop_
_geom_bond_atom_site_label_1
_geom_bond_atom_site_label_2
_geom_bond_distance
_geom_bond_site_symmetry_2
Na0 O66 2.320904 1_555
Na0 O51 2.363934 1_455
Na0 O52 2.412415 1_455
Na0 O68 2.429924 1_555
Na0 O15 2.618351 1_455
Na0 O30 2.630746 1_555
Na1 O49 2.319396 1_565
Na1 O71 2.359113 1_555
Na1 O70 2.491915 1_555
Na1 O48 2.528969 1_565
Na1 O34 2.630838 1_555
Na1 O13 2.636707 1_565
Na1 O3 2.757674 1_565
Na1 O8 2.899956 1_555
Na2 O65 2.357837 1_555
Na2 O44 2.386788 1_455
Na2 O43 2.425601 1_565
Na2 O63 2.459063 1_555
Na2 O29 2.581370 1_555
Na2 O8 2.652820 1_555
Na2 O22 2.734911 1_455
Na2 O12 2.794115 1_455
Na3 O63 2.407764 1_555
Na3 O42 2.443538 1_565
Na3 O6 2.464839 1_555
Na3 O44 2.467660 1_555
Na3 O64 2.473666 1_555
Na3 O27 2.519917 1_555
Na3 O13 2.763595 1_565
Na3 O23 2.865544 1_565
Na4 O47 2.371698 1_565
Na4 O61 2.384468 1_555
Na4 O45 2.496254 1_455
Na4 O62 2.512944 1_555
Na4 O26 2.635733 1_554
Na4 O18 2.646449 1_565
Na4 O11 2.777913 1_555
Na4 O16 2.933645 1_565
Na5 O60 2.380702 1_555
Na5 O46 2.417630 1_455
Na5 O61 2.505278 1_555
Na5 O47 2.542464 1_555
Na5 O10 2.558260 1_555
Na5 O15 2.696176 1_455
Na5 O25 2.766910 1_554
Na5 O20 2.803211 1_455
Na6 O40 2.352155 1_655
Na6 O55 2.356524 1_555
Na6 O54 2.495348 1_555
Na6 O41 2.516639 1_555
Na6 O19 2.595768 1_556
Na6 O4 2.832181 1_555
Na6 O26 2.849576 1_655
Na6 O33 2.935691 1_655
Na7 O59 2.374683 1_555
Na7 O37 2.422428 1_545
Na7 O38 2.428702 1_655
Na7 O57 2.498465 1_555
Na7 O2 2.535823 1_555
Na7 O23 2.685031 1_555
Na7 O30 2.729477 1_655
Na7 O28 2.880865 1_655
Na8 O36 2.389878 1_545
Na8 O57 2.393088 1_555
Na8 O38 2.482588 1_555
Na8 O58 2.526590 1_555
Na8 O21 2.572624 1_555
Na8 O0 2.677244 1_555
Na8 O31 2.709417 1_545
Na8 O29 2.788053 1_545
Na9 O37 2.460036 1_555
Na9 O36 2.469824 1_655
Na9 O43 2.479138 1_665
Na9 O44 2.486585 1_555
Na9 O38 2.501324 1_665
Na9 O42 2.520018 1_565
Na10 O46 2.511775 1_565
Na10 O47 2.530239 1_665
Na10 O40 2.532964 1_654
Na10 O45 2.533316 1_555
Na10 O39 2.544977 1_664
Na10 O41 2.562929 1_554
Na11 O56 2.435142 1_555
Na11 O48 2.445937 1_555
Na11 O50 2.565532 1_555
Na11 O55 2.579023 1_555
Na11 O54 2.587452 1_555
Na11 O49 2.604208 1_555
Na12 O57 2.468966 1_555
Na12 O58 2.487404 1_555
Na12 O59 2.502387 1_555
Na12 O52 2.502805 1_555
Na12 O53 2.572084 1_555
Na12 O51 2.650136 1_555
Na13 O60 2.354979 1_555
Na13 O67 2.447980 1_555
Na13 O68 2.489633 1_555
Na13 O62 2.576669 1_555
Na13 O61 2.665987 1_555
Na13 O66 2.729720 1_555
Na14 O64 2.319764 1_555
Na14 O69 2.396306 1_555
Na14 O65 2.473944 1_555
Na14 O71 2.559846 1_555
Na14 O63 2.583170 1_555
Na14 O70 2.677844 1_555
Hf0 O5 1.969130 1_555
Hf0 O3 2.042056 1_655
Hf0 O40 2.074781 1_645
Hf0 O39 2.075332 1_655
Hf0 O4 2.097319 1_545
Hf0 O41 2.112812 1_545
Hf1 O17 1.971278 1_555
Hf1 O15 2.018856 1_555
Hf1 O16 2.054701 1_555
Hf1 O52 2.086843 1_555
Hf1 O51 2.116581 1_555
Hf1 O53 2.117588 1_555
Hf2 O18 1.970284 1_556
Hf2 O56 2.016584 1_555
Hf2 O19 2.055833 1_556
Hf2 O20 2.081769 1_556
Hf2 O54 2.109720 1_555
Hf2 O55 2.176508 1_555
Hf3 O26 2.004180 1_554
Hf3 O24 2.036405 1_554
Hf3 O25 2.049446 1_554
Hf3 O60 2.052674 1_555
Hf3 O61 2.069437 1_555
Hf3 O62 2.098189 1_555
Hf4 O31 2.003724 1_555
Hf4 O32 2.026923 1_555
Hf4 O30 2.031719 1_555
Hf4 O68 2.080416 1_555
Hf4 O67 2.110381 1_555
Hf4 O66 2.145937 1_555
Hf5 O34 1.980620 1_555
Hf5 O35 2.028293 1_555
Hf5 O71 2.050757 1_555
Hf5 O33 2.078722 1_555
Hf5 O69 2.122858 1_555
Hf5 O70 2.148067 1_555
Ge0 O2 1.823999 1_565
Ge0 O1 1.863629 1_555
Ge0 O37 1.875209 1_555
Ge0 O36 1.899953 1_655
Ge0 O0 1.939689 1_665
Ge0 O38 2.218897 1_665
Ge1 O6 1.830748 1_555
Ge1 O43 1.900693 1_665
Ge1 O7 1.914334 1_665
Ge1 O44 1.950449 1_555
Ge1 O8 1.952692 1_655
Ge1 O42 2.035927 1_565
Ge2 O10 1.826978 1_555
Ge2 O45 1.869316 1_445
Ge2 O47 1.883739 1_555
Ge2 O9 1.894739 1_445
Ge2 O11 1.941106 1_545
Ge2 O46 1.985373 1_455
Ge3 O14 1.820407 1_555
Ge3 O48 1.877184 1_555
Ge3 O13 1.880073 1_555
Ge3 O12 1.955145 1_555
Ge3 O50 2.001847 1_555
Ge3 O49 2.007125 1_555
Ge4 O22 1.827176 1_555
Ge4 O21 1.885497 1_555
Ge4 O59 1.919411 1_555
Ge4 O57 1.953242 1_555
Ge4 O23 1.980953 1_555
Ge4 O58 2.006148 1_555
Ge5 O27 1.843716 1_555
Ge5 O29 1.925514 1_555
Ge5 O64 1.929250 1_555
Ge5 O28 1.929809 1_555
Ge5 O63 1.938434 1_555
Ge5 O65 2.102018 1_555
O0 P0 1.549005 1_555
O1 P1 1.551270 1_555
O2 Si0 1.644295 1_655
O3 P2 1.546718 1_555
O4 P3 1.544150 1_555
O5 Si1 1.617140 1_555
O6 Si1 1.637232 1_565
O7 P2 1.539922 1_555
O8 P3 1.563986 1_455
O9 P1 1.534048 1_555
O10 Si0 1.638736 1_555
O11 P0 1.554692 1_565
O12 P4 1.550271 1_555
O13 Si2 1.638190 1_555
O14 Si3 1.627445 1_555
O15 Si4 1.631227 1_555
O16 P5 1.531370 1_555
O17 Si5 1.603626 1_555
O18 Si5 1.637149 1_555
O19 Si4 1.630747 1_555
O20 P5 1.546908 1_555
O21 Si2 1.634175 1_555
O22 Si3 1.634071 1_555
O23 P4 1.560712 1_555
O24 P6 1.529138 1_555
O25 P7 1.548264 1_555
O26 Si6 1.641948 1_555
O27 Si7 1.637197 1_555
O28 P8 1.553092 1_555
O29 Si8 1.663833 1_555
O30 Si8 1.636687 1_555
O31 Si7 1.616956 1_555
O32 P8 1.535612 1_555
O33 P7 1.534892 1_555
O34 Si6 1.638980 1_555
O35 P6 1.533956 1_555
O36 Si8 1.662906 1_555
O37 Si7 1.649793 1_555
O38 P8 1.560428 1_555
O39 P7 1.524945 1_555
O40 Si6 1.630078 1_555
O41 P6 1.539502 1_555
O42 P4 1.553392 1_555
O43 Si2 1.659717 1_555
O44 Si3 1.686412 1_555
O45 Si4 1.630928 1_555
O46 P5 1.532319 1_555
O47 Si5 1.647684 1_555
O48 Si1 1.654472 1_555
O49 P2 1.551655 1_555
O50 P3 1.533317 1_555
O51 P1 1.549376 1_555
O52 Si0 1.649438 1_655
O53 P0 1.530116 1_555
O54 P6 1.542641 1_555
O55 P7 1.539553 1_655
O56 Si6 1.613210 1_545
O57 Si7 1.665793 1_545
O58 P8 1.547502 1_555
O59 Si8 1.640606 1_655
O60 Si5 1.617266 1_555
O61 Si4 1.650624 1_455
O62 P5 1.533657 1_565
O63 Si2 1.680932 1_565
O64 Si3 1.652356 1_555
O65 P4 1.551215 1_455
O66 P0 1.553879 1_565
O67 P1 1.529920 1_555
O68 Si0 1.648683 1_555
O69 P2 1.535279 1_555
O70 P3 1.557379 1_455
O71 Si1 1.657984 1_565
