# generated using pymatgen
data_Na4MgTi2(GeO5)2
_symmetry_space_group_name_H-M   'P 1'
_cell_length_a   5.34679052
_cell_length_b   7.01368412
_cell_length_c   7.01335560
_cell_angle_alpha   91.29024624
_cell_angle_beta   91.54573169
_cell_angle_gamma   91.54529558
_symmetry_Int_Tables_number   1
_chemical_formula_structural   Na4MgTi2(GeO5)2
_chemical_formula_sum   'Na4 Mg1 Ti2 Ge2 O10'
_cell_volume   262.74330892
_cell_formula_units_Z   1
loop_
 _symmetry_equiv_pos_site_id
 _symmetry_equiv_pos_as_xyz
  1  'x, y, z'
loop_
 _atom_site_type_symbol
 _atom_site_label
 _atom_site_symmetry_multiplicity
 _atom_site_fract_x
 _atom_site_fract_y
 _atom_site_fract_z
 _atom_site_occupancy
  Na  Na0  1  0.91746000  0.04881300  0.04863100  1
  Na  Na1  1  0.02320000  0.52350800  0.98464600  1
  Na  Na2  1  0.99052200  0.47862900  0.47828600  1
  Na  Na3  1  0.02393300  0.98469800  0.52343000  1
  Mg  Mg0  1  0.39648800  0.95862500  0.95798700  1
  Ti  Ti0  1  0.59146300  0.72042400  0.71981900  1
  Ti  Ti1  1  0.43037800  0.25883800  0.25812100  1
  Ge  Ge0  1  0.49919000  0.25644800  0.73516900  1
  Ge  Ge1  1  0.49903100  0.73577800  0.25591300  1
  O  O0  1  0.70967400  0.74615100  0.45745700  1
  O  O1  1  0.66781300  0.76369300  0.03669500  1
  O  O2  1  0.70962800  0.45801400  0.74554800  1
  O  O3  1  0.66799800  0.03729700  0.76318100  1
  O  O4  1  0.30844600  0.95086100  0.23339800  1
  O  O5  1  0.30849500  0.23400500  0.95018700  1
  O  O6  1  0.30046300  0.24835700  0.52979700  1
  O  O7  1  0.30028600  0.53041100  0.24790100  1
  O  O8  1  0.75720000  0.26048000  0.25961200  1
  O  O9  1  0.26083100  0.76497000  0.76422200  1
loop_
_geom_bond_atom_site_label_1
_geom_bond_atom_site_label_2
_geom_bond_distance
_geom_bond_site_symmetry_2
Na0 O8 2.272823 1_555
Na0 O1 2.372796 1_545
Na0 O3 2.374090 1_554
Na0 O4 2.548106 1_645
Na0 O5 2.550869 1_654
Na1 O7 2.334654 1_556
Na1 O2 2.367705 1_455
Na1 O5 2.583213 1_555
Na1 O1 2.600793 1_456
Na1 O9 2.641981 1_555
Na2 O6 2.371397 1_655
Na2 O7 2.371523 1_655
Na2 O8 2.436700 1_555
Na2 O2 2.437685 1_555
Na2 O0 2.439114 1_555
Na3 O6 2.335160 1_565
Na3 O0 2.368170 1_455
Na3 O4 2.583155 1_555
Na3 O3 2.601499 1_465
Na3 O9 2.634080 1_555
Mg0 O5 2.001784 1_565
Mg0 O4 2.001969 1_556
Mg0 O9 2.007037 1_555
Mg0 O1 2.091952 1_556
Mg0 O3 2.091958 1_565
Ge0 O6 1.765598 1_555
Ge0 O2 1.781870 1_555
Ge0 O3 1.815116 1_555
Ge0 O5 1.850248 1_555
Ge1 O7 1.765687 1_555
Ge1 O0 1.782360 1_555
Ge1 O1 1.815318 1_555
Ge1 O4 1.850387 1_555
O0 Ti0 1.972138 1_555
O1 Ti0 2.260896 1_554
O2 Ti0 1.972449 1_555
O3 Ti0 2.261197 1_545
O4 Ti1 2.240984 1_565
O5 Ti1 2.240564 1_556
O6 Ti1 2.047747 1_555
O7 Ti1 2.047404 1_555
O8 Ti1 1.746924 1_555
O9 Ti0 1.837087 1_555
