# generated using pymatgen
data_Na21Mg4Ta8Si15(PO24)3
_symmetry_space_group_name_H-M   'P 1'
_cell_length_a   9.08316380
_cell_length_b   9.10061673
_cell_length_c   22.30068808
_cell_angle_alpha   89.95302715
_cell_angle_beta   89.99884619
_cell_angle_gamma   120.03135307
_symmetry_Int_Tables_number   1
_chemical_formula_structural   Na21Mg4Ta8Si15(PO24)3
_chemical_formula_sum   'Na21 Mg4 Ta8 Si15 P3 O72'
_cell_volume   1595.95032945
_cell_formula_units_Z   1
loop_
 _symmetry_equiv_pos_site_id
 _symmetry_equiv_pos_as_xyz
  1  'x, y, z'
loop_
 _atom_site_type_symbol
 _atom_site_label
 _atom_site_symmetry_multiplicity
 _atom_site_fract_x
 _atom_site_fract_y
 _atom_site_fract_z
 _atom_site_occupancy
  Na  Na0  1  0.63866218  0.01930952  0.24066563  1
  Na  Na1  1  0.37685440  0.35436295  0.24289037  1
  Na  Na2  1  0.98549156  0.62735457  0.24013721  1
  Na  Na3  1  0.63827989  0.62188500  0.74380852  1
  Na  Na4  1  0.97977283  0.35421120  0.74591989  1
  Na  Na5  1  0.38217766  0.02511452  0.74681098  1
  Na  Na6  1  0.31346515  0.33755787  0.58881441  1
  Na  Na7  1  0.66447074  0.97596645  0.58868723  1
  Na  Na8  1  0.31485349  0.97521890  0.08569394  1
  Na  Na9  1  0.96730197  0.68357822  0.91301451  1
  Na  Na10  1  0.71840260  0.03344199  0.90966532  1
  Na  Na11  1  0.31491452  0.27897675  0.90987164  1
  Na  Na12  1  0.96538850  0.28174965  0.41219542  1
  Na  Na13  1  0.31502725  0.03560397  0.40898745  1
  Na  Na14  1  0.71591632  0.68337344  0.41211785  1
  Na  Na15  1  0.00113430  0.99198282  0.49528050  1
  Na  Na16  1  0.99199738  0.00099902  0.99315634  1
  Na  Na17  1  0.66071308  0.32682188  0.82572761  1
  Na  Na18  1  0.66059898  0.32823384  0.32567138  1
  Na  Na19  1  0.33411054  0.65680758  0.16049309  1
  Na  Na20  1  0.32324999  0.66732900  0.66687308  1
  Mg  Mg0  1  0.00286480  0.00168072  0.35326802  1
  Mg  Mg1  1  0.00149754  0.00302647  0.85336516  1
  Mg  Mg2  1  0.66425539  0.33079938  0.68391229  1
  Mg  Mg3  1  0.66351362  0.33060069  0.18099194  1
  Ta  Ta0  1  0.99847391  0.00010596  0.64662837  1
  Ta  Ta1  1  0.00106312  0.99794972  0.14278545  1
  Ta  Ta2  1  0.66732392  0.33243778  0.98184154  1
  Ta  Ta3  1  0.66608333  0.33362731  0.48094407  1
  Ta  Ta4  1  0.33319267  0.66410357  0.02148285  1
  Ta  Ta5  1  0.33109773  0.66621788  0.52094470  1
  Ta  Ta6  1  0.33240993  0.66882903  0.31241875  1
  Ta  Ta7  1  0.33621076  0.66572090  0.81288678  1
  Si  Si0  1  0.29399479  0.00281082  0.25327058  1
  Si  Si1  1  0.29319526  0.29216512  0.75350064  1
  Si  Si2  1  0.70759154  0.00173419  0.75377955  1
  Si  Si3  1  0.95854491  0.33624893  0.58671220  1
  Si  Si4  1  0.37291990  0.03939478  0.58555380  1
  Si  Si5  1  0.67022384  0.62613645  0.58521743  1
  Si  Si6  1  0.95649583  0.62093084  0.08706375  1
  Si  Si7  1  0.66787530  0.04158576  0.08609723  1
  Si  Si8  1  0.37749692  0.33798453  0.08704296  1
  Si  Si9  1  0.62421332  0.66366968  0.91757769  1
  Si  Si10  1  0.04004416  0.37701878  0.91668916  1
  Si  Si11  1  0.33502343  0.95857413  0.91739279  1
  Si  Si12  1  0.62397321  0.95939752  0.41702602  1
  Si  Si13  1  0.33559041  0.37642502  0.41641040  1
  Si  Si14  1  0.03930135  0.66301727  0.41645338  1
  P  P0  1  0.71083856  0.71212696  0.25290737  1
  P  P1  1  0.00168929  0.28873976  0.25263511  1
  P  P2  1  0.00151767  0.71294720  0.75292184  1
  O  O0  1  0.20746807  0.02484277  0.31238071  1
  O  O1  1  0.80960257  0.79322007  0.31037085  1
  O  O2  1  0.97687595  0.18794480  0.31023061  1
  O  O3  1  0.21004698  0.17899829  0.81152955  1
  O  O4  1  0.97831150  0.78983731  0.80922852  1
  O  O5  1  0.81717416  0.02204318  0.81183758  1
  O  O6  1  0.80153128  0.96884436  0.69259015  1
  O  O7  1  0.16719530  0.19485892  0.69251873  1
  O  O8  1  0.02767342  0.83275033  0.69678146  1
  O  O9  1  0.80108987  0.83173959  0.19784285  1
  O  O10  1  0.02749490  0.19574853  0.19790240  1
  O  O11  1  0.16695365  0.97066873  0.19380160  1
  O  O12  1  0.88266065  0.36464670  0.64614952  1
  O  O13  1  0.48911570  0.11118226  0.64335507  1
  O  O14  1  0.62204517  0.50826398  0.64261557  1
  O  O15  1  0.88265778  0.51835000  0.14718792  1
  O  O16  1  0.62269034  0.11147332  0.14442993  1
  O  O17  1  0.47833990  0.36405770  0.14752018  1
  O  O18  1  0.46899802  0.30116523  0.02798138  1
  O  O19  1  0.83546815  0.52698607  0.02701870  1
  O  O20  1  0.69408953  0.16342781  0.02615649  1
  O  O21  1  0.46774717  0.16568726  0.52564687  1
  O  O22  1  0.69325852  0.52968482  0.52464836  1
  O  O23  1  0.83306412  0.30318435  0.52661462  1
  O  O24  1  0.51956775  0.68738419  0.97240356  1
  O  O25  1  0.16532695  0.48499314  0.97201795  1
  O  O26  1  0.31594680  0.83990822  0.97507277  1
  O  O27  1  0.52573594  0.83859382  0.47462820  1
  O  O28  1  0.31912836  0.47871773  0.47410639  1
  O  O29  1  0.16650645  0.68390835  0.47180075  1
  O  O30  1  0.13356885  0.63135491  0.35706632  1
  O  O31  1  0.49587465  0.86245095  0.35832918  1
  O  O32  1  0.36700377  0.50222944  0.35758474  1
  O  O33  1  0.13173367  0.50105303  0.85660327  1
  O  O34  1  0.36626897  0.86354762  0.85805855  1
  O  O35  1  0.49809382  0.63131255  0.85734875  1
  O  O36  1  0.01751526  0.82614529  0.41474639  1
  O  O37  1  0.80881549  0.97957081  0.41343028  1
  O  O38  1  0.16880518  0.19279511  0.41563911  1
  O  O39  1  0.02132448  0.19330336  0.91628253  1
  O  O40  1  0.16868907  0.97619337  0.91542144  1
  O  O41  1  0.80924991  0.82651621  0.91466484  1
  O  O42  1  0.97456891  0.16045497  0.58878870  1
  O  O43  1  0.18664742  0.02867628  0.58900197  1
  O  O44  1  0.83649296  0.81917040  0.58826957  1
  O  O45  1  0.97903395  0.81639231  0.09056542  1
  O  O46  1  0.83858852  0.02238555  0.09190877  1
  O  O47  1  0.18710887  0.15853239  0.09093435  1
  O  O48  1  0.68151902  0.16356329  0.74706208  1
  O  O49  1  0.48449499  0.32691365  0.74591868  1
  O  O50  1  0.84999870  0.53485704  0.74417208  1
  O  O51  1  0.68593377  0.53448898  0.24694484  1
  O  O52  1  0.85281323  0.32049075  0.24602178  1
  O  O53  1  0.48534503  0.16184822  0.24802488  1
  O  O54  1  0.62917876  0.48538280  0.92308152  1
  O  O55  1  0.85432626  0.36893320  0.92211965  1
  O  O56  1  0.51252562  0.14474449  0.92206266  1
  O  O57  1  0.63083955  0.14377516  0.42186740  1
  O  O58  1  0.51283211  0.36730703  0.42122662  1
  O  O59  1  0.85562105  0.48475730  0.42177480  1
  O  O60  1  0.34582773  0.49725783  0.07486068  1
  O  O61  1  0.15359320  0.66187626  0.07591132  1
  O  O62  1  0.49973648  0.85311367  0.07410594  1
  O  O63  1  0.35185554  0.85098463  0.57348024  1
  O  O64  1  0.50427895  0.65464437  0.57406889  1
  O  O65  1  0.15534859  0.49229436  0.57523906  1
  O  O66  1  0.30309972  0.81886401  0.25437207  1
  O  O67  1  0.52798987  0.69840966  0.25465960  1
  O  O68  1  0.17454728  0.46837617  0.25473959  1
  O  O69  1  0.29543753  0.47965962  0.75391659  1
  O  O70  1  0.17215695  0.70485144  0.75343540  1
  O  O71  1  0.51565061  0.82092437  0.75371706  1
loop_
_geom_bond_atom_site_label_1
_geom_bond_atom_site_label_2
_geom_bond_distance
_geom_bond_site_symmetry_2
Na0 O16 2.334361 1_555
Na0 O53 2.336131 1_555
Na0 O52 2.444297 1_555
Na0 O67 2.587772 1_545
Na0 O66 2.672997 1_545
Na0 O9 2.919924 1_545
Na0 O31 2.957312 1_545
Na1 O17 2.301975 1_555
Na1 O53 2.404478 1_555
Na1 O51 2.443512 1_555
Na1 O68 2.536149 1_555
Na1 O67 2.730543 1_555
Na2 O15 2.286735 1_555
Na2 O51 2.416364 1_555
Na2 O52 2.428816 1_555
Na2 O66 2.535573 1_655
Na2 O68 2.763010 1_655
Na2 O11 2.895889 1_655
Na2 O30 2.925959 1_655
Na3 O49 2.325086 1_555
Na3 O50 2.418696 1_555
Na3 O14 2.456569 1_555
Na3 O71 2.567256 1_555
Na3 O69 2.718214 1_555
Na3 O35 2.854727 1_555
Na3 O6 2.963272 1_555
Na4 O48 2.375973 1_555
Na4 O12 2.412690 1_555
Na4 O50 2.456276 1_555
Na4 O69 2.506007 1_655
Na4 O70 2.771975 1_655
Na4 O33 2.818307 1_655
Na4 O7 2.982167 1_655
Na4 O5 3.000686 1_555
Na5 O48 2.356116 1_555
Na5 O49 2.419222 1_555
Na5 O13 2.472913 1_555
Na5 O70 2.567059 1_545
Na5 O71 2.683503 1_545
Na5 O34 2.849390 1_545
Na5 O3 2.946799 1_555
Na5 O8 3.006484 1_545
Na6 O43 2.446955 1_555
Na6 O65 2.482141 1_555
Na6 O64 2.536039 1_555
Na6 O7 2.658584 1_555
Na6 O42 2.665950 1_455
Na6 O14 2.711796 1_555
Na6 O28 2.850460 1_555
Na6 O21 2.931253 1_555
Na7 O42 2.453365 1_565
Na7 O63 2.497911 1_555
Na7 O64 2.552883 1_555
Na7 O44 2.590253 1_555
Na7 O6 2.646452 1_555
Na7 O13 2.738923 1_565
Na7 O27 2.837117 1_555
Na7 O23 2.925348 1_565
Na8 O62 2.447465 1_555
Na8 O47 2.465969 1_565
Na8 O61 2.478901 1_555
Na8 O45 2.644234 1_455
Na8 O11 2.750050 1_555
Na8 O16 2.757534 1_565
Na8 O26 2.760331 1_554
Na8 O18 2.872687 1_565
Na9 O40 2.358992 1_655
Na9 O41 2.371457 1_555
Na9 O4 2.490294 1_555
Na9 O55 2.520224 1_555
Na9 O54 2.681541 1_555
Na9 O19 2.866056 1_556
Na10 O5 2.380881 1_555
Na10 O39 2.388017 1_655
Na10 O41 2.407216 1_545
Na10 O56 2.548688 1_555
Na10 O55 2.674254 1_555
Na10 O20 2.909190 1_556
Na11 O39 2.378741 1_555
Na11 O3 2.383422 1_555
Na11 O40 2.389224 1_545
Na11 O54 2.529304 1_555
Na11 O56 2.642392 1_555
Na11 O18 2.941985 1_556
Na11 O35 3.012544 1_555
Na12 O38 2.360553 1_655
Na12 O37 2.381404 1_545
Na12 O2 2.450010 1_555
Na12 O59 2.509453 1_555
Na12 O57 2.652838 1_555
Na12 O23 2.868597 1_555
Na13 O0 2.347374 1_555
Na13 O38 2.394695 1_555
Na13 O36 2.407545 1_545
Na13 O57 2.540520 1_555
Na13 O58 2.643429 1_555
Na13 O21 2.907822 1_555
Na13 O31 3.008581 1_545
Na14 O36 2.373539 1_655
Na14 O37 2.387975 1_555
Na14 O1 2.452894 1_555
Na14 O58 2.530951 1_555
Na14 O59 2.686826 1_555
Na14 O22 2.828841 1_555
Na15 O36 2.398874 1_555
Na15 O38 2.454043 1_565
Na15 O37 2.489785 1_455
Na15 O44 2.578856 1_455
Na15 O43 2.599476 1_565
Na15 O42 2.670753 1_465
Na16 O39 2.366675 1_655
Na16 O41 2.388956 1_545
Na16 O40 2.448484 1_645
Na16 O46 2.664861 1_556
Na16 O45 2.711313 1_546
Na16 O47 2.722668 1_656
Na17 O48 2.367708 1_555
Na17 O49 2.393971 1_555
Na17 O50 2.565992 1_555
Na17 O56 2.633320 1_555
Na17 O55 2.680919 1_555
Na17 O54 2.701226 1_555
Na18 O53 2.327425 1_555
Na18 O51 2.494157 1_555
Na18 O52 2.516235 1_555
Na18 O58 2.635850 1_555
Na18 O57 2.651977 1_555
Na18 O59 2.690659 1_555
Na19 O60 2.434268 1_555
Na19 O61 2.514796 1_555
Na19 O62 2.543675 1_555
Na19 O68 2.639109 1_555
Na19 O67 2.643593 1_555
Na19 O66 2.656744 1_555
Na20 O70 2.489297 1_555
Na20 O69 2.512255 1_555
Na20 O71 2.513598 1_555
Na20 O65 2.571574 1_555
Na20 O63 2.599682 1_555
Na20 O64 2.681526 1_555
Mg0 O0 1.984228 1_555
Mg0 O2 2.061109 1_455
Mg0 O1 2.065280 1_445
Mg0 O37 2.142826 1_445
Mg0 O38 2.147455 1_555
Mg0 O36 2.158360 1_545
Mg1 O5 1.995120 1_455
Mg1 O3 1.996094 1_555
Mg1 O4 2.090813 1_445
Mg1 O40 2.156795 1_545
Mg1 O41 2.164949 1_445
Mg1 O39 2.165996 1_555
Mg2 O12 2.031609 1_555
Mg2 O13 2.040556 1_555
Mg2 O14 2.054472 1_555
Mg2 O49 2.126357 1_555
Mg2 O48 2.135314 1_555
Mg2 O50 2.229142 1_555
Mg3 O17 1.997792 1_555
Mg3 O16 2.010382 1_555
Mg3 O15 2.010829 1_555
Mg3 O53 2.172701 1_555
Mg3 O52 2.286105 1_555
Mg3 O51 2.296494 1_555
O0 Si0 1.598019 1_555
O1 P0 1.526600 1_555
O2 P1 1.527442 1_655
O3 Si1 1.589007 1_555
O4 P2 1.503286 1_655
O5 Si2 1.586674 1_555
O6 Si2 1.713466 1_565
O6 Ta0 1.954888 1_565
O7 Si1 1.712029 1_555
O7 Ta0 1.954869 1_455
O8 P2 1.597205 1_555
O8 Ta0 2.010589 1_465
O9 P0 1.571448 1_555
O9 Ta1 2.083645 1_655
O10 P1 1.568812 1_555
O10 Ta1 2.092803 1_545
O11 Si0 1.684866 1_565
O11 Ta1 2.000133 1_555
O12 Si3 1.574052 1_555
O13 Si4 1.585415 1_555
O14 Si5 1.583828 1_555
O15 Si6 1.578070 1_555
O16 Si7 1.589913 1_555
O17 Si8 1.580279 1_555
O18 Si8 1.678469 1_555
O18 Ta2 1.967523 1_554
O19 Si6 1.671426 1_555
O19 Ta2 1.943880 1_554
O20 Si7 1.675207 1_555
O20 Ta2 1.942497 1_554
O21 Si4 1.689442 1_555
O21 Ta3 1.953617 1_555
O22 Si5 1.680623 1_555
O22 Ta3 1.938143 1_555
O23 Si3 1.686185 1_555
O23 Ta3 1.958237 1_555
O24 Si9 1.628082 1_555
O24 Ta4 1.936282 1_556
O25 Si10 1.632712 1_555
O25 Ta4 1.927159 1_556
O26 Si11 1.631338 1_555
O26 Ta4 1.975765 1_556
O27 Si12 1.634227 1_555
O27 Ta5 1.968397 1_555
O28 Si13 1.638830 1_555
O28 Ta5 1.957493 1_555
O29 Si14 1.635596 1_555
O29 Ta5 1.924255 1_555
O30 Si14 1.678597 1_555
O30 Ta6 1.937143 1_555
O31 Si12 1.679310 1_555
O31 Ta6 1.934416 1_555
O32 Si13 1.668442 1_555
O32 Ta6 1.971386 1_555
O33 Si10 1.679211 1_555
O33 Ta7 1.964008 1_555
O34 Si11 1.681309 1_555
O34 Ta7 1.959986 1_555
O35 Si9 1.692965 1_555
O35 Ta7 1.924506 1_555
O36 Si14 1.593269 1_555
O37 Si12 1.597015 1_555
O38 Si13 1.598132 1_555
O39 Si10 1.593673 1_555
O40 Si11 1.597738 1_555
O41 Si9 1.591230 1_555
O42 Si3 1.678019 1_555
O42 Ta0 2.038250 1_555
O43 Si4 1.647084 1_555
O43 Ta0 2.048181 1_455
O44 Si5 1.648080 1_555
O44 Ta0 2.036778 1_565
O45 Si6 1.687583 1_555
O45 Ta1 1.948969 1_655
O46 Si7 1.650125 1_555
O46 Ta1 1.960312 1_645
O47 Si8 1.684659 1_555
O47 Ta1 1.963079 1_545
O48 Si2 1.611288 1_555
O49 Si1 1.611757 1_555
O50 P2 1.525390 1_655
O51 P0 1.522039 1_555
O52 P1 1.524768 1_655
O53 Si0 1.615892 1_555
O54 Si9 1.650028 1_555
O54 Ta2 2.062591 1_555
O55 Si10 1.655737 1_655
O55 Ta2 2.050307 1_555
O56 Si11 1.657379 1_545
O56 Ta2 2.066805 1_555
O57 Si12 1.651245 1_545
O57 Ta3 2.067238 1_555
O58 Si13 1.656490 1_555
O58 Ta3 2.057092 1_555
O59 Si14 1.649219 1_655
O59 Ta3 2.055124 1_555
O60 Si8 1.635318 1_555
O60 Ta4 1.976648 1_555
O61 Si6 1.654648 1_455
O61 Ta4 2.025272 1_555
O62 Si7 1.650655 1_565
O62 Ta4 2.005785 1_555
O63 Si4 1.649698 1_565
O63 Ta5 1.980267 1_555
O64 Si5 1.671054 1_555
O64 Ta5 2.013645 1_555
O65 Si3 1.654110 1_455
O65 Ta5 1.996833 1_555
O66 Si0 1.717069 1_565
O66 Ta6 1.992957 1_555
O67 P0 1.602490 1_555
O67 Ta6 2.099557 1_555
O68 P1 1.603398 1_555
O68 Ta6 2.103359 1_555
O69 Si1 1.696247 1_555
O69 Ta7 2.027246 1_555
O70 P2 1.588140 1_555
O70 Ta7 2.153026 1_555
O71 Si2 1.695778 1_565
O71 Ta7 2.021193 1_555
