# generated using pymatgen
data_Na4InSi2SnPO12
_symmetry_space_group_name_H-M   'P 1'
_cell_length_a   9.18642340
_cell_length_b   9.18642307
_cell_length_c   22.52997524
_cell_angle_alpha   90.31654771
_cell_angle_beta   89.68345230
_cell_angle_gamma   119.97107306
_symmetry_Int_Tables_number   1
_chemical_formula_structural   Na4InSi2SnPO12
_chemical_formula_sum   'Na24 In6 Si12 Sn6 P6 O72'
_cell_volume   1647.03157049
_cell_formula_units_Z   6
loop_
 _symmetry_equiv_pos_site_id
 _symmetry_equiv_pos_as_xyz
  1  'x, y, z'
loop_
 _atom_site_type_symbol
 _atom_site_label
 _atom_site_symmetry_multiplicity
 _atom_site_fract_x
 _atom_site_fract_y
 _atom_site_fract_z
 _atom_site_occupancy
  Na  Na0  1  0.64077306  0.00535615  0.25105977  1
  Na  Na1  1  0.37035678  0.36807964  0.24536970  1
  Na  Na2  1  0.98919117  0.62453534  0.24987140  1
  Na  Na3  1  0.63192036  0.62964322  0.74536970  1
  Na  Na4  1  0.99464385  0.35922694  0.75105977  1
  Na  Na5  1  0.37546466  0.01080883  0.74987140  1
  Na  Na6  1  0.30744006  0.33868915  0.58439277  1
  Na  Na7  1  0.03702378  0.70141264  0.57870270  1
  Na  Na8  1  0.65585817  0.95786834  0.58320440  1
  Na  Na9  1  0.29858736  0.96297622  0.07870270  1
  Na  Na10  1  0.66131085  0.69255994  0.08439277  1
  Na  Na11  1  0.04213166  0.34414183  0.08320440  1
  Na  Na12  1  0.97410606  0.67202315  0.91772677  1
  Na  Na13  1  0.70368978  0.03474664  0.91203670  1
  Na  Na14  1  0.32252417  0.29120234  0.91653840  1
  Na  Na15  1  0.96525336  0.29631022  0.41203670  1
  Na  Na16  1  0.32797685  0.02589394  0.41772677  1
  Na  Na17  1  0.70879766  0.67747583  0.41653840  1
  Na  Na18  1  0.99505542  0.99196007  0.49782477  1
  Na  Na19  1  0.00803993  0.00494458  0.99782477  1
  Na  Na20  1  0.66172242  0.32529307  0.83115777  1
  Na  Na21  1  0.67470693  0.33827758  0.33115777  1
  Na  Na22  1  0.32838842  0.65862707  0.16449177  1
  Na  Na23  1  0.34137293  0.67161158  0.66449177  1
  In  In0  1  0.99434659  0.99609110  0.34996181  1
  In  In1  1  0.00390890  0.00565341  0.84996181  1
  In  In2  1  0.66101359  0.32942410  0.68329481  1
  In  In3  1  0.67057590  0.33898641  0.18329481  1
  In  In4  1  0.32767959  0.66275810  0.01662881  1
  In  In5  1  0.33724190  0.67232041  0.51662881  1
  Si  Si0  1  0.70123425  0.70365994  0.25086614  1
  Si  Si1  1  0.00202426  0.29705192  0.25100572  1
  Si  Si2  1  0.29634006  0.29876575  0.75086614  1
  Si  Si3  1  0.70294808  0.99797574  0.75100572  1
  Si  Si4  1  0.36790125  0.03699294  0.58419914  1
  Si  Si5  1  0.66869126  0.63038492  0.58433872  1
  Si  Si6  1  0.96300706  0.63209875  0.08419914  1
  Si  Si7  1  0.36961508  0.33130874  0.08433872  1
  Si  Si8  1  0.03456725  0.37032694  0.91753314  1
  Si  Si9  1  0.33535726  0.96371892  0.91767272  1
  Si  Si10  1  0.62967306  0.96543275  0.41753314  1
  Si  Si11  1  0.03628108  0.66464274  0.41767272  1
  Sn  Sn0  1  0.99892599  0.00021817  0.64912480  1
  Sn  Sn1  1  0.99978183  0.00107401  0.14912480  1
  Sn  Sn2  1  0.66559299  0.33355117  0.98245780  1
  Sn  Sn3  1  0.66644883  0.33440701  0.48245780  1
  Sn  Sn4  1  0.33225899  0.66688517  0.31579180  1
  Sn  Sn5  1  0.33311483  0.66774101  0.81579180  1
  P  P0  1  0.29385527  0.99689300  0.25030143  1
  P  P1  1  0.00310700  0.70614473  0.75030143  1
  P  P2  1  0.96052227  0.33022600  0.58363443  1
  P  P3  1  0.66977400  0.03947773  0.08363443  1
  P  P4  1  0.62718827  0.66356000  0.91696843  1
  P  P5  1  0.33644000  0.37281173  0.41696843  1
  O  O0  1  0.21909077  0.03103138  0.30644481  1
  O  O1  1  0.81753764  0.77853311  0.30915044  1
  O  O2  1  0.97194596  0.18657289  0.31015124  1
  O  O3  1  0.22146689  0.18246236  0.80915044  1
  O  O4  1  0.96896862  0.78090923  0.80644481  1
  O  O5  1  0.81342711  0.02805404  0.81015124  1
  O  O6  1  0.78590903  0.95869341  0.69151525  1
  O  O7  1  0.17368698  0.21433933  0.69172940  1
  O  O8  1  0.03506883  0.81948198  0.69455361  1
  O  O9  1  0.78566067  0.82631302  0.19172940  1
  O  O10  1  0.04130659  0.21409097  0.19151525  1
  O  O11  1  0.18051802  0.96493117  0.19455361  1
  O  O12  1  0.88575777  0.36436438  0.63977781  1
  O  O13  1  0.48420464  0.11186611  0.64248344  1
  O  O14  1  0.63861296  0.51990589  0.64348424  1
  O  O15  1  0.88813389  0.51579536  0.14248344  1
  O  O16  1  0.63563562  0.11424223  0.13977781  1
  O  O17  1  0.48009411  0.36138704  0.14348424  1
  O  O18  1  0.45257603  0.29202641  0.02484825  1
  O  O19  1  0.84035398  0.54767233  0.02506240  1
  O  O20  1  0.70173583  0.15281498  0.02788661  1
  O  O21  1  0.45232767  0.15964602  0.52506240  1
  O  O22  1  0.70797359  0.54742397  0.52484825  1
  O  O23  1  0.84718502  0.29826417  0.52788661  1
  O  O24  1  0.55242377  0.69769838  0.97311181  1
  O  O25  1  0.15087064  0.44520011  0.97581744  1
  O  O26  1  0.30527896  0.85323989  0.97681824  1
  O  O27  1  0.55479989  0.84912936  0.47581744  1
  O  O28  1  0.30230162  0.44757623  0.47311181  1
  O  O29  1  0.14676011  0.69472104  0.47681824  1
  O  O30  1  0.11924203  0.62536041  0.35818225  1
  O  O31  1  0.50701998  0.88100633  0.35839640  1
  O  O32  1  0.36840183  0.48614898  0.36122061  1
  O  O33  1  0.11899367  0.49298002  0.85839640  1
  O  O34  1  0.37463959  0.88075797  0.85818225  1
  O  O35  1  0.51385102  0.63159817  0.86122061  1
  O  O36  1  0.02172509  0.83454544  0.41296126  1
  O  O37  1  0.81920337  0.99307800  0.41361076  1
  O  O38  1  0.18307145  0.19503611  0.41085035  1
  O  O39  1  0.00692200  0.18079663  0.91361076  1
  O  O40  1  0.16545456  0.97827491  0.91296126  1
  O  O41  1  0.80496389  0.81692855  0.91085035  1
  O  O42  1  0.97093400  0.16583690  0.58754497  1
  O  O43  1  0.18221823  0.02795613  0.58855127  1
  O  O44  1  0.84188894  0.81909307  0.58755111  1
  O  O45  1  0.97204387  0.81778177  0.08855127  1
  O  O46  1  0.83416310  0.02906600  0.08754497  1
  O  O47  1  0.18090693  0.15811106  0.08755111  1
  O  O48  1  0.68839209  0.16787844  0.74629426  1
  O  O49  1  0.48587037  0.32641100  0.74694376  1
  O  O50  1  0.84973845  0.52836911  0.74418335  1
  O  O51  1  0.67358900  0.51412963  0.24694376  1
  O  O52  1  0.83212156  0.31160791  0.24629426  1
  O  O53  1  0.47163089  0.15026155  0.24418335  1
  O  O54  1  0.63760100  0.49916990  0.92087797  1
  O  O55  1  0.84888523  0.36128913  0.92188427  1
  O  O56  1  0.50855594  0.15242607  0.92088411  1
  O  O57  1  0.63871087  0.15111477  0.42188427  1
  O  O58  1  0.50083010  0.36239900  0.42087797  1
  O  O59  1  0.84757393  0.49144406  0.42088411  1
  O  O60  1  0.35505809  0.50121244  0.07962826  1
  O  O61  1  0.15253637  0.65974500  0.08027776  1
  O  O62  1  0.51640445  0.86170311  0.07751735  1
  O  O63  1  0.34025500  0.84746363  0.58027776  1
  O  O64  1  0.49878756  0.64494191  0.57962826  1
  O  O65  1  0.13829689  0.48359555  0.57751735  1
  O  O66  1  0.30426700  0.83250390  0.25421197  1
  O  O67  1  0.51555123  0.69462313  0.25521827  1
  O  O68  1  0.17522194  0.48576007  0.25421811  1
  O  O69  1  0.30537687  0.48444877  0.75521827  1
  O  O70  1  0.16749610  0.69573300  0.75421197  1
  O  O71  1  0.51423993  0.82477806  0.75421811  1
loop_
_geom_bond_atom_site_label_1
_geom_bond_atom_site_label_2
_geom_bond_distance
_geom_bond_site_symmetry_2
Na0 O52 2.465083 1_555
Na0 O67 2.490248 1_545
Na0 O53 2.506358 1_555
Na0 O66 2.678989 1_545
Na0 O31 2.694088 1_545
Na0 O16 2.713837 1_555
Na0 O9 2.899470 1_545
Na0 O2 2.959631 1_555
Na1 O51 2.414014 1_555
Na1 O17 2.514765 1_555
Na1 O68 2.520258 1_555
Na1 O53 2.594078 1_555
Na1 O67 2.612504 1_555
Na1 O32 2.824382 1_555
Na1 O10 2.891336 1_555
Na1 O0 3.022985 1_555
Na2 O52 2.491332 1_555
Na2 O51 2.549926 1_555
Na2 O66 2.552124 1_655
Na2 O68 2.595255 1_655
Na2 O15 2.604803 1_555
Na2 O30 2.721233 1_655
Na2 O1 2.907973 1_555
Na2 O11 2.991374 1_655
Na3 O49 2.414014 1_555
Na3 O14 2.514765 1_555
Na3 O71 2.520258 1_555
Na3 O50 2.594078 1_555
Na3 O69 2.612504 1_555
Na3 O35 2.824382 1_555
Na3 O6 2.891336 1_555
Na3 O4 3.022985 1_555
Na4 O48 2.465083 1_555
Na4 O69 2.490248 1_655
Na4 O50 2.506358 1_555
Na4 O70 2.678989 1_655
Na4 O33 2.694088 1_655
Na4 O12 2.713837 1_555
Na4 O7 2.899470 1_655
Na4 O5 2.959631 1_555
Na5 O48 2.491332 1_555
Na5 O49 2.549926 1_555
Na5 O70 2.552124 1_545
Na5 O71 2.595255 1_545
Na5 O13 2.604803 1_555
Na5 O34 2.721233 1_545
Na5 O3 2.907973 1_555
Na5 O8 2.991374 1_545
Na6 O64 2.465088 1_555
Na6 O43 2.490248 1_555
Na6 O65 2.506372 1_555
Na6 O42 2.678989 1_455
Na6 O7 2.694088 1_555
Na6 O28 2.713821 1_555
Na6 O21 2.899470 1_555
Na6 O14 2.959631 1_555
Na7 O63 2.414006 1_555
Na7 O29 2.514739 1_555
Na7 O44 2.520258 1_455
Na7 O65 2.594062 1_555
Na7 O43 2.612504 1_565
Na7 O8 2.824382 1_555
Na7 O22 2.891336 1_455
Na7 O12 3.022985 1_455
Na8 O64 2.491323 1_555
Na8 O63 2.549936 1_555
Na8 O42 2.552124 1_565
Na8 O44 2.595255 1_555
Na8 O27 2.604782 1_555
Na8 O6 2.721233 1_555
Na8 O13 2.907973 1_565
Na8 O23 2.991374 1_565
Na9 O61 2.414006 1_555
Na9 O26 2.514739 1_554
Na9 O47 2.520258 1_565
Na9 O62 2.594062 1_555
Na9 O45 2.612504 1_455
Na9 O11 2.824382 1_555
Na9 O18 2.891336 1_565
Na9 O16 3.022985 1_565
Na10 O60 2.465088 1_555
Na10 O45 2.490248 1_555
Na10 O62 2.506372 1_555
Na10 O46 2.678989 1_565
Na10 O9 2.694088 1_555
Na10 O24 2.713821 1_554
Na10 O19 2.899470 1_555
Na10 O17 2.959631 1_555
Na11 O60 2.491323 1_555
Na11 O61 2.549936 1_555
Na11 O46 2.552124 1_455
Na11 O47 2.595255 1_555
Na11 O25 2.604782 1_554
Na11 O10 2.721233 1_555
Na11 O15 2.907973 1_455
Na11 O20 2.991374 1_455
Na12 O40 2.465083 1_655
Na12 O55 2.490256 1_555
Na12 O41 2.506358 1_555
Na12 O54 2.678981 1_555
Na12 O19 2.694068 1_556
Na12 O4 2.713837 1_555
Na12 O33 2.899470 1_655
Na12 O26 2.959631 1_655
Na13 O39 2.414014 1_655
Na13 O5 2.514765 1_555
Na13 O56 2.520240 1_555
Na13 O41 2.594078 1_545
Na13 O55 2.612493 1_555
Na13 O20 2.824356 1_556
Na13 O34 2.891336 1_545
Na13 O24 3.022985 1_545
Na14 O40 2.491332 1_545
Na14 O39 2.549926 1_555
Na14 O54 2.552129 1_555
Na14 O56 2.595270 1_555
Na14 O3 2.604803 1_555
Na14 O18 2.721219 1_556
Na14 O25 2.907973 1_555
Na14 O35 2.991374 1_555
Na15 O37 2.414014 1_545
Na15 O2 2.514765 1_555
Na15 O59 2.520240 1_555
Na15 O38 2.594078 1_655
Na15 O57 2.612493 1_555
Na15 O23 2.824356 1_555
Na15 O30 2.891336 1_655
Na15 O28 3.022985 1_655
Na16 O36 2.465083 1_545
Na16 O57 2.490256 1_555
Na16 O38 2.506358 1_555
Na16 O58 2.678981 1_555
Na16 O21 2.694068 1_555
Na16 O0 2.713837 1_555
Na16 O31 2.899470 1_545
Na16 O29 2.959631 1_545
Na17 O36 2.491332 1_655
Na17 O37 2.549926 1_555
Na17 O58 2.552129 1_555
Na17 O59 2.595270 1_555
Na17 O1 2.604803 1_555
Na17 O22 2.721219 1_555
Na17 O27 2.907973 1_555
Na17 O32 2.991374 1_555
Na18 O36 2.474885 1_655
Na18 O37 2.502068 1_555
Na18 O44 2.521861 1_555
Na18 O43 2.589798 1_665
Na18 O42 2.645663 1_565
Na18 O38 2.662118 1_665
Na19 O40 2.474885 1_545
Na19 O39 2.502068 1_555
Na19 O47 2.521861 1_556
Na19 O45 2.589798 1_446
Na19 O46 2.645663 1_456
Na19 O41 2.662118 1_445
Na20 O48 2.474885 1_555
Na20 O49 2.502068 1_555
Na20 O56 2.521861 1_555
Na20 O55 2.589798 1_555
Na20 O54 2.645663 1_555
Na20 O50 2.662118 1_555
Na21 O52 2.474885 1_555
Na21 O51 2.502068 1_555
Na21 O59 2.521861 1_555
Na21 O57 2.589798 1_555
Na21 O58 2.645663 1_555
Na21 O53 2.662118 1_555
Na22 O60 2.474885 1_555
Na22 O61 2.502068 1_555
Na22 O68 2.521861 1_555
Na22 O67 2.589798 1_555
Na22 O66 2.645663 1_555
Na22 O62 2.662118 1_555
Na23 O64 2.474885 1_555
Na23 O63 2.502068 1_555
Na23 O71 2.521861 1_555
Na23 O69 2.589798 1_555
Na23 O70 2.645663 1_555
Na23 O65 2.662118 1_555
In0 O1 2.056887 1_555
In0 O2 2.070736 1_565
In0 O37 2.139225 1_555
In0 O0 2.155421 1_665
In0 O36 2.163415 1_655
In0 O38 2.249568 1_665
In1 O3 2.056887 1_555
In1 O5 2.070736 1_455
In1 O39 2.139225 1_555
In1 O4 2.155421 1_445
In1 O40 2.163415 1_545
In1 O41 2.249568 1_445
In2 O13 2.056887 1_555
In2 O14 2.070736 1_555
In2 O49 2.139225 1_555
In2 O12 2.155421 1_555
In2 O48 2.163415 1_555
In2 O50 2.249568 1_555
In3 O15 2.056887 1_555
In3 O17 2.070736 1_555
In3 O51 2.139225 1_555
In3 O16 2.155421 1_555
In3 O52 2.163415 1_555
In3 O53 2.249568 1_555
In4 O25 2.056887 1_554
In4 O26 2.070736 1_554
In4 O61 2.139225 1_555
In4 O24 2.155421 1_554
In4 O60 2.163415 1_555
In4 O62 2.249568 1_555
In5 O27 2.056887 1_555
In5 O29 2.070736 1_555
In5 O63 2.139225 1_555
In5 O28 2.155421 1_555
In5 O64 2.163415 1_555
In5 O65 2.249568 1_555
O0 P0 1.539898 1_545
O1 Si0 1.615623 1_555
O2 Si1 1.616402 1_655
O3 Si2 1.615623 1_555
O4 P1 1.539898 1_655
O5 Si3 1.616402 1_545
O6 Si3 1.663022 1_555
O6 Sn0 2.030891 1_565
O7 Si2 1.666818 1_555
O7 Sn0 2.051567 1_455
O8 P1 1.566110 1_555
O8 Sn0 2.118440 1_465
O9 Si0 1.666818 1_555
O9 Sn1 2.051567 1_565
O10 Si1 1.663022 1_555
O10 Sn1 2.030891 1_455
O11 P0 1.566110 1_555
O11 Sn1 2.118440 1_465
O12 P2 1.539898 1_555
O13 Si4 1.615623 1_555
O14 Si5 1.616402 1_555
O15 Si6 1.615623 1_555
O16 P3 1.539898 1_555
O17 Si7 1.616402 1_555
O18 Si7 1.663022 1_555
O18 Sn2 2.030891 1_554
O19 Si6 1.666818 1_555
O19 Sn2 2.051567 1_554
O20 P3 1.566110 1_555
O20 Sn2 2.118440 1_554
O21 Si4 1.666818 1_555
O21 Sn3 2.051567 1_555
O22 Si5 1.663022 1_555
O22 Sn3 2.030891 1_555
O23 P2 1.566110 1_555
O23 Sn3 2.118440 1_555
O24 P4 1.539898 1_555
O25 Si8 1.615623 1_555
O26 Si9 1.616402 1_555
O27 Si10 1.615623 1_555
O28 P5 1.539898 1_555
O29 Si11 1.616402 1_555
O30 Si11 1.663022 1_555
O30 Sn4 2.030891 1_555
O31 Si10 1.666818 1_555
O31 Sn4 2.051567 1_555
O32 P5 1.566110 1_555
O32 Sn4 2.118440 1_555
O33 Si8 1.666818 1_555
O33 Sn5 2.051567 1_555
O34 Si9 1.663022 1_555
O34 Sn5 2.030891 1_555
O35 P4 1.566110 1_555
O35 Sn5 2.118440 1_555
O36 Si11 1.635772 1_555
O37 Si10 1.631109 1_555
O38 P5 1.540085 1_555
O39 Si8 1.631109 1_555
O40 Si9 1.635772 1_555
O41 P4 1.540085 1_555
O42 P2 1.563117 1_555
O42 Sn0 2.173460 1_555
O43 Si4 1.668201 1_555
O43 Sn0 2.076619 1_455
O44 Si5 1.669143 1_555
O44 Sn0 2.091050 1_565
O45 Si6 1.668201 1_555
O45 Sn1 2.076619 1_565
O46 P3 1.563117 1_555
O46 Sn1 2.173460 1_555
O47 Si7 1.669143 1_555
O47 Sn1 2.091050 1_455
O48 Si3 1.635772 1_545
O49 Si2 1.631109 1_555
O50 P1 1.540085 1_655
O51 Si0 1.631109 1_555
O52 Si1 1.635772 1_655
O53 P0 1.540085 1_545
O54 P4 1.563130 1_555
O54 Sn2 2.173460 1_555
O55 Si8 1.668186 1_655
O55 Sn2 2.076619 1_555
O56 Si9 1.669141 1_545
O56 Sn2 2.091050 1_555
O57 Si10 1.668186 1_545
O57 Sn3 2.076619 1_555
O58 P5 1.563130 1_555
O58 Sn3 2.173460 1_555
O59 Si11 1.669141 1_655
O59 Sn3 2.091050 1_555
O60 Si7 1.635785 1_555
O61 Si6 1.631095 1_455
O62 P3 1.540081 1_565
O63 Si4 1.631095 1_565
O64 Si5 1.635785 1_555
O65 P2 1.540081 1_455
O66 P0 1.563117 1_555
O66 Sn4 2.173460 1_555
O67 Si0 1.668201 1_555
O67 Sn4 2.076619 1_555
O68 Si1 1.669143 1_555
O68 Sn4 2.091050 1_555
O69 Si2 1.668201 1_555
O69 Sn5 2.076619 1_555
O70 P1 1.563117 1_555
O70 Sn5 2.173460 1_555
O71 Si3 1.669143 1_555
O71 Sn5 2.091050 1_555
