# generated using pymatgen
data_EuCuSeF
_symmetry_space_group_name_H-M   'P 1'
_cell_length_a   4.04465100
_cell_length_b   4.04465100
_cell_length_c   8.83025300
_cell_angle_alpha   90.00000000
_cell_angle_beta   90.00000000
_cell_angle_gamma   90.00000000
_symmetry_Int_Tables_number   1
_chemical_formula_structural   EuCuSeF
_chemical_formula_sum   'Eu2 Cu2 Se2 F2'
_cell_volume   144.45588999
_cell_formula_units_Z   2
loop_
 _symmetry_equiv_pos_site_id
 _symmetry_equiv_pos_as_xyz
  1  'x, y, z'
loop_
 _atom_site_type_symbol
 _atom_site_label
 _atom_site_symmetry_multiplicity
 _atom_site_fract_x
 _atom_site_fract_y
 _atom_site_fract_z
 _atom_site_occupancy
  Eu  Eu0  1  0.00000000  0.50000000  0.66787800  1
  Eu  Eu1  1  0.50000000  0.00000000  0.33212200  1
  Cu  Cu0  1  0.50000000  0.50000000  0.00000000  1
  Cu  Cu1  1  0.00000000  0.00000000  0.00000000  1
  Se  Se0  1  0.50000000  0.00000000  0.82747000  1
  Se  Se1  1  0.00000000  0.50000000  0.17253000  1
  F  F0  1  0.00000000  0.00000000  0.50000000  1
  F  F1  1  0.50000000  0.50000000  0.50000000  1
loop_
_geom_bond_atom_site_label_1
_geom_bond_atom_site_label_2
_geom_bond_distance
_geom_bond_site_symmetry_2
Eu0 F0 2.507454 1_565
Eu0 F0 2.507454 1_555
Eu0 F1 2.507454 1_555
Eu0 F1 2.507454 1_455
Eu0 Se0 3.188346 1_455
Eu0 Se0 3.188346 1_555
Eu0 Se0 3.188346 1_565
Eu0 Se0 3.188346 1_465
Eu1 F0 2.507454 1_555
Eu1 F1 2.507454 1_555
Eu1 F0 2.507454 1_655
Eu1 F1 2.507454 1_545
Eu1 Se1 3.188346 1_645
Eu1 Se1 3.188346 1_555
Eu1 Se1 3.188346 1_545
Eu1 Se1 3.188346 1_655
Cu0 Se0 2.531956 1_564
Cu0 Se0 2.531956 1_554
Cu0 Se1 2.531956 1_555
Cu0 Se1 2.531956 1_655
Cu1 Se0 2.531956 1_454
Cu1 Se0 2.531956 1_554
Cu1 Se1 2.531956 1_555
Cu1 Se1 2.531956 1_545
