# generated using pymatgen
data_MgFe3Co2Sb(PO4)6
_symmetry_space_group_name_H-M   'P 1'
_cell_length_a   8.74014496
_cell_length_b   8.79055190
_cell_length_c   8.77194201
_cell_angle_alpha   59.90568994
_cell_angle_beta   60.05336565
_cell_angle_gamma   60.32679380
_symmetry_Int_Tables_number   1
_chemical_formula_structural   MgFe3Co2Sb(PO4)6
_chemical_formula_sum   'Mg1 Fe3 Co2 Sb1 P6 O24'
_cell_volume   477.57337513
_cell_formula_units_Z   1
loop_
 _symmetry_equiv_pos_site_id
 _symmetry_equiv_pos_as_xyz
  1  'x, y, z'
loop_
 _atom_site_type_symbol
 _atom_site_label
 _atom_site_symmetry_multiplicity
 _atom_site_fract_x
 _atom_site_fract_y
 _atom_site_fract_z
 _atom_site_occupancy
  Mg  Mg0  1  0.86320000  0.38363700  0.37734700  1
  Fe  Fe0  1  0.04420700  0.65316900  0.65464100  1
  Fe  Fe1  1  0.43479400  0.85368100  0.85522100  1
  Fe  Fe2  1  0.21489600  0.25901300  0.26183300  1
  Co  Co0  1  0.01876200  0.99731300  0.99084200  1
  Co  Co1  1  0.47008300  0.50805500  0.51152100  1
  Sb  Sb0  1  0.58571800  0.13768500  0.13849800  1
  P  P0  1  0.23613600  0.25520600  0.55906500  1
  P  P1  1  0.23585200  0.94784100  0.25496400  1
  P  P2  1  0.23617600  0.55994700  0.95060300  1
  P  P3  1  0.73336400  0.46641700  0.05057300  1
  P  P4  1  0.73301400  0.05293400  0.74776800  1
  P  P5  1  0.72691000  0.75000800  0.46966500  1
  O  O0  1  0.06666500  0.11319900  0.30894900  1
  O  O1  1  0.06596500  0.50651500  0.11640500  1
  O  O2  1  0.06611300  0.31306200  0.50572500  1
  O  O3  1  0.22309000  0.08971000  0.74609000  1
  O  O4  1  0.41111800  0.19202000  0.38588300  1
  O  O5  1  0.26798900  0.40638700  0.56570300  1
  O  O6  1  0.22721300  0.93627200  0.08925900  1
  O  O7  1  0.26257900  0.76093300  0.41133000  1
  O  O8  1  0.56380900  0.60575500  0.98916700  1
  O  O9  1  0.26640800  0.56547800  0.76216200  1
  O  O10  1  0.76473700  0.25914100  0.06286400  1
  O  O11  1  0.56207900  0.99221900  0.83775500  1
  O  O12  1  0.41271800  0.00824100  0.19226800  1
  O  O13  1  0.22587500  0.74469800  0.94184800  1
  O  O14  1  0.69126000  0.44800200  0.25047500  1
  O  O15  1  0.41132400  0.38499900  0.01229400  1
  O  O16  1  0.69051500  0.25341400  0.60891200  1
  O  O17  1  0.76450200  0.06329700  0.91385100  1
  O  O18  1  0.68512300  0.61182500  0.44793200  1
  O  O19  1  0.55328500  0.84134800  0.60642400  1
  O  O20  1  0.76295200  0.91429400  0.26136000  1
  O  O21  1  0.90713600  0.67802100  0.50240100  1
  O  O22  1  0.91710500  0.49303800  0.90996900  1
  O  O23  1  0.91607800  0.91510200  0.67812000  1
loop_
_geom_bond_atom_site_label_1
_geom_bond_atom_site_label_2
_geom_bond_distance
_geom_bond_site_symmetry_2
Mg0 O14 2.003366 1_555
Mg0 O18 2.005420 1_555
Mg0 O16 2.008073 1_555
Mg0 O1 2.216454 1_655
Mg0 O2 2.236571 1_655
Mg0 O0 2.313730 1_655
Fe0 O22 2.033314 1_455
Fe0 O23 2.071346 1_455
Fe0 O21 2.076530 1_455
Fe0 O7 2.188833 1_555
Fe0 O9 2.207443 1_555
Fe0 O5 2.261200 1_555
Fe1 O19 1.927917 1_555
Fe1 O8 1.929611 1_555
Fe1 O11 1.930889 1_555
Fe1 O13 2.108578 1_555
Fe1 O6 2.122576 1_556
Fe1 O3 2.149526 1_565
Fe2 O0 2.017574 1_555
Fe2 O2 2.030735 1_555
Fe2 O1 2.031199 1_555
Fe2 O15 2.159836 1_555
Fe2 O4 2.166267 1_555
Fe2 O12 2.177890 1_555
Co0 O3 2.077935 1_565
Co0 O6 2.119044 1_556
Co0 O13 2.143144 1_555
Co0 O17 2.358040 1_465
Co0 O10 2.371547 1_466
Co0 O20 2.396728 1_456
Co1 O5 2.107938 1_555
Co1 O9 2.138542 1_555
Co1 O7 2.154883 1_555
Co1 O18 2.194590 1_555
Co1 O16 2.215364 1_555
Co1 O14 2.245348 1_555
O0 P1 1.544925 1_545
O1 P2 1.547789 1_554
O2 P0 1.546966 1_555
O3 P0 1.550773 1_555
O4 P0 1.625062 1_555
O4 Sb0 2.068227 1_555
O5 P0 1.518932 1_555
O6 P1 1.547349 1_555
O7 P1 1.521615 1_555
O8 P3 1.524684 1_556
O9 P2 1.516780 1_555
O10 P3 1.656679 1_555
O10 Sb0 1.983795 1_555
O11 P4 1.526289 1_565
O12 P1 1.626343 1_545
O12 Sb0 2.063195 1_555
O13 P2 1.545521 1_555
O14 P3 1.538361 1_555
O15 P2 1.631835 1_554
O15 Sb0 2.065277 1_555
O16 P4 1.542162 1_555
O17 P4 1.662746 1_555
O17 Sb0 1.989684 1_556
O18 P5 1.544745 1_555
O19 P5 1.526013 1_555
O20 P5 1.659231 1_555
O20 Sb0 1.987425 1_565
O21 P5 1.498866 1_555
O22 P3 1.503360 1_556
O23 P4 1.499428 1_565
