# generated using pymatgen
data_Sn4B3Ir7
_symmetry_space_group_name_H-M   'P 1'
_cell_length_a   9.31533936
_cell_length_b   9.31534394
_cell_length_c   5.66277288
_cell_angle_alpha   90.00000114
_cell_angle_beta   89.99999941
_cell_angle_gamma   120.00004189
_symmetry_Int_Tables_number   1
_chemical_formula_structural   Sn4B3Ir7
_chemical_formula_sum   'Sn8 B6 Ir14'
_cell_volume   425.55644003
_cell_formula_units_Z   2
loop_
 _symmetry_equiv_pos_site_id
 _symmetry_equiv_pos_as_xyz
  1  'x, y, z'
loop_
 _atom_site_type_symbol
 _atom_site_label
 _atom_site_symmetry_multiplicity
 _atom_site_fract_x
 _atom_site_fract_y
 _atom_site_fract_z
 _atom_site_occupancy
  Sn  Sn0  1  0.50166555  0.09155404  0.75000000  1
  Sn  Sn1  1  0.09154567  0.58988153  0.25000001  1
  Sn  Sn2  1  0.90845075  0.41007270  0.74999999  1
  Sn  Sn3  1  0.58989733  0.49835829  0.74999998  1
  Sn  Sn4  1  0.49837949  0.90845924  0.25000001  1
  Sn  Sn5  1  0.33333769  0.66665852  0.74999997  1
  Sn  Sn6  1  0.41008873  0.50164443  0.25000003  1
  Sn  Sn7  1  0.66667110  0.33332501  0.25000000  1
  B  B0  1  0.82698814  0.78982381  0.25000002  1
  B  B1  1  0.96283137  0.17301225  0.25000004  1
  B  B2  1  0.21017560  0.03716868  0.25000002  1
  B  B3  1  0.78982067  0.96283401  0.74999996  1
  B  B4  1  0.03716548  0.82699140  0.74999998  1
  B  B5  1  0.17300906  0.21017924  0.74999996  1
  Ir  Ir0  1  0.12445439  0.35586138  0.99901086  1
  Ir  Ir1  1  0.76859857  0.12446080  0.49901048  1
  Ir  Ir2  1  0.76859860  0.12446079  0.00098952  1
  Ir  Ir3  1  0.64413605  0.76860189  0.50098975  1
  Ir  Ir4  1  0.12445439  0.35586141  0.50098911  1
  Ir  Ir5  1  0.87553549  0.64413510  0.00098936  1
  Ir  Ir6  1  0.35586209  0.23140940  0.00098871  1
  Ir  Ir7  1  0.23140616  0.87554232  0.50098878  1
  Ir  Ir8  1  0.87553549  0.64413506  0.49901061  1
  Ir  Ir9  1  0.35586212  0.23140942  0.49901127  1
  Ir  Ir10  1  0.23140613  0.87554232  0.99901126  1
  Ir  Ir11  1  -0.00000610  0.00000754  0.50000001  1
  Ir  Ir12  1  -0.00000612  0.00000753  0.00000001  1
  Ir  Ir13  1  0.64413607  0.76860190  0.99901028  1
loop_
_geom_bond_atom_site_label_1
_geom_bond_atom_site_label_2
_geom_bond_distance
_geom_bond_site_symmetry_2
B0 Ir13 2.150295 1_554
B0 Ir3 2.150295 1_555
B0 Ir5 2.156026 1_555
B0 Ir8 2.156026 1_555
B0 Ir12 2.297726 1_665
B0 Ir11 2.297726 1_665
B1 Ir4 2.150260 1_655
B1 Ir0 2.150260 1_654
B1 Ir1 2.155994 1_555
B1 Ir2 2.155994 1_555
B1 Ir11 2.297648 1_655
B1 Ir12 2.297648 1_655
B2 Ir10 2.150301 1_544
B2 Ir7 2.150301 1_545
B2 Ir9 2.156046 1_555
B2 Ir6 2.156046 1_555
B2 Ir11 2.297755 1_555
B2 Ir12 2.297755 1_555
B3 Ir1 2.150272 1_565
B3 Ir2 2.150272 1_566
B3 Ir3 2.155997 1_555
B3 Ir13 2.155997 1_555
B3 Ir11 2.297662 1_665
B3 Ir12 2.297662 1_666
B4 Ir5 2.150310 1_456
B4 Ir8 2.150310 1_455
B4 Ir7 2.156052 1_555
B4 Ir10 2.156052 1_555
B4 Ir11 2.297773 1_565
B4 Ir12 2.297773 1_566
B5 Ir9 2.150274 1_555
B5 Ir6 2.150275 1_556
B5 Ir0 2.156018 1_555
B5 Ir4 2.156018 1_555
B5 Ir11 2.297694 1_555
B5 Ir12 2.297694 1_556
Ir0 Sn2 2.703377 1_455
Ir0 Sn6 2.707518 1_556
Ir0 Sn1 2.744931 1_556
Ir0 Sn5 2.919442 1_555
Ir1 Sn4 2.703391 1_545
Ir1 Sn2 2.707365 1_555
Ir1 Sn0 2.744970 1_555
Ir1 Sn7 2.919379 1_555
Ir2 Sn4 2.703391 1_545
Ir2 Sn2 2.707365 1_554
Ir2 Sn0 2.744970 1_554
Ir2 Sn7 2.919379 1_555
Ir3 Sn3 2.703528 1_555
Ir3 Sn4 2.707380 1_555
Ir3 Sn6 2.745153 1_555
Ir3 Sn5 2.919403 1_555
Ir4 Sn2 2.703377 1_455
Ir4 Sn6 2.707518 1_555
Ir4 Sn1 2.744931 1_555
Ir4 Sn5 2.919442 1_555
Ir5 Sn1 2.703648 1_655
Ir5 Sn3 2.707544 1_554
Ir5 Sn2 2.745297 1_554
Ir5 Sn7 2.919491 1_555
Ir6 Sn6 2.703496 1_555
Ir6 Sn0 2.707687 1_554
Ir6 Sn3 2.745071 1_554
Ir6 Sn7 2.919532 1_555
Ir7 Sn0 2.703629 1_565
Ir7 Sn1 2.707700 1_555
Ir7 Sn4 2.745254 1_555
Ir7 Sn5 2.919557 1_555
Ir8 Sn1 2.703647 1_655
Ir8 Sn3 2.707544 1_555
Ir8 Sn2 2.745297 1_555
Ir8 Sn7 2.919491 1_555
Ir9 Sn6 2.703495 1_555
Ir9 Sn0 2.707687 1_555
Ir9 Sn3 2.745071 1_555
Ir9 Sn7 2.919532 1_555
Ir10 Sn0 2.703629 1_565
Ir10 Sn1 2.707700 1_556
Ir10 Sn4 2.745255 1_556
Ir10 Sn5 2.919557 1_555
Ir13 Sn3 2.703528 1_555
Ir13 Sn4 2.707380 1_556
Ir13 Sn6 2.745153 1_556
Ir13 Sn5 2.919403 1_555
