# generated using pymatgen
data_BaNdMgCo2O5
_symmetry_space_group_name_H-M   'P 1'
_cell_length_a   4.55828400
_cell_length_b   3.67907200
_cell_length_c   8.52027200
_cell_angle_alpha   90.00000000
_cell_angle_beta   90.00000000
_cell_angle_gamma   90.00000000
_symmetry_Int_Tables_number   1
_chemical_formula_structural   BaNdMgCo2O5
_chemical_formula_sum   'Ba1 Nd1 Mg1 Co2 O5'
_cell_volume   142.88713439
_cell_formula_units_Z   1
loop_
 _symmetry_equiv_pos_site_id
 _symmetry_equiv_pos_as_xyz
  1  'x, y, z'
loop_
 _atom_site_type_symbol
 _atom_site_label
 _atom_site_symmetry_multiplicity
 _atom_site_fract_x
 _atom_site_fract_y
 _atom_site_fract_z
 _atom_site_occupancy
  Ba  Ba0  1  0.50000000  0.50000000  0.50000000  1
  Nd  Nd0  1  0.50000000  0.50000000  0.00000000  1
  Mg  Mg0  1  0.00000000  0.00000000  0.00000000  1
  Co  Co0  1  0.00000000  0.00000000  0.72013500  1
  Co  Co1  1  0.00000000  0.00000000  0.27986500  1
  O  O0  1  0.50000000  0.00000000  0.81940100  1
  O  O1  1  0.50000000  0.00000000  0.18059900  1
  O  O2  1  0.00000000  0.50000000  0.85285000  1
  O  O3  1  0.00000000  0.50000000  0.14715000  1
  O  O4  1  0.00000000  0.00000000  0.50000000  1
loop_
_geom_bond_atom_site_label_1
_geom_bond_atom_site_label_2
_geom_bond_distance
_geom_bond_site_symmetry_2
Ba0 O4 2.928887 1_565
Ba0 O4 2.928887 1_655
Ba0 O4 2.928887 1_665
Ba0 O4 2.928887 1_555
Ba0 O0 3.284786 1_565
Ba0 O0 3.284786 1_555
Ba0 O1 3.284786 1_555
Ba0 O1 3.284786 1_565
Nd0 O1 2.398260 1_555
Nd0 O1 2.398260 1_565
Nd0 O0 2.398260 1_564
Nd0 O0 2.398260 1_554
Nd0 O2 2.601230 1_554
Nd0 O2 2.601230 1_654
Nd0 O3 2.601230 1_655
Nd0 O3 2.601230 1_555
Mg0 O2 2.226163 1_554
Mg0 O2 2.226163 1_544
Mg0 O3 2.226163 1_545
Mg0 O3 2.226163 1_555
Co0 O4 1.875610 1_555
Co0 O2 2.159289 1_555
Co0 O2 2.159289 1_545
Co0 Mg0 2.384526 1_556
Co0 O0 2.431012 1_555
Co0 O0 2.431012 1_455
Co1 O4 1.875610 1_555
Co1 O3 2.159289 1_545
Co1 O3 2.159289 1_555
Co1 Mg0 2.384526 1_555
Co1 O1 2.431012 1_455
Co1 O1 2.431012 1_555
