# generated using pymatgen
data_AgIO3
_symmetry_space_group_name_H-M   'P 1'
_cell_length_a   5.66928603
_cell_length_b   7.23941537
_cell_length_c   15.25444032
_cell_angle_alpha   90.00000000
_cell_angle_beta   90.00000000
_cell_angle_gamma   90.00000000
_symmetry_Int_Tables_number   1
_chemical_formula_structural   AgIO3
_chemical_formula_sum   'Ag8 I8 O24'
_cell_volume   626.07756646
_cell_formula_units_Z   8
loop_
 _symmetry_equiv_pos_site_id
 _symmetry_equiv_pos_as_xyz
  1  'x, y, z'
loop_
 _atom_site_type_symbol
 _atom_site_label
 _atom_site_symmetry_multiplicity
 _atom_site_fract_x
 _atom_site_fract_y
 _atom_site_fract_z
 _atom_site_occupancy
  Ag  Ag0  1  0.00669474  0.60026744  0.70464690  1
  Ag  Ag1  1  0.50669474  0.39973256  0.29535310  1
  Ag  Ag2  1  0.00669474  0.39973256  0.20464690  1
  Ag  Ag3  1  0.50669474  0.60026744  0.79535310  1
  Ag  Ag4  1  0.99732230  0.12517457  0.70823313  1
  Ag  Ag5  1  0.49732230  0.87482543  0.29176687  1
  Ag  Ag6  1  0.99732230  0.87482543  0.20823313  1
  Ag  Ag7  1  0.49732230  0.12517457  0.79176687  1
  I  I0  1  0.59500836  0.86425924  0.58786960  1
  I  I1  1  0.09500836  0.13574076  0.41213040  1
  I  I2  1  0.59500836  0.13574076  0.08786960  1
  I  I3  1  0.09500836  0.86425924  0.91213040  1
  I  I4  1  0.52321560  0.35980362  0.58684571  1
  I  I5  1  0.02321560  0.64019638  0.41315429  1
  I  I6  1  0.52321560  0.64019638  0.08684571  1
  I  I7  1  0.02321560  0.35980362  0.91315429  1
  O  O0  1  0.17032494  0.36765031  0.80569345  1
  O  O1  1  0.67032494  0.63234969  0.19430655  1
  O  O2  1  0.17032494  0.63234969  0.30569345  1
  O  O3  1  0.67032494  0.36765031  0.69430655  1
  O  O4  1  0.11926941  0.85959199  0.79322169  1
  O  O5  1  0.61926941  0.14040801  0.20677831  1
  O  O6  1  0.11926941  0.14040801  0.29322169  1
  O  O7  1  0.61926941  0.85959199  0.70677831  1
  O  O8  1  0.30043945  0.05477401  0.92937855  1
  O  O9  1  0.80043945  0.94522599  0.07062145  1
  O  O10  1  0.30043945  0.94522599  0.42937855  1
  O  O11  1  0.80043945  0.05477401  0.57062145  1
  O  O12  1  0.82555016  0.16819878  0.88703626  1
  O  O13  1  0.32555016  0.83180122  0.11296374  1
  O  O14  1  0.82555016  0.83180122  0.38703626  1
  O  O15  1  0.32555016  0.16819878  0.61296374  1
  O  O16  1  0.32199940  0.55279655  0.60406377  1
  O  O17  1  0.82199940  0.44720345  0.39593623  1
  O  O18  1  0.32199940  0.44720345  0.10406377  1
  O  O19  1  0.82199940  0.55279655  0.89593623  1
  O  O20  1  0.80377665  0.67464984  0.56835277  1
  O  O21  1  0.30377665  0.32535016  0.43164723  1
  O  O22  1  0.80377665  0.32535016  0.06835277  1
  O  O23  1  0.30377665  0.67464984  0.93164723  1
loop_
_geom_bond_atom_site_label_1
_geom_bond_atom_site_label_2
_geom_bond_distance
_geom_bond_site_symmetry_2
Ag0 O16 2.380681 1_555
Ag0 O4 2.399464 1_555
Ag0 O20 2.436392 1_455
Ag0 O0 2.464224 1_555
Ag0 O3 2.548987 1_455
Ag1 O17 2.380681 1_555
Ag1 O5 2.399464 1_555
Ag1 O21 2.436392 1_555
Ag1 O1 2.464224 1_555
Ag1 O2 2.548987 1_555
Ag2 O18 2.380681 1_555
Ag2 O6 2.399464 1_555
Ag2 O22 2.436392 1_455
Ag2 O2 2.464224 1_555
Ag2 O1 2.548987 1_455
Ag3 O19 2.380681 1_555
Ag3 O7 2.399464 1_555
Ag3 O23 2.436392 1_555
Ag3 O3 2.464224 1_555
Ag3 O0 2.548987 1_555
Ag4 O15 2.381529 1_655
Ag4 O4 2.419791 1_645
Ag4 O11 2.431505 1_555
Ag4 O0 2.500725 1_655
Ag4 O3 2.561880 1_555
Ag5 O14 2.381529 1_555
Ag5 O5 2.419791 1_565
Ag5 O10 2.431505 1_555
Ag5 O1 2.500725 1_555
Ag5 O2 2.561880 1_555
Ag6 O13 2.381529 1_655
Ag6 O6 2.419791 1_665
Ag6 O9 2.431505 1_555
Ag6 O2 2.500725 1_655
Ag6 O1 2.561880 1_555
Ag7 O12 2.381529 1_555
Ag7 O7 2.419791 1_545
Ag7 O8 2.431505 1_555
Ag7 O3 2.500725 1_555
Ag7 O0 2.561880 1_555
I0 O7 1.819407 1_555
I0 O11 1.824244 1_565
I0 O20 1.836754 1_555
I1 O6 1.819407 1_555
I1 O10 1.824244 1_545
I1 O21 1.836754 1_555
I2 O5 1.819407 1_555
I2 O9 1.824244 1_545
I2 O22 1.836754 1_555
I3 O4 1.819407 1_555
I3 O8 1.824244 1_565
I3 O23 1.836754 1_555
I4 O16 1.822730 1_555
I4 O15 1.827182 1_555
I4 O3 1.840095 1_555
I5 O17 1.822730 1_455
I5 O14 1.827182 1_455
I5 O2 1.840095 1_555
I6 O18 1.822730 1_555
I6 O13 1.827182 1_555
I6 O1 1.840095 1_555
I7 O19 1.822730 1_455
I7 O12 1.827182 1_455
I7 O0 1.840095 1_555
