# generated using pymatgen
data_MgFe6(OF)6
_symmetry_space_group_name_H-M   'P 1'
_cell_length_a   5.23077775
_cell_length_b   5.31134926
_cell_length_c   8.81389921
_cell_angle_alpha   90.07554210
_cell_angle_beta   86.38143096
_cell_angle_gamma   85.12212663
_symmetry_Int_Tables_number   1
_chemical_formula_structural   MgFe6(OF)6
_chemical_formula_sum   'Mg1 Fe6 O6 F6'
_cell_volume   243.49323945
_cell_formula_units_Z   1
loop_
 _symmetry_equiv_pos_site_id
 _symmetry_equiv_pos_as_xyz
  1  'x, y, z'
loop_
 _atom_site_type_symbol
 _atom_site_label
 _atom_site_symmetry_multiplicity
 _atom_site_fract_x
 _atom_site_fract_y
 _atom_site_fract_z
 _atom_site_occupancy
  Mg  Mg0  1  0.03114200  0.42819100  0.20368700  1
  Fe  Fe0  1  0.91119700  0.92936700  0.98955900  1
  Fe  Fe1  1  0.91921400  0.93309100  0.36107500  1
  Fe  Fe2  1  0.12028100  0.08222200  0.66840400  1
  Fe  Fe3  1  0.55552800  0.46008100  0.15916400  1
  Fe  Fe4  1  0.45111100  0.56572300  0.83517900  1
  Fe  Fe5  1  0.47220400  0.56593000  0.50079400  1
  O  O0  1  0.21715500  0.84763900  0.50099300  1
  O  O1  1  0.19488100  0.85072200  0.83880900  1
  O  O2  1  0.33322300  0.35966300  0.67133800  1
  O  O3  1  0.68761100  0.66558300  0.98447500  1
  O  O4  1  0.72753300  0.61537400  0.33543400  1
  O  O5  1  0.82315000  0.14568800  0.16639500  1
  F  F0  1  0.15845500  0.75441300  0.15679200  1
  F  F1  1  0.28801000  0.34676200  0.00661900  1
  F  F2  1  0.30215200  0.34614300  0.34103600  1
  F  F3  1  0.66628400  0.70388700  0.66471800  1
  F  F4  1  0.81409400  0.18353200  0.83429600  1
  F  F5  1  0.84066600  0.20210200  0.53123600  1
loop_
_geom_bond_atom_site_label_1
_geom_bond_atom_site_label_2
_geom_bond_distance
_geom_bond_site_symmetry_2
Mg0 O5 1.965851 1_455
Mg0 O4 2.086763 1_455
Fe0 O3 1.902066 1_555
Fe0 O5 1.943237 1_566
Fe0 O1 1.945787 1_655
Fe1 O4 2.054113 1_555
Fe1 O0 2.068677 1_655
Fe1 O5 2.118789 1_565
Fe2 O2 1.922359 1_555
Fe2 O0 1.944170 1_545
Fe2 O1 1.979187 1_545
Fe3 O3 2.009414 1_554
Fe3 O4 2.050083 1_555
Fe3 O5 2.089523 1_555
Fe4 O1 1.933439 1_555
Fe4 O3 1.964292 1_555
Fe4 O2 1.971411 1_555
Fe5 O0 1.918030 1_555
Fe5 O4 1.947272 1_555
Fe5 O2 1.997518 1_555
F0 Mg0 1.944190 1_555
F0 Fe0 2.179153 1_454
F0 Fe1 2.284228 1_455
F0 Fe3 2.492318 1_555
F1 Fe4 2.091484 1_554
F1 Fe3 2.122895 1_555
F1 Mg0 2.148005 1_555
F2 Mg0 1.943691 1_555
F2 Fe5 2.113537 1_555
F2 Fe3 2.136161 1_555
F3 Fe5 1.990942 1_555
F3 Fe4 1.998129 1_555
F4 Fe0 1.982194 1_545
F4 Fe2 2.132678 1_655
F5 Fe2 2.018200 1_655
F5 Fe1 2.067943 1_545
