# generated using pymatgen
data_Na3Ti2SiSn2P5O24
_symmetry_space_group_name_H-M   'P 1'
_cell_length_a   8.76644882
_cell_length_b   8.74852322
_cell_length_c   22.54320023
_cell_angle_alpha   90.07544730
_cell_angle_beta   89.93746082
_cell_angle_gamma   119.99694802
_symmetry_Int_Tables_number   1
_chemical_formula_structural   Na3Ti2SiSn2P5O24
_chemical_formula_sum   'Na9 Ti6 Si3 Sn6 P15 O72'
_cell_volume   1497.33017030
_cell_formula_units_Z   3
loop_
 _symmetry_equiv_pos_site_id
 _symmetry_equiv_pos_as_xyz
  1  'x, y, z'
loop_
 _atom_site_type_symbol
 _atom_site_label
 _atom_site_symmetry_multiplicity
 _atom_site_fract_x
 _atom_site_fract_y
 _atom_site_fract_z
 _atom_site_occupancy
  Na  Na0  1  0.36545408  0.99886295  0.75037357  1
  Na  Na1  1  0.66309252  0.96850311  0.58381161  1
  Na  Na2  1  0.66805821  0.69735983  0.08219789  1
  Na  Na3  1  0.01201318  0.00127824  0.49792895  1
  Na  Na4  1  0.00753416  0.00653863  0.00071239  1
  Na  Na5  1  0.67634410  0.33917801  0.83372989  1
  Na  Na6  1  0.66663918  0.33334039  0.33312690  1
  Na  Na7  1  0.32344488  0.66550681  0.16804315  1
  Na  Na8  1  0.32635409  0.65316265  0.66653809  1
  Ti  Ti0  1  0.99975314  0.00101286  0.35314207  1
  Ti  Ti1  1  0.00603873  0.00021112  0.14756442  1
  Ti  Ti2  1  0.32212689  0.66559671  0.01982459  1
  Ti  Ti3  1  0.32819688  0.66819606  0.51871093  1
  Ti  Ti4  1  0.33370800  0.66553910  0.31337760  1
  Ti  Ti5  1  0.34154415  0.66730071  0.81389060  1
  Si  Si0  1  0.71003021  0.00045012  0.75042824  1
  Si  Si1  1  0.36944589  0.04043316  0.58208646  1
  Si  Si2  1  0.95976444  0.62441251  0.08406520  1
  Sn  Sn0  1  0.99730218  0.00044749  0.85474744  1
  Sn  Sn1  1  0.00117566  0.99842256  0.64818048  1
  Sn  Sn2  1  0.66999112  0.33380026  0.68482612  1
  Sn  Sn3  1  0.66979831  0.33304142  0.18742014  1
  Sn  Sn4  1  0.66796648  0.33498546  0.98016171  1
  Sn  Sn5  1  0.66314517  0.33289070  0.47807736  1
  P  P0  1  0.28622938  0.99839118  0.25117942  1
  P  P1  1  0.71158488  0.71408973  0.25066361  1
  P  P2  1  0.00182237  0.28699054  0.25101271  1
  P  P3  1  0.29064599  0.29473466  0.75102440  1
  P  P4  1  -0.00053207  0.70515176  0.75200704  1
  P  P5  1  0.96213798  0.33824544  0.58177368  1
  P  P6  1  0.66377069  0.62231066  0.58174779  1
  P  P7  1  0.66681672  0.04169385  0.08352331  1
  P  P8  1  0.37255696  0.33100517  0.08315813  1
  P  P9  1  0.62007594  0.66558010  0.91823003  1
  P  P10  1  0.04782842  0.38121917  0.91627855  1
  P  P11  1  0.33366713  0.95460984  0.91618411  1
  P  P12  1  0.62219030  0.95242988  0.41568808  1
  P  P13  1  0.33107235  0.37968631  0.41554359  1
  P  P14  1  0.04731127  0.66859743  0.41526270  1
  O  O0  1  0.19640070  0.02576544  0.30591407  1
  O  O1  1  0.83075083  0.80649356  0.30512252  1
  O  O2  1  0.97683436  0.17051581  0.30628021  1
  O  O3  1  0.21539191  0.17084481  0.80536754  1
  O  O4  1  0.96757901  0.78776221  0.80723000  1
  O  O5  1  0.83149882  0.03962969  0.80809794  1
  O  O6  1  0.78118161  0.96048888  0.68865342  1
  O  O7  1  0.17876812  0.21709402  0.69468637  1
  O  O8  1  0.04548242  0.82527083  0.69640194  1
  O  O9  1  0.79439555  0.82258035  0.19335089  1
  O  O10  1  0.02718445  0.19985875  0.19510601  1
  O  O11  1  0.17284997  0.97260910  0.19497296  1
  O  O12  1  0.88808958  0.37618713  0.63854114  1
  O  O13  1  0.49179247  0.11119255  0.64238142  1
  O  O14  1  0.63152229  0.51267183  0.63868084  1
  O  O15  1  0.88174013  0.50440126  0.14269674  1
  O  O16  1  0.62391884  0.11541437  0.13912537  1
  O  O17  1  0.49465229  0.37607881  0.13812714  1
  O  O18  1  0.44787442  0.29016585  0.02736103  1
  O  O19  1  0.83012828  0.55178952  0.02634537  1
  O  O20  1  0.70437226  0.15641985  0.02768264  1
  O  O21  1  0.45841622  0.16156427  0.52456901  1
  O  O22  1  0.70432117  0.54597741  0.52680756  1
  O  O23  1  0.84039305  0.29637424  0.52743358  1
  O  O24  1  0.53515555  0.68873685  0.97461484  1
  O  O25  1  0.15988315  0.47215853  0.97234419  1
  O  O26  1  0.31011415  0.83971470  0.97121469  1
  O  O27  1  0.53951256  0.84439998  0.47313469  1
  O  O28  1  0.30612681  0.46673484  0.47146252  1
  O  O29  1  0.16046341  0.69449547  0.47157576  1
  O  O30  1  0.13731315  0.64100327  0.36067068  1
  O  O31  1  0.50241009  0.85978618  0.36147036  1
  O  O32  1  0.35636197  0.49633460  0.36029646  1
  O  O33  1  0.13709201  0.49321236  0.86100565  1
  O  O34  1  0.35698600  0.87008597  0.85921823  1
  O  O35  1  0.50682926  0.64607511  0.86243572  1
  O  O36  1  0.02905281  0.83478030  0.40865419  1
  O  O37  1  0.80658849  0.97029625  0.40824709  1
  O  O38  1  0.16568244  0.19394706  0.40836021  1
  O  O39  1  0.03427750  0.19719636  0.91453475  1
  O  O40  1  0.16596973  0.97177312  0.91295765  1
  O  O41  1  0.80600718  0.83175375  0.91425529  1
  O  O42  1  0.97170584  0.16655900  0.58802676  1
  O  O43  1  0.17572568  0.01759431  0.58773328  1
  O  O44  1  0.82488474  0.81178760  0.58709493  1
  O  O45  1  0.97770066  0.82004952  0.09388464  1
  O  O46  1  0.83026921  0.01870532  0.09216977  1
  O  O47  1  0.18793100  0.16998360  0.09274134  1
  O  O48  1  0.67809090  0.16955547  0.74669435  1
  O  O49  1  0.47546301  0.31338057  0.74445149  1
  O  O50  1  0.83269942  0.52443616  0.74477292  1
  O  O51  1  0.69119627  0.52691173  0.24719882  1
  O  O52  1  0.83240935  0.30179392  0.24797237  1
  O  O53  1  0.47123396  0.16650353  0.24577349  1
  O  O54  1  0.63298539  0.49457339  0.91913748  1
  O  O55  1  0.86189133  0.36132594  0.92036224  1
  O  O56  1  0.50151600  0.13912845  0.92101871  1
  O  O57  1  0.64246556  0.13947865  0.41883023  1
  O  O58  1  0.50026274  0.36441877  0.41823106  1
  O  O59  1  0.86235066  0.50061051  0.42040174  1
  O  O60  1  0.35987751  0.50060677  0.07463752  1
  O  O61  1  0.15553834  0.64927854  0.07377434  1
  O  O62  1  0.50692990  0.85251782  0.07471814  1
  O  O63  1  0.35844912  0.84669176  0.57286759  1
  O  O64  1  0.49965824  0.64393938  0.57442556  1
  O  O65  1  0.14658239  0.49930371  0.57359705  1
  O  O66  1  0.30438779  0.83211791  0.25786594  1
  O  O67  1  0.52704885  0.69626839  0.25828453  1
  O  O68  1  0.16749716  0.47263125  0.25814708  1
  O  O69  1  0.30803197  0.47686032  0.75961612  1
  O  O70  1  0.16611264  0.68841390  0.75919908  1
  O  O71  1  0.51027341  0.82639803  0.75940578  1
loop_
_geom_bond_atom_site_label_1
_geom_bond_atom_site_label_2
_geom_bond_distance
_geom_bond_site_symmetry_2
Na0 O48 2.378201 1_565
Na0 O70 2.392654 1_555
Na0 O71 2.417943 1_555
Na0 O49 2.422051 1_565
Na0 O13 2.651646 1_565
Na0 O34 2.686762 1_555
Na0 O8 2.719908 1_555
Na0 O3 2.738970 1_565
Na1 O63 2.341758 1_555
Na1 O42 2.375613 1_565
Na1 O44 2.416982 1_555
Na1 O64 2.468049 1_555
Na1 O6 2.596333 1_555
Na1 O27 2.720329 1_555
Na1 O13 2.724421 1_565
Na1 O23 2.793950 1_565
Na2 O60 2.375110 1_555
Na2 O45 2.382713 1_555
Na2 O62 2.405100 1_555
Na2 O46 2.444945 1_565
Na2 O19 2.650830 1_555
Na2 O24 2.676347 1_554
Na2 O9 2.736993 1_555
Na2 O17 2.744735 1_555
Na3 O43 2.445272 1_555
Na3 O36 2.530520 1_545
Na3 O38 2.542733 1_555
Na3 O44 2.600396 1_445
Na3 O42 2.615834 1_455
Na3 O37 2.631023 1_445
Na4 O39 2.495554 1_554
Na4 O40 2.519915 1_544
Na4 O41 2.560561 1_444
Na4 O47 2.566691 1_555
Na4 O45 2.592887 1_445
Na4 O46 2.614344 1_455
Na5 O48 2.463128 1_555
Na5 O55 2.487615 1_555
Na5 O54 2.491561 1_555
Na5 O50 2.511639 1_555
Na5 O56 2.569915 1_555
Na5 O49 2.609958 1_555
Na6 O52 2.503323 1_555
Na6 O58 2.504196 1_555
Na6 O57 2.510463 1_555
Na6 O51 2.511910 1_555
Na6 O53 2.538183 1_555
Na6 O59 2.538750 1_555
Na7 O66 2.547093 1_555
Na7 O61 2.549508 1_555
Na7 O68 2.557044 1_555
Na7 O67 2.631143 1_555
Na7 O62 2.657156 1_555
Na7 O60 2.658618 1_555
Na8 O65 2.562022 1_555
Na8 O69 2.562731 1_555
Na8 O64 2.596501 1_555
Na8 O71 2.614392 1_555
Na8 O70 2.618569 1_555
Na8 O63 2.633727 1_555
O0 P0 1.544552 1_545
O0 Ti0 1.943084 1_455
O1 P1 1.551702 1_555
O1 Ti0 1.934024 1_565
O2 P2 1.555039 1_655
O2 Ti0 1.912558 1_555
O3 P3 1.548392 1_555
O3 Sn0 2.065575 1_455
O4 P4 1.532692 1_655
O4 Sn0 2.046476 1_565
O5 Si0 1.605751 1_555
O5 Sn0 1.959232 1_555
O6 Si0 1.632631 1_565
O6 Sn1 2.004732 1_655
O7 P3 1.539679 1_555
O7 Sn1 2.050098 1_545
O8 P4 1.554620 1_555
O8 Sn1 2.054469 1_555
O9 P1 1.552217 1_555
O9 Ti1 2.009912 1_665
O10 P2 1.544414 1_555
O10 Ti1 1.976217 1_555
O11 P0 1.556306 1_555
O11 Ti1 1.922535 1_565
O12 P5 1.543298 1_555
O12 Sn2 2.041936 1_555
O13 Si1 1.648690 1_555
O13 Sn2 2.026069 1_555
O14 P6 1.542241 1_555
O14 Sn2 2.043868 1_555
O15 Si2 1.612698 1_555
O15 Sn3 1.982617 1_555
O16 P7 1.538788 1_555
O16 Sn3 2.049824 1_555
O17 P8 1.554436 1_555
O17 Sn3 2.077723 1_555
O18 P8 1.542291 1_555
O18 Sn4 2.061244 1_554
O19 Si2 1.633204 1_555
O19 Sn4 2.001078 1_554
O20 P7 1.540269 1_555
O20 Sn4 2.047825 1_554
O21 Si1 1.608580 1_555
O21 Sn5 1.968843 1_555
O22 P6 1.529874 1_555
O22 Sn5 2.033449 1_555
O23 P5 1.544225 1_555
O23 Sn5 2.062887 1_555
O24 P9 1.535899 1_555
O24 Ti2 2.045882 1_556
O25 P10 1.553694 1_555
O25 Ti2 1.903760 1_556
O26 P11 1.545053 1_555
O26 Ti2 1.922845 1_556
O27 P12 1.553023 1_555
O27 Ti3 2.002063 1_555
O28 P13 1.542809 1_555
O28 Ti3 1.983138 1_555
O29 P14 1.556959 1_555
O29 Ti3 1.920027 1_555
O30 P14 1.543669 1_555
O30 Ti4 1.942676 1_555
O31 P12 1.550028 1_555
O31 Ti4 1.932907 1_555
O32 P13 1.555066 1_555
O32 Ti4 1.909964 1_555
O33 P10 1.536017 1_555
O33 Ti5 1.982604 1_555
O34 P11 1.544609 1_555
O34 Ti5 1.991277 1_555
O35 P9 1.558685 1_555
O35 Ti5 1.898589 1_555
O36 P14 1.547519 1_555
O36 Ti0 2.031252 1_465
O37 P12 1.553232 1_555
O37 Ti0 2.006030 1_565
O38 P13 1.553346 1_555
O38 Ti0 2.014398 1_455
O39 P10 1.554393 1_555
O39 Sn0 2.078781 1_455
O40 P11 1.552432 1_555
O40 Sn0 2.084997 1_465
O41 P9 1.552063 1_555
O41 Sn0 2.077385 1_565
O42 P5 1.552248 1_555
O42 Sn1 2.110761 1_645
O43 Si1 1.612591 1_555
O43 Sn1 1.991456 1_545
O44 P6 1.554345 1_555
O44 Sn1 2.103868 1_655
O45 Si2 1.653198 1_555
O45 Ti1 1.901170 1_665
O46 P7 1.555796 1_555
O46 Ti1 2.052784 1_655
O47 P8 1.539787 1_555
O47 Ti1 1.976975 1_555
O48 Si0 1.639739 1_555
O48 Sn2 2.030381 1_555
O49 P3 1.552047 1_555
O49 Sn2 2.106603 1_555
O50 P4 1.533682 1_655
O50 Sn2 2.064440 1_555
O51 P1 1.557752 1_555
O51 Sn3 2.098645 1_555
O52 P2 1.555541 1_655
O52 Sn3 2.089274 1_555
O53 P0 1.556673 1_545
O53 Sn3 2.085041 1_555
O54 P9 1.555888 1_555
O54 Sn4 2.090427 1_555
O55 P10 1.552981 1_655
O55 Sn4 2.089164 1_555
O56 P11 1.551669 1_545
O56 Sn4 2.083502 1_555
O57 P12 1.556698 1_545
O57 Sn5 2.089905 1_555
O58 P13 1.555538 1_555
O58 Sn5 2.081855 1_555
O59 P14 1.555528 1_655
O59 Sn5 2.081116 1_555
O60 P8 1.554514 1_555
O60 Ti2 2.050136 1_555
O61 Si2 1.634801 1_455
O61 Ti2 1.849426 1_555
O62 P7 1.556690 1_565
O62 Ti2 2.044539 1_555
O63 Si1 1.661649 1_565
O63 Ti3 1.892338 1_555
O64 P6 1.551020 1_555
O64 Ti3 2.050764 1_555
O65 P5 1.534836 1_455
O65 Ti3 1.974140 1_555
O66 P0 1.547973 1_555
O66 Ti4 2.033697 1_555
O67 P1 1.555033 1_555
O67 Ti4 2.007031 1_555
O68 P2 1.553761 1_555
O68 Ti4 2.015212 1_555
O69 P3 1.534886 1_555
O69 Ti5 1.965987 1_555
O70 P4 1.548026 1_555
O70 Ti5 2.051381 1_555
O71 Si0 1.661301 1_565
O71 Ti5 1.890969 1_555
