# generated using pymatgen
data_MgV2(OF3)2
_symmetry_space_group_name_H-M   'P 1'
_cell_length_a   4.67027164
_cell_length_b   7.32638103
_cell_length_c   4.79696760
_cell_angle_alpha   72.71005473
_cell_angle_beta   89.99286600
_cell_angle_gamma   71.37247919
_symmetry_Int_Tables_number   1
_chemical_formula_structural   MgV2(OF3)2
_chemical_formula_sum   'Mg1 V2 O2 F6'
_cell_volume   147.69008015
_cell_formula_units_Z   1
loop_
 _symmetry_equiv_pos_site_id
 _symmetry_equiv_pos_as_xyz
  1  'x, y, z'
loop_
 _atom_site_type_symbol
 _atom_site_label
 _atom_site_symmetry_multiplicity
 _atom_site_fract_x
 _atom_site_fract_y
 _atom_site_fract_z
 _atom_site_occupancy
  Mg  Mg0  1  0.75155500  0.99935400  0.25168200  1
  V  V0  1  0.03590600  0.39150400  0.02450100  1
  V  V1  1  0.42794800  0.60700800  0.47632400  1
  O  O0  1  0.20071800  0.58991700  0.75029100  1
  O  O1  1  0.79159500  0.40851500  0.75031400  1
  F  F0  1  0.39496800  0.17400400  0.99133500  1
  F  F1  1  0.31949300  0.40542100  0.33667300  1
  F  F2  1  0.11831500  0.81955400  0.17192800  1
  F  F3  1  0.56926200  0.82436600  0.51026000  1
  F  F4  1  0.72531200  0.59317100  0.16396700  1
  F  F5  1  0.93915400  0.17924500  0.32942800  1
loop_
_geom_bond_atom_site_label_1
_geom_bond_atom_site_label_2
_geom_bond_distance
_geom_bond_site_symmetry_2
O0 V1 1.689898 1_555
O0 V0 2.003430 1_556
O1 V0 1.690985 1_656
O1 V1 2.003306 1_555
F0 Mg0 1.913039 1_546
F0 V0 1.954520 1_556
F1 V1 1.988126 1_555
F1 V0 2.045598 1_555
F2 Mg0 1.916640 1_455
F2 V1 1.964313 1_555
F3 Mg0 1.912779 1_555
F3 V1 1.955369 1_555
F4 V0 1.988180 1_655
F4 V1 2.045457 1_555
F5 Mg0 1.916666 1_545
F5 V0 1.964352 1_655
