# generated using pymatgen
data_Na4Mg2Sc2SiS5O24
_symmetry_space_group_name_H-M   'P 1'
_cell_length_a   8.91694928
_cell_length_b   8.85579868
_cell_length_c   22.68318551
_cell_angle_alpha   90.00359114
_cell_angle_beta   90.04870700
_cell_angle_gamma   119.84998058
_symmetry_Int_Tables_number   1
_chemical_formula_structural   Na4Mg2Sc2SiS5O24
_chemical_formula_sum   'Na12 Mg6 Sc6 Si3 S15 O72'
_cell_volume   1553.57785008
_cell_formula_units_Z   3
loop_
 _symmetry_equiv_pos_site_id
 _symmetry_equiv_pos_as_xyz
  1  'x, y, z'
loop_
 _atom_site_type_symbol
 _atom_site_label
 _atom_site_symmetry_multiplicity
 _atom_site_fract_x
 _atom_site_fract_y
 _atom_site_fract_z
 _atom_site_occupancy
  Na  Na0  1  0.99568516  0.63151237  0.24056032  1
  Na  Na1  1  0.99137394  0.35211888  0.75649882  1
  Na  Na2  1  0.37112146  0.99533953  0.75141873  1
  Na  Na3  1  0.65946598  0.97385225  0.58864666  1
  Na  Na4  1  0.67664875  0.68723651  0.07824575  1
  Na  Na5  1  0.33720749  0.03541053  0.42147968  1
  Na  Na6  1  0.01331295  0.00296228  0.50027470  1
  Na  Na7  1  0.01121425  0.99572360  0.00176785  1
  Na  Na8  1  0.66657787  0.33391923  0.84096930  1
  Na  Na9  1  0.66667816  0.33345328  0.33080029  1
  Na  Na10  1  0.32062476  0.66243000  0.16441084  1
  Na  Na11  1  0.34890412  0.67674146  0.66856314  1
  Mg  Mg0  1  0.99524878  0.00212843  0.34955649  1
  Mg  Mg1  1  0.67160588  0.33230653  0.18094506  1
  Mg  Mg2  1  0.67409795  0.34208916  0.98489944  1
  Mg  Mg3  1  0.66036336  0.33249130  0.48241936  1
  Mg  Mg4  1  0.33820672  0.66362394  0.31527907  1
  Mg  Mg5  1  0.35053998  0.67649875  0.81825348  1
  Sc  Sc0  1  0.98504370  0.99813517  0.85420911  1
  Sc  Sc1  1  0.00060086  0.99587125  0.64708791  1
  Sc  Sc2  1  0.00505055  0.00098003  0.14714961  1
  Sc  Sc3  1  0.65746377  0.32031609  0.68269888  1
  Sc  Sc4  1  0.31816578  0.66806349  0.02054189  1
  Sc  Sc5  1  0.33055346  0.66944089  0.51782059  1
  Si  Si0  1  0.70033386  0.99369735  0.74762847  1
  Si  Si1  1  0.36561983  0.03715371  0.57946561  1
  Si  Si2  1  0.95735744  0.62314766  0.08640953  1
  S  S0  1  0.29791126  0.00192382  0.25296814  1
  S  S1  1  0.70350410  0.70583408  0.25101922  1
  S  S2  1  0.99932903  0.29446873  0.25208460  1
  S  S3  1  0.29206374  0.29482114  0.75123791  1
  S  S4  1  -0.00045479  0.70463744  0.75159474  1
  S  S5  1  0.95981925  0.33626837  0.58195942  1
  S  S6  1  0.66649634  0.62336007  0.58100555  1
  S  S7  1  0.66662520  0.04311139  0.08302413  1
  S  S8  1  0.37787849  0.33254151  0.08278900  1
  S  S9  1  0.62406095  0.66000119  0.91777141  1
  S  S10  1  0.03857160  0.37556173  0.91474612  1
  S  S11  1  0.33669721  0.96758632  0.91512123  1
  S  S12  1  0.63098482  0.96117672  0.41568314  1
  S  S13  1  0.33344090  0.37235248  0.41488895  1
  S  S14  1  0.03521742  0.66478953  0.41418966  1
  O  O0  1  0.21777184  0.02526121  0.30728614  1
  O  O1  1  0.81936760  0.79355819  0.30191731  1
  O  O2  1  0.98223203  0.19035935  0.30481795  1
  O  O3  1  0.21481108  0.17941206  0.80304237  1
  O  O4  1  0.97916795  0.78981146  0.80417487  1
  O  O5  1  0.83508870  0.03318111  0.80252398  1
  O  O6  1  0.79173046  0.97761291  0.68712227  1
  O  O7  1  0.18506982  0.21306713  0.69783452  1
  O  O8  1  0.03342128  0.81651343  0.69858286  1
  O  O9  1  0.78331926  0.80814768  0.19618607  1
  O  O10  1  0.02122827  0.21272962  0.19852595  1
  O  O11  1  0.18237719  0.97372504  0.20125424  1
  O  O12  1  0.88684971  0.36282126  0.63783478  1
  O  O13  1  0.48702954  0.12208045  0.63945469  1
  O  O14  1  0.64862396  0.52510107  0.63576136  1
  O  O15  1  0.88315496  0.52311762  0.14833435  1
  O  O16  1  0.63633871  0.11696144  0.13662053  1
  O  O17  1  0.48286670  0.35757898  0.13614922  1
  O  O18  1  0.45086891  0.30095309  0.02941319  1
  O  O19  1  0.83017886  0.54147742  0.03078307  1
  O  O20  1  0.68631403  0.14341412  0.02957244  1
  O  O21  1  0.45607344  0.14621833  0.52067477  1
  O  O22  1  0.69142788  0.54290107  0.52890623  1
  O  O23  1  0.84927421  0.31390346  0.53117577  1
  O  O24  1  0.54711505  0.68524249  0.97210178  1
  O  O25  1  0.14772337  0.46389680  0.96657797  1
  O  O26  1  0.31304477  0.85561706  0.96694810  1
  O  O27  1  0.55157069  0.85944960  0.47124442  1
  O  O28  1  0.31231108  0.45461450  0.46905096  1
  O  O29  1  0.15059502  0.69362534  0.46665361  1
  O  O30  1  0.11687154  0.64192884  0.36073169  1
  O  O31  1  0.51327930  0.87236893  0.36555262  1
  O  O32  1  0.35109137  0.47771273  0.36278806  1
  O  O33  1  0.12010452  0.47457233  0.85967669  1
  O  O34  1  0.35475617  0.88509830  0.86018299  1
  O  O35  1  0.52033619  0.64473226  0.86518015  1
  O  O36  1  0.02606377  0.82875246  0.41031289  1
  O  O37  1  0.80291151  0.97685339  0.40966324  1
  O  O38  1  0.17921127  0.19278213  0.41089268  1
  O  O39  1  0.02649622  0.20022849  0.91235204  1
  O  O40  1  0.17874881  0.98422572  0.91097732  1
  O  O41  1  0.80141821  0.81871672  0.91237519  1
  O  O42  1  0.97016648  0.17342780  0.58662773  1
  O  O43  1  0.17401923  0.01285195  0.58867461  1
  O  O44  1  0.81765779  0.80431848  0.58569678  1
  O  O45  1  0.97967581  0.82380909  0.09201436  1
  O  O46  1  0.82412223  0.02327464  0.08944039  1
  O  O47  1  0.19799028  0.18415436  0.08997652  1
  O  O48  1  0.68818126  0.17709694  0.74556478  1
  O  O49  1  0.46732634  0.31683145  0.74427798  1
  O  O50  1  0.84273460  0.53166575  0.74441781  1
  O  O51  1  0.68670604  0.52990233  0.24674473  1
  O  O52  1  0.84136195  0.31300341  0.24817883  1
  O  O53  1  0.47090366  0.15554320  0.24481697  1
  O  O54  1  0.64174774  0.50284904  0.92084828  1
  O  O55  1  0.86389785  0.35337566  0.92022659  1
  O  O56  1  0.49252405  0.14045842  0.92179897  1
  O  O57  1  0.64627676  0.13664429  0.42046681  1
  O  O58  1  0.49098997  0.35332415  0.41900896  1
  O  O59  1  0.86291269  0.51115592  0.42278892  1
  O  O60  1  0.36864702  0.49697118  0.07664795  1
  O  O61  1  0.15394549  0.65120681  0.07773470  1
  O  O62  1  0.51816062  0.85898817  0.07712354  1
  O  O63  1  0.35753836  0.84446284  0.57641481  1
  O  O64  1  0.50934259  0.64304462  0.57669142  1
  O  O65  1  0.13665309  0.48692395  0.57641281  1
  O  O66  1  0.30696812  0.83797847  0.25729045  1
  O  O67  1  0.53085734  0.69021026  0.25747381  1
  O  O68  1  0.15347430  0.47461058  0.25645236  1
  O  O69  1  0.30039104  0.46468014  0.75845380  1
  O  O70  1  0.15166742  0.67921790  0.75730573  1
  O  O71  1  0.50567931  0.83124741  0.75446642  1
loop_
_geom_bond_atom_site_label_1
_geom_bond_atom_site_label_2
_geom_bond_distance
_geom_bond_site_symmetry_2
Na0 O15 2.311283 1_555
Na0 O51 2.439873 1_555
Na0 O68 2.446551 1_655
Na0 O52 2.452789 1_555
Na0 O66 2.477425 1_655
Na0 O11 2.780516 1_655
Na0 O30 2.915875 1_655
Na0 O1 2.952570 1_555
Na1 O48 2.366542 1_555
Na1 O69 2.419476 1_655
Na1 O70 2.512507 1_655
Na1 O50 2.541125 1_555
Na1 O33 2.593659 1_655
Na1 O5 2.663478 1_555
Na1 O12 2.864701 1_555
Na1 O7 2.896754 1_655
Na2 O71 2.300356 1_555
Na2 O48 2.464181 1_565
Na2 O70 2.496296 1_555
Na2 O49 2.537115 1_565
Na2 O34 2.630624 1_555
Na2 O13 2.761902 1_565
Na2 O3 2.869751 1_565
Na2 O8 2.873755 1_555
Na3 O63 2.359246 1_555
Na3 O42 2.434613 1_565
Na3 O6 2.517557 1_555
Na3 O44 2.521238 1_555
Na3 O64 2.557987 1_555
Na3 O13 2.725369 1_565
Na3 O27 2.840586 1_555
Na3 O23 2.926297 1_565
Na4 O45 2.367879 1_555
Na4 O60 2.403435 1_555
Na4 O62 2.539884 1_555
Na4 O19 2.541841 1_555
Na4 O46 2.598732 1_565
Na4 O24 2.665773 1_554
Na4 O9 2.861774 1_555
Na4 O17 2.866425 1_555
Na5 O38 2.436959 1_555
Na5 O57 2.437239 1_555
Na5 O58 2.442726 1_555
Na5 O36 2.460752 1_545
Na5 O21 2.471727 1_555
Na5 O0 2.784208 1_555
Na5 O29 2.823096 1_545
Na5 O31 2.901524 1_545
Na6 O43 2.439700 1_555
Na6 O38 2.579700 1_555
Na6 O36 2.594572 1_545
Na6 O42 2.615867 1_455
Na6 O44 2.616080 1_445
Na6 O37 2.712823 1_445
Na7 O45 2.482459 1_455
Na7 O40 2.576806 1_554
Na7 O47 2.605597 1_565
Na7 O41 2.672538 1_454
Na7 O39 2.677216 1_564
Na7 O46 2.684845 1_465
Na8 O54 2.429022 1_555
Na8 O55 2.459758 1_555
Na8 O56 2.462506 1_555
Na8 O48 2.629776 1_555
Na8 O50 2.756563 1_555
Na8 O49 2.777720 1_555
Na9 O52 2.501421 1_555
Na9 O51 2.526958 1_555
Na9 O53 2.567034 1_555
Na9 O58 2.601603 1_555
Na9 O57 2.625468 1_555
Na9 O59 2.672911 1_555
Na10 O61 2.435641 1_555
Na10 O68 2.623894 1_555
Na10 O60 2.630422 1_555
Na10 O62 2.647072 1_555
Na10 O66 2.656838 1_555
Na10 O67 2.750464 1_555
Na11 O71 2.390454 1_555
Na11 O63 2.543207 1_555
Na11 O64 2.628406 1_555
Na11 O69 2.657957 1_555
Na11 O70 2.681439 1_555
Na11 O65 2.757309 1_555
Mg0 O2 2.003648 1_555
Mg0 O1 2.037696 1_545
Mg0 O37 2.114782 1_545
Mg0 O0 2.120634 1_655
Mg0 O38 2.171641 1_655
Mg0 O36 2.179860 1_645
Mg1 O15 1.946891 1_555
Mg1 O16 2.036870 1_555
Mg1 O17 2.070522 1_555
Mg1 O52 2.213612 1_555
Mg1 O53 2.228961 1_555
Mg1 O51 2.252254 1_555
Mg2 O19 1.920691 1_556
Mg2 O20 2.079687 1_556
Mg2 O18 2.096671 1_556
Mg2 O54 2.151568 1_555
Mg2 O55 2.205045 1_555
Mg2 O56 2.230763 1_555
Mg3 O21 1.950405 1_555
Mg3 O22 2.036209 1_555
Mg3 O23 2.088223 1_555
Mg3 O58 2.158144 1_555
Mg3 O59 2.180540 1_555
Mg3 O57 2.186596 1_555
Mg4 O32 2.018281 1_555
Mg4 O31 2.068518 1_555
Mg4 O67 2.080138 1_555
Mg4 O68 2.132379 1_555
Mg4 O66 2.149336 1_555
Mg4 O30 2.149685 1_555
Mg5 O35 1.981382 1_555
Mg5 O71 2.000432 1_555
Mg5 O34 2.061347 1_555
Mg5 O33 2.156036 1_555
Mg5 O69 2.173076 1_555
Mg5 O70 2.257194 1_555
O0 S0 1.489943 1_555
O1 S1 1.484164 1_555
O2 S2 1.471259 1_555
O3 S3 1.483445 1_555
O3 Sc0 2.202727 1_445
O4 S4 1.470084 1_655
O4 Sc0 2.144247 1_555
O5 Si0 1.641890 1_545
O5 Sc0 1.915527 1_545
O6 Si0 1.638780 1_555
O6 Sc1 2.005685 1_655
O7 S3 1.487318 1_555
O7 Sc1 2.139472 1_545
O8 S4 1.490516 1_555
O8 Sc1 2.106015 1_555
O9 S1 1.494731 1_555
O9 Sc2 2.169220 1_665
O10 S2 1.476161 1_455
O10 Sc2 2.150696 1_555
O11 S0 1.497171 1_565
O11 Sc2 2.107445 1_565
O12 S5 1.496233 1_555
O12 Sc3 2.144348 1_555
O13 Si1 1.666176 1_555
O13 Sc3 1.922271 1_555
O14 S6 1.479074 1_555
O14 Sc3 2.138011 1_555
O15 Si2 1.616735 1_555
O16 S7 1.467974 1_555
O17 S8 1.477163 1_555
O18 S8 1.466383 1_555
O19 Si2 1.606932 1_555
O20 S7 1.461210 1_555
O21 Si1 1.608825 1_555
O22 S6 1.453185 1_555
O23 S5 1.463397 1_555
O24 S9 1.481075 1_555
O24 Sc4 2.256757 1_556
O25 S10 1.477015 1_555
O25 Sc4 2.082883 1_556
O26 S11 1.483956 1_555
O26 Sc4 2.077096 1_556
O27 S12 1.505993 1_555
O27 Sc5 2.129374 1_555
O28 S13 1.487447 1_555
O28 Sc5 2.135643 1_555
O29 S14 1.508722 1_555
O29 Sc5 2.075311 1_555
O30 S14 1.479771 1_555
O31 S12 1.479637 1_555
O32 S13 1.465028 1_555
O33 S10 1.491595 1_555
O34 S11 1.493263 1_555
O35 S9 1.473243 1_555
O36 S14 1.496913 1_555
O37 S12 1.475360 1_555
O38 S13 1.500373 1_555
O39 S10 1.503003 1_555
O39 Sc0 2.102238 1_445
O40 S11 1.490155 1_555
O40 Sc0 2.205620 1_455
O41 S9 1.509714 1_555
O41 Sc0 2.088184 1_555
O42 S5 1.493916 1_555
O42 Sc1 2.202577 1_645
O43 Si1 1.625882 1_555
O43 Sc1 1.985321 1_545
O44 S6 1.498583 1_555
O44 Sc1 2.172342 1_655
O45 Si2 1.691581 1_555
O45 Sc2 1.929485 1_665
O46 S7 1.506522 1_555
O46 Sc2 2.160762 1_655
O47 S8 1.492838 1_555
O47 Sc2 2.121098 1_555
O48 Si0 1.681368 1_545
O48 Sc3 2.015569 1_555
O49 S3 1.484072 1_555
O49 Sc3 2.185982 1_555
O50 S4 1.481726 1_655
O50 Sc3 2.260542 1_555
O51 S1 1.492279 1_555
O52 S2 1.499615 1_555
O53 S0 1.475107 1_555
O54 S9 1.478202 1_555
O55 S10 1.475039 1_655
O56 S11 1.476288 1_545
O57 S12 1.494663 1_545
O58 S13 1.498730 1_555
O59 S14 1.472890 1_655
O60 S8 1.505290 1_555
O60 Sc4 2.190025 1_555
O61 Si2 1.655396 1_455
O61 Sc4 1.906637 1_555
O62 S7 1.509989 1_565
O62 Sc4 2.163469 1_555
O63 Si1 1.673158 1_565
O63 Sc5 1.963345 1_555
O64 S6 1.498880 1_555
O64 Sc5 2.178744 1_555
O65 S5 1.479312 1_455
O65 Sc5 2.142566 1_555
O66 S0 1.496922 1_565
O67 S1 1.482880 1_555
O68 S2 1.503667 1_455
O69 S3 1.477766 1_555
O70 S4 1.486987 1_555
O71 Si0 1.619012 1_555
