# generated using pymatgen
data_Na2Zn2SiSn2S5O24
_symmetry_space_group_name_H-M   'P 1'
_cell_length_a   8.76473627
_cell_length_b   8.76773257
_cell_length_c   22.86573842
_cell_angle_alpha   89.77594453
_cell_angle_beta   89.59821182
_cell_angle_gamma   120.04943722
_symmetry_Int_Tables_number   1
_chemical_formula_structural   Na2Zn2SiSn2S5O24
_chemical_formula_sum   'Na6 Zn6 Si3 Sn6 S15 O72'
_cell_volume   1520.89348907
_cell_formula_units_Z   3
loop_
 _symmetry_equiv_pos_site_id
 _symmetry_equiv_pos_as_xyz
  1  'x, y, z'
loop_
 _atom_site_type_symbol
 _atom_site_label
 _atom_site_symmetry_multiplicity
 _atom_site_fract_x
 _atom_site_fract_y
 _atom_site_fract_z
 _atom_site_occupancy
  Na  Na0  1  0.99926098  0.99960718  0.49690816  1
  Na  Na1  1  0.99620880  0.98584981  0.99595434  1
  Na  Na2  1  0.66944682  0.31991309  0.82146336  1
  Na  Na3  1  0.65111200  0.32066507  0.34043590  1
  Na  Na4  1  0.31436339  0.67450463  0.16346583  1
  Na  Na5  1  0.34698811  0.67720452  0.66249551  1
  Zn  Zn0  1  0.01962305  0.00499900  0.35290857  1
  Zn  Zn1  1  0.98785615  0.00108536  0.84393821  1
  Zn  Zn2  1  0.66757903  0.31777441  0.68266603  1
  Zn  Zn3  1  0.66557125  0.33232398  0.48676465  1
  Zn  Zn4  1  0.31421509  0.66514960  0.01970895  1
  Zn  Zn5  1  0.33679851  0.66901129  0.51847948  1
  Si  Si0  1  0.29771995  0.00126591  0.25237689  1
  Si  Si1  1  0.70742323  0.00816593  0.75221428  1
  Si  Si2  1  0.96152062  0.62692450  0.08366025  1
  Sn  Sn0  1  0.99062939  0.99645952  0.64956160  1
  Sn  Sn1  1  0.00634966  0.98662425  0.15011081  1
  Sn  Sn2  1  0.66852712  0.33255553  0.18630874  1
  Sn  Sn3  1  0.67360739  0.34038345  0.98116016  1
  Sn  Sn4  1  0.33099236  0.67455655  0.31878778  1
  Sn  Sn5  1  0.34087223  0.67369116  0.81346237  1
  S  S0  1  0.70347353  0.70694930  0.25230433  1
  S  S1  1  0.00225320  0.28887886  0.25075240  1
  S  S2  1  0.29426312  0.29327178  0.75133683  1
  S  S3  1  0.99920990  0.70604999  0.75185772  1
  S  S4  1  0.96550605  0.33627080  0.58239822  1
  S  S5  1  0.36728267  0.03669869  0.58381350  1
  S  S6  1  0.66708735  0.62407970  0.58403639  1
  S  S7  1  0.67058834  0.03819686  0.08374256  1
  S  S8  1  0.37241266  0.33453935  0.08264277  1
  S  S9  1  0.62289664  0.66447734  0.91960763  1
  S  S10  1  0.04334967  0.37274975  0.91701633  1
  S  S11  1  0.33389299  0.96619295  0.91863539  1
  S  S12  1  0.63384815  0.96503529  0.41792941  1
  S  S13  1  0.33417189  0.37690164  0.41769315  1
  S  S14  1  0.03247821  0.66191811  0.41966146  1
  O  O0  1  0.21522622  0.03603639  0.30855707  1
  O  O1  1  0.80914915  0.79192478  0.30305351  1
  O  O2  1  0.97104583  0.17972136  0.30215549  1
  O  O3  1  0.21804687  0.18630130  0.80442959  1
  O  O4  1  0.98586520  0.79046355  0.80532394  1
  O  O5  1  0.81159662  0.03068920  0.81154094  1
  O  O6  1  0.78458797  0.96083592  0.69257933  1
  O  O7  1  0.18549908  0.21305016  0.69772721  1
  O  O8  1  0.04399245  0.82148589  0.69810828  1
  O  O9  1  0.77288314  0.81392227  0.19642121  1
  O  O10  1  0.02354051  0.20990394  0.19480955  1
  O  O11  1  0.18884874  0.96404802  0.19044809  1
  O  O12  1  0.88472262  0.35576210  0.63602505  1
  O  O13  1  0.46776098  0.11777870  0.63660446  1
  O  O14  1  0.64944454  0.52237875  0.63726333  1
  O  O15  1  0.86851653  0.50725737  0.14238985  1
  O  O16  1  0.63385326  0.11621922  0.13588154  1
  O  O17  1  0.47520828  0.35131517  0.13594290  1
  O  O18  1  0.44645501  0.29062535  0.02995527  1
  O  O19  1  0.83829698  0.54425496  0.02522934  1
  O  O20  1  0.69992459  0.14816837  0.02970965  1
  O  O21  1  0.44211852  0.14272519  0.52984770  1
  O  O22  1  0.69242205  0.54716850  0.53001854  1
  O  O23  1  0.85831027  0.30610158  0.52964844  1
  O  O24  1  0.53324984  0.67955852  0.97144476  1
  O  O25  1  0.14318781  0.46000949  0.96916050  1
  O  O26  1  0.31457681  0.86310875  0.97133257  1
  O  O27  1  0.54496085  0.85168966  0.46863786  1
  O  O28  1  0.31543303  0.46892282  0.46766830  1
  O  O29  1  0.14799543  0.68606061  0.46856108  1
  O  O30  1  0.10725437  0.63081389  0.36231549  1
  O  O31  1  0.52552799  0.88862675  0.36191948  1
  O  O32  1  0.36362310  0.48440321  0.36032575  1
  O  O33  1  0.12261896  0.48439392  0.86263071  1
  O  O34  1  0.36796837  0.89000674  0.86478620  1
  O  O35  1  0.51747607  0.63718441  0.86506487  1
  O  O36  1  0.01549137  0.82028141  0.41337081  1
  O  O37  1  0.80751293  0.97929488  0.40965808  1
  O  O38  1  0.17123345  0.20496245  0.41291631  1
  O  O39  1  0.02656253  0.19920083  0.91215624  1
  O  O40  1  0.18130863  0.98953771  0.91131189  1
  O  O41  1  0.80188827  0.81511358  0.91407143  1
  O  O42  1  0.98601050  0.17215969  0.58642350  1
  O  O43  1  0.18377262  0.01966627  0.58929468  1
  O  O44  1  0.83583892  0.80627995  0.58639635  1
  O  O45  1  0.96691742  0.81851366  0.08652219  1
  O  O46  1  0.84014233  0.03905748  0.09101374  1
  O  O47  1  0.18994348  0.17969536  0.08830972  1
  O  O48  1  0.68209423  0.17575825  0.74398845  1
  O  O49  1  0.47368485  0.32801561  0.74288997  1
  O  O50  1  0.83955144  0.53720409  0.74388308  1
  O  O51  1  0.69126008  0.53192196  0.24528834  1
  O  O52  1  0.84769612  0.31635735  0.24525530  1
  O  O53  1  0.49694500  0.17736657  0.24401810  1
  O  O54  1  0.63148863  0.49423908  0.92069037  1
  O  O55  1  0.86023363  0.35371406  0.91923289  1
  O  O56  1  0.50210962  0.14764276  0.92255879  1
  O  O57  1  0.64933091  0.14052207  0.42252011  1
  O  O58  1  0.49226531  0.35814936  0.42033253  1
  O  O59  1  0.85688711  0.50182549  0.42408793  1
  O  O60  1  0.36703045  0.49608060  0.07535764  1
  O  O61  1  0.15337519  0.64754713  0.08029352  1
  O  O62  1  0.52235063  0.86083937  0.07721674  1
  O  O63  1  0.34209251  0.85757525  0.57828851  1
  O  O64  1  0.51432220  0.65226156  0.57963647  1
  O  O65  1  0.14432722  0.49148031  0.57671457  1
  O  O66  1  0.32010201  0.82421945  0.25590620  1
  O  O67  1  0.51997016  0.67527307  0.25647982  1
  O  O68  1  0.16500136  0.46601819  0.25433208  1
  O  O69  1  0.29614433  0.46714214  0.75616341  1
  O  O70  1  0.15658335  0.67839776  0.75593695  1
  O  O71  1  0.50796367  0.82284332  0.75370549  1
loop_
_geom_bond_atom_site_label_1
_geom_bond_atom_site_label_2
_geom_bond_distance
_geom_bond_site_symmetry_2
Na0 O36 2.526782 1_655
Na0 O38 2.533103 1_665
Na0 O37 2.566404 1_555
Na0 O44 2.571387 1_555
Na0 O42 2.586256 1_565
Na0 O43 2.621989 1_665
Na1 O45 2.469544 1_556
Na1 O41 2.482036 1_555
Na1 O40 2.506357 1_655
Na1 O39 2.589945 1_665
Na1 O46 2.723711 1_566
Na1 O47 2.723893 1_666
Na2 O48 2.214299 1_555
Na2 O50 2.468010 1_555
Na2 O49 2.518183 1_555
Na2 O55 2.728215 1_555
Na2 O56 2.735439 1_555
Na2 O54 2.849654 1_555
Na3 O58 2.410641 1_555
Na3 O57 2.443239 1_555
Na3 O53 2.574517 1_555
Na3 O59 2.576348 1_555
Na3 O51 2.755529 1_555
Na3 O52 2.778491 1_555
Na4 O61 2.317503 1_555
Na4 O66 2.480015 1_555
Na4 O62 2.612150 1_555
Na4 O68 2.628252 1_555
Na4 O60 2.730206 1_555
Na4 O67 2.795120 1_555
Na5 O64 2.464545 1_555
Na5 O71 2.495724 1_555
Na5 O63 2.501096 1_555
Na5 O65 2.613637 1_555
Na5 O69 2.704022 1_555
Na5 O70 2.705163 1_555
O0 Si0 1.573756 1_555
O0 Zn0 1.883597 1_555
O1 S0 1.445777 1_555
O1 Zn0 2.188014 1_665
O2 S1 1.448034 1_655
O2 Zn0 2.126280 1_655
O3 S2 1.466952 1_555
O3 Zn1 2.050733 1_455
O4 S3 1.465549 1_555
O4 Zn1 2.042254 1_565
O5 Si1 1.597427 1_555
O5 Zn1 1.849023 1_555
O6 Si1 1.661805 1_565
O6 Sn0 1.932394 1_555
O7 S2 1.502579 1_555
O7 Sn0 2.128570 1_445
O8 S3 1.508169 1_455
O8 Sn0 2.125341 1_455
O9 S0 1.513558 1_555
O9 Sn1 2.110764 1_655
O10 S1 1.511134 1_555
O10 Sn1 2.149919 1_545
O11 Si0 1.653162 1_565
O11 Sn1 1.945465 1_555
O12 S4 1.464509 1_555
O12 Zn2 2.050469 1_555
O13 S5 1.460365 1_555
O13 Zn2 2.053300 1_555
O14 S6 1.466651 1_555
O14 Zn2 2.143477 1_555
O15 Si2 1.638832 1_555
O15 Sn2 1.923947 1_555
O16 S7 1.488134 1_555
O16 Sn2 2.112908 1_555
O17 S8 1.484190 1_555
O17 Sn2 2.128216 1_555
O18 S8 1.504558 1_555
O18 Sn3 2.119945 1_554
O19 Si2 1.649457 1_555
O19 Sn3 1.935089 1_554
O20 S7 1.503396 1_555
O20 Sn3 2.122275 1_554
O21 S5 1.478546 1_555
O21 Zn3 2.066197 1_555
O22 S6 1.477255 1_555
O22 Zn3 2.038567 1_555
O23 S4 1.475477 1_555
O23 Zn3 2.068471 1_555
O24 S9 1.460135 1_555
O24 Zn4 2.155400 1_556
O25 S10 1.457380 1_555
O25 Zn4 2.039208 1_556
O26 S11 1.460427 1_555
O26 Zn4 2.053173 1_556
O27 S12 1.463524 1_555
O27 Zn5 2.054973 1_555
O28 S13 1.456374 1_555
O28 Zn5 2.037782 1_555
O29 S14 1.457126 1_555
O29 Zn5 2.082420 1_555
O30 S14 1.546951 1_555
O30 Sn4 2.049308 1_555
O31 S12 1.541804 1_555
O31 Sn4 2.058085 1_555
O32 S13 1.554871 1_555
O32 Sn4 2.057297 1_555
O33 S10 1.511491 1_555
O33 Sn5 2.110335 1_555
O34 S11 1.500857 1_555
O34 Sn5 2.144980 1_555
O35 S9 1.504486 1_555
O35 Sn5 2.099878 1_555
O36 S14 1.475305 1_555
O36 Zn0 2.111554 1_565
O37 S12 1.474266 1_555
O37 Zn0 2.176027 1_665
O38 S13 1.473566 1_555
O38 Zn0 2.105580 1_555
O39 S10 1.458318 1_555
O39 Zn1 2.236948 1_455
O40 S11 1.461330 1_555
O40 Zn1 2.337906 1_465
O41 S9 1.463684 1_555
O41 Zn1 2.273398 1_565
O42 S4 1.539261 1_555
O42 Sn0 2.122476 1_545
O43 S5 1.543207 1_555
O43 Sn0 2.103874 1_445
O44 S6 1.542069 1_555
O44 Sn0 2.118438 1_555
O45 Si2 1.658187 1_555
O45 Sn1 1.979829 1_655
O46 S7 1.492791 1_555
O46 Sn1 2.202944 1_645
O47 S8 1.496301 1_555
O47 Sn1 2.161763 1_545
O48 Si1 1.602790 1_555
O48 Zn2 1.918390 1_555
O49 S2 1.455554 1_555
O49 Zn2 2.216620 1_555
O50 S3 1.453968 1_555
O50 Zn2 2.253692 1_555
O51 S0 1.493257 1_555
O51 Sn2 2.141805 1_555
O52 S1 1.495972 1_655
O52 Sn2 2.134126 1_555
O53 Si0 1.662061 1_555
O53 Sn2 1.939868 1_555
O54 S9 1.531815 1_555
O54 Sn3 2.087847 1_555
O55 S10 1.528678 1_655
O55 Sn3 2.114029 1_555
O56 S11 1.538402 1_545
O56 Sn3 2.100640 1_555
O57 S12 1.479576 1_545
O57 Zn3 2.188321 1_555
O58 S13 1.476465 1_555
O58 Zn3 2.245021 1_555
O59 S14 1.477252 1_655
O59 Zn3 2.127959 1_555
O60 S8 1.449552 1_555
O60 Zn4 2.170602 1_555
O61 Si2 1.599944 1_455
O61 Zn4 1.919182 1_555
O62 S7 1.452439 1_565
O62 Zn4 2.217537 1_555
O63 S5 1.478471 1_565
O63 Zn5 2.132486 1_555
O64 S6 1.482223 1_555
O64 Zn5 2.157734 1_555
O65 S4 1.478162 1_455
O65 Zn5 2.089097 1_555
O66 Si0 1.660974 1_565
O66 Sn4 1.977616 1_555
O67 S0 1.491090 1_555
O67 Sn4 2.174796 1_555
O68 S1 1.495825 1_555
O68 Sn4 2.240305 1_555
O69 S2 1.520712 1_555
O69 Sn5 2.112964 1_555
O70 S3 1.518748 1_455
O70 Sn5 2.106423 1_555
O71 Si1 1.688627 1_565
O71 Sn5 1.939554 1_555
