# generated using pymatgen
data_ZnH2(SeO4)2
_symmetry_space_group_name_H-M   'P 1'
_cell_length_a   8.78213200
_cell_length_b   5.16589700
_cell_length_c   8.54135110
_cell_angle_alpha   60.75750032
_cell_angle_beta   90.00000000
_cell_angle_gamma   90.00000000
_symmetry_Int_Tables_number   1
_chemical_formula_structural   ZnH2(SeO4)2
_chemical_formula_sum   'Zn2 H4 Se4 O16'
_cell_volume   338.11743000
_cell_formula_units_Z   2
loop_
 _symmetry_equiv_pos_site_id
 _symmetry_equiv_pos_as_xyz
  1  'x, y, z'
loop_
 _atom_site_type_symbol
 _atom_site_label
 _atom_site_symmetry_multiplicity
 _atom_site_fract_x
 _atom_site_fract_y
 _atom_site_fract_z
 _atom_site_occupancy
  Zn  Zn0  1  0.00000000  0.00000000  0.00000000  1
  Zn  Zn1  1  0.50000000  0.00000000  0.50000000  1
  H  H0  1  0.99064700  0.42428900  0.35339700  1
  H  H1  1  0.49064700  0.57571100  0.14660300  1
  H  H2  1  0.00935300  0.57571100  0.64660300  1
  H  H3  1  0.50935300  0.42428900  0.85339700  1
  Se  Se0  1  0.81623700  0.66739900  0.78776600  1
  Se  Se1  1  0.31623700  0.33260100  0.71223400  1
  Se  Se2  1  0.68376300  0.66739900  0.28776600  1
  Se  Se3  1  0.18376300  0.33260100  0.21223400  1
  O  O0  1  0.08796500  0.30421000  0.39980100  1
  O  O1  1  0.58796500  0.69579000  0.10019900  1
  O  O2  1  0.35567100  0.65655100  0.53344600  1
  O  O3  1  0.85567100  0.34344900  0.96655400  1
  O  O4  1  0.64432900  0.34344900  0.46655400  1
  O  O5  1  0.14432900  0.65655100  0.03344600  1
  O  O6  1  0.36328900  0.04356000  0.68893000  1
  O  O7  1  0.86328900  0.95644000  0.81107000  1
  O  O8  1  0.63671100  0.95644000  0.31107000  1
  O  O9  1  0.13671100  0.04356000  0.18893000  1
  O  O10  1  0.13356700  0.31662200  0.77106200  1
  O  O11  1  0.63356700  0.68337800  0.72893800  1
  O  O12  1  0.86643300  0.68337800  0.22893800  1
  O  O13  1  0.36643300  0.31662200  0.27106200  1
  O  O14  1  0.41203500  0.30421000  0.89980100  1
  O  O15  1  0.91203500  0.69579000  0.60019900  1
loop_
_geom_bond_atom_site_label_1
_geom_bond_atom_site_label_2
_geom_bond_distance
_geom_bond_site_symmetry_2
H0 O0 1.015932 1_655
H0 O12 1.649647 1_555
H1 O1 1.015932 1_555
H1 O13 1.649647 1_555
H2 O15 1.015932 1_455
H2 O10 1.649647 1_555
H3 O14 1.015932 1_555
H3 O11 1.649647 1_555
O0 Se3 1.751112 1_555
O1 Se2 1.751112 1_555
O2 Se1 1.660026 1_555
O2 Zn1 2.083476 1_565
O3 Se0 1.660026 1_555
O3 Zn0 2.083476 1_656
O4 Se2 1.660026 1_555
O4 Zn1 2.083476 1_555
O5 Se3 1.660026 1_555
O5 Zn0 2.083476 1_565
O6 Se1 1.652350 1_555
O6 Zn1 2.109734 1_555
O7 Se0 1.652350 1_555
O7 Zn0 2.109734 1_666
O8 Se2 1.652350 1_555
O8 Zn1 2.109734 1_565
O9 Se3 1.652350 1_555
O9 Zn0 2.109734 1_555
O10 Se1 1.671026 1_555
O10 Zn0 2.179476 1_556
O11 Se0 1.671026 1_555
O11 Zn1 2.179476 1_565
O12 Se2 1.671026 1_555
O12 Zn0 2.179476 1_665
O13 Se3 1.671026 1_555
O13 Zn1 2.179476 1_555
O14 Se1 1.751112 1_555
O15 Se0 1.751112 1_555
