# generated using pymatgen
data_Na2CaZr3Si2(SO6)4
_symmetry_space_group_name_H-M   'P 1'
_cell_length_a   9.07299729
_cell_length_b   9.05671939
_cell_length_c   23.74217846
_cell_angle_alpha   89.57926248
_cell_angle_beta   90.11767944
_cell_angle_gamma   120.05837941
_symmetry_Int_Tables_number   1
_chemical_formula_structural   Na2CaZr3Si2(SO6)4
_chemical_formula_sum   'Na6 Ca3 Zr9 Si6 S12 O72'
_cell_volume   1688.51387039
_cell_formula_units_Z   3
loop_
 _symmetry_equiv_pos_site_id
 _symmetry_equiv_pos_as_xyz
  1  'x, y, z'
loop_
 _atom_site_type_symbol
 _atom_site_label
 _atom_site_symmetry_multiplicity
 _atom_site_fract_x
 _atom_site_fract_y
 _atom_site_fract_z
 _atom_site_occupancy
  Na  Na0  1  0.97987672  0.98301972  0.50778792  1
  Na  Na1  1  0.02779588  0.02182018  0.00044610  1
  Na  Na2  1  0.67162469  0.31582910  0.83498904  1
  Na  Na3  1  0.66362731  0.31545208  0.33497478  1
  Na  Na4  1  0.33528704  0.65860651  0.16339872  1
  Na  Na5  1  0.35811228  0.67761257  0.67179396  1
  Ca  Ca0  1  0.98385199  0.98965714  0.64734517  1
  Ca  Ca1  1  0.00923492  0.00883666  0.14336434  1
  Ca  Ca2  1  0.34032272  0.67569182  0.31742476  1
  Zr  Zr0  1  0.98933211  0.99891001  0.35340841  1
  Zr  Zr1  1  0.99836452  0.01428372  0.85436709  1
  Zr  Zr2  1  0.66584249  0.33464355  0.68829913  1
  Zr  Zr3  1  0.65594969  0.33428146  0.18272210  1
  Zr  Zr4  1  0.65414593  0.32170837  0.97610810  1
  Zr  Zr5  1  0.66943499  0.33648059  0.48208095  1
  Zr  Zr6  1  0.32130610  0.65502494  0.01691211  1
  Zr  Zr7  1  0.35595437  0.67564034  0.52045115  1
  Zr  Zr8  1  0.33271281  0.67826751  0.81754700  1
  Si  Si0  1  0.70136251  0.99654101  0.74934464  1
  Si  Si1  1  0.67060436  0.62531906  0.58255960  1
  Si  Si2  1  0.37476565  0.34006913  0.07982570  1
  Si  Si3  1  0.03926066  0.37685476  0.91612712  1
  Si  Si4  1  0.32434157  0.95439875  0.91771460  1
  Si  Si5  1  0.62880970  0.96728245  0.41542080  1
  S  S0  1  0.29472474  0.00393618  0.24984258  1
  S  S1  1  0.71028963  0.70365596  0.24929219  1
  S  S2  1  0.99523264  0.29257225  0.24985091  1
  S  S3  1  0.29451120  0.29611342  0.75007045  1
  S  S4  1  0.00036591  0.70532466  0.75062692  1
  S  S5  1  0.96008395  0.34094783  0.58214796  1
  S  S6  1  0.37985514  0.04304030  0.58237535  1
  S  S7  1  0.95443592  0.61689637  0.08215579  1
  S  S8  1  0.66064419  0.04268940  0.08283248  1
  S  S9  1  0.62370029  0.66781290  0.91678340  1
  S  S10  1  0.33149494  0.36839418  0.41731705  1
  S  S11  1  0.03912328  0.66824191  0.41707884  1
  O  O0  1  0.21220027  0.02681019  0.30129396  1
  O  O1  1  0.81703198  0.79016685  0.30129566  1
  O  O2  1  0.97553900  0.18251718  0.30189187  1
  O  O3  1  0.21319815  0.18605210  0.80082909  1
  O  O4  1  0.97551943  0.78557843  0.80072971  1
  O  O5  1  0.82380955  0.02407294  0.80539786  1
  O  O6  1  0.77438779  0.96584895  0.69302657  1
  O  O7  1  0.19794377  0.22280692  0.69893234  1
  O  O8  1  0.03227760  0.80465319  0.69918183  1
  O  O9  1  0.79067703  0.80471212  0.19920254  1
  O  O10  1  0.01442185  0.21166748  0.20000603  1
  O  O11  1  0.19672813  0.98859755  0.19933445  1
  O  O12  1  0.87609839  0.35908256  0.63325188  1
  O  O13  1  0.48477444  0.11990867  0.63361859  1
  O  O14  1  0.64577712  0.50467163  0.63821739  1
  O  O15  1  0.87206853  0.51085103  0.13494917  1
  O  O16  1  0.64435685  0.13155585  0.13452455  1
  O  O17  1  0.49395652  0.35878724  0.13856105  1
  O  O18  1  0.48685675  0.32954899  0.02798747  1
  O  O19  1  0.85435749  0.52956286  0.03223752  1
  O  O20  1  0.68364235  0.14877714  0.03217533  1
  O  O21  1  0.46999569  0.14450378  0.53142068  1
  O  O22  1  0.67214603  0.51586453  0.52759829  1
  O  O23  1  0.85224075  0.31898693  0.53148428  1
  O  O24  1  0.54446819  0.69279012  0.96765543  1
  O  O25  1  0.15973039  0.46258247  0.97240375  1
  O  O26  1  0.30873457  0.84078022  0.97378060  1
  O  O27  1  0.53717966  0.84163758  0.47163631  1
  O  O28  1  0.30234171  0.44922754  0.46729678  1
  O  O29  1  0.14506512  0.69243841  0.46735402  1
  O  O30  1  0.10613026  0.63503584  0.36615931  1
  O  O31  1  0.52304911  0.89442109  0.35970259  1
  O  O32  1  0.36134230  0.46882892  0.36606606  1
  O  O33  1  0.13408504  0.49001359  0.86087986  1
  O  O34  1  0.36082692  0.86948099  0.86275762  1
  O  O35  1  0.51844477  0.64040568  0.86616316  1
  O  O36  1  0.02300705  0.82555326  0.40998486  1
  O  O37  1  0.82224965  0.98351893  0.40813920  1
  O  O38  1  0.17756545  0.19373967  0.41126791  1
  O  O39  1  0.01788691  0.18592144  0.91026537  1
  O  O40  1  0.15522030  0.96978837  0.90800994  1
  O  O41  1  0.79479325  0.81989997  0.91023683  1
  O  O42  1  0.98363214  0.19353220  0.58474427  1
  O  O43  1  0.21435744  0.03070640  0.58547122  1
  O  O44  1  0.83465189  0.80941213  0.57967771  1
  O  O45  1  0.96911855  0.78410030  0.08714232  1
  O  O46  1  0.80991804  0.02289467  0.08770034  1
  O  O47  1  0.19155475  0.17258971  0.08153238  1
  O  O48  1  0.68150528  0.17157377  0.74310512  1
  O  O49  1  0.46916421  0.31275532  0.74580234  1
  O  O50  1  0.84273352  0.53015132  0.74485203  1
  O  O51  1  0.70207287  0.53211000  0.24644164  1
  O  O52  1  0.83553444  0.30294804  0.24721985  1
  O  O53  1  0.47048565  0.16390452  0.24543513  1
  O  O54  1  0.64373813  0.51555674  0.92302848  1
  O  O55  1  0.85419403  0.36160940  0.92507915  1
  O  O56  1  0.49461516  0.14577175  0.92340087  1
  O  O57  1  0.66171549  0.15889279  0.42756840  1
  O  O58  1  0.48124399  0.34493371  0.42608317  1
  O  O59  1  0.86274030  0.52036819  0.42530077  1
  O  O60  1  0.36986936  0.51930323  0.07813442  1
  O  O61  1  0.12670753  0.63270594  0.07986404  1
  O  O62  1  0.50190581  0.87608896  0.07978642  1
  O  O63  1  0.36051437  0.86860725  0.57620620  1
  O  O64  1  0.48869945  0.63310918  0.57617435  1
  O  O65  1  0.12641905  0.50162129  0.57462611  1
  O  O66  1  0.31657399  0.85473779  0.25447234  1
  O  O67  1  0.53735952  0.67506596  0.25575844  1
  O  O68  1  0.14453715  0.46271707  0.25679655  1
  O  O69  1  0.31921359  0.46888641  0.75865968  1
  O  O70  1  0.14764312  0.67587304  0.75822142  1
  O  O71  1  0.50907224  0.82996690  0.76001994  1
loop_
_geom_bond_atom_site_label_1
_geom_bond_atom_site_label_2
_geom_bond_distance
_geom_bond_site_symmetry_2
Na0 O44 2.239641 1_555
Na0 O42 2.638232 1_565
Na0 O43 2.681304 1_665
Na0 O37 2.763177 1_555
Na0 O36 2.861880 1_655
Na0 O38 2.938405 1_665
Na1 O47 2.402668 1_555
Na1 O39 2.624407 1_554
Na1 O40 2.635619 1_544
Na1 O45 2.818991 1_445
Na1 O46 2.869807 1_455
Na1 O41 2.926885 1_444
Na2 O48 2.575648 1_555
Na2 O55 2.607920 1_555
Na2 O56 2.616491 1_555
Na2 O50 2.773367 1_555
Na2 O49 2.791500 1_555
Na2 O54 2.867293 1_555
Na3 O57 2.602570 1_555
Na3 O52 2.642012 1_555
Na3 O53 2.663095 1_555
Na3 O51 2.765320 1_555
Na3 O58 2.820352 1_555
Na3 O59 2.826802 1_555
Na4 O60 2.494968 1_555
Na4 O62 2.660406 1_555
Na4 O61 2.667683 1_555
Na4 O67 2.811859 1_555
Na4 O68 2.818162 1_555
Na4 O66 2.866986 1_555
Na5 O71 2.510976 1_555
Na5 O64 2.687566 1_555
Na5 O69 2.688658 1_555
Na5 O70 2.800510 1_555
Na5 O63 2.836877 1_555
Na5 O65 2.993201 1_555
Ca0 O6 2.104543 1_555
Ca0 O44 2.212298 1_555
Ca0 O8 2.284745 1_655
Ca0 O42 2.362572 1_565
Ca0 O7 2.377251 1_665
Ca0 O43 2.428128 1_665
Ca1 O47 2.147399 1_555
Ca1 O11 2.234453 1_545
Ca1 O10 2.265969 1_555
Ca1 O46 2.291610 1_455
Ca1 O45 2.313607 1_445
Ca1 O9 2.325903 1_445
Ca2 O31 2.100646 1_555
Ca2 O32 2.281512 1_555
Ca2 O30 2.282400 1_555
Ca2 O66 2.285373 1_555
Ca2 O67 2.315286 1_555
Ca2 O68 2.354958 1_555
O0 S0 1.502871 1_555
O0 Zr0 2.275399 1_445
O1 S1 1.524925 1_555
O1 Zr0 2.148149 1_555
O2 S2 1.535071 1_555
O2 Zr0 2.110641 1_545
O3 S3 1.496502 1_555
O3 Zr1 2.186008 1_455
O4 S4 1.473797 1_655
O4 Zr1 2.358520 1_565
O5 Si0 1.669971 1_545
O5 Zr1 1.999847 1_555
O6 Si0 1.580417 1_555
O7 S3 1.451652 1_555
O8 S4 1.452360 1_555
O9 S1 1.450093 1_555
O10 S2 1.452268 1_455
O11 S0 1.456773 1_565
O12 S5 1.487232 1_555
O12 Zr2 2.231420 1_555
O13 S6 1.488226 1_555
O13 Zr2 2.234780 1_555
O14 Si1 1.650550 1_555
O14 Zr2 2.017752 1_555
O15 S7 1.522873 1_555
O15 Zr3 2.128368 1_555
O16 S8 1.519941 1_555
O16 Zr3 2.128010 1_555
O17 Si2 1.719441 1_555
O17 Zr3 1.904154 1_555
O18 Si2 1.631581 1_555
O18 Zr4 1.985672 1_554
O19 S7 1.464446 1_555
O19 Zr4 2.284883 1_554
O20 S8 1.482034 1_555
O20 Zr4 2.164337 1_554
O21 S6 1.487186 1_555
O21 Zr5 2.120537 1_555
O22 Si1 1.648818 1_555
O22 Zr5 1.947702 1_555
O23 S5 1.499186 1_555
O23 Zr5 2.098657 1_555
O24 S9 1.482311 1_555
O24 Zr6 2.212315 1_556
O25 Si3 1.655856 1_555
O25 Zr6 1.940252 1_556
O26 Si4 1.638753 1_555
O26 Zr6 2.014535 1_556
O27 Si5 1.673907 1_555
O27 Zr7 1.952663 1_555
O28 S10 1.490647 1_555
O28 Zr7 2.251737 1_555
O29 S11 1.478122 1_555
O29 Zr7 2.356340 1_555
O30 S11 1.453652 1_555
O31 Si5 1.574640 1_555
O32 S10 1.455915 1_555
O33 Si3 1.616369 1_555
O33 Zr8 2.029024 1_555
O34 Si4 1.635576 1_555
O34 Zr8 1.949340 1_555
O35 S9 1.476555 1_555
O35 Zr8 2.203329 1_555
O36 S11 1.511509 1_555
O36 Zr0 2.193306 1_455
O37 Si5 1.695332 1_555
O37 Zr0 1.949298 1_555
O38 S10 1.504220 1_555
O38 Zr0 2.219111 1_445
O39 Si3 1.647635 1_555
O39 Zr1 1.990626 1_455
O40 Si4 1.624603 1_555
O40 Zr1 2.090297 1_465
O41 S9 1.478857 1_555
O41 Zr1 2.233528 1_565
O42 S5 1.454797 1_555
O43 S6 1.450817 1_555
O44 Si1 1.585127 1_555
O45 S7 1.457877 1_555
O46 S8 1.456735 1_555
O47 Si2 1.593450 1_555
O48 Si0 1.688159 1_545
O48 Zr2 2.018857 1_555
O49 S3 1.518290 1_555
O49 Zr2 2.176965 1_555
O50 S4 1.520071 1_655
O50 Zr2 2.166360 1_555
O51 S1 1.519684 1_555
O51 Zr3 2.227112 1_555
O52 S2 1.499368 1_555
O52 Zr3 2.350932 1_555
O53 S0 1.528715 1_555
O53 Zr3 2.192020 1_555
O54 S9 1.484770 1_555
O54 Zr4 2.193722 1_555
O55 Si3 1.628629 1_655
O55 Zr4 2.058716 1_555
O56 Si4 1.652020 1_545
O56 Zr4 1.977722 1_555
O57 Si5 1.634557 1_545
O57 Zr5 2.045523 1_555
O58 S10 1.490582 1_555
O58 Zr5 2.192942 1_555
O59 S11 1.497718 1_655
O59 Zr5 2.172015 1_555
O60 Si2 1.646170 1_555
O60 Zr6 2.081238 1_555
O61 S7 1.497510 1_455
O61 Zr6 2.245202 1_555
O62 S8 1.476611 1_565
O62 Zr6 2.381011 1_555
O63 S6 1.507836 1_565
O63 Zr7 2.183943 1_555
O64 Si1 1.693316 1_555
O64 Zr7 1.949348 1_555
O65 S5 1.491412 1_455
O65 Zr7 2.273462 1_555
O66 S0 1.464009 1_565
O67 S1 1.464850 1_555
O68 S2 1.465768 1_455
O69 S3 1.481034 1_555
O69 Zr8 2.317599 1_555
O70 S4 1.498188 1_555
O70 Zr8 2.181318 1_555
O71 Si0 1.656355 1_555
O71 Zr8 2.023007 1_555
