# generated using pymatgen
data_MgMn6(O5F)2
_symmetry_space_group_name_H-M   'P 1'
_cell_length_a   8.19243438
_cell_length_b   5.92082987
_cell_length_c   5.58112205
_cell_angle_alpha   66.63539901
_cell_angle_beta   66.77416180
_cell_angle_gamma   63.10277727
_symmetry_Int_Tables_number   1
_chemical_formula_structural   MgMn6(O5F)2
_chemical_formula_sum   'Mg1 Mn6 O10 F2'
_cell_volume   213.85887185
_cell_formula_units_Z   1
loop_
 _symmetry_equiv_pos_site_id
 _symmetry_equiv_pos_as_xyz
  1  'x, y, z'
loop_
 _atom_site_type_symbol
 _atom_site_label
 _atom_site_symmetry_multiplicity
 _atom_site_fract_x
 _atom_site_fract_y
 _atom_site_fract_z
 _atom_site_occupancy
  Mg  Mg0  1  0.50182007  0.50325946  0.95994409  1
  Mn  Mn0  1  0.86290512  0.67685676  0.68722831  1
  Mn  Mn1  1  0.69019248  0.31613638  0.34474117  1
  Mn  Mn2  1  0.25664241  0.64377411  0.58755336  1
  Mn  Mn3  1  0.14178460  0.32129999  0.31819602  1
  Mn  Mn4  1  0.48886811  0.99605127  -0.00480750  1
  Mn  Mn5  1  0.00286741  0.00947280  0.00849902  1
  O  O0  1  0.67540590  0.02702003  0.64857286  1
  O  O1  1  0.32645141  0.36339118  0.94314561  1
  O  O2  1  0.95721108  0.21986102  0.23879234  1
  O  O3  1  0.73461570  0.13256732  0.10285705  1
  O  O4  1  0.02285186  0.80177459  0.80475407  1
  O  O5  1  0.42667998  0.41673829  0.37255247  1
  O  O6  1  0.31977846  0.95903355  0.35456785  1
  O  O7  1  0.66773543  0.63374263  0.02709331  1
  O  O8  1  0.02596743  0.30837069  0.70383520  1
  O  O9  1  0.03675146  0.69705794  0.32469727  1
  F  F0  1  0.30242243  0.86931386  0.90712831  1
  F  F1  1  0.64238366  0.53285213  0.57541319  1
loop_
_geom_bond_atom_site_label_1
_geom_bond_atom_site_label_2
_geom_bond_distance
_geom_bond_site_symmetry_2
Mg0 O1 2.000752 1_555
Mg0 O7 2.041182 1_556
Mg0 O5 2.043508 1_556
Mg0 O3 2.261549 1_556
Mn0 O0 1.931224 1_565
Mn0 O7 1.952647 1_556
Mn0 O9 1.956004 1_655
Mn0 O8 1.963008 1_655
Mn0 O4 2.152640 1_655
Mn1 O0 1.882469 1_555
Mn1 O3 1.885368 1_555
Mn1 O2 1.891769 1_555
Mn1 O5 1.919620 1_555
Mn1 O7 2.003251 1_555
Mn2 O5 1.858525 1_555
Mn2 O4 1.860147 1_555
Mn2 O6 1.964813 1_555
Mn2 O1 2.108234 1_555
Mn2 O9 2.588433 1_555
Mn3 O6 1.956129 1_545
Mn3 O8 1.965422 1_555
Mn3 O9 1.999691 1_555
Mn3 O1 2.040123 1_554
Mn3 O2 2.098789 1_455
Mn4 O6 1.929901 1_555
Mn4 O0 1.936978 1_564
Mn4 O1 1.941805 1_564
Mn4 O7 1.959446 1_555
Mn5 O3 1.892238 1_455
Mn5 O4 1.900597 1_544
Mn5 O8 1.929104 1_554
Mn5 O2 1.952627 1_455
Mn5 O9 1.986354 1_545
F0 Mg0 2.030386 1_555
F0 Mn5 2.113285 1_566
F0 Mn4 2.249317 1_556
F1 Mg0 1.974257 1_555
F1 Mn1 1.978660 1_555
F1 Mn0 2.661800 1_555
