# generated using pymatgen
data_Dy2In
_symmetry_space_group_name_H-M   'P 1'
_cell_length_a   5.36689049
_cell_length_b   5.36689106
_cell_length_c   6.70894227
_cell_angle_alpha   90.00000000
_cell_angle_beta   90.00000000
_cell_angle_gamma   120.00000282
_symmetry_Int_Tables_number   1
_chemical_formula_structural   Dy2In
_chemical_formula_sum   'Dy4 In2'
_cell_volume   167.35172286
_cell_formula_units_Z   2
loop_
 _symmetry_equiv_pos_site_id
 _symmetry_equiv_pos_as_xyz
  1  'x, y, z'
loop_
 _atom_site_type_symbol
 _atom_site_label
 _atom_site_symmetry_multiplicity
 _atom_site_fract_x
 _atom_site_fract_y
 _atom_site_fract_z
 _atom_site_occupancy
  Dy  Dy0  1  0.33333300  0.66666700  0.75000225  1
  Dy  Dy1  1  0.66666700  0.33333300  0.24999775  1
  Dy  Dy2  1  -0.00000000  -0.00000000  0.50000000  1
  Dy  Dy3  1  -0.00000000  -0.00000000  0.00000000  1
  In  In0  1  0.66666700  0.33333300  0.75000036  1
  In  In1  1  0.33333300  0.66666700  0.24999964  1
loop_
_geom_bond_atom_site_label_1
_geom_bond_atom_site_label_2
_geom_bond_distance
_geom_bond_site_symmetry_2
Dy0 In0 3.098572 1_455
Dy0 In0 3.098573 1_565
Dy0 In0 3.098582 1_555
Dy0 In1 3.354454 1_556
Dy0 In1 3.354489 1_555
Dy0 Dy3 3.523382 1_566
Dy0 Dy3 3.523386 1_666
Dy0 Dy3 3.523386 1_556
Dy0 Dy2 3.523397 1_565
Dy0 Dy2 3.523400 1_665
Dy0 Dy2 3.523401 1_555
Dy1 In1 3.098572 1_655
Dy1 In1 3.098573 1_545
Dy1 In1 3.098582 1_555
Dy1 In0 3.354454 1_554
Dy1 In0 3.354489 1_555
Dy1 Dy3 3.523382 1_655
Dy1 Dy3 3.523386 1_555
Dy1 Dy3 3.523386 1_665
Dy1 Dy2 3.523397 1_655
Dy1 Dy2 3.523400 1_555
Dy1 Dy2 3.523401 1_665
Dy2 Dy3 3.354471 1_556
Dy2 Dy3 3.354471 1_555
Dy2 In0 3.523390 1_455
Dy2 In1 3.523390 1_545
Dy2 In1 3.523394 1_445
Dy2 In0 3.523394 1_555
Dy2 In1 3.523395 1_555
Dy2 In0 3.523395 1_445
Dy3 In0 3.523388 1_454
Dy3 In1 3.523388 1_545
Dy3 In1 3.523392 1_445
Dy3 In0 3.523392 1_554
Dy3 In0 3.523392 1_444
Dy3 In1 3.523392 1_555
