# generated using pymatgen
data_Fe2P3(HO3)3
_symmetry_space_group_name_H-M   'P 1'
_cell_length_a   8.15984606
_cell_length_b   8.15984606
_cell_length_c   7.48913500
_cell_angle_alpha   90.00000000
_cell_angle_beta   90.00000000
_cell_angle_gamma   120.00000051
_symmetry_Int_Tables_number   1
_chemical_formula_structural   Fe2P3(HO3)3
_chemical_formula_sum   'Fe4 P6 H6 O18'
_cell_volume   431.84333420
_cell_formula_units_Z   2
loop_
 _symmetry_equiv_pos_site_id
 _symmetry_equiv_pos_as_xyz
  1  'x, y, z'
loop_
 _atom_site_type_symbol
 _atom_site_label
 _atom_site_symmetry_multiplicity
 _atom_site_fract_x
 _atom_site_fract_y
 _atom_site_fract_z
 _atom_site_occupancy
  Fe  Fe0  1  0.33333300  0.66666700  0.95079200  1
  Fe  Fe1  1  0.66666700  0.33333300  0.45079200  1
  Fe  Fe2  1  0.66666700  0.33333300  0.04920800  1
  Fe  Fe3  1  0.33333300  0.66666700  0.54920800  1
  P  P0  1  0.35721600  0.04707600  0.75000000  1
  P  P1  1  0.31014000  0.35721600  0.25000000  1
  P  P2  1  0.04707600  0.68986000  0.25000000  1
  P  P3  1  0.95292400  0.31014000  0.75000000  1
  P  P4  1  0.68986000  0.64278400  0.75000000  1
  P  P5  1  0.64278400  0.95292400  0.25000000  1
  H  H0  1  0.81838400  0.83848700  0.75000000  1
  H  H1  1  0.97989700  0.81838400  0.25000000  1
  H  H2  1  0.83848700  0.02010300  0.25000000  1
  H  H3  1  0.16151300  0.97989700  0.75000000  1
  H  H4  1  0.02010300  0.18161600  0.75000000  1
  H  H5  1  0.18161600  0.16151300  0.25000000  1
  O  O0  1  0.56537400  0.83788300  0.42163600  1
  O  O1  1  0.72749200  0.56537400  0.92163600  1
  O  O2  1  0.83788300  0.27250800  0.92163600  1
  O  O3  1  0.16211700  0.72749200  0.42163600  1
  O  O4  1  0.51273400  0.38273700  0.25000000  1
  O  O5  1  0.12999700  0.51273400  0.75000000  1
  O  O6  1  0.38273700  0.87000300  0.75000000  1
  O  O7  1  0.61726300  0.12999700  0.25000000  1
  O  O8  1  0.87000300  0.48726600  0.25000000  1
  O  O9  1  0.48726600  0.61726300  0.75000000  1
  O  O10  1  0.56537400  0.83788300  0.07836400  1
  O  O11  1  0.72749200  0.56537400  0.57836400  1
  O  O12  1  0.83788300  0.27250800  0.57836400  1
  O  O13  1  0.16211700  0.72749200  0.07836400  1
  O  O14  1  0.27250800  0.43462600  0.07836400  1
  O  O15  1  0.43462600  0.16211700  0.57836400  1
  O  O16  1  0.43462600  0.16211700  0.92163600  1
  O  O17  1  0.27250800  0.43462600  0.42163600  1
loop_
_geom_bond_atom_site_label_1
_geom_bond_atom_site_label_2
_geom_bond_distance
_geom_bond_site_symmetry_2
Fe0 O10 1.950493 1_556
Fe0 O14 1.950493 1_556
Fe0 O13 1.950493 1_556
Fe0 O6 2.123169 1_555
Fe0 O5 2.123171 1_555
Fe0 O9 2.123175 1_555
Fe1 O15 1.950493 1_555
Fe1 O11 1.950493 1_555
Fe1 O12 1.950493 1_555
Fe1 O7 2.123169 1_555
Fe1 O8 2.123171 1_555
Fe1 O4 2.123175 1_555
Fe2 O16 1.950493 1_554
Fe2 O1 1.950493 1_554
Fe2 O2 1.950493 1_554
Fe2 O7 2.123169 1_555
Fe2 O8 2.123171 1_555
Fe2 O4 2.123175 1_555
Fe3 O0 1.950493 1_555
Fe3 O17 1.950493 1_555
Fe3 O3 1.950493 1_555
Fe3 O6 2.123169 1_555
Fe3 O5 2.123171 1_555
Fe3 O9 2.123175 1_555
H0 P4 1.405427 1_555
H1 P2 1.405427 1_655
H2 P5 1.405427 1_545
H3 P0 1.405427 1_565
H4 P3 1.405427 1_455
H5 P1 1.405427 1_555
O0 P5 1.529542 1_555
O1 P4 1.529545 1_555
O2 P3 1.529541 1_555
O3 P2 1.529541 1_555
O4 P1 1.559476 1_555
O5 P3 1.559475 1_455
O6 P0 1.559476 1_565
O7 P5 1.559476 1_545
O8 P2 1.559475 1_655
O9 P4 1.559476 1_555
O10 P5 1.529542 1_555
O11 P4 1.529545 1_555
O12 P3 1.529541 1_555
O13 P2 1.529541 1_555
O14 P1 1.529545 1_555
O15 P0 1.529542 1_555
O16 P0 1.529542 1_555
O17 P1 1.529545 1_555
