# generated using pymatgen
data_K3W2Cl9
_symmetry_space_group_name_H-M   'P 1'
_cell_length_a   7.23184069
_cell_length_b   7.23145894
_cell_length_c   16.40074696
_cell_angle_alpha   90.00174677
_cell_angle_beta   89.98957915
_cell_angle_gamma   119.99415834
_symmetry_Int_Tables_number   1
_chemical_formula_structural   K3W2Cl9
_chemical_formula_sum   'K6 W4 Cl18'
_cell_volume   742.83881477
_cell_formula_units_Z   2
loop_
 _symmetry_equiv_pos_site_id
 _symmetry_equiv_pos_as_xyz
  1  'x, y, z'
loop_
 _atom_site_type_symbol
 _atom_site_label
 _atom_site_symmetry_multiplicity
 _atom_site_fract_x
 _atom_site_fract_y
 _atom_site_fract_z
 _atom_site_occupancy
  K  K0  1  0.00096482  1.00048025  0.24992292  1
  K  K1  1  0.00076548  0.00028091  0.75004289  1
  K  K2  1  0.33285167  0.66657075  0.56946481  1
  K  K3  1  0.66617370  0.33310194  0.06962181  1
  K  K4  1  0.33298445  0.66680140  0.93031451  1
  K  K5  1  0.66622492  0.33306538  0.43044532  1
  W  W0  1  0.33329776  0.66662176  0.32623594  1
  W  W1  1  0.66657180  0.33329281  0.82645663  1
  W  W2  1  0.66659952  0.33331916  0.67378915  1
  W  W3  1  0.33353281  0.66673867  0.17355063  1
  Cl  Cl0  1  0.11913228  0.35395680  0.09279580  1
  Cl  Cl1  1  0.76494598  0.11913016  0.59284706  1
  Cl  Cl2  1  0.35374571  0.23476328  0.59309313  1
  Cl  Cl3  1  0.64574491  0.76495404  0.09251982  1
  Cl  Cl4  1  0.23484598  0.88090474  0.09280439  1
  Cl  Cl5  1  0.88071814  0.64593813  0.59287398  1
  Cl  Cl6  1  0.88064711  0.64587982  0.90735884  1
  Cl  Cl7  1  0.23468953  0.88092863  0.40697950  1
  Cl  Cl8  1  0.64565653  0.76494999  0.40726704  1
  Cl  Cl9  1  0.35376412  0.23475699  0.90716935  1
  Cl  Cl10  1  0.44250921  0.43358464  0.24991543  1
  Cl  Cl11  1  0.00866486  0.44178892  0.75009377  1
  Cl  Cl12  1  0.43357621  0.99119719  0.75011066  1
  Cl  Cl13  1  0.56741978  0.00853331  0.24991043  1
  Cl  Cl14  1  0.99140966  0.55822082  0.24990201  1
  Cl  Cl15  1  0.55867881  0.56727576  0.75013368  1
  Cl  Cl16  1  0.11893773  0.35383006  0.40700397  1
  Cl  Cl17  1  0.76494850  0.11913272  0.90737555  1
loop_
_geom_bond_atom_site_label_1
_geom_bond_atom_site_label_2
_geom_bond_distance
_geom_bond_site_symmetry_2
Cl0 W3 2.401751 1_555
Cl0 K3 3.225537 1_455
Cl0 K4 3.333443 1_554
Cl0 K0 3.423553 1_545
Cl1 W2 2.401701 1_555
Cl1 K2 3.224535 1_545
Cl1 K5 3.332063 1_555
Cl1 K1 3.429435 1_655
Cl2 W2 2.401520 1_555
Cl2 K2 3.224200 1_555
Cl2 K5 3.334609 1_555
Cl2 K1 3.418714 1_555
Cl3 W3 2.400871 1_555
Cl3 K3 3.221288 1_555
Cl3 K4 3.330730 1_554
Cl3 K0 3.433944 1_655
Cl4 W3 2.401515 1_555
Cl4 K3 3.220088 1_565
Cl4 K4 3.331753 1_554
Cl4 K0 3.421887 1_555
Cl5 W2 2.401882 1_555
Cl5 K2 3.220675 1_655
Cl5 K5 3.333766 1_555
Cl5 K1 3.426421 1_665
Cl6 W1 2.401802 1_555
Cl6 K4 3.220436 1_655
Cl6 K3 3.330929 1_556
Cl6 K1 3.428316 1_665
Cl7 W0 2.401752 1_555
Cl7 K5 3.221211 1_565
Cl7 K2 3.333103 1_555
Cl7 K0 3.420836 1_555
Cl8 W0 2.402002 1_555
Cl8 K5 3.222624 1_555
Cl8 K2 3.329985 1_555
Cl8 K0 3.432915 1_655
Cl9 W1 2.401002 1_555
Cl9 K4 3.224489 1_555
Cl9 K3 3.332343 1_556
Cl9 K1 3.421579 1_555
Cl10 W0 2.522045 1_555
Cl10 W3 2.522196 1_555
Cl10 K0 3.163301 1_545
Cl10 K3 3.614020 1_555
Cl10 K5 3.618024 1_555
Cl11 W2 2.522283 1_455
Cl11 W1 2.522465 1_455
Cl11 K1 3.164575 1_555
Cl11 K4 3.615479 1_555
Cl11 K2 3.619723 1_555
Cl12 W2 2.521606 1_565
Cl12 W1 2.521876 1_565
Cl12 K1 3.163369 1_565
Cl12 K4 3.613932 1_555
Cl12 K2 3.620758 1_555
Cl13 W3 2.521739 1_545
Cl13 W0 2.522082 1_545
Cl13 K0 3.164843 1_645
Cl13 K3 3.617420 1_555
Cl13 K5 3.620625 1_555
Cl14 W0 2.521553 1_655
Cl14 W3 2.522523 1_655
Cl14 K0 3.164202 1_655
Cl14 K3 3.619186 1_555
Cl14 K5 3.621970 1_555
Cl15 W2 2.521697 1_555
Cl15 W1 2.521742 1_555
Cl15 K1 3.164973 1_665
Cl15 K4 3.617631 1_555
Cl15 K2 3.624514 1_555
Cl16 W0 2.401628 1_555
Cl16 K5 3.224454 1_455
Cl16 K2 3.333235 1_555
Cl16 K0 3.422705 1_545
Cl17 W1 2.401656 1_555
Cl17 K4 3.222258 1_545
Cl17 K3 3.330056 1_556
Cl17 K1 3.430615 1_655
