# generated using pymatgen
data_SmAl3(PbO4)2
_symmetry_space_group_name_H-M   'P 1'
_cell_length_a   9.59916600
_cell_length_b   9.59916600
_cell_length_c   9.59916600
_cell_angle_alpha   90.00000000
_cell_angle_beta   90.00000000
_cell_angle_gamma   90.00000000
_symmetry_Int_Tables_number   1
_chemical_formula_structural   SmAl3(PbO4)2
_chemical_formula_sum   'Sm4 Al12 Pb8 O32'
_cell_volume   884.50543571
_cell_formula_units_Z   4
loop_
 _symmetry_equiv_pos_site_id
 _symmetry_equiv_pos_as_xyz
  1  'x, y, z'
loop_
 _atom_site_type_symbol
 _atom_site_label
 _atom_site_symmetry_multiplicity
 _atom_site_fract_x
 _atom_site_fract_y
 _atom_site_fract_z
 _atom_site_occupancy
  Sm  Sm0  1  0.25000000  0.25000000  0.75000000  1
  Sm  Sm1  1  0.25000000  0.75000000  0.25000000  1
  Sm  Sm2  1  0.75000000  0.75000000  0.75000000  1
  Sm  Sm3  1  0.75000000  0.25000000  0.25000000  1
  Al  Al0  1  0.50000000  0.00000000  0.25000000  1
  Al  Al1  1  0.50000000  0.25000000  0.00000000  1
  Al  Al2  1  0.50000000  0.75000000  0.00000000  1
  Al  Al3  1  0.75000000  0.00000000  0.50000000  1
  Al  Al4  1  0.00000000  0.75000000  0.50000000  1
  Al  Al5  1  0.25000000  0.50000000  0.00000000  1
  Al  Al6  1  0.25000000  0.00000000  0.50000000  1
  Al  Al7  1  0.00000000  0.50000000  0.75000000  1
  Al  Al8  1  0.50000000  0.00000000  0.75000000  1
  Al  Al9  1  0.00000000  0.25000000  0.50000000  1
  Al  Al10  1  0.75000000  0.50000000  0.00000000  1
  Al  Al11  1  0.00000000  0.50000000  0.25000000  1
  Pb  Pb0  1  0.36683200  0.36683200  0.36683200  1
  Pb  Pb1  1  0.13316800  0.13316800  0.13316800  1
  Pb  Pb2  1  0.86683200  0.13316800  0.86683200  1
  Pb  Pb3  1  0.13316800  0.86683200  0.86683200  1
  Pb  Pb4  1  0.63316800  0.63316800  0.36683200  1
  Pb  Pb5  1  0.36683200  0.63316800  0.63316800  1
  Pb  Pb6  1  0.63316800  0.36683200  0.63316800  1
  Pb  Pb7  1  0.86683200  0.86683200  0.13316800  1
  O  O0  1  0.65728800  0.65728800  0.98595600  1
  O  O1  1  0.38948100  0.61051900  0.38948100  1
  O  O2  1  0.88948100  0.11051900  0.11051900  1
  O  O3  1  0.34271200  0.65728800  0.01404400  1
  O  O4  1  0.15728800  0.15728800  0.51404400  1
  O  O5  1  0.48595600  0.15728800  0.84271200  1
  O  O6  1  0.65728800  0.34271200  0.01404400  1
  O  O7  1  0.84271200  0.15728800  0.48595600  1
  O  O8  1  0.51404400  0.15728800  0.15728800  1
  O  O9  1  0.84271200  0.48595600  0.15728800  1
  O  O10  1  0.38948100  0.38948100  0.61051900  1
  O  O11  1  0.34271200  0.34271200  0.98595600  1
  O  O12  1  0.01404400  0.34271200  0.65728800  1
  O  O13  1  0.11051900  0.88948100  0.11051900  1
  O  O14  1  0.34271200  0.01404400  0.65728800  1
  O  O15  1  0.11051900  0.11051900  0.88948100  1
  O  O16  1  0.61051900  0.61051900  0.61051900  1
  O  O17  1  0.84271200  0.51404400  0.84271200  1
  O  O18  1  0.98595600  0.65728800  0.65728800  1
  O  O19  1  0.48595600  0.84271200  0.15728800  1
  O  O20  1  0.15728800  0.51404400  0.15728800  1
  O  O21  1  0.98595600  0.34271200  0.34271200  1
  O  O22  1  0.34271200  0.98595600  0.34271200  1
  O  O23  1  0.15728800  0.84271200  0.48595600  1
  O  O24  1  0.65728800  0.01404400  0.34271200  1
  O  O25  1  0.51404400  0.84271200  0.84271200  1
  O  O26  1  0.65728800  0.98595600  0.65728800  1
  O  O27  1  0.84271200  0.84271200  0.51404400  1
  O  O28  1  0.88948100  0.88948100  0.88948100  1
  O  O29  1  0.61051900  0.38948100  0.38948100  1
  O  O30  1  0.01404400  0.65728800  0.34271200  1
  O  O31  1  0.15728800  0.48595600  0.84271200  1
loop_
_geom_bond_atom_site_label_1
_geom_bond_atom_site_label_2
_geom_bond_distance
_geom_bond_site_symmetry_2
Al0 O24 1.757782 1_555
Al0 O8 1.757782 1_555
Al0 O22 1.757782 1_545
Al0 O19 1.757782 1_545
Al1 O6 1.757782 1_555
Al1 O8 1.757782 1_555
Al1 O11 1.757782 1_554
Al1 O5 1.757782 1_554
Al2 O19 1.757782 1_555
Al2 O25 1.757782 1_554
Al2 O0 1.757782 1_554
Al2 O3 1.757782 1_555
Al3 O7 1.757782 1_555
Al3 O27 1.757782 1_545
Al3 O26 1.757782 1_545
Al3 O24 1.757782 1_555
Al4 O23 1.757782 1_555
Al4 O27 1.757782 1_455
Al4 O18 1.757782 1_455
Al4 O30 1.757782 1_555
Al5 O3 1.757782 1_555
Al5 O20 1.757782 1_555
Al5 O11 1.757782 1_554
Al5 O31 1.757782 1_554
Al6 O14 1.757782 1_555
Al6 O4 1.757782 1_555
Al6 O22 1.757782 1_545
Al6 O23 1.757782 1_545
Al7 O31 1.757782 1_555
Al7 O17 1.757782 1_455
Al7 O18 1.757782 1_455
Al7 O12 1.757782 1_555
Al8 O5 1.757782 1_555
Al8 O25 1.757782 1_545
Al8 O26 1.757782 1_545
Al8 O14 1.757782 1_555
Al9 O12 1.757782 1_555
Al9 O4 1.757782 1_555
Al9 O21 1.757782 1_455
Al9 O7 1.757782 1_455
Al10 O9 1.757782 1_555
Al10 O17 1.757782 1_554
Al10 O0 1.757782 1_554
Al10 O6 1.757782 1_555
Al11 O30 1.757782 1_555
Al11 O20 1.757782 1_555
Al11 O21 1.757782 1_455
Al11 O9 1.757782 1_455
O0 Sm2 2.591175 1_555
O1 Sm1 2.319045 1_555
O1 Pb0 2.359312 1_555
O1 Pb5 2.359312 1_555
O1 Pb4 2.359312 1_555
O2 Sm3 2.319045 1_555
O2 Pb1 2.359312 1_655
O2 Pb7 2.359312 1_545
O2 Pb2 2.359312 1_554
O3 Sm1 2.591175 1_555
O4 Sm0 2.591175 1_555
O5 Sm0 2.591175 1_555
O6 Sm3 2.591175 1_555
O7 Sm3 2.591175 1_555
O8 Sm3 2.591175 1_555
O9 Sm3 2.591175 1_555
O10 Sm0 2.319045 1_555
O10 Pb0 2.359312 1_555
O10 Pb6 2.359312 1_555
O10 Pb5 2.359312 1_555
O11 Sm0 2.591175 1_555
O12 Sm0 2.591175 1_555
O13 Sm1 2.319045 1_555
O13 Pb1 2.359312 1_565
O13 Pb7 2.359312 1_455
O13 Pb3 2.359312 1_554
O14 Sm0 2.591175 1_555
O15 Sm0 2.319045 1_555
O15 Pb1 2.359312 1_556
O15 Pb2 2.359312 1_455
O15 Pb3 2.359312 1_545
O16 Sm2 2.319045 1_555
O16 Pb4 2.359312 1_555
O16 Pb5 2.359312 1_555
O16 Pb6 2.359312 1_555
O17 Sm2 2.591175 1_555
O18 Sm2 2.591175 1_555
O19 Sm1 2.591175 1_555
O20 Sm1 2.591175 1_555
O21 Sm3 2.591175 1_555
O22 Sm1 2.591175 1_555
O23 Sm1 2.591175 1_555
O24 Sm3 2.591175 1_555
O25 Sm2 2.591175 1_555
O26 Sm2 2.591175 1_555
O27 Sm2 2.591175 1_555
O28 Sm2 2.319045 1_555
O28 Pb2 2.359312 1_565
O28 Pb3 2.359312 1_655
O28 Pb7 2.359312 1_556
O29 Sm3 2.319045 1_555
O29 Pb0 2.359312 1_555
O29 Pb6 2.359312 1_555
O29 Pb4 2.359312 1_555
O30 Sm1 2.591175 1_555
O31 Sm0 2.591175 1_555
