# generated using pymatgen
data_Dy(FeGe)2
_symmetry_space_group_name_H-M   'P 1'
_cell_length_a   3.90955290
_cell_length_b   3.90955270
_cell_length_c   6.08723193
_cell_angle_alpha   108.73111878
_cell_angle_beta   108.73111755
_cell_angle_gamma   89.99999625
_symmetry_Int_Tables_number   1
_chemical_formula_structural   Dy(FeGe)2
_chemical_formula_sum   'Dy1 Fe2 Ge2'
_cell_volume   82.89285408
_cell_formula_units_Z   1
loop_
 _symmetry_equiv_pos_site_id
 _symmetry_equiv_pos_as_xyz
  1  'x, y, z'
loop_
 _atom_site_type_symbol
 _atom_site_label
 _atom_site_symmetry_multiplicity
 _atom_site_fract_x
 _atom_site_fract_y
 _atom_site_fract_z
 _atom_site_occupancy
  Dy  Dy0  1  -0.00000000  -0.00000000  0.00000000  1
  Fe  Fe0  1  0.25000000  0.75000000  0.50000000  1
  Fe  Fe1  1  0.75000000  0.25000000  0.50000000  1
  Ge  Ge0  1  0.61417049  0.61417049  0.22833998  1
  Ge  Ge1  1  0.38582951  0.38582951  0.77166002  1
loop_
_geom_bond_atom_site_label_1
_geom_bond_atom_site_label_2
_geom_bond_distance
_geom_bond_site_symmetry_2
Dy0 Ge0 3.029160 1_445
Dy0 Ge1 3.029160 1_554
Dy0 Ge1 3.029162 1_544
Dy0 Ge0 3.029162 1_455
Dy0 Ge0 3.029162 1_545
Dy0 Ge1 3.029162 1_454
Dy0 Ge1 3.029165 1_444
Dy0 Ge0 3.029165 1_555
Fe0 Ge1 2.447801 1_565
Fe0 Ge0 2.447801 1_455
Fe0 Ge1 2.447804 1_555
Fe0 Ge0 2.447804 1_555
Fe1 Ge0 2.447801 1_545
Fe1 Ge1 2.447801 1_655
Fe1 Ge0 2.447804 1_555
Fe1 Ge1 2.447804 1_555
Ge0 Ge1 2.476708 1_554
