# generated using pymatgen
data_BiP2O7
_symmetry_space_group_name_H-M   'P 1'
_cell_length_a   6.81200200
_cell_length_b   6.81200200
_cell_length_c   14.05520748
_cell_angle_alpha   73.96968120
_cell_angle_beta   73.96968120
_cell_angle_gamma   80.28664340
_symmetry_Int_Tables_number   1
_chemical_formula_structural   BiP2O7
_chemical_formula_sum   'Bi4 P8 O28'
_cell_volume   599.44804361
_cell_formula_units_Z   4
loop_
 _symmetry_equiv_pos_site_id
 _symmetry_equiv_pos_as_xyz
  1  'x, y, z'
loop_
 _atom_site_type_symbol
 _atom_site_label
 _atom_site_symmetry_multiplicity
 _atom_site_fract_x
 _atom_site_fract_y
 _atom_site_fract_z
 _atom_site_occupancy
  Bi  Bi0  1  0.38493300  0.88179900  0.86123800  1
  Bi  Bi1  1  0.88179900  0.38493300  0.36123800  1
  Bi  Bi2  1  0.11820100  0.61506700  0.63876200  1
  Bi  Bi3  1  0.61506700  0.11820100  0.13876200  1
  P  P0  1  0.89476000  0.75726500  0.86911900  1
  P  P1  1  0.10524000  0.24273500  0.13088100  1
  P  P2  1  0.75726500  0.89476000  0.36911900  1
  P  P3  1  0.66830600  0.59349900  0.57079600  1
  P  P4  1  0.59349900  0.66830600  0.07079600  1
  P  P5  1  0.33169400  0.40650100  0.42920400  1
  P  P6  1  0.40650000  0.33169400  0.92920400  1
  P  P7  1  0.24273500  0.10524000  0.63088100  1
  O  O0  1  0.78996800  0.67372800  0.62700100  1
  O  O1  1  0.32627200  0.21003200  0.87299900  1
  O  O2  1  0.45853000  0.54053900  0.64025600  1
  O  O3  1  0.40073700  0.98441100  0.69042400  1
  O  O4  1  0.67372800  0.78996800  0.12700100  1
  O  O5  1  0.54147000  0.45946100  0.35974400  1
  O  O6  1  0.59926300  0.01558900  0.30957600  1
  O  O7  1  0.38258600  0.21929800  0.52238100  1
  O  O8  1  0.54053900  0.45853000  0.14025600  1
  O  O9  1  0.03460300  0.88629700  0.89089000  1
  O  O10  1  0.11370300  0.96539700  0.60911000  1
  O  O11  1  0.21375600  0.58751300  0.47306000  1
  O  O12  1  0.01558900  0.59926300  0.80957600  1
  O  O13  1  0.41248700  0.78624400  0.02694000  1
  O  O14  1  0.09894500  0.27019300  0.67879400  1
  O  O15  1  0.21003200  0.32627200  0.37299900  1
  O  O16  1  0.78070200  0.61741400  0.97761900  1
  O  O17  1  0.45946100  0.54147000  0.85974400  1
  O  O18  1  0.72980700  0.90105500  0.82120600  1
  O  O19  1  0.21929800  0.38258600  0.02238100  1
  O  O20  1  0.27019300  0.09894500  0.17879400  1
  O  O21  1  0.90105500  0.72980700  0.32120600  1
  O  O22  1  0.58751300  0.21375600  0.97306000  1
  O  O23  1  0.98441100  0.40073700  0.19042400  1
  O  O24  1  0.78624400  0.41248700  0.52694000  1
  O  O25  1  0.88629700  0.03460300  0.39089000  1
  O  O26  1  0.96539700  0.11370300  0.10911000  1
  O  O27  1  0.61741400  0.78070200  0.47761900  1
loop_
_geom_bond_atom_site_label_1
_geom_bond_atom_site_label_2
_geom_bond_distance
_geom_bond_site_symmetry_2
Bi0 O1 2.247780 1_565
Bi0 O18 2.277301 1_555
Bi0 O3 2.284723 1_555
Bi0 O13 2.290415 1_556
Bi0 O17 2.292737 1_555
Bi0 O9 2.302791 1_555
Bi1 O15 2.247780 1_655
Bi1 O21 2.277301 1_555
Bi1 O23 2.284723 1_555
Bi1 O24 2.290415 1_555
Bi1 O5 2.292737 1_555
Bi1 O25 2.302791 1_555
Bi2 O0 2.247780 1_455
Bi2 O14 2.277301 1_555
Bi2 O12 2.284723 1_555
Bi2 O11 2.290415 1_555
Bi2 O2 2.292737 1_555
Bi2 O10 2.302791 1_555
Bi3 O4 2.247780 1_545
Bi3 O20 2.277301 1_555
Bi3 O6 2.284723 1_555
Bi3 O22 2.290415 1_554
Bi3 O8 2.292737 1_555
Bi3 O26 2.302791 1_555
O0 P3 1.537028 1_555
O1 P6 1.537024 1_555
O2 P3 1.527819 1_555
O3 P7 1.534407 1_565
O4 P4 1.537028 1_555
O5 P5 1.527819 1_555
O6 P2 1.534407 1_545
O7 P7 1.621679 1_555
O7 P5 1.625025 1_555
O8 P4 1.527819 1_555
O9 P0 1.538102 1_455
O10 P7 1.538102 1_565
O11 P5 1.535518 1_555
O12 P0 1.534407 1_455
O13 P4 1.535518 1_555
O14 P7 1.535499 1_555
O15 P5 1.537028 1_555
O16 P0 1.621679 1_555
O16 P4 1.625025 1_556
O17 P6 1.527820 1_555
O18 P0 1.535499 1_555
O19 P1 1.621679 1_555
O19 P6 1.625021 1_554
O20 P1 1.535499 1_555
O21 P2 1.535499 1_555
O22 P6 1.535524 1_555
O23 P1 1.534407 1_655
O24 P3 1.535518 1_555
O25 P2 1.538102 1_545
O26 P1 1.538102 1_655
O27 P2 1.621679 1_555
O27 P3 1.625025 1_555
