# generated using pymatgen
data_Na4Sc3Ta(PO4)6
_symmetry_space_group_name_H-M   'P 1'
_cell_length_a   8.92109886
_cell_length_b   8.91582732
_cell_length_c   22.78569813
_cell_angle_alpha   89.95826239
_cell_angle_beta   90.06213226
_cell_angle_gamma   119.99648110
_symmetry_Int_Tables_number   1
_chemical_formula_structural   Na4Sc3Ta(PO4)6
_chemical_formula_sum   'Na12 Sc9 Ta3 P18 O72'
_cell_volume   1569.59680033
_cell_formula_units_Z   3
loop_
 _symmetry_equiv_pos_site_id
 _symmetry_equiv_pos_as_xyz
  1  'x, y, z'
loop_
 _atom_site_type_symbol
 _atom_site_label
 _atom_site_symmetry_multiplicity
 _atom_site_fract_x
 _atom_site_fract_y
 _atom_site_fract_z
 _atom_site_occupancy
  Na  Na0  1  0.63614617  0.99965335  0.25064146  1
  Na  Na1  1  0.36322352  0.36345171  0.25065221  1
  Na  Na2  1  0.00009112  0.63679609  0.25032870  1
  Na  Na3  1  0.29919258  0.33252644  0.58518390  1
  Na  Na4  1  0.03476760  0.69974758  0.58511856  1
  Na  Na5  1  0.66584001  0.70163359  0.08204358  1
  Na  Na6  1  0.99185401  0.99929246  0.49785786  1
  Na  Na7  1  0.00815701  0.00750636  0.99687861  1
  Na  Na8  1  0.66683257  0.33353405  0.82832394  1
  Na  Na9  1  0.66649562  0.33320089  0.33454427  1
  Na  Na10  1  0.32500351  0.66626586  0.16302485  1
  Na  Na11  1  0.34297820  0.67560879  0.66687643  1
  Sc  Sc0  1  0.00061510  0.00031108  0.35454911  1
  Sc  Sc1  1  0.99964787  0.99977311  0.85155922  1
  Sc  Sc2  1  0.99207933  0.99929329  0.65202213  1
  Sc  Sc3  1  0.00717773  0.00651985  0.14540417  1
  Sc  Sc4  1  0.66616046  0.33124617  0.68865127  1
  Sc  Sc5  1  0.66708958  0.33164306  0.18207824  1
  Sc  Sc6  1  0.32692834  0.66611901  0.01763437  1
  Sc  Sc7  1  0.33968736  0.67247711  0.51629277  1
  Sc  Sc8  1  0.33361088  0.66691211  0.32011408  1
  Ta  Ta0  1  0.66627377  0.33153183  0.97764531  1
  Ta  Ta1  1  0.66715365  0.33210770  0.47964177  1
  Ta  Ta2  1  0.33253766  0.66623668  0.81304636  1
  P  P0  1  0.29086341  0.99933949  0.25021281  1
  P  P1  1  0.70825901  0.70882180  0.24927598  1
  P  P2  1  0.00075905  0.29165005  0.25029437  1
  P  P3  1  0.29193344  0.29210351  0.75052397  1
  P  P4  1  0.00000494  0.70807797  0.75040190  1
  P  P5  1  0.70755705  -0.00035152  0.75173560  1
  P  P6  1  0.95554695  0.33154836  0.58341250  1
  P  P7  1  0.37808644  0.04263811  0.58384621  1
  P  P8  1  0.66641384  0.62294034  0.58354311  1
  P  P9  1  0.95872197  0.62293787  0.08310756  1
  P  P10  1  0.66599607  0.04177248  0.08286409  1
  P  P11  1  0.37578227  0.33258819  0.08244355  1
  P  P12  1  0.62340456  0.66768191  0.91814890  1
  P  P13  1  0.04422000  0.37634362  0.91724342  1
  P  P14  1  0.33201443  0.95560608  0.91706174  1
  P  P15  1  0.62848927  0.96147152  0.41669474  1
  P  P16  1  0.33332007  0.37195907  0.41794097  1
  P  P17  1  0.03869047  0.66672257  0.41779638  1
  O  O0  1  0.20954693  0.03327000  0.30403650  1
  O  O1  1  0.82523020  0.79318875  0.30253905  1
  O  O2  1  0.96719433  0.17641216  0.30412426  1
  O  O3  1  0.20350456  0.18049276  0.80393752  1
  O  O4  1  0.97670595  0.79628943  0.80385087  1
  O  O5  1  0.81771357  0.02401625  0.80573931  1
  O  O6  1  0.78200955  0.96294385  0.69612176  1
  O  O7  1  0.18487674  0.22100367  0.69336106  1
  O  O8  1  0.03560639  0.81512606  0.69323508  1
  O  O9  1  0.78656412  0.81884873  0.19310654  1
  O  O10  1  0.03338406  0.20980050  0.19571706  1
  O  O11  1  0.17627176  0.96667121  0.19560730  1
  O  O12  1  0.87307270  0.36604581  0.63632160  1
  O  O13  1  0.48892229  0.12861798  0.63737011  1
  O  O14  1  0.63475305  0.50686995  0.63675350  1
  O  O15  1  0.87621381  0.51766978  0.13967683  1
  O  O16  1  0.64085129  0.12228579  0.13923832  1
  O  O17  1  0.48601387  0.36306422  0.13859615  1
  O  O18  1  0.47638813  0.31250216  0.02870729  1
  O  O19  1  0.83443643  0.52414847  0.02949382  1
  O  O20  1  0.68700662  0.16233808  0.02909394  1
  O  O21  1  0.47239695  0.16264669  0.52855714  1
  O  O22  1  0.69158629  0.52759479  0.52829981  1
  O  O23  1  0.83877237  0.31056532  0.52794129  1
  O  O24  1  0.54212971  0.68961734  0.97406193  1
  O  O25  1  0.15210329  0.46125845  0.97150190  1
  O  O26  1  0.30989884  0.84839331  0.97142281  1
  O  O27  1  0.53925652  0.84915177  0.46995656  1
  O  O28  1  0.31075328  0.45767299  0.47274739  1
  O  O29  1  0.14666017  0.68891908  0.47269527  1
  O  O30  1  0.11451244  0.63259962  0.36159903  1
  O  O31  1  0.52017020  0.88854523  0.35997162  1
  O  O32  1  0.36782638  0.48207899  0.36167084  1
  O  O33  1  0.13248204  0.49620811  0.86258455  1
  O  O34  1  0.36297187  0.86711383  0.86247270  1
  O  O35  1  0.50217999  0.63722479  0.86400411  1
  O  O36  1  0.01412896  0.82353787  0.41142981  1
  O  O37  1  0.80978379  0.98593860  0.41104744  1
  O  O38  1  0.17632967  0.19083361  0.41153325  1
  O  O39  1  0.01749086  0.19553717  0.90942547  1
  O  O40  1  0.17829794  0.98296288  0.90936826  1
  O  O41  1  0.80402937  0.82151344  0.90987672  1
  O  O42  1  0.97793075  0.17171861  0.58660336  1
  O  O43  1  0.19803081  0.03026726  0.58617156  1
  O  O44  1  0.83450792  0.79902792  0.58662192  1
  O  O45  1  0.96261548  0.79812086  0.08615646  1
  O  O46  1  0.82901596  0.02368147  0.08603512  1
  O  O47  1  0.19874094  0.16917577  0.08589048  1
  O  O48  1  0.68072756  0.15527701  0.74473460  1
  O  O49  1  0.47496752  0.31971902  0.74449158  1
  O  O50  1  0.84457230  0.52499348  0.74426030  1
  O  O51  1  0.68612371  0.52404885  0.24399301  1
  O  O52  1  0.83822407  0.31337877  0.24411691  1
  O  O53  1  0.47509266  0.16186860  0.24392731  1
  O  O54  1  0.63756201  0.49693120  0.92520314  1
  O  O55  1  0.86001610  0.36252608  0.92521997  1
  O  O56  1  0.50262924  0.13993396  0.92486831  1
  O  O57  1  0.64445404  0.14531223  0.42614188  1
  O  O58  1  0.50121319  0.35533308  0.42648679  1
  O  O59  1  0.85416798  0.49866803  0.42614317  1
  O  O60  1  0.36634828  0.49931252  0.07590248  1
  O  O61  1  0.13673693  0.64219250  0.07677259  1
  O  O62  1  0.50757781  0.85961750  0.07654872  1
  O  O63  1  0.34992885  0.85872229  0.57620245  1
  O  O64  1  0.50234486  0.63657724  0.57538539  1
  O  O65  1  0.13716342  0.49518831  0.57542291  1
  O  O66  1  0.31182216  0.83645772  0.25636449  1
  O  O67  1  0.52452709  0.68783021  0.25604659  1
  O  O68  1  0.16329478  0.47569168  0.25642277  1
  O  O69  1  0.31026364  0.47858211  0.76072483  1
  O  O70  1  0.16837596  0.69022391  0.76059142  1
  O  O71  1  0.52139080  0.83146170  0.76109172  1
loop_
_geom_bond_atom_site_label_1
_geom_bond_atom_site_label_2
_geom_bond_distance
_geom_bond_site_symmetry_2
Na0 O67 2.442885 1_555
Na0 O52 2.460469 1_565
Na0 O53 2.501284 1_565
Na0 O66 2.509296 1_555
Na0 O31 2.689771 1_555
Na0 O16 2.755174 1_565
Na0 O2 2.834075 1_565
Na0 O9 2.878849 1_555
Na1 O68 2.446477 1_555
Na1 O53 2.458437 1_555
Na1 O51 2.499533 1_555
Na1 O67 2.507774 1_555
Na1 O32 2.734893 1_555
Na1 O17 2.780116 1_555
Na1 O0 2.826359 1_555
Na1 O10 2.840055 1_555
Na2 O66 2.443604 1_555
Na2 O51 2.461830 1_455
Na2 O52 2.501341 1_455
Na2 O68 2.508511 1_555
Na2 O30 2.739326 1_555
Na2 O15 2.744166 1_455
Na2 O1 2.823888 1_455
Na2 O11 2.837587 1_555
Na3 O43 2.376036 1_555
Na3 O64 2.402233 1_555
Na3 O42 2.482362 1_455
Na3 O65 2.517356 1_555
Na3 O7 2.663149 1_555
Na3 O28 2.774981 1_555
Na3 O14 2.846169 1_555
Na3 O21 2.948512 1_555
Na4 O44 2.357498 1_455
Na4 O65 2.424135 1_555
Na4 O63 2.443646 1_555
Na4 O43 2.552316 1_565
Na4 O8 2.668915 1_555
Na4 O29 2.769479 1_555
Na4 O12 2.828648 1_455
Na4 O22 2.949709 1_455
Na5 O45 2.341078 1_555
Na5 O60 2.364848 1_555
Na5 O62 2.445597 1_555
Na5 O46 2.488490 1_565
Na5 O24 2.675725 1_554
Na5 O9 2.743864 1_555
Na5 O17 2.915971 1_555
Na5 O19 2.930273 1_555
Na6 O37 2.522906 1_555
Na6 O42 2.581433 1_565
Na6 O38 2.585675 1_665
Na6 O36 2.586485 1_655
Na6 O44 2.596922 1_555
Na6 O43 2.644535 1_665
Na7 O47 2.574554 1_556
Na7 O39 2.577617 1_555
Na7 O40 2.582057 1_545
Na7 O46 2.634334 1_456
Na7 O41 2.640734 1_445
Na7 O45 2.650709 1_446
Na8 O48 2.524052 1_555
Na8 O49 2.525101 1_555
Na8 O50 2.528339 1_555
Na8 O56 2.727224 1_555
Na8 O54 2.729414 1_555
Na8 O55 2.731058 1_555
Na9 O59 2.619714 1_555
Na9 O57 2.620570 1_555
Na9 O51 2.623136 1_555
Na9 O58 2.626830 1_555
Na9 O53 2.627023 1_555
Na9 O52 2.627134 1_555
Na10 O61 2.522384 1_555
Na10 O62 2.588768 1_555
Na10 O60 2.616757 1_555
Na10 O66 2.650153 1_555
Na10 O68 2.654733 1_555
Na10 O67 2.710726 1_555
Na11 O63 2.613817 1_555
Na11 O71 2.618828 1_555
Na11 O64 2.643959 1_555
Na11 O70 2.685809 1_555
Na11 O69 2.688314 1_555
Na11 O65 2.710083 1_555
O0 P0 1.530933 1_545
O0 Sc0 2.083675 1_555
O1 P1 1.530154 1_555
O1 Sc0 2.091122 1_665
O2 P2 1.530055 1_655
O2 Sc0 2.083000 1_655
O3 P3 1.519603 1_555
O3 Sc1 2.037832 1_445
O4 P4 1.519987 1_655
O4 Sc1 2.036207 1_555
O5 P5 1.520322 1_555
O5 Sc1 2.029241 1_545
O6 P5 1.540719 1_565
O6 Sc2 2.005775 1_555
O7 P3 1.550365 1_555
O7 Sc2 2.086299 1_445
O8 P4 1.550650 1_555
O8 Sc2 2.088852 1_455
O9 P1 1.550246 1_555
O9 Sc3 2.136316 1_665
O10 P2 1.542152 1_555
O10 Sc3 2.057314 1_555
O11 P0 1.542089 1_555
O11 Sc3 2.059589 1_565
O12 P6 1.522526 1_555
O12 Sc4 2.087313 1_555
O13 P7 1.514447 1_555
O13 Sc4 2.066894 1_555
O14 P8 1.525572 1_555
O14 Sc4 2.089011 1_555
O15 P9 1.547142 1_555
O15 Sc5 2.018040 1_555
O16 P10 1.542272 1_555
O16 Sc5 2.014222 1_555
O17 P11 1.551948 1_555
O17 Sc5 2.029342 1_555
O18 P11 1.581208 1_555
O18 Ta0 1.992155 1_554
O19 P9 1.587345 1_555
O19 Ta0 2.004643 1_554
O20 P10 1.577606 1_555
O20 Ta0 1.989974 1_554
O21 P7 1.593745 1_555
O21 Ta1 1.980076 1_555
O22 P8 1.597058 1_555
O22 Ta1 1.984181 1_555
O23 P6 1.587591 1_555
O23 Ta1 1.970327 1_555
O24 P12 1.526838 1_555
O24 Sc6 2.077743 1_556
O25 P13 1.515968 1_555
O25 Sc6 2.006084 1_556
O26 P14 1.515635 1_555
O26 Sc6 2.004213 1_556
O27 P15 1.520729 1_555
O27 Sc7 1.990783 1_555
O28 P16 1.529649 1_555
O28 Sc7 2.055932 1_555
O29 P17 1.529333 1_555
O29 Sc7 2.054788 1_555
O30 P17 1.548541 1_555
O30 Sc8 2.052623 1_555
O31 P15 1.548327 1_555
O31 Sc8 2.051929 1_555
O32 P16 1.549016 1_555
O32 Sc8 2.050746 1_555
O33 P13 1.572262 1_555
O33 Ta2 2.013464 1_555
O34 P14 1.570342 1_555
O34 Ta2 2.016375 1_555
O35 P12 1.571409 1_555
O35 Ta2 2.023022 1_555
O36 P17 1.526369 1_555
O36 Sc0 2.089264 1_565
O37 P15 1.525643 1_555
O37 Sc0 2.087662 1_665
O38 P16 1.526137 1_555
O38 Sc0 2.089245 1_555
O39 P13 1.517641 1_555
O39 Sc1 2.129637 1_445
O40 P14 1.518090 1_555
O40 Sc1 2.128752 1_455
O41 P12 1.517768 1_555
O41 Sc1 2.136782 1_555
O42 P6 1.536286 1_555
O42 Sc2 2.188942 1_545
O43 P7 1.555050 1_555
O43 Sc2 2.280653 1_445
O44 P8 1.537646 1_555
O44 Sc2 2.207820 1_555
O45 P9 1.546440 1_555
O45 Sc3 2.167211 1_665
O46 P10 1.542913 1_555
O46 Sc3 2.148902 1_655
O47 P11 1.524018 1_555
O47 Sc3 2.094426 1_555
O48 P5 1.529614 1_555
O48 Sc4 2.076530 1_555
O49 P3 1.531081 1_555
O49 Sc4 2.089964 1_555
O50 P4 1.530875 1_655
O50 Sc4 2.091046 1_555
O51 P1 1.562812 1_555
O51 Sc5 2.161861 1_555
O52 P2 1.562117 1_655
O52 Sc5 2.144568 1_555
O53 P0 1.562174 1_545
O53 Sc5 2.149600 1_555
O54 P12 1.597278 1_555
O54 Ta0 2.010617 1_555
O55 P13 1.595882 1_655
O55 Ta0 2.004265 1_555
O56 P14 1.596215 1_545
O56 Ta0 2.000287 1_555
O57 P15 1.587536 1_545
O57 Ta1 1.991463 1_555
O58 P16 1.588897 1_555
O58 Ta1 2.000894 1_555
O59 P17 1.589035 1_655
O59 Ta1 1.999799 1_555
O60 P11 1.537426 1_555
O60 Sc6 2.148787 1_555
O61 P9 1.516639 1_455
O61 Sc6 2.093502 1_555
O62 P10 1.536397 1_565
O62 Sc6 2.143420 1_555
O63 P7 1.539713 1_565
O63 Sc7 2.116718 1_555
O64 P8 1.539155 1_555
O64 Sc7 2.116745 1_555
O65 P6 1.556765 1_455
O65 Sc7 2.173643 1_555
O66 P0 1.560357 1_555
O66 Sc8 2.173203 1_555
O67 P1 1.561799 1_555
O67 Sc8 2.180385 1_555
O68 P2 1.560564 1_555
O68 Sc8 2.174868 1_555
O69 P3 1.604267 1_555
O69 Ta2 1.982423 1_555
O70 P4 1.604269 1_555
O70 Ta2 1.981936 1_555
O71 P5 1.600765 1_565
O71 Ta2 1.982463 1_555
