# generated using pymatgen
data_Ho4MgTi2O10
_symmetry_space_group_name_H-M   'P 1'
_cell_length_a   3.89882576
_cell_length_b   5.93504602
_cell_length_c   11.63494158
_cell_angle_alpha   78.67901077
_cell_angle_beta   90.00000000
_cell_angle_gamma   70.82479570
_symmetry_Int_Tables_number   1
_chemical_formula_structural   Ho4MgTi2O10
_chemical_formula_sum   'Ho4 Mg1 Ti2 O10'
_cell_volume   248.73914550
_cell_formula_units_Z   1
loop_
 _symmetry_equiv_pos_site_id
 _symmetry_equiv_pos_as_xyz
  1  'x, y, z'
loop_
 _atom_site_type_symbol
 _atom_site_label
 _atom_site_symmetry_multiplicity
 _atom_site_fract_x
 _atom_site_fract_y
 _atom_site_fract_z
 _atom_site_occupancy
  Ho  Ho0  1  0.17863506  0.64272988  0.88131641  1
  Ho  Ho1  1  0.14955741  0.70088518  0.55921558  1
  Ho  Ho2  1  0.82136494  0.35727012  0.11868359  1
  Ho  Ho3  1  0.85044259  0.29911482  0.44078442  1
  Mg  Mg0  1  0.50000000  -0.00000000  0.00000000  1
  Ti  Ti0  1  0.13362839  0.73274322  0.26700948  1
  Ti  Ti1  1  0.86637161  0.26725678  0.73299052  1
  O  O0  1  0.02284616  0.95430669  0.37579511  1
  O  O1  1  0.02613216  0.94773467  0.12179302  1
  O  O2  1  0.66440170  0.67119460  0.96571720  1
  O  O3  1  0.72991753  0.54016294  0.57857273  1
  O  O4  1  0.29764258  0.40471585  0.74709451  1
  O  O5  1  0.70235742  0.59528415  0.25290549  1
  O  O6  1  0.33559830  0.32880540  0.03428280  1
  O  O7  1  0.27008247  0.45983706  0.42142727  1
  O  O8  1  0.97715384  0.04569331  0.62420489  1
  O  O9  1  0.97386784  0.05226533  0.87820698  1
loop_
_geom_bond_atom_site_label_1
_geom_bond_atom_site_label_2
_geom_bond_distance
_geom_bond_site_symmetry_2
Ho0 O2 2.203432 1_555
Ho0 O2 2.203439 1_455
Ho0 O6 2.227665 1_556
Ho0 O4 2.255024 1_555
Ho0 O9 2.288513 1_465
Ho1 O3 2.139701 1_555
Ho1 O3 2.139708 1_455
Ho1 O8 2.217079 1_465
Ho1 O7 2.301409 1_555
Ho1 O0 2.304839 1_555
Ho1 O4 2.454850 1_555
Ho2 O6 2.203432 1_555
Ho2 O6 2.203439 1_655
Ho2 O2 2.227665 1_554
Ho2 O5 2.255024 1_555
Ho2 O1 2.288513 1_645
Ho3 O7 2.139701 1_555
Ho3 O7 2.139708 1_655
Ho3 O0 2.217079 1_645
Ho3 O3 2.301409 1_555
Ho3 O8 2.304839 1_555
Ho3 O5 2.454850 1_555
Mg0 O2 1.965227 1_544
Mg0 O6 1.965227 1_555
Mg0 O1 2.391968 1_645
Mg0 O9 2.391968 1_454
Mg0 O1 2.391971 1_545
Mg0 O9 2.391971 1_554
O0 Ti0 1.948881 1_555
O1 Ti0 1.860312 1_555
O3 Ti1 2.103768 1_555
O4 Ti1 2.115055 1_555
O4 Ti1 2.115059 1_455
O5 Ti0 2.115055 1_555
O5 Ti0 2.115059 1_655
O7 Ti0 2.103768 1_555
O8 Ti1 1.948881 1_555
O9 Ti1 1.860312 1_555
