# generated using pymatgen
data_MgFe4O7F
_symmetry_space_group_name_H-M   'P 1'
_cell_length_a   5.24784551
_cell_length_b   5.24786396
_cell_length_c   5.99321985
_cell_angle_alpha   90.90796698
_cell_angle_beta   89.09225085
_cell_angle_gamma   105.46240198
_symmetry_Int_Tables_number   1
_chemical_formula_structural   MgFe4O7F
_chemical_formula_sum   'Mg1 Fe4 O7 F1'
_cell_volume   159.04761910
_cell_formula_units_Z   1
loop_
 _symmetry_equiv_pos_site_id
 _symmetry_equiv_pos_as_xyz
  1  'x, y, z'
loop_
 _atom_site_type_symbol
 _atom_site_label
 _atom_site_symmetry_multiplicity
 _atom_site_fract_x
 _atom_site_fract_y
 _atom_site_fract_z
 _atom_site_occupancy
  Mg  Mg0  1  0.70702687  0.29297684  0.49863934  1
  Fe  Fe0  1  0.01875149  0.98124940  0.01211827  1
  Fe  Fe1  1  0.04657398  0.95342670  0.49254128  1
  Fe  Fe2  1  0.42419935  0.57580847  0.23814735  1
  Fe  Fe3  1  0.41641217  0.58358392  0.76063303  1
  O  O0  1  0.19669120  0.80330610  0.24171332  1
  O  O1  1  0.18386255  0.81614000  0.74729946  1
  O  O2  1  0.28704734  0.32435148  0.99382099  1
  O  O3  1  0.32798029  0.30278288  0.50387713  1
  O  O4  1  0.67565076  0.71294955  0.99381655  1
  O  O5  1  0.69721757  0.67201730  0.50387730  1
  O  O6  1  0.87837212  0.12162054  0.28045542  1
  F  F0  1  0.84854428  0.15145583  0.74347655  1
loop_
_geom_bond_atom_site_label_1
_geom_bond_atom_site_label_2
_geom_bond_distance
_geom_bond_site_symmetry_2
Mg0 O6 1.919303 1_555
Mg0 O5 2.003231 1_555
Mg0 O3 2.003251 1_555
Fe0 O6 1.971284 1_465
Fe0 O2 1.971297 1_564
Fe0 O4 1.971300 1_454
Fe0 O0 2.045439 1_555
Fe0 O1 2.081746 1_554
Fe1 O6 1.913223 1_465
Fe1 O1 1.927646 1_555
Fe1 O0 1.938285 1_555
Fe1 O3 2.025417 1_565
Fe1 O5 2.025424 1_455
Fe2 O0 1.899917 1_555
Fe2 O4 1.967052 1_554
Fe2 O2 1.967056 1_554
Fe2 O5 2.122524 1_555
Fe2 O3 2.122559 1_555
Fe3 O1 1.945635 1_555
Fe3 O4 1.949991 1_555
Fe3 O2 1.949998 1_555
Fe3 O3 2.083479 1_555
Fe3 O5 2.083496 1_555
F0 Mg0 1.902484 1_555
F0 Fe0 2.168973 1_646
F0 Fe1 2.213268 1_645
