# generated using pymatgen
data_MgV2ZnO6
_symmetry_space_group_name_H-M   'P 1'
_cell_length_a   3.98288300
_cell_length_b   5.16965817
_cell_length_c   6.41109292
_cell_angle_alpha   110.90458379
_cell_angle_beta   90.00380303
_cell_angle_gamma   112.65381071
_symmetry_Int_Tables_number   1
_chemical_formula_structural   MgV2ZnO6
_chemical_formula_sum   'Mg1 V2 Zn1 O6'
_cell_volume   112.34548832
_cell_formula_units_Z   1
loop_
 _symmetry_equiv_pos_site_id
 _symmetry_equiv_pos_as_xyz
  1  'x, y, z'
loop_
 _atom_site_type_symbol
 _atom_site_label
 _atom_site_symmetry_multiplicity
 _atom_site_fract_x
 _atom_site_fract_y
 _atom_site_fract_z
 _atom_site_occupancy
  Mg  Mg0  1  0.47812100  0.95675800  0.25547400  1
  V  V0  1  0.18463700  0.36971300  0.62976000  1
  V  V1  1  0.80488300  0.61020000  0.37572500  1
  Zn  Zn0  1  0.94627800  0.89328700  0.93269400  1
  O  O0  1  0.01906700  0.03836400  0.69012800  1
  O  O1  1  0.97843300  0.95742600  0.26912900  1
  O  O2  1  0.34881900  0.69814900  0.90446300  1
  O  O3  1  0.65171400  0.30373800  0.12755000  1
  O  O4  1  0.31640500  0.63318400  0.42908400  1
  O  O5  1  0.69128600  0.38293200  0.57599400  1
loop_
_geom_bond_atom_site_label_1
_geom_bond_atom_site_label_2
_geom_bond_distance
_geom_bond_site_symmetry_2
Mg0 O1 1.993220 1_555
Mg0 O1 1.993406 1_455
Mg0 O2 2.106942 1_554
Mg0 O3 2.112534 1_565
Mg0 O4 2.225001 1_555
Mg0 O5 2.263941 1_565
O0 V0 1.766881 1_555
O0 Zn0 1.931273 1_445
O0 V1 2.247522 1_445
O1 V1 2.021553 1_555
O1 Zn0 2.058036 1_554
O1 V0 2.386946 1_665
O2 V0 1.850070 1_555
O2 Zn0 2.175642 1_555
O2 Zn0 2.176365 1_455
O3 V1 1.694159 1_555
O4 V1 2.016301 1_555
O4 V1 2.016505 1_455
O4 V0 2.117973 1_555
O5 V1 1.975018 1_555
O5 V0 2.026009 1_655
O5 V0 2.026371 1_555
