# generated using pymatgen
data_PWO4F
_symmetry_space_group_name_H-M   'P 1'
_cell_length_a   5.38158700
_cell_length_b   5.38506768
_cell_length_c   7.72598680
_cell_angle_alpha   106.32328365
_cell_angle_beta   109.04388697
_cell_angle_gamma   94.97538671
_symmetry_Int_Tables_number   1
_chemical_formula_structural   PWO4F
_chemical_formula_sum   'P2 W2 O8 F2'
_cell_volume   199.14728987
_cell_formula_units_Z   2
loop_
 _symmetry_equiv_pos_site_id
 _symmetry_equiv_pos_as_xyz
  1  'x, y, z'
loop_
 _atom_site_type_symbol
 _atom_site_label
 _atom_site_symmetry_multiplicity
 _atom_site_fract_x
 _atom_site_fract_y
 _atom_site_fract_z
 _atom_site_occupancy
  P  P0  1  0.88504000  0.57486300  0.23803500  1
  P  P1  1  0.11496000  0.42513700  0.76196500  1
  W  W0  1  0.00000000  0.00000000  0.00000000  1
  W  W1  1  0.50000000  0.50000000  0.50000000  1
  O  O0  1  0.18642000  0.72167600  0.88433000  1
  O  O1  1  0.15569600  0.26039800  0.89916800  1
  O  O2  1  0.82121200  0.34644500  0.61550700  1
  O  O3  1  0.30418000  0.36436300  0.65023400  1
  O  O4  1  0.84430400  0.73960200  0.10083200  1
  O  O5  1  0.17878800  0.65355500  0.38449300  1
  O  O6  1  0.69582000  0.63563700  0.34976600  1
  O  O7  1  0.81358000  0.27832400  0.11567000  1
  F  F0  1  0.67109900  0.85330900  0.73520100  1
  F  F1  1  0.32890100  0.14669100  0.26479900  1
loop_
_geom_bond_atom_site_label_1
_geom_bond_atom_site_label_2
_geom_bond_distance
_geom_bond_site_symmetry_2
O0 P1 1.548968 1_555
O0 W0 2.035802 1_566
O1 P1 1.539288 1_555
O1 W0 2.027683 1_556
O2 P1 1.551102 1_655
O2 W1 2.030852 1_555
O3 P1 1.536836 1_555
O3 W1 2.032869 1_555
O4 P0 1.539288 1_555
O4 W0 2.027683 1_665
O5 P0 1.551102 1_455
O5 W1 2.030852 1_555
O6 P0 1.536836 1_555
O6 W1 2.032869 1_555
O7 P0 1.548968 1_555
O7 W0 2.035802 1_655
F0 W0 2.104358 1_666
F0 W1 2.104895 1_555
F1 W0 2.104358 1_555
F1 W1 2.104895 1_555
