# generated using pymatgen
data_TbSi3Rh5
_symmetry_space_group_name_H-M   'P 1'
_cell_length_a   15.65696797
_cell_length_b   15.65696797
_cell_length_c   3.88721400
_cell_angle_alpha   90.00000000
_cell_angle_beta   90.00000000
_cell_angle_gamma   119.99999987
_symmetry_Int_Tables_number   1
_chemical_formula_structural   TbSi3Rh5
_chemical_formula_sum   'Tb6 Si18 Rh30'
_cell_volume   825.24786360
_cell_formula_units_Z   6
loop_
 _symmetry_equiv_pos_site_id
 _symmetry_equiv_pos_as_xyz
  1  'x, y, z'
loop_
 _atom_site_type_symbol
 _atom_site_label
 _atom_site_symmetry_multiplicity
 _atom_site_fract_x
 _atom_site_fract_y
 _atom_site_fract_z
 _atom_site_occupancy
  Tb  Tb0  1  0.60592500  0.89999500  0.25000000  1
  Tb  Tb1  1  0.70593000  0.60592500  0.75000000  1
  Tb  Tb2  1  0.89999500  0.29407000  0.75000000  1
  Tb  Tb3  1  0.10000500  0.70593000  0.25000000  1
  Tb  Tb4  1  0.29407000  0.39407500  0.25000000  1
  Tb  Tb5  1  0.39407500  0.10000500  0.75000000  1
  Si  Si0  1  0.44138600  0.76017100  0.75000000  1
  Si  Si1  1  0.68121500  0.44138600  0.25000000  1
  Si  Si2  1  0.76017100  0.31878500  0.25000000  1
  Si  Si3  1  0.23982900  0.68121500  0.75000000  1
  Si  Si4  1  0.31878500  0.55861400  0.75000000  1
  Si  Si5  1  0.55861400  0.23982900  0.25000000  1
  Si  Si6  1  0.88060400  0.13059600  0.25000000  1
  Si  Si7  1  0.11939600  0.86940400  0.75000000  1
  Si  Si8  1  0.13059600  0.24999200  0.75000000  1
  Si  Si9  1  0.24999200  0.11939600  0.25000000  1
  Si  Si10  1  0.37053000  0.93785100  0.25000000  1
  Si  Si11  1  0.43268000  0.37053000  0.75000000  1
  Si  Si12  1  0.93785100  0.56732000  0.75000000  1
  Si  Si13  1  0.06214900  0.43268000  0.25000000  1
  Si  Si14  1  0.56732000  0.62947000  0.25000000  1
  Si  Si15  1  0.62947000  0.06214900  0.75000000  1
  Si  Si16  1  0.75000800  0.88060400  0.75000000  1
  Si  Si17  1  0.86940400  0.75000800  0.25000000  1
  Rh  Rh0  1  0.46346400  0.92494300  0.75000000  1
  Rh  Rh1  1  0.15339900  0.41439800  0.75000000  1
  Rh  Rh2  1  0.26099900  0.84660100  0.75000000  1
  Rh  Rh3  1  0.73900100  0.15339900  0.25000000  1
  Rh  Rh4  1  0.84660100  0.58560200  0.25000000  1
  Rh  Rh5  1  0.41439800  0.26099900  0.25000000  1
  Rh  Rh6  1  0.65225700  0.22345900  0.75000000  1
  Rh  Rh7  1  0.42879800  0.65225700  0.25000000  1
  Rh  Rh8  1  0.22345900  0.57120200  0.25000000  1
  Rh  Rh9  1  0.77654100  0.42879800  0.75000000  1
  Rh  Rh10  1  0.57120200  0.34774300  0.75000000  1
  Rh  Rh11  1  0.34774300  0.77654100  0.25000000  1
  Rh  Rh12  1  0.14190500  0.02881000  0.75000000  1
  Rh  Rh13  1  0.11309500  0.14190500  0.25000000  1
  Rh  Rh14  1  0.02881000  0.88690500  0.25000000  1
  Rh  Rh15  1  0.97119000  0.11309500  0.75000000  1
  Rh  Rh16  1  0.88690500  0.85809500  0.75000000  1
  Rh  Rh17  1  0.85809500  0.97119000  0.25000000  1
  Rh  Rh18  1  0.92494300  0.46148000  0.25000000  1
  Rh  Rh19  1  0.07505700  0.53852000  0.75000000  1
  Rh  Rh20  1  0.46148000  0.53653600  0.75000000  1
  Rh  Rh21  1  0.53653600  0.07505700  0.25000000  1
  Rh  Rh22  1  0.72886200  0.77297900  0.25000000  1
  Rh  Rh23  1  0.95588300  0.72886200  0.75000000  1
  Rh  Rh24  1  0.77297900  0.04411700  0.75000000  1
  Rh  Rh25  1  0.22702100  0.95588300  0.25000000  1
  Rh  Rh26  1  0.04411700  0.27113800  0.25000000  1
  Rh  Rh27  1  0.27113800  0.22702100  0.75000000  1
  Rh  Rh28  1  0.58560200  0.73900100  0.75000000  1
  Rh  Rh29  1  0.53852000  0.46346400  0.25000000  1
loop_
_geom_bond_atom_site_label_1
_geom_bond_atom_site_label_2
_geom_bond_distance
_geom_bond_site_symmetry_2
Si0 Tb0 3.093085 1_555
Si0 Tb0 3.093085 1_556
Si1 Tb1 3.093085 1_554
Si1 Tb1 3.093085 1_555
Si2 Tb2 3.093085 1_554
Si2 Tb2 3.093085 1_555
Si3 Tb3 3.093085 1_556
Si3 Tb3 3.093085 1_555
Si4 Tb4 3.093085 1_555
Si4 Tb4 3.093085 1_556
Si5 Tb5 3.093085 1_555
Si5 Tb5 3.093085 1_554
Si6 Tb2 3.105444 1_555
Si6 Tb2 3.105444 1_554
Si7 Tb3 3.105444 1_555
Si7 Tb3 3.105444 1_556
Si8 Tb4 3.105444 1_555
Si8 Tb4 3.105444 1_556
Si9 Tb5 3.105444 1_555
Si9 Tb5 3.105444 1_554
Si10 Tb5 3.069737 1_564
Si10 Tb5 3.069737 1_565
Si11 Tb4 3.069749 1_556
Si11 Tb4 3.069749 1_555
Si12 Tb3 3.069742 1_655
Si12 Tb3 3.069742 1_656
Si13 Tb2 3.069742 1_454
Si13 Tb2 3.069742 1_455
Si14 Tb1 3.069749 1_554
Si14 Tb1 3.069749 1_555
Si15 Tb0 3.069737 1_545
Si15 Tb0 3.069737 1_546
Si16 Tb0 3.105444 1_555
Si16 Tb0 3.105444 1_556
Si17 Tb1 3.105444 1_555
Si17 Tb1 3.105444 1_554
Rh0 Si15 2.405598 1_565
Rh0 Si0 2.425537 1_555
Rh0 Si10 2.495944 1_556
Rh0 Si10 2.495944 1_555
Rh0 Tb0 3.126756 1_555
Rh0 Tb0 3.126756 1_556
Rh1 Si8 2.415458 1_555
Rh1 Si4 2.440653 1_555
Rh1 Si13 2.511906 1_555
Rh1 Si13 2.511906 1_556
Rh1 Tb4 3.070929 1_555
Rh1 Tb4 3.070929 1_556
Rh2 Si7 2.415458 1_555
Rh2 Si3 2.440653 1_555
Rh2 Si10 2.511900 1_555
Rh2 Si10 2.511900 1_556
Rh2 Tb3 3.070929 1_556
Rh2 Tb3 3.070929 1_555
Rh3 Si6 2.415458 1_555
Rh3 Si2 2.440653 1_555
Rh3 Si15 2.511900 1_555
Rh3 Si15 2.511900 1_554
Rh3 Tb2 3.070929 1_554
Rh3 Tb2 3.070929 1_555
Rh4 Si17 2.415458 1_555
Rh4 Si1 2.440653 1_555
Rh4 Si12 2.511906 1_554
Rh4 Si12 2.511906 1_555
Rh4 Tb1 3.070929 1_554
Rh4 Tb1 3.070929 1_555
Rh5 Si9 2.415458 1_555
Rh5 Si5 2.440653 1_555
Rh5 Si11 2.511896 1_555
Rh5 Si11 2.511896 1_554
Rh5 Tb5 3.070929 1_555
Rh5 Tb5 3.070929 1_554
Rh6 Si15 2.367486 1_555
Rh6 Si2 2.517582 1_556
Rh6 Si2 2.517582 1_555
Rh6 Si5 2.523634 1_555
Rh6 Si5 2.523634 1_556
Rh7 Si14 2.367471 1_555
Rh7 Si0 2.517582 1_555
Rh7 Si0 2.517582 1_554
Rh7 Si4 2.523634 1_555
Rh7 Si4 2.523634 1_554
Rh8 Si13 2.367480 1_555
Rh8 Si4 2.517582 1_554
Rh8 Si4 2.517582 1_555
Rh8 Si3 2.523634 1_554
Rh8 Si3 2.523634 1_555
Rh9 Si12 2.367480 1_555
Rh9 Si1 2.517582 1_555
Rh9 Si1 2.517582 1_556
Rh9 Si2 2.523634 1_556
Rh9 Si2 2.523634 1_555
Rh10 Si11 2.367471 1_555
Rh10 Si5 2.517582 1_555
Rh10 Si5 2.517582 1_556
Rh10 Si1 2.523634 1_555
Rh10 Si1 2.523634 1_556
Rh11 Si10 2.367486 1_555
Rh11 Si3 2.517582 1_555
Rh11 Si3 2.517582 1_554
Rh11 Si0 2.523634 1_554
Rh11 Si0 2.523634 1_555
Rh12 Si7 2.339596 1_545
Rh12 Si9 2.500581 1_556
Rh12 Si9 2.500581 1_555
Rh13 Si9 2.339596 1_555
Rh13 Si8 2.500581 1_554
Rh13 Si8 2.500581 1_555
Rh14 Si17 2.339596 1_455
Rh14 Si7 2.500581 1_555
Rh14 Si7 2.500581 1_554
Rh15 Si8 2.339596 1_655
Rh15 Si6 2.500581 1_556
Rh15 Si6 2.500581 1_555
Rh16 Si16 2.339596 1_555
Rh16 Si17 2.500581 1_556
Rh16 Si17 2.500581 1_555
Rh17 Si6 2.339596 1_565
Rh17 Si16 2.500581 1_555
Rh17 Si16 2.500581 1_554
Rh18 Si13 2.405598 1_655
Rh18 Si2 2.425544 1_555
Rh18 Si12 2.495924 1_555
Rh18 Si12 2.495924 1_554
Rh18 Tb2 3.126769 1_555
Rh18 Tb2 3.126769 1_554
Rh19 Si12 2.405598 1_455
Rh19 Si3 2.425544 1_555
Rh19 Si13 2.495924 1_555
Rh19 Si13 2.495924 1_556
Rh19 Tb3 3.126769 1_556
Rh19 Tb3 3.126769 1_555
Rh20 Si11 2.405598 1_555
Rh20 Si4 2.425553 1_555
Rh20 Si14 2.495932 1_555
Rh20 Si14 2.495932 1_556
Rh20 Tb4 3.126764 1_555
Rh20 Tb4 3.126764 1_556
Rh21 Si10 2.405598 1_545
Rh21 Si5 2.425537 1_555
Rh21 Si15 2.495944 1_554
Rh21 Si15 2.495944 1_555
Rh21 Tb5 3.126756 1_554
Rh21 Tb5 3.126756 1_555
Rh22 Si14 2.400572 1_555
Rh22 Si17 2.400582 1_555
Rh22 Si16 2.483711 1_555
Rh22 Si16 2.483711 1_554
Rh22 Tb1 3.131863 1_554
Rh22 Tb1 3.131863 1_555
Rh23 Si12 2.400579 1_555
Rh23 Si7 2.400582 1_655
Rh23 Si17 2.483711 1_556
Rh23 Si17 2.483711 1_555
Rh23 Tb3 3.131863 1_655
Rh23 Tb3 3.131863 1_656
Rh24 Si15 2.400563 1_555
Rh24 Si16 2.400582 1_545
Rh24 Si6 2.483711 1_556
Rh24 Si6 2.483711 1_555
Rh24 Tb0 3.131863 1_545
Rh24 Tb0 3.131863 1_546
Rh25 Si10 2.400563 1_555
Rh25 Si9 2.400582 1_565
Rh25 Si7 2.483711 1_555
Rh25 Si7 2.483711 1_554
Rh25 Tb5 3.131863 1_565
Rh25 Tb5 3.131863 1_564
Rh26 Si13 2.400579 1_555
Rh26 Si6 2.400582 1_455
Rh26 Si8 2.483711 1_554
Rh26 Si8 2.483711 1_555
Rh26 Tb2 3.131863 1_454
Rh26 Tb2 3.131863 1_455
Rh27 Si11 2.400572 1_555
Rh27 Si8 2.400582 1_555
Rh27 Si9 2.483711 1_555
Rh27 Si9 2.483711 1_556
Rh27 Tb4 3.131863 1_555
Rh27 Tb4 3.131863 1_556
Rh28 Si16 2.415458 1_555
Rh28 Si0 2.440653 1_555
Rh28 Si14 2.511896 1_555
Rh28 Si14 2.511896 1_556
Rh28 Tb0 3.070929 1_555
Rh28 Tb0 3.070929 1_556
Rh29 Si14 2.405598 1_555
Rh29 Si1 2.425553 1_555
Rh29 Si11 2.495932 1_554
Rh29 Si11 2.495932 1_555
Rh29 Tb1 3.126764 1_555
Rh29 Tb1 3.126764 1_554
