# generated using pymatgen
data_Sr4Nb2O9
_symmetry_space_group_name_H-M   'P 1'
_cell_length_a   5.90872405
_cell_length_b   5.90872062
_cell_length_c   15.76281255
_cell_angle_alpha   90.00005021
_cell_angle_beta   89.99995657
_cell_angle_gamma   120.00006698
_symmetry_Int_Tables_number   1
_chemical_formula_structural   Sr4Nb2O9
_chemical_formula_sum   'Sr8 Nb4 O18'
_cell_volume   476.59689975
_cell_formula_units_Z   2
loop_
 _symmetry_equiv_pos_site_id
 _symmetry_equiv_pos_as_xyz
  1  'x, y, z'
loop_
 _atom_site_type_symbol
 _atom_site_label
 _atom_site_symmetry_multiplicity
 _atom_site_fract_x
 _atom_site_fract_y
 _atom_site_fract_z
 _atom_site_occupancy
  Sr  Sr0  1  0.66666735  0.33333216  0.13864723  1
  Sr  Sr1  1  0.33333419  0.66666786  0.63970968  1
  Sr  Sr2  1  0.33333329  0.66666678  0.86135850  1
  Sr  Sr3  1  0.66666545  0.33333338  0.36028901  1
  Sr  Sr4  1  -0.00000084  -0.00000069  0.24996447  1
  Sr  Sr5  1  -0.00000030  -0.00000021  0.00000025  1
  Sr  Sr6  1  0.00000038  0.00000133  0.75004095  1
  Sr  Sr7  1  -0.00000018  0.00000032  0.49999877  1
  Nb  Nb0  1  0.66666913  0.33333447  0.65421474  1
  Nb  Nb1  1  0.66666498  0.33333321  0.84643604  1
  Nb  Nb2  1  0.33332917  0.66666433  0.34579020  1
  Nb  Nb3  1  0.33333403  0.66666479  0.15355735  1
  O  O0  1  0.07943444  0.34820470  0.10230006  1
  O  O1  1  0.34793016  0.26809937  0.60302760  1
  O  O2  1  0.65208183  0.73190482  0.39697534  1
  O  O3  1  0.44636918  0.03602715  0.75031007  1
  O  O4  1  0.41033839  0.44637206  0.24969047  1
  O  O5  1  0.34822145  0.26877546  0.89769474  1
  O  O6  1  0.26877218  0.92056358  0.10229938  1
  O  O7  1  0.58965677  0.55363126  0.75031019  1
  O  O8  1  0.92055331  0.65177883  0.89769473  1
  O  O9  1  0.96397374  0.41034283  0.75031007  1
  O  O10  1  0.03603387  0.58965938  0.24969043  1
  O  O11  1  0.55362678  0.96396613  0.24969042  1
  O  O12  1  0.26809454  0.92017689  0.39697491  1
  O  O13  1  0.07982195  0.34791804  0.39697487  1
  O  O14  1  0.73190410  0.07983173  0.60302802  1
  O  O15  1  0.73122475  0.07944783  0.89769484  1
  O  O16  1  0.92017055  0.65207475  0.60302809  1
  O  O17  1  0.65179339  0.73122746  0.10229955  1
loop_
_geom_bond_atom_site_label_1
_geom_bond_atom_site_label_2
_geom_bond_distance
_geom_bond_site_symmetry_2
Nb0 O14 1.902781 1_555
Nb0 O16 1.902787 1_555
Nb0 O1 1.902792 1_555
Nb0 O9 2.188171 1_555
Nb0 O3 2.188182 1_555
Nb0 O7 2.188185 1_555
Nb1 O5 1.902891 1_555
Nb1 O15 1.902898 1_555
Nb1 O8 1.902902 1_555
Nb1 O3 2.188507 1_555
Nb1 O7 2.188511 1_555
Nb1 O9 2.188520 1_555
Nb2 O13 1.902805 1_555
Nb2 O12 1.902818 1_555
Nb2 O2 1.902841 1_555
Nb2 O10 2.188185 1_555
Nb2 O4 2.188203 1_555
Nb2 O11 2.188211 1_555
Nb3 O17 1.902960 1_555
Nb3 O0 1.902963 1_555
Nb3 O6 1.902970 1_555
Nb3 O4 2.188557 1_555
Nb3 O10 2.188567 1_555
Nb3 O11 2.188567 1_555
O0 Sr0 2.463739 1_455
O0 Sr5 2.467378 1_555
O0 Sr4 2.984202 1_555
O1 Sr1 2.468003 1_555
O1 Sr7 2.473182 1_555
O1 Sr6 2.974767 1_555
O2 Sr3 2.467998 1_555
O2 Sr7 2.473084 1_665
O2 Sr4 2.974702 1_665
O3 Sr6 2.537745 1_555
O3 Sr1 2.605923 1_545
O3 Sr2 2.610659 1_545
O4 Sr4 2.537745 1_555
O4 Sr3 2.605931 1_555
O4 Sr0 2.610635 1_555
O5 Sr2 2.463727 1_555
O5 Sr5 2.467496 1_556
O5 Sr6 2.984114 1_555
O6 Sr0 2.463745 1_565
O6 Sr5 2.467389 1_565
O6 Sr4 2.984221 1_565
O7 Sr6 2.537747 1_665
O7 Sr1 2.605926 1_555
O7 Sr2 2.610651 1_555
O8 Sr2 2.463731 1_655
O8 Sr5 2.467492 1_666
O8 Sr6 2.984120 1_665
O9 Sr6 2.537738 1_655
O9 Sr1 2.605928 1_655
O9 Sr2 2.610655 1_655
O10 Sr4 2.537755 1_565
O10 Sr3 2.605936 1_455
O10 Sr0 2.610625 1_455
O11 Sr4 2.537747 1_665
O11 Sr3 2.605934 1_565
O11 Sr0 2.610622 1_565
O12 Sr3 2.467998 1_565
O12 Sr7 2.473088 1_565
O12 Sr4 2.974701 1_565
O13 Sr3 2.468004 1_455
O13 Sr7 2.473089 1_555
O13 Sr4 2.974700 1_555
O14 Sr1 2.468002 1_545
O14 Sr7 2.473173 1_655
O14 Sr6 2.974755 1_655
O15 Sr2 2.463731 1_545
O15 Sr5 2.467501 1_656
O15 Sr6 2.984120 1_655
O16 Sr1 2.468006 1_655
O16 Sr7 2.473170 1_665
O16 Sr6 2.974751 1_665
O17 Sr0 2.463749 1_555
O17 Sr5 2.467381 1_665
O17 Sr4 2.984210 1_665
