# generated using pymatgen
data_Na6LaNb3(SiO4)6
_symmetry_space_group_name_H-M   'P 1'
_cell_length_a   9.24659846
_cell_length_b   9.24613958
_cell_length_c   22.48048766
_cell_angle_alpha   89.98536911
_cell_angle_beta   90.05608625
_cell_angle_gamma   119.88163955
_symmetry_Int_Tables_number   1
_chemical_formula_structural   Na6LaNb3(SiO4)6
_chemical_formula_sum   'Na18 La3 Nb9 Si18 O72'
_cell_volume   1666.46163021
_cell_formula_units_Z   3
loop_
 _symmetry_equiv_pos_site_id
 _symmetry_equiv_pos_as_xyz
  1  'x, y, z'
loop_
 _atom_site_type_symbol
 _atom_site_label
 _atom_site_symmetry_multiplicity
 _atom_site_fract_x
 _atom_site_fract_y
 _atom_site_fract_z
 _atom_site_occupancy
  Na  Na0  1  0.00821447  0.00090552  0.50302543  1
  Na  Na1  1  0.98913514  0.98995316  0.99797988  1
  Na  Na2  1  0.66653614  0.33240497  0.83514843  1
  Na  Na3  1  0.66660308  0.33260949  0.32443127  1
  Na  Na4  1  0.34835942  0.66624924  0.16225145  1
  Na  Na5  1  0.31892621  0.65181690  0.66549969  1
  Na  Na6  1  0.64327728  0.01447253  0.24451118  1
  Na  Na7  1  0.36902190  0.35631924  0.24457466  1
  Na  Na8  1  0.98862200  0.62946758  0.24425979  1
  Na  Na9  1  0.62935931  0.62254284  0.74847534  1
  Na  Na10  1  0.98991130  0.36868327  0.74877375  1
  Na  Na11  1  0.38139064  0.00890261  0.74903418  1
  Na  Na12  1  0.66436726  0.97078972  0.58451018  1
  Na  Na13  1  0.30984231  0.97223925  0.07999066  1
  Na  Na14  1  0.02713570  0.33888461  0.08042064  1
  Na  Na15  1  0.96428586  0.28956879  0.41484859  1
  Na  Na16  1  0.32590531  0.03443025  0.41492803  1
  Na  Na17  1  0.70946510  0.67590480  0.41548910  1
  La  La0  1  0.99988736  0.00020609  0.34998419  1
  La  La1  1  0.66801737  0.33747196  0.67940466  1
  La  La2  1  0.66428756  0.33623831  0.16499819  1
  Nb  Nb0  1  0.00012885  0.00092136  0.85905549  1
  Nb  Nb1  1  0.00339791  0.99921268  0.64527936  1
  Nb  Nb2  1  0.99747354  0.99694599  0.14701630  1
  Nb  Nb3  1  0.66778037  0.33469462  0.97969074  1
  Nb  Nb4  1  0.66598757  0.33447651  0.48439577  1
  Nb  Nb5  1  0.33642701  0.66653328  0.01273600  1
  Nb  Nb6  1  0.32977987  0.66252920  0.52114077  1
  Nb  Nb7  1  0.33287121  0.66678770  0.31133179  1
  Nb  Nb8  1  0.33417610  0.66728703  0.81419285  1
  Si  Si0  1  0.30206529  0.99590435  0.25071696  1
  Si  Si1  1  0.69432330  0.69995410  0.25182241  1
  Si  Si2  1  0.00528910  0.30657060  0.25026332  1
  Si  Si3  1  0.27768854  0.28974716  0.75306583  1
  Si  Si4  1  0.01093987  0.72102095  0.75369281  1
  Si  Si5  1  0.70984096  0.98901754  0.75198289  1
  Si  Si6  1  0.97232521  0.33090027  0.58563007  1
  Si  Si7  1  0.36025913  0.02861555  0.58426071  1
  Si  Si8  1  0.66926057  0.64093176  0.58521533  1
  Si  Si9  1  0.97561523  0.64073705  0.08135871  1
  Si  Si10  1  0.66506078  0.02346756  0.08200106  1
  Si  Si11  1  0.35818250  0.33475875  0.08271962  1
  Si  Si12  1  0.62686476  0.66151844  0.91428354  1
  Si  Si13  1  0.03469762  0.37435076  0.91512564  1
  Si  Si14  1  0.33810343  0.96465676  0.91553008  1
  Si  Si15  1  0.61413913  0.96345627  0.41898995  1
  Si  Si16  1  0.35038347  0.38639833  0.41767749  1
  Si  Si17  1  0.03661155  0.65111569  0.41789412  1
  O  O0  1  0.24019165  0.02742074  0.31369768  1
  O  O1  1  0.78460507  0.75785394  0.31540092  1
  O  O2  1  0.97274502  0.21298003  0.31325410  1
  O  O3  1  0.17385723  0.17588960  0.80990802  1
  O  O4  1  0.00247108  0.82612261  0.81033799  1
  O  O5  1  0.82608280  0.99761965  0.80818080  1
  O  O6  1  0.80194524  0.97241122  0.69073848  1
  O  O7  1  0.16214823  0.19015078  0.69364552  1
  O  O8  1  0.02429243  0.83528069  0.69409119  1
  O  O9  1  0.81692614  0.83451077  0.19826037  1
  O  O10  1  0.02024686  0.19080870  0.19487920  1
  O  O11  1  0.17209742  0.98188731  0.19517573  1
  O  O12  1  0.92026153  0.37049598  0.64872575  1
  O  O13  1  0.46744074  0.07917255  0.64475045  1
  O  O14  1  0.62826046  0.54991600  0.64828557  1
  O  O15  1  0.93674976  0.54375522  0.14389347  1
  O  O16  1  0.60847941  0.06340206  0.14472552  1
  O  O17  1  0.43818331  0.37466057  0.14794321  1
  O  O18  1  0.47962576  0.30623028  0.03501169  1
  O  O19  1  0.83336487  0.52071834  0.03161755  1
  O  O20  1  0.69551581  0.17266962  0.03351313  1
  O  O21  1  0.47449920  0.16471237  0.52980034  1
  O  O22  1  0.68753779  0.52376971  0.53103516  1
  O  O23  1  0.83103988  0.30846032  0.53240104  1
  O  O24  1  0.51836278  0.67927322  0.96778615  1
  O  O25  1  0.15260475  0.47385735  0.97138841  1
  O  O26  1  0.31585088  0.84374732  0.97123562  1
  O  O27  1  0.50731574  0.85106395  0.47476020  1
  O  O28  1  0.35001126  0.50235917  0.47155086  1
  O  O29  1  0.15663885  0.65670671  0.47134092  1
  O  O30  1  0.13267215  0.63726736  0.35625186  1
  O  O31  1  0.50157993  0.86316320  0.35809140  1
  O  O32  1  0.36171528  0.49512750  0.35607184  1
  O  O33  1  0.13506605  0.49592163  0.85663594  1
  O  O34  1  0.36181069  0.86562503  0.85689173  1
  O  O35  1  0.50749333  0.63769953  0.85480708  1
  O  O36  1  0.01570004  0.81311855  0.42283061  1
  O  O37  1  0.79843121  0.98638297  0.42289346  1
  O  O38  1  0.18824777  0.20415988  0.42285167  1
  O  O39  1  0.01380894  0.18811529  0.91130804  1
  O  O40  1  0.17307401  0.98601156  0.91139268  1
  O  O41  1  0.81140974  0.82745178  0.91171286  1
  O  O42  1  0.96436601  0.14978881  0.58546415  1
  O  O43  1  0.18302566  0.02600025  0.58795543  1
  O  O44  1  0.84204210  0.82209344  0.58559776  1
  O  O45  1  0.98678486  0.82396609  0.08761671  1
  O  O46  1  0.84450761  0.02668198  0.08779628  1
  O  O47  1  0.17718927  0.15657800  0.08545941  1
  O  O48  1  0.68983977  0.15282706  0.75416136  1
  O  O49  1  0.46012958  0.30713372  0.75345482  1
  O  O50  1  0.84713341  0.53836059  0.75454868  1
  O  O51  1  0.66156473  0.51389301  0.24168118  1
  O  O52  1  0.85166156  0.34005955  0.24133573  1
  O  O53  1  0.48902867  0.14866177  0.24228750  1
  O  O54  1  0.64010151  0.49261736  0.92501844  1
  O  O55  1  0.85022402  0.35814715  0.92370919  1
  O  O56  1  0.50671301  0.14769046  0.92513410  1
  O  O57  1  0.62350259  0.14694875  0.42200675  1
  O  O58  1  0.52450921  0.37778425  0.42176629  1
  O  O59  1  0.85518213  0.47689734  0.42316010  1
  O  O60  1  0.31922257  0.48557234  0.06789608  1
  O  O61  1  0.16383724  0.67566378  0.06665697  1
  O  O62  1  0.50872507  0.84075057  0.06517154  1
  O  O63  1  0.33121911  0.84237588  0.57044575  1
  O  O64  1  0.51719782  0.68022448  0.57246141  1
  O  O65  1  0.15958192  0.48354702  0.57120265  1
  O  O66  1  0.29118309  0.81067836  0.25195129  1
  O  O67  1  0.52093614  0.71184850  0.25170886  1
  O  O68  1  0.18997643  0.48101394  0.25172933  1
  O  O69  1  0.28922703  0.47505983  0.75444765  1
  O  O70  1  0.18518467  0.71028681  0.75463104  1
  O  O71  1  0.52361850  0.81572645  0.75486042  1
loop_
_geom_bond_atom_site_label_1
_geom_bond_atom_site_label_2
_geom_bond_distance
_geom_bond_site_symmetry_2
Na0 O43 2.435650 1_555
Na0 O44 2.452112 1_445
Na0 O42 2.460265 1_455
Na0 O36 2.528101 1_545
Na0 O38 2.537390 1_555
Na0 O37 2.599921 1_445
Na1 O41 2.500813 1_555
Na1 O45 2.526206 1_556
Na1 O46 2.537465 1_566
Na1 O47 2.567126 1_666
Na1 O40 2.598328 1_655
Na1 O39 2.605383 1_665
Na2 O48 2.544970 1_555
Na2 O55 2.548716 1_555
Na2 O50 2.556080 1_555
Na2 O49 2.572735 1_555
Na2 O56 2.585002 1_555
Na2 O54 2.588265 1_555
Na3 O53 2.492355 1_555
Na3 O52 2.512188 1_555
Na3 O51 2.519593 1_555
Na3 O57 2.689876 1_555
Na3 O58 2.691030 1_555
Na3 O59 2.724408 1_555
Na4 O67 2.468247 1_555
Na4 O68 2.574689 1_555
Na4 O66 2.614582 1_555
Na4 O60 2.629618 1_555
Na4 O62 2.680589 1_555
Na4 O61 2.770860 1_555
Na5 O69 2.509381 1_555
Na5 O70 2.551085 1_555
Na5 O65 2.607045 1_555
Na5 O71 2.655310 1_555
Na5 O64 2.707783 1_555
Na5 O63 2.735415 1_555
Na6 O53 2.310691 1_555
Na6 O16 2.341667 1_555
Na6 O67 2.445691 1_545
Na6 O52 2.645899 1_555
Na6 O66 2.840102 1_545
Na6 O31 2.893397 1_545
Na7 O17 2.247483 1_555
Na7 O51 2.348919 1_555
Na7 O68 2.449202 1_555
Na7 O53 2.653977 1_555
Na7 O67 2.864228 1_555
Na8 O52 2.322037 1_555
Na8 O15 2.359868 1_555
Na8 O66 2.447980 1_655
Na8 O51 2.659036 1_555
Na8 O68 2.815046 1_655
Na8 O30 2.831194 1_655
Na9 O14 2.349019 1_555
Na9 O71 2.430577 1_555
Na9 O50 2.498101 1_555
Na9 O49 2.533593 1_555
Na9 O35 2.676972 1_555
Na9 O69 2.737943 1_555
Na10 O12 2.341265 1_555
Na10 O69 2.435265 1_655
Na10 O48 2.485819 1_555
Na10 O50 2.507066 1_555
Na10 O33 2.736214 1_655
Na10 O70 2.751527 1_655
Na11 O70 2.437143 1_545
Na11 O13 2.457431 1_555
Na11 O48 2.477150 1_555
Na11 O49 2.478556 1_555
Na11 O71 2.697610 1_545
Na11 O34 2.725277 1_545
Na12 O64 2.345166 1_555
Na12 O42 2.420709 1_565
Na12 O44 2.615436 1_555
Na12 O6 2.701194 1_555
Na12 O63 2.711631 1_555
Na12 O27 2.795373 1_555
Na12 O13 2.824469 1_565
Na12 O23 2.949987 1_565
Na13 O61 2.396420 1_555
Na13 O47 2.551124 1_565
Na13 O45 2.598542 1_455
Na13 O62 2.683304 1_555
Na13 O26 2.731200 1_554
Na13 O16 2.850793 1_565
Na13 O18 2.862579 1_565
Na13 O11 2.907759 1_555
Na14 O60 2.358919 1_555
Na14 O46 2.520931 1_455
Na14 O47 2.666330 1_555
Na14 O61 2.732805 1_555
Na14 O25 2.733612 1_554
Na14 O15 2.811401 1_455
Na14 O20 2.859242 1_455
Na14 O10 2.900166 1_555
Na15 O2 2.404191 1_555
Na15 O59 2.407150 1_555
Na15 O37 2.441240 1_545
Na15 O38 2.563844 1_655
Na15 O57 2.748570 1_555
Na15 O23 2.958562 1_555
Na16 O0 2.399283 1_555
Na16 O57 2.413819 1_555
Na16 O38 2.470981 1_555
Na16 O36 2.568776 1_545
Na16 O58 2.768622 1_555
Na16 O21 2.890171 1_555
Na17 O1 2.365824 1_555
Na17 O58 2.417819 1_555
Na17 O36 2.464658 1_655
Na17 O37 2.567561 1_555
Na17 O59 2.775021 1_555
Na17 O22 2.912380 1_555
La0 O2 2.259635 1_555
La0 O0 2.261049 1_655
La0 O1 2.267487 1_545
La0 O37 2.437494 1_545
La0 O36 2.438366 1_645
La0 O38 2.448741 1_655
La1 O14 2.280632 1_555
La1 O12 2.302691 1_555
La1 O13 2.309773 1_555
La1 O50 2.444914 1_555
La1 O49 2.452277 1_555
La1 O48 2.474038 1_555
La2 O17 2.320054 1_555
La2 O15 2.332160 1_555
La2 O16 2.353914 1_555
La2 O51 2.390252 1_555
La2 O53 2.420023 1_555
La2 O52 2.425136 1_555
Nb0 O3 1.957423 1_555
Nb0 O5 1.961216 1_445
Nb0 O4 1.961604 1_545
Nb0 O39 2.043078 1_555
Nb0 O40 2.043650 1_545
Nb0 O41 2.057464 1_445
Nb1 O8 1.956890 1_555
Nb1 O7 1.967070 1_565
Nb1 O43 2.018631 1_565
Nb1 O6 2.029597 1_455
Nb1 O44 2.066554 1_455
Nb1 O42 2.091778 1_465
Nb2 O9 1.968339 1_555
Nb2 O11 2.004796 1_655
Nb2 O10 2.009853 1_665
Nb2 O45 2.047992 1_555
Nb2 O46 2.057213 1_565
Nb2 O47 2.101062 1_665
Nb3 O19 2.009678 1_556
Nb3 O54 2.019664 1_555
Nb3 O55 2.028854 1_555
Nb3 O56 2.035571 1_555
Nb3 O20 2.038473 1_556
Nb3 O18 2.047096 1_556
Nb4 O22 1.963500 1_555
Nb4 O21 1.968295 1_555
Nb4 O23 1.978421 1_555
Nb4 O58 2.090953 1_555
Nb4 O59 2.097115 1_555
Nb4 O57 2.109341 1_555
Nb5 O24 1.915953 1_554
Nb5 O26 1.975077 1_554
Nb5 O25 1.976705 1_554
Nb5 O62 1.990640 1_555
Nb5 O60 2.024016 1_555
Nb5 O61 2.039942 1_555
Nb6 O29 1.931312 1_555
Nb6 O28 1.936057 1_555
Nb6 O65 1.972151 1_555
Nb6 O27 1.992938 1_555
Nb6 O63 1.993184 1_555
Nb6 O64 2.018588 1_555
Nb7 O31 2.002689 1_555
Nb7 O30 2.005267 1_555
Nb7 O32 2.005585 1_555
Nb7 O66 2.051756 1_555
Nb7 O68 2.056173 1_555
Nb7 O67 2.067963 1_555
Nb8 O34 1.970591 1_555
Nb8 O33 1.976487 1_555
Nb8 O35 1.977531 1_555
Nb8 O71 2.083102 1_555
Nb8 O70 2.095419 1_555
Nb8 O69 2.097553 1_555
O0 Si0 1.607717 1_545
O1 Si1 1.605946 1_555
O2 Si2 1.607906 1_655
O3 Si3 1.630190 1_555
O4 Si4 1.627491 1_555
O5 Si5 1.633980 1_555
O6 Si5 1.666487 1_555
O7 Si3 1.670715 1_555
O8 Si4 1.672198 1_555
O9 Si1 1.696891 1_555
O10 Si2 1.692184 1_555
O11 Si0 1.691734 1_555
O12 Si6 1.598415 1_555
O13 Si7 1.608090 1_555
O14 Si8 1.595232 1_555
O15 Si9 1.608971 1_555
O16 Si10 1.610148 1_555
O17 Si11 1.599828 1_555
O18 Si11 1.666873 1_555
O19 Si9 1.659904 1_555
O20 Si10 1.668337 1_555
O21 Si7 1.695724 1_555
O22 Si8 1.693845 1_555
O23 Si6 1.705467 1_555
O24 Si12 1.626876 1_555
O25 Si13 1.622739 1_555
O26 Si14 1.622020 1_555
O27 Si15 1.614441 1_555
O28 Si16 1.618862 1_555
O29 Si17 1.618118 1_555
O30 Si17 1.685668 1_555
O31 Si15 1.689254 1_555
O32 Si16 1.683534 1_555
O33 Si13 1.678061 1_555
O34 Si14 1.680886 1_555
O35 Si12 1.676187 1_555
O36 Si17 1.606903 1_555
O37 Si15 1.611299 1_555
O38 Si16 1.607326 1_555
O39 Si13 1.636598 1_555
O40 Si14 1.635887 1_555
O41 Si12 1.631121 1_555
O42 Si6 1.639163 1_555
O43 Si7 1.629095 1_555
O44 Si8 1.640655 1_555
O45 Si9 1.651177 1_555
O46 Si10 1.649692 1_555
O47 Si11 1.664836 1_555
O48 Si5 1.615488 1_545
O49 Si3 1.612917 1_555
O50 Si4 1.611842 1_655
O51 Si1 1.607529 1_555
O52 Si2 1.609896 1_655
O53 Si0 1.608412 1_545
O54 Si12 1.643861 1_555
O55 Si13 1.647805 1_655
O56 Si14 1.646768 1_545
O57 Si15 1.656568 1_545
O58 Si16 1.653664 1_555
O59 Si17 1.652514 1_655
O60 Si11 1.638711 1_555
O61 Si9 1.638169 1_455
O62 Si10 1.628739 1_565
O63 Si7 1.634994 1_565
O64 Si8 1.642976 1_555
O65 Si6 1.631281 1_455
O66 Si0 1.665007 1_555
O67 Si1 1.660773 1_555
O68 Si2 1.665622 1_555
O69 Si3 1.663143 1_555
O70 Si4 1.662960 1_555
O71 Si5 1.669592 1_555
