# generated using pymatgen
data_Mn7C3
_symmetry_space_group_name_H-M   'P 1'
_cell_length_a   4.46038000
_cell_length_b   6.81132500
_cell_length_c   11.70101800
_cell_angle_alpha   90.00000000
_cell_angle_beta   90.00000000
_cell_angle_gamma   90.00000000
_symmetry_Int_Tables_number   1
_chemical_formula_structural   Mn7C3
_chemical_formula_sum   'Mn28 C12'
_cell_volume   355.48977226
_cell_formula_units_Z   4
loop_
 _symmetry_equiv_pos_site_id
 _symmetry_equiv_pos_as_xyz
  1  'x, y, z'
loop_
 _atom_site_type_symbol
 _atom_site_label
 _atom_site_symmetry_multiplicity
 _atom_site_fract_x
 _atom_site_fract_y
 _atom_site_fract_z
 _atom_site_occupancy
  Mn  Mn0  1  0.74773000  0.06688600  0.48409200  1
  Mn  Mn1  1  0.24773000  0.43311400  0.01590800  1
  Mn  Mn2  1  0.25227000  0.56688600  0.51590800  1
  Mn  Mn3  1  0.75227000  0.93311400  0.98409200  1
  Mn  Mn4  1  0.25227000  0.93311400  0.51590800  1
  Mn  Mn5  1  0.75227000  0.56688600  0.98409200  1
  Mn  Mn6  1  0.74773000  0.43311400  0.48409200  1
  Mn  Mn7  1  0.24773000  0.06688600  0.01590800  1
  Mn  Mn8  1  0.54947800  0.06397400  0.69288600  1
  Mn  Mn9  1  0.04947800  0.43602600  0.80711400  1
  Mn  Mn10  1  0.45052200  0.56397400  0.30711400  1
  Mn  Mn11  1  0.95052200  0.93602600  0.19288600  1
  Mn  Mn12  1  0.45052200  0.93602600  0.30711400  1
  Mn  Mn13  1  0.95052200  0.56397400  0.19288600  1
  Mn  Mn14  1  0.54947800  0.43602600  0.69288600  1
  Mn  Mn15  1  0.04947800  0.06397400  0.80711400  1
  Mn  Mn16  1  0.78397500  0.25000000  0.30193900  1
  Mn  Mn17  1  0.28397500  0.25000000  0.19806100  1
  Mn  Mn18  1  0.21602500  0.75000000  0.69806100  1
  Mn  Mn19  1  0.71602500  0.75000000  0.80193900  1
  Mn  Mn20  1  0.78412000  0.25000000  0.09098800  1
  Mn  Mn21  1  0.28412000  0.25000000  0.40901200  1
  Mn  Mn22  1  0.21588000  0.75000000  0.90901200  1
  Mn  Mn23  1  0.71588000  0.75000000  0.59098800  1
  Mn  Mn24  1  0.56973800  0.25000000  0.87298700  1
  Mn  Mn25  1  0.06973800  0.25000000  0.62701300  1
  Mn  Mn26  1  0.43026200  0.75000000  0.12701300  1
  Mn  Mn27  1  0.93026200  0.75000000  0.37298700  1
  C  C0  1  0.54551500  0.02780700  0.14623200  1
  C  C1  1  0.04551500  0.47219300  0.35376800  1
  C  C2  1  0.45448500  0.52780700  0.85376800  1
  C  C3  1  0.95448500  0.97219300  0.64623200  1
  C  C4  1  0.45448500  0.97219300  0.85376800  1
  C  C5  1  0.95448500  0.52780700  0.64623200  1
  C  C6  1  0.54551500  0.47219300  0.14623200  1
  C  C7  1  0.04551500  0.02780700  0.35376800  1
  C  C8  1  0.96574500  0.25000000  0.93732600  1
  C  C9  1  0.46574500  0.25000000  0.56267400  1
  C  C10  1  0.03425500  0.75000000  0.06267400  1
  C  C11  1  0.53425500  0.75000000  0.43732600  1
loop_
_geom_bond_atom_site_label_1
_geom_bond_atom_site_label_2
_geom_bond_distance
_geom_bond_site_symmetry_2
C0 Mn20 1.959842 1_555
C0 Mn26 1.973674 1_545
C0 Mn11 1.988016 1_545
C0 Mn17 2.004777 1_555
C0 Mn12 2.028320 1_545
C0 Mn7 2.039718 1_555
C0 Mn3 2.205867 1_544
C1 Mn21 1.959842 1_555
C1 Mn27 1.973674 1_455
C1 Mn10 1.988016 1_555
C1 Mn16 2.004777 1_455
C1 Mn13 2.028320 1_455
C1 Mn6 2.039718 1_455
C1 Mn2 2.205867 1_555
C2 Mn22 1.959842 1_555
C2 Mn24 1.973674 1_555
C2 Mn9 1.988016 1_555
C2 Mn19 2.004777 1_555
C2 Mn14 2.028320 1_555
C2 Mn5 2.039718 1_555
C2 Mn1 2.205867 1_556
C3 Mn23 1.959842 1_555
C3 Mn25 1.973674 1_665
C3 Mn8 1.988016 1_565
C3 Mn18 2.004777 1_655
C3 Mn15 2.028320 1_665
C3 Mn4 2.039718 1_655
C3 Mn0 2.205867 1_565
C4 Mn22 1.959842 1_555
C4 Mn24 1.973674 1_565
C4 Mn15 1.988016 1_565
C4 Mn19 2.004777 1_555
C4 Mn8 2.028320 1_565
C4 Mn3 2.039718 1_555
C4 Mn7 2.205867 1_566
C5 Mn23 1.959842 1_555
C5 Mn25 1.973674 1_655
C5 Mn14 1.988016 1_555
C5 Mn18 2.004777 1_655
C5 Mn9 2.028320 1_655
C5 Mn2 2.039718 1_655
C5 Mn6 2.205867 1_555
C6 Mn20 1.959842 1_555
C6 Mn26 1.973674 1_555
C6 Mn13 1.988016 1_555
C6 Mn17 2.004777 1_555
C6 Mn10 2.028320 1_555
C6 Mn1 2.039718 1_555
C6 Mn5 2.205867 1_554
C7 Mn21 1.959842 1_555
C7 Mn27 1.973674 1_445
C7 Mn12 1.988016 1_545
C7 Mn16 2.004777 1_455
C7 Mn11 2.028320 1_445
C7 Mn0 2.039718 1_455
C7 Mn4 2.205867 1_545
C8 Mn24 1.920083 1_555
C8 Mn20 1.972080 1_556
C8 Mn1 1.995758 1_656
C8 Mn7 1.995758 1_656
C8 Mn9 2.016528 1_655
C8 Mn15 2.016528 1_655
C8 Mn3 2.421742 1_545
C8 Mn5 2.421742 1_555
C9 Mn25 1.920083 1_555
C9 Mn21 1.972080 1_555
C9 Mn0 1.995758 1_555
C9 Mn6 1.995758 1_555
C9 Mn14 2.016528 1_555
C9 Mn8 2.016528 1_555
C9 Mn2 2.421742 1_555
C9 Mn4 2.421742 1_545
C10 Mn26 1.920083 1_555
C10 Mn22 1.972080 1_554
C10 Mn5 1.995758 1_454
C10 Mn3 1.995758 1_454
C10 Mn11 2.016528 1_455
C10 Mn13 2.016528 1_455
C10 Mn1 2.421742 1_555
C10 Mn7 2.421742 1_565
C11 Mn27 1.920083 1_555
C11 Mn23 1.972080 1_555
C11 Mn4 1.995758 1_555
C11 Mn2 1.995758 1_555
C11 Mn12 2.016528 1_555
C11 Mn10 2.016528 1_555
C11 Mn0 2.421742 1_565
C11 Mn6 2.421742 1_555
