# generated using pymatgen
data_NaCaTi3P3(SO8)3
_symmetry_space_group_name_H-M   'P 1'
_cell_length_a   8.74203605
_cell_length_b   8.73696503
_cell_length_c   22.64046901
_cell_angle_alpha   89.96168679
_cell_angle_beta   90.28943181
_cell_angle_gamma   120.05195394
_symmetry_Int_Tables_number   1
_chemical_formula_structural   NaCaTi3P3(SO8)3
_chemical_formula_sum   'Na3 Ca3 Ti9 P9 S9 O72'
_cell_volume   1496.77008754
_cell_formula_units_Z   3
loop_
 _symmetry_equiv_pos_site_id
 _symmetry_equiv_pos_as_xyz
  1  'x, y, z'
loop_
 _atom_site_type_symbol
 _atom_site_label
 _atom_site_symmetry_multiplicity
 _atom_site_fract_x
 _atom_site_fract_y
 _atom_site_fract_z
 _atom_site_occupancy
  Na  Na0  1  0.65783712  0.33226404  0.83341720  1
  Na  Na1  1  0.67044629  0.32817197  0.33288276  1
  Na  Na2  1  0.32968988  0.67079128  0.16496567  1
  Ca  Ca0  1  0.66214880  0.33604837  0.68764022  1
  Ca  Ca1  1  0.66895614  0.33040762  0.18536449  1
  Ca  Ca2  1  0.33183060  0.67021449  0.31451799  1
  Ti  Ti0  1  0.99343440  0.99397975  0.36099644  1
  Ti  Ti1  1  0.00744309  0.00506016  0.86214976  1
  Ti  Ti2  1  0.99965342  0.00227834  0.64592696  1
  Ti  Ti3  1  0.99588558  0.99590356  0.13675955  1
  Ti  Ti4  1  0.68033714  0.33692319  0.97984912  1
  Ti  Ti5  1  0.67838939  0.34712181  0.48500653  1
  Ti  Ti6  1  0.33551394  0.67448890  0.01381043  1
  Ti  Ti7  1  0.34507146  0.68078837  0.51581239  1
  Ti  Ti8  1  0.33307166  0.65750241  0.81311665  1
  P  P0  1  0.27333752  0.28232001  0.75440617  1
  P  P1  1  0.66428526  0.63318561  0.58402518  1
  P  P2  1  0.96816352  0.62722378  0.08154050  1
  P  P3  1  0.66123409  0.03432112  0.08128725  1
  P  P4  1  0.61947364  0.66179774  0.91539454  1
  P  P5  1  0.04654819  0.38308041  0.91563622  1
  P  P6  1  0.34221758  0.95762841  0.91400268  1
  P  P7  1  0.63056937  0.97414751  0.41725218  1
  P  P8  1  0.03629164  0.66335095  0.41724490  1
  S  S0  1  0.27259249  0.00135167  0.24979488  1
  S  S1  1  0.72432329  0.72448328  0.24948440  1
  S  S2  1  0.00106099  0.27242857  0.25005504  1
  S  S3  1  0.01272313  0.72654775  0.75405308  1
  S  S4  1  0.71402685  0.98781074  0.75377090  1
  S  S5  1  0.97160975  0.33843747  0.58249758  1
  S  S6  1  0.36650779  0.03395878  0.58223978  1
  S  S7  1  0.37011463  0.33762092  0.08059623  1
  S  S8  1  0.33744974  0.36804733  0.41849889  1
  O  O0  1  0.17550842  0.99644183  0.30466391  1
  O  O1  1  0.81883563  0.82138630  0.30500326  1
  O  O2  1  0.00446999  0.17870926  0.30523115  1
  O  O3  1  0.17178367  0.16771800  0.80821529  1
  O  O4  1  0.99048659  0.81454590  0.80615906  1
  O  O5  1  0.82200445  0.00433783  0.80596182  1
  O  O6  1  0.79768976  0.97081141  0.69783209  1
  O  O7  1  0.16436052  0.19030027  0.69656265  1
  O  O8  1  0.02537867  0.82609546  0.69834555  1
  O  O9  1  0.82079812  0.81911829  0.19509882  1
  O  O10  1  0.99584423  0.17495013  0.19546493  1
  O  O11  1  0.17837424  0.00416301  0.19489425  1
  O  O12  1  0.90681824  0.37836568  0.63546727  1
  O  O13  1  0.47192326  0.09413416  0.63560321  1
  O  O14  1  0.61462705  0.52290972  0.63842286  1
  O  O15  1  0.90673854  0.52213184  0.13740008  1
  O  O16  1  0.61156049  0.08987014  0.13718433  1
  O  O17  1  0.47213744  0.37722206  0.13500996  1
  O  O18  1  0.45749123  0.30649377  0.02966568  1
  O  O19  1  0.83855591  0.53079995  0.02819548  1
  O  O20  1  0.69296244  0.16423281  0.02866776  1
  O  O21  1  0.45410699  0.15407447  0.53156253  1
  O  O22  1  0.69904708  0.53504365  0.53175940  1
  O  O23  1  0.84572027  0.30283308  0.53170894  1
  O  O24  1  0.53172238  0.69355875  0.96891535  1
  O  O25  1  0.16296875  0.46832260  0.97000572  1
  O  O26  1  0.30858053  0.84016899  0.96904963  1
  O  O27  1  0.53314053  0.84274969  0.46915060  1
  O  O28  1  0.30724359  0.45777178  0.46887111  1
  O  O29  1  0.16397621  0.69352608  0.46910004  1
  O  O30  1  0.08667830  0.60976401  0.36112827  1
  O  O31  1  0.52440321  0.91471759  0.36129285  1
  O  O32  1  0.38111673  0.47109680  0.36453513  1
  O  O33  1  0.13050776  0.50168478  0.86083927  1
  O  O34  1  0.37209131  0.86834854  0.86019561  1
  O  O35  1  0.49736433  0.62744933  0.86014659  1
  O  O36  1  0.01848519  0.83135258  0.40905103  1
  O  O37  1  0.81457864  0.98739709  0.40939446  1
  O  O38  1  0.17680661  0.19156315  0.41143419  1
  O  O39  1  0.02161750  0.19682516  0.90702517  1
  O  O40  1  0.17480663  0.97445217  0.90585618  1
  O  O41  1  0.80196150  0.82512467  0.90468315  1
  O  O42  1  0.98176295  0.17324154  0.59007893  1
  O  O43  1  0.18923706  0.01660349  0.59062877  1
  O  O44  1  0.83311710  0.81740285  0.59453137  1
  O  O45  1  0.98204063  0.81239206  0.08982255  1
  O  O46  1  0.83292452  0.02207393  0.08990228  1
  O  O47  1  0.19236687  0.17476940  0.08807022  1
  O  O48  1  0.69674380  0.14562633  0.75096474  1
  O  O49  1  0.45448733  0.30112508  0.75434091  1
  O  O50  1  0.85863245  0.54822955  0.75184575  1
  O  O51  1  0.71289580  0.55184621  0.25285841  1
  O  O52  1  0.84022044  0.28509971  0.25369510  1
  O  O53  1  0.44543261  0.16351739  0.25325385  1
  O  O54  1  0.63815208  0.49657395  0.92513676  1
  O  O55  1  0.86051051  0.36283687  0.92428153  1
  O  O56  1  0.50370015  0.14294269  0.92448960  1
  O  O57  1  0.66221457  0.15872823  0.43502921  1
  O  O58  1  0.48777592  0.33680339  0.43151153  1
  O  O59  1  0.84639319  0.50950864  0.43354605  1
  O  O60  1  0.33855952  0.48712452  0.06962582  1
  O  O61  1  0.15503944  0.66120650  0.06691014  1
  O  O62  1  0.51095377  0.84531698  0.06603155  1
  O  O63  1  0.33720085  0.85390346  0.56810167  1
  O  O64  1  0.51094598  0.66201543  0.56344796  1
  O  O65  1  0.14756595  0.48418659  0.56648142  1
  O  O66  1  0.28558779  0.84048220  0.24654269  1
  O  O67  1  0.55148667  0.71277764  0.24730892  1
  O  O68  1  0.16310081  0.44531854  0.24739239  1
  O  O69  1  0.28248542  0.46455220  0.76145547  1
  O  O70  1  0.17849107  0.72029952  0.75895375  1
  O  O71  1  0.53913043  0.82457904  0.75834252  1
loop_
_geom_bond_atom_site_label_1
_geom_bond_atom_site_label_2
_geom_bond_distance
_geom_bond_site_symmetry_2
Na0 O49 2.433837 1_555
Na0 O56 2.567955 1_555
Na0 O54 2.580245 1_555
Na0 O50 2.600592 1_555
Na0 O48 2.612561 1_555
Na0 O55 2.632977 1_555
Na1 O52 2.479086 1_555
Na1 O53 2.514463 1_555
Na1 O51 2.552456 1_555
Na1 O57 2.726821 1_555
Na1 O59 2.756587 1_555
Na1 O58 2.774703 1_555
Na2 O66 2.518183 1_555
Na2 O67 2.573266 1_555
Na2 O68 2.575530 1_555
Na2 O61 2.665442 1_555
Na2 O60 2.715010 1_555
Na2 O62 2.732133 1_555
Ca0 O14 2.179873 1_555
Ca0 O13 2.254758 1_555
Ca0 O49 2.267492 1_555
Ca0 O50 2.299835 1_555
Ca0 O12 2.310801 1_555
Ca0 O48 2.326212 1_555
Ca1 O16 2.190809 1_555
Ca1 O15 2.199790 1_555
Ca1 O17 2.260946 1_555
Ca1 O52 2.315385 1_555
Ca1 O51 2.340809 1_555
Ca1 O53 2.341061 1_555
Ca2 O30 2.207712 1_555
Ca2 O31 2.214068 1_555
Ca2 O32 2.288596 1_555
Ca2 O66 2.310394 1_555
Ca2 O68 2.329107 1_555
Ca2 O67 2.335503 1_555
O0 S0 1.496489 1_565
O0 Ti0 2.036363 1_455
O1 S1 1.506568 1_555
O1 Ti0 1.971921 1_555
O2 S2 1.501528 1_555
O2 Ti0 2.012664 1_445
O3 P0 1.547212 1_555
O3 Ti1 1.882879 1_555
O4 S3 1.474388 1_655
O4 Ti1 2.037974 1_665
O5 S4 1.469886 1_545
O5 Ti1 2.053111 1_655
O6 S4 1.509756 1_555
O6 Ti2 2.026868 1_565
O7 P0 1.578198 1_555
O7 Ti2 1.924290 1_455
O8 S3 1.504328 1_555
O8 Ti2 2.042073 1_465
O9 S1 1.490563 1_555
O9 Ti3 2.030496 1_555
O10 S2 1.488930 1_655
O10 Ti3 2.053537 1_545
O11 S0 1.494619 1_555
O11 Ti3 2.036233 1_445
O12 S5 1.444321 1_555
O13 S6 1.445572 1_555
O14 P1 1.489447 1_555
O15 P2 1.497441 1_555
O16 P3 1.497717 1_555
O17 S7 1.453712 1_555
O18 S7 1.484731 1_555
O18 Ti4 2.154304 1_554
O19 P2 1.575969 1_555
O19 Ti4 1.902918 1_554
O20 P3 1.571851 1_555
O20 Ti4 1.916661 1_554
O21 S6 1.485447 1_555
O21 Ti5 2.122831 1_555
O22 P1 1.579182 1_555
O22 Ti5 1.884728 1_555
O23 S5 1.508298 1_555
O23 Ti5 1.989552 1_555
O24 P4 1.535199 1_555
O24 Ti6 1.932407 1_556
O25 P5 1.528111 1_555
O25 Ti6 1.941493 1_556
O26 P6 1.546809 1_555
O26 Ti6 1.874779 1_556
O27 P7 1.566204 1_555
O27 Ti7 1.872680 1_555
O28 S8 1.482044 1_555
O28 Ti7 2.095067 1_555
O29 P8 1.544741 1_555
O29 Ti7 1.948488 1_555
O30 P8 1.496801 1_555
O31 P7 1.497491 1_555
O32 S8 1.451913 1_555
O33 P5 1.548350 1_555
O33 Ti8 1.938910 1_555
O34 P6 1.539230 1_555
O34 Ti8 2.003896 1_555
O35 P4 1.568546 1_555
O35 Ti8 1.904576 1_555
O36 P8 1.562481 1_555
O36 Ti0 1.886186 1_455
O37 P7 1.564944 1_555
O37 Ti0 1.890998 1_555
O38 S8 1.484786 1_555
O38 Ti0 2.016508 1_445
O39 P5 1.542209 1_555
O39 Ti1 1.909920 1_555
O40 P6 1.552478 1_555
O40 Ti1 1.888980 1_565
O41 P4 1.537370 1_555
O41 Ti1 1.952591 1_665
O42 S5 1.499437 1_555
O42 Ti2 2.020848 1_555
O43 S6 1.492729 1_555
O43 Ti2 2.035413 1_455
O44 P1 1.563064 1_555
O44 Ti2 1.926840 1_565
O45 P2 1.571874 1_555
O45 Ti3 1.876493 1_555
O46 P3 1.568482 1_555
O46 Ti3 1.875606 1_545
O47 S7 1.501856 1_555
O47 Ti3 1.983941 1_445
O48 S4 1.461668 1_545
O49 P0 1.508068 1_555
O50 S3 1.463481 1_655
O51 S1 1.462827 1_555
O52 S2 1.467372 1_655
O53 S0 1.466762 1_555
O54 P4 1.547404 1_555
O54 Ti4 2.030847 1_555
O55 P5 1.558741 1_655
O55 Ti4 1.943546 1_555
O56 P6 1.542260 1_545
O56 Ti4 2.046912 1_555
O57 P7 1.546658 1_545
O57 Ti5 1.943541 1_555
O58 S8 1.497865 1_555
O58 Ti5 2.020157 1_555
O59 P8 1.571446 1_655
O59 Ti5 1.858889 1_555
O60 S7 1.484497 1_555
O60 Ti6 2.077959 1_555
O61 P2 1.544764 1_455
O61 Ti6 1.945132 1_555
O62 P3 1.547726 1_565
O62 Ti6 1.915484 1_555
O63 S6 1.496339 1_565
O63 Ti7 1.949705 1_555
O64 P1 1.552140 1_555
O64 Ti7 1.874822 1_555
O65 S5 1.470485 1_455
O65 Ti7 2.072338 1_555
O66 S0 1.467629 1_565
O67 S1 1.462984 1_555
O68 S2 1.466153 1_555
O69 P0 1.561894 1_555
O69 Ti8 1.912135 1_555
O70 S3 1.480853 1_555
O70 Ti8 2.087070 1_555
O71 S4 1.483163 1_555
O71 Ti8 2.073680 1_555
