# generated using pymatgen
data_Ce2CoRu3
_symmetry_space_group_name_H-M   'P 1'
_cell_length_a   5.02268727
_cell_length_b   5.02325858
_cell_length_c   5.02272405
_cell_angle_alpha   67.12562056
_cell_angle_beta   67.14043541
_cell_angle_gamma   67.12451783
_symmetry_Int_Tables_number   1
_chemical_formula_structural   Ce2CoRu3
_chemical_formula_sum   'Ce2 Co1 Ru3'
_cell_volume   103.28485040
_cell_formula_units_Z   1
loop_
 _symmetry_equiv_pos_site_id
 _symmetry_equiv_pos_as_xyz
  1  'x, y, z'
loop_
 _atom_site_type_symbol
 _atom_site_label
 _atom_site_symmetry_multiplicity
 _atom_site_fract_x
 _atom_site_fract_y
 _atom_site_fract_z
 _atom_site_occupancy
  Ce  Ce0  1  0.63142204  0.63132358  0.63142304  1
  Ce  Ce1  1  0.36857796  0.36867642  0.36857696  1
  Co  Co0  1  0.00000000  0.00000000  0.00000000  1
  Ru  Ru0  1  0.00000000  0.50000000  0.00000000  1
  Ru  Ru1  1  0.50000000  0.00000000  0.00000000  1
  Ru  Ru2  1  0.00000000  0.00000000  0.50000000  1
loop_
_geom_bond_atom_site_label_1
_geom_bond_atom_site_label_2
_geom_bond_distance
_geom_bond_site_symmetry_2
Ce0 Ru0 2.837838 1_656
Ce0 Ru1 2.838688 1_566
Ce0 Ru2 2.838707 1_665
Ce0 Ru2 3.167540 1_565
Ce0 Ru1 3.167587 1_565
Ce0 Ru2 3.167595 1_655
Ce0 Ru1 3.167637 1_556
Ce0 Ru0 3.167945 1_556
Ce0 Ru0 3.167950 1_655
Ce1 Ru0 2.837838 1_555
Ce1 Ru1 2.838688 1_555
Ce1 Ru2 2.838707 1_555
Ce1 Ru2 3.167540 1_655
Ce1 Ru1 3.167587 1_556
Ce1 Ru2 3.167595 1_565
Ce1 Ru1 3.167637 1_565
Ce1 Ru0 3.167945 1_655
Ce1 Ru0 3.167950 1_556
Co0 Ru1 2.511344 1_455
Co0 Ru1 2.511344 1_555
Co0 Ru2 2.511362 1_554
Co0 Ru2 2.511362 1_555
Co0 Ru0 2.511629 1_555
Co0 Ru0 2.511629 1_545
Ru0 Ru1 2.776914 1_465
Ru0 Ru1 2.776914 1_555
Ru0 Ru2 2.776965 1_555
Ru0 Ru2 2.776965 1_564
Ru1 Ru2 2.777348 1_654
Ru1 Ru2 2.777348 1_555
