# generated using pymatgen
data_Na9Ca5TaP6(SO12)3
_symmetry_space_group_name_H-M   'P 1'
_cell_length_a   9.35201541
_cell_length_b   9.35201507
_cell_length_c   22.79248901
_cell_angle_alpha   89.89148966
_cell_angle_beta   90.10851034
_cell_angle_gamma   119.90915825
_symmetry_Int_Tables_number   1
_chemical_formula_structural   Na9Ca5TaP6(SO12)3
_chemical_formula_sum   'Na18 Ca10 Ta2 P12 S6 O72'
_cell_volume   1727.93967356
_cell_formula_units_Z   2
loop_
 _symmetry_equiv_pos_site_id
 _symmetry_equiv_pos_as_xyz
  1  'x, y, z'
loop_
 _atom_site_type_symbol
 _atom_site_label
 _atom_site_symmetry_multiplicity
 _atom_site_fract_x
 _atom_site_fract_y
 _atom_site_fract_z
 _atom_site_occupancy
  Na  Na0  1  0.34011803  0.32968723  0.25215331  1
  Na  Na1  1  0.67031277  0.65988197  0.75215331  1
  Na  Na2  1  0.03036312  0.69825927  0.59021234  1
  Na  Na3  1  0.66634023  0.96815257  0.58869168  1
  Na  Na4  1  0.30174073  0.96963688  0.09021234  1
  Na  Na5  1  0.03184743  0.33365977  0.08869168  1
  Na  Na6  1  0.96229281  0.67333515  0.90230125  1
  Na  Na7  1  0.70855841  0.03455307  0.90407557  1
  Na  Na8  1  0.33287493  0.29293037  0.90554823  1
  Na  Na9  1  0.96544693  0.29144159  0.40407557  1
  Na  Na10  1  0.32666485  0.03770719  0.40230125  1
  Na  Na11  1  0.70706963  0.66712507  0.40554823  1
  Na  Na12  1  0.02327580  0.02213349  0.49574034  1
  Na  Na13  1  0.97786651  0.97672420  0.99574034  1
  Na  Na14  1  0.66615862  0.31558029  0.82371943  1
  Na  Na15  1  0.68441971  0.33384138  0.32371943  1
  Na  Na16  1  0.36331247  0.69131588  0.17266689  1
  Na  Na17  1  0.30868412  0.63668753  0.67266689  1
  Ca  Ca0  1  0.98893681  0.99174450  0.34231337  1
  Ca  Ca1  1  0.00825550  0.01106319  0.84231337  1
  Ca  Ca2  1  0.01470218  0.01295978  0.66045394  1
  Ca  Ca3  1  0.98704022  0.98529782  0.16045394  1
  Ca  Ca4  1  0.65616324  0.32506834  0.68601843  1
  Ca  Ca5  1  0.67493166  0.34383676  0.18601843  1
  Ca  Ca6  1  0.66857067  0.33996704  0.97847358  1
  Ca  Ca7  1  0.66003296  0.33142933  0.47847358  1
  Ca  Ca8  1  0.34066250  0.66600652  0.01612508  1
  Ca  Ca9  1  0.33399348  0.65933750  0.51612508  1
  Ta  Ta0  1  0.33302960  0.67123629  0.31765975  1
  Ta  Ta1  1  0.32876371  0.66697040  0.81765975  1
  P  P0  1  0.31287535  0.99645344  0.25162799  1
  P  P1  1  0.67453379  0.68253979  0.25726068  1
  P  P2  1  0.01295566  0.32474245  0.25358489  1
  P  P3  1  0.31746021  0.32546621  0.75726068  1
  P  P4  1  0.00354656  0.68712465  0.75162799  1
  P  P5  1  0.67525755  0.98704434  0.75358489  1
  P  P6  1  0.63015277  0.66790281  0.91289832  1
  P  P7  1  0.03794397  0.37157224  0.91926751  1
  P  P8  1  0.33365449  0.96170910  0.91935480  1
  P  P9  1  0.62842776  0.96205603  0.41926751  1
  P  P10  1  0.33209719  0.36984723  0.41289832  1
  P  P11  1  0.03829090  0.66634551  0.41935480  1
  S  S0  1  0.96255954  0.32646285  0.58057398  1
  S  S1  1  0.35510004  0.02448483  0.57909708  1
  S  S2  1  0.67759808  0.64801401  0.58415445  1
  S  S3  1  0.97551517  0.64489996  0.07909708  1
  S  S4  1  0.67353715  0.03744046  0.08057398  1
  S  S5  1  0.35198599  0.32240192  0.08415445  1
  O  O0  1  0.22287532  0.02025558  0.30383695  1
  O  O1  1  0.76880718  0.75338170  0.31414584  1
  O  O2  1  0.99990937  0.22585963  0.30880211  1
  O  O3  1  0.24661830  0.23119282  0.81414584  1
  O  O4  1  0.97974442  0.77712468  0.80383695  1
  O  O5  1  0.77414037  0.00009063  0.80880211  1
  O  O6  1  0.75173015  0.95018237  0.69911603  1
  O  O7  1  0.20724154  0.23682395  0.70485869  1
  O  O8  1  0.03671872  0.78573612  0.69407020  1
  O  O9  1  0.76317605  0.79275846  0.20485869  1
  O  O10  1  0.04981763  0.24826985  0.19911603  1
  O  O11  1  0.21426388  0.96328128  0.19407020  1
  O  O12  1  0.85915015  0.33037333  0.62881281  1
  O  O13  1  0.45901565  0.12824394  0.62762659  1
  O  O14  1  0.67803765  0.55682422  0.63708807  1
  O  O15  1  0.87175606  0.54098435  0.12762659  1
  O  O16  1  0.66962667  0.14084985  0.12881281  1
  O  O17  1  0.44317578  0.32196235  0.13708807  1
  O  O18  1  0.44104295  0.32394046  0.02988426  1
  O  O19  1  0.89895814  0.57157455  0.02172858  1
  O  O20  1  0.67932556  0.11668893  0.02305482  1
  O  O21  1  0.42842545  0.10104186  0.52172858  1
  O  O22  1  0.67605954  0.55895705  0.52988426  1
  O  O23  1  0.88331107  0.32067444  0.52305482  1
  O  O24  1  0.55064979  0.68394840  0.96887560  1
  O  O25  1  0.11638885  0.44017639  0.97919639  1
  O  O26  1  0.32380991  0.88159964  0.97893127  1
  O  O27  1  0.55982361  0.88361115  0.47919639  1
  O  O28  1  0.31605160  0.44935021  0.46887560  1
  O  O29  1  0.11840036  0.67619009  0.47893127  1
  O  O30  1  0.16079056  0.66735229  0.36912814  1
  O  O31  1  0.50846598  0.83525230  0.36988019  1
  O  O32  1  0.33028467  0.47899757  0.35884242  1
  O  O33  1  0.16474770  0.49153402  0.86988019  1
  O  O34  1  0.33264771  0.83920944  0.86912814  1
  O  O35  1  0.52100243  0.66971533  0.85884242  1
  O  O36  1  0.01603547  0.81765009  0.41193313  1
  O  O37  1  0.80439283  0.98982224  0.41271304  1
  O  O38  1  0.18511481  0.19202654  0.40906556  1
  O  O39  1  0.01017776  0.19560717  0.91271304  1
  O  O40  1  0.18234991  0.98396453  0.91193313  1
  O  O41  1  0.80797346  0.81488519  0.90906556  1
  O  O42  1  0.97593291  0.17404035  0.58479785  1
  O  O43  1  0.18381380  -0.00217452  0.58199023  1
  O  O44  1  0.83228181  0.81420826  0.58300066  1
  O  O45  1  0.00217452  0.81618620  0.08199023  1
  O  O46  1  0.82595965  0.02406709  0.08479785  1
  O  O47  1  0.18579174  0.16771819  0.08300066  1
  O  O48  1  0.64735630  0.13325075  0.74765864  1
  O  O49  1  0.49953769  0.37246276  0.75090011  1
  O  O50  1  0.85187849  0.51439522  0.74799748  1
  O  O51  1  0.62753724  0.50046231  0.25090011  1
  O  O52  1  0.86674925  0.35264370  0.24765864  1
  O  O53  1  0.48560478  0.14812151  0.24799748  1
  O  O54  1  0.63004117  0.50184258  0.90845318  1
  O  O55  1  0.87401385  0.37303097  0.90945235  1
  O  O56  1  0.49725606  0.12749314  0.91086305  1
  O  O57  1  0.62696903  0.12598615  0.40945235  1
  O  O58  1  0.49815742  0.36995883  0.40845318  1
  O  O59  1  0.87250686  0.50274394  0.41086305  1
  O  O60  1  0.32532059  0.46750895  0.08679961  1
  O  O61  1  0.14186488  0.65595231  0.08551990  1
  O  O62  1  0.52065232  0.87193633  0.08555108  1
  O  O63  1  0.34404769  0.85813512  0.58551990  1
  O  O64  1  0.53249105  0.67467941  0.58679961  1
  O  O65  1  0.12806367  0.47934768  0.58555108  1
  O  O66  1  0.33154065  0.83791383  0.26489673  1
  O  O67  1  0.49896776  0.67600822  0.26221061  1
  O  O68  1  0.17565358  0.50423355  0.26101197  1
  O  O69  1  0.32399178  0.50103224  0.76221061  1
  O  O70  1  0.16208617  0.66845935  0.76489673  1
  O  O71  1  0.49576645  0.82434642  0.76101197  1
loop_
_geom_bond_atom_site_label_1
_geom_bond_atom_site_label_2
_geom_bond_distance
_geom_bond_site_symmetry_2
Na0 O51 2.344269 1_555
Na0 O53 2.654893 1_555
Na0 O10 2.709483 1_555
Na0 O68 2.752682 1_555
Na0 O0 2.791378 1_555
Na0 O17 2.809271 1_555
Na0 O67 2.820029 1_555
Na0 O32 2.830767 1_555
Na1 O49 2.344269 1_555
Na1 O50 2.654893 1_555
Na1 O6 2.709482 1_555
Na1 O71 2.752682 1_555
Na1 O4 2.791378 1_555
Na1 O14 2.809271 1_555
Na1 O69 2.820029 1_555
Na1 O35 2.830767 1_555
Na2 O43 2.435749 1_565
Na2 O8 2.496927 1_555
Na2 O63 2.545449 1_555
Na2 O44 2.576011 1_455
Na2 O65 2.627557 1_555
Na2 O29 2.707951 1_555
Na3 O64 2.382341 1_555
Na3 O42 2.557139 1_565
Na3 O44 2.593734 1_555
Na3 O63 2.656194 1_555
Na3 O27 2.656767 1_555
Na3 O6 2.669286 1_555
Na4 O45 2.435749 1_555
Na4 O11 2.496927 1_555
Na4 O61 2.545449 1_555
Na4 O47 2.576011 1_565
Na4 O62 2.627557 1_555
Na4 O26 2.707951 1_554
Na5 O60 2.382341 1_555
Na5 O46 2.557139 1_455
Na5 O47 2.593734 1_555
Na5 O61 2.656194 1_555
Na5 O25 2.656767 1_554
Na5 O10 2.669286 1_555
Na6 O41 2.401211 1_555
Na6 O4 2.416729 1_555
Na6 O55 2.506407 1_555
Na6 O40 2.600238 1_655
Na6 O54 2.697739 1_555
Na6 O19 2.846084 1_556
Na7 O5 2.323867 1_555
Na7 O39 2.454811 1_655
Na7 O56 2.529608 1_555
Na7 O41 2.645956 1_545
Na7 O55 2.746914 1_555
Na7 O20 2.870354 1_556
Na8 O3 2.204062 1_555
Na8 O54 2.475879 1_555
Na8 O40 2.508906 1_545
Na8 O56 2.672489 1_555
Na8 O39 2.687878 1_555
Na8 O18 2.972920 1_556
Na9 O2 2.323867 1_555
Na9 O37 2.454811 1_545
Na9 O59 2.529608 1_555
Na9 O38 2.645956 1_655
Na9 O57 2.746914 1_555
Na9 O23 2.870354 1_555
Na10 O38 2.401211 1_555
Na10 O0 2.416729 1_555
Na10 O57 2.506407 1_555
Na10 O36 2.600238 1_545
Na10 O58 2.697738 1_555
Na10 O21 2.846084 1_555
Na11 O1 2.204062 1_555
Na11 O58 2.475879 1_555
Na11 O36 2.508907 1_655
Na11 O59 2.672489 1_555
Na11 O37 2.687878 1_555
Na11 O22 2.972920 1_555
Na12 O38 2.513801 1_555
Na12 O43 2.549078 1_555
Na12 O42 2.641227 1_455
Na12 O36 2.682272 1_545
Na12 O37 2.689483 1_445
Na12 O44 2.731726 1_445
Na13 O41 2.513801 1_555
Na13 O45 2.549078 1_656
Na13 O46 2.641227 1_566
Na13 O40 2.682272 1_655
Na13 O39 2.689483 1_665
Na13 O47 2.731726 1_666
Na14 O48 2.378004 1_555
Na14 O50 2.496225 1_555
Na14 O49 2.505860 1_555
Na14 O56 2.600387 1_555
Na14 O55 2.614138 1_555
Na14 O54 2.735007 1_555
Na15 O52 2.378004 1_555
Na15 O53 2.496225 1_555
Na15 O51 2.505860 1_555
Na15 O59 2.600387 1_555
Na15 O57 2.614138 1_555
Na15 O58 2.735007 1_555
Na16 O67 2.442446 1_555
Na16 O62 2.545714 1_555
Na16 O66 2.608915 1_555
Na16 O68 2.670886 1_555
Na16 O60 2.758387 1_555
Na16 O61 2.765427 1_555
Na17 O69 2.442446 1_555
Na17 O65 2.545714 1_555
Na17 O70 2.608915 1_555
Na17 O71 2.670886 1_555
Na17 O64 2.758387 1_555
Na17 O63 2.765427 1_555
Ca0 O1 2.245745 1_555
Ca0 O0 2.247503 1_665
Ca0 O2 2.271017 1_565
Ca0 O37 2.352241 1_555
Ca0 O36 2.373431 1_655
Ca0 O38 2.400486 1_665
Ca1 O3 2.245745 1_555
Ca1 O4 2.247503 1_445
Ca1 O5 2.271017 1_455
Ca1 O39 2.352241 1_555
Ca1 O40 2.373431 1_545
Ca1 O41 2.400486 1_445
Ca2 O7 2.211652 1_555
Ca2 O8 2.361068 1_545
Ca2 O6 2.394956 1_445
Ca2 O42 2.430388 1_455
Ca2 O43 2.440184 1_555
Ca2 O44 2.514064 1_445
Ca3 O9 2.211652 1_555
Ca3 O11 2.361068 1_655
Ca3 O10 2.394956 1_665
Ca3 O46 2.430388 1_565
Ca3 O45 2.440184 1_655
Ca3 O47 2.514064 1_665
Ca4 O48 2.245480 1_555
Ca4 O13 2.274722 1_555
Ca4 O49 2.277503 1_555
Ca4 O12 2.285038 1_555
Ca4 O50 2.290964 1_555
Ca4 O14 2.352174 1_555
Ca5 O52 2.245480 1_555
Ca5 O15 2.274722 1_555
Ca5 O51 2.277503 1_555
Ca5 O16 2.285038 1_555
Ca5 O53 2.290964 1_555
Ca5 O17 2.352174 1_555
Ca6 O54 2.345485 1_555
Ca6 O20 2.367233 1_556
Ca6 O18 2.369383 1_556
Ca6 O19 2.377352 1_556
Ca6 O55 2.383071 1_555
Ca6 O56 2.391112 1_555
Ca7 O58 2.345485 1_555
Ca7 O23 2.367233 1_555
Ca7 O22 2.369382 1_555
Ca7 O21 2.377352 1_555
Ca7 O57 2.383071 1_555
Ca7 O59 2.391112 1_555
Ca8 O24 2.173289 1_554
Ca8 O26 2.262433 1_554
Ca8 O25 2.269481 1_554
Ca8 O60 2.405285 1_555
Ca8 O61 2.408997 1_555
Ca8 O62 2.411412 1_555
Ca9 O28 2.173289 1_555
Ca9 O29 2.262433 1_555
Ca9 O27 2.269481 1_555
Ca9 O64 2.405285 1_555
Ca9 O63 2.408997 1_555
Ca9 O65 2.411412 1_555
O0 P0 1.538067 1_545
O1 P1 1.521086 1_555
O2 P2 1.528930 1_655
O3 P3 1.521086 1_555
O4 P4 1.538067 1_655
O5 P5 1.528930 1_545
O6 P5 1.556419 1_555
O7 P3 1.524193 1_555
O8 P4 1.542535 1_555
O9 P1 1.524193 1_555
O10 P2 1.556419 1_555
O11 P0 1.542535 1_555
O12 S0 1.478143 1_555
O13 S1 1.472778 1_555
O14 S2 1.477327 1_555
O15 S3 1.472778 1_555
O16 S4 1.478143 1_555
O17 S5 1.477327 1_555
O18 S5 1.488557 1_555
O19 S3 1.484190 1_555
O20 S4 1.492488 1_555
O21 S1 1.484190 1_555
O22 S2 1.488557 1_555
O23 S0 1.492488 1_555
O24 P6 1.522739 1_555
O25 P7 1.531576 1_555
O26 P8 1.530186 1_555
O27 P9 1.531576 1_555
O28 P10 1.522739 1_555
O29 P11 1.530186 1_555
O30 P11 1.617791 1_555
O30 Ta0 1.980084 1_555
O31 P9 1.614169 1_555
O31 Ta0 1.987740 1_555
O32 P10 1.603956 1_555
O32 Ta0 2.015332 1_555
O33 P7 1.614169 1_555
O33 Ta1 1.987740 1_555
O34 P8 1.617791 1_555
O34 Ta1 1.980084 1_555
O35 P6 1.603956 1_555
O35 Ta1 2.015332 1_555
O36 P11 1.538449 1_555
O37 P9 1.540285 1_555
O38 P10 1.543725 1_555
O39 P7 1.540284 1_555
O40 P8 1.538449 1_555
O41 P6 1.543725 1_555
O42 S0 1.494678 1_555
O43 S1 1.494844 1_555
O44 S2 1.505600 1_555
O45 S3 1.494844 1_455
O46 S4 1.494678 1_555
O47 S5 1.505600 1_555
O48 P5 1.520156 1_545
O49 P3 1.538843 1_555
O50 P4 1.530765 1_655
O51 P1 1.538843 1_555
O52 P2 1.520156 1_655
O53 P0 1.530765 1_545
O54 P6 1.555971 1_555
O55 P7 1.555669 1_655
O56 P8 1.554516 1_545
O57 P9 1.555668 1_545
O58 P10 1.555972 1_555
O59 P11 1.554516 1_655
O60 S5 1.498412 1_555
O61 S3 1.513661 1_455
O62 S4 1.498612 1_565
O63 S1 1.513661 1_565
O64 S2 1.498412 1_555
O65 S0 1.498612 1_455
O66 P0 1.605126 1_555
O66 Ta0 1.972483 1_555
O67 P1 1.616460 1_555
O67 Ta0 1.986366 1_555
O68 P2 1.616949 1_555
O68 Ta0 1.995135 1_555
O69 P3 1.616460 1_555
O69 Ta1 1.986366 1_555
O70 P4 1.605126 1_555
O70 Ta1 1.972483 1_555
O71 P5 1.616949 1_555
O71 Ta1 1.995135 1_555
