# generated using pymatgen
data_TaAgF6
_symmetry_space_group_name_H-M   'P 1'
_cell_length_a   4.99290932
_cell_length_b   4.99290932
_cell_length_c   9.35569868
_cell_angle_alpha   90.00000000
_cell_angle_beta   90.00000000
_cell_angle_gamma   90.00000000
_symmetry_Int_Tables_number   1
_chemical_formula_structural   TaAgF6
_chemical_formula_sum   'Ta2 Ag2 F12'
_cell_volume   233.22955473
_cell_formula_units_Z   2
loop_
 _symmetry_equiv_pos_site_id
 _symmetry_equiv_pos_as_xyz
  1  'x, y, z'
loop_
 _atom_site_type_symbol
 _atom_site_label
 _atom_site_symmetry_multiplicity
 _atom_site_fract_x
 _atom_site_fract_y
 _atom_site_fract_z
 _atom_site_occupancy
  Ta  Ta0  1  -0.00000000  -0.00000000  0.00000000  1
  Ta  Ta1  1  -0.00000000  -0.00000000  0.50000000  1
  Ag  Ag0  1  0.50000000  0.50000000  0.25000000  1
  Ag  Ag1  1  0.50000000  0.50000000  0.75000000  1
  F  F0  1  0.80678072  0.19321928  0.85683955  1
  F  F1  1  0.19321928  0.80678072  0.85683955  1
  F  F2  1  0.19321928  0.80678072  0.14316045  1
  F  F3  1  0.19321928  0.19321928  0.35683955  1
  F  F4  1  0.72844338  0.72844338  0.00000000  1
  F  F5  1  0.27155662  0.72844338  0.50000000  1
  F  F6  1  0.72844338  0.27155662  0.50000000  1
  F  F7  1  0.27155662  0.27155662  0.00000000  1
  F  F8  1  0.80678072  0.19321928  0.14316045  1
  F  F9  1  0.80678072  0.80678072  0.64316045  1
  F  F10  1  0.19321928  0.19321928  0.64316045  1
  F  F11  1  0.80678072  0.80678072  0.35683955  1
loop_
_geom_bond_atom_site_label_1
_geom_bond_atom_site_label_2
_geom_bond_distance
_geom_bond_site_symmetry_2
Ag0 F11 2.385687 1_555
Ag0 F8 2.385687 1_555
Ag0 F3 2.385687 1_555
Ag0 F2 2.385687 1_555
Ag1 F10 2.385687 1_555
Ag1 F0 2.385687 1_555
Ag1 F9 2.385687 1_555
Ag1 F1 2.385687 1_555
F0 Ta0 1.911883 1_656
F1 Ta0 1.911883 1_566
F2 Ta0 1.911883 1_565
F3 Ta1 1.911883 1_555
F4 Ta0 1.917472 1_665
F5 Ta1 1.917472 1_565
F6 Ta1 1.917472 1_655
F7 Ta0 1.917472 1_555
F8 Ta0 1.911883 1_655
F9 Ta1 1.911883 1_665
F10 Ta1 1.911883 1_555
F11 Ta1 1.911883 1_665
