# generated using pymatgen
data_Na6Mg4Al4SiS11O48
_symmetry_space_group_name_H-M   'P 1'
_cell_length_a   17.10109068
_cell_length_b   8.55950742
_cell_length_c   22.02256027
_cell_angle_alpha   89.91146143
_cell_angle_beta   89.91905262
_cell_angle_gamma   120.07158213
_symmetry_Int_Tables_number   1
_chemical_formula_structural   Na6Mg4Al4SiS11O48
_chemical_formula_sum   'Na18 Mg12 Al12 Si3 S33 O144'
_cell_volume   2789.68651532
_cell_formula_units_Z   3
loop_
 _symmetry_equiv_pos_site_id
 _symmetry_equiv_pos_as_xyz
  1  'x, y, z'
loop_
 _atom_site_type_symbol
 _atom_site_label
 _atom_site_symmetry_multiplicity
 _atom_site_fract_x
 _atom_site_fract_y
 _atom_site_fract_z
 _atom_site_occupancy
  Na  Na0  1  0.81756852  0.99497767  0.24817026  1
  Na  Na1  1  0.99648201  0.63511483  0.25314633  1
  Na  Na2  1  0.31732921  0.64654728  0.74887482  1
  Na  Na3  1  0.81583744  0.64101079  0.74682914  1
  Na  Na4  1  0.99663504  0.36014869  0.75086657  1
  Na  Na5  1  0.68923250  0.99974727  0.74910522  1
  Na  Na6  1  0.99848990  0.99847367  0.49875628  1
  Na  Na7  1  0.50223867  0.00266527  0.49687675  1
  Na  Na8  1  0.00121342  0.00129723  0.00125743  1
  Na  Na9  1  0.49997296  0.99981104  0.00139978  1
  Na  Na10  1  0.33509206  0.31219656  0.83453540  1
  Na  Na11  1  0.83404242  0.32425298  0.83698452  1
  Na  Na12  1  0.33473852  0.33515533  0.33185241  1
  Na  Na13  1  0.82765274  0.34524769  0.33486458  1
  Na  Na14  1  0.17413244  0.66951636  0.16627983  1
  Na  Na15  1  0.66545105  0.65517391  0.16811448  1
  Na  Na16  1  0.17301285  0.68856233  0.66501901  1
  Na  Na17  1  0.66850727  0.66924654  0.66369908  1
  Mg  Mg0  1  0.49832353  0.99907356  0.35316244  1
  Mg  Mg1  1  0.83379814  0.32807548  0.68251971  1
  Mg  Mg2  1  0.33385038  0.33526962  0.18340604  1
  Mg  Mg3  1  0.82941857  0.34007837  0.18398575  1
  Mg  Mg4  1  0.33321074  0.33290547  0.98409251  1
  Mg  Mg5  1  0.83274767  0.33283598  0.98353763  1
  Mg  Mg6  1  0.83225214  0.33232354  0.48116582  1
  Mg  Mg7  1  0.16542089  0.66387521  0.51727783  1
  Mg  Mg8  1  0.66868371  0.66885411  0.51811396  1
  Mg  Mg9  1  0.17413360  0.67294405  0.31717517  1
  Mg  Mg10  1  0.17218421  0.68330754  0.81400768  1
  Mg  Mg11  1  0.66625809  0.66577715  0.81503817  1
  Al  Al0  1  0.99805253  0.98834515  0.35201669  1
  Al  Al1  1  0.99835544  0.00512556  0.85375598  1
  Al  Al2  1  0.49355171  0.00818009  0.85326615  1
  Al  Al3  1  0.99385730  0.99587408  0.64664516  1
  Al  Al4  1  0.49503668  0.99701294  0.64648909  1
  Al  Al5  1  0.99383727  0.99199151  0.15000247  1
  Al  Al6  1  0.49980642  0.00148504  0.15021033  1
  Al  Al7  1  0.33426795  0.31798884  0.68508347  1
  Al  Al8  1  0.33341448  0.33170923  0.48062144  1
  Al  Al9  1  0.16718005  0.66780697  0.01724703  1
  Al  Al10  1  0.66571855  0.66673320  0.01742439  1
  Al  Al11  1  0.66593106  0.65416972  0.31398700  1
  Si  Si0  1  0.85261369  0.70772770  0.25175270  1
  Si  Si1  1  0.35740827  0.00743893  0.74807997  1
  Si  Si2  1  0.85671568  0.00061603  0.75105191  1
  S  S0  1  0.14424313  0.00581838  0.25001558  1
  S  S1  1  0.64128319  0.99422119  0.25022388  1
  S  S2  1  0.35615229  0.71180874  0.24859886  1
  S  S3  1  0.00459926  0.28665616  0.24983388  1
  S  S4  1  0.49966517  0.28954173  0.25015016  1
  S  S5  1  0.14389989  0.27865842  0.74889530  1
  S  S6  1  0.63861958  0.28133031  0.75007691  1
  S  S7  1  0.00248301  0.72211325  0.74985370  1
  S  S8  1  0.49823723  0.71246787  0.74892708  1
  S  S9  1  0.47586353  0.33010096  0.58331381  1
  S  S10  1  0.98277010  0.33102854  0.58438849  1
  S  S11  1  0.18820323  0.04905384  0.58411302  1
  S  S12  1  0.68063714  0.03659602  0.58510507  1
  S  S13  1  0.33577259  0.61713279  0.58452136  1
  S  S14  1  0.83603500  0.63214983  0.58484186  1
  S  S15  1  0.48393352  0.63492550  0.08296490  1
  S  S16  1  0.98485737  0.63419145  0.08292624  1
  S  S17  1  0.33323692  0.03294122  0.08337136  1
  S  S18  1  0.83329357  0.03348899  0.08268943  1
  S  S19  1  0.18227059  0.33204032  0.08330027  1
  S  S20  1  0.68167142  0.33284390  0.08239899  1
  S  S21  1  0.31355842  0.66865095  0.91676099  1
  S  S22  1  0.81376395  0.66934235  0.91683314  1
  S  S23  1  0.02340499  0.37545878  0.91617733  1
  S  S24  1  0.52273588  0.37512859  0.91731113  1
  S  S25  1  0.16363504  0.95748821  0.91719793  1
  S  S26  1  0.66320425  0.95683062  0.91592616  1
  S  S27  1  0.31395171  0.96645763  0.41958653  1
  S  S28  1  0.81385164  0.95826183  0.41393743  1
  S  S29  1  0.16654929  0.36563241  0.41683722  1
  S  S30  1  0.66571611  0.37609303  0.41666666  1
  S  S31  1  0.02010740  0.67104038  0.41527480  1
  S  S32  1  0.52059242  0.66157179  0.41692814  1
  O  O0  1  0.10306986  0.03221122  0.30543632  1
  O  O1  1  0.60351190  0.02851455  0.30423194  1
  O  O2  1  0.40866219  0.79211012  0.30367512  1
  O  O3  1  0.92058820  0.80669432  0.30837440  1
  O  O4  1  0.48606085  0.18137576  0.30440311  1
  O  O5  1  0.99095387  0.17630756  0.30481521  1
  O  O6  1  0.10706403  0.16964188  0.80489623  1
  O  O7  1  0.60037887  0.16398912  0.80498832  1
  O  O8  1  0.48290022  0.79334068  0.80419457  1
  O  O9  1  0.98936603  0.80558528  0.80517276  1
  O  O10  1  0.41730420  0.03583601  0.80934576  1
  O  O11  1  0.92293248  0.03858696  0.80956905  1
  O  O12  1  0.40406671  0.96381682  0.69051230  1
  O  O13  1  0.90347796  0.96418097  0.69249639  1
  O  O14  1  0.08753478  0.19458561  0.69479394  1
  O  O15  1  0.58719437  0.19606825  0.69443244  1
  O  O16  1  0.01822631  0.83156763  0.69444135  1
  O  O17  1  0.51867123  0.83040853  0.69468301  1
  O  O18  1  0.40121028  0.82692868  0.19355008  1
  O  O19  1  0.89751109  0.84105494  0.19225633  1
  O  O20  1  0.01881605  0.20609437  0.19432042  1
  O  O21  1  0.51600720  0.20696160  0.19473836  1
  O  O22  1  0.08624790  0.97505144  0.19533339  1
  O  O23  1  0.58679900  0.97087327  0.19450321  1
  O  O24  1  0.43313269  0.35861006  0.63784949  1
  O  O25  1  0.94397399  0.35842237  0.64094590  1
  O  O26  1  0.24441093  0.13571744  0.63875952  1
  O  O27  1  0.73355248  0.11482802  0.64134954  1
  O  O28  1  0.32344784  0.50778552  0.64085467  1
  O  O29  1  0.82290060  0.52805091  0.64171122  1
  O  O30  1  0.44556990  0.52175920  0.13704178  1
  O  O31  1  0.94779365  0.52448827  0.13856625  1
  O  O32  1  0.31502770  0.10924879  0.13744417  1
  O  O33  1  0.81722025  0.10804777  0.13879236  1
  O  O34  1  0.23872831  0.36810312  0.13732514  1
  O  O35  1  0.73748207  0.36806238  0.13658880  1
  O  O36  1  0.22146103  0.29838493  0.02900258  1
  O  O37  1  0.72035305  0.29791082  0.02823765  1
  O  O38  1  0.42796420  0.55755010  0.02874350  1
  O  O39  1  0.92715311  0.55259872  0.02985836  1
  O  O40  1  0.35074538  0.14482442  0.02893706  1
  O  O41  1  0.84764720  0.14737410  0.02957356  1
  O  O42  1  0.23029419  0.16169369  0.52927626  1
  O  O43  1  0.72200433  0.14932154  0.53156984  1
  O  O44  1  0.34799164  0.52892631  0.53004058  1
  O  O45  1  0.84851955  0.54541558  0.53177775  1
  O  O46  1  0.41899663  0.30110330  0.52883570  1
  O  O47  1  0.92533828  0.29983984  0.53142322  1
  O  O48  1  0.26865449  0.69799527  0.97032728  1
  O  O49  1  0.76822489  0.69716743  0.97026724  1
  O  O50  1  0.08114781  0.46737399  0.96990853  1
  O  O51  1  0.57998123  0.46394710  0.97177159  1
  O  O52  1  0.14919636  0.84194508  0.97189490  1
  O  O53  1  0.64992663  0.83995350  0.96995583  1
  O  O54  1  0.27176674  0.85360725  0.47319220  1
  O  O55  1  0.77545941  0.84946561  0.46866860  1
  O  O56  1  0.14983392  0.44320566  0.47119761  1
  O  O57  1  0.65286554  0.45683906  0.47148993  1
  O  O58  1  0.07551781  0.69768145  0.46911913  1
  O  O59  1  0.57432141  0.68933070  0.47131222  1
  O  O60  1  0.06059366  0.64535525  0.35910672  1
  O  O61  1  0.56261532  0.63224721  0.36171040  1
  O  O62  1  0.26019794  0.89284617  0.36407605  1
  O  O63  1  0.75606646  0.87052061  0.35911505  1
  O  O64  1  0.18448782  0.47768416  0.36222757  1
  O  O65  1  0.67754655  0.48898797  0.36154753  1
  O  O66  1  0.06206474  0.47846880  0.85968820  1
  O  O67  1  0.56245301  0.48108412  0.86229460  1
  O  O68  1  0.17755364  0.87850704  0.86249568  1
  O  O69  1  0.67722777  0.87996404  0.86001961  1
  O  O70  1  0.26125364  0.64023851  0.86082642  1
  O  O71  1  0.76203860  0.64139340  0.86059641  1
  O  O72  1  0.01372677  0.83976317  0.41016899  1
  O  O73  1  0.50826555  0.81897216  0.40964184  1
  O  O74  1  0.40470358  0.98864017  0.41340978  1
  O  O75  1  0.90645418  0.98193422  0.40641610  1
  O  O76  1  0.08544884  0.18278027  0.40792750  1
  O  O77  1  0.58556435  0.19493923  0.41025018  1
  O  O78  1  0.01842535  0.19531123  0.91265956  1
  O  O79  1  0.51786826  0.19477992  0.91311625  1
  O  O80  1  0.07969831  0.97185409  0.91081580  1
  O  O81  1  0.57956799  0.97097769  0.91010103  1
  O  O82  1  0.40510006  0.83555392  0.91196178  1
  O  O83  1  0.90521213  0.83538284  0.91219389  1
  O  O84  1  0.48443133  0.16544814  0.58941991  1
  O  O85  1  0.99306508  0.16691896  0.59082791  1
  O  O86  1  0.09764436  0.03179349  0.59152696  1
  O  O87  1  0.58872966  0.02071364  0.59254175  1
  O  O88  1  0.41956318  0.79685207  0.58908381  1
  O  O89  1  0.92140444  0.81375776  0.58950181  1
  O  O90  1  0.49506082  0.81877805  0.09198704  1
  O  O91  1  0.99631737  0.81814804  0.09107074  1
  O  O92  1  0.41447767  0.01184019  0.09252575  1
  O  O93  1  0.91617211  0.01753236  0.08875366  1
  O  O94  1  0.09040087  0.17021483  0.09243300  1
  O  O95  1  0.58976468  0.17026847  0.09189817  1
  O  O96  1  0.34771854  0.18697432  0.74082541  1
  O  O97  1  0.84531902  0.17885790  0.74762343  1
  O  O98  1  0.23774240  0.31332851  0.74101316  1
  O  O99  1  0.73209630  0.31000340  0.74539751  1
  O  O100  1  0.41384525  0.53556258  0.74068281  1
  O  O101  1  0.91792656  0.54297783  0.74501786  1
  O  O102  1  0.34623872  0.53186649  0.24166655  1
  O  O103  1  0.84651024  0.51439650  0.24604424  1
  O  O104  1  0.41994719  0.30977706  0.24197060  1
  O  O105  1  0.92081527  0.29851058  0.24382824  1
  O  O106  1  0.23423598  0.16427741  0.24374278  1
  O  O107  1  0.73474160  0.14664369  0.24203177  1
  O  O108  1  0.32454556  0.51050204  0.92478032  1
  O  O109  1  0.82446055  0.51031766  0.92469567  1
  O  O110  1  0.43172904  0.34986513  0.92460791  1
  O  O111  1  0.93240231  0.35101512  0.92372320  1
  O  O112  1  0.24285963  0.13833108  0.92479729  1
  O  O113  1  0.74311189  0.13722668  0.92369181  1
  O  O114  1  0.32283998  0.15003425  0.42764371  1
  O  O115  1  0.82261814  0.13826412  0.41877534  1
  O  O116  1  0.24903659  0.34711501  0.42588322  1
  O  O117  1  0.74796809  0.36135648  0.42020477  1
  O  O118  1  0.42825876  0.49444197  0.42373436  1
  O  O119  1  0.92922494  0.51190796  0.42133733  1
  O  O120  1  0.17239270  0.49623808  0.07361093  1
  O  O121  1  0.67159353  0.49611285  0.07307411  1
  O  O122  1  0.07637720  0.65335491  0.07332061  1
  O  O123  1  0.57619787  0.65601111  0.07352133  1
  O  O124  1  0.25182490  0.84847431  0.07378844  1
  O  O125  1  0.75178180  0.84921715  0.07368680  1
  O  O126  1  0.17911541  0.86967143  0.57871348  1
  O  O127  1  0.66961276  0.85543598  0.57877529  1
  O  O128  1  0.25594326  0.63781637  0.57937612  1
  O  O129  1  0.75679770  0.65647743  0.57948605  1
  O  O130  1  0.07324710  0.49223898  0.57818366  1
  O  O131  1  0.56571793  0.48991627  0.57819490  1
  O  O132  1  0.15006242  0.83831480  0.25483243  1
  O  O133  1  0.64752303  0.82620862  0.25650309  1
  O  O134  1  0.26628847  0.69755318  0.25192720  1
  O  O135  1  0.75374445  0.69432430  0.25988750  1
  O  O136  1  0.08211688  0.47171422  0.25507466  1
  O  O137  1  0.58199469  0.47228331  0.25626818  1
  O  O138  1  0.14966649  0.45733867  0.75511617  1
  O  O139  1  0.64631457  0.45913181  0.75602787  1
  O  O140  1  0.07807377  0.68726498  0.75524527  1
  O  O141  1  0.57641887  0.68657166  0.75551966  1
  O  O142  1  0.25887549  0.82513264  0.75179808  1
  O  O143  1  0.75604262  0.82248962  0.75394148  1
loop_
_geom_bond_atom_site_label_1
_geom_bond_atom_site_label_2
_geom_bond_distance
_geom_bond_site_symmetry_2
Na0 O135 2.250056 1_555
Na0 O105 2.297442 1_565
Na0 O107 2.356397 1_565
Na0 O133 2.522804 1_555
Na0 O33 2.595681 1_565
Na0 O19 2.631801 1_555
Na0 O63 2.659424 1_555
Na0 O5 2.856792 1_565
Na1 O103 2.239549 1_555
Na1 O132 2.312354 1_655
Na1 O136 2.480972 1_655
Na1 O105 2.506782 1_555
Na1 O60 2.562537 1_655
Na1 O31 2.679622 1_555
Na1 O3 2.689224 1_555
Na1 O22 2.819670 1_655
Na2 O142 2.207140 1_555
Na2 O100 2.286982 1_555
Na2 O98 2.475730 1_555
Na2 O138 2.491447 1_555
Na2 O70 2.634771 1_555
Na2 O12 2.678429 1_555
Na2 O28 2.685760 1_555
Na2 O8 2.743932 1_555
Na3 O143 2.252833 1_555
Na3 O101 2.285098 1_555
Na3 O99 2.452220 1_555
Na3 O139 2.518614 1_555
Na3 O29 2.536076 1_555
Na3 O71 2.668378 1_555
Na3 O13 2.675750 1_555
Na3 O9 2.875506 1_555
Na4 O97 2.255178 1_555
Na4 O138 2.317039 1_655
Na4 O140 2.425271 1_655
Na4 O101 2.527474 1_555
Na4 O25 2.581496 1_555
Na4 O66 2.626872 1_655
Na4 O11 2.709872 1_555
Na4 O14 2.856092 1_655
Na5 O143 2.314260 1_555
Na5 O97 2.318378 1_565
Na5 O99 2.375863 1_565
Na5 O141 2.396453 1_555
Na5 O27 2.532910 1_565
Na5 O69 2.615272 1_555
Na5 O17 2.797024 1_555
Na5 O7 2.817915 1_565
Na6 O72 2.465959 1_655
Na6 O89 2.474956 1_555
Na6 O76 2.516363 1_665
Na6 O85 2.518203 1_565
Na6 O75 2.533627 1_555
Na6 O86 2.580224 1_665
Na7 O74 2.446219 1_545
Na7 O77 2.451719 1_555
Na7 O73 2.518882 1_545
Na7 O87 2.535932 1_555
Na7 O84 2.572932 1_555
Na7 O88 2.590484 1_545
Na8 O93 2.458180 1_455
Na8 O78 2.479907 1_554
Na8 O80 2.482948 1_544
Na8 O91 2.497030 1_445
Na8 O83 2.498074 1_444
Na8 O94 2.501222 1_555
Na9 O79 2.476928 1_564
Na9 O82 2.494017 1_554
Na9 O95 2.496219 1_565
Na9 O90 2.499515 1_555
Na9 O81 2.507344 1_554
Na9 O92 2.513722 1_565
Na10 O96 2.385787 1_555
Na10 O110 2.499413 1_555
Na10 O112 2.506691 1_555
Na10 O98 2.653176 1_555
Na10 O100 2.672188 1_555
Na10 O108 2.679506 1_555
Na11 O97 2.388696 1_555
Na11 O113 2.472747 1_555
Na11 O111 2.480924 1_555
Na11 O109 2.562150 1_555
Na11 O99 2.630607 1_555
Na11 O101 2.636945 1_555
Na12 O118 2.518642 1_555
Na12 O106 2.521370 1_555
Na12 O104 2.529631 1_555
Na12 O102 2.544620 1_555
Na12 O116 2.566924 1_555
Na12 O114 2.582210 1_555
Na13 O103 2.355398 1_555
Na13 O117 2.364316 1_555
Na13 O119 2.492629 1_555
Na13 O115 2.529360 1_555
Na13 O107 2.628131 1_555
Na13 O105 2.711066 1_555
Na14 O134 2.393679 1_555
Na14 O124 2.490725 1_555
Na14 O120 2.516127 1_555
Na14 O136 2.545137 1_555
Na14 O132 2.581188 1_555
Na14 O122 2.604536 1_555
Na15 O135 2.445511 1_555
Na15 O137 2.449528 1_555
Na15 O121 2.529223 1_555
Na15 O133 2.546208 1_555
Na15 O123 2.586364 1_555
Na15 O125 2.604992 1_555
Na16 O142 2.338695 1_555
Na16 O126 2.419663 1_555
Na16 O128 2.523799 1_555
Na16 O130 2.556879 1_555
Na16 O140 2.560673 1_555
Na16 O138 2.684613 1_555
Na17 O129 2.426771 1_555
Na17 O143 2.441250 1_555
Na17 O127 2.449182 1_555
Na17 O131 2.511189 1_555
Na17 O139 2.610636 1_555
Na17 O141 2.610935 1_555
Mg0 O4 1.988801 1_565
Mg0 O2 1.991371 1_555
Mg0 O1 1.999970 1_565
Mg0 O77 2.030343 1_565
Mg0 O74 2.044977 1_555
Mg0 O73 2.051780 1_555
Mg1 O25 1.989870 1_555
Mg1 O27 1.991539 1_555
Mg1 O97 1.993262 1_555
Mg1 O29 2.021804 1_555
Mg1 O99 2.165452 1_555
Mg1 O101 2.170049 1_555
Mg2 O102 2.042787 1_555
Mg2 O30 2.043006 1_555
Mg2 O104 2.050688 1_555
Mg2 O34 2.053509 1_555
Mg2 O32 2.062482 1_555
Mg2 O106 2.073322 1_555
Mg3 O103 1.936474 1_555
Mg3 O35 2.000006 1_555
Mg3 O107 2.073157 1_555
Mg3 O31 2.092163 1_555
Mg3 O33 2.137767 1_555
Mg3 O105 2.206358 1_555
Mg4 O40 2.033883 1_556
Mg4 O36 2.036036 1_556
Mg4 O38 2.043962 1_556
Mg4 O108 2.063762 1_555
Mg4 O112 2.073608 1_555
Mg4 O110 2.079353 1_555
Mg5 O41 2.003477 1_556
Mg5 O39 2.037784 1_556
Mg5 O37 2.042228 1_556
Mg5 O109 2.053616 1_555
Mg5 O113 2.080988 1_555
Mg5 O111 2.095467 1_555
Mg6 O45 2.035983 1_555
Mg6 O43 2.066264 1_555
Mg6 O119 2.069268 1_555
Mg6 O47 2.069775 1_555
Mg6 O117 2.074849 1_555
Mg6 O115 2.099417 1_555
Mg7 O54 1.979320 1_555
Mg7 O58 2.005439 1_555
Mg7 O130 2.027125 1_555
Mg7 O56 2.042218 1_555
Mg7 O126 2.140828 1_555
Mg7 O128 2.160430 1_555
Mg8 O57 1.983766 1_555
Mg8 O59 1.996161 1_555
Mg8 O55 2.017447 1_555
Mg8 O129 2.067326 1_555
Mg8 O127 2.077672 1_555
Mg8 O131 2.116947 1_555
Mg9 O62 2.002477 1_555
Mg9 O64 2.025103 1_555
Mg9 O60 2.052630 1_555
Mg9 O134 2.062215 1_555
Mg9 O136 2.147185 1_555
Mg9 O132 2.153504 1_555
Mg10 O142 1.932356 1_555
Mg10 O68 1.947394 1_555
Mg10 O70 2.021162 1_555
Mg10 O66 2.076713 1_555
Mg10 O140 2.079991 1_555
Mg10 O138 2.198669 1_555
Mg11 O143 1.972749 1_555
Mg11 O67 1.977574 1_555
Mg11 O69 2.009746 1_555
Mg11 O71 2.019820 1_555
Mg11 O139 2.082681 1_555
Mg11 O141 2.095025 1_555
Al0 O3 1.743615 1_555
Al0 O72 1.914932 1_655
Al0 O0 1.932980 1_665
Al0 O75 1.949438 1_555
Al0 O5 1.968415 1_565
Al0 O76 2.009581 1_665
Al1 O11 1.750857 1_555
Al1 O9 1.956657 1_545
Al1 O78 1.974448 1_655
Al1 O6 1.990713 1_655
Al1 O83 1.993371 1_545
Al1 O80 1.999006 1_645
Al2 O10 1.733197 1_555
Al2 O7 1.948052 1_555
Al2 O79 1.950302 1_555
Al2 O82 1.972534 1_545
Al2 O8 2.062447 1_545
Al2 O81 2.074892 1_545
Al3 O13 1.748313 1_555
Al3 O89 1.903592 1_555
Al3 O85 1.915475 1_565
Al3 O16 1.960500 1_655
Al3 O14 1.965552 1_665
Al3 O86 2.040589 1_665
Al4 O12 1.729950 1_555
Al4 O87 1.920411 1_565
Al4 O15 1.954683 1_565
Al4 O17 1.974237 1_555
Al4 O84 1.986985 1_565
Al4 O88 1.998658 1_555
Al5 O19 1.762871 1_555
Al5 O20 1.927614 1_665
Al5 O22 1.936157 1_655
Al5 O93 1.981501 1_565
Al5 O91 1.992336 1_555
Al5 O94 2.031012 1_665
Al6 O18 1.858135 1_545
Al6 O23 1.904535 1_545
Al6 O21 1.910353 1_555
Al6 O95 1.965779 1_555
Al6 O92 1.971165 1_555
Al6 O90 1.993920 1_545
Al7 O96 1.752853 1_555
Al7 O26 1.855500 1_555
Al7 O24 1.861767 1_555
Al7 O28 1.979662 1_555
Al7 O98 2.042452 1_555
Al7 O100 2.071558 1_555
Al8 O114 1.880549 1_555
Al8 O44 1.918582 1_555
Al8 O46 1.930231 1_555
Al8 O116 1.935920 1_555
Al8 O42 1.947742 1_555
Al8 O118 1.966001 1_555
Al9 O50 1.917037 1_554
Al9 O48 1.921080 1_554
Al9 O122 1.937297 1_555
Al9 O52 1.941515 1_554
Al9 O124 1.950628 1_555
Al9 O120 1.957348 1_555
Al10 O51 1.905907 1_554
Al10 O123 1.931785 1_555
Al10 O49 1.937956 1_554
Al10 O53 1.939427 1_554
Al10 O121 1.945963 1_555
Al10 O125 1.961733 1_555
Al11 O135 1.808073 1_555
Al11 O65 1.847436 1_555
Al11 O137 1.967650 1_555
Al11 O61 1.980735 1_555
Al11 O63 1.985549 1_555
Al11 O133 2.080888 1_555
O0 S0 1.481308 1_555
O1 S1 1.451541 1_545
O2 S2 1.461875 1_555
O3 Si0 1.626121 1_555
O4 S4 1.455600 1_555
O5 S3 1.479013 1_655
O6 S5 1.481115 1_555
O7 S6 1.494856 1_555
O8 S8 1.487628 1_555
O9 S7 1.485768 1_655
O10 Si1 1.638314 1_555
O11 Si2 1.638671 1_555
O12 Si1 1.637235 1_565
O13 Si2 1.627250 1_565
O14 S5 1.475557 1_555
O15 S6 1.473195 1_555
O16 S7 1.477215 1_555
O17 S8 1.486555 1_555
O18 S2 1.505707 1_555
O19 Si0 1.650179 1_555
O20 S3 1.482908 1_555
O21 S4 1.505509 1_555
O22 S0 1.498595 1_565
O23 S1 1.493740 1_555
O24 S9 1.487650 1_555
O25 S10 1.483574 1_555
O26 S11 1.487938 1_555
O27 S12 1.483232 1_555
O28 S13 1.502503 1_555
O29 S14 1.485971 1_555
O30 S15 1.464351 1_555
O31 S16 1.477400 1_555
O32 S17 1.465204 1_555
O33 S18 1.478731 1_555
O34 S19 1.465846 1_555
O35 S20 1.463554 1_555
O36 S19 1.467758 1_555
O37 S20 1.465191 1_555
O38 S15 1.466629 1_555
O39 S16 1.463724 1_555
O40 S17 1.466946 1_555
O41 S18 1.461050 1_555
O42 S11 1.484771 1_555
O43 S12 1.459969 1_555
O44 S13 1.487759 1_555
O45 S14 1.457123 1_555
O46 S9 1.486286 1_555
O47 S10 1.462149 1_555
O48 S21 1.495337 1_555
O49 S22 1.494026 1_555
O50 S23 1.490593 1_555
O51 S24 1.495015 1_555
O52 S25 1.496932 1_555
O53 S26 1.495354 1_555
O54 S27 1.463851 1_555
O55 S28 1.460353 1_555
O56 S29 1.465426 1_555
O57 S30 1.462091 1_555
O58 S31 1.464058 1_555
O59 S32 1.456133 1_555
O60 S31 1.486185 1_555
O61 S32 1.495805 1_555
O62 S27 1.470233 1_555
O63 S28 1.503533 1_555
O64 S29 1.469993 1_555
O65 S30 1.499313 1_555
O66 S23 1.473849 1_555
O67 S24 1.459034 1_555
O68 S25 1.458738 1_555
O69 S26 1.471754 1_555
O70 S21 1.470593 1_555
O71 S22 1.471544 1_555
O72 S31 1.505880 1_555
O73 S32 1.472879 1_555
O74 S27 1.472120 1_555
O75 S28 1.501293 1_555
O76 S29 1.495983 1_555
O77 S30 1.474559 1_555
O78 S23 1.503240 1_555
O79 S24 1.506700 1_555
O80 S25 1.507541 1_555
O81 S26 1.500278 1_555
O82 S21 1.503515 1_555
O83 S22 1.499226 1_555
O84 S9 1.494062 1_555
O85 S10 1.507174 1_555
O86 S11 1.488871 1_555
O87 S12 1.516798 1_555
O88 S13 1.490496 1_555
O89 S14 1.511580 1_555
O90 S15 1.501049 1_555
O91 S16 1.497196 1_555
O92 S17 1.501861 1_555
O93 S18 1.496577 1_555
O94 S19 1.498240 1_555
O95 S20 1.502260 1_555
O96 Si1 1.633722 1_555
O97 Si2 1.633709 1_555
O98 S5 1.488419 1_555
O99 S6 1.494158 1_555
O100 S8 1.490030 1_555
O101 S7 1.494084 1_655
O102 S2 1.470862 1_555
O103 Si0 1.610190 1_555
O104 S4 1.469071 1_555
O105 S3 1.492276 1_655
O106 S0 1.460859 1_555
O107 S1 1.482514 1_545
O108 S21 1.467373 1_555
O109 S22 1.471436 1_555
O110 S24 1.468543 1_555
O111 S23 1.471781 1_655
O112 S25 1.469480 1_545
O113 S26 1.472320 1_545
O114 S27 1.511699 1_545
O115 S28 1.475381 1_545
O116 S29 1.509778 1_555
O117 S30 1.476005 1_555
O118 S32 1.515630 1_555
O119 S31 1.471717 1_655
O120 S19 1.512106 1_555
O121 S20 1.505147 1_555
O122 S16 1.504274 1_455
O123 S15 1.509608 1_555
O124 S17 1.508233 1_565
O125 S18 1.506167 1_565
O126 S11 1.468775 1_565
O127 S12 1.472152 1_565
O128 S13 1.466444 1_555
O129 S14 1.475319 1_555
O130 S10 1.475099 1_455
O131 S9 1.462065 1_555
O132 S0 1.489745 1_565
O133 S1 1.500624 1_555
O134 S2 1.481098 1_555
O135 Si0 1.645798 1_555
O136 S3 1.475244 1_555
O137 S4 1.497076 1_555
O138 S5 1.489006 1_555
O139 S6 1.466497 1_555
O140 S7 1.469983 1_555
O141 S8 1.468061 1_555
O142 Si1 1.626388 1_565
O143 Si2 1.631397 1_565
