# generated using pymatgen
data_K2MgH8(SO6)2
_symmetry_space_group_name_H-M   'P 1'
_cell_length_a   9.62058400
_cell_length_b   10.01633200
_cell_length_c   11.85834158
_cell_angle_alpha   84.39408849
_cell_angle_beta   90.00000000
_cell_angle_gamma   90.00000000
_symmetry_Int_Tables_number   1
_chemical_formula_structural   K2MgH8(SO6)2
_chemical_formula_sum   'K8 Mg4 H32 S8 O48'
_cell_volume   1137.23975040
_cell_formula_units_Z   4
loop_
 _symmetry_equiv_pos_site_id
 _symmetry_equiv_pos_as_xyz
  1  'x, y, z'
loop_
 _atom_site_type_symbol
 _atom_site_label
 _atom_site_symmetry_multiplicity
 _atom_site_fract_x
 _atom_site_fract_y
 _atom_site_fract_z
 _atom_site_occupancy
  K  K0  1  0.75820700  0.74088800  0.66685300  1
  K  K1  1  0.25820700  0.25911200  0.83314700  1
  K  K2  1  0.24179300  0.25911200  0.33314700  1
  K  K3  1  0.74179300  0.74088800  0.16685300  1
  K  K4  1  0.23093600  0.76043500  0.66597900  1
  K  K5  1  0.73093600  0.23956500  0.83402100  1
  K  K6  1  0.76906400  0.23956500  0.33402100  1
  K  K7  1  0.26906400  0.76043500  0.16597900  1
  Mg  Mg0  1  0.50000000  0.00000000  0.50000000  1
  Mg  Mg1  1  0.00000000  0.00000000  0.00000000  1
  Mg  Mg2  1  0.50000000  0.50000000  0.00000000  1
  Mg  Mg3  1  0.00000000  0.50000000  0.50000000  1
  H  H0  1  0.51384900  0.27379500  0.44570800  1
  H  H1  1  0.01384900  0.72620500  0.05429200  1
  H  H2  1  0.48615100  0.72620500  0.55429200  1
  H  H3  1  0.98615100  0.27379500  0.94570800  1
  H  H4  1  0.48100800  0.26438900  0.57558900  1
  H  H5  1  0.98100800  0.73561100  0.92441100  1
  H  H6  1  0.51899200  0.73561100  0.42441100  1
  H  H7  1  0.01899200  0.26438900  0.07558900  1
  H  H8  1  0.22059400  0.04642900  0.55355000  1
  H  H9  1  0.72059400  0.95357100  0.94645000  1
  H  H10  1  0.77940600  0.95357100  0.44645000  1
  H  H11  1  0.27940600  0.04642900  0.05355000  1
  H  H12  1  0.22135300  0.96616100  0.44148000  1
  H  H13  1  0.72135300  0.03383900  0.05852000  1
  H  H14  1  0.77864700  0.03383900  0.55852000  1
  H  H15  1  0.27864700  0.96616100  0.94148000  1
  H  H16  1  0.13509600  0.27115000  0.58947200  1
  H  H17  1  0.63509600  0.72885000  0.91052800  1
  H  H18  1  0.86490400  0.72885000  0.41052800  1
  H  H19  1  0.36490400  0.27115000  0.08947200  1
  H  H20  1  0.75436800  0.61088700  0.42003300  1
  H  H21  1  0.25436800  0.38911300  0.07996700  1
  H  H22  1  0.13644100  0.72763200  0.41929300  1
  H  H23  1  0.63644100  0.27236800  0.08070700  1
  H  H24  1  0.86355900  0.27236800  0.58070700  1
  H  H25  1  0.36355900  0.72763200  0.91929300  1
  H  H26  1  0.23645000  0.60326700  0.42021900  1
  H  H27  1  0.73645000  0.39673300  0.07978100  1
  H  H28  1  0.76355000  0.39673300  0.57978100  1
  H  H29  1  0.26355000  0.60326700  0.92021900  1
  H  H30  1  0.24563200  0.38911300  0.57996700  1
  H  H31  1  0.74563200  0.61088700  0.92003300  1
  S  S0  1  0.50683500  0.47842300  0.70916900  1
  S  S1  1  0.49499400  0.95418600  0.79565800  1
  S  S2  1  0.00500600  0.95418600  0.29565800  1
  S  S3  1  0.50500600  0.04581400  0.20434200  1
  S  S4  1  0.99316500  0.47842300  0.20916900  1
  S  S5  1  0.49316500  0.52157700  0.29083100  1
  S  S6  1  0.99499400  0.04581400  0.70434200  1
  S  S7  1  0.00683500  0.52157700  0.79083100  1
  O  O0  1  0.84645300  0.45262600  0.17800000  1
  O  O1  1  0.34645300  0.54737400  0.32200000  1
  O  O2  1  0.15354700  0.54737400  0.82200000  1
  O  O3  1  0.65354700  0.45262600  0.67800000  1
  O  O4  1  0.01107800  0.94188000  0.17188300  1
  O  O5  1  0.51107800  0.05812000  0.32811700  1
  O  O6  1  0.98892200  0.05812000  0.82811700  1
  O  O7  1  0.48892200  0.94188000  0.67188300  1
  O  O8  1  0.50573900  0.90470700  0.17966400  1
  O  O9  1  0.00573900  0.09529300  0.32033600  1
  O  O10  1  0.49426100  0.09529300  0.82033600  1
  O  O11  1  0.99426100  0.90470700  0.67966400  1
  O  O12  1  0.51164400  0.56171900  0.16677700  1
  O  O13  1  0.01164400  0.43828100  0.33322300  1
  O  O14  1  0.48835600  0.43828100  0.83322300  1
  O  O15  1  0.98835600  0.56171900  0.66677700  1
  O  O16  1  0.02532900  0.62324900  0.18247600  1
  O  O17  1  0.52532900  0.37675100  0.31752400  1
  O  O18  1  0.41042600  0.39361000  0.64663800  1
  O  O19  1  0.47467100  0.62324900  0.68247600  1
  O  O20  1  0.34125000  0.64012900  0.96337600  1
  O  O21  1  0.84125000  0.35987100  0.53662400  1
  O  O22  1  0.65875000  0.35987100  0.03662400  1
  O  O23  1  0.15875000  0.64012900  0.46337600  1
  O  O24  1  0.34205000  0.35902300  0.04618400  1
  O  O25  1  0.84204900  0.64097700  0.45381600  1
  O  O26  1  0.91042600  0.60639000  0.85336200  1
  O  O27  1  0.15795000  0.35902300  0.54618400  1
  O  O28  1  0.21892600  0.01215900  0.99470000  1
  O  O29  1  0.71892600  0.98784100  0.50530000  1
  O  O30  1  0.78107400  0.98784100  0.00530000  1
  O  O31  1  0.28107400  0.01215900  0.49470000  1
  O  O32  1  0.99021200  0.20891900  0.01454300  1
  O  O33  1  0.49021200  0.79108100  0.48545700  1
  O  O34  1  0.00978800  0.79108100  0.98545700  1
  O  O35  1  0.50978800  0.20891900  0.51454300  1
  O  O36  1  0.58957400  0.60639000  0.35336200  1
  O  O37  1  0.08957400  0.39361000  0.14663800  1
  O  O38  1  0.12530900  0.11456900  0.65804500  1
  O  O39  1  0.62530900  0.88543100  0.84195500  1
  O  O40  1  0.87469100  0.88543100  0.34195500  1
  O  O41  1  0.37469100  0.11456900  0.15804500  1
  O  O42  1  0.12943300  0.88239700  0.34966800  1
  O  O43  1  0.62943300  0.11760300  0.15033200  1
  O  O44  1  0.87056700  0.11760300  0.65033200  1
  O  O45  1  0.37056700  0.88239700  0.84966800  1
  O  O46  1  0.65795000  0.64097700  0.95381600  1
  O  O47  1  0.97467100  0.37675100  0.81752400  1
loop_
_geom_bond_atom_site_label_1
_geom_bond_atom_site_label_2
_geom_bond_distance
_geom_bond_site_symmetry_2
K0 O11 2.814526 1_555
K0 O15 2.850176 1_555
K0 O26 2.875570 1_555
K0 O25 2.920282 1_555
K0 O39 2.937627 1_555
K0 O19 2.969997 1_555
K0 O29 3.000936 1_555
K0 O3 3.048507 1_555
K1 O10 2.814526 1_555
K1 O14 2.850176 1_555
K1 O18 2.875570 1_555
K1 O24 2.920284 1_556
K1 O38 2.937627 1_555
K1 O47 2.969997 1_455
K1 O28 3.000936 1_555
K1 O2 3.048507 1_555
K2 O9 2.814526 1_555
K2 O13 2.850176 1_555
K2 O37 2.875570 1_555
K2 O27 2.920284 1_555
K2 O41 2.937627 1_555
K2 O17 2.969997 1_555
K2 O31 3.000936 1_555
K2 O1 3.048507 1_555
K3 O8 2.814526 1_555
K3 O12 2.850176 1_555
K3 O36 2.875570 1_555
K3 O46 2.920284 1_554
K3 O40 2.937627 1_555
K3 O16 2.969997 1_655
K3 O30 3.000936 1_555
K3 O0 3.048507 1_555
K4 O11 2.710149 1_455
K4 O19 2.715204 1_555
K4 O2 2.785734 1_555
K4 O23 2.876139 1_555
K4 O45 2.926006 1_555
K4 O15 3.066686 1_455
K4 O7 3.081064 1_555
K5 O10 2.710149 1_555
K5 O47 2.715204 1_555
K5 O3 2.785734 1_555
K5 O22 2.876139 1_556
K5 O44 2.926006 1_555
K5 O14 3.066686 1_555
K5 O6 3.081064 1_555
K6 O9 2.710149 1_655
K6 O17 2.715204 1_555
K6 O0 2.785734 1_555
K6 O21 2.876139 1_555
K6 O43 2.926006 1_555
K6 O13 3.066686 1_655
K6 O5 3.081064 1_555
K7 O8 2.710149 1_555
K7 O16 2.715204 1_555
K7 O1 2.785734 1_555
K7 O20 2.876139 1_554
K7 O42 2.926006 1_555
K7 O12 3.066686 1_555
K7 O4 3.081064 1_555
Mg0 O5 2.067097 1_555
Mg0 O7 2.067097 1_545
Mg0 O29 2.110296 1_545
Mg0 O31 2.110296 1_555
Mg0 O33 2.118513 1_545
Mg0 O35 2.118513 1_555
Mg1 O4 2.067097 1_545
Mg1 O6 2.067097 1_454
Mg1 O30 2.110296 1_445
Mg1 O28 2.110296 1_554
Mg1 O34 2.118513 1_544
Mg1 O32 2.118513 1_455
Mg2 O22 2.090957 1_555
Mg2 O20 2.090957 1_554
Mg2 O24 2.109951 1_555
Mg2 O46 2.109951 1_554
Mg2 O14 2.131871 1_554
Mg2 O12 2.131871 1_555
Mg3 O21 2.090957 1_455
Mg3 O23 2.090957 1_555
Mg3 O27 2.109951 1_555
Mg3 O25 2.109958 1_455
Mg3 O15 2.131871 1_455
Mg3 O13 2.131871 1_555
H0 O35 0.993205 1_555
H0 K6 2.826473 1_555
H0 K2 2.948236 1_555
H1 O34 0.993205 1_554
H1 K7 2.826473 1_555
H1 K3 2.948236 1_455
H2 O33 0.993205 1_555
H2 K4 2.826473 1_555
H2 K0 2.948236 1_555
H3 O32 0.993205 1_556
H3 K5 2.826473 1_555
H3 K1 2.948236 1_655
H4 O35 0.993971 1_555
H5 O34 0.993971 1_655
H6 O33 0.993971 1_555
H7 O32 0.993971 1_455
H8 O31 0.995085 1_555
H8 O38 1.734027 1_555
H9 O30 0.995085 1_556
H9 O39 1.734027 1_555
H10 O29 0.995085 1_555
H10 O40 1.734027 1_555
H11 O28 0.995085 1_554
H11 O41 1.734027 1_555
H12 O31 0.998738 1_565
H12 O42 1.688129 1_555
H13 O30 0.998738 1_545
H13 O43 1.688129 1_555
H14 O29 0.998738 1_545
H14 O44 1.688129 1_555
H15 O28 0.998738 1_565
H15 O45 1.688129 1_555
H16 O27 0.999132 1_555
H16 O38 1.697265 1_555
H17 O46 0.999132 1_555
H17 O39 1.697265 1_555
H18 O25 0.999134 1_555
H18 O40 1.697265 1_555
H19 O24 0.999132 1_555
H19 O41 1.697265 1_555
H20 O25 0.993216 1_555
H21 O24 0.993224 1_555
H22 O23 0.999000 1_555
H22 O42 1.684999 1_555
H23 O22 0.999000 1_555
H23 O43 1.684999 1_555
H24 O21 0.999000 1_555
H24 O44 1.684999 1_555
H25 O20 0.999000 1_555
H25 O45 1.684999 1_555
H26 O23 0.996963 1_555
H27 O22 0.996963 1_555
H28 O21 0.996963 1_555
H29 O20 0.996963 1_555
H30 O27 0.993224 1_555
H31 O46 0.993224 1_555
O0 S4 1.488034 1_555
O1 S5 1.488034 1_555
O2 S7 1.488034 1_555
O3 S0 1.488034 1_555
O4 S2 1.486032 1_555
O5 S3 1.486032 1_555
O6 S6 1.486032 1_555
O7 S1 1.486032 1_555
O8 S3 1.471096 1_565
O9 S2 1.471096 1_545
O10 S1 1.471096 1_545
O11 S6 1.471096 1_565
O12 S5 1.497255 1_555
O13 S4 1.497255 1_455
O14 S0 1.497255 1_555
O15 S7 1.497255 1_655
O16 S4 1.486792 1_455
O17 S5 1.486792 1_555
O18 S0 1.501621 1_555
O19 S0 1.486792 1_555
O26 S7 1.501621 1_655
O36 S5 1.501621 1_555
O37 S4 1.501621 1_455
O38 S6 1.507843 1_455
O39 S1 1.507843 1_555
O40 S2 1.507843 1_655
O41 S3 1.507843 1_555
O42 S2 1.506728 1_555
O43 S3 1.506728 1_555
O44 S6 1.506728 1_555
O45 S1 1.506728 1_555
O47 S7 1.486792 1_655
