# generated using pymatgen
data_NaHf2Ga2P3(SO8)3
_symmetry_space_group_name_H-M   'P 1'
_cell_length_a   8.67886849
_cell_length_b   8.70004404
_cell_length_c   22.56326373
_cell_angle_alpha   90.22444163
_cell_angle_beta   89.38190660
_cell_angle_gamma   120.04799504
_symmetry_Int_Tables_number   1
_chemical_formula_structural   NaHf2Ga2P3(SO8)3
_chemical_formula_sum   'Na3 Hf6 Ga6 P9 S9 O72'
_cell_volume   1474.62285011
_cell_formula_units_Z   3
loop_
 _symmetry_equiv_pos_site_id
 _symmetry_equiv_pos_as_xyz
  1  'x, y, z'
loop_
 _atom_site_type_symbol
 _atom_site_label
 _atom_site_symmetry_multiplicity
 _atom_site_fract_x
 _atom_site_fract_y
 _atom_site_fract_z
 _atom_site_occupancy
  Na  Na0  1  0.68169186  0.33585884  0.83469756  1
  Na  Na1  1  0.66192019  0.34231954  0.32954193  1
  Na  Na2  1  0.35064680  0.67755866  0.17370711  1
  Hf  Hf0  1  0.00491379  0.99241442  0.35518443  1
  Hf  Hf1  1  0.99255036  0.00171383  0.85503182  1
  Hf  Hf2  1  0.99385001  0.99287710  0.64801090  1
  Hf  Hf3  1  0.00048088  0.99876523  0.14472116  1
  Hf  Hf4  1  0.33464154  0.66383169  0.02333404  1
  Hf  Hf5  1  0.32873642  0.66346647  0.52076374  1
  Ga  Ga0  1  0.67451526  0.33234008  0.69016436  1
  Ga  Ga1  1  0.64435984  0.32551265  0.18731984  1
  Ga  Ga2  1  0.67195492  0.32365399  0.98374218  1
  Ga  Ga3  1  0.66462725  0.34208543  0.47560149  1
  Ga  Ga4  1  0.33409570  0.66274918  0.31409774  1
  Ga  Ga5  1  0.31939129  0.66888778  0.81093917  1
  P  P0  1  0.29901744  0.99394754  0.24999973  1
  P  P1  1  0.70023639  0.69856072  0.25021103  1
  P  P2  1  0.99692151  0.70034397  0.75065865  1
  P  P3  1  0.69423724  0.99512765  0.75147225  1
  P  P4  1  0.66631214  0.05511129  0.08517073  1
  P  P5  1  0.39095116  0.33324059  0.08229937  1
  P  P6  1  0.03870366  0.38880341  0.91489847  1
  P  P7  1  0.34224061  0.38344307  0.41447531  1
  P  P8  1  0.04018951  0.65210807  0.41510057  1
  S  S0  1  0.99817362  0.29666565  0.25024824  1
  S  S1  1  0.29852463  0.29757826  0.74959785  1
  S  S2  1  0.94272885  0.32997178  0.58306177  1
  S  S3  1  0.39229045  0.06006900  0.58371353  1
  S  S4  1  0.66615050  0.61039518  0.58430108  1
  S  S5  1  0.94467273  0.61133443  0.08413217  1
  S  S6  1  0.61515508  0.65239013  0.91427102  1
  S  S7  1  0.34334406  0.96323661  0.91485820  1
  S  S8  1  0.61990692  0.96426769  0.41627860  1
  O  O0  1  0.20688514  0.02187574  0.30520428  1
  O  O1  1  0.81549010  0.79342758  0.30528714  1
  O  O2  1  0.97395096  0.18638832  0.30343828  1
  O  O3  1  0.21363205  0.18043605  0.80190173  1
  O  O4  1  0.96713570  0.79352229  0.80443343  1
  O  O5  1  0.82277001  0.03455159  0.80420869  1
  O  O6  1  0.78930489  0.97219154  0.69554778  1
  O  O7  1  0.18586645  0.20993030  0.69651084  1
  O  O8  1  0.02328270  0.81880839  0.69508509  1
  O  O9  1  0.79142598  0.81623985  0.19510715  1
  O  O10  1  0.02343783  0.20956712  0.19696854  1
  O  O11  1  0.18475935  0.97278067  0.19521860  1
  O  O12  1  0.86744867  0.36282538  0.63716189  1
  O  O13  1  0.49919114  0.13775267  0.63704221  1
  O  O14  1  0.63475232  0.50187286  0.63747812  1
  O  O15  1  0.86837228  0.50380180  0.13718743  1
  O  O16  1  0.63378296  0.13785126  0.13987962  1
  O  O17  1  0.50347911  0.37627764  0.13768676  1
  O  O18  1  0.47425740  0.31112612  0.02506135  1
  O  O19  1  0.84677134  0.53818073  0.02903679  1
  O  O20  1  0.70089436  0.15817739  0.02692204  1
  O  O21  1  0.47052918  0.16674827  0.52986367  1
  O  O22  1  0.70009116  0.53643925  0.53032890  1
  O  O23  1  0.83556565  0.30009351  0.53018766  1
  O  O24  1  0.53646811  0.68399880  0.96858204  1
  O  O25  1  0.15218882  0.47450876  0.97033407  1
  O  O26  1  0.31687300  0.85603101  0.96868415  1
  O  O27  1  0.53850090  0.85448136  0.47082294  1
  O  O28  1  0.31912177  0.47067058  0.47201684  1
  O  O29  1  0.15339044  0.68386900  0.47181777  1
  O  O30  1  0.12968041  0.62545711  0.36085475  1
  O  O31  1  0.50913359  0.88446093  0.36408018  1
  O  O32  1  0.37968651  0.50464531  0.36111159  1
  O  O33  1  0.12640500  0.50287453  0.85939129  1
  O  O34  1  0.37541372  0.88263240  0.86197051  1
  O  O35  1  0.50702780  0.62898615  0.86191182  1
  O  O36  1  0.01786249  0.81638486  0.40914282  1
  O  O37  1  0.79694873  0.98251808  0.40987396  1
  O  O38  1  0.17219230  0.20291026  0.40719154  1
  O  O39  1  0.02197793  0.20398914  0.90611019  1
  O  O40  1  0.18029033  0.97640280  0.90738885  1
  O  O41  1  0.79459964  0.81574742  0.90874133  1
  O  O42  1  0.96614950  0.17345959  0.59129629  1
  O  O43  1  0.21228317  0.03960426  0.59179020  1
  O  O44  1  0.82686228  0.79032092  0.59138842  1
  O  O45  1  0.96653510  0.79064292  0.09015165  1
  O  O46  1  0.82740617  0.02878204  0.09416470  1
  O  O47  1  0.20606649  0.16802438  0.09121242  1
  O  O48  1  0.67453224  0.16079394  0.74379516  1
  O  O49  1  0.47428693  0.31209945  0.74215763  1
  O  O50  1  0.82592627  0.51773846  0.74362542  1
  O  O51  1  0.68945768  0.51674730  0.24426637  1
  O  O52  1  0.84013664  0.31529568  0.24454055  1
  O  O53  1  0.48423112  0.16174131  0.24633463  1
  O  O54  1  0.63735507  0.49700643  0.92120292  1
  O  O55  1  0.85144706  0.36669418  0.92227648  1
  O  O56  1  0.49925240  0.14332425  0.92063028  1
  O  O57  1  0.63850849  0.14111406  0.42479437  1
  O  O58  1  0.50457795  0.35729444  0.42210995  1
  O  O59  1  0.85638739  0.48435396  0.42321611  1
  O  O60  1  0.36270256  0.49733174  0.07583452  1
  O  O61  1  0.12912347  0.63727563  0.07825439  1
  O  O62  1  0.49696596  0.86698298  0.07802628  1
  O  O63  1  0.37119012  0.88053956  0.57623660  1
  O  O64  1  0.51013354  0.63488835  0.57722400  1
  O  O65  1  0.12337421  0.48978689  0.57652540  1
  O  O66  1  0.31178324  0.82500658  0.25738790  1
  O  O67  1  0.51440458  0.67984603  0.25681864  1
  O  O68  1  0.16158816  0.47212255  0.25443984  1
  O  O69  1  0.31430985  0.47103932  0.75709592  1
  O  O70  1  0.16224655  0.68468929  0.75631544  1
  O  O71  1  0.51847200  0.82672175  0.76183982  1
loop_
_geom_bond_atom_site_label_1
_geom_bond_atom_site_label_2
_geom_bond_distance
_geom_bond_site_symmetry_2
Na0 O55 2.410439 1_555
Na0 O50 2.505936 1_555
Na0 O56 2.524960 1_555
Na0 O48 2.532575 1_555
Na0 O54 2.534946 1_555
Na0 O49 2.710667 1_555
Na1 O51 2.389959 1_555
Na1 O53 2.446258 1_555
Na1 O58 2.521628 1_555
Na1 O52 2.534289 1_555
Na1 O59 2.609728 1_555
Na1 O57 2.718174 1_555
Na2 O67 2.359197 1_555
Na2 O66 2.392678 1_555
Na2 O68 2.495809 1_555
Na2 O62 2.619572 1_555
Na2 O60 2.734666 1_555
Na2 O61 2.804691 1_555
Hf0 O0 1.979826 1_565
Hf0 O36 2.007531 1_555
Hf0 O1 2.035122 1_455
Hf0 O38 2.048362 1_565
Hf0 O37 2.141245 1_455
Hf0 O2 2.181673 1_465
Hf1 O5 2.007094 1_555
Hf1 O39 2.007671 1_655
Hf1 O4 2.054728 1_545
Hf1 O41 2.055382 1_545
Hf1 O40 2.121745 1_645
Hf1 O3 2.124514 1_655
Hf2 O8 1.972991 1_655
Hf2 O6 1.993672 1_555
Hf2 O44 2.074309 1_555
Hf2 O7 2.100547 1_665
Hf2 O43 2.132757 1_665
Hf2 O42 2.136413 1_565
Hf3 O46 2.014413 1_465
Hf3 O47 2.036139 1_565
Hf3 O9 2.047035 1_455
Hf3 O11 2.076192 1_555
Hf3 O45 2.082665 1_455
Hf3 O10 2.101222 1_565
Hf4 O60 1.983386 1_555
Hf4 O25 2.015920 1_554
Hf4 O62 2.039168 1_555
Hf4 O24 2.066975 1_554
Hf4 O61 2.076601 1_555
Hf4 O26 2.149144 1_554
Hf5 O29 1.968595 1_555
Hf5 O28 1.969143 1_555
Hf5 O27 2.070350 1_555
Hf5 O65 2.076606 1_555
Hf5 O63 2.136252 1_555
Hf5 O64 2.144981 1_555
Ga0 O50 1.918292 1_555
Ga0 O48 1.925127 1_555
Ga0 O12 1.954185 1_555
Ga0 O13 2.015365 1_555
Ga0 O49 2.019465 1_555
Ga0 O14 2.059139 1_555
Ga1 O17 1.875732 1_555
Ga1 O16 1.912622 1_555
Ga1 O53 1.930411 1_555
Ga1 O51 1.978432 1_555
Ga1 O15 2.100374 1_555
Ga1 O52 2.182039 1_555
Ga2 O20 1.860990 1_556
Ga2 O18 1.898419 1_556
Ga2 O55 1.965608 1_555
Ga2 O19 2.003125 1_556
Ga2 O56 2.099851 1_555
Ga2 O54 2.198930 1_555
Ga3 O59 1.898675 1_555
Ga3 O58 1.903985 1_555
Ga3 O22 1.987282 1_555
Ga3 O57 2.003910 1_555
Ga3 O21 2.015042 1_555
Ga3 O23 2.106432 1_555
Ga4 O32 1.933750 1_555
Ga4 O30 1.936892 1_555
Ga4 O67 1.966225 1_555
Ga4 O66 1.990169 1_555
Ga4 O68 2.084064 1_555
Ga4 O31 2.094205 1_555
Ga5 O70 1.903508 1_555
Ga5 O33 1.907038 1_555
Ga5 O71 1.921666 1_555
Ga5 O34 2.027340 1_555
Ga5 O69 2.085538 1_555
Ga5 O35 2.169069 1_555
O0 P0 1.555834 1_545
O1 P1 1.555008 1_555
O2 S0 1.485465 1_555
O3 S1 1.487591 1_555
O4 P2 1.546467 1_555
O5 P3 1.555691 1_545
O6 P3 1.566287 1_555
O7 S1 1.497891 1_555
O8 P2 1.566744 1_455
O9 P1 1.548449 1_555
O10 S0 1.490317 1_455
O11 P0 1.544936 1_555
O12 S2 1.471626 1_555
O13 S3 1.468049 1_555
O14 S4 1.466109 1_555
O15 S5 1.455352 1_555
O16 P4 1.520093 1_555
O17 P5 1.520605 1_555
O18 P5 1.531299 1_555
O19 S5 1.465407 1_555
O20 P4 1.533837 1_555
O21 S3 1.469242 1_555
O22 S4 1.469590 1_555
O23 S2 1.461249 1_555
O24 S6 1.486963 1_555
O25 P6 1.540903 1_555
O26 S7 1.478495 1_555
O27 S8 1.496907 1_555
O28 P7 1.562356 1_555
O29 P8 1.559409 1_555
O30 P8 1.520753 1_555
O31 S8 1.463907 1_555
O32 P7 1.524989 1_555
O33 P6 1.538021 1_555
O34 S7 1.474783 1_555
O35 S6 1.465766 1_555
O36 P8 1.541975 1_555
O37 S8 1.469035 1_555
O38 P7 1.534225 1_555
O39 P6 1.552447 1_555
O40 S7 1.487186 1_555
O41 S6 1.497151 1_555
O42 S2 1.486587 1_555
O43 S3 1.490343 1_555
O44 S4 1.495898 1_555
O45 S5 1.480032 1_555
O46 P4 1.541293 1_555
O47 P5 1.538433 1_555
O48 P3 1.544684 1_545
O49 S1 1.474005 1_555
O50 P2 1.547089 1_555
O51 P1 1.542468 1_555
O52 S0 1.466526 1_555
O53 P0 1.539441 1_545
O54 S6 1.467043 1_555
O55 P6 1.545077 1_655
O56 S7 1.477075 1_545
O57 S8 1.476411 1_545
O58 P7 1.546921 1_555
O59 P8 1.540293 1_655
O60 P5 1.572366 1_555
O61 S5 1.504992 1_455
O62 P4 1.568112 1_565
O63 S3 1.487861 1_565
O64 S4 1.482649 1_555
O65 S2 1.492160 1_455
O66 P0 1.538101 1_555
O67 P1 1.543347 1_555
O68 S0 1.477911 1_455
O69 S1 1.454745 1_555
O70 P2 1.514391 1_455
O71 P3 1.511651 1_555
