# generated using pymatgen
data_MgRe2NiO8
_symmetry_space_group_name_H-M   'P 1'
_cell_length_a   5.41248900
_cell_length_b   5.41248927
_cell_length_c   7.21841500
_cell_angle_alpha   90.00000000
_cell_angle_beta   90.00000000
_cell_angle_gamma   119.99999385
_symmetry_Int_Tables_number   1
_chemical_formula_structural   MgRe2NiO8
_chemical_formula_sum   'Mg1 Re2 Ni1 O8'
_cell_volume   183.13298780
_cell_formula_units_Z   1
loop_
 _symmetry_equiv_pos_site_id
 _symmetry_equiv_pos_as_xyz
  1  'x, y, z'
loop_
 _atom_site_type_symbol
 _atom_site_label
 _atom_site_symmetry_multiplicity
 _atom_site_fract_x
 _atom_site_fract_y
 _atom_site_fract_z
 _atom_site_occupancy
  Mg  Mg0  1  0.66666700  0.33333300  0.21460400  1
  Re  Re0  1  0.33333300  0.66666700  0.25346800  1
  Re  Re1  1  0.66666700  0.33333300  0.73525400  1
  Ni  Ni0  1  0.00000000  0.00000000  0.00138600  1
  O  O0  1  0.66666700  0.33333300  0.48767900  1
  O  O1  1  0.33333300  0.66666700  0.49226300  1
  O  O2  1  0.72568400  0.06605900  0.82804200  1
  O  O3  1  0.02824500  0.33772300  0.15707400  1
  O  O4  1  0.66227700  0.69052300  0.15707400  1
  O  O5  1  0.30947700  0.97175500  0.15707400  1
  O  O6  1  0.93394100  0.65962400  0.82804200  1
  O  O7  1  0.34037600  0.27431600  0.82804200  1
loop_
_geom_bond_atom_site_label_1
_geom_bond_atom_site_label_2
_geom_bond_distance
_geom_bond_site_symmetry_2
Mg0 O0 1.971169 1_555
Mg0 O3 1.989098 1_655
Mg0 O5 1.989103 1_545
Mg0 O4 1.989109 1_555
Ni0 O5 2.085229 1_545
Ni0 O4 2.085231 1_445
Ni0 O3 2.085233 1_555
Ni0 O2 2.104471 1_454
Ni0 O7 2.104474 1_554
Ni0 O6 2.104475 1_444
O0 Re1 1.787099 1_555
O1 Re0 1.723721 1_555
O2 Re1 1.762225 1_555
O3 Re0 1.854935 1_555
O4 Re0 1.854935 1_555
O5 Re0 1.854935 1_555
O6 Re1 1.762225 1_555
O7 Re1 1.762225 1_555
