# generated using pymatgen
data_NiH12(ClO3)2
_symmetry_space_group_name_H-M   'P 1'
_cell_length_a   6.17342466
_cell_length_b   6.17342466
_cell_length_c   6.51344697
_cell_angle_alpha   63.19848578
_cell_angle_beta   63.19848578
_cell_angle_gamma   68.30890881
_symmetry_Int_Tables_number   1
_chemical_formula_structural   NiH12(ClO3)2
_chemical_formula_sum   'Ni1 H12 Cl2 O6'
_cell_volume   193.40995596
_cell_formula_units_Z   1
loop_
 _symmetry_equiv_pos_site_id
 _symmetry_equiv_pos_as_xyz
  1  'x, y, z'
loop_
 _atom_site_type_symbol
 _atom_site_label
 _atom_site_symmetry_multiplicity
 _atom_site_fract_x
 _atom_site_fract_y
 _atom_site_fract_z
 _atom_site_occupancy
  Ni  Ni0  1  0.00000000  0.00000000  -0.00000000  1
  H  H0  1  0.73639121  0.73639121  0.83186121  1
  H  H1  1  0.26360879  0.26360879  0.16813879  1
  H  H2  1  0.81870605  0.81870605  0.54401708  1
  H  H3  1  0.18129395  0.18129395  0.45598292  1
  H  H4  1  0.67477691  0.21245400  0.77211854  1
  H  H5  1  0.78754600  0.32522309  0.22788146  1
  H  H6  1  0.32522309  0.78754600  0.22788146  1
  H  H7  1  0.21245400  0.67477691  0.77211854  1
  H  H8  1  0.41658936  0.80440866  0.71958915  1
  H  H9  1  0.80440866  0.41658936  0.71958915  1
  H  H10  1  0.19559134  0.58341064  0.28041085  1
  H  H11  1  0.58341064  0.19559134  0.28041085  1
  Cl  Cl0  1  0.72505428  0.72505428  0.16688195  1
  Cl  Cl1  1  0.27494572  0.27494572  0.83311805  1
  O  O0  1  0.71751092  0.71751092  0.69918197  1
  O  O1  1  0.28248908  0.28248908  0.30081803  1
  O  O2  1  0.23872090  0.83422041  0.74366872  1
  O  O3  1  0.16577959  0.76127910  0.25633128  1
  O  O4  1  0.83422041  0.23872090  0.74366872  1
  O  O5  1  0.76127910  0.16577959  0.25633128  1
loop_
_geom_bond_atom_site_label_1
_geom_bond_atom_site_label_2
_geom_bond_distance
_geom_bond_site_symmetry_2
Ni0 O2 2.052788 1_544
Ni0 O4 2.052788 1_454
Ni0 O3 2.052788 1_545
Ni0 O5 2.052788 1_455
H0 O0 0.982714 1_555
H1 O1 0.982714 1_555
H2 O0 0.975560 1_555
H3 O1 0.975560 1_555
H4 O4 0.977704 1_555
H5 O5 0.977704 1_555
H6 O3 0.977704 1_555
H7 O2 0.977704 1_555
H8 O2 0.992743 1_555
H9 O4 0.992743 1_555
H10 O3 0.992743 1_555
H11 O5 0.992743 1_555
Cl0 Ni0 2.396997 1_665
Cl1 Ni0 2.396997 1_556
