# generated using pymatgen
data_Na6Y2Nb2Si5SO24
_symmetry_space_group_name_H-M   'P 1'
_cell_length_a   9.27422055
_cell_length_b   9.26138806
_cell_length_c   22.92950788
_cell_angle_alpha   89.60933243
_cell_angle_beta   90.64681228
_cell_angle_gamma   119.99575481
_symmetry_Int_Tables_number   1
_chemical_formula_structural   Na6Y2Nb2Si5SO24
_chemical_formula_sum   'Na18 Y6 Nb6 Si15 S3 O72'
_cell_volume   1705.56929856
_cell_formula_units_Z   3
loop_
 _symmetry_equiv_pos_site_id
 _symmetry_equiv_pos_as_xyz
  1  'x, y, z'
loop_
 _atom_site_type_symbol
 _atom_site_label
 _atom_site_symmetry_multiplicity
 _atom_site_fract_x
 _atom_site_fract_y
 _atom_site_fract_z
 _atom_site_occupancy
  Na  Na0  1  0.65050465  0.02060595  0.24793698  1
  Na  Na1  1  0.36103728  0.34230214  0.25542980  1
  Na  Na2  1  0.99095187  0.62936058  0.24900799  1
  Na  Na3  1  0.98739497  0.35106281  0.74786750  1
  Na  Na4  1  0.29529107  0.34267602  0.58101260  1
  Na  Na5  1  0.65962535  0.95454574  0.57976272  1
  Na  Na6  1  0.67875198  0.69796459  0.07347457  1
  Na  Na7  1  0.01612394  0.33709284  0.08076874  1
  Na  Na8  1  0.95208526  0.66370323  0.90828078  1
  Na  Na9  1  0.72073297  0.03640221  0.91723220  1
  Na  Na10  1  0.32595964  0.30895250  0.90851854  1
  Na  Na11  1  0.69864144  0.67710168  0.41739215  1
  Na  Na12  1  0.01399916  0.02240047  0.49594700  1
  Na  Na13  1  0.98635689  0.99495650  0.99797926  1
  Na  Na14  1  0.66372990  0.34778110  0.82852056  1
  Na  Na15  1  0.66225998  0.31689076  0.33493707  1
  Na  Na16  1  0.32984148  0.69947390  0.16227799  1
  Na  Na17  1  0.32930807  0.68048526  0.66228117  1
  Y  Y0  1  0.00683719  0.01272870  0.35478054  1
  Y  Y1  1  0.99391423  0.99682043  0.84194903  1
  Y  Y2  1  0.66919837  0.32946927  0.18195019  1
  Y  Y3  1  0.68589404  0.34394043  0.98241221  1
  Y  Y4  1  0.33652786  0.67589597  0.01791061  1
  Y  Y5  1  0.32520888  0.66520132  0.52321539  1
  Nb  Nb0  1  0.99285285  0.99006088  0.64855440  1
  Nb  Nb1  1  0.99246967  0.99222016  0.15426567  1
  Nb  Nb2  1  0.66621092  0.33577141  0.68602119  1
  Nb  Nb3  1  0.65191812  0.31876131  0.48252376  1
  Nb  Nb4  1  0.34862870  0.67114072  0.31420879  1
  Nb  Nb5  1  0.33595192  0.65137683  0.80518777  1
  Si  Si0  1  0.29307303  0.99292897  0.25254724  1
  Si  Si1  1  0.70073953  0.70242525  0.25462149  1
  Si  Si2  1  0.00869305  0.30231747  0.24961866  1
  Si  Si3  1  0.29994371  0.28917120  0.74891254  1
  Si  Si4  1  0.00180663  0.69962028  0.75081893  1
  Si  Si5  1  0.69641918  0.99776858  0.74822786  1
  Si  Si6  1  0.94776572  0.32366684  0.58641232  1
  Si  Si7  1  0.36966323  0.04782545  0.58706609  1
  Si  Si8  1  0.67831551  0.62451592  0.58228249  1
  Si  Si9  1  0.97457592  0.64952245  0.08634786  1
  Si  Si10  1  0.67446449  0.02598683  0.08598982  1
  Si  Si11  1  0.62707371  0.66541566  0.91541952  1
  Si  Si12  1  0.04227899  0.37263834  0.91411378  1
  Si  Si13  1  0.62438364  0.96521250  0.42128559  1
  Si  Si14  1  0.34402614  0.37488694  0.42164045  1
  S  S0  1  0.35466028  0.32122836  0.08306122  1
  S  S1  1  0.33407192  0.96063260  0.91199521  1
  S  S2  1  0.03161501  0.65260832  0.41385588  1
  O  O0  1  0.21309384  0.03223254  0.30669519  1
  O  O1  1  0.81301021  0.77386840  0.31169524  1
  O  O2  1  0.96098923  0.17353333  0.30227320  1
  O  O3  1  0.23528736  0.19758067  0.81047210  1
  O  O4  1  0.96959374  0.76184819  0.81176802  1
  O  O5  1  0.80820359  0.04779095  0.80712819  1
  O  O6  1  0.80187880  0.97172640  0.69407110  1
  O  O7  1  0.16202891  0.19056046  0.69581293  1
  O  O8  1  0.02131024  0.83410273  0.69780719  1
  O  O9  1  0.80144934  0.83411283  0.19789665  1
  O  O10  1  0.03828252  0.20829680  0.19133287  1
  O  O11  1  0.16394406  0.96851180  0.19578805  1
  O  O12  1  0.85280691  0.33760981  0.64354026  1
  O  O13  1  0.49519363  0.15795839  0.63943987  1
  O  O14  1  0.66532408  0.50503979  0.63710937  1
  O  O15  1  0.87988232  0.53917554  0.14289621  1
  O  O16  1  0.65391091  0.11127189  0.14384345  1
  O  O17  1  0.45517759  0.34192775  0.13598407  1
  O  O18  1  0.43836382  0.30695700  0.03031762  1
  O  O19  1  0.85633352  0.57260550  0.02735816  1
  O  O20  1  0.70242217  0.13980931  0.02694202  1
  O  O21  1  0.46411451  0.16860061  0.52721159  1
  O  O22  1  0.69561670  0.53148658  0.52297623  1
  O  O23  1  0.82301430  0.30352124  0.52928664  1
  O  O24  1  0.55222110  0.69181122  0.97528053  1
  O  O25  1  0.14176510  0.45781034  0.97410478  1
  O  O26  1  0.31323553  0.86635332  0.96685653  1
  O  O27  1  0.53591152  0.86128224  0.47899557  1
  O  O28  1  0.32995380  0.46309532  0.47947248  1
  O  O29  1  0.13139151  0.67132655  0.46695058  1
  O  O30  1  0.12096921  0.64460485  0.36061536  1
  O  O31  1  0.50001716  0.86069598  0.36185492  1
  O  O32  1  0.36043569  0.50327168  0.36296743  1
  O  O33  1  0.15261551  0.49342400  0.85683977  1
  O  O34  1  0.35004381  0.87230840  0.86135711  1
  O  O35  1  0.50199323  0.66025867  0.85955439  1
  O  O36  1  0.00485734  0.79677979  0.41202154  1
  O  O37  1  0.79926298  0.96855023  0.41560581  1
  O  O38  1  0.19213508  0.18830565  0.41707156  1
  O  O39  1  0.02495380  0.18832631  0.91117750  1
  O  O40  1  0.18580904  0.98135921  0.90860998  1
  O  O41  1  0.81508700  0.82499139  0.91052026  1
  O  O42  1  0.95367781  0.14661940  0.59046671  1
  O  O43  1  0.19147254  0.04443644  0.59269209  1
  O  O44  1  0.84486651  0.81241716  0.59129349  1
  O  O45  1  0.98710524  0.83473195  0.09436690  1
  O  O46  1  0.85587818  0.02557166  0.09206470  1
  O  O47  1  0.18669668  0.17252166  0.08689447  1
  O  O48  1  0.67696226  0.16167921  0.73644356  1
  O  O49  1  0.48849853  0.32791263  0.73748951  1
  O  O50  1  0.84623570  0.51018247  0.73878446  1
  O  O51  1  0.64973472  0.51215841  0.24265388  1
  O  O52  1  0.85711347  0.34119088  0.24428588  1
  O  O53  1  0.48001509  0.14644340  0.24421770  1
  O  O54  1  0.62250847  0.48615943  0.91341616  1
  O  O55  1  0.85957879  0.36230329  0.91205885  1
  O  O56  1  0.48766857  0.12800404  0.91634613  1
  O  O57  1  0.63894751  0.15226029  0.42403932  1
  O  O58  1  0.52885751  0.38180401  0.42116138  1
  O  O59  1  0.86733419  0.49666665  0.41604432  1
  O  O60  1  0.33652351  0.47261606  0.07993919  1
  O  O61  1  0.15118307  0.65430488  0.08289419  1
  O  O62  1  0.52827379  0.83143562  0.08469337  1
  O  O63  1  0.36634345  0.87322232  0.58596174  1
  O  O64  1  0.51372765  0.64401458  0.58403762  1
  O  O65  1  0.13616817  0.47749967  0.58531729  1
  O  O66  1  0.29477754  0.81403662  0.25777369  1
  O  O67  1  0.52340745  0.70966755  0.25843967  1
  O  O68  1  0.18613854  0.48212901  0.25867620  1
  O  O69  1  0.30681606  0.47542373  0.75296547  1
  O  O70  1  0.17032028  0.67968242  0.75418031  1
  O  O71  1  0.51279966  0.82800326  0.75507534  1
loop_
_geom_bond_atom_site_label_1
_geom_bond_atom_site_label_2
_geom_bond_distance
_geom_bond_site_symmetry_2
Na0 O53 2.388232 1_555
Na0 O67 2.518565 1_545
Na0 O16 2.520081 1_555
Na0 O52 2.608783 1_555
Na0 O2 2.777600 1_555
Na0 O66 2.880117 1_545
Na0 O9 2.956392 1_545
Na0 O31 2.987812 1_545
Na1 O51 2.351435 1_555
Na1 O68 2.533357 1_555
Na1 O53 2.566710 1_555
Na1 O0 2.749840 1_555
Na1 O17 2.884549 1_555
Na1 O32 2.891604 1_555
Na1 O67 2.954018 1_555
Na1 O10 2.978468 1_555
Na2 O52 2.315991 1_555
Na2 O66 2.465478 1_655
Na2 O15 2.605667 1_555
Na2 O68 2.764081 1_655
Na2 O51 2.787631 1_555
Na2 O30 2.790690 1_655
Na2 O1 2.978048 1_555
Na2 O11 2.980325 1_655
Na3 O50 2.418178 1_555
Na3 O48 2.524668 1_555
Na3 O69 2.588132 1_655
Na3 O70 2.645688 1_655
Na3 O12 2.660294 1_555
Na3 O5 2.798018 1_555
Na3 O33 2.875437 1_655
Na3 O7 2.955055 1_655
Na4 O65 2.365188 1_555
Na4 O43 2.442264 1_555
Na4 O64 2.498783 1_555
Na4 O28 2.528035 1_555
Na4 O42 2.763989 1_455
Na5 O42 2.408740 1_565
Na5 O63 2.438155 1_555
Na5 O64 2.493948 1_555
Na5 O27 2.525379 1_555
Na5 O44 2.645764 1_555
Na5 O6 2.890223 1_555
Na6 O62 2.297632 1_555
Na6 O24 2.514947 1_554
Na6 O45 2.523392 1_555
Na6 O46 2.665382 1_565
Na6 O19 2.673266 1_555
Na6 O60 2.799028 1_555
Na7 O46 2.512164 1_455
Na7 O61 2.554082 1_555
Na7 O60 2.584014 1_555
Na7 O47 2.692239 1_555
Na7 O25 2.704420 1_554
Na7 O20 2.821449 1_455
Na7 O10 2.843293 1_555
Na8 O4 2.362838 1_555
Na8 O41 2.397582 1_555
Na8 O55 2.477750 1_555
Na8 O40 2.641468 1_655
Na8 O54 2.653377 1_555
Na8 O19 2.868730 1_556
Na9 O39 2.448724 1_655
Na9 O41 2.518586 1_545
Na9 O55 2.625789 1_555
Na9 O5 2.645755 1_555
Na9 O56 2.687830 1_555
Na9 O20 2.734836 1_556
Na10 O54 2.398428 1_555
Na10 O39 2.435039 1_555
Na10 O3 2.438633 1_555
Na10 O40 2.636548 1_545
Na10 O56 2.755466 1_555
Na10 O18 2.973144 1_556
Na11 O37 2.374679 1_555
Na11 O58 2.379163 1_555
Na11 O36 2.483448 1_655
Na11 O1 2.622957 1_555
Na11 O22 2.756789 1_555
Na11 O59 2.803026 1_555
Na11 O32 2.979498 1_555
Na12 O38 2.419218 1_555
Na12 O37 2.558337 1_445
Na12 O42 2.653019 1_455
Na12 O43 2.694352 1_555
Na12 O36 2.819692 1_545
Na12 O44 2.826921 1_445
Na13 O41 2.548247 1_555
Na13 O46 2.570824 1_566
Na13 O39 2.573567 1_665
Na13 O45 2.655537 1_556
Na13 O47 2.686685 1_666
Na13 O40 2.821114 1_655
Na14 O54 2.473579 1_555
Na14 O49 2.580965 1_555
Na14 O55 2.582056 1_555
Na14 O50 2.617597 1_555
Na14 O56 2.749504 1_555
Na14 O48 2.776723 1_555
Na15 O57 2.486664 1_555
Na15 O58 2.572174 1_555
Na15 O59 2.577634 1_555
Na15 O53 2.640702 1_555
Na15 O52 2.703446 1_555
Na15 O51 2.813145 1_555
Na16 O61 2.341551 1_555
Na16 O62 2.416725 1_555
Na16 O66 2.533552 1_555
Na16 O67 2.799524 1_555
Na16 O68 2.834998 1_555
Na16 O60 2.858240 1_555
Na17 O63 2.392608 1_555
Na17 O65 2.542413 1_555
Na17 O70 2.583301 1_555
Na17 O64 2.629314 1_555
Na17 O71 2.631146 1_555
Na17 O69 2.744780 1_555
Nb0 O8 1.945124 1_655
Nb0 O6 1.998406 1_555
Nb0 O44 2.011305 1_555
Nb0 O7 2.039605 1_665
Nb0 O43 2.098660 1_665
Nb0 O42 2.120810 1_565
Nb1 O9 1.926071 1_555
Nb1 O11 1.948285 1_655
Nb1 O45 1.992349 1_555
Nb1 O10 2.018039 1_665
Nb1 O46 2.019586 1_565
Nb1 O47 2.332291 1_665
Nb2 O14 1.924617 1_555
Nb2 O13 1.934548 1_555
Nb2 O12 1.988016 1_555
Nb2 O49 2.009282 1_555
Nb2 O48 2.019653 1_555
Nb2 O50 2.035905 1_555
Nb3 O21 1.901728 1_555
Nb3 O23 1.967481 1_555
Nb3 O57 2.007423 1_555
Nb3 O22 2.030793 1_555
Nb3 O58 2.059595 1_555
Nb3 O59 2.402678 1_555
Nb4 O31 1.942622 1_555
Nb4 O32 1.955194 1_555
Nb4 O67 1.962716 1_555
Nb4 O66 2.073231 1_555
Nb4 O68 2.075108 1_555
Nb4 O30 2.275711 1_555
Nb5 O69 1.934266 1_555
Nb5 O35 1.939970 1_555
Nb5 O33 1.992120 1_555
Nb5 O71 2.005126 1_555
Nb5 O70 2.038171 1_555
Nb5 O34 2.372188 1_555
O0 Si0 1.587810 1_545
O0 Y0 2.146343 1_555
O1 Si1 1.589579 1_555
O1 Y0 2.261568 1_665
O2 Si2 1.593989 1_655
O2 Y0 2.108418 1_655
O3 Si3 1.601787 1_555
O3 Y1 2.201278 1_445
O4 Si4 1.602202 1_655
O4 Y1 2.189003 1_555
O5 Si5 1.615580 1_545
O5 Y1 2.145566 1_545
O6 Si5 1.680527 1_555
O7 Si3 1.662677 1_555
O8 Si4 1.679451 1_555
O9 Si1 1.708328 1_555
O10 Si2 1.697864 1_555
O11 Si0 1.696218 1_555
O12 Si6 1.627941 1_555
O13 Si7 1.623491 1_555
O14 Si8 1.634159 1_555
O15 Si9 1.614670 1_555
O15 Y2 2.147831 1_555
O16 Si10 1.609503 1_555
O16 Y2 2.145241 1_555
O17 S0 1.475567 1_555
O17 Y2 2.289983 1_555
O18 S0 1.486158 1_555
O18 Y3 2.420644 1_554
O19 Si9 1.654725 1_555
O19 Y3 2.165983 1_554
O20 Si10 1.651298 1_555
O20 Y3 2.213608 1_554
O21 Si7 1.711304 1_555
O22 Si8 1.666261 1_555
O23 Si6 1.685948 1_555
O24 Si11 1.619083 1_555
O24 Y4 2.173965 1_556
O25 Si12 1.619916 1_555
O25 Y4 2.165625 1_556
O26 S1 1.484577 1_555
O26 Y4 2.208061 1_556
O27 Si13 1.602564 1_555
O27 Y5 2.148451 1_555
O28 Si14 1.602539 1_555
O28 Y5 2.149529 1_555
O29 S2 1.478351 1_555
O29 Y5 2.224245 1_555
O30 S2 1.505993 1_555
O31 Si13 1.729301 1_555
O32 Si14 1.746070 1_555
O33 Si12 1.699677 1_555
O34 S1 1.475544 1_555
O35 Si11 1.703139 1_555
O36 S2 1.475292 1_555
O36 Y0 2.377181 1_565
O37 Si13 1.613370 1_555
O37 Y0 2.254734 1_665
O38 Si14 1.595802 1_555
O38 Y0 2.195363 1_555
O39 Si12 1.634391 1_555
O39 Y1 2.294754 1_445
O40 S1 1.481506 1_555
O40 Y1 2.390496 1_455
O41 Si11 1.631783 1_555
O41 Y1 2.267379 1_555
O42 Si6 1.669725 1_555
O43 Si7 1.643637 1_555
O44 Si8 1.663430 1_555
O45 Si9 1.671551 1_555
O46 Si10 1.688578 1_555
O47 S0 1.478978 1_555
O48 Si5 1.636220 1_545
O49 Si3 1.623883 1_555
O50 Si4 1.643941 1_655
O51 Si1 1.604496 1_555
O51 Y2 2.275052 1_555
O52 Si2 1.619370 1_655
O52 Y2 2.201977 1_555
O53 Si0 1.613339 1_545
O53 Y2 2.245002 1_555
O54 Si11 1.640352 1_555
O54 Y3 2.303928 1_555
O55 Si12 1.648780 1_655
O55 Y3 2.237611 1_555
O56 S1 1.494323 1_545
O56 Y3 2.444653 1_555
O57 Si13 1.670484 1_545
O58 Si14 1.683214 1_555
O59 S2 1.486687 1_655
O60 S0 1.494440 1_555
O60 Y4 2.351742 1_555
O61 Si9 1.619035 1_455
O61 Y4 2.219236 1_555
O62 Si10 1.625685 1_565
O62 Y4 2.233729 1_555
O63 Si7 1.602266 1_565
O63 Y5 2.284228 1_555
O64 Si8 1.625208 1_555
O64 Y5 2.307486 1_555
O65 Si6 1.610863 1_455
O65 Y5 2.258015 1_555
O66 Si0 1.668234 1_555
O67 Si1 1.682425 1_555
O68 Si2 1.667756 1_555
O69 Si3 1.697145 1_555
O70 Si4 1.663765 1_555
O71 Si5 1.649906 1_555
