# generated using pymatgen
data_NaHg2IO2
_symmetry_space_group_name_H-M   'P 1'
_cell_length_a   6.78389080
_cell_length_b   6.78389080
_cell_length_c   10.39857100
_cell_angle_alpha   90.00000000
_cell_angle_beta   90.00000000
_cell_angle_gamma   120.00000780
_symmetry_Int_Tables_number   1
_chemical_formula_structural   NaHg2IO2
_chemical_formula_sum   'Na3 Hg6 I3 O6'
_cell_volume   414.44027764
_cell_formula_units_Z   3
loop_
 _symmetry_equiv_pos_site_id
 _symmetry_equiv_pos_as_xyz
  1  'x, y, z'
loop_
 _atom_site_type_symbol
 _atom_site_label
 _atom_site_symmetry_multiplicity
 _atom_site_fract_x
 _atom_site_fract_y
 _atom_site_fract_z
 _atom_site_occupancy
  Na  Na0  1  0.00000000  0.00000000  0.16666700  1
  Na  Na1  1  0.00000000  0.00000000  0.83333300  1
  Na  Na2  1  0.00000000  0.00000000  0.50000000  1
  Hg  Hg0  1  0.50000000  0.50000000  0.00400200  1
  Hg  Hg1  1  0.00000000  0.50000000  0.33733500  1
  Hg  Hg2  1  0.50000000  0.00000000  0.67066800  1
  Hg  Hg3  1  0.00000000  0.50000000  0.99599800  1
  Hg  Hg4  1  0.50000000  0.50000000  0.66266500  1
  Hg  Hg5  1  0.50000000  0.00000000  0.32933200  1
  I  I0  1  0.50000000  0.00000000  0.00000000  1
  I  I1  1  0.50000000  0.50000000  0.33333300  1
  I  I2  1  0.00000000  0.50000000  0.66666700  1
  O  O0  1  0.85216500  0.70433000  0.00000000  1
  O  O1  1  0.14783500  0.85216500  0.33333300  1
  O  O2  1  0.70433000  0.85216500  0.66666700  1
  O  O3  1  0.29567000  0.14783500  0.66666700  1
  O  O4  1  0.14783500  0.29567000  0.00000000  1
  O  O5  1  0.85216500  0.14783500  0.33333300  1
loop_
_geom_bond_atom_site_label_1
_geom_bond_atom_site_label_2
_geom_bond_distance
_geom_bond_site_symmetry_2
Na0 O1 2.453772 1_545
Na0 O5 2.453772 1_455
Na0 O4 2.453780 1_555
Na0 O0 2.453780 1_445
Na1 O2 2.453772 1_445
Na1 O3 2.453772 1_555
Na1 O0 2.453780 1_446
Na1 O4 2.453780 1_556
Na2 O2 2.453780 1_445
Na2 O3 2.453780 1_555
Na2 O5 2.453780 1_455
Na2 O1 2.453780 1_545
Hg0 O0 2.078249 1_555
Hg0 O4 2.078249 1_555
Hg0 I0 3.392201 1_555
Hg0 I0 3.392201 1_565
Hg0 I1 3.424572 1_555
Hg1 O1 2.078249 1_555
Hg1 O5 2.078249 1_455
Hg1 I1 3.392201 1_555
Hg1 I1 3.392201 1_455
Hg1 I2 3.424582 1_555
Hg2 O3 2.078249 1_555
Hg2 O2 2.078249 1_545
Hg2 I2 3.392200 1_545
Hg2 I2 3.392200 1_655
Hg2 I0 3.424582 1_556
Hg3 O4 2.078249 1_556
Hg3 O0 2.078249 1_456
Hg3 I0 3.392200 1_566
Hg3 I0 3.392200 1_456
Hg3 I2 3.424572 1_555
Hg4 O2 2.078249 1_555
Hg4 O3 2.078249 1_555
Hg4 I2 3.392201 1_555
Hg4 I2 3.392201 1_655
Hg4 I1 3.424582 1_555
Hg5 O5 2.078249 1_555
Hg5 O1 2.078249 1_545
Hg5 I1 3.392201 1_555
Hg5 I1 3.392201 1_545
Hg5 I0 3.424582 1_555
