# generated using pymatgen
data_Na3TaZn5(SO4)9
_symmetry_space_group_name_H-M   'P 1'
_cell_length_a   8.74848476
_cell_length_b   8.74848448
_cell_length_c   22.75519762
_cell_angle_alpha   90.00000000
_cell_angle_beta   90.00000000
_cell_angle_gamma   120.00000107
_symmetry_Int_Tables_number   1
_chemical_formula_structural   Na3TaZn5(SO4)9
_chemical_formula_sum   'Na6 Ta2 Zn10 S18 O72'
_cell_volume   1508.26239728
_cell_formula_units_Z   2
loop_
 _symmetry_equiv_pos_site_id
 _symmetry_equiv_pos_as_xyz
  1  'x, y, z'
loop_
 _atom_site_type_symbol
 _atom_site_label
 _atom_site_symmetry_multiplicity
 _atom_site_fract_x
 _atom_site_fract_y
 _atom_site_fract_z
 _atom_site_occupancy
  Na  Na0  1  0.00000000  -0.00000000  0.50420537  1
  Na  Na1  1  0.00000000  -0.00000000  0.00420537  1
  Na  Na2  1  0.66666700  0.33333300  0.83326664  1
  Na  Na3  1  0.66666700  0.33333300  0.33326664  1
  Na  Na4  1  0.33333300  0.66666700  0.15694387  1
  Na  Na5  1  0.33333300  0.66666700  0.65694387  1
  Ta  Ta0  1  0.33333300  0.66666700  0.31425513  1
  Ta  Ta1  1  0.33333300  0.66666700  0.81425513  1
  Zn  Zn0  1  0.00000000  -0.00000000  0.34957526  1
  Zn  Zn1  1  0.00000000  -0.00000000  0.84957526  1
  Zn  Zn2  1  0.00000000  -0.00000000  0.64701512  1
  Zn  Zn3  1  0.00000000  -0.00000000  0.14701512  1
  Zn  Zn4  1  0.66666700  0.33333300  0.67716204  1
  Zn  Zn5  1  0.66666700  0.33333300  0.17716204  1
  Zn  Zn6  1  0.66666700  0.33333300  0.98822155  1
  Zn  Zn7  1  0.66666700  0.33333300  0.48822155  1
  Zn  Zn8  1  0.33333300  0.66666700  0.02037433  1
  Zn  Zn9  1  0.33333300  0.66666700  0.52037433  1
  S  S0  1  0.29519346  0.00516608  0.25092497  1
  S  S1  1  0.70997261  0.70480654  0.25092497  1
  S  S2  1  0.99483392  0.29002739  0.25092497  1
  S  S3  1  0.29519346  0.29002739  0.75092497  1
  S  S4  1  0.99483392  0.70480654  0.75092497  1
  S  S5  1  0.70997261  0.00516608  0.75092497  1
  S  S6  1  0.96248586  0.33252969  0.58325845  1
  S  S7  1  0.37004483  0.03751414  0.58325845  1
  S  S8  1  0.66747031  0.62995517  0.58325845  1
  S  S9  1  0.96248586  0.62995517  0.08325845  1
  S  S10  1  0.66747031  0.03751414  0.08325845  1
  S  S11  1  0.37004483  0.33252969  0.08325845  1
  S  S12  1  0.62797382  0.66755159  0.91799625  1
  S  S13  1  0.03957677  0.37202618  0.91799625  1
  S  S14  1  0.33244841  0.96042323  0.91799625  1
  S  S15  1  0.62797382  0.96042323  0.41799625  1
  S  S16  1  0.33244841  0.37202618  0.41799625  1
  S  S17  1  0.03957677  0.66755159  0.41799625  1
  O  O0  1  0.21555915  0.02653070  0.30486827  1
  O  O1  1  0.81097155  0.78444085  0.30486827  1
  O  O2  1  0.97346930  0.18902845  0.30486827  1
  O  O3  1  0.21555915  0.18902845  0.80486827  1
  O  O4  1  0.97346930  0.78444085  0.80486827  1
  O  O5  1  0.81097155  0.02653070  0.80486827  1
  O  O6  1  0.77842943  0.96435470  0.69832577  1
  O  O7  1  0.18592527  0.22157057  0.69832577  1
  O  O8  1  0.03564530  0.81407473  0.69832577  1
  O  O9  1  0.77842943  0.81407473  0.19832577  1
  O  O10  1  0.03564530  0.22157057  0.19832577  1
  O  O11  1  0.18592527  0.96435470  0.19832577  1
  O  O12  1  0.88214473  0.35751384  0.63734116  1
  O  O13  1  0.47537011  0.11785527  0.63734116  1
  O  O14  1  0.64248616  0.52462989  0.63734116  1
  O  O15  1  0.88214473  0.52462989  0.13734116  1
  O  O16  1  0.64248616  0.11785527  0.13734116  1
  O  O17  1  0.47537011  0.35751384  0.13734116  1
  O  O18  1  0.45102526  0.30816750  0.02912226  1
  O  O19  1  0.85714323  0.54897474  0.02912226  1
  O  O20  1  0.69183250  0.14285677  0.02912226  1
  O  O21  1  0.45102526  0.14285677  0.52912226  1
  O  O22  1  0.69183250  0.54897474  0.52912226  1
  O  O23  1  0.85714323  0.30816750  0.52912226  1
  O  O24  1  0.54322507  0.69084294  0.96956709  1
  O  O25  1  0.14761688  0.45677493  0.96956709  1
  O  O26  1  0.30915706  0.85238312  0.96956709  1
  O  O27  1  0.54322507  0.85238312  0.46956709  1
  O  O28  1  0.30915706  0.45677493  0.46956709  1
  O  O29  1  0.14761688  0.69084294  0.46956709  1
  O  O30  1  0.13884256  0.65015985  0.36283399  1
  O  O31  1  0.51131629  0.86115744  0.36283399  1
  O  O32  1  0.34984015  0.48868371  0.36283399  1
  O  O33  1  0.13884256  0.48868371  0.86283399  1
  O  O34  1  0.34984015  0.86115744  0.86283399  1
  O  O35  1  0.51131629  0.65015985  0.86283399  1
  O  O36  1  0.02443398  0.82616127  0.40906695  1
  O  O37  1  0.80172730  0.97556602  0.40906695  1
  O  O38  1  0.17383873  0.19827270  0.40906695  1
  O  O39  1  0.02443398  0.19827270  0.90906695  1
  O  O40  1  0.17383873  0.97556602  0.90906695  1
  O  O41  1  0.80172730  0.82616127  0.90906695  1
  O  O42  1  0.98026069  0.17176236  0.58819243  1
  O  O43  1  0.19150167  0.01973931  0.58819243  1
  O  O44  1  0.82823764  0.80849833  0.58819243  1
  O  O45  1  0.98026069  0.80849833  0.08819243  1
  O  O46  1  0.82823764  0.01973931  0.08819243  1
  O  O47  1  0.19150167  0.17176236  0.08819243  1
  O  O48  1  0.67791700  0.15404963  0.74503481  1
  O  O49  1  0.47613363  0.32208300  0.74503481  1
  O  O50  1  0.84595037  0.52386637  0.74503481  1
  O  O51  1  0.67791700  0.52386637  0.24503481  1
  O  O52  1  0.84595037  0.32208300  0.24503481  1
  O  O53  1  0.47613363  0.15404963  0.24503481  1
  O  O54  1  0.63500743  0.50299041  0.91764209  1
  O  O55  1  0.86798398  0.36499257  0.91764209  1
  O  O56  1  0.49700959  0.13201602  0.91764209  1
  O  O57  1  0.63500743  0.13201602  0.41764209  1
  O  O58  1  0.49700959  0.36499257  0.41764209  1
  O  O59  1  0.86798398  0.50299041  0.41764209  1
  O  O60  1  0.35194475  0.49321256  0.07857599  1
  O  O61  1  0.14126681  0.64805525  0.07857599  1
  O  O62  1  0.50678744  0.85873319  0.07857599  1
  O  O63  1  0.35194475  0.85873319  0.57857599  1
  O  O64  1  0.50678744  0.64805525  0.57857599  1
  O  O65  1  0.14126681  0.49321256  0.57857599  1
  O  O66  1  0.31399688  0.83654414  0.26024308  1
  O  O67  1  0.52254626  0.68600312  0.26024308  1
  O  O68  1  0.16345586  0.47745374  0.26024308  1
  O  O69  1  0.31399688  0.47745374  0.76024308  1
  O  O70  1  0.16345586  0.68600312  0.76024308  1
  O  O71  1  0.52254626  0.83654414  0.76024308  1
loop_
_geom_bond_atom_site_label_1
_geom_bond_atom_site_label_2
_geom_bond_distance
_geom_bond_site_symmetry_2
Na0 O44 2.489933 1_445
Na0 O42 2.489933 1_455
Na0 O43 2.489933 1_555
Na0 O38 2.714859 1_555
Na0 O37 2.714859 1_445
Na0 O36 2.714859 1_545
Na1 O45 2.489933 1_445
Na1 O47 2.489933 1_555
Na1 O46 2.489933 1_455
Na1 O39 2.714859 1_554
Na1 O41 2.714859 1_444
Na1 O40 2.714859 1_544
Na2 O56 2.525296 1_555
Na2 O54 2.525296 1_555
Na2 O55 2.525296 1_555
Na2 O50 2.579749 1_555
Na2 O48 2.579749 1_555
Na2 O49 2.579749 1_555
Na3 O57 2.525296 1_555
Na3 O59 2.525296 1_555
Na3 O58 2.525296 1_555
Na3 O51 2.579749 1_555
Na3 O53 2.579749 1_555
Na3 O52 2.579749 1_555
Na4 O62 2.399242 1_555
Na4 O60 2.399242 1_555
Na4 O61 2.399242 1_555
Na4 O68 2.830902 1_555
Na4 O66 2.830902 1_555
Na4 O67 2.830902 1_555
Na5 O63 2.399242 1_555
Na5 O65 2.399242 1_555
Na5 O64 2.399242 1_555
Na5 O69 2.830902 1_555
Na5 O71 2.830902 1_555
Na5 O70 2.830902 1_555
O0 S0 1.468756 1_555
O0 Zn0 2.051195 1_555
O1 S1 1.468756 1_555
O1 Zn0 2.051195 1_665
O2 S2 1.468756 1_555
O2 Zn0 2.051195 1_655
O3 S3 1.468756 1_555
O3 Zn1 2.051195 1_555
O4 S4 1.468756 1_555
O4 Zn1 2.051195 1_665
O5 S5 1.468756 1_555
O5 Zn1 2.051195 1_655
O6 S5 1.460328 1_565
O6 Zn2 2.147892 1_665
O7 S3 1.460328 1_555
O7 Zn2 2.147892 1_555
O8 S4 1.460328 1_455
O8 Zn2 2.147892 1_565
O9 S1 1.460328 1_555
O9 Zn3 2.147892 1_665
O10 S2 1.460328 1_455
O10 Zn3 2.147892 1_555
O11 S0 1.460328 1_565
O11 Zn3 2.147892 1_565
O12 S6 1.486590 1_555
O12 Zn4 2.005158 1_555
O13 S7 1.486590 1_555
O13 Zn4 2.005158 1_555
O14 S8 1.486590 1_555
O14 Zn4 2.005158 1_555
O15 S9 1.486590 1_555
O15 Zn5 2.005158 1_555
O16 S10 1.486590 1_555
O16 Zn5 2.005158 1_555
O17 S11 1.486590 1_555
O17 Zn5 2.005158 1_555
O18 S11 1.488576 1_555
O18 Zn6 2.014539 1_554
O19 S9 1.488576 1_555
O19 Zn6 2.014539 1_554
O20 S10 1.488576 1_555
O20 Zn6 2.014539 1_554
O21 S7 1.488576 1_555
O21 Zn7 2.014539 1_555
O22 S8 1.488576 1_555
O22 Zn7 2.014539 1_555
O23 S6 1.488576 1_555
O23 Zn7 2.014539 1_555
O24 S12 1.455822 1_555
O24 Zn8 2.089202 1_556
O25 S13 1.455822 1_555
O25 Zn8 2.089202 1_556
O26 S14 1.455822 1_555
O26 Zn8 2.089202 1_556
O27 S15 1.455822 1_555
O27 Zn9 2.089202 1_555
O28 S16 1.455822 1_555
O28 Zn9 2.089202 1_555
O29 S17 1.455822 1_555
O29 Zn9 2.089202 1_555
O30 S17 1.576402 1_555
O30 Ta0 1.972862 1_555
O31 S15 1.576402 1_555
O31 Ta0 1.972862 1_555
O32 S16 1.576402 1_555
O32 Ta0 1.972862 1_555
O33 S13 1.576402 1_555
O33 Ta1 1.972862 1_555
O34 S14 1.576402 1_555
O34 Ta1 1.972862 1_555
O35 S12 1.576402 1_555
O35 Ta1 1.972862 1_555
O36 S17 1.472439 1_555
O36 Zn0 2.125164 1_565
O37 S15 1.472448 1_555
O37 Zn0 2.125164 1_665
O38 S16 1.472444 1_555
O38 Zn0 2.125164 1_555
O39 S13 1.472448 1_555
O39 Zn1 2.125164 1_555
O40 S14 1.472439 1_555
O40 Zn1 2.125164 1_565
O41 S12 1.472444 1_555
O41 Zn1 2.125164 1_665
O42 S6 1.494542 1_555
O42 Zn2 2.083013 1_655
O43 S7 1.494551 1_555
O43 Zn2 2.083013 1_555
O44 S8 1.494547 1_555
O44 Zn2 2.083013 1_665
O45 S9 1.494551 1_555
O45 Zn3 2.083013 1_665
O46 S10 1.494542 1_555
O46 Zn3 2.083013 1_655
O47 S11 1.494547 1_555
O47 Zn3 2.083013 1_555
O48 S5 1.469150 1_555
O48 Zn4 2.238184 1_555
O49 S3 1.469159 1_555
O49 Zn4 2.238184 1_555
O50 S4 1.469156 1_555
O50 Zn4 2.238184 1_555
O51 S1 1.469159 1_555
O51 Zn5 2.238184 1_555
O52 S2 1.469150 1_555
O52 Zn5 2.238184 1_555
O53 S0 1.469156 1_555
O53 Zn5 2.238184 1_555
O54 S12 1.471415 1_555
O54 Zn6 2.295689 1_555
O55 S13 1.471398 1_655
O55 Zn6 2.295689 1_555
O56 S14 1.471406 1_545
O56 Zn6 2.295689 1_555
O57 S15 1.471398 1_545
O57 Zn7 2.295689 1_555
O58 S16 1.471415 1_555
O58 Zn7 2.295689 1_555
O59 S17 1.471406 1_655
O59 Zn7 2.295689 1_555
O60 S11 1.495026 1_555
O60 Zn8 2.080937 1_555
O61 S9 1.495009 1_455
O61 Zn8 2.080937 1_555
O62 S10 1.495016 1_565
O62 Zn8 2.080937 1_555
O63 S7 1.495009 1_565
O63 Zn9 2.080937 1_555
O64 S8 1.495026 1_555
O64 Zn9 2.080937 1_555
O65 S6 1.495016 1_455
O65 Zn9 2.080937 1_555
O66 S0 1.578247 1_565
O66 Ta0 1.999822 1_555
O67 S1 1.578256 1_555
O67 Ta0 1.999822 1_555
O68 S2 1.578252 1_455
O68 Ta0 1.999822 1_555
O69 S3 1.578256 1_555
O69 Ta1 1.999822 1_555
O70 S4 1.578247 1_455
O70 Ta1 1.999822 1_555
O71 S5 1.578252 1_565
O71 Ta1 1.999822 1_555
