# generated using pymatgen
data_Na4NbGa3Si3(SO8)3
_symmetry_space_group_name_H-M   'P 1'
_cell_length_a   8.85985944
_cell_length_b   8.86625525
_cell_length_c   22.17565756
_cell_angle_alpha   89.65405715
_cell_angle_beta   90.38905810
_cell_angle_gamma   119.78211037
_symmetry_Int_Tables_number   1
_chemical_formula_structural   Na4NbGa3Si3(SO8)3
_chemical_formula_sum   'Na12 Nb3 Ga9 Si9 S9 O72'
_cell_volume   1511.85972106
_cell_formula_units_Z   3
loop_
 _symmetry_equiv_pos_site_id
 _symmetry_equiv_pos_as_xyz
  1  'x, y, z'
loop_
 _atom_site_type_symbol
 _atom_site_label
 _atom_site_symmetry_multiplicity
 _atom_site_fract_x
 _atom_site_fract_y
 _atom_site_fract_z
 _atom_site_occupancy
  Na  Na0  1  0.63610622  0.00017945  0.25095434  1
  Na  Na1  1  0.36451538  0.36428857  0.25057677  1
  Na  Na2  1  0.99935667  0.63420462  0.25129277  1
  Na  Na3  1  0.30200629  0.33798260  0.58604329  1
  Na  Na4  1  0.66781318  0.96734263  0.58615276  1
  Na  Na5  1  0.29426785  0.96168859  0.08384812  1
  Na  Na6  1  0.00088020  0.98986926  0.50042355  1
  Na  Na7  1  0.98908201  0.00104524  0.99371105  1
  Na  Na8  1  0.66711415  0.33373488  0.82559133  1
  Na  Na9  1  0.66762327  0.33354494  0.33028526  1
  Na  Na10  1  0.33427262  0.65553976  0.16759249  1
  Na  Na11  1  0.32113745  0.66776149  0.66187845  1
  Nb  Nb0  1  0.66883020  0.33423783  0.97227303  1
  Nb  Nb1  1  0.66721031  0.33460303  0.48388745  1
  Nb  Nb2  1  0.33286323  0.66678143  0.81558749  1
  Ga  Ga0  1  0.99956370  0.99910259  0.33831247  1
  Ga  Ga1  1  0.00017818  0.99919245  0.85919634  1
  Ga  Ga2  1  0.00154962  0.99447541  0.64088865  1
  Ga  Ga3  1  0.99509272  0.00107421  0.16339253  1
  Ga  Ga4  1  0.66736079  0.33331096  0.67390104  1
  Ga  Ga5  1  0.66796003  0.33559875  0.19068951  1
  Ga  Ga6  1  0.33406661  0.66226377  0.00546752  1
  Ga  Ga7  1  0.32705251  0.66737838  0.52437959  1
  Ga  Ga8  1  0.33302997  0.66694947  0.30933385  1
  Si  Si0  1  0.29098712  0.00086524  0.24882213  1
  Si  Si1  1  0.70902526  0.70873690  0.25063778  1
  Si  Si2  1  0.00032129  0.29057478  0.25036918  1
  Si  Si3  1  0.96285629  0.33813031  0.58784555  1
  Si  Si4  1  0.37265946  0.03704632  0.58667071  1
  Si  Si5  1  0.66703381  0.62724090  0.58619211  1
  Si  Si6  1  0.62836702  0.67847890  0.91875335  1
  Si  Si7  1  0.04982698  0.37167953  0.91828180  1
  Si  Si8  1  0.32321722  0.95016352  0.92004691  1
  S  S0  1  0.29044170  0.28605459  0.74921776  1
  S  S1  1  0.99516764  0.71165274  0.74931319  1
  S  S2  1  0.71337758  0.00429381  0.74921800  1
  S  S3  1  0.95795936  0.62440251  0.08485878  1
  S  S4  1  0.66952646  0.04128462  0.08508980  1
  S  S5  1  0.37518462  0.33722506  0.08431575  1
  S  S6  1  0.62552904  0.95440845  0.41628253  1
  S  S7  1  0.32837557  0.37395344  0.41614638  1
  S  S8  1  0.04711003  0.67098991  0.41591463  1
  O  O0  1  0.21186159  0.05399019  0.30564507  1
  O  O1  1  0.84055640  0.78407892  0.30835785  1
  O  O2  1  0.94400096  0.15953179  0.30831114  1
  O  O3  1  0.20194379  0.18154560  0.80302554  1
  O  O4  1  0.97960603  0.79648724  0.80412757  1
  O  O5  1  0.81843883  0.01899439  0.80304423  1
  O  O6  1  0.78872448  0.97840193  0.69314320  1
  O  O7  1  0.18826568  0.21034555  0.69292768  1
  O  O8  1  0.02250543  0.81813256  0.69429671  1
  O  O9  1  0.78274775  0.83844236  0.19204842  1
  O  O10  1  0.05773063  0.21745506  0.19219557  1
  O  O11  1  0.16809508  0.95063154  0.18738538  1
  O  O12  1  0.87924266  0.37805008  0.64522311  1
  O  O13  1  0.50491802  0.11844554  0.64327327  1
  O  O14  1  0.61118337  0.49282465  0.64230252  1
  O  O15  1  0.87479113  0.52243631  0.14049384  1
  O  O16  1  0.64295911  0.12446124  0.13972294  1
  O  O17  1  0.47735216  0.35555674  0.14054441  1
  O  O18  1  0.47031938  0.31599503  0.03175578  1
  O  O19  1  0.84898808  0.52968247  0.03117461  1
  O  O20  1  0.68438860  0.15127311  0.03103286  1
  O  O21  1  0.46969608  0.17285524  0.52718334  1
  O  O22  1  0.70087329  0.53027985  0.52669627  1
  O  O23  1  0.82838308  0.29760605  0.52800025  1
  O  O24  1  0.54611201  0.70928645  0.97834149  1
  O  O25  1  0.16082209  0.45522531  0.97841496  1
  O  O26  1  0.29740212  0.84401443  0.98246977  1
  O  O27  1  0.53936265  0.85308929  0.47141630  1
  O  O28  1  0.31491922  0.46012606  0.47133101  1
  O  O29  1  0.15274737  0.68622150  0.46994753  1
  O  O30  1  0.12376366  0.64522775  0.36002673  1
  O  O31  1  0.51950810  0.87433375  0.36102225  1
  O  O32  1  0.35318404  0.48018556  0.36101852  1
  O  O33  1  0.13684690  0.50289620  0.85917322  1
  O  O34  1  0.36519307  0.85959098  0.86183014  1
  O  O35  1  0.49660551  0.63292508  0.85944621  1
  O  O36  1  0.02765458  0.82678573  0.41297369  1
  O  O37  1  0.80035147  0.97323326  0.41313365  1
  O  O38  1  0.17372612  0.19918651  0.41271409  1
  O  O39  1  0.01841292  0.18224148  0.90673739  1
  O  O40  1  0.16362325  0.97986483  0.90796670  1
  O  O41  1  0.81755339  0.83568630  0.90697530  1
  O  O42  1  0.97262782  0.15931551  0.59108808  1
  O  O43  1  0.19029957  0.03605409  0.58952299  1
  O  O44  1  0.83523130  0.81850346  0.58999046  1
  O  O45  1  0.97244186  0.79872904  0.08512568  1
  O  O46  1  0.82947708  0.02950236  0.08754970  1
  O  O47  1  0.20459640  0.17323064  0.08544848  1
  O  O48  1  0.69131144  0.15918568  0.74686266  1
  O  O49  1  0.46681852  0.30695233  0.74660476  1
  O  O50  1  0.84088612  0.53597080  0.74575905  1
  O  O51  1  0.68601294  0.51527248  0.24214365  1
  O  O52  1  0.82928771  0.31337298  0.24150755  1
  O  O53  1  0.48463767  0.17054936  0.24094693  1
  O  O54  1  0.63820574  0.49589319  0.92566096  1
  O  O55  1  0.85717441  0.36156789  0.92483948  1
  O  O56  1  0.50446110  0.14260988  0.92612021  1
  O  O57  1  0.64071379  0.13299489  0.41996882  1
  O  O58  1  0.49196667  0.35818487  0.41959966  1
  O  O59  1  0.86922188  0.50882667  0.42059995  1
  O  O60  1  0.35819846  0.49365591  0.07908552  1
  O  O61  1  0.13458742  0.64387310  0.08163126  1
  O  O62  1  0.50827995  0.86905317  0.08077593  1
  O  O63  1  0.36429680  0.85435221  0.57417096  1
  O  O64  1  0.49592922  0.64479420  0.57255482  1
  O  O65  1  0.15512917  0.49882724  0.57527370  1
  O  O66  1  0.31153762  0.82888482  0.25800107  1
  O  O67  1  0.51572158  0.68647818  0.25913249  1
  O  O68  1  0.17027137  0.48382070  0.25902283  1
  O  O69  1  0.30716127  0.46586466  0.75338574  1
  O  O70  1  0.15825485  0.69401054  0.75338908  1
  O  O71  1  0.53340154  0.84211239  0.75375009  1
loop_
_geom_bond_atom_site_label_1
_geom_bond_atom_site_label_2
_geom_bond_distance
_geom_bond_site_symmetry_2
Na0 O67 2.440486 1_545
Na0 O52 2.441449 1_555
Na0 O53 2.477418 1_555
Na0 O66 2.502988 1_545
Na0 O31 2.669474 1_545
Na0 O2 2.683519 1_555
Na0 O16 2.684197 1_555
Na0 O9 2.710568 1_545
Na1 O68 2.436936 1_555
Na1 O53 2.439774 1_555
Na1 O51 2.481286 1_555
Na1 O67 2.488447 1_555
Na1 O17 2.659233 1_555
Na1 O0 2.678612 1_555
Na1 O32 2.683352 1_555
Na1 O10 2.686297 1_555
Na2 O66 2.430316 1_655
Na2 O51 2.438664 1_555
Na2 O68 2.469754 1_655
Na2 O52 2.480768 1_555
Na2 O30 2.626463 1_655
Na2 O15 2.672674 1_555
Na2 O1 2.692285 1_555
Na2 O11 2.815770 1_655
Na3 O43 2.349098 1_555
Na3 O65 2.370526 1_555
Na3 O64 2.407385 1_555
Na3 O42 2.539299 1_455
Na3 O7 2.604099 1_555
Na3 O14 2.680155 1_555
Na3 O28 2.739436 1_555
Na3 O21 2.874846 1_555
Na4 O63 2.371255 1_555
Na4 O42 2.373659 1_565
Na4 O44 2.427003 1_555
Na4 O64 2.503257 1_555
Na4 O6 2.578818 1_555
Na4 O13 2.729162 1_565
Na4 O27 2.764351 1_555
Na4 O23 2.846447 1_565
Na5 O47 2.373130 1_565
Na5 O62 2.413293 1_555
Na5 O61 2.446345 1_555
Na5 O45 2.475180 1_455
Na5 O26 2.490252 1_554
Na5 O11 2.540506 1_555
Na6 O43 2.483974 1_565
Na6 O44 2.489058 1_455
Na6 O36 2.507705 1_555
Na6 O37 2.573258 1_455
Na6 O38 2.597309 1_565
Na6 O42 2.603633 1_465
Na7 O39 2.433724 1_655
Na7 O41 2.437121 1_545
Na7 O40 2.524846 1_645
Na7 O46 2.606586 1_556
Na7 O45 2.654487 1_546
Na7 O47 2.684034 1_656
Na8 O49 2.412008 1_555
Na8 O48 2.419990 1_555
Na8 O50 2.444551 1_555
Na8 O55 2.698850 1_555
Na8 O54 2.732982 1_555
Na8 O56 2.736809 1_555
Na9 O51 2.479639 1_555
Na9 O52 2.501272 1_555
Na9 O53 2.511023 1_555
Na9 O57 2.591616 1_555
Na9 O58 2.603346 1_555
Na9 O59 2.616893 1_555
Na10 O60 2.509809 1_555
Na10 O67 2.510922 1_555
Na10 O68 2.518980 1_555
Na10 O61 2.559154 1_555
Na10 O62 2.600762 1_555
Na10 O66 2.602391 1_555
Na11 O65 2.429613 1_555
Na11 O63 2.451296 1_555
Na11 O70 2.575647 1_555
Na11 O64 2.592901 1_555
Na11 O69 2.660230 1_555
Na11 O71 2.678629 1_555
Nb0 O54 1.887053 1_555
Nb0 O55 1.889125 1_555
Nb0 O56 1.896773 1_555
Nb0 O19 2.123205 1_556
Nb0 O20 2.131351 1_556
Nb0 O18 2.146098 1_556
Nb1 O22 1.871394 1_555
Nb1 O23 1.883110 1_555
Nb1 O21 1.885184 1_555
Nb1 O58 2.185319 1_555
Nb1 O59 2.195585 1_555
Nb1 O57 2.206501 1_555
Nb2 O35 1.884303 1_555
Nb2 O33 1.886956 1_555
Nb2 O34 1.893871 1_555
Nb2 O70 2.166096 1_555
Nb2 O71 2.171947 1_555
Nb2 O69 2.179506 1_555
Ga0 O2 1.840632 1_565
Ga0 O1 1.842552 1_555
Ga0 O0 1.845113 1_665
Ga0 O36 2.340713 1_655
Ga0 O38 2.351959 1_665
Ga0 O37 2.356650 1_555
Ga1 O41 1.875308 1_455
Ga1 O40 1.875911 1_555
Ga1 O39 1.878677 1_565
Ga1 O5 2.103576 1_465
Ga1 O4 2.110128 1_455
Ga1 O3 2.120363 1_565
Ga2 O44 1.895884 1_455
Ga2 O43 1.907441 1_565
Ga2 O42 1.941648 1_465
Ga2 O8 2.035863 1_555
Ga2 O7 2.141727 1_565
Ga2 O6 2.163169 1_455
Ga3 O9 1.825578 1_545
Ga3 O10 1.829990 1_655
Ga3 O11 1.870710 1_645
Ga3 O46 2.318195 1_555
Ga3 O45 2.438534 1_545
Ga3 O47 2.441303 1_655
Ga4 O12 1.832828 1_555
Ga4 O14 1.849738 1_555
Ga4 O13 1.854863 1_555
Ga4 O48 2.310177 1_555
Ga4 O50 2.321321 1_555
Ga4 O49 2.330829 1_555
Ga5 O52 1.899225 1_555
Ga5 O51 1.905686 1_555
Ga5 O53 1.914509 1_555
Ga5 O15 2.081122 1_555
Ga5 O17 2.094933 1_555
Ga5 O16 2.107383 1_555
Ga6 O25 1.813089 1_554
Ga6 O24 1.816419 1_554
Ga6 O26 1.862852 1_554
Ga6 O60 2.286689 1_555
Ga6 O62 2.392400 1_555
Ga6 O61 2.398694 1_555
Ga7 O63 1.884130 1_555
Ga7 O65 1.889154 1_555
Ga7 O64 1.921826 1_555
Ga7 O29 2.024450 1_555
Ga7 O27 2.135120 1_555
Ga7 O28 2.144806 1_555
Ga8 O67 1.906035 1_555
Ga8 O68 1.906452 1_555
Ga8 O66 1.908506 1_555
Ga8 O32 2.086996 1_555
Ga8 O31 2.099113 1_555
Ga8 O30 2.099844 1_555
O0 Si0 1.627368 1_555
O1 Si1 1.630754 1_555
O2 Si2 1.632369 1_655
O3 S0 1.474710 1_555
O4 S1 1.476024 1_555
O5 S2 1.474603 1_555
O6 S2 1.487138 1_565
O7 S0 1.489759 1_555
O8 S1 1.483698 1_455
O9 Si1 1.638443 1_555
O10 Si2 1.640057 1_555
O11 Si0 1.656938 1_565
O12 Si3 1.603664 1_555
O13 Si4 1.618744 1_555
O14 Si5 1.618035 1_555
O15 S3 1.489803 1_555
O16 S4 1.501386 1_555
O17 S5 1.497174 1_555
O18 S5 1.509301 1_555
O19 S3 1.498553 1_555
O20 S4 1.505254 1_555
O21 Si4 1.702081 1_555
O22 Si5 1.686642 1_555
O23 Si3 1.693758 1_555
O24 Si6 1.602190 1_555
O25 Si7 1.601391 1_555
O26 Si8 1.621417 1_555
O27 S6 1.484166 1_555
O28 S7 1.483000 1_555
O29 S8 1.480233 1_555
O30 S8 1.489411 1_555
O31 S6 1.490120 1_555
O32 S7 1.487963 1_555
O33 Si7 1.664422 1_555
O34 Si8 1.663001 1_555
O35 Si6 1.665168 1_555
O36 S8 1.475574 1_555
O37 S6 1.475244 1_555
O38 S7 1.474819 1_555
O39 Si7 1.582375 1_555
O40 Si8 1.582516 1_555
O41 Si6 1.581514 1_555
O42 Si3 1.631289 1_555
O43 Si4 1.613001 1_555
O44 Si5 1.610312 1_555
O45 S3 1.486114 1_555
O46 S4 1.472454 1_555
O47 S5 1.488647 1_555
O48 S2 1.480758 1_555
O49 S0 1.480914 1_555
O50 S1 1.478448 1_555
O51 Si1 1.635629 1_555
O52 Si2 1.635686 1_655
O53 Si0 1.635321 1_555
O54 Si6 1.669956 1_555
O55 Si7 1.671467 1_655
O56 Si8 1.669154 1_545
O57 S6 1.523717 1_545
O58 S7 1.525063 1_555
O59 S8 1.520301 1_655
O60 S5 1.471367 1_555
O61 S3 1.488905 1_455
O62 S4 1.488189 1_565
O63 Si4 1.609980 1_565
O64 Si5 1.625239 1_555
O65 Si3 1.612513 1_455
O66 Si0 1.634385 1_565
O67 Si1 1.635772 1_555
O68 Si2 1.636115 1_555
O69 S0 1.529407 1_555
O70 S1 1.530699 1_455
O71 S2 1.530709 1_565
