# generated using pymatgen
data_Na2TiSiSn(PO6)2
_symmetry_space_group_name_H-M   'P 1'
_cell_length_a   8.81470787
_cell_length_b   8.80515790
_cell_length_c   22.53932703
_cell_angle_alpha   89.99970827
_cell_angle_beta   90.10142479
_cell_angle_gamma   119.80984430
_symmetry_Int_Tables_number   1
_chemical_formula_structural   Na2TiSiSn(PO6)2
_chemical_formula_sum   'Na12 Ti6 Si6 Sn6 P12 O72'
_cell_volume   1517.90548124
_cell_formula_units_Z   6
loop_
 _symmetry_equiv_pos_site_id
 _symmetry_equiv_pos_as_xyz
  1  'x, y, z'
loop_
 _atom_site_type_symbol
 _atom_site_label
 _atom_site_symmetry_multiplicity
 _atom_site_fract_x
 _atom_site_fract_y
 _atom_site_fract_z
 _atom_site_occupancy
  Na  Na0  1  0.00062989  0.63281148  0.25033278  1
  Na  Na1  1  0.36760347  0.00163105  0.75003481  1
  Na  Na2  1  0.66602199  0.96652461  0.58370442  1
  Na  Na3  1  0.03038434  0.33306437  0.08510202  1
  Na  Na4  1  0.97189515  0.66935016  0.91811181  1
  Na  Na5  1  0.33308207  0.03233239  0.41738522  1
  Na  Na6  1  0.00105214  0.99886805  0.50018273  1
  Na  Na7  1  0.00209547  0.99779249  0.00090752  1
  Na  Na8  1  0.66527329  0.33009108  0.83239148  1
  Na  Na9  1  0.66983762  0.33414748  0.33489482  1
  Na  Na10  1  0.34068297  0.67091886  0.16667884  1
  Na  Na11  1  0.32944451  0.65719511  0.66549671  1
  Ti  Ti0  1  0.99289521  0.00238546  0.35404859  1
  Ti  Ti1  1  0.00318761  0.99918501  0.64719859  1
  Ti  Ti2  1  0.99953072  0.99503537  0.14780327  1
  Ti  Ti3  1  0.66930720  0.32758383  0.68469475  1
  Ti  Ti4  1  0.66995655  0.34199611  0.48201153  1
  Ti  Ti5  1  0.32270311  0.66808016  0.51979876  1
  Si  Si0  1  0.00042302  0.28574096  0.24918967  1
  Si  Si1  1  0.71304535  0.00110625  0.74786019  1
  Si  Si2  1  0.37389540  0.04626648  0.58236402  1
  Si  Si3  1  0.95832328  0.63005378  0.08338149  1
  Si  Si4  1  0.33621382  0.96344786  0.91550584  1
  Si  Si5  1  0.03576210  0.66321231  0.41640517  1
  Sn  Sn0  1  0.00043215  0.00553326  0.85160299  1
  Sn  Sn1  1  0.66500191  0.32975388  0.18628442  1
  Sn  Sn2  1  0.66102291  0.32939831  0.98156953  1
  Sn  Sn3  1  0.33492634  0.67307662  0.01921849  1
  Sn  Sn4  1  0.33324588  0.66149025  0.31488069  1
  Sn  Sn5  1  0.33840772  0.66788233  0.81308523  1
  P  P0  1  0.28784302  0.00372944  0.25096562  1
  P  P1  1  0.71270084  0.71665574  0.25027018  1
  P  P2  1  0.29095729  0.29128470  0.74806699  1
  P  P3  1  0.99294786  0.70457868  0.74895729  1
  P  P4  1  0.95682882  0.33586858  0.58311405  1
  P  P5  1  0.66571947  0.61973884  0.58425546  1
  P  P6  1  0.66707247  0.03839425  0.08416615  1
  P  P7  1  0.37286413  0.33091807  0.08409181  1
  P  P8  1  0.62377883  0.66655893  0.91701994  1
  P  P9  1  0.04344685  0.37403560  0.91724396  1
  P  P10  1  0.62491060  0.95662647  0.41826656  1
  P  P11  1  0.33385818  0.37780235  0.41846192  1
  O  O0  1  0.20362886  0.02746440  0.30731138  1
  O  O1  1  0.83098414  0.79832615  0.30536304  1
  O  O2  1  0.97380398  0.16130743  0.30724163  1
  O  O3  1  0.22004641  0.17601690  0.80453624  1
  O  O4  1  0.96459200  0.78093548  0.80732210  1
  O  O5  1  0.82787818  0.04086758  0.80769622  1
  O  O6  1  0.80700335  0.97323838  0.68949885  1
  O  O7  1  0.17092224  0.19889775  0.69447849  1
  O  O8  1  0.03257588  0.83237012  0.69614931  1
  O  O9  1  0.80037799  0.82755049  0.19477834  1
  O  O10  1  0.02618854  0.19331438  0.19024777  1
  O  O11  1  0.16936489  0.96782770  0.19576938  1
  O  O12  1  0.87023509  0.36524260  0.63845808  1
  O  O13  1  0.50199504  0.13443942  0.64075934  1
  O  O14  1  0.63964701  0.50397834  0.63861090  1
  O  O15  1  0.87901824  0.50463840  0.14218900  1
  O  O16  1  0.62797506  0.11673575  0.13926313  1
  O  O17  1  0.48781367  0.36792244  0.13984363  1
  O  O18  1  0.44873918  0.29487432  0.02813752  1
  O  O19  1  0.84326454  0.54756696  0.02288565  1
  O  O20  1  0.70950523  0.15765578  0.02880698  1
  O  O21  1  0.46986927  0.16517826  0.52399983  1
  O  O22  1  0.69680864  0.53380183  0.52851550  1
  O  O23  1  0.83555172  0.30073398  0.52882996  1
  O  O24  1  0.54592545  0.69886514  0.97280328  1
  O  O25  1  0.15216972  0.44977193  0.97433690  1
  O  O26  1  0.28659478  0.83507097  0.97278072  1
  O  O27  1  0.53983482  0.84098373  0.47346935  1
  O  O28  1  0.30475473  0.46762331  0.47204447  1
  O  O29  1  0.17229141  0.70040198  0.47289928  1
  O  O30  1  0.11786646  0.62951752  0.35646220  1
  O  O31  1  0.50724437  0.88052532  0.36198074  1
  O  O32  1  0.37407932  0.48789496  0.36112500  1
  O  O33  1  0.12252912  0.49238719  0.86198174  1
  O  O34  1  0.36729075  0.88091392  0.85490848  1
  O  O35  1  0.51109018  0.62855265  0.86090931  1
  O  O36  1  0.02943223  0.84515855  0.40945105  1
  O  O37  1  0.80657431  0.97356260  0.40990932  1
  O  O38  1  0.17151867  0.19204983  0.41053256  1
  O  O39  1  0.02388810  0.19167903  0.91244793  1
  O  O40  1  0.15339899  0.97094904  0.91064576  1
  O  O41  1  0.80922543  0.82893354  0.91162061  1
  O  O42  1  0.96925988  0.16714645  0.59029116  1
  O  O43  1  0.18077174  0.02259043  0.59238202  1
  O  O44  1  0.82901159  0.80613797  0.59025761  1
  O  O45  1  0.97875535  0.82258226  0.09267086  1
  O  O46  1  0.83580159  0.02812532  0.09120826  1
  O  O47  1  0.18804769  0.17067332  0.09111305  1
  O  O48  1  0.68568341  0.17314217  0.74008577  1
  O  O49  1  0.47279468  0.30797112  0.74043784  1
  O  O50  1  0.83206223  0.52482939  0.74066539  1
  O  O51  1  0.69689295  0.53278568  0.24528204  1
  O  O52  1  0.82815792  0.31190119  0.24700615  1
  O  O53  1  0.47003566  0.16808963  0.24494658  1
  O  O54  1  0.65050405  0.50520643  0.92129133  1
  O  O55  1  0.86332129  0.36500105  0.92201376  1
  O  O56  1  0.50991582  0.15462585  0.92078373  1
  O  O57  1  0.63935249  0.13840826  0.42496082  1
  O  O58  1  0.49419159  0.34998849  0.42539043  1
  O  O59  1  0.84549232  0.49132332  0.42740271  1
  O  O60  1  0.35143402  0.49491828  0.07774465  1
  O  O61  1  0.14717862  0.63550898  0.07923980  1
  O  O62  1  0.50582149  0.85616966  0.07846426  1
  O  O63  1  0.36504150  0.85420496  0.57494674  1
  O  O64  1  0.50515018  0.64422376  0.57585483  1
  O  O65  1  0.13989681  0.49761276  0.57557328  1
  O  O66  1  0.30469119  0.83556365  0.25484411  1
  O  O67  1  0.52992180  0.69896107  0.25519161  1
  O  O68  1  0.17175867  0.48347000  0.25322248  1
  O  O69  1  0.30340744  0.47163060  0.75408917  1
  O  O70  1  0.16383687  0.69333304  0.75352394  1
  O  O71  1  0.51439958  0.83070180  0.75110834  1
loop_
_geom_bond_atom_site_label_1
_geom_bond_atom_site_label_2
_geom_bond_distance
_geom_bond_site_symmetry_2
Na0 O51 2.368821 1_455
Na0 O66 2.371229 1_555
Na0 O68 2.445534 1_555
Na0 O52 2.455560 1_455
Na0 O30 2.609960 1_555
Na0 O15 2.674341 1_455
Na0 O11 2.840881 1_555
Na0 O1 2.841119 1_455
Na1 O49 2.386708 1_555
Na1 O70 2.398782 1_545
Na1 O71 2.424110 1_545
Na1 O48 2.446322 1_555
Na1 O34 2.591213 1_545
Na1 O13 2.733157 1_555
Na1 O3 2.747705 1_555
Na1 O8 2.833524 1_545
Na2 O63 2.333488 1_555
Na2 O42 2.364581 1_565
Na2 O64 2.468577 1_555
Na2 O44 2.469183 1_555
Na2 O6 2.674004 1_555
Na2 O27 2.720344 1_555
Na2 O23 2.838485 1_565
Na2 O13 2.839410 1_565
Na3 O61 2.333217 1_555
Na3 O46 2.364788 1_455
Na3 O47 2.443238 1_555
Na3 O60 2.461497 1_555
Na3 O10 2.662156 1_555
Na3 O25 2.711816 1_554
Na3 O20 2.763970 1_455
Na3 O15 2.779989 1_455
Na4 O40 2.327447 1_655
Na4 O55 2.357020 1_555
Na4 O54 2.459579 1_555
Na4 O41 2.460569 1_555
Na4 O19 2.610155 1_556
Na4 O4 2.695817 1_555
Na4 O26 2.702959 1_655
Na4 O33 2.802599 1_655
Na5 O36 2.350474 1_545
Na5 O57 2.383520 1_555
Na5 O58 2.433605 1_555
Na5 O38 2.453631 1_555
Na5 O21 2.680314 1_555
Na5 O0 2.720403 1_555
Na5 O31 2.783891 1_545
Na5 O29 2.829182 1_545
Na6 O36 2.532784 1_555
Na6 O43 2.555609 1_565
Na6 O38 2.589162 1_565
Na6 O37 2.595428 1_455
Na6 O44 2.598768 1_455
Na6 O42 2.610327 1_465
Na7 O40 2.509300 1_554
Na7 O45 2.527076 1_455
Na7 O39 2.569439 1_564
Na7 O41 2.574046 1_454
Na7 O47 2.577822 1_565
Na7 O46 2.600449 1_465
Na8 O56 2.477431 1_555
Na8 O48 2.553282 1_555
Na8 O54 2.570989 1_555
Na8 O55 2.583907 1_555
Na8 O49 2.621277 1_555
Na8 O50 2.623030 1_555
Na9 O52 2.488307 1_555
Na9 O59 2.553095 1_555
Na9 O57 2.589429 1_555
Na9 O53 2.603272 1_555
Na9 O51 2.604344 1_555
Na9 O58 2.608238 1_555
Na10 O68 2.512589 1_555
Na10 O61 2.519929 1_555
Na10 O62 2.526342 1_555
Na10 O67 2.530274 1_555
Na10 O60 2.564254 1_555
Na10 O66 2.571149 1_555
Na11 O71 2.495585 1_555
Na11 O69 2.517618 1_555
Na11 O65 2.554962 1_555
Na11 O70 2.576987 1_555
Na11 O64 2.584774 1_555
Na11 O63 2.595018 1_555
O0 P0 1.537919 1_555
O0 Ti0 2.051359 1_455
O1 P1 1.547946 1_555
O1 Ti0 1.978465 1_565
O2 Si0 1.647129 1_655
O2 Ti0 1.825639 1_555
O3 P2 1.553332 1_555
O3 Sn0 2.060170 1_555
O4 P3 1.553484 1_555
O4 Sn0 2.093953 1_665
O5 Si1 1.615203 1_555
O5 Sn0 1.963368 1_655
O6 Si1 1.637806 1_565
O6 Ti1 1.888049 1_655
O7 P2 1.542688 1_555
O7 Ti1 1.955354 1_545
O8 P3 1.554196 1_455
O8 Ti1 1.954267 1_555
O9 P1 1.538902 1_555
O9 Ti2 1.951962 1_555
O10 Si0 1.632082 1_555
O10 Ti2 1.899963 1_445
O11 P0 1.550972 1_565
O11 Ti2 1.954019 1_455
O12 P4 1.550881 1_555
O12 Ti3 1.937913 1_555
O13 Si2 1.653258 1_555
O13 Ti3 1.883903 1_555
O14 P5 1.536490 1_555
O14 Ti3 1.990573 1_555
O15 Si3 1.643411 1_555
O15 Sn1 2.009043 1_555
O16 P6 1.541001 1_555
O16 Sn1 2.034206 1_555
O17 P7 1.542449 1_555
O17 Sn1 2.040622 1_555
O18 P7 1.533827 1_555
O18 Sn2 2.033949 1_554
O19 Si3 1.636489 1_555
O19 Sn2 2.016080 1_554
O20 P6 1.552632 1_555
O20 Sn2 2.060083 1_554
O21 Si2 1.632707 1_555
O21 Ti4 1.925110 1_555
O22 P5 1.559958 1_555
O22 Ti4 1.899655 1_555
O23 P4 1.549868 1_555
O23 Ti4 1.974343 1_555
O24 P8 1.526389 1_555
O24 Sn3 2.047493 1_556
O25 P9 1.542510 1_555
O25 Sn3 2.080754 1_556
O26 Si4 1.626653 1_555
O26 Sn3 1.978433 1_556
O27 P10 1.546419 1_555
O27 Ti5 2.044851 1_555
O28 P11 1.533859 1_555
O28 Ti5 2.005181 1_555
O29 Si5 1.667247 1_555
O29 Ti5 1.823857 1_555
O30 Si5 1.629158 1_555
O30 Sn4 2.009194 1_555
O31 P10 1.561597 1_555
O31 Sn4 2.062101 1_555
O32 P11 1.547719 1_555
O32 Sn4 2.024365 1_555
O33 P9 1.550538 1_555
O33 Sn5 2.075413 1_555
O34 Si4 1.633373 1_555
O34 Sn5 1.999083 1_555
O35 P8 1.537264 1_555
O35 Sn5 2.029051 1_555
O36 Si5 1.638028 1_555
O36 Ti0 2.005369 1_465
O37 P10 1.544528 1_555
O37 Ti0 1.984921 1_565
O38 P11 1.557833 1_555
O38 Ti0 2.065784 1_455
O39 P9 1.531115 1_555
O39 Sn0 2.066892 1_555
O40 Si4 1.648745 1_555
O40 Sn0 2.020809 1_565
O41 P8 1.551799 1_555
O41 Sn0 2.119180 1_665
O42 P4 1.551465 1_555
O42 Ti1 2.088118 1_645
O43 Si2 1.625080 1_555
O43 Ti1 1.924950 1_545
O44 P5 1.560249 1_555
O44 Ti1 2.071715 1_655
O45 Si3 1.626787 1_555
O45 Ti2 1.899004 1_555
O46 P6 1.542172 1_555
O46 Ti2 2.050985 1_545
O47 P7 1.544471 1_555
O47 Ti2 2.058667 1_445
O48 Si1 1.657288 1_555
O48 Ti3 1.903504 1_555
O49 P2 1.545022 1_555
O49 Ti3 2.078268 1_555
O50 P3 1.522675 1_555
O50 Ti3 2.045085 1_555
O51 P1 1.558487 1_555
O51 Sn1 2.131271 1_555
O52 Si0 1.645818 1_655
O52 Sn1 2.045481 1_555
O53 P0 1.543356 1_555
O53 Sn1 2.074550 1_555
O54 P8 1.554327 1_555
O54 Sn2 2.095966 1_555
O55 P9 1.553665 1_655
O55 Sn2 2.129002 1_555
O56 Si4 1.621402 1_545
O56 Sn2 1.993748 1_555
O57 P10 1.548643 1_545
O57 Ti4 2.111341 1_555
O58 P11 1.557277 1_555
O58 Ti4 2.033575 1_555
O59 Si5 1.625644 1_655
O59 Ti4 1.903131 1_555
O60 P7 1.553234 1_555
O60 Sn3 2.109126 1_555
O61 Si3 1.644175 1_455
O61 Sn3 2.035206 1_555
O62 P6 1.530739 1_565
O62 Sn3 2.056647 1_555
O63 Si2 1.662137 1_565
O63 Ti5 1.939189 1_555
O64 P5 1.545331 1_555
O64 Ti5 2.134366 1_555
O65 P4 1.541812 1_455
O65 Ti5 2.008054 1_555
O66 P0 1.562319 1_565
O66 Sn4 2.150840 1_555
O67 P1 1.543832 1_555
O67 Sn4 2.088993 1_555
O68 Si0 1.644870 1_555
O68 Sn4 2.046763 1_555
O69 P2 1.542339 1_555
O69 Sn5 2.077970 1_555
O70 P3 1.561153 1_455
O70 Sn5 2.134447 1_555
O71 Si1 1.646507 1_565
O71 Sn5 2.051760 1_555
