# generated using pymatgen
data_MgZr(MoO4)2
_symmetry_space_group_name_H-M   'P 1'
_cell_length_a   5.87936333
_cell_length_b   6.03048159
_cell_length_c   6.03048159
_cell_angle_alpha   56.69119691
_cell_angle_beta   89.61501806
_cell_angle_gamma   89.61501806
_symmetry_Int_Tables_number   1
_chemical_formula_structural   MgZr(MoO4)2
_chemical_formula_sum   'Mg1 Zr1 Mo2 O8'
_cell_volume   178.68330931
_cell_formula_units_Z   1
loop_
 _symmetry_equiv_pos_site_id
 _symmetry_equiv_pos_as_xyz
  1  'x, y, z'
loop_
 _atom_site_type_symbol
 _atom_site_label
 _atom_site_symmetry_multiplicity
 _atom_site_fract_x
 _atom_site_fract_y
 _atom_site_fract_z
 _atom_site_occupancy
  Mg  Mg0  1  0.50000000  0.00000000  0.00000000  1
  Zr  Zr0  1  0.00000000  0.00000000  0.00000000  1
  Mo  Mo0  1  0.67468800  0.32649000  0.32649000  1
  Mo  Mo1  1  0.32531200  0.67351000  0.67351000  1
  O  O0  1  0.24815600  0.83034900  0.30835200  1
  O  O1  1  0.24815600  0.30835200  0.83034900  1
  O  O2  1  0.75184400  0.16965100  0.69164800  1
  O  O3  1  0.75184400  0.69164800  0.16965100  1
  O  O4  1  0.77910400  0.15354700  0.15354700  1
  O  O5  1  0.22089600  0.84645300  0.84645300  1
  O  O6  1  0.38116100  0.29887900  0.29887900  1
  O  O7  1  0.61883900  0.70112100  0.70112100  1
loop_
_geom_bond_atom_site_label_1
_geom_bond_atom_site_label_2
_geom_bond_distance
_geom_bond_site_symmetry_2
Mg0 O0 2.142617 1_545
Mg0 O1 2.142617 1_554
Mg0 O3 2.142617 1_545
Mg0 O2 2.142617 1_554
Mg0 O4 2.321653 1_555
Mg0 O5 2.321653 1_544
Mo0 O6 1.752667 1_555
Mo0 O3 1.915634 1_555
Mo0 O2 1.915634 1_555
Mo0 O4 1.931242 1_555
Mo1 O7 1.752667 1_555
Mo1 O1 1.915634 1_555
Mo1 O0 1.915634 1_555
Mo1 O5 1.931242 1_555
O0 Zr0 2.135442 1_565
O1 Zr0 2.135442 1_556
O2 Zr0 2.135442 1_656
O3 Zr0 2.135442 1_665
O4 Zr0 2.076265 1_655
O5 Zr0 2.076265 1_566
