# generated using pymatgen
data_MgW2(OF4)2
_symmetry_space_group_name_H-M   'P 1'
_cell_length_a   5.52838921
_cell_length_b   6.73324174
_cell_length_c   6.30305038
_cell_angle_alpha   101.81019516
_cell_angle_beta   110.67597857
_cell_angle_gamma   94.02037719
_symmetry_Int_Tables_number   1
_chemical_formula_structural   MgW2(OF4)2
_chemical_formula_sum   'Mg1 W2 O2 F8'
_cell_volume   212.25346708
_cell_formula_units_Z   1
loop_
 _symmetry_equiv_pos_site_id
 _symmetry_equiv_pos_as_xyz
  1  'x, y, z'
loop_
 _atom_site_type_symbol
 _atom_site_label
 _atom_site_symmetry_multiplicity
 _atom_site_fract_x
 _atom_site_fract_y
 _atom_site_fract_z
 _atom_site_occupancy
  Mg  Mg0  1  0.50000000  0.00000000  0.00000000  1
  W  W0  1  0.09249900  0.25692900  0.22293400  1
  W  W1  1  0.90750100  0.74307100  0.77706600  1
  O  O0  1  0.97438700  0.49555700  0.74919800  1
  O  O1  1  0.02561300  0.50444300  0.25080200  1
  F  F0  1  0.17928800  0.89443000  0.70024100  1
  F  F1  1  0.18785900  0.90438500  0.10301000  1
  F  F2  1  0.36506000  0.25042700  0.51227100  1
  F  F3  1  0.63008800  0.74006100  0.91789400  1
  F  F4  1  0.36991200  0.25993900  0.08210600  1
  F  F5  1  0.63494000  0.74957300  0.48772900  1
  F  F6  1  0.81214100  0.09561500  0.89699000  1
  F  F7  1  0.82071200  0.10557000  0.29975900  1
loop_
_geom_bond_atom_site_label_1
_geom_bond_atom_site_label_2
_geom_bond_distance
_geom_bond_site_symmetry_2
O0 W1 1.719737 1_555
O1 W0 1.719737 1_555
F0 W1 2.007944 1_455
F0 Mg0 2.031404 1_566
F1 W1 2.098732 1_454
F1 Mg0 2.149508 1_565
F1 W0 2.491274 1_565
F2 W0 1.923467 1_555
F3 Mg0 1.979118 1_566
F3 W1 2.026014 1_555
F4 Mg0 1.979118 1_555
F4 W0 2.026014 1_555
F5 W1 1.923467 1_555
F6 W0 2.098732 1_656
F6 Mg0 2.149508 1_556
F6 W1 2.491274 1_545
F7 W0 2.007944 1_655
F7 Mg0 2.031404 1_555
