# generated using pymatgen
data_V2CdO4
_symmetry_space_group_name_H-M   'P 1'
_cell_length_a   6.27413272
_cell_length_b   6.10372398
_cell_length_c   6.10259185
_cell_angle_alpha   61.84770848
_cell_angle_beta   59.07178389
_cell_angle_gamma   59.07916836
_symmetry_Int_Tables_number   1
_chemical_formula_structural   V2CdO4
_chemical_formula_sum   'V4 Cd2 O8'
_cell_volume   164.98792274
_cell_formula_units_Z   2
loop_
 _symmetry_equiv_pos_site_id
 _symmetry_equiv_pos_as_xyz
  1  'x, y, z'
loop_
 _atom_site_type_symbol
 _atom_site_label
 _atom_site_symmetry_multiplicity
 _atom_site_fract_x
 _atom_site_fract_y
 _atom_site_fract_z
 _atom_site_occupancy
  V  V0  1  0.50000233  -0.00000183  0.49999883  1
  V  V1  1  0.00000380  0.49999891  0.49999750  1
  V  V2  1  0.49999735  0.50000075  0.00000243  1
  V  V3  1  0.49999994  0.50000313  0.49999979  1
  Cd  Cd0  1  0.12503286  0.12513522  0.12494792  1
  Cd  Cd1  1  0.87496606  0.87486762  0.87504570  1
  O  O0  1  0.72084911  0.73037110  0.74663132  1
  O  O1  1  0.25352368  0.27968480  0.69774541  1
  O  O2  1  0.26967517  0.69797730  0.27945417  1
  O  O3  1  0.69790872  0.25300257  0.26905329  1
  O  O4  1  0.73031980  0.30202304  0.72054993  1
  O  O5  1  0.30208961  0.74699991  0.73095065  1
  O  O6  1  0.27915091  0.26962320  0.25337121  1
  O  O7  1  0.74647965  0.72031428  0.30225085  1
loop_
_geom_bond_atom_site_label_1
_geom_bond_atom_site_label_2
_geom_bond_distance
_geom_bond_site_symmetry_2
Cd0 O6 2.152808 1_555
Cd0 O1 2.153349 1_554
Cd0 O2 2.153722 1_545
Cd0 O3 2.153997 1_455
Cd1 O0 2.152802 1_555
Cd1 O7 2.153364 1_556
Cd1 O4 2.153705 1_565
Cd1 O5 2.153997 1_655
O0 V2 2.009078 1_556
O0 V1 2.016547 1_655
O0 V0 2.087229 1_565
O1 V1 2.009543 1_555
O1 V0 2.018567 1_555
O1 V3 2.084145 1_555
O2 V3 2.007458 1_555
O2 V2 2.018307 1_555
O2 V1 2.088085 1_555
O3 V0 2.007704 1_555
O3 V3 2.020726 1_555
O3 V2 2.084856 1_555
O4 V3 2.007452 1_555
O4 V2 2.018315 1_556
O4 V1 2.088133 1_655
O5 V0 2.007703 1_565
O5 V3 2.020727 1_555
O5 V2 2.084846 1_556
O6 V2 2.009085 1_555
O6 V1 2.016525 1_555
O6 V0 2.087226 1_555
O7 V1 2.009558 1_655
O7 V0 2.018560 1_565
O7 V3 2.084127 1_555
