# generated using pymatgen
data_MgCo3TeO8
_symmetry_space_group_name_H-M   'P 1'
_cell_length_a   5.94683781
_cell_length_b   6.00472717
_cell_length_c   6.12736995
_cell_angle_alpha   61.18996795
_cell_angle_beta   119.05003667
_cell_angle_gamma   119.71429469
_symmetry_Int_Tables_number   1
_chemical_formula_structural   MgCo3TeO8
_chemical_formula_sum   'Mg1 Co3 Te1 O8'
_cell_volume   157.51807792
_cell_formula_units_Z   1
loop_
 _symmetry_equiv_pos_site_id
 _symmetry_equiv_pos_as_xyz
  1  'x, y, z'
loop_
 _atom_site_type_symbol
 _atom_site_label
 _atom_site_symmetry_multiplicity
 _atom_site_fract_x
 _atom_site_fract_y
 _atom_site_fract_z
 _atom_site_occupancy
  Mg  Mg0  1  0.86280300  0.14248700  0.58480900  1
  Co  Co0  1  0.50089000  0.50267300  0.00876700  1
  Co  Co1  1  0.49485400  0.99433200  0.99773800  1
  Co  Co2  1  0.01175800  0.50330900  0.00564600  1
  Te  Te0  1  0.49822000  0.50425500  0.49356800  1
  O  O0  1  0.73164500  0.72638700  0.73586500  1
  O  O1  1  0.72950000  0.27412600  0.73349000  1
  O  O2  1  0.26142000  0.70250900  0.81634800  1
  O  O3  1  0.27709800  0.27235400  0.73430100  1
  O  O4  1  0.71943000  0.72442500  0.26124800  1
  O  O5  1  0.73655800  0.28180600  0.19115200  1
  O  O6  1  0.26260800  0.72199700  0.26103100  1
  O  O7  1  0.27035800  0.28029200  0.25937000  1
loop_
_geom_bond_atom_site_label_1
_geom_bond_atom_site_label_2
_geom_bond_distance
_geom_bond_site_symmetry_2
Mg0 O5 2.000190 1_555
Mg0 O1 2.024804 1_555
Mg0 O3 2.027152 1_655
Mg0 O0 2.061090 1_545
Co0 O2 1.886247 1_554
Co0 O5 1.965980 1_555
Co0 O4 2.042728 1_555
Co0 O7 2.067307 1_555
Co0 O0 2.172508 1_554
Co0 O3 2.180741 1_554
Co1 O2 2.049447 1_555
Co1 O5 2.075574 1_566
Co1 O4 2.132328 1_556
Co1 O6 2.136946 1_556
Co1 O3 2.141367 1_565
Co1 O1 2.153985 1_565
Co2 O2 1.885501 1_554
Co2 O5 1.982662 1_455
Co2 O6 2.042058 1_555
Co2 O7 2.070860 1_555
Co2 O1 2.166974 1_454
Co2 O0 2.169205 1_454
O0 Te0 1.995465 1_555
O1 Te0 1.981159 1_555
O3 Te0 1.983120 1_555
O4 Te0 1.945602 1_555
O6 Te0 1.945423 1_555
O7 Te0 1.966998 1_555
