# generated using pymatgen
data_Na15CaTa11(SiO4)18
_symmetry_space_group_name_H-M   'P 1'
_cell_length_a   9.04952228
_cell_length_b   9.04874051
_cell_length_c   22.65265542
_cell_angle_alpha   90.13247686
_cell_angle_beta   89.87024489
_cell_angle_gamma   120.17664069
_symmetry_Int_Tables_number   1
_chemical_formula_structural   Na15CaTa11(SiO4)18
_chemical_formula_sum   'Na15 Ca1 Ta11 Si18 O72'
_cell_volume   1603.56381216
_cell_formula_units_Z   1
loop_
 _symmetry_equiv_pos_site_id
 _symmetry_equiv_pos_as_xyz
  1  'x, y, z'
loop_
 _atom_site_type_symbol
 _atom_site_label
 _atom_site_symmetry_multiplicity
 _atom_site_fract_x
 _atom_site_fract_y
 _atom_site_fract_z
 _atom_site_occupancy
  Na  Na0  1  0.36520931  0.36483912  0.25100724  1
  Na  Na1  1  0.63268049  0.61642539  0.74515601  1
  Na  Na2  1  0.98326844  0.36793912  0.74523662  1
  Na  Na3  1  0.38503255  0.01659280  0.74500753  1
  Na  Na4  1  0.31340905  0.33838991  0.58329953  1
  Na  Na5  1  0.02448523  0.68601719  0.58331793  1
  Na  Na6  1  0.66145478  0.97513702  0.58330311  1
  Na  Na7  1  0.30135140  0.96861500  0.08473780  1
  Na  Na8  1  0.69952466  0.03416854  0.91769840  1
  Na  Na9  1  0.00042566  0.00022561  0.49368733  1
  Na  Na10  1  0.00027656  0.00047794  0.00240802  1
  Na  Na11  1  0.66582755  0.33973325  0.83029312  1
  Na  Na12  1  0.67443984  0.33232852  0.33424897  1
  Na  Na13  1  0.33382073  0.66703662  0.16856379  1
  Na  Na14  1  0.33346905  0.66691108  0.66469945  1
  Ca  Ca0  1  0.66680313  0.33340698  0.68265961  1
  Ta  Ta0  1  0.99908367  0.99975328  0.35458702  1
  Ta  Ta1  1  0.00416049  0.99969835  0.85784688  1
  Ta  Ta2  1  0.00001252  0.99991665  0.64623038  1
  Ta  Ta3  1  0.99513253  0.99933381  0.14593556  1
  Ta  Ta4  1  0.67075130  0.33399789  0.18844196  1
  Ta  Ta5  1  0.66738247  0.33768088  0.97912923  1
  Ta  Ta6  1  0.66601837  0.33340916  0.47720864  1
  Ta  Ta7  1  0.33271783  0.66223739  0.02245257  1
  Ta  Ta8  1  0.33309708  0.66667268  0.51354609  1
  Ta  Ta9  1  0.33302808  0.67114425  0.31205072  1
  Ta  Ta10  1  0.33313720  0.66568227  0.81442495  1
  Si  Si0  1  0.28582189  0.99678954  0.24911958  1
  Si  Si1  1  0.71230879  0.71225313  0.25053445  1
  Si  Si2  1  0.99751129  0.28673961  0.25061672  1
  Si  Si3  1  0.28404343  0.29058638  0.75232859  1
  Si  Si4  1  0.00640285  0.71607083  0.75241944  1
  Si  Si5  1  0.71068619  0.99398934  0.75344511  1
  Si  Si6  1  0.96473157  0.33617312  0.58296528  1
  Si  Si7  1  0.37132062  0.03466774  0.58311718  1
  Si  Si8  1  0.66290412  0.62847209  0.58304488  1
  Si  Si9  1  0.95412949  0.62173376  0.08348818  1
  Si  Si10  1  0.67046079  0.04753082  0.08240508  1
  Si  Si11  1  0.37969686  0.33504676  0.08443329  1
  Si  Si12  1  0.61996710  0.66227170  0.91728200  1
  Si  Si13  1  0.04379419  0.37931712  0.91737871  1
  Si  Si14  1  0.33225623  0.95480874  0.91862170  1
  Si  Si15  1  0.62597949  0.95922907  0.41521538  1
  Si  Si16  1  0.33390574  0.37537641  0.41415721  1
  Si  Si17  1  0.04137078  0.66682781  0.41501176  1
  O  O0  1  0.19399589  0.03284300  0.30519424  1
  O  O1  1  0.83374152  0.80610040  0.30726764  1
  O  O2  1  0.97206802  0.16629531  0.30749822  1
  O  O3  1  0.17751561  0.16791079  0.80770551  1
  O  O4  1  0.98780160  0.82133320  0.80767941  1
  O  O5  1  0.82814143  0.01081605  0.81034020  1
  O  O6  1  0.80278590  0.96690503  0.69319434  1
  O  O7  1  0.16597615  0.19947654  0.69199305  1
  O  O8  1  0.03385799  0.83471448  0.69218217  1
  O  O9  1  0.80757819  0.83334142  0.19292108  1
  O  O10  1  0.03202691  0.19439529  0.19354136  1
  O  O11  1  0.17135044  0.97266969  0.18985250  1
  O  O12  1  0.91666663  0.39098220  0.64383109  1
  O  O13  1  0.47437154  0.08343089  0.64383395  1
  O  O14  1  0.60847114  0.52506935  0.64371340  1
  O  O15  1  0.85889264  0.49954027  0.14042057  1
  O  O16  1  0.63406050  0.14046927  0.13854293  1
  O  O17  1  0.49544262  0.36100500  0.14309684  1
  O  O18  1  0.47403645  0.30186498  0.02782314  1
  O  O19  1  0.83371274  0.52595316  0.02609386  1
  O  O20  1  0.69427148  0.16164864  0.02326516  1
  O  O21  1  0.47074820  0.17142067  0.52898558  1
  O  O22  1  0.70064978  0.52926480  0.52893880  1
  O  O23  1  0.82809036  0.29933862  0.52899096  1
  O  O24  1  0.52551025  0.69853775  0.97253870  1
  O  O25  1  0.16864503  0.47696606  0.97326467  1
  O  O26  1  0.30724215  0.83654231  0.97616566  1
  O  O27  1  0.53432133  0.84358137  0.47387201  1
  O  O28  1  0.30960063  0.46807916  0.47260269  1
  O  O29  1  0.15738370  0.69119794  0.47359105  1
  O  O30  1  0.14075728  0.63951400  0.35933339  1
  O  O31  1  0.49995389  0.85864370  0.35948577  1
  O  O32  1  0.36008441  0.49558436  0.35683028  1
  O  O33  1  0.13555539  0.49629923  0.85822529  1
  O  O34  1  0.36428094  0.86317816  0.86010599  1
  O  O35  1  0.50297623  0.63817977  0.85806397  1
  O  O36  1  0.02519844  0.83741348  0.40858049  1
  O  O37  1  0.81332046  0.97635513  0.40926299  1
  O  O38  1  0.16348440  0.18663088  0.40907483  1
  O  O39  1  0.01678394  0.18637657  0.91136060  1
  O  O40  1  0.16468138  0.97579510  0.91138925  1
  O  O41  1  0.80579377  0.83832424  0.91106173  1
  O  O42  1  0.97859224  0.16000267  0.58815749  1
  O  O43  1  0.18141944  0.02104825  0.58813762  1
  O  O44  1  0.83963292  0.81868896  0.58817756  1
  O  O45  1  0.98228827  0.81486828  0.08967847  1
  O  O46  1  0.83778295  0.02609616  0.09045440  1
  O  O47  1  0.19283520  0.15969151  0.08993124  1
  O  O48  1  0.69063643  0.15973391  0.75410903  1
  O  O49  1  0.46899966  0.30962736  0.75366330  1
  O  O50  1  0.84007960  0.53064435  0.75356423  1
  O  O51  1  0.68507212  0.51882914  0.24282135  1
  O  O52  1  0.82903016  0.30669865  0.24212768  1
  O  O53  1  0.47370581  0.17269767  0.24221768  1
  O  O54  1  0.63923019  0.49439217  0.92421538  1
  O  O55  1  0.85187475  0.35253595  0.92358685  1
  O  O56  1  0.50794739  0.14038116  0.92382785  1
  O  O57  1  0.64073329  0.14609391  0.42423964  1
  O  O58  1  0.50528261  0.35947610  0.42448979  1
  O  O59  1  0.85405998  0.49474149  0.42437074  1
  O  O60  1  0.35979868  0.50379371  0.07547155  1
  O  O61  1  0.14732920  0.64803223  0.07629844  1
  O  O62  1  0.49388045  0.86000816  0.07584307  1
  O  O63  1  0.33724437  0.84125770  0.57009777  1
  O  O64  1  0.50368546  0.66234004  0.57000255  1
  O  O65  1  0.15872512  0.49579772  0.56994548  1
  O  O66  1  0.30786919  0.82918160  0.25676879  1
  O  O67  1  0.51879223  0.68449458  0.25661206  1
  O  O68  1  0.17341546  0.47328841  0.25686140  1
  O  O69  1  0.29198770  0.47644757  0.75630014  1
  O  O70  1  0.18474652  0.70915843  0.75700687  1
  O  O71  1  0.52350483  0.81560826  0.75654220  1
loop_
_geom_bond_atom_site_label_1
_geom_bond_atom_site_label_2
_geom_bond_distance
_geom_bond_site_symmetry_2
Na0 O68 2.388248 1_555
Na0 O53 2.395873 1_555
Na0 O67 2.504352 1_555
Na0 O51 2.509699 1_555
Na0 O32 2.681382 1_555
Na0 O17 2.719047 1_555
Na0 O0 2.874235 1_555
Na0 O10 2.915093 1_555
Na1 O50 2.372406 1_555
Na1 O49 2.409410 1_555
Na1 O14 2.413158 1_555
Na1 O71 2.465365 1_555
Na1 O69 2.691764 1_555
Na1 O35 2.859105 1_555
Na1 O6 2.985629 1_555
Na2 O48 2.363526 1_555
Na2 O50 2.407864 1_555
Na2 O12 2.412107 1_555
Na2 O69 2.465010 1_655
Na2 O70 2.695837 1_655
Na2 O33 2.862221 1_655
Na3 O49 2.370540 1_555
Na3 O48 2.401809 1_555
Na3 O13 2.403838 1_555
Na3 O70 2.455636 1_545
Na3 O71 2.690888 1_545
Na3 O34 2.917664 1_545
Na3 O8 2.998325 1_545
Na4 O65 2.467409 1_555
Na4 O43 2.497425 1_555
Na4 O64 2.564325 1_555
Na4 O42 2.623078 1_455
Na4 O14 2.706926 1_555
Na4 O28 2.778660 1_555
Na4 O7 2.781355 1_555
Na4 O21 2.823116 1_555
Na5 O63 2.464695 1_555
Na5 O44 2.503839 1_455
Na5 O65 2.574542 1_555
Na5 O43 2.624930 1_565
Na5 O12 2.711172 1_455
Na5 O29 2.749029 1_555
Na5 O8 2.787466 1_555
Na5 O22 2.819010 1_455
Na6 O64 2.464920 1_555
Na6 O42 2.494203 1_565
Na6 O63 2.567910 1_555
Na6 O44 2.629173 1_555
Na6 O13 2.712534 1_565
Na6 O27 2.740090 1_555
Na6 O6 2.819423 1_555
Na6 O23 2.820396 1_565
Na7 O47 2.381839 1_565
Na7 O62 2.400183 1_555
Na7 O45 2.499156 1_455
Na7 O61 2.515573 1_555
Na7 O11 2.661849 1_555
Na7 O26 2.744053 1_554
Na7 O16 2.875732 1_565
Na7 O18 2.910128 1_565
Na8 O56 2.371084 1_555
Na8 O41 2.408191 1_545
Na8 O39 2.486791 1_655
Na8 O55 2.494760 1_555
Na8 O20 2.663344 1_556
Na8 O5 2.746962 1_555
Na8 O24 2.906403 1_545
Na8 O34 2.930775 1_545
Na9 O38 2.489200 1_555
Na9 O37 2.493213 1_445
Na9 O36 2.500887 1_545
Na9 O42 2.641947 1_455
Na9 O44 2.645069 1_445
Na9 O43 2.645688 1_555
Na10 O45 2.548437 1_445
Na10 O46 2.553687 1_455
Na10 O47 2.553722 1_555
Na10 O40 2.613909 1_544
Na10 O39 2.620635 1_554
Na10 O41 2.634098 1_444
Na11 O50 2.398907 1_555
Na11 O49 2.405019 1_555
Na11 O48 2.456511 1_555
Na11 O54 2.620235 1_555
Na11 O55 2.670806 1_555
Na11 O56 2.682832 1_555
Na12 O59 2.563057 1_555
Na12 O57 2.566086 1_555
Na12 O52 2.583857 1_555
Na12 O58 2.635138 1_555
Na12 O51 2.645491 1_555
Na12 O53 2.664170 1_555
Na13 O66 2.555562 1_555
Na13 O67 2.559858 1_555
Na13 O68 2.574110 1_555
Na13 O61 2.639819 1_555
Na13 O60 2.648898 1_555
Na13 O62 2.649357 1_555
Na14 O71 2.602555 1_555
Na14 O69 2.603734 1_555
Na14 O70 2.613546 1_555
Na14 O64 2.650426 1_555
Na14 O63 2.653963 1_555
Na14 O65 2.653994 1_555
Ca0 O13 2.227162 1_555
Ca0 O12 2.228598 1_555
Ca0 O14 2.234808 1_555
Ca0 O50 2.325637 1_555
Ca0 O49 2.332135 1_555
Ca0 O48 2.343054 1_555
O0 Si0 1.635946 1_545
O0 Ta0 1.978486 1_445
O1 Si1 1.625899 1_555
O1 Ta0 1.954756 1_555
O2 Si2 1.629103 1_555
O2 Ta0 1.961539 1_545
O3 Si3 1.631046 1_555
O3 Ta1 1.915031 1_545
O4 Si4 1.630112 1_655
O4 Ta1 1.915825 1_655
O5 Si5 1.629918 1_545
O5 Ta1 1.968473 1_645
O6 Si5 1.678141 1_555
O6 Ta2 1.965563 1_655
O7 Si3 1.674858 1_555
O7 Ta2 1.965443 1_545
O8 Si4 1.677298 1_555
O8 Ta2 1.970007 1_555
O9 Si1 1.642847 1_555
O9 Ta3 1.925076 1_555
O10 Si2 1.650142 1_455
O10 Ta3 1.946851 1_445
O11 Si0 1.643427 1_555
O11 Ta3 1.996510 1_455
O12 Si6 1.595986 1_555
O13 Si7 1.595432 1_555
O14 Si8 1.595727 1_555
O15 Si9 1.634665 1_555
O15 Ta4 1.939367 1_555
O16 Si10 1.644553 1_555
O16 Ta4 1.965346 1_555
O17 Si11 1.635776 1_555
O17 Ta4 2.007486 1_555
O18 Si11 1.647556 1_555
O18 Ta5 1.950894 1_554
O19 Si9 1.637285 1_555
O19 Ta5 1.928912 1_554
O20 Si10 1.639777 1_555
O20 Ta5 1.998542 1_554
O21 Si7 1.651406 1_555
O21 Ta6 2.010322 1_555
O22 Si8 1.651073 1_555
O22 Ta6 2.011450 1_555
O23 Si6 1.650951 1_555
O23 Ta6 2.021428 1_555
O24 Si12 1.637191 1_555
O24 Ta7 1.961348 1_556
O25 Si13 1.630218 1_555
O25 Ta7 1.937276 1_556
O26 Si14 1.630103 1_555
O26 Ta7 2.003631 1_556
O27 Si15 1.636283 1_555
O27 Ta8 1.937757 1_555
O28 Si16 1.638261 1_555
O28 Ta8 1.934878 1_555
O29 Si17 1.638265 1_555
O29 Ta8 1.938849 1_555
O30 Si17 1.636365 1_555
O30 Ta9 1.936208 1_555
O31 Si15 1.637207 1_555
O31 Ta9 1.933237 1_555
O32 Si16 1.634545 1_555
O32 Ta9 2.003038 1_555
O33 Si13 1.650285 1_555
O33 Ta10 1.942812 1_555
O34 Si14 1.662306 1_555
O34 Ta10 1.957125 1_555
O35 Si12 1.655572 1_555
O35 Ta10 1.947806 1_555
O36 Si17 1.628971 1_555
O36 Ta0 2.017006 1_455
O37 Si15 1.628290 1_555
O37 Ta0 2.009676 1_555
O38 Si16 1.631116 1_555
O38 Ta0 2.016390 1_445
O39 Si13 1.642078 1_555
O39 Ta1 2.033006 1_545
O40 Si14 1.628919 1_555
O40 Ta1 1.988234 1_555
O41 Si12 1.640830 1_555
O41 Ta1 2.042286 1_655
O42 Si6 1.665156 1_555
O42 Ta2 2.039305 1_645
O43 Si7 1.663634 1_555
O43 Ta2 2.034478 1_545
O44 Si8 1.663245 1_555
O44 Ta2 2.032469 1_655
O45 Si9 1.640154 1_555
O45 Ta3 2.054138 1_555
O46 Si10 1.631040 1_555
O46 Ta3 2.005483 1_545
O47 Si11 1.641714 1_555
O47 Ta3 2.074660 1_445
O48 Si5 1.598731 1_545
O49 Si3 1.594482 1_555
O50 Si4 1.594524 1_655
O51 Si1 1.649155 1_555
O51 Ta4 2.026014 1_555
O52 Si2 1.634793 1_555
O52 Ta4 1.989118 1_555
O53 Si0 1.651699 1_545
O53 Ta4 2.043474 1_555
O54 Si12 1.621779 1_555
O54 Ta5 1.998981 1_555
O55 Si13 1.634267 1_655
O55 Ta5 2.038184 1_555
O56 Si14 1.636264 1_545
O56 Ta5 2.060727 1_555
O57 Si15 1.640211 1_545
O57 Ta6 1.991716 1_555
O58 Si16 1.645247 1_555
O58 Ta6 1.987890 1_555
O59 Si17 1.639905 1_655
O59 Ta6 1.990204 1_555
O60 Si11 1.638056 1_555
O60 Ta7 1.980045 1_555
O61 Si9 1.649409 1_455
O61 Ta7 2.023260 1_555
O62 Si10 1.651913 1_565
O62 Ta7 2.041186 1_555
O63 Si7 1.643302 1_565
O63 Ta8 2.017282 1_555
O64 Si8 1.644242 1_555
O64 Ta8 2.022438 1_555
O65 Si6 1.644875 1_455
O65 Ta8 2.014977 1_555
O66 Si0 1.635730 1_555
O66 Ta9 2.000489 1_555
O67 Si1 1.644903 1_555
O67 Ta9 2.050538 1_555
O68 Si2 1.643756 1_455
O68 Ta9 2.062200 1_555
O69 Si3 1.649097 1_555
O69 Ta10 2.038421 1_555
O70 Si4 1.649770 1_555
O70 Ta10 2.047238 1_555
O71 Si5 1.652529 1_555
O71 Ta10 2.043508 1_555
