# generated using pymatgen
data_Na7La2Mg2P5SO24
_symmetry_space_group_name_H-M   'P 1'
_cell_length_a   9.34467434
_cell_length_b   9.37776001
_cell_length_c   22.90586422
_cell_angle_alpha   90.33673684
_cell_angle_beta   89.75501077
_cell_angle_gamma   119.96137039
_symmetry_Int_Tables_number   1
_chemical_formula_structural   Na7La2Mg2P5SO24
_chemical_formula_sum   'Na21 La6 Mg6 P15 S3 O72'
_cell_volume   1739.00767595
_cell_formula_units_Z   3
loop_
 _symmetry_equiv_pos_site_id
 _symmetry_equiv_pos_as_xyz
  1  'x, y, z'
loop_
 _atom_site_type_symbol
 _atom_site_label
 _atom_site_symmetry_multiplicity
 _atom_site_fract_x
 _atom_site_fract_y
 _atom_site_fract_z
 _atom_site_occupancy
  Na  Na0  1  0.64417795  0.99252838  0.25164486  1
  Na  Na1  1  0.00234301  0.62689463  0.25646481  1
  Na  Na2  1  0.62802123  0.63900111  0.74829055  1
  Na  Na3  1  0.01539372  0.37538576  0.75255566  1
  Na  Na4  1  0.35928289  0.98764483  0.75285885  1
  Na  Na5  1  0.30395152  0.33352966  0.58764019  1
  Na  Na6  1  0.03051800  0.69571772  0.58180353  1
  Na  Na7  1  0.66814733  0.96654347  0.58404657  1
  Na  Na8  1  0.30131763  0.96570687  0.07947414  1
  Na  Na9  1  0.66630055  0.69434989  0.08680606  1
  Na  Na10  1  0.03266554  0.33832933  0.08455886  1
  Na  Na11  1  0.99056549  0.67154962  0.91650353  1
  Na  Na12  1  0.32886976  0.29591375  0.92030812  1
  Na  Na13  1  0.96471040  0.30610282  0.41237601  1
  Na  Na14  1  0.70572889  0.67567635  0.41988525  1
  Na  Na15  1  0.00316473  0.98853236  0.51024415  1
  Na  Na16  1  -0.00061747  0.00732921  0.00931610  1
  Na  Na17  1  0.66691755  0.30666896  0.83227491  1
  Na  Na18  1  0.66240044  0.32847104  0.33206034  1
  Na  Na19  1  0.33436668  0.64044324  0.16956805  1
  Na  Na20  1  0.33350957  0.66793754  0.66682757  1
  La  La0  1  0.00591372  0.99950926  0.35208135  1
  La  La1  1  0.99424792  0.00487098  0.85156132  1
  La  La2  1  0.66636714  0.33292638  0.67535789  1
  La  La3  1  0.66514946  0.33685426  0.17759751  1
  La  La4  1  0.66907299  0.31823689  0.98347900  1
  La  La5  1  0.66016490  0.31952647  0.48376039  1
  Mg  Mg0  1  0.99886057  0.99907506  0.65322091  1
  Mg  Mg1  1  0.99329867  0.00533627  0.15198567  1
  Mg  Mg2  1  0.33024655  0.67255294  0.01583337  1
  Mg  Mg3  1  0.33351030  0.67863784  0.51534637  1
  Mg  Mg4  1  0.33442343  0.66535637  0.31581961  1
  Mg  Mg5  1  0.32958593  0.67271526  0.81540623  1
  P  P0  1  0.69379035  0.70354746  0.24929097  1
  P  P1  1  0.00934442  0.30954198  0.24982843  1
  P  P2  1  0.30035271  0.30936922  0.74922470  1
  P  P3  1  0.00631055  0.70085675  0.74928377  1
  P  P4  1  0.68961910  0.99034350  0.74564966  1
  P  P5  1  0.99211645  0.33252369  0.58244123  1
  P  P6  1  0.34094853  0.01062382  0.58710323  1
  P  P7  1  0.66554041  0.65501193  0.58148381  1
  P  P8  1  0.98650711  0.65666325  0.08244612  1
  P  P9  1  0.66595108  0.00865425  0.08718938  1
  P  P10  1  0.34445281  0.33292804  0.07866013  1
  P  P11  1  0.05638413  0.39305141  0.91587024  1
  P  P12  1  0.33460421  0.95465251  0.91590651  1
  P  P13  1  0.61601267  0.95085977  0.41457264  1
  P  P14  1  0.04499230  0.66120242  0.41629773  1
  S  S0  1  0.30083803  0.98660540  0.24628396  1
  S  S1  1  0.61286094  0.66108777  0.91704526  1
  S  S2  1  0.33736428  0.39602101  0.41804218  1
  O  O0  1  0.22472238  0.00662200  0.29987232  1
  O  O1  1  0.79411632  0.77866578  0.30678109  1
  O  O2  1  0.98886640  0.21230217  0.30733945  1
  O  O3  1  0.22856247  0.20948074  0.80641336  1
  O  O4  1  0.97871567  0.77161373  0.80711759  1
  O  O5  1  0.79864246  0.02106727  0.80005697  1
  O  O6  1  0.77947198  0.97913598  0.69070188  1
  O  O7  1  0.19153215  0.21269585  0.69658481  1
  O  O8  1  0.01449652  0.80795548  0.69714602  1
  O  O9  1  0.79239581  0.81260089  0.19686966  1
  O  O10  1  0.01460594  0.21196480  0.19625861  1
  O  O11  1  0.20839749  0.98649293  0.19413877  1
  O  O12  1  0.91525016  0.36986149  0.63690887  1
  O  O13  1  0.44656621  0.07782658  0.64344446  1
  O  O14  1  0.62948972  0.54292756  0.63612636  1
  O  O15  1  0.90760668  0.54051601  0.13603572  1
  O  O16  1  0.62627992  0.07771892  0.14291357  1
  O  O17  1  0.47068193  0.37036560  0.12868267  1
  O  O18  1  0.41830832  0.29655712  0.02290635  1
  O  O19  1  0.86746180  0.57296674  0.02945910  1
  O  O20  1  0.70587450  0.13910246  0.03830852  1
  O  O21  1  0.43414292  0.14179873  0.53857923  1
  O  O22  1  0.69556156  0.56624603  0.52858947  1
  O  O23  1  0.87057312  0.29773881  0.53024938  1
  O  O24  1  0.52507294  0.66257147  0.97024014  1
  O  O25  1  0.14620393  0.48581486  0.97129149  1
  O  O26  1  0.34053579  0.86914315  0.97202108  1
  O  O27  1  0.52776520  0.86216775  0.47076280  1
  O  O28  1  0.33911965  0.47973608  0.47269715  1
  O  O29  1  0.13260444  0.65738776  0.47207699  1
  O  O30  1  0.13307402  0.65890768  0.35948787  1
  O  O31  1  0.52700895  0.86224150  0.35821901  1
  O  O32  1  0.33711213  0.48431260  0.36552944  1
  O  O33  1  0.14343999  0.48071933  0.85902279  1
  O  O34  1  0.33594147  0.86608686  0.85942169  1
  O  O35  1  0.53089609  0.66550253  0.86264280  1
  O  O36  1  0.01202944  0.81006514  0.41977545  1
  O  O37  1  0.79524909  0.97011676  0.41783745  1
  O  O38  1  0.18597987  0.22797463  0.41958908  1
  O  O39  1  0.03831490  0.21782023  0.91967157  1
  O  O40  1  0.17082960  0.96599385  0.91992321  1
  O  O41  1  0.78759017  0.80090756  0.92035933  1
  O  O42  1  0.00399260  0.17486737  0.59009761  1
  O  O43  1  0.16855519  0.99423949  0.59268914  1
  O  O44  1  0.82568046  0.82311705  0.58897786  1
  O  O45  1  0.00051960  0.82699755  0.09209894  1
  O  O46  1  0.82347003  0.99483171  0.09275059  1
  O  O47  1  0.17527729  0.17627913  0.09041913  1
  O  O48  1  0.66188730  0.14206323  0.74493216  1
  O  O49  1  0.47947451  0.33529497  0.74546719  1
  O  O50  1  0.85453886  0.52106912  0.74562398  1
  O  O51  1  0.67886946  0.52994240  0.24598442  1
  O  O52  1  0.84707412  0.32376045  0.24853655  1
  O  O53  1  0.47544769  0.12628823  0.24625084  1
  O  O54  1  0.62331834  0.50478036  0.91506079  1
  O  O55  1  0.87923012  0.37644087  0.91397912  1
  O  O56  1  0.48012795  0.13890759  0.91282473  1
  O  O57  1  0.65123174  0.13392052  0.41241067  1
  O  O58  1  0.48828332  0.37713427  0.41496661  1
  O  O59  1  0.86512935  0.50155034  0.41391407  1
  O  O60  1  0.32644746  0.48776502  0.07335302  1
  O  O61  1  0.15838424  0.67369400  0.07411474  1
  O  O62  1  0.51376421  0.83893798  0.07419195  1
  O  O63  1  0.32678394  0.84213977  0.57470420  1
  O  O64  1  0.51204447  0.67438033  0.57361403  1
  O  O65  1  0.16360353  0.48637305  0.57331348  1
  O  O66  1  0.30366812  0.82856411  0.24840561  1
  O  O67  1  0.52384193  0.69452094  0.25268598  1
  O  O68  1  0.15954679  0.48662828  0.25283263  1
  O  O69  1  0.31454884  0.48202777  0.75295284  1
  O  O70  1  0.16699302  0.68925487  0.75185070  1
  O  O71  1  0.51934238  0.82990318  0.75203116  1
loop_
_geom_bond_atom_site_label_1
_geom_bond_atom_site_label_2
_geom_bond_distance
_geom_bond_site_symmetry_2
Na0 O67 2.436543 1_555
Na0 O53 2.460438 1_565
Na0 O16 2.651345 1_565
Na0 O31 2.706833 1_555
Na0 O52 2.714295 1_565
Na0 O66 2.758327 1_555
Na0 O9 2.938391 1_555
Na1 O68 2.413070 1_555
Na1 O52 2.468937 1_455
Na1 O66 2.494000 1_555
Na1 O30 2.607938 1_555
Na1 O51 2.698127 1_455
Na1 O15 2.885781 1_455
Na2 O71 2.461116 1_555
Na2 O49 2.468274 1_555
Na2 O69 2.539932 1_555
Na2 O14 2.719858 1_555
Na2 O35 2.818466 1_555
Na2 O50 2.836147 1_555
Na3 O69 2.454132 1_555
Na3 O50 2.491353 1_455
Na3 O70 2.550721 1_555
Na3 O33 2.677855 1_555
Na3 O12 2.804769 1_455
Na3 O48 2.917429 1_455
Na4 O48 2.456564 1_565
Na4 O70 2.456988 1_555
Na4 O71 2.575867 1_555
Na4 O13 2.641992 1_565
Na4 O34 2.661748 1_555
Na4 O49 2.875130 1_565
Na5 O65 2.401875 1_555
Na5 O42 2.430601 1_555
Na5 O7 2.727052 1_555
Na5 O43 2.778490 1_545
Na5 O64 2.810690 1_555
Na5 O21 2.850487 1_555
Na5 O14 2.894857 1_555
Na5 O28 2.916309 1_555
Na6 O63 2.403802 1_555
Na6 O43 2.439416 1_555
Na6 O44 2.719832 1_455
Na6 O29 2.769064 1_555
Na6 O65 2.805467 1_555
Na6 O8 2.869120 1_555
Na6 O12 2.972780 1_455
Na6 O22 2.996078 1_455
Na7 O64 2.386414 1_555
Na7 O44 2.443316 1_555
Na7 O6 2.638219 1_555
Na7 O42 2.749854 1_665
Na7 O63 2.805041 1_555
Na7 O27 2.851139 1_555
Na7 O23 2.983274 1_565
Na7 O13 3.056983 1_565
Na8 O61 2.375322 1_555
Na8 O45 2.453980 1_555
Na8 O26 2.703687 1_554
Na8 O47 2.768439 1_565
Na8 O62 2.778970 1_555
Na8 O11 2.798921 1_555
Na9 O62 2.427415 1_555
Na9 O46 2.445269 1_555
Na9 O45 2.727130 1_655
Na9 O9 2.767943 1_555
Na9 O60 2.791045 1_555
Na9 O17 2.822137 1_555
Na9 O24 2.930455 1_554
Na9 O19 2.941666 1_555
Na10 O60 2.392048 1_555
Na10 O47 2.475915 1_555
Na10 O61 2.764826 1_555
Na10 O10 2.794864 1_555
Na10 O46 2.819099 1_445
Na10 O20 2.871244 1_455
Na10 O25 2.884942 1_554
Na10 O15 2.919969 1_455
Na11 O40 2.412631 1_655
Na11 O55 2.422260 1_555
Na11 O4 2.702691 1_555
Na11 O41 2.715240 1_555
Na11 O19 2.795134 1_556
Na12 O39 2.433649 1_555
Na12 O54 2.457370 1_555
Na12 O18 2.496622 1_556
Na12 O56 2.503751 1_555
Na12 O40 2.681293 1_545
Na12 O3 2.752983 1_555
Na13 O59 2.434971 1_555
Na13 O38 2.521300 1_655
Na13 O57 2.542414 1_555
Na13 O2 2.604254 1_555
Na13 O37 2.733153 1_545
Na13 O23 2.825457 1_555
Na14 O37 2.453613 1_555
Na14 O36 2.485533 1_655
Na14 O58 2.509130 1_555
Na14 O22 2.681918 1_555
Na14 O59 2.707202 1_555
Na14 O1 2.746142 1_555
Na15 O44 2.418070 1_455
Na15 O43 2.428782 1_555
Na15 O42 2.519561 1_565
Na15 O36 2.682983 1_555
Na15 O37 2.825006 1_455
Na15 O38 2.909532 1_565
Na16 O47 2.460377 1_555
Na16 O46 2.480272 1_445
Na16 O45 2.551743 1_545
Na16 O40 2.737283 1_544
Na16 O39 2.751204 1_554
Na16 O41 2.824459 1_444
Na17 O56 2.487924 1_555
Na17 O48 2.505930 1_555
Na17 O55 2.566634 1_555
Na17 O50 2.748102 1_555
Na17 O49 2.756742 1_555
Na17 O54 2.814511 1_555
Na18 O57 2.564090 1_555
Na18 O59 2.581092 1_555
Na18 O52 2.585969 1_555
Na18 O58 2.677125 1_555
Na18 O53 2.680925 1_555
Na18 O51 2.689139 1_555
Na19 O68 2.457440 1_555
Na19 O67 2.477408 1_555
Na19 O60 2.602127 1_555
Na19 O66 2.630438 1_555
Na19 O62 2.819164 1_555
Na19 O61 2.851855 1_555
Na20 O71 2.547780 1_555
Na20 O70 2.556230 1_555
Na20 O69 2.586819 1_555
Na20 O64 2.686303 1_555
Na20 O63 2.696236 1_555
Na20 O65 2.700777 1_555
La0 O1 2.276211 1_455
La0 O2 2.323953 1_465
La0 O0 2.336491 1_565
La0 O37 2.378553 1_455
La0 O36 2.387115 1_555
La0 O38 2.489010 1_565
La1 O5 2.248074 1_555
La1 O3 2.313661 1_655
La1 O4 2.345262 1_545
La1 O39 2.395623 1_655
La1 O40 2.436688 1_645
La1 O41 2.488212 1_545
La2 O12 2.342241 1_555
La2 O14 2.346466 1_555
La2 O13 2.358065 1_555
La2 O49 2.375687 1_555
La2 O50 2.384836 1_555
La2 O48 2.388147 1_555
La3 O17 2.290951 1_555
La3 O15 2.316916 1_555
La3 O51 2.342113 1_555
La3 O16 2.401389 1_555
La3 O52 2.404164 1_555
La3 O53 2.455795 1_555
La4 O20 2.263430 1_556
La4 O56 2.364622 1_555
La4 O55 2.366805 1_555
La4 O19 2.411686 1_556
La4 O18 2.419975 1_556
La4 O54 2.546401 1_555
La5 O21 2.302467 1_555
La5 O23 2.337381 1_555
La5 O57 2.351632 1_555
La5 O22 2.393221 1_555
La5 O59 2.425322 1_555
La5 O58 2.500618 1_555
Mg0 O43 2.119289 1_655
Mg0 O8 2.128365 1_655
Mg0 O6 2.139850 1_555
Mg0 O7 2.151906 1_665
Mg0 O42 2.181523 1_665
Mg0 O44 2.198125 1_555
Mg1 O46 2.056680 1_545
Mg1 O10 2.101442 1_655
Mg1 O9 2.112914 1_545
Mg1 O47 2.175676 1_655
Mg1 O45 2.183624 1_645
Mg1 O11 2.318860 1_645
Mg2 O25 2.012754 1_554
Mg2 O26 2.063738 1_554
Mg2 O61 2.088107 1_555
Mg2 O62 2.117743 1_555
Mg2 O24 2.137004 1_554
Mg2 O60 2.169121 1_555
Mg3 O27 2.045591 1_555
Mg3 O29 2.046111 1_555
Mg3 O63 2.067501 1_555
Mg3 O28 2.124167 1_555
Mg3 O64 2.156968 1_555
Mg3 O65 2.164604 1_555
Mg4 O32 2.060387 1_555
Mg4 O31 2.065410 1_555
Mg4 O30 2.101273 1_555
Mg4 O67 2.190526 1_555
Mg4 O68 2.194825 1_555
Mg4 O66 2.297936 1_555
Mg5 O33 2.035613 1_555
Mg5 O34 2.044471 1_555
Mg5 O70 2.169991 1_555
Mg5 O71 2.194729 1_555
Mg5 O35 2.204422 1_555
Mg5 O69 2.232626 1_555
O0 S0 1.473451 1_545
O1 P0 1.565022 1_555
O2 P1 1.562439 1_655
O3 P2 1.556511 1_555
O4 P3 1.555427 1_655
O5 P4 1.545160 1_545
O6 P4 1.541994 1_555
O7 P2 1.544875 1_555
O8 P3 1.541882 1_555
O9 P0 1.549344 1_555
O10 P1 1.541639 1_555
O11 S0 1.476740 1_555
O12 P5 1.559978 1_555
O13 P6 1.554616 1_555
O14 P7 1.563031 1_555
O15 P8 1.562886 1_555
O16 P9 1.553122 1_555
O17 P10 1.555864 1_555
O18 P10 1.563991 1_555
O19 P8 1.566812 1_555
O20 P9 1.563965 1_555
O21 P6 1.563582 1_555
O22 P7 1.567826 1_555
O23 P5 1.569265 1_555
O24 S1 1.469865 1_555
O25 P11 1.529584 1_555
O26 P12 1.534714 1_555
O27 P13 1.531936 1_555
O28 S2 1.469575 1_555
O29 P14 1.530602 1_555
O30 P14 1.542556 1_555
O31 P13 1.534537 1_555
O32 S2 1.464950 1_555
O33 P11 1.539077 1_555
O34 P12 1.536739 1_555
O35 S1 1.477046 1_555
O36 P14 1.574175 1_555
O37 P13 1.594463 1_555
O38 S2 1.503136 1_555
O39 P11 1.568713 1_555
O40 P12 1.588466 1_555
O41 S1 1.500826 1_555
O42 P5 1.547910 1_455
O43 P6 1.544800 1_565
O44 P7 1.548136 1_555
O45 P8 1.550727 1_455
O46 P9 1.546636 1_565
O47 P10 1.552785 1_555
O48 P4 1.568550 1_545
O49 P2 1.568687 1_555
O50 P3 1.572277 1_655
O51 P0 1.564467 1_555
O52 P1 1.587575 1_655
O53 S0 1.497789 1_545
O54 S1 1.517391 1_555
O55 P11 1.584175 1_655
O56 P12 1.579084 1_545
O57 P13 1.579354 1_545
O58 S2 1.507894 1_555
O59 P14 1.598701 1_655
O60 P10 1.548462 1_555
O61 P8 1.543735 1_455
O62 P9 1.543194 1_565
O63 P6 1.542967 1_565
O64 P7 1.544578 1_555
O65 P5 1.544222 1_455
O66 S0 1.496533 1_555
O67 P0 1.549213 1_555
O68 P1 1.550464 1_555
O69 P2 1.558996 1_555
O70 P3 1.560089 1_555
O71 P4 1.557660 1_555
