# generated using pymatgen
data_SrAlBO4
_symmetry_space_group_name_H-M   'P 1'
_cell_length_a   5.80698100
_cell_length_b   8.92487400
_cell_length_c   14.65144500
_cell_angle_alpha   90.00000000
_cell_angle_beta   90.00000000
_cell_angle_gamma   90.00000000
_symmetry_Int_Tables_number   1
_chemical_formula_structural   SrAlBO4
_chemical_formula_sum   'Sr8 Al8 B8 O32'
_cell_volume   759.33419477
_cell_formula_units_Z   8
loop_
 _symmetry_equiv_pos_site_id
 _symmetry_equiv_pos_as_xyz
  1  'x, y, z'
loop_
 _atom_site_type_symbol
 _atom_site_label
 _atom_site_symmetry_multiplicity
 _atom_site_fract_x
 _atom_site_fract_y
 _atom_site_fract_z
 _atom_site_occupancy
  Sr  Sr0  1  0.18776400  0.07970700  0.65241400  1
  Sr  Sr1  1  0.18776400  0.42029300  0.84758600  1
  Sr  Sr2  1  0.31223600  0.57970700  0.34758600  1
  Sr  Sr3  1  0.31223600  0.92029300  0.15241400  1
  Sr  Sr4  1  0.81223600  0.92029300  0.34758600  1
  Sr  Sr5  1  0.81223600  0.57970700  0.15241400  1
  Sr  Sr6  1  0.68776400  0.42029300  0.65241400  1
  Sr  Sr7  1  0.68776400  0.07970700  0.84758600  1
  Al  Al0  1  0.37028600  0.70761300  0.57215100  1
  Al  Al1  1  0.37028600  0.79238700  0.92784900  1
  Al  Al2  1  0.12971400  0.20761300  0.42784900  1
  Al  Al3  1  0.12971400  0.29238700  0.07215100  1
  Al  Al4  1  0.62971400  0.29238700  0.42784900  1
  Al  Al5  1  0.62971400  0.20761300  0.07215100  1
  Al  Al6  1  0.87028600  0.79238700  0.57215100  1
  Al  Al7  1  0.87028600  0.70761300  0.92784900  1
  B  B0  1  0.68208200  0.40177900  0.91134200  1
  B  B1  1  0.18208200  0.40177900  0.58865800  1
  B  B2  1  0.18208200  0.09822100  0.91134200  1
  B  B3  1  0.31791800  0.90177900  0.41134200  1
  B  B4  1  0.31791800  0.59822100  0.08865800  1
  B  B5  1  0.81791800  0.59822100  0.41134200  1
  B  B6  1  0.81791800  0.90177900  0.08865800  1
  B  B7  1  0.68208200  0.09822100  0.58865800  1
  O  O0  1  0.92400200  0.71320900  0.46060000  1
  O  O1  1  0.42400200  0.71320900  0.03940000  1
  O  O2  1  0.42400200  0.78679100  0.46060000  1
  O  O3  1  0.07599800  0.21320900  0.96060000  1
  O  O4  1  0.07599800  0.28679100  0.53940000  1
  O  O5  1  0.57599800  0.28679100  0.96060000  1
  O  O6  1  0.57599800  0.21320900  0.53940000  1
  O  O7  1  0.92400200  0.78679100  0.03940000  1
  O  O8  1  0.14320200  0.80478400  0.62519800  1
  O  O9  1  0.14320200  0.69521600  0.87480200  1
  O  O10  1  0.35679800  0.30478400  0.37480200  1
  O  O11  1  0.35679800  0.19521600  0.12519800  1
  O  O12  1  0.85679800  0.19521600  0.37480200  1
  O  O13  1  0.85679800  0.30478400  0.12519800  1
  O  O14  1  0.64320200  0.69521600  0.62519800  1
  O  O15  1  0.64320200  0.80478400  0.87480200  1
  O  O16  1  0.67383400  0.38879400  0.81771400  1
  O  O17  1  0.67383400  0.11120600  0.68228600  1
  O  O18  1  0.82616600  0.88879400  0.18228600  1
  O  O19  1  0.82616600  0.61120600  0.31771400  1
  O  O20  1  0.32616600  0.61120600  0.18228600  1
  O  O21  1  0.32616600  0.88879400  0.31771400  1
  O  O22  1  0.17383400  0.11120600  0.81771400  1
  O  O23  1  0.17383400  0.38879400  0.68228600  1
  O  O24  1  0.78744600  0.51961400  0.95465200  1
  O  O25  1  0.78744600  0.98038600  0.54534800  1
  O  O26  1  0.71255400  0.01961400  0.04534800  1
  O  O27  1  0.71255400  0.48038600  0.45465200  1
  O  O28  1  0.21255400  0.48038600  0.04534800  1
  O  O29  1  0.21255400  0.01961400  0.45465200  1
  O  O30  1  0.28744600  0.98038600  0.95465200  1
  O  O31  1  0.28744600  0.51961400  0.54534800  1
loop_
_geom_bond_atom_site_label_1
_geom_bond_atom_site_label_2
_geom_bond_distance
_geom_bond_site_symmetry_2
Al0 O8 1.759279 1_555
Al0 O14 1.768602 1_555
Al0 O31 1.789096 1_555
Al0 O2 1.807724 1_555
Al1 O9 1.759279 1_555
Al1 O15 1.768602 1_555
Al1 O30 1.789096 1_555
Al1 O1 1.807724 1_556
Al2 O10 1.759279 1_555
Al2 O12 1.768602 1_455
Al2 O29 1.789096 1_555
Al2 O4 1.807724 1_555
Al3 O11 1.759279 1_555
Al3 O13 1.768602 1_455
Al3 O28 1.789096 1_555
Al3 O3 1.807724 1_554
Al4 O12 1.759279 1_555
Al4 O10 1.768602 1_555
Al4 O27 1.789096 1_555
Al4 O6 1.807724 1_555
Al5 O13 1.759279 1_555
Al5 O11 1.768602 1_555
Al5 O26 1.789096 1_555
Al5 O5 1.807724 1_554
Al6 O14 1.759279 1_555
Al6 O8 1.768602 1_655
Al6 O25 1.789096 1_555
Al6 O0 1.807724 1_555
Al7 O15 1.759279 1_555
Al7 O9 1.768602 1_655
Al7 O24 1.789096 1_555
Al7 O7 1.807724 1_556
B0 O24 1.372228 1_555
B0 O16 1.377505 1_555
B0 O5 1.397690 1_555
B1 O31 1.372228 1_555
B1 O23 1.377505 1_555
B1 O4 1.397690 1_555
B2 O30 1.372228 1_545
B2 O22 1.377505 1_555
B2 O3 1.397690 1_555
B3 O29 1.372228 1_565
B3 O21 1.377505 1_555
B3 O2 1.397690 1_555
B4 O28 1.372228 1_555
B4 O20 1.377505 1_555
B4 O1 1.397690 1_555
B5 O27 1.372228 1_555
B5 O19 1.377505 1_555
B5 O0 1.397690 1_555
B6 O26 1.372228 1_565
B6 O18 1.377505 1_555
B6 O7 1.397690 1_555
B7 O25 1.372228 1_545
B7 O17 1.377505 1_555
B7 O6 1.397690 1_555
O0 Sr4 2.564918 1_555
O1 Sr3 2.564918 1_555
O2 Sr2 2.564918 1_555
O3 Sr1 2.564918 1_555
O4 Sr0 2.564918 1_555
O5 Sr7 2.564918 1_555
O6 Sr6 2.564918 1_555
O7 Sr5 2.564918 1_555
O8 Sr0 2.499276 1_565
O9 Sr1 2.499276 1_555
O10 Sr2 2.499276 1_555
O11 Sr3 2.499276 1_545
O12 Sr4 2.499276 1_545
O13 Sr5 2.499276 1_555
O14 Sr6 2.499276 1_555
O15 Sr7 2.499276 1_565
O16 Sr6 2.439487 1_555
O17 Sr7 2.439487 1_555
O18 Sr4 2.439487 1_555
O19 Sr5 2.439487 1_555
O20 Sr2 2.439487 1_555
O21 Sr3 2.439487 1_555
O22 Sr0 2.439487 1_555
O23 Sr1 2.439487 1_555
