# generated using pymatgen
data_UFeSi
_symmetry_space_group_name_H-M   'P 1'
_cell_length_a   4.21508042
_cell_length_b   6.48325963
_cell_length_c   7.17195706
_cell_angle_alpha   90.00000000
_cell_angle_beta   90.00000000
_cell_angle_gamma   90.00000000
_symmetry_Int_Tables_number   1
_chemical_formula_structural   UFeSi
_chemical_formula_sum   'U4 Fe4 Si4'
_cell_volume   195.99137487
_cell_formula_units_Z   4
loop_
 _symmetry_equiv_pos_site_id
 _symmetry_equiv_pos_as_xyz
  1  'x, y, z'
loop_
 _atom_site_type_symbol
 _atom_site_label
 _atom_site_symmetry_multiplicity
 _atom_site_fract_x
 _atom_site_fract_y
 _atom_site_fract_z
 _atom_site_occupancy
  U  U0  1  0.25000000  0.82780686  0.51744104  1
  U  U1  1  0.75000000  0.17219314  0.48255896  1
  U  U2  1  0.75000000  0.32780686  0.98255896  1
  U  U3  1  0.25000000  0.67219314  0.01744104  1
  Fe  Fe0  1  0.25000000  0.44288015  0.35838843  1
  Fe  Fe1  1  0.75000000  0.55711985  0.64161157  1
  Fe  Fe2  1  0.75000000  0.94288015  0.14161157  1
  Fe  Fe3  1  0.25000000  0.05711985  0.85838843  1
  Si  Si0  1  0.25000000  0.38646660  0.69446335  1
  Si  Si1  1  0.75000000  0.61353340  0.30553665  1
  Si  Si2  1  0.75000000  0.88646660  0.80553665  1
  Si  Si3  1  0.25000000  0.11353340  0.19446335  1
loop_
_geom_bond_atom_site_label_1
_geom_bond_atom_site_label_2
_geom_bond_distance
_geom_bond_site_symmetry_2
Fe0 Si1 2.410291 1_455
Fe0 Si1 2.410291 1_555
Fe0 Si3 2.437506 1_555
Fe0 Si0 2.437906 1_555
Fe0 U0 2.743931 1_555
Fe0 U3 2.861741 1_555
Fe0 U1 2.883503 1_555
Fe0 U1 2.883503 1_455
Fe1 Si0 2.410291 1_655
Fe1 Si0 2.410291 1_555
Fe1 Si2 2.437506 1_555
Fe1 Si1 2.437906 1_555
Fe1 U1 2.743931 1_555
Fe1 U2 2.861741 1_555
Fe1 U0 2.883503 1_655
Fe1 U0 2.883503 1_555
Fe2 Si3 2.410291 1_565
Fe2 Si3 2.410291 1_665
Fe2 Si1 2.437506 1_555
Fe2 Si2 2.437906 1_554
Fe2 U2 2.743931 1_564
Fe2 U1 2.861741 1_565
Fe2 U3 2.883503 1_555
Fe2 U3 2.883503 1_655
Fe3 Si2 2.410291 1_445
Fe3 Si2 2.410291 1_545
Fe3 Si0 2.437506 1_555
Fe3 Si3 2.437906 1_556
Fe3 U3 2.743931 1_546
Fe3 U0 2.861741 1_545
Fe3 U2 2.883503 1_555
Fe3 U2 2.883503 1_455
Si0 U1 2.946400 1_555
Si0 U1 2.946400 1_455
Si0 U3 2.966000 1_556
Si0 U2 2.975833 1_555
Si0 U2 2.975833 1_455
Si0 U0 3.130343 1_555
Si1 U0 2.946400 1_555
Si1 U0 2.946400 1_655
Si1 U2 2.966000 1_554
Si1 U3 2.975833 1_655
Si1 U3 2.975833 1_555
Si1 U1 3.130343 1_555
Si2 U3 2.946400 1_556
Si2 U3 2.946400 1_656
Si2 U1 2.966000 1_565
Si2 U0 2.975833 1_655
Si2 U0 2.975833 1_555
Si2 U2 3.130343 1_565
Si3 U2 2.946400 1_454
Si3 U2 2.946400 1_554
Si3 U0 2.966000 1_545
Si3 U1 2.975833 1_455
Si3 U1 2.975833 1_555
Si3 U3 3.130343 1_545
