# generated using pymatgen
data_Na8Mg(FeO4)2
_symmetry_space_group_name_H-M   'P 1'
_cell_length_a   5.81743786
_cell_length_b   5.92945135
_cell_length_c   8.94638216
_cell_angle_alpha   70.65765504
_cell_angle_beta   84.73256044
_cell_angle_gamma   68.12349802
_symmetry_Int_Tables_number   1
_chemical_formula_structural   Na8Mg(FeO4)2
_chemical_formula_sum   'Na8 Mg1 Fe2 O8'
_cell_volume   270.03580301
_cell_formula_units_Z   1
loop_
 _symmetry_equiv_pos_site_id
 _symmetry_equiv_pos_as_xyz
  1  'x, y, z'
loop_
 _atom_site_type_symbol
 _atom_site_label
 _atom_site_symmetry_multiplicity
 _atom_site_fract_x
 _atom_site_fract_y
 _atom_site_fract_z
 _atom_site_occupancy
  Na  Na0  1  0.29651305  0.57770764  0.39843651  1
  Na  Na1  1  0.79113838  0.52833434  0.55991855  1
  Na  Na2  1  0.71712880  0.12658109  0.09511910  1
  Na  Na3  1  0.26201103  0.76927230  0.99357192  1
  Na  Na4  1  0.75818953  0.09766471  0.42901359  1
  Na  Na5  1  0.27814279  0.02792244  0.55176913  1
  Na  Na6  1  0.27315680  0.26839456  0.17871847  1
  Na  Na7  1  0.75809143  0.53303178  0.88670066  1
  Mg  Mg0  1  0.83800962  0.00430455  0.77823594  1
  Fe  Fe0  1  0.25902072  0.39662538  0.75356937  1
  Fe  Fe1  1  0.74782716  0.62500208  0.22258063  1
  O  O0  1  0.84067748  0.78320583  0.00729902  1
  O  O1  1  0.04492216  0.19565077  0.80252602  1
  O  O2  1  0.01626868  0.37983524  0.36570980  1
  O  O3  1  0.01820539  0.74869542  0.65098096  1
  O  O4  1  0.41905468  0.41234249  0.91483318  1
  O  O5  1  0.54852811  0.45230301  0.20411785  1
  O  O6  1  0.56049582  0.86566747  0.33185709  1
  O  O7  1  0.53095138  0.23870889  0.63285419  1
loop_
_geom_bond_atom_site_label_1
_geom_bond_atom_site_label_2
_geom_bond_distance
_geom_bond_site_symmetry_2
Na0 O5 2.302271 1_555
Na0 O2 2.420915 1_555
Na0 O7 2.447125 1_555
Na0 O6 2.596330 1_555
Na0 O3 2.894203 1_555
Na1 O2 2.290327 1_655
Na1 O6 2.400687 1_555
Na1 O3 2.510938 1_655
Na1 O1 2.522639 1_655
Na1 O7 2.584466 1_555
Na2 O4 2.234493 1_554
Na2 O0 2.268195 1_545
Na2 O5 2.302897 1_555
Na2 O6 2.497019 1_545
Na3 O4 2.288783 1_555
Na3 O5 2.399051 1_556
Na3 O0 2.414592 1_456
Na3 O1 2.462212 1_565
Na4 O7 2.348696 1_555
Na4 O5 2.386266 1_555
Na4 O3 2.451567 1_645
Na4 O6 2.474885 1_545
Na4 O2 2.542101 1_655
Na5 O2 2.289443 1_555
Na5 O7 2.533299 1_555
Na5 O3 2.541956 1_545
Na5 O6 2.641441 1_545
Na5 O1 2.788568 1_555
Na6 O2 2.237380 1_555
Na6 O5 2.310806 1_555
Na6 O6 2.377428 1_545
Na6 O4 2.420642 1_554
Na7 O0 2.298218 1_556
Na7 O4 2.303670 1_555
Na7 O1 2.373389 1_655
Na7 O3 2.727992 1_655
Mg0 O1 2.003115 1_655
Mg0 O0 2.032124 1_546
Mg0 O7 2.047733 1_555
Mg0 O3 2.105232 1_645
Fe0 O4 1.832273 1_555
Fe0 O7 1.948831 1_555
Fe0 O1 1.955341 1_555
Fe0 O3 1.987567 1_555
Fe1 O5 1.857975 1_555
Fe1 O2 1.906295 1_655
Fe1 O6 1.936329 1_555
Fe1 O0 1.967473 1_555
