# generated using pymatgen
data_Ba(BiS2)2
_symmetry_space_group_name_H-M   'P 1'
_cell_length_a   25.78961274
_cell_length_b   25.78961274
_cell_length_c   4.16478200
_cell_angle_alpha   90.00000000
_cell_angle_beta   90.00000000
_cell_angle_gamma   120.00000190
_symmetry_Int_Tables_number   1
_chemical_formula_structural   Ba(BiS2)2
_chemical_formula_sum   'Ba12 Bi24 S48'
_cell_volume   2398.90217767
_cell_formula_units_Z   12
loop_
 _symmetry_equiv_pos_site_id
 _symmetry_equiv_pos_as_xyz
  1  'x, y, z'
loop_
 _atom_site_type_symbol
 _atom_site_label
 _atom_site_symmetry_multiplicity
 _atom_site_fract_x
 _atom_site_fract_y
 _atom_site_fract_z
 _atom_site_occupancy
  Ba  Ba0  1  0.77213500  0.65143600  0.75000000  1
  Ba  Ba1  1  0.12069900  0.77213500  0.25000000  1
  Ba  Ba2  1  0.65143600  0.87930100  0.25000000  1
  Ba  Ba3  1  0.34856400  0.12069900  0.75000000  1
  Ba  Ba4  1  0.87930100  0.22786500  0.75000000  1
  Ba  Ba5  1  0.22786500  0.34856400  0.25000000  1
  Ba  Ba6  1  0.67851200  0.44559300  0.75000000  1
  Ba  Ba7  1  0.23291900  0.67851200  0.25000000  1
  Ba  Ba8  1  0.44559300  0.76708100  0.25000000  1
  Ba  Ba9  1  0.55440700  0.23291900  0.75000000  1
  Ba  Ba10  1  0.76708100  0.32148800  0.75000000  1
  Ba  Ba11  1  0.32148800  0.55440700  0.25000000  1
  Bi  Bi0  1  0.15297200  0.97735800  0.75000000  1
  Bi  Bi1  1  0.17561400  0.15297200  0.25000000  1
  Bi  Bi2  1  0.97735800  0.82438600  0.25000000  1
  Bi  Bi3  1  0.02264200  0.17561400  0.75000000  1
  Bi  Bi4  1  0.82438600  0.84702800  0.75000000  1
  Bi  Bi5  1  0.84702800  0.02264200  0.25000000  1
  Bi  Bi6  1  0.54120800  0.94996900  0.75000000  1
  Bi  Bi7  1  0.59123900  0.54120800  0.25000000  1
  Bi  Bi8  1  0.94996900  0.40876100  0.25000000  1
  Bi  Bi9  1  0.05003100  0.59123900  0.75000000  1
  Bi  Bi10  1  0.40876100  0.45879200  0.75000000  1
  Bi  Bi11  1  0.45879200  0.05003100  0.25000000  1
  Bi  Bi12  1  0.35267500  0.85597700  0.75000000  1
  Bi  Bi13  1  0.49669900  0.35267500  0.25000000  1
  Bi  Bi14  1  0.85597700  0.50330100  0.25000000  1
  Bi  Bi15  1  0.14402300  0.49669900  0.75000000  1
  Bi  Bi16  1  0.50330100  0.64732500  0.75000000  1
  Bi  Bi17  1  0.64732500  0.14402300  0.25000000  1
  Bi  Bi18  1  0.72676500  0.05789600  0.75000000  1
  Bi  Bi19  1  0.66886900  0.72676500  0.25000000  1
  Bi  Bi20  1  0.05789600  0.33113100  0.25000000  1
  Bi  Bi21  1  0.94210400  0.66886900  0.75000000  1
  Bi  Bi22  1  0.33113100  0.27323500  0.75000000  1
  Bi  Bi23  1  0.27323500  0.94210400  0.25000000  1
  S  S0  1  0.93650100  0.86148200  0.75000000  1
  S  S1  1  0.07502000  0.93650100  0.25000000  1
  S  S2  1  0.86148200  0.92498000  0.25000000  1
  S  S3  1  0.13851800  0.07502000  0.75000000  1
  S  S4  1  0.92498000  0.06349900  0.75000000  1
  S  S5  1  0.06349900  0.13851800  0.25000000  1
  S  S6  1  0.69375900  0.80773700  0.75000000  1
  S  S7  1  0.88602200  0.69375900  0.25000000  1
  S  S8  1  0.80773700  0.11397800  0.25000000  1
  S  S9  1  0.19226300  0.88602200  0.75000000  1
  S  S10  1  0.11397800  0.30624100  0.75000000  1
  S  S11  1  0.30624100  0.19226300  0.25000000  1
  S  S12  1  0.34368900  0.75213100  0.75000000  1
  S  S13  1  0.59155800  0.34368900  0.25000000  1
  S  S14  1  0.75213100  0.40844200  0.25000000  1
  S  S15  1  0.24786900  0.59155800  0.75000000  1
  S  S16  1  0.40844200  0.65631100  0.75000000  1
  S  S17  1  0.65631100  0.24786900  0.25000000  1
  S  S18  1  0.36734100  0.99774900  0.75000000  1
  S  S19  1  0.36959200  0.36734100  0.25000000  1
  S  S20  1  0.54724700  0.85285400  0.75000000  1
  S  S21  1  0.99774900  0.63040800  0.25000000  1
  S  S22  1  0.63040800  0.63265900  0.75000000  1
  S  S23  1  0.63265900  0.00225100  0.25000000  1
  S  S24  1  0.74979600  0.96851000  0.75000000  1
  S  S25  1  0.78128700  0.74979600  0.25000000  1
  S  S26  1  0.96851000  0.21871300  0.25000000  1
  S  S27  1  0.03149000  0.78128700  0.75000000  1
  S  S28  1  0.21871300  0.25020400  0.75000000  1
  S  S29  1  0.25020400  0.03149000  0.25000000  1
  S  S30  1  0.91003700  0.45506200  0.75000000  1
  S  S31  1  0.45497600  0.91003700  0.25000000  1
  S  S32  1  0.45506200  0.54502400  0.25000000  1
  S  S33  1  0.54493800  0.45497600  0.75000000  1
  S  S34  1  0.54502400  0.08996300  0.75000000  1
  S  S35  1  0.08996300  0.54493800  0.25000000  1
  S  S36  1  0.17467200  0.44874100  0.25000000  1
  S  S37  1  0.72593100  0.17467200  0.75000000  1
  S  S38  1  0.44874100  0.27406900  0.75000000  1
  S  S39  1  0.55125900  0.72593100  0.25000000  1
  S  S40  1  0.27406900  0.82532800  0.25000000  1
  S  S41  1  0.82532800  0.55125900  0.75000000  1
  S  S42  1  0.45275300  0.14714600  0.25000000  1
  S  S43  1  0.30560800  0.45275300  0.75000000  1
  S  S44  1  0.14714600  0.69439200  0.75000000  1
  S  S45  1  0.85285400  0.30560800  0.25000000  1
  S  S46  1  0.69439200  0.54724700  0.25000000  1
  S  S47  1  0.00225100  0.36959200  0.75000000  1
loop_
_geom_bond_atom_site_label_1
_geom_bond_atom_site_label_2
_geom_bond_distance
_geom_bond_site_symmetry_2
Ba0 S46 3.191996 1_556
Ba0 S46 3.191996 1_555
Ba0 S25 3.198127 1_556
Ba0 S25 3.198127 1_555
Ba0 S7 3.308844 1_555
Ba0 S7 3.308844 1_556
Ba0 S22 3.438628 1_555
Ba0 S41 3.478601 1_555
Ba1 S44 3.192010 1_554
Ba1 S44 3.192010 1_555
Ba1 S27 3.198146 1_554
Ba1 S27 3.198146 1_555
Ba1 S9 3.308844 1_555
Ba1 S9 3.308844 1_554
Ba1 S21 3.438628 1_455
Ba1 S40 3.478601 1_555
Ba2 S20 3.191991 1_555
Ba2 S20 3.191991 1_554
Ba2 S24 3.198135 1_555
Ba2 S24 3.198135 1_554
Ba2 S6 3.308844 1_555
Ba2 S6 3.308844 1_554
Ba2 S23 3.438628 1_565
Ba2 S39 3.478601 1_555
Ba3 S42 3.191991 1_556
Ba3 S42 3.191991 1_555
Ba3 S29 3.198135 1_556
Ba3 S29 3.198135 1_555
Ba3 S11 3.308844 1_555
Ba3 S11 3.308844 1_556
Ba3 S18 3.438628 1_545
Ba3 S38 3.478601 1_555
Ba4 S45 3.192010 1_556
Ba4 S45 3.192010 1_555
Ba4 S26 3.198146 1_556
Ba4 S26 3.198146 1_555
Ba4 S8 3.308844 1_555
Ba4 S8 3.308844 1_556
Ba4 S47 3.438628 1_655
Ba4 S37 3.478601 1_555
Ba5 S43 3.191996 1_555
Ba5 S43 3.191996 1_554
Ba5 S28 3.198127 1_555
Ba5 S28 3.198127 1_554
Ba5 S10 3.308844 1_554
Ba5 S10 3.308844 1_555
Ba5 S19 3.438628 1_555
Ba5 S36 3.478601 1_555
Ba6 S46 3.209875 1_556
Ba6 S46 3.209875 1_555
Ba6 S13 3.221563 1_556
Ba6 S13 3.221563 1_555
Ba6 S14 3.267737 1_555
Ba6 S14 3.267737 1_556
Ba6 S41 3.382943 1_555
Ba6 S33 3.571966 1_555
Ba7 S44 3.209856 1_555
Ba7 S44 3.209856 1_554
Ba7 S15 3.221563 1_554
Ba7 S15 3.221563 1_555
Ba7 S12 3.267737 1_554
Ba7 S12 3.267737 1_555
Ba7 S40 3.382943 1_555
Ba7 S35 3.571952 1_555
Ba8 S20 3.209868 1_555
Ba8 S20 3.209868 1_554
Ba8 S12 3.221563 1_555
Ba8 S12 3.221563 1_554
Ba8 S16 3.267737 1_555
Ba8 S16 3.267737 1_554
Ba8 S39 3.382943 1_555
Ba8 S31 3.571941 1_555
Ba9 S42 3.209868 1_556
Ba9 S42 3.209868 1_555
Ba9 S17 3.221563 1_556
Ba9 S17 3.221563 1_555
Ba9 S13 3.267737 1_556
Ba9 S13 3.267737 1_555
Ba9 S38 3.382943 1_555
Ba9 S34 3.571941 1_555
Ba10 S45 3.209856 1_556
Ba10 S45 3.209856 1_555
Ba10 S14 3.221563 1_555
Ba10 S14 3.221563 1_556
Ba10 S17 3.267737 1_555
Ba10 S17 3.267737 1_556
Ba10 S37 3.382943 1_555
Ba10 S30 3.571952 1_555
Ba11 S43 3.209875 1_554
Ba11 S43 3.209875 1_555
Ba11 S16 3.221563 1_555
Ba11 S16 3.221563 1_554
Ba11 S15 3.267737 1_555
Ba11 S15 3.267737 1_554
Ba11 S36 3.382943 1_555
Ba11 S32 3.571966 1_555
Bi0 S1 2.714745 1_555
Bi0 S1 2.714745 1_556
Bi0 S3 2.724242 1_565
Bi0 S9 2.993676 1_555
Bi0 S29 3.012066 1_565
Bi0 S29 3.012066 1_566
Bi1 S3 2.714745 1_555
Bi1 S3 2.714745 1_554
Bi1 S5 2.724216 1_555
Bi1 S11 2.993676 1_555
Bi1 S28 3.012067 1_555
Bi1 S28 3.012067 1_554
Bi2 S0 2.714759 1_555
Bi2 S0 2.714759 1_554
Bi2 S1 2.724226 1_655
Bi2 S7 2.993676 1_555
Bi2 S27 3.012050 1_654
Bi2 S27 3.012050 1_655
Bi3 S5 2.714759 1_555
Bi3 S5 2.714759 1_556
Bi3 S4 2.724226 1_455
Bi3 S10 2.993676 1_555
Bi3 S26 3.012050 1_455
Bi3 S26 3.012050 1_456
Bi4 S2 2.714745 1_555
Bi4 S2 2.714745 1_556
Bi4 S0 2.724216 1_555
Bi4 S6 2.993676 1_555
Bi4 S25 3.012067 1_556
Bi4 S25 3.012067 1_555
Bi5 S4 2.714745 1_555
Bi5 S4 2.714745 1_554
Bi5 S2 2.724242 1_545
Bi5 S8 2.993676 1_555
Bi5 S24 3.012066 1_544
Bi5 S24 3.012066 1_545
Bi6 S20 2.585950 1_555
Bi6 S31 2.837668 1_555
Bi6 S31 2.837668 1_556
Bi6 S23 2.921778 1_565
Bi6 S23 2.921778 1_566
Bi7 S46 2.585924 1_555
Bi7 S33 2.837669 1_554
Bi7 S33 2.837669 1_555
Bi7 S22 2.921778 1_555
Bi7 S22 2.921778 1_554
Bi8 S45 2.585936 1_555
Bi8 S30 2.837684 1_554
Bi8 S30 2.837684 1_555
Bi8 S47 2.921778 1_654
Bi8 S47 2.921778 1_655
Bi9 S44 2.585936 1_555
Bi9 S35 2.837684 1_555
Bi9 S35 2.837684 1_556
Bi9 S21 2.921778 1_456
Bi9 S21 2.921778 1_455
Bi10 S43 2.585924 1_555
Bi10 S32 2.837669 1_555
Bi10 S32 2.837669 1_556
Bi10 S19 2.921778 1_556
Bi10 S19 2.921778 1_555
Bi11 S42 2.585950 1_555
Bi11 S34 2.837668 1_554
Bi11 S34 2.837668 1_555
Bi11 S18 2.921778 1_545
Bi11 S18 2.921778 1_544
Bi12 S12 2.570123 1_555
Bi12 S40 2.732833 1_555
Bi12 S40 2.732833 1_556
Bi12 S31 3.092324 1_556
Bi12 S31 3.092324 1_555
Bi13 S13 2.570098 1_555
Bi13 S38 2.732835 1_554
Bi13 S38 2.732835 1_555
Bi13 S33 3.092325 1_555
Bi13 S33 3.092325 1_554
Bi14 S14 2.570112 1_555
Bi14 S41 2.732848 1_555
Bi14 S41 2.732848 1_554
Bi14 S30 3.092291 1_555
Bi14 S30 3.092291 1_554
Bi15 S15 2.570112 1_555
Bi15 S36 2.732848 1_555
Bi15 S36 2.732848 1_556
Bi15 S35 3.092291 1_555
Bi15 S35 3.092291 1_556
Bi16 S16 2.570098 1_555
Bi16 S39 2.732835 1_556
Bi16 S39 2.732835 1_555
Bi16 S32 3.092325 1_555
Bi16 S32 3.092325 1_556
Bi17 S17 2.570123 1_555
Bi17 S37 2.732833 1_555
Bi17 S37 2.732833 1_554
Bi17 S34 3.092324 1_555
Bi17 S34 3.092324 1_554
Bi18 S24 2.652563 1_545
Bi18 S8 2.787235 1_556
Bi18 S8 2.787235 1_555
Bi18 S23 2.966992 1_555
Bi18 S23 2.966992 1_556
Bi18 S37 3.022419 1_555
Bi19 S25 2.652589 1_555
Bi19 S6 2.787235 1_555
Bi19 S6 2.787235 1_554
Bi19 S22 2.966992 1_554
Bi19 S22 2.966992 1_555
Bi19 S39 3.022419 1_555
Bi20 S26 2.652580 1_455
Bi20 S10 2.787235 1_554
Bi20 S10 2.787235 1_555
Bi20 S47 2.966992 1_555
Bi20 S47 2.966992 1_554
Bi20 S36 3.022419 1_555
Bi21 S27 2.652580 1_655
Bi21 S7 2.787235 1_555
Bi21 S7 2.787235 1_556
Bi21 S21 2.966992 1_556
Bi21 S21 2.966992 1_555
Bi21 S41 3.022419 1_555
Bi22 S28 2.652589 1_555
Bi22 S11 2.787235 1_555
Bi22 S11 2.787235 1_556
Bi22 S19 2.966992 1_555
Bi22 S19 2.966992 1_556
Bi22 S38 3.022419 1_555
Bi23 S29 2.652563 1_565
Bi23 S9 2.787235 1_555
Bi23 S9 2.787235 1_554
Bi23 S18 2.966992 1_554
Bi23 S18 2.966992 1_555
Bi23 S40 3.022419 1_555
