# generated using pymatgen
data_Na4CaSi3Ge3(SO8)3
_symmetry_space_group_name_H-M   'P 1'
_cell_length_a   8.84244029
_cell_length_b   8.82730878
_cell_length_c   22.35274539
_cell_angle_alpha   88.74310294
_cell_angle_beta   92.04705780
_cell_angle_gamma   119.55349476
_symmetry_Int_Tables_number   1
_chemical_formula_structural   Na4CaSi3Ge3(SO8)3
_chemical_formula_sum   'Na12 Ca3 Si9 Ge9 S9 O72'
_cell_volume   1516.75642319
_cell_formula_units_Z   3
loop_
 _symmetry_equiv_pos_site_id
 _symmetry_equiv_pos_as_xyz
  1  'x, y, z'
loop_
 _atom_site_type_symbol
 _atom_site_label
 _atom_site_symmetry_multiplicity
 _atom_site_fract_x
 _atom_site_fract_y
 _atom_site_fract_z
 _atom_site_occupancy
  Na  Na0  1  0.64241994  0.00470689  0.24309367  1
  Na  Na1  1  0.37151405  0.35478716  0.25100016  1
  Na  Na2  1  0.98358861  0.63347424  0.25079789  1
  Na  Na3  1  0.99157363  0.36189961  0.75597023  1
  Na  Na4  1  0.38318908  0.01095063  0.75760754  1
  Na  Na5  1  0.71025861  0.67936215  0.40947108  1
  Na  Na6  1  0.00864064  0.02203071  0.49831822  1
  Na  Na7  1  0.00518749  0.00703256  0.99994386  1
  Na  Na8  1  0.65667754  0.33424571  0.83469519  1
  Na  Na9  1  0.65090263  0.32006333  0.32950563  1
  Na  Na10  1  0.34674162  0.68063378  0.15926059  1
  Na  Na11  1  0.35267784  0.66445930  0.66901346  1
  Ca  Ca0  1  0.00718240  0.01101223  0.35931748  1
  Ca  Ca1  1  0.65976537  0.32847133  0.68394892  1
  Ca  Ca2  1  0.65815139  0.32085254  0.17081632  1
  Si  Si0  1  0.28454749  0.98884271  0.24839053  1
  Si  Si1  1  0.70266116  0.70028754  0.25314875  1
  Si  Si2  1  0.28896014  0.29893351  0.75477709  1
  Si  Si3  1  0.70984303  0.98191268  0.75849185  1
  Si  Si4  1  0.66310829  0.01327309  0.08347627  1
  Si  Si5  1  0.05199507  0.39304815  0.91700981  1
  Si  Si6  1  0.32501188  0.95101167  0.91397260  1
  Si  Si7  1  0.61600843  0.95880985  0.42062880  1
  Si  Si8  1  0.33538720  0.38878426  0.42023039  1
  Ge  Ge0  1  0.02958284  0.04631304  0.86004853  1
  Ge  Ge1  1  0.98317533  0.01407426  0.65969358  1
  Ge  Ge2  1  0.97193995  0.96628618  0.14843615  1
  Ge  Ge3  1  0.67358662  0.29068658  0.97403743  1
  Ge  Ge4  1  0.64236985  0.31156521  0.47423449  1
  Ge  Ge5  1  0.33102328  0.67431235  0.01388272  1
  Ge  Ge6  1  0.34195642  0.66741984  0.51378820  1
  Ge  Ge7  1  0.36909289  0.69193441  0.31286224  1
  Ge  Ge8  1  0.34456882  0.66726290  0.81917610  1
  S  S0  1  0.01012818  0.29976225  0.24747979  1
  S  S1  1  0.00660346  0.72418952  0.75167213  1
  S  S2  1  0.97391833  0.33925339  0.58155651  1
  S  S3  1  0.35676862  0.01979612  0.57986842  1
  S  S4  1  0.66847447  0.64468156  0.58003068  1
  S  S5  1  0.97144220  0.63435580  0.07954270  1
  S  S6  1  0.35939541  0.33455173  0.07818900  1
  S  S7  1  0.62468241  0.66219482  0.91936846  1
  S  S8  1  0.04322494  0.65197807  0.42030322  1
  O  O0  1  0.22132521  0.05304097  0.30487054  1
  O  O1  1  0.80979150  0.77339085  0.31447003  1
  O  O2  1  0.97224748  0.19554709  0.30222567  1
  O  O3  1  0.20010348  0.16486177  0.81028321  1
  O  O4  1  0.98523949  0.80358982  0.80432343  1
  O  O5  1  0.84706053  0.01303895  0.81373235  1
  O  O6  1  0.78246939  0.94890606  0.69381197  1
  O  O7  1  0.15409436  0.21000756  0.69358839  1
  O  O8  1  0.03421447  0.83569773  0.69398714  1
  O  O9  1  0.79039804  0.83364949  0.19421036  1
  O  O10  1  0.03656482  0.21483139  0.19470539  1
  O  O11  1  0.14873426  0.95319469  0.18809854  1
  O  O12  1  0.90638137  0.36371573  0.63776749  1
  O  O13  1  0.45939235  0.08511108  0.63617978  1
  O  O14  1  0.64387974  0.54106195  0.63443315  1
  O  O15  1  0.91264779  0.54899902  0.13784017  1
  O  O16  1  0.61895444  0.06440157  0.14552901  1
  O  O17  1  0.44797180  0.36680207  0.13759510  1
  O  O18  1  0.45805389  0.31229892  0.02940730  1
  O  O19  1  0.84990623  0.54207539  0.02860804  1
  O  O20  1  0.70583582  0.15991376  0.02746133  1
  O  O21  1  0.44767586  0.14069460  0.52797708  1
  O  O22  1  0.68888702  0.56182762  0.52608173  1
  O  O23  1  0.85663968  0.31300073  0.52874703  1
  O  O24  1  0.53981249  0.69333962  0.96983076  1
  O  O25  1  0.17740640  0.48249207  0.97435971  1
  O  O26  1  0.29779143  0.83344756  0.97275621  1
  O  O27  1  0.51138856  0.83995370  0.47754550  1
  O  O28  1  0.31359907  0.48059099  0.47952501  1
  O  O29  1  0.15025015  0.67363873  0.47674146  1
  O  O30  1  0.12029494  0.63094436  0.36591255  1
  O  O31  1  0.50499043  0.88390138  0.35638505  1
  O  O32  1  0.37266959  0.51409477  0.35849470  1
  O  O33  1  0.13547026  0.50572295  0.85482904  1
  O  O34  1  0.36573173  0.86892383  0.85426263  1
  O  O35  1  0.51245922  0.62786572  0.86164411  1
  O  O36  1  0.02071007  0.80502433  0.42039868  1
  O  O37  1  0.79832138  0.96487837  0.42438468  1
  O  O38  1  0.18374788  0.19599884  0.42469264  1
  O  O39  1  0.02598137  0.19401319  0.91360378  1
  O  O40  1  0.14506486  0.96684973  0.90784431  1
  O  O41  1  0.79620637  0.81736060  0.91293726  1
  O  O42  1  0.98803066  0.17339781  0.58583277  1
  O  O43  1  0.18457865  0.00716058  0.58317016  1
  O  O44  1  0.82768676  0.82173974  0.58473526  1
  O  O45  1  0.98814810  0.81359279  0.08153098  1
  O  O46  1  0.85210223  0.00987272  0.08871790  1
  O  O47  1  0.18605440  0.17529888  0.08087540  1
  O  O48  1  0.69819410  0.15897184  0.75312385  1
  O  O49  1  0.47265430  0.30844045  0.74960729  1
  O  O50  1  0.85842792  0.54658628  0.74470004  1
  O  O51  1  0.67349144  0.50790239  0.24366380  1
  O  O52  1  0.86242470  0.33334793  0.23902654  1
  O  O53  1  0.48384500  0.14503884  0.24351548  1
  O  O54  1  0.63733554  0.50094263  0.92553341  1
  O  O55  1  0.85250380  0.36882043  0.92304202  1
  O  O56  1  0.50007646  0.15160943  0.92197597  1
  O  O57  1  0.63128689  0.15348888  0.42452729  1
  O  O58  1  0.52933195  0.39101927  0.42526127  1
  O  O59  1  0.86711523  0.49075940  0.42509577  1
  O  O60  1  0.34195371  0.49571033  0.06943153  1
  O  O61  1  0.14867165  0.65288153  0.07263971  1
  O  O62  1  0.49374754  0.82279064  0.06624110  1
  O  O63  1  0.33704389  0.84054576  0.57228239  1
  O  O64  1  0.50385779  0.66209989  0.57643450  1
  O  O65  1  0.15098715  0.49684683  0.57522325  1
  O  O66  1  0.28069842  0.79673886  0.25826256  1
  O  O67  1  0.50933102  0.69590997  0.25396697  1
  O  O68  1  0.17460794  0.47166896  0.25366081  1
  O  O69  1  0.29020274  0.48585014  0.76071074  1
  O  O70  1  0.17067242  0.71189548  0.75243599  1
  O  O71  1  0.51057783  0.81283512  0.76230330  1
loop_
_geom_bond_atom_site_label_1
_geom_bond_atom_site_label_2
_geom_bond_distance
_geom_bond_site_symmetry_2
Na0 O16 2.258737 1_555
Na0 O53 2.283782 1_555
Na0 O67 2.387707 1_545
Na0 O52 2.577304 1_555
Na0 O9 2.703644 1_545
Na0 O31 2.801760 1_545
Na0 O66 2.823709 1_545
Na0 O2 2.840149 1_555
Na1 O51 2.333472 1_555
Na1 O68 2.425239 1_555
Na1 O53 2.506461 1_555
Na1 O0 2.606239 1_555
Na1 O17 2.633253 1_555
Na1 O67 2.634360 1_555
Na1 O32 2.807741 1_555
Na1 O10 2.841509 1_555
Na2 O66 2.291531 1_655
Na2 O52 2.333740 1_555
Na2 O51 2.398120 1_555
Na2 O15 2.613954 1_555
Na2 O68 2.695418 1_655
Na2 O30 2.807958 1_655
Na2 O11 2.822937 1_655
Na2 O1 2.831707 1_555
Na3 O69 2.305683 1_655
Na3 O48 2.313382 1_555
Na3 O50 2.441644 1_555
Na3 O33 2.538215 1_655
Na3 O70 2.689058 1_655
Na3 O12 2.723340 1_555
Na3 O7 2.816603 1_655
Na3 O5 2.974022 1_555
Na4 O49 2.343936 1_555
Na4 O70 2.370170 1_545
Na4 O48 2.428947 1_555
Na4 O34 2.444893 1_545
Na4 O71 2.503004 1_545
Na4 O13 2.804866 1_555
Na4 O3 2.868667 1_555
Na5 O58 2.268595 1_555
Na5 O37 2.269780 1_555
Na5 O1 2.304017 1_555
Na5 O36 2.405422 1_655
Na5 O59 2.652408 1_555
Na5 O22 2.762151 1_555
Na5 O32 2.805622 1_555
Na6 O38 2.278099 1_555
Na6 O37 2.309923 1_445
Na6 O43 2.452467 1_555
Na6 O42 2.454705 1_455
Na6 O44 2.588000 1_445
Na6 O36 2.660026 1_545
Na7 O47 2.367373 1_556
Na7 O45 2.427658 1_446
Na7 O46 2.449115 1_456
Na7 O39 2.463527 1_555
Na7 O40 2.557443 1_545
Na7 O41 2.614272 1_445
Na8 O49 2.397786 1_555
Na8 O56 2.485089 1_555
Na8 O55 2.500431 1_555
Na8 O48 2.566136 1_555
Na8 O54 2.592592 1_555
Na8 O50 2.744981 1_555
Na9 O53 2.437150 1_555
Na9 O51 2.456038 1_555
Na9 O57 2.518182 1_555
Na9 O58 2.648889 1_555
Na9 O59 2.738374 1_555
Na9 O52 2.765111 1_555
Na10 O62 2.461127 1_555
Na10 O67 2.484038 1_555
Na10 O61 2.496339 1_555
Na10 O60 2.601492 1_555
Na10 O66 2.659119 1_555
Na10 O68 2.731457 1_555
Na11 O69 2.464163 1_555
Na11 O71 2.474097 1_555
Na11 O64 2.509352 1_555
Na11 O65 2.651585 1_555
Na11 O63 2.674599 1_555
Na11 O70 2.675077 1_555
Ca0 O0 2.157814 1_555
Ca0 O38 2.160141 1_555
Ca0 O2 2.180482 1_455
Ca0 O1 2.192447 1_445
Ca0 O37 2.261861 1_445
Ca0 O36 2.297543 1_545
Ca1 O49 2.190017 1_555
Ca1 O14 2.219057 1_555
Ca1 O13 2.259420 1_555
Ca1 O48 2.259990 1_555
Ca1 O50 2.290144 1_555
Ca1 O12 2.322770 1_555
Ca2 O17 2.191301 1_555
Ca2 O16 2.198278 1_555
Ca2 O53 2.265724 1_555
Ca2 O52 2.283321 1_555
Ca2 O15 2.290412 1_555
Ca2 O51 2.297262 1_555
Ge0 O3 1.765855 1_555
Ge0 O5 1.785847 1_455
Ge0 O39 1.801698 1_555
Ge0 O40 1.808851 1_545
Ge0 O4 2.355723 1_445
Ge0 O41 2.386621 1_445
Ge1 O6 1.769898 1_545
Ge1 O7 1.801846 1_655
Ge1 O8 1.973310 1_645
Ge1 O42 2.132887 1_555
Ge1 O44 2.288611 1_545
Ge1 O43 2.535859 1_655
Ge2 O9 1.790348 1_555
Ge2 O11 1.821521 1_655
Ge2 O46 1.825208 1_565
Ge2 O45 2.090017 1_555
Ge2 O10 2.242840 1_665
Ge2 O47 2.430100 1_665
Ge3 O20 1.754953 1_556
Ge3 O56 1.814496 1_555
Ge3 O55 1.815464 1_555
Ge3 O54 2.279635 1_555
Ge3 O19 2.326578 1_556
Ge3 O18 2.395407 1_556
Ge4 O57 1.765384 1_555
Ge4 O58 1.808042 1_555
Ge4 O21 2.046621 1_555
Ge4 O59 2.153285 1_555
Ge4 O23 2.210598 1_555
Ge4 O22 2.361037 1_555
Ge5 O25 1.789884 1_554
Ge5 O26 1.798881 1_554
Ge5 O62 1.801265 1_555
Ge5 O60 2.023001 1_555
Ge5 O61 2.049434 1_555
Ge5 O24 2.054997 1_554
Ge6 O27 1.732665 1_555
Ge6 O28 1.732929 1_555
Ge6 O29 1.884626 1_555
Ge6 O64 1.983128 1_555
Ge6 O63 2.050407 1_555
Ge6 O65 2.138033 1_555
Ge7 O31 1.800561 1_555
Ge7 O67 1.828583 1_555
Ge7 O32 1.866082 1_555
Ge7 O66 1.884667 1_555
Ge7 O68 2.267354 1_555
Ge7 O30 2.350724 1_555
Ge8 O34 1.881782 1_555
Ge8 O33 1.881921 1_555
Ge8 O35 1.902665 1_555
Ge8 O71 1.903427 1_555
Ge8 O69 1.947033 1_555
Ge8 O70 2.270055 1_555
O0 Si0 1.619217 1_545
O1 Si1 1.592362 1_555
O2 S0 1.460103 1_655
O3 Si2 1.626434 1_555
O4 S1 1.447313 1_655
O5 Si3 1.628293 1_545
O6 Si3 1.690252 1_555
O7 Si2 1.707679 1_555
O8 S1 1.555901 1_555
O9 Si1 1.681490 1_555
O10 S0 1.496555 1_555
O11 Si0 1.699322 1_555
O12 S2 1.474687 1_555
O13 S3 1.474569 1_555
O14 S4 1.461701 1_555
O15 S5 1.467990 1_555
O16 Si4 1.587455 1_555
O17 S6 1.476520 1_555
O18 S6 1.494998 1_555
O19 S5 1.484732 1_555
O20 Si4 1.693014 1_555
O21 S3 1.515433 1_555
O22 S4 1.485319 1_555
O23 S2 1.486621 1_555
O24 S7 1.479424 1_555
O25 Si5 1.604869 1_555
O26 Si6 1.605554 1_555
O27 Si7 1.625807 1_555
O28 Si8 1.633995 1_555
O29 S8 1.506805 1_555
O30 S8 1.473410 1_555
O31 Si7 1.662435 1_555
O32 Si8 1.685930 1_555
O33 Si5 1.659628 1_555
O34 Si6 1.664399 1_555
O35 S7 1.539627 1_555
O36 S8 1.459550 1_555
O37 Si7 1.585590 1_555
O38 Si8 1.566854 1_555
O39 Si5 1.658765 1_555
O40 Si6 1.665284 1_555
O41 S7 1.467896 1_555
O42 S2 1.530166 1_555
O43 S3 1.475220 1_555
O44 S4 1.503954 1_555
O45 S5 1.516294 1_555
O46 Si4 1.686052 1_555
O47 S6 1.485417 1_555
O48 Si3 1.617882 1_545
O49 Si2 1.592883 1_555
O50 S1 1.472636 1_655
O51 Si1 1.604772 1_555
O52 S0 1.480295 1_655
O53 Si0 1.621341 1_545
O54 S7 1.484937 1_555
O55 Si5 1.679033 1_655
O56 Si6 1.689353 1_545
O57 Si7 1.660049 1_545
O58 Si8 1.704997 1_555
O59 S8 1.510239 1_655
O60 S6 1.512596 1_555
O61 S5 1.506598 1_455
O62 Si4 1.649719 1_565
O63 S3 1.516660 1_565
O64 S4 1.536488 1_555
O65 S2 1.505091 1_455
O66 Si0 1.688976 1_555
O67 Si1 1.691535 1_555
O68 S0 1.501594 1_555
O69 Si2 1.652794 1_555
O70 S1 1.506739 1_555
O71 Si3 1.658426 1_555
