# generated using pymatgen
data_SmBrO
_symmetry_space_group_name_H-M   'P 1'
_cell_length_a   3.94264325
_cell_length_b   3.94264325
_cell_length_c   8.24424913
_cell_angle_alpha   90.00000000
_cell_angle_beta   90.00000000
_cell_angle_gamma   90.00000000
_symmetry_Int_Tables_number   1
_chemical_formula_structural   SmBrO
_chemical_formula_sum   'Sm2 Br2 O2'
_cell_volume   128.15220129
_cell_formula_units_Z   2
loop_
 _symmetry_equiv_pos_site_id
 _symmetry_equiv_pos_as_xyz
  1  'x, y, z'
loop_
 _atom_site_type_symbol
 _atom_site_label
 _atom_site_symmetry_multiplicity
 _atom_site_fract_x
 _atom_site_fract_y
 _atom_site_fract_z
 _atom_site_occupancy
  Sm  Sm0  1  0.25000000  0.25000000  0.85762764  1
  Sm  Sm1  1  0.75000000  0.75000000  0.14237236  1
  Br  Br0  1  0.75000000  0.75000000  0.66169072  1
  Br  Br1  1  0.25000000  0.25000000  0.33830928  1
  O  O0  1  0.75000000  0.25000000  -0.00000000  1
  O  O1  1  0.25000000  0.75000000  -0.00000000  1
loop_
_geom_bond_atom_site_label_1
_geom_bond_atom_site_label_2
_geom_bond_distance
_geom_bond_site_symmetry_2
Br0 Sm0 3.222046 1_555
Br0 Sm0 3.222046 1_665
Br0 Sm0 3.222046 1_565
Br0 Sm0 3.222046 1_655
Br1 Sm1 3.222046 1_545
Br1 Sm1 3.222046 1_455
Br1 Sm1 3.222046 1_445
Br1 Sm1 3.222046 1_555
O0 Sm0 2.294298 1_654
O0 Sm1 2.294298 1_545
O0 Sm1 2.294298 1_555
O0 Sm0 2.294298 1_554
O1 Sm1 2.294298 1_555
O1 Sm1 2.294298 1_455
O1 Sm0 2.294298 1_564
O1 Sm0 2.294298 1_554
