# generated using pymatgen
data_Sr2MgCoO4
_symmetry_space_group_name_H-M   'P 1'
_cell_length_a   3.85288490
_cell_length_b   3.89460137
_cell_length_c   9.88149033
_cell_angle_alpha   101.36539611
_cell_angle_beta   101.24207128
_cell_angle_gamma   89.99998718
_symmetry_Int_Tables_number   1
_chemical_formula_structural   Sr2MgCoO4
_chemical_formula_sum   'Sr2 Mg1 Co1 O4'
_cell_volume   142.46543767
_cell_formula_units_Z   1
loop_
 _symmetry_equiv_pos_site_id
 _symmetry_equiv_pos_as_xyz
  1  'x, y, z'
loop_
 _atom_site_type_symbol
 _atom_site_label
 _atom_site_symmetry_multiplicity
 _atom_site_fract_x
 _atom_site_fract_y
 _atom_site_fract_z
 _atom_site_occupancy
  Sr  Sr0  1  0.68615508  0.68615508  0.37230916  1
  Sr  Sr1  1  0.31384492  0.31384492  0.62769084  1
  Mg  Mg0  1  0.50000000  0.50000000  0.00000000  1
  Co  Co0  1  -0.00000000  -0.00000000  0.00000000  1
  O  O0  1  0.80952397  0.80952397  0.61904793  1
  O  O1  1  0.19047603  0.19047603  0.38095207  1
  O  O2  1  -0.00000000  0.50000000  0.00000000  1
  O  O3  1  0.50000000  -0.00000000  0.00000000  1
loop_
_geom_bond_atom_site_label_1
_geom_bond_atom_site_label_2
_geom_bond_distance
_geom_bond_site_symmetry_2
Mg0 O2 1.926442 1_555
Mg0 O2 1.926442 1_655
Mg0 O3 1.947301 1_555
Mg0 O3 1.947301 1_565
Co0 O3 1.926442 1_555
Co0 O3 1.926442 1_455
Co0 O2 1.947301 1_545
Co0 O2 1.947301 1_555
O0 Sr0 2.342599 1_555
O0 Sr1 2.740416 1_665
O0 Sr1 2.740418 1_565
O0 Sr1 2.740418 1_655
O0 Sr1 2.740422 1_555
O1 Sr1 2.342599 1_555
O1 Sr0 2.740416 1_445
O1 Sr0 2.740418 1_545
O1 Sr0 2.740418 1_455
O1 Sr0 2.740422 1_555
