# generated using pymatgen
data_SrIn2Pt
_symmetry_space_group_name_H-M   'P 1'
_cell_length_a   4.50706637
_cell_length_b   5.93458525
_cell_length_c   7.96515564
_cell_angle_alpha   90.00000000
_cell_angle_beta   90.00000000
_cell_angle_gamma   112.31689836
_symmetry_Int_Tables_number   1
_chemical_formula_structural   SrIn2Pt
_chemical_formula_sum   'Sr2 In4 Pt2'
_cell_volume   197.09074172
_cell_formula_units_Z   2
loop_
 _symmetry_equiv_pos_site_id
 _symmetry_equiv_pos_as_xyz
  1  'x, y, z'
loop_
 _atom_site_type_symbol
 _atom_site_label
 _atom_site_symmetry_multiplicity
 _atom_site_fract_x
 _atom_site_fract_y
 _atom_site_fract_z
 _atom_site_occupancy
  Sr  Sr0  1  0.06161672  0.12323444  0.75000000  1
  Sr  Sr1  1  0.93838328  0.87676556  0.25000000  1
  In  In0  1  0.34727763  0.69455726  0.94584391  1
  In  In1  1  0.34727763  0.69455726  0.55415609  1
  In  In2  1  0.65272237  0.30544274  0.05415609  1
  In  In3  1  0.65272237  0.30544274  0.44584391  1
  Pt  Pt0  1  0.78031748  0.56063495  0.75000000  1
  Pt  Pt1  1  0.21968252  0.43936505  0.25000000  1
loop_
_geom_bond_atom_site_label_1
_geom_bond_atom_site_label_2
_geom_bond_distance
_geom_bond_site_symmetry_2
In0 Pt1 2.798589 1_556
In0 Pt0 2.837666 1_455
In0 Pt0 2.837673 1_555
In0 In1 3.119854 1_555
In0 In2 3.222778 1_456
In0 In2 3.222791 1_556
In0 Sr1 3.456630 1_456
In0 Sr1 3.456639 1_556
In0 In2 3.462990 1_566
In0 Sr0 3.503092 1_555
In0 Sr0 3.612560 1_565
In0 Sr0 3.612562 1_665
In1 Pt1 2.798589 1_555
In1 Pt0 2.837666 1_455
In1 Pt0 2.837673 1_555
In1 In3 3.222778 1_455
In1 In3 3.222791 1_555
In1 Sr1 3.456630 1_455
In1 Sr1 3.456639 1_555
In1 In3 3.462990 1_565
In1 Sr0 3.503092 1_555
In1 Sr0 3.612560 1_565
In1 Sr0 3.612562 1_665
In2 Pt0 2.798589 1_554
In2 Pt1 2.837666 1_655
In2 Pt1 2.837673 1_555
In2 In3 3.119854 1_555
In2 Sr0 3.456630 1_654
In2 Sr0 3.456639 1_554
In2 Sr1 3.503092 1_555
In2 Sr1 3.612560 1_545
In2 Sr1 3.612562 1_445
In3 Pt0 2.798589 1_555
In3 Pt1 2.837666 1_655
In3 Pt1 2.837673 1_555
In3 Sr0 3.456630 1_655
In3 Sr0 3.456639 1_555
In3 Sr1 3.503092 1_555
In3 Sr1 3.612560 1_545
In3 Sr1 3.612562 1_445
Pt0 Sr0 3.088711 1_665
Pt0 Sr0 3.293165 1_655
Pt0 Sr0 3.293167 1_555
Pt1 Sr1 3.088711 1_445
Pt1 Sr1 3.293165 1_455
Pt1 Sr1 3.293167 1_555
