# generated using pymatgen
data_MgTi6(N2O3)2
_symmetry_space_group_name_H-M   'P 1'
_cell_length_a   3.80442601
_cell_length_b   5.39214059
_cell_length_c   10.12074619
_cell_angle_alpha   87.24306980
_cell_angle_beta   89.99665862
_cell_angle_gamma   69.34733600
_symmetry_Int_Tables_number   1
_chemical_formula_structural   MgTi6(N2O3)2
_chemical_formula_sum   'Mg1 Ti6 N4 O6'
_cell_volume   194.01802847
_cell_formula_units_Z   1
loop_
 _symmetry_equiv_pos_site_id
 _symmetry_equiv_pos_as_xyz
  1  'x, y, z'
loop_
 _atom_site_type_symbol
 _atom_site_label
 _atom_site_symmetry_multiplicity
 _atom_site_fract_x
 _atom_site_fract_y
 _atom_site_fract_z
 _atom_site_occupancy
  Mg  Mg0  1  0.49785900  0.00399900  0.27161000  1
  Ti  Ti0  1  0.13913200  0.72151200  0.94483700  1
  Ti  Ti1  1  0.12501800  0.74933500  0.54691100  1
  Ti  Ti2  1  0.20544400  0.58827400  0.23820700  1
  Ti  Ti3  1  0.80348000  0.39251700  0.74787100  1
  Ti  Ti4  1  0.87320400  0.25308900  0.03442700  1
  Ti  Ti5  1  0.85225900  0.29481800  0.45386700  1
  N  N0  1  0.03060400  0.93824300  0.37439700  1
  N  N1  1  0.68985800  0.61964800  0.56689000  1
  N  N2  1  0.33596300  0.32738800  0.09934000  1
  N  N3  1  0.95891500  0.08162600  0.87164900  1
  O  O0  1  0.05221300  0.89459400  0.11777100  1
  O  O1  1  0.69003500  0.61946400  0.92355100  1
  O  O2  1  0.70909800  0.58093000  0.26649200  1
  O  O3  1  0.24420100  0.51100900  0.75606500  1
  O  O4  1  0.32371500  0.35200000  0.41202400  1
  O  O5  1  0.95114600  0.09655400  0.61784200  1
loop_
_geom_bond_atom_site_label_1
_geom_bond_atom_site_label_2
_geom_bond_distance
_geom_bond_site_symmetry_2
Mg0 O2 2.137932 1_545
Mg0 N0 2.184860 1_645
Mg0 N0 2.185590 1_545
Mg0 O4 2.314960 1_555
Mg0 N2 2.325918 1_555
Mg0 O0 2.535818 1_645
Mg0 O0 2.537878 1_545
N0 Ti1 1.945741 1_555
N0 Ti5 2.008109 1_465
N0 Ti2 2.295218 1_555
N1 Ti1 2.018338 1_655
N1 Ti1 2.018432 1_555
N1 Ti5 2.046295 1_555
N1 Ti3 2.110127 1_555
N2 Ti2 1.974359 1_555
N2 Ti4 2.052944 1_455
N2 Ti4 2.053572 1_555
N2 Ti0 2.465786 1_554
N3 Ti4 1.899727 1_556
N3 Ti0 1.926614 1_645
N3 Ti3 1.956531 1_555
O0 Ti2 1.918575 1_555
O0 Ti4 1.956163 1_465
O0 Ti0 1.995747 1_554
O1 Ti0 1.984866 1_555
O1 Ti0 1.985695 1_655
O1 Ti4 2.112659 1_556
O1 Ti3 2.163741 1_555
O2 Ti2 1.923658 1_555
O2 Ti2 1.923754 1_655
O2 Ti5 2.323560 1_555
O3 Ti3 1.996796 1_455
O3 Ti3 1.997115 1_555
O3 Ti0 2.233087 1_555
O3 Ti1 2.380180 1_555
O4 Ti5 1.966708 1_555
O4 Ti5 1.966962 1_455
O4 Ti2 2.073728 1_555
O4 Ti1 2.482765 1_555
O5 Ti5 1.893208 1_555
O5 Ti1 1.927138 1_645
O5 Ti3 2.040532 1_555
