# generated using pymatgen
data_MgCo6(O2F)4
_symmetry_space_group_name_H-M   'P 1'
_cell_length_a   5.09600985
_cell_length_b   5.09600607
_cell_length_c   8.82164329
_cell_angle_alpha   90.73263910
_cell_angle_beta   89.26731549
_cell_angle_gamma   105.71371917
_symmetry_Int_Tables_number   1
_chemical_formula_structural   MgCo6(O2F)4
_chemical_formula_sum   'Mg1 Co6 O8 F4'
_cell_volume   220.50163216
_cell_formula_units_Z   1
loop_
 _symmetry_equiv_pos_site_id
 _symmetry_equiv_pos_as_xyz
  1  'x, y, z'
loop_
 _atom_site_type_symbol
 _atom_site_label
 _atom_site_symmetry_multiplicity
 _atom_site_fract_x
 _atom_site_fract_y
 _atom_site_fract_z
 _atom_site_occupancy
  Mg  Mg0  1  0.29855246  0.70144754  0.32695553  1
  Co  Co0  1  0.99216323  0.00783677  0.99729350  1
  Co  Co1  1  0.96587739  0.03412261  0.33596509  1
  Co  Co2  1  0.00857711  0.99142289  0.66331867  1
  Co  Co3  1  0.59649670  0.40350330  0.15828260  1
  Co  Co4  1  0.47024739  0.52975261  0.84036049  1
  Co  Co5  1  0.54456875  0.45543125  0.51500230  1
  O  O0  1  0.13004592  0.86995408  0.48333735  1
  O  O1  1  0.30565756  0.31043281  0.33318763  1
  O  O2  1  0.31187498  0.29839110  0.99944900  1
  O  O3  1  0.30250775  0.31354703  0.67195626  1
  O  O4  1  0.68645297  0.69749225  0.67195526  1
  O  O5  1  0.70160890  0.68812502  0.99944800  1
  O  O6  1  0.68956620  0.69434344  0.33318763  1
  O  O7  1  0.81809626  0.18190374  0.17134593  1
  F  F0  1  0.16784440  0.83215460  0.15604482  1
  F  F1  1  0.18109414  0.81890686  0.82639047  1
  F  F2  1  0.83886454  0.16113446  0.83154072  1
  F  F3  1  0.79545935  0.20454165  0.50640675  1
loop_
_geom_bond_atom_site_label_1
_geom_bond_atom_site_label_2
_geom_bond_distance
_geom_bond_site_symmetry_2
Mg0 O0 1.927883 1_555
Mg0 O6 2.004184 1_555
Mg0 O1 2.004189 1_555
Co0 O5 1.881643 1_545
Co0 O2 1.881643 1_655
Co0 F2 1.935881 1_555
Co0 F0 2.015582 1_646
Co0 O7 2.070698 1_556
Co0 F1 2.134195 1_645
Co1 O0 1.877426 1_645
Co1 O7 1.899042 1_555
Co1 O6 1.913273 1_545
Co1 O1 1.913274 1_655
Co1 F3 2.027537 1_555
Co1 F0 2.264516 1_645
Co2 O0 1.855938 1_555
Co2 O4 1.900519 1_455
Co2 O3 1.900519 1_565
Co2 F2 2.009400 1_465
Co2 F1 2.024497 1_555
Co2 F3 2.234027 1_465
Co3 O7 1.805882 1_555
Co3 O2 1.991462 1_554
Co3 O5 1.991467 1_554
Co3 O1 2.093272 1_555
Co3 O6 2.093275 1_555
Co4 O5 1.873219 1_555
Co4 O2 1.873224 1_555
Co4 O3 1.905809 1_555
Co4 O4 1.905815 1_555
Co4 F1 2.354392 1_555
Co5 O4 1.860190 1_555
Co5 O3 1.860196 1_555
Co5 O1 2.033011 1_555
Co5 O6 2.033011 1_555
Co5 F3 2.038515 1_555
F0 Mg0 1.858017 1_555
