# generated using pymatgen
data_Na4Al2Si(PO6)2
_symmetry_space_group_name_H-M   'P 1'
_cell_length_a   8.71392216
_cell_length_b   8.71392189
_cell_length_c   21.51489371
_cell_angle_alpha   90.00101353
_cell_angle_beta   89.99898648
_cell_angle_gamma   120.00160682
_symmetry_Int_Tables_number   1
_chemical_formula_structural   Na4Al2Si(PO6)2
_chemical_formula_sum   'Na24 Al12 Si6 P12 O72'
_cell_volume   1414.78401200
_cell_formula_units_Z   6
loop_
 _symmetry_equiv_pos_site_id
 _symmetry_equiv_pos_as_xyz
  1  'x, y, z'
loop_
 _atom_site_type_symbol
 _atom_site_label
 _atom_site_symmetry_multiplicity
 _atom_site_fract_x
 _atom_site_fract_y
 _atom_site_fract_z
 _atom_site_occupancy
  Na  Na0  1  0.63764901  0.00275326  0.25078139  1
  Na  Na1  1  0.36229271  0.36508889  0.24928179  1
  Na  Na2  1  0.00001926  0.62902765  0.24990791  1
  Na  Na3  1  0.63491111  0.63770729  0.74928179  1
  Na  Na4  1  0.99724674  0.36235099  0.75078139  1
  Na  Na5  1  0.37097235  0.99998074  0.74990791  1
  Na  Na6  1  0.30135497  0.32982413  0.58268804  1
  Na  Na7  1  0.03711487  0.70301406  0.58196477  1
  Na  Na8  1  0.66415495  0.96752440  0.58549808  1
  Na  Na9  1  0.29698594  0.96288513  0.08196477  1
  Na  Na10  1  0.67017587  0.69864503  0.08268804  1
  Na  Na11  1  0.03247560  0.33584505  0.08549808  1
  Na  Na12  1  0.97050997  0.66979262  0.91864450  1
  Na  Na13  1  0.69620309  0.03269712  0.91458391  1
  Na  Na14  1  0.33335079  0.29748851  0.91672767  1
  Na  Na15  1  0.96730288  0.30379691  0.41458391  1
  Na  Na16  1  0.33020738  0.02949003  0.41864450  1
  Na  Na17  1  0.70251149  0.66664921  0.41672767  1
  Na  Na18  1  0.00300485  0.99818091  0.49998985  1
  Na  Na19  1  0.00181909  0.99699515  0.99998985  1
  Na  Na20  1  0.66497674  0.32825690  0.83339032  1
  Na  Na21  1  0.67174310  0.33502326  0.33339032  1
  Na  Na22  1  0.32792745  0.66310980  0.16664812  1
  Na  Na23  1  0.33689020  0.67207255  0.66664812  1
  Al  Al0  1  0.99900452  0.99880200  0.35142909  1
  Al  Al1  1  0.00119800  0.00099548  0.85142909  1
  Al  Al2  1  0.00035687  0.99878347  0.64851013  1
  Al  Al3  1  0.00121653  0.99964313  0.14851013  1
  Al  Al4  1  0.66466988  0.32416052  0.68499072  1
  Al  Al5  1  0.67583948  0.33533012  0.18499072  1
  Al  Al6  1  0.66580735  0.33391420  0.98193970  1
  Al  Al7  1  0.66608580  0.33419265  0.48193970  1
  Al  Al8  1  0.32599243  0.66904414  0.01813412  1
  Al  Al9  1  0.33095586  0.67400757  0.51813412  1
  Al  Al10  1  0.32330151  0.65909185  0.31509745  1
  Al  Al11  1  0.34090815  0.67669849  0.81509745  1
  Si  Si0  1  0.00000345  0.28799963  0.24997978  1
  Si  Si1  1  0.71200037  -0.00000345  0.74997978  1
  Si  Si2  1  0.37567955  0.04305753  0.58298029  1
  Si  Si3  1  0.95694247  0.62432045  0.08298029  1
  Si  Si4  1  0.33341526  0.95995578  0.91660210  1
  Si  Si5  1  0.04004422  0.66658474  0.41660210  1
  P  P0  1  0.29043703  0.00125270  0.24983541  1
  P  P1  1  0.70938651  0.71077419  0.25008886  1
  P  P2  1  0.28922581  0.29061349  0.75008886  1
  P  P3  1  0.99874730  0.70956297  0.74983541  1
  P  P4  1  0.95604372  0.33349969  0.58331720  1
  P  P5  1  0.66595548  0.62058574  0.58368130  1
  P  P6  1  0.66650031  0.04395628  0.08331720  1
  P  P7  1  0.37941426  0.33404452  0.08368130  1
  P  P8  1  0.62003985  0.66585232  0.91706359  1
  P  P9  1  0.04663195  0.37926484  0.91623777  1
  P  P10  1  0.62073516  0.95336805  0.41623777  1
  P  P11  1  0.33414768  0.37996015  0.41706359  1
  O  O0  1  0.20683931  0.03610723  0.30784277  1
  O  O1  1  0.82989727  0.79257772  0.30772450  1
  O  O2  1  0.96274521  0.16142367  0.31074208  1
  O  O3  1  0.20742228  0.17010273  0.80772450  1
  O  O4  1  0.96389277  0.79316069  0.80784277  1
  O  O5  1  0.83857633  0.03725479  0.81074208  1
  O  O6  1  0.80139569  0.96278409  0.68930287  1
  O  O7  1  0.17088497  0.20688246  0.69218905  1
  O  O8  1  0.03736765  0.82990416  0.69227530  1
  O  O9  1  0.79311754  0.82911503  0.19218905  1
  O  O10  1  0.03721591  0.19860431  0.18930287  1
  O  O11  1  0.17009584  0.96263235  0.19227530  1
  O  O12  1  0.87515946  0.37318175  0.64090088  1
  O  O13  1  0.50161175  0.13153533  0.64347570  1
  O  O14  1  0.63322677  0.50329356  0.64165734  1
  O  O15  1  0.86846467  0.49838825  0.14347570  1
  O  O16  1  0.62681825  0.12484054  0.14090088  1
  O  O17  1  0.49670644  0.36677323  0.14165734  1
  O  O18  1  0.46143175  0.29751448  0.02563065  1
  O  O19  1  0.82938606  0.53516715  0.02241067  1
  O  O20  1  0.70206911  0.16325367  0.02555776  1
  O  O21  1  0.46483285  0.17061394  0.52241067  1
  O  O22  1  0.70248552  0.53856825  0.52563065  1
  O  O23  1  0.83674633  0.29793089  0.52555776  1
  O  O24  1  0.53541348  0.69947536  0.97497720  1
  O  O25  1  0.16564896  0.46052543  0.97426993  1
  O  O26  1  0.29469777  0.83301629  0.97695223  1
  O  O27  1  0.53947457  0.83435104  0.47426993  1
  O  O28  1  0.30052464  0.46458652  0.47497720  1
  O  O29  1  0.16698371  0.70530223  0.47695223  1
  O  O30  1  0.12838251  0.62797032  0.35629980  1
  O  O31  1  0.50270029  0.86887083  0.35843156  1
  O  O32  1  0.37168238  0.49879836  0.35912929  1
  O  O33  1  0.13112917  0.49729971  0.85843156  1
  O  O34  1  0.37202968  0.87161749  0.85629980  1
  O  O35  1  0.50120164  0.62831762  0.85912929  1
  O  O36  1  0.02026504  0.84439663  0.40843609  1
  O  O37  1  0.80867384  0.97500517  0.41059731  1
  O  O38  1  0.16677903  0.19300070  0.41043488  1
  O  O39  1  0.02499483  0.19132616  0.91059731  1
  O  O40  1  0.15560337  0.97973496  0.90843609  1
  O  O41  1  0.80699930  0.83322097  0.91043488  1
  O  O42  1  0.97434350  0.16562341  0.58998538  1
  O  O43  1  0.17714945  0.02139898  0.59115849  1
  O  O44  1  0.83258061  0.80821942  0.58936380  1
  O  O45  1  0.97860102  0.82285055  0.09115849  1
  O  O46  1  0.83437659  0.02565650  0.08998538  1
  O  O47  1  0.19178058  0.16741939  0.08936380  1
  O  O48  1  0.69251771  0.17844989  0.74394654  1
  O  O49  1  0.47764301  0.31466025  0.74342411  1
  O  O50  1  0.83016181  0.52441640  0.74230085  1
  O  O51  1  0.68533975  0.52235699  0.24342411  1
  O  O52  1  0.82155011  0.30748229  0.24394654  1
  O  O53  1  0.47558360  0.16983819  0.24230085  1
  O  O54  1  0.64168068  0.49968839  0.92268858  1
  O  O55  1  0.85969572  0.35959457  0.92301338  1
  O  O56  1  0.51102285  0.15746958  0.92487140  1
  O  O57  1  0.64040543  0.14030428  0.42301338  1
  O  O58  1  0.50031161  0.35831932  0.42268858  1
  O  O59  1  0.84253042  0.48897715  0.42487140  1
  O  O60  1  0.36132862  0.50189631  0.07610503  1
  O  O61  1  0.15392144  0.64205389  0.07696164  1
  O  O62  1  0.50243996  0.85525307  0.07661508  1
  O  O63  1  0.35794611  0.84607856  0.57696164  1
  O  O64  1  0.49810369  0.63867138  0.57610503  1
  O  O65  1  0.14474693  0.49756004  0.57661508  1
  O  O66  1  0.31457637  0.83705113  0.25666571  1
  O  O67  1  0.52440116  0.69422016  0.25766812  1
  O  O68  1  0.17838360  0.48591215  0.25600016  1
  O  O69  1  0.30577984  0.47559884  0.75766812  1
  O  O70  1  0.16294887  0.68542363  0.75666571  1
  O  O71  1  0.51408785  0.82161640  0.75600016  1
loop_
_geom_bond_atom_site_label_1
_geom_bond_atom_site_label_2
_geom_bond_distance
_geom_bond_site_symmetry_2
Na0 O52 2.320613 1_555
Na0 O67 2.360244 1_545
Na0 O66 2.441573 1_545
Na0 O53 2.490738 1_555
Na0 O31 2.595409 1_545
Na0 O16 2.613432 1_555
Na0 O2 2.772017 1_555
Na0 O9 2.786328 1_545
Na1 O68 2.320545 1_555
Na1 O53 2.360424 1_555
Na1 O51 2.441365 1_555
Na1 O67 2.490377 1_555
Na1 O17 2.591617 1_555
Na1 O32 2.618065 1_555
Na1 O10 2.772075 1_555
Na1 O0 2.785153 1_555
Na2 O66 2.418957 1_555
Na2 O51 2.419420 1_455
Na2 O68 2.434450 1_555
Na2 O52 2.434766 1_455
Na2 O30 2.549745 1_555
Na2 O15 2.559010 1_455
Na2 O11 2.806453 1_555
Na2 O1 2.808682 1_455
Na3 O71 2.320545 1_555
Na3 O50 2.360424 1_555
Na3 O49 2.441365 1_555
Na3 O69 2.490378 1_555
Na3 O14 2.591617 1_555
Na3 O35 2.618065 1_555
Na3 O6 2.772075 1_555
Na3 O4 2.785153 1_555
Na4 O48 2.320613 1_555
Na4 O69 2.360244 1_655
Na4 O70 2.441573 1_655
Na4 O50 2.490738 1_555
Na4 O33 2.595409 1_655
Na4 O12 2.613432 1_555
Na4 O5 2.772016 1_555
Na4 O7 2.786328 1_655
Na5 O70 2.418956 1_555
Na5 O49 2.419420 1_565
Na5 O71 2.434450 1_555
Na5 O48 2.434766 1_565
Na5 O34 2.549745 1_555
Na5 O13 2.559010 1_565
Na5 O8 2.806453 1_555
Na5 O3 2.808682 1_565
Na6 O43 2.349216 1_555
Na6 O64 2.363910 1_555
Na6 O65 2.451641 1_555
Na6 O42 2.472740 1_455
Na6 O28 2.599602 1_555
Na6 O7 2.602400 1_555
Na6 O21 2.759014 1_555
Na6 O14 2.808227 1_555
Na7 O44 2.382507 1_455
Na7 O65 2.403603 1_555
Na7 O43 2.416550 1_565
Na7 O63 2.428213 1_555
Na7 O29 2.522499 1_555
Na7 O8 2.617769 1_555
Na7 O12 2.793537 1_455
Na7 O22 2.801158 1_455
Na8 O63 2.334416 1_555
Na8 O42 2.372555 1_565
Na8 O44 2.474951 1_555
Na8 O64 2.489895 1_555
Na8 O6 2.543471 1_555
Na8 O27 2.644418 1_555
Na8 O13 2.762049 1_565
Na8 O23 2.807875 1_565
Na9 O47 2.382507 1_565
Na9 O62 2.403603 1_555
Na9 O45 2.416550 1_455
Na9 O61 2.428213 1_555
Na9 O26 2.522499 1_554
Na9 O11 2.617769 1_555
Na9 O16 2.793537 1_565
Na9 O18 2.801158 1_565
Na10 O45 2.349217 1_555
Na10 O60 2.363910 1_555
Na10 O62 2.451641 1_555
Na10 O46 2.472740 1_565
Na10 O24 2.599602 1_554
Na10 O9 2.602400 1_555
Na10 O19 2.759014 1_555
Na10 O17 2.808227 1_555
Na11 O61 2.334416 1_555
Na11 O46 2.372555 1_455
Na11 O47 2.474951 1_555
Na11 O60 2.489895 1_555
Na11 O10 2.543470 1_555
Na11 O25 2.644418 1_554
Na11 O15 2.762049 1_455
Na11 O20 2.807875 1_455
Na12 O40 2.363837 1_655
Na12 O55 2.374332 1_555
Na12 O41 2.473576 1_555
Na12 O54 2.483480 1_555
Na12 O19 2.535725 1_556
Na12 O4 2.627546 1_555
Na12 O26 2.749353 1_655
Na12 O33 2.828464 1_655
Na13 O56 2.364209 1_555
Na13 O41 2.374822 1_545
Na13 O55 2.473540 1_555
Na13 O39 2.483171 1_655
Na13 O5 2.546130 1_555
Na13 O20 2.634241 1_556
Na13 O34 2.749021 1_545
Na13 O24 2.830943 1_545
Na14 O54 2.367582 1_555
Na14 O39 2.367970 1_555
Na14 O56 2.409456 1_555
Na14 O40 2.410118 1_545
Na14 O3 2.591929 1_555
Na14 O18 2.595247 1_556
Na14 O25 2.786153 1_555
Na14 O35 2.787286 1_555
Na15 O59 2.364209 1_555
Na15 O38 2.374822 1_655
Na15 O57 2.473540 1_555
Na15 O37 2.483170 1_545
Na15 O2 2.546130 1_555
Na15 O23 2.634241 1_555
Na15 O30 2.749021 1_655
Na15 O28 2.830943 1_655
Na16 O36 2.363837 1_545
Na16 O57 2.374332 1_555
Na16 O38 2.473576 1_555
Na16 O58 2.483480 1_555
Na16 O21 2.535725 1_555
Na16 O0 2.627546 1_555
Na16 O29 2.749353 1_545
Na16 O31 2.828464 1_545
Na17 O58 2.367582 1_555
Na17 O37 2.367970 1_555
Na17 O59 2.409456 1_555
Na17 O36 2.410118 1_655
Na17 O1 2.591929 1_555
Na17 O22 2.595247 1_555
Na17 O27 2.786153 1_555
Na17 O32 2.787287 1_555
Na18 O43 2.425729 1_565
Na18 O36 2.428959 1_555
Na18 O44 2.486875 1_455
Na18 O38 2.491635 1_565
Na18 O37 2.503081 1_455
Na18 O42 2.510905 1_465
Na19 O45 2.425729 1_456
Na19 O40 2.428959 1_555
Na19 O47 2.486875 1_566
Na19 O41 2.491635 1_455
Na19 O39 2.503081 1_565
Na19 O46 2.510905 1_466
Na20 O48 2.403766 1_555
Na20 O56 2.427300 1_555
Na20 O55 2.491664 1_555
Na20 O49 2.496415 1_555
Na20 O54 2.503416 1_555
Na20 O50 2.524658 1_555
Na21 O52 2.403766 1_555
Na21 O59 2.427300 1_555
Na21 O57 2.491664 1_555
Na21 O51 2.496415 1_555
Na21 O58 2.503416 1_555
Na21 O53 2.524658 1_555
Na22 O68 2.401193 1_555
Na22 O61 2.403739 1_555
Na22 O66 2.497605 1_555
Na22 O60 2.502351 1_555
Na22 O62 2.514315 1_555
Na22 O67 2.524968 1_555
Na23 O71 2.401193 1_555
Na23 O63 2.403739 1_555
Na23 O70 2.497605 1_555
Na23 O64 2.502351 1_555
Na23 O65 2.514315 1_555
Na23 O69 2.524968 1_555
Al0 O2 1.822642 1_565
Al0 O36 1.896912 1_655
Al0 O1 1.907014 1_555
Al0 O0 1.917336 1_665
Al0 O37 2.017482 1_555
Al0 O38 2.034337 1_665
Al1 O5 1.822642 1_455
Al1 O40 1.896912 1_545
Al1 O3 1.907014 1_555
Al1 O4 1.917336 1_445
Al1 O39 2.017482 1_555
Al1 O41 2.034337 1_445
Al2 O6 1.824985 1_455
Al2 O8 1.905499 1_555
Al2 O43 1.905525 1_565
Al2 O7 1.919573 1_565
Al2 O42 2.019930 1_465
Al2 O44 2.021472 1_455
Al3 O10 1.824985 1_565
Al3 O11 1.905499 1_555
Al3 O45 1.905525 1_455
Al3 O9 1.919573 1_455
Al3 O46 2.019930 1_465
Al3 O47 2.021472 1_565
Al4 O13 1.802503 1_555
Al4 O48 1.894243 1_555
Al4 O12 1.913884 1_555
Al4 O14 1.951568 1_555
Al4 O49 2.026926 1_555
Al4 O50 2.031854 1_555
Al5 O15 1.802503 1_555
Al5 O52 1.894243 1_555
Al5 O16 1.913884 1_555
Al5 O17 1.951569 1_555
Al5 O51 2.026926 1_555
Al5 O53 2.031854 1_555
Al6 O19 1.834546 1_556
Al6 O18 1.894971 1_556
Al6 O56 1.901798 1_555
Al6 O20 1.913643 1_556
Al6 O54 2.014885 1_555
Al6 O55 2.033155 1_555
Al7 O21 1.834546 1_555
Al7 O22 1.894971 1_555
Al7 O59 1.901798 1_555
Al7 O23 1.913643 1_555
Al7 O58 2.014885 1_555
Al7 O57 2.033155 1_555
Al8 O26 1.814030 1_554
Al8 O61 1.884873 1_555
Al8 O25 1.898814 1_554
Al8 O24 1.943876 1_554
Al8 O62 2.021151 1_555
Al8 O60 2.054369 1_555
Al9 O29 1.814030 1_555
Al9 O63 1.884873 1_555
Al9 O27 1.898814 1_555
Al9 O28 1.943876 1_555
Al9 O65 2.021151 1_555
Al9 O64 2.054369 1_555
Al10 O30 1.812073 1_555
Al10 O68 1.892842 1_555
Al10 O32 1.901356 1_555
Al10 O31 1.948543 1_555
Al10 O66 2.027051 1_555
Al10 O67 2.038299 1_555
Al11 O34 1.812073 1_555
Al11 O71 1.892842 1_555
Al11 O35 1.901356 1_555
Al11 O33 1.948543 1_555
Al11 O70 2.027051 1_555
Al11 O69 2.038299 1_555
O0 P0 1.549735 1_555
O1 P1 1.549181 1_555
O2 Si0 1.634900 1_655
O3 P2 1.549181 1_555
O4 P3 1.549735 1_555
O5 Si1 1.634900 1_555
O6 Si1 1.633629 1_565
O7 P2 1.547618 1_555
O8 P3 1.547143 1_455
O9 P1 1.547618 1_555
O10 Si0 1.633629 1_555
O11 P0 1.547143 1_565
O12 P4 1.547550 1_555
O13 Si2 1.626834 1_555
O14 P5 1.546085 1_555
O15 Si3 1.626834 1_555
O16 P6 1.547550 1_555
O17 P7 1.546085 1_555
O18 P7 1.549021 1_555
O19 Si3 1.635135 1_555
O20 P6 1.548811 1_555
O21 Si2 1.635135 1_555
O22 P5 1.549021 1_555
O23 P4 1.548811 1_555
O24 P8 1.548610 1_555
O25 P9 1.549674 1_555
O26 Si4 1.627916 1_555
O27 P10 1.549674 1_555
O28 P11 1.548610 1_555
O29 Si5 1.627916 1_555
O30 Si5 1.627264 1_555
O31 P10 1.545794 1_555
O32 P11 1.547348 1_555
O33 P9 1.545794 1_555
O34 Si4 1.627264 1_555
O35 P8 1.547348 1_555
O36 Si5 1.651790 1_555
O37 P10 1.556754 1_555
O38 P11 1.557363 1_555
O39 P9 1.556754 1_555
O40 Si4 1.651790 1_555
O41 P8 1.557363 1_555
O42 P4 1.555398 1_555
O43 Si2 1.653139 1_555
O44 P5 1.556385 1_555
O45 Si3 1.653139 1_555
O46 P6 1.555398 1_555
O47 P7 1.556385 1_555
O48 Si1 1.651606 1_555
O49 P2 1.554377 1_555
O50 P3 1.554693 1_555
O51 P1 1.554377 1_555
O52 Si0 1.651606 1_655
O53 P0 1.554693 1_555
O54 P8 1.555572 1_555
O55 P9 1.557199 1_655
O56 Si4 1.650854 1_545
O57 P10 1.557199 1_545
O58 P11 1.555572 1_555
O59 Si5 1.650854 1_655
O60 P7 1.556044 1_555
O61 Si3 1.649733 1_455
O62 P6 1.554850 1_565
O63 Si2 1.649733 1_565
O64 P5 1.556044 1_555
O65 P4 1.554850 1_455
O66 P0 1.553751 1_565
O67 P1 1.553458 1_555
O68 Si0 1.651154 1_555
O69 P2 1.553458 1_555
O70 P3 1.553751 1_455
O71 Si1 1.651154 1_565
