# generated using pymatgen
data_Na2Sc2Ta2Si3(SO8)3
_symmetry_space_group_name_H-M   'P 1'
_cell_length_a   8.86420855
_cell_length_b   8.87609527
_cell_length_c   23.17048190
_cell_angle_alpha   90.52684173
_cell_angle_beta   90.24255701
_cell_angle_gamma   119.73599857
_symmetry_Int_Tables_number   1
_chemical_formula_structural   Na2Sc2Ta2Si3(SO8)3
_chemical_formula_sum   'Na6 Sc6 Ta6 Si9 S9 O72'
_cell_volume   1582.83694662
_cell_formula_units_Z   3
loop_
 _symmetry_equiv_pos_site_id
 _symmetry_equiv_pos_as_xyz
  1  'x, y, z'
loop_
 _atom_site_type_symbol
 _atom_site_label
 _atom_site_symmetry_multiplicity
 _atom_site_fract_x
 _atom_site_fract_y
 _atom_site_fract_z
 _atom_site_occupancy
  Na  Na0  1  0.98450502  0.98099993  0.49013850  1
  Na  Na1  1  0.00952468  0.99107461  0.99734205  1
  Na  Na2  1  0.65101292  0.31507131  0.82384606  1
  Na  Na3  1  0.66810159  0.31682890  0.32783975  1
  Na  Na4  1  0.31428537  0.66007986  0.16913309  1
  Na  Na5  1  0.34766385  0.66230058  0.65874916  1
  Sc  Sc0  1  0.00045078  0.00517468  0.35440153  1
  Sc  Sc1  1  0.01400528  0.01273333  0.85091722  1
  Sc  Sc2  1  0.65063407  0.33298487  0.68750315  1
  Sc  Sc3  1  0.68504319  0.33556146  0.19008886  1
  Sc  Sc4  1  0.31914340  0.67609404  0.02060299  1
  Sc  Sc5  1  0.34993665  0.68159973  0.51752135  1
  Ta  Ta0  1  0.98901801  0.00454105  0.64516337  1
  Ta  Ta1  1  0.00647607  0.99328812  0.15136788  1
  Ta  Ta2  1  0.66608385  0.33586373  0.97981489  1
  Ta  Ta3  1  0.67629694  0.34609487  0.47480553  1
  Ta  Ta4  1  0.31788215  0.67592188  0.31285948  1
  Ta  Ta5  1  0.34706290  0.68310740  0.80778407  1
  Si  Si0  1  0.29812096  0.00955358  0.25359225  1
  Si  Si1  1  0.00776171  0.29110935  0.25216940  1
  Si  Si2  1  0.28876463  0.28941432  0.75099253  1
  Si  Si3  1  0.72028750  0.01241266  0.75233606  1
  Si  Si4  1  0.66298396  0.62154555  0.58502995  1
  Si  Si5  1  0.95565720  0.62775118  0.08517272  1
  Si  Si6  1  0.32865891  0.95782920  0.91762520  1
  Si  Si7  1  0.62596237  0.95628092  0.41748639  1
  Si  Si8  1  0.04871271  0.67631514  0.42020919  1
  S  S0  1  0.70844013  0.71218864  0.25018398  1
  S  S1  1  0.00207212  0.71296558  0.74994831  1
  S  S2  1  0.95349404  0.33387108  0.58370586  1
  S  S3  1  0.37355859  0.04464780  0.58358513  1
  S  S4  1  0.67035868  0.04611320  0.08237185  1
  S  S5  1  0.37673367  0.33146196  0.08314030  1
  S  S6  1  0.61860853  0.66364994  0.91771617  1
  S  S7  1  0.04176279  0.37884690  0.91762780  1
  S  S8  1  0.33587658  0.38076664  0.41734201  1
  O  O0  1  0.20091034  0.02374842  0.30802444  1
  O  O1  1  0.81336441  0.78896383  0.30117083  1
  O  O2  1  0.97371992  0.17222906  0.30626320  1
  O  O3  1  0.20493476  0.17576603  0.80725033  1
  O  O4  1  0.97795902  0.78907283  0.80262401  1
  O  O5  1  0.82032282  0.01675277  0.80972463  1
  O  O6  1  0.80555831  0.97017101  0.69354660  1
  O  O7  1  0.16448617  0.19138267  0.69297919  1
  O  O8  1  0.03406625  0.82275301  0.69825166  1
  O  O9  1  0.79767498  0.82442309  0.19646250  1
  O  O10  1  0.02461647  0.18787916  0.19171349  1
  O  O11  1  0.16647621  0.96557636  0.19329696  1
  O  O12  1  0.87205049  0.35015272  0.63579141  1
  O  O13  1  0.47854980  0.12264215  0.63598321  1
  O  O14  1  0.65262434  0.51220116  0.64066222  1
  O  O15  1  0.85763399  0.50925159  0.13822988  1
  O  O16  1  0.63951875  0.12154558  0.13356997  1
  O  O17  1  0.47917156  0.35280510  0.13420582  1
  O  O18  1  0.46361402  0.30396411  0.02947830  1
  O  O19  1  0.83062473  0.52318248  0.02611173  1
  O  O20  1  0.68803510  0.15737972  0.02991432  1
  O  O21  1  0.45538655  0.15066317  0.53205902  1
  O  O22  1  0.68893326  0.52078690  0.52737740  1
  O  O23  1  0.84310989  0.30135088  0.53076146  1
  O  O24  1  0.53597895  0.68118532  0.96932957  1
  O  O25  1  0.14627669  0.45824709  0.96977345  1
  O  O26  1  0.31583259  0.84524735  0.97294840  1
  O  O27  1  0.53957551  0.84330519  0.47366838  1
  O  O28  1  0.31541713  0.45995129  0.46982763  1
  O  O29  1  0.15425042  0.68261314  0.47637810  1
  O  O30  1  0.13206666  0.63459349  0.36010427  1
  O  O31  1  0.49730817  0.85503208  0.35982082  1
  O  O32  1  0.36711013  0.48685940  0.36503970  1
  O  O33  1  0.11803251  0.48414395  0.86592036  1
  O  O34  1  0.35755767  0.85684736  0.86054545  1
  O  O35  1  0.50853990  0.63308826  0.86437422  1
  O  O36  1  0.01602995  0.83442215  0.41175302  1
  O  O37  1  0.81983272  0.99271674  0.41133956  1
  O  O38  1  0.18846570  0.20548918  0.41191453  1
  O  O39  1  0.01175973  0.20123643  0.91260208  1
  O  O40  1  0.16122741  0.98135163  0.91307234  1
  O  O41  1  0.79320313  0.81062563  0.91078015  1
  O  O42  1  0.96747494  0.16716200  0.58861147  1
  O  O43  1  0.19782363  0.03173058  0.59058438  1
  O  O44  1  0.84833061  0.81617311  0.59232197  1
  O  O45  1  0.96762710  0.82141615  0.08894491  1
  O  O46  1  0.83323397  0.03760093  0.08567509  1
  O  O47  1  0.20104761  0.16984529  0.08622793  1
  O  O48  1  0.69115333  0.17262061  0.74249300  1
  O  O49  1  0.48422234  0.32593036  0.74558125  1
  O  O50  1  0.85741035  0.53675687  0.74243389  1
  O  O51  1  0.68663041  0.53933894  0.24051026  1
  O  O52  1  0.84620477  0.32517948  0.24428880  1
  O  O53  1  0.48305673  0.17245087  0.24008978  1
  O  O54  1  0.63187490  0.49787001  0.92361641  1
  O  O55  1  0.86231729  0.36364037  0.92557804  1
  O  O56  1  0.51048332  0.15171609  0.92705844  1
  O  O57  1  0.62931382  0.14580281  0.42817031  1
  O  O58  1  0.49866472  0.36274761  0.42387578  1
  O  O59  1  0.85280799  0.49055380  0.42512605  1
  O  O60  1  0.35842049  0.48421461  0.07264496  1
  O  O61  1  0.14752606  0.64983902  0.07842423  1
  O  O62  1  0.52217394  0.86986391  0.07369266  1
  O  O63  1  0.34701625  0.86769800  0.57877610  1
  O  O64  1  0.49727307  0.64852384  0.58027012  1
  O  O65  1  0.12845999  0.47961824  0.57728753  1
  O  O66  1  0.30887548  0.82588247  0.25590709  1
  O  O67  1  0.53666235  0.70180728  0.25255175  1
  O  O68  1  0.19205080  0.47999730  0.25730344  1
  O  O69  1  0.29650994  0.48078165  0.76211557  1
  O  O70  1  0.16635207  0.69815988  0.75706515  1
  O  O71  1  0.52225284  0.82743447  0.75801502  1
loop_
_geom_bond_atom_site_label_1
_geom_bond_atom_site_label_2
_geom_bond_distance
_geom_bond_site_symmetry_2
Na0 O36 2.321849 1_655
Na0 O37 2.367828 1_555
Na0 O38 2.654176 1_665
Na0 O44 2.745763 1_555
Na0 O42 2.853107 1_565
Na0 O43 2.879892 1_665
Na1 O40 2.400525 1_555
Na1 O45 2.534020 1_456
Na1 O47 2.622912 1_566
Na1 O41 2.669582 1_455
Na1 O39 2.714110 1_565
Na1 O46 2.730071 1_466
Na2 O49 2.367609 1_555
Na2 O48 2.384671 1_555
Na2 O50 2.702535 1_555
Na2 O56 2.769570 1_555
Na2 O54 2.865814 1_555
Na2 O55 2.897128 1_555
Na3 O52 2.481558 1_555
Na3 O53 2.511042 1_555
Na3 O57 2.716769 1_555
Na3 O59 2.745914 1_555
Na3 O51 2.788658 1_555
Na3 O58 2.827065 1_555
Na4 O66 2.495405 1_555
Na4 O68 2.502666 1_555
Na4 O61 2.539217 1_555
Na4 O67 2.643677 1_555
Na4 O60 2.852553 1_555
Na4 O62 2.908550 1_555
Na5 O64 2.292911 1_555
Na5 O65 2.598965 1_555
Na5 O63 2.613409 1_555
Na5 O71 2.737013 1_555
Na5 O69 2.809483 1_555
Na5 O70 2.898085 1_555
O0 Si0 1.569411 1_555
O0 Sc0 2.016965 1_555
O1 S0 1.439532 1_555
O1 Sc0 2.176326 1_665
O2 Si1 1.577057 1_655
O2 Sc0 1.968659 1_655
O3 Si2 1.599283 1_555
O3 Sc1 1.895788 1_555
O4 S1 1.456705 1_655
O4 Sc1 2.149934 1_665
O5 Si3 1.584653 1_555
O5 Sc1 1.976692 1_655
O6 Si3 1.687572 1_565
O6 Ta0 1.877241 1_565
O7 Si2 1.671119 1_555
O7 Ta0 1.946745 1_455
O8 S1 1.488303 1_555
O8 Ta0 2.224337 1_465
O9 S0 1.554654 1_555
O9 Ta1 2.014240 1_655
O10 Si1 1.714084 1_555
O10 Ta1 1.891171 1_545
O11 Si0 1.729219 1_565
O11 Ta1 1.831570 1_555
O12 S2 1.451282 1_555
O12 Sc2 2.244452 1_555
O13 S3 1.468076 1_555
O13 Sc2 2.087109 1_555
O14 Si4 1.596116 1_555
O14 Sc2 1.926856 1_555
O15 Si5 1.580769 1_555
O15 Sc3 1.967501 1_555
O16 S4 1.449140 1_555
O16 Sc3 2.162342 1_555
O17 S5 1.441019 1_555
O17 Sc3 2.300210 1_555
O18 S5 1.545198 1_555
O18 Ta2 2.035874 1_554
O19 Si5 1.704666 1_555
O19 Ta2 1.894930 1_554
O20 S4 1.532144 1_555
O20 Ta2 2.057403 1_554
O21 S3 1.479143 1_555
O21 Ta3 2.301758 1_555
O22 Si4 1.679859 1_555
O22 Ta3 1.921582 1_555
O23 S2 1.499591 1_555
O23 Ta3 2.144984 1_555
O24 S6 1.451889 1_555
O24 Sc4 2.245437 1_556
O25 S7 1.463550 1_555
O25 Sc4 2.116034 1_556
O26 Si6 1.602112 1_555
O26 Sc4 1.883683 1_556
O27 Si7 1.599137 1_555
O27 Sc5 1.888420 1_555
O28 S8 1.455482 1_555
O28 Sc5 2.131988 1_555
O29 Si8 1.583848 1_555
O29 Sc5 1.979738 1_555
O30 Si8 1.700949 1_555
O30 Ta4 1.862559 1_555
O31 Si7 1.685761 1_555
O31 Ta4 1.919965 1_555
O32 S8 1.482313 1_555
O32 Ta4 2.286398 1_555
O33 S7 1.471950 1_555
O33 Ta5 2.359065 1_555
O34 Si6 1.681379 1_555
O34 Ta5 1.924422 1_555
O35 S6 1.508040 1_555
O35 Ta5 2.142533 1_555
O36 Si8 1.581034 1_555
O36 Sc0 2.079699 1_565
O37 Si7 1.590511 1_555
O37 Sc0 2.039851 1_665
O38 S8 1.456718 1_555
O38 Sc0 2.170895 1_555
O39 S7 1.466303 1_555
O39 Sc1 2.198183 1_555
O40 Si6 1.601215 1_555
O40 Sc1 2.051042 1_565
O41 S6 1.458087 1_555
O41 Sc1 2.357653 1_665
O42 S2 1.550083 1_555
O42 Ta0 2.035452 1_555
O43 S3 1.513718 1_555
O43 Ta0 2.160009 1_455
O44 Si4 1.699681 1_555
O44 Ta0 1.931519 1_565
O45 Si5 1.670343 1_555
O45 Ta1 1.992973 1_655
O46 S4 1.484384 1_555
O46 Ta1 2.328139 1_645
O47 S5 1.508274 1_555
O47 Ta1 2.256747 1_545
O48 Si3 1.584494 1_555
O48 Sc2 2.077299 1_555
O49 Si2 1.602533 1_555
O49 Sc2 1.979266 1_555
O50 S1 1.457536 1_655
O50 Sc2 2.213621 1_555
O51 S0 1.463062 1_555
O51 Sc3 2.138322 1_555
O52 Si1 1.613705 1_655
O52 Sc3 1.934933 1_555
O53 Si0 1.592846 1_555
O53 Sc3 2.030014 1_555
O54 S6 1.540451 1_555
O54 Ta2 2.078217 1_555
O55 S7 1.540212 1_655
O55 Ta2 2.065076 1_555
O56 Si6 1.686917 1_545
O56 Ta2 1.944435 1_555
O57 Si7 1.683661 1_545
O57 Ta3 1.930815 1_555
O58 S8 1.535661 1_555
O58 Ta3 2.027814 1_555
O59 Si8 1.706444 1_655
O59 Ta3 1.862637 1_555
O60 S5 1.465564 1_555
O60 Sc4 2.257961 1_555
O61 Si5 1.620966 1_455
O61 Sc4 1.958252 1_555
O62 S4 1.471966 1_565
O62 Sc4 2.140555 1_555
O63 S3 1.471261 1_565
O63 Sc5 2.177897 1_555
O64 Si4 1.604746 1_555
O64 Sc5 2.068308 1_555
O65 S2 1.454723 1_455
O65 Sc5 2.358646 1_555
O66 Si0 1.680929 1_565
O66 Ta4 1.912150 1_555
O67 S0 1.480422 1_555
O67 Ta4 2.313692 1_555
O68 Si1 1.664755 1_555
O68 Ta4 1.986927 1_555
O69 Si2 1.682995 1_555
O69 Ta5 1.925709 1_555
O70 S1 1.534022 1_555
O70 Ta5 2.040616 1_555
O71 Si3 1.715040 1_565
O71 Ta5 1.857775 1_555
