# generated using pymatgen
data_Dy3(AgSn)4
_symmetry_space_group_name_H-M   'P 1'
_cell_length_a   8.82200025
_cell_length_b   8.82200025
_cell_length_c   8.82200025
_cell_angle_alpha   149.91061421
_cell_angle_beta   130.36305704
_cell_angle_gamma   59.14460719
_symmetry_Int_Tables_number   1
_chemical_formula_structural   Dy3(AgSn)4
_chemical_formula_sum   'Dy3 Ag4 Sn4'
_cell_volume   260.25029381
_cell_formula_units_Z   1
loop_
 _symmetry_equiv_pos_site_id
 _symmetry_equiv_pos_as_xyz
  1  'x, y, z'
loop_
 _atom_site_type_symbol
 _atom_site_label
 _atom_site_symmetry_multiplicity
 _atom_site_fract_x
 _atom_site_fract_y
 _atom_site_fract_z
 _atom_site_occupancy
  Dy  Dy0  1  0.00000000  0.00000000  0.00000000  1
  Dy  Dy1  1  0.37252800  0.87252800  0.50000000  1
  Dy  Dy2  1  0.62747200  0.12747200  0.50000000  1
  Ag  Ag0  1  0.02632000  0.32865900  0.69766100  1
  Ag  Ag1  1  0.97368000  0.67134100  0.30233900  1
  Ag  Ag2  1  0.63099800  0.32865900  0.30233900  1
  Ag  Ag3  1  0.36900200  0.67134100  0.69766100  1
  Sn  Sn0  1  0.21577300  0.21577300  0.00000000  1
  Sn  Sn1  1  0.69626700  0.50000000  0.19626700  1
  Sn  Sn2  1  0.30373300  0.50000000  0.80373300  1
  Sn  Sn3  1  0.78422700  0.78422700  0.00000000  1
loop_
_geom_bond_atom_site_label_1
_geom_bond_atom_site_label_2
_geom_bond_distance
_geom_bond_site_symmetry_2
Dy0 Sn2 3.209959 1_544
Dy0 Sn2 3.209959 1_555
Dy0 Sn1 3.209959 1_455
Dy0 Sn1 3.209959 1_444
Dy0 Sn3 3.311162 1_445
Dy0 Sn0 3.311162 1_555
Dy1 Sn0 3.321186 1_566
Dy1 Sn0 3.321186 1_555
Dy1 Sn1 3.344117 1_566
Dy1 Sn2 3.344117 1_554
Dy1 Sn1 3.344117 1_555
Dy1 Sn2 3.344117 1_565
Dy2 Sn3 3.321186 1_545
Dy2 Sn3 3.321186 1_556
Dy2 Sn1 3.344117 1_545
Dy2 Sn1 3.344117 1_556
Dy2 Sn2 3.344117 1_555
Dy2 Sn2 3.344117 1_544
Ag0 Sn2 2.744171 1_555
Ag0 Sn3 2.802086 1_445
Ag0 Sn3 2.802086 1_456
Ag0 Sn0 2.830990 1_556
Ag0 Ag2 2.927745 1_455
Ag0 Dy1 3.272719 1_556
Ag0 Dy1 3.272719 1_545
Ag0 Ag1 3.416565 1_456
Ag0 Ag1 3.416565 1_445
Ag0 Dy2 3.416802 1_455
Ag0 Dy0 3.781553 1_566
Ag0 Dy0 3.781553 1_555
Ag1 Sn1 2.744171 1_555
Ag1 Sn0 2.802086 1_655
Ag1 Sn0 2.802086 1_666
Ag1 Sn3 2.830990 1_555
Ag1 Ag3 2.927745 1_655
Ag1 Dy2 3.272719 1_554
Ag1 Dy2 3.272719 1_565
Ag1 Dy1 3.416802 1_655
Ag1 Dy0 3.781553 1_655
Ag1 Dy0 3.781553 1_666
Ag2 Sn1 2.744171 1_555
Ag2 Sn3 2.802086 1_556
Ag2 Sn3 2.802086 1_545
Ag2 Sn0 2.830990 1_555
Ag2 Dy1 3.272719 1_555
Ag2 Dy1 3.272719 1_544
Ag2 Ag3 3.416565 1_555
Ag2 Ag3 3.416565 1_544
Ag2 Dy2 3.416802 1_555
Ag2 Dy0 3.781553 1_655
Ag2 Dy0 3.781553 1_666
Ag3 Sn2 2.744171 1_555
Ag3 Sn0 2.802086 1_555
Ag3 Sn0 2.802086 1_566
Ag3 Sn3 2.830990 1_556
Ag3 Dy2 3.272719 1_555
Ag3 Dy2 3.272719 1_566
Ag3 Dy1 3.416802 1_555
Ag3 Dy0 3.781553 1_566
Ag3 Dy0 3.781553 1_555
Sn1 Sn2 2.907097 1_554
