# generated using pymatgen
data_Ta4SiTe4
_symmetry_space_group_name_H-M   'P 1'
_cell_length_a   4.80599289
_cell_length_b   10.96878469
_cell_length_c   19.05049247
_cell_angle_alpha   90.00000000
_cell_angle_beta   90.00000000
_cell_angle_gamma   90.00000000
_symmetry_Int_Tables_number   1
_chemical_formula_structural   Ta4SiTe4
_chemical_formula_sum   'Ta16 Si4 Te16'
_cell_volume   1004.26387947
_cell_formula_units_Z   4
loop_
 _symmetry_equiv_pos_site_id
 _symmetry_equiv_pos_as_xyz
  1  'x, y, z'
loop_
 _atom_site_type_symbol
 _atom_site_label
 _atom_site_symmetry_multiplicity
 _atom_site_fract_x
 _atom_site_fract_y
 _atom_site_fract_z
 _atom_site_occupancy
  Ta  Ta0  1  0.00000000  0.59739319  0.60675619  1
  Ta  Ta1  1  0.00000000  0.40260681  0.39324381  1
  Ta  Ta2  1  0.00000000  0.09739319  0.89324381  1
  Ta  Ta3  1  0.00000000  0.90260681  0.10675619  1
  Ta  Ta4  1  0.00000000  0.31405801  0.55631992  1
  Ta  Ta5  1  0.00000000  0.68594199  0.44368008  1
  Ta  Ta6  1  0.00000000  0.81405801  0.94368008  1
  Ta  Ta7  1  0.00000000  0.18594199  0.05631992  1
  Ta  Ta8  1  0.50000000  0.29940222  0.46437991  1
  Ta  Ta9  1  0.50000000  0.70059778  0.53562009  1
  Ta  Ta10  1  0.50000000  0.79940222  0.03562009  1
  Ta  Ta11  1  0.50000000  0.20059778  0.96437991  1
  Ta  Ta12  1  0.50000000  0.43715550  0.61515024  1
  Ta  Ta13  1  0.50000000  0.56284450  0.38484976  1
  Ta  Ta14  1  0.50000000  0.93715550  0.88484976  1
  Ta  Ta15  1  0.50000000  0.06284450  0.11515024  1
  Si  Si0  1  0.25002852  0.50000000  0.50000000  1
  Si  Si1  1  0.74997148  -0.00000000  0.00000000  1
  Si  Si2  1  0.74997148  0.50000000  0.50000000  1
  Si  Si3  1  0.25002852  -0.00000000  0.00000000  1
  Te  Te0  1  0.00000000  0.39294199  0.69895060  1
  Te  Te1  1  0.00000000  0.60705801  0.30104940  1
  Te  Te2  1  0.00000000  0.89294199  0.80104940  1
  Te  Te3  1  0.00000000  0.10705801  0.19895060  1
  Te  Te4  1  0.50000000  0.17861169  0.59710849  1
  Te  Te5  1  0.50000000  0.82138831  0.40289151  1
  Te  Te6  1  0.50000000  0.67861169  0.90289151  1
  Te  Te7  1  0.50000000  0.32138831  0.09710849  1
  Te  Te8  1  0.50000000  0.66739051  0.68376333  1
  Te  Te9  1  0.50000000  0.33260949  0.31623667  1
  Te  Te10  1  0.50000000  0.16739051  0.81623667  1
  Te  Te11  1  0.50000000  0.83260949  0.18376333  1
  Te  Te12  1  0.00000000  0.34541115  0.93790077  1
  Te  Te13  1  0.00000000  0.65458885  0.06209923  1
  Te  Te14  1  0.00000000  0.84541115  0.56209923  1
  Te  Te15  1  0.00000000  0.15458885  0.43790077  1
loop_
_geom_bond_atom_site_label_1
_geom_bond_atom_site_label_2
_geom_bond_distance
_geom_bond_site_symmetry_2
Ta0 Te0 2.848496 1_555
Ta0 Te14 2.850374 1_555
Ta0 Te8 2.918226 1_555
Ta0 Te8 2.918226 1_455
Ta1 Te1 2.848496 1_555
Ta1 Te15 2.850374 1_555
Ta1 Te9 2.918226 1_555
Ta1 Te9 2.918226 1_455
Ta2 Te2 2.848496 1_545
Ta2 Te12 2.850374 1_555
Ta2 Te10 2.918226 1_455
Ta2 Te10 2.918226 1_555
Ta3 Te3 2.848496 1_565
Ta3 Te13 2.850374 1_555
Ta3 Te11 2.918226 1_555
Ta3 Te11 2.918226 1_455
Ta4 Te0 2.851626 1_555
Ta4 Te15 2.854631 1_555
Ta4 Te4 2.930092 1_455
Ta4 Te4 2.930092 1_555
Ta5 Te1 2.851626 1_555
Ta5 Te14 2.854631 1_555
Ta5 Te5 2.930092 1_555
Ta5 Te5 2.930092 1_455
Ta6 Te2 2.851626 1_555
Ta6 Te13 2.854631 1_556
Ta6 Te6 2.930092 1_455
Ta6 Te6 2.930092 1_555
Ta7 Te3 2.851626 1_555
Ta7 Te12 2.854631 1_554
Ta7 Te7 2.930092 1_555
Ta7 Te7 2.930092 1_455
Ta8 Te9 2.845610 1_555
Ta8 Te4 2.854639 1_555
Ta8 Te15 2.924372 1_555
Ta8 Te15 2.924372 1_655
Ta9 Te8 2.845610 1_555
Ta9 Te5 2.854639 1_555
Ta9 Te14 2.924372 1_555
Ta9 Te14 2.924372 1_655
Ta10 Te11 2.845610 1_555
Ta10 Te6 2.854639 1_554
Ta10 Te13 2.924372 1_555
Ta10 Te13 2.924372 1_655
Ta11 Te10 2.845610 1_555
Ta11 Te7 2.854639 1_556
Ta11 Te12 2.924372 1_655
Ta11 Te12 2.924372 1_555
Ta12 Te8 2.843621 1_555
Ta12 Te4 2.856663 1_555
Ta12 Te0 2.925440 1_655
Ta12 Te0 2.925440 1_555
Ta13 Te9 2.843621 1_555
Ta13 Te5 2.856663 1_555
Ta13 Te1 2.925440 1_655
Ta13 Te1 2.925440 1_555
Ta14 Te10 2.843621 1_565
Ta14 Te6 2.856663 1_555
Ta14 Te2 2.925440 1_555
Ta14 Te2 2.925440 1_655
Ta15 Te11 2.843621 1_545
Ta15 Te7 2.856663 1_555
Ta15 Te3 2.925440 1_555
Ta15 Te3 2.925440 1_655
Si0 Si2 2.402722 1_555
Si0 Si2 2.403271 1_455
Si0 Ta1 2.592553 1_555
Si0 Ta0 2.592553 1_555
Si0 Ta12 2.594345 1_555
Si0 Ta13 2.594345 1_555
Si0 Ta9 2.597137 1_555
Si0 Ta8 2.597137 1_555
Si0 Ta5 2.599016 1_555
Si0 Ta4 2.599016 1_555
Si1 Si3 2.402722 1_555
Si1 Si3 2.403271 1_655
Si1 Ta3 2.592553 1_645
Si1 Ta2 2.592553 1_654
Si1 Ta14 2.594345 1_544
Si1 Ta15 2.594345 1_555
Si1 Ta11 2.597137 1_554
Si1 Ta10 2.597137 1_545
Si1 Ta6 2.599016 1_644
Si1 Ta7 2.599016 1_655
Si2 Ta1 2.592553 1_655
Si2 Ta0 2.592553 1_655
Si2 Ta12 2.594345 1_555
Si2 Ta13 2.594345 1_555
Si2 Ta9 2.597137 1_555
Si2 Ta8 2.597137 1_555
Si2 Ta5 2.599016 1_655
Si2 Ta4 2.599016 1_655
Si3 Ta3 2.592553 1_545
Si3 Ta2 2.592553 1_554
Si3 Ta14 2.594345 1_544
Si3 Ta15 2.594345 1_555
Si3 Ta11 2.597137 1_554
Si3 Ta10 2.597137 1_545
Si3 Ta6 2.599016 1_544
Si3 Ta7 2.599016 1_555
