# generated using pymatgen
data_PrIO9
_symmetry_space_group_name_H-M   'P 1'
_cell_length_a   9.78152403
_cell_length_b   7.12579173
_cell_length_c   11.57695417
_cell_angle_alpha   53.00568342
_cell_angle_beta   90.00000000
_cell_angle_gamma   90.00000000
_symmetry_Int_Tables_number   1
_chemical_formula_structural   PrIO9
_chemical_formula_sum   'Pr4 I4 O36'
_cell_volume   644.48830470
_cell_formula_units_Z   4
loop_
 _symmetry_equiv_pos_site_id
 _symmetry_equiv_pos_as_xyz
  1  'x, y, z'
loop_
 _atom_site_type_symbol
 _atom_site_label
 _atom_site_symmetry_multiplicity
 _atom_site_fract_x
 _atom_site_fract_y
 _atom_site_fract_z
 _atom_site_occupancy
  Pr  Pr0  1  0.39405820  0.76219689  0.98729280  1
  Pr  Pr1  1  0.60594180  0.23780311  0.01270720  1
  Pr  Pr2  1  0.89405820  0.23780311  0.51270720  1
  Pr  Pr3  1  0.10594180  0.76219689  0.48729280  1
  I  I0  1  0.22327796  0.09817887  0.65663736  1
  I  I1  1  0.77672204  0.90182113  0.34336264  1
  I  I2  1  0.72327796  0.90182113  0.84336264  1
  I  I3  1  0.27672204  0.09817887  0.15663736  1
  O  O0  1  0.10083017  0.98907950  0.58554856  1
  O  O1  1  0.89916983  0.01092050  0.41445144  1
  O  O2  1  0.60083017  0.01092050  0.91445144  1
  O  O3  1  0.39916983  0.98907950  0.08554856  1
  O  O4  1  0.81231810  0.84757644  0.71939960  1
  O  O5  1  0.18768190  0.15242356  0.28060040  1
  O  O6  1  0.31231810  0.15242356  0.78060040  1
  O  O7  1  0.68768190  0.84757644  0.21939960  1
  O  O8  1  0.19301760  0.56591180  0.18510124  1
  O  O9  1  0.80698240  0.43408820  0.81489876  1
  O  O10  1  0.69301760  0.43408820  0.31489876  1
  O  O11  1  0.30698240  0.56591180  0.68510124  1
  O  O12  1  0.31891209  0.80558448  0.76828333  1
  O  O13  1  0.68108791  0.19441552  0.23171667  1
  O  O14  1  0.81891209  0.19441552  0.73171667  1
  O  O15  1  0.18108791  0.80558448  0.26828333  1
  O  O16  1  0.47938400  0.50993598  0.25511206  1
  O  O17  1  0.52061600  0.49006402  0.74488794  1
  O  O18  1  0.97938400  0.49006402  0.24488794  1
  O  O19  1  0.02061600  0.50993598  0.75511206  1
  O  O20  1  0.56712170  0.40338459  0.35727658  1
  O  O21  1  0.43287830  0.59661541  0.64272342  1
  O  O22  1  0.06712170  0.59661541  0.14272342  1
  O  O23  1  0.93287830  0.40338459  0.85727658  1
  O  O24  1  0.84299360  0.75141532  0.98520769  1
  O  O25  1  0.15700640  0.24858468  0.01479231  1
  O  O26  1  0.34299360  0.24858468  0.51479231  1
  O  O27  1  0.65700640  0.75141532  0.48520769  1
  O  O28  1  0.59754142  0.66012584  0.90731826  1
  O  O29  1  0.40245858  0.33987416  0.09268174  1
  O  O30  1  0.09754142  0.33987416  0.59268174  1
  O  O31  1  0.90245858  0.66012584  0.40731826  1
  O  O32  1  0.14496037  0.89622507  0.84997189  1
  O  O33  1  0.85503963  0.10377493  0.15002811  1
  O  O34  1  0.64496037  0.10377493  0.65002811  1
  O  O35  1  0.35503963  0.89622507  0.34997189  1
loop_
_geom_bond_atom_site_label_1
_geom_bond_atom_site_label_2
_geom_bond_distance
_geom_bond_site_symmetry_2
I0 O26 1.760238 1_555
I0 O0 1.867147 1_545
I0 O30 1.868800 1_555
I0 O6 1.906596 1_555
I0 O12 1.910384 1_545
I0 O32 1.947073 1_545
I1 O27 1.760238 1_555
I1 O1 1.867147 1_565
I1 O31 1.868800 1_555
I1 O7 1.906596 1_555
I1 O13 1.910384 1_565
I1 O33 1.947073 1_565
I2 O24 1.760238 1_555
I2 O2 1.867147 1_565
I2 O28 1.868800 1_555
I2 O4 1.906596 1_555
I2 O14 1.910384 1_565
I2 O34 1.947073 1_565
I3 O25 1.760238 1_555
I3 O3 1.867147 1_545
I3 O29 1.868800 1_555
I3 O5 1.906596 1_555
I3 O15 1.910384 1_545
I3 O35 1.947073 1_545
O0 Pr3 2.474550 1_555
O0 Pr2 2.478779 1_465
O1 Pr2 2.474550 1_555
O1 Pr3 2.478779 1_645
O2 Pr1 2.474550 1_556
O2 Pr0 2.478779 1_545
O3 Pr0 2.474550 1_554
O3 Pr1 2.478779 1_565
O4 Pr2 2.467710 1_565
O5 Pr3 2.467710 1_545
O6 Pr0 2.467710 1_545
O7 Pr1 2.467710 1_565
O8 Pr0 2.685671 1_554
O9 Pr1 2.685671 1_556
O10 O20 1.294551 1_555
O10 Pr2 2.685671 1_555
O11 O21 1.294551 1_555
O11 Pr3 2.685671 1_555
O12 Pr0 2.474077 1_555
O13 Pr1 2.474077 1_555
O14 Pr2 2.474077 1_555
O15 Pr3 2.474077 1_555
O16 O20 1.277171 1_555
O16 Pr0 2.614131 1_554
O17 O21 1.277171 1_555
O17 Pr1 2.614131 1_556
O18 O22 1.277171 1_655
O18 Pr2 2.614131 1_555
O19 O23 1.277171 1_455
O19 Pr3 2.614131 1_555
O22 O8 1.294551 1_555
O23 O9 1.294551 1_555
O28 Pr1 2.476482 1_556
O28 Pr0 2.481586 1_555
O29 Pr0 2.476482 1_554
O29 Pr1 2.481586 1_555
O30 Pr3 2.476482 1_555
O30 Pr2 2.481586 1_455
O31 Pr2 2.476482 1_555
O31 Pr3 2.481586 1_655
O32 Pr0 2.747550 1_555
O33 Pr1 2.747550 1_555
O34 Pr2 2.747550 1_555
O35 Pr3 2.747550 1_555
