# generated using pymatgen
data_Na6Ta4Zn8Si3(S5O24)3
_symmetry_space_group_name_H-M   'P 1'
_cell_length_a   8.79565001
_cell_length_b   8.77134801
_cell_length_c   22.53418987
_cell_angle_alpha   89.81344345
_cell_angle_beta   90.35185222
_cell_angle_gamma   119.89529072
_symmetry_Int_Tables_number   1
_chemical_formula_structural   Na6Ta4Zn8Si3(S5O24)3
_chemical_formula_sum   'Na6 Ta4 Zn8 Si3 S15 O72'
_cell_volume   1507.14809759
_cell_formula_units_Z   1
loop_
 _symmetry_equiv_pos_site_id
 _symmetry_equiv_pos_as_xyz
  1  'x, y, z'
loop_
 _atom_site_type_symbol
 _atom_site_label
 _atom_site_symmetry_multiplicity
 _atom_site_fract_x
 _atom_site_fract_y
 _atom_site_fract_z
 _atom_site_occupancy
  Na  Na0  1  0.97886133  0.97692121  0.48800948  1
  Na  Na1  1  0.00717123  0.02522076  0.99848110  1
  Na  Na2  1  0.67079400  0.32952918  0.82317450  1
  Na  Na3  1  0.67542874  0.33446463  0.32923952  1
  Na  Na4  1  0.33288216  0.65880624  0.16484620  1
  Na  Na5  1  0.33850111  0.67046192  0.64959834  1
  Ta  Ta0  1  0.67369796  0.33527790  0.97987203  1
  Ta  Ta1  1  0.67133089  0.33421629  0.47802006  1
  Ta  Ta2  1  0.33096173  0.67336405  0.31923225  1
  Ta  Ta3  1  0.32252987  0.65863044  0.81369477  1
  Zn  Zn0  1  0.98098853  0.98537727  0.35401982  1
  Zn  Zn1  1  0.00032293  0.01503023  0.84979478  1
  Zn  Zn2  1  0.99480288  0.99693610  0.64223374  1
  Zn  Zn3  1  0.99774300  0.99798466  0.15501360  1
  Zn  Zn4  1  0.66938967  0.33240866  0.67894032  1
  Zn  Zn5  1  0.66741595  0.33001330  0.18592552  1
  Zn  Zn6  1  0.32641363  0.65218573  0.01824815  1
  Zn  Zn7  1  0.34360319  0.69147464  0.51109483  1
  Si  Si0  1  0.04189430  0.36413355  0.92099491  1
  Si  Si1  1  0.63642410  0.96001681  0.42219387  1
  Si  Si2  1  0.04397971  0.67561659  0.42219355  1
  S  S0  1  0.29432238  0.99840743  0.24902622  1
  S  S1  1  0.69715201  0.69957709  0.24776208  1
  S  S2  1  0.00470851  0.29721774  0.24826158  1
  S  S3  1  0.29902973  0.29326325  0.75036420  1
  S  S4  1  0.99682944  0.71178473  0.75199157  1
  S  S5  1  0.70261179  0.00056491  0.75015430  1
  S  S6  1  0.96125115  0.33138458  0.58504448  1
  S  S7  1  0.36988733  0.04323609  0.58648882  1
  S  S8  1  0.66426429  0.62532304  0.58569611  1
  S  S9  1  0.95883470  0.63082772  0.08535535  1
  S  S10  1  0.66446872  0.03581240  0.08359209  1
  S  S11  1  0.37532058  0.33111635  0.08470456  1
  S  S12  1  0.62427883  0.66536083  0.91822191  1
  S  S13  1  0.33518119  0.95730044  0.91843594  1
  S  S14  1  0.33594013  0.37822733  0.41871842  1
  O  O0  1  0.20730544  0.01736681  0.30028619  1
  O  O1  1  0.80342996  0.78642651  0.29966698  1
  O  O2  1  0.98922717  0.19136882  0.29975293  1
  O  O3  1  0.22192178  0.19305064  0.80467054  1
  O  O4  1  0.98010146  0.79409852  0.80594557  1
  O  O5  1  0.80480823  0.02426870  0.80436497  1
  O  O6  1  0.77373558  0.96467196  0.69705594  1
  O  O7  1  0.19072823  0.22541992  0.69743096  1
  O  O8  1  0.02787557  0.81492546  0.69815029  1
  O  O9  1  0.76796289  0.80077880  0.19194646  1
  O  O10  1  0.02764828  0.22448747  0.19158926  1
  O  O11  1  0.19651648  0.96950122  0.19253500  1
  O  O12  1  0.88136691  0.35155120  0.63963293  1
  O  O13  1  0.46487077  0.12429224  0.64228823  1
  O  O14  1  0.65597914  0.53260894  0.64158523  1
  O  O15  1  0.87118783  0.52324679  0.13679925  1
  O  O16  1  0.64609252  0.12101819  0.13596856  1
  O  O17  1  0.47591721  0.33955402  0.13737435  1
  O  O18  1  0.47527217  0.32420174  0.02911771  1
  O  O19  1  0.84743820  0.52601928  0.02881271  1
  O  O20  1  0.67607004  0.15234581  0.02806934  1
  O  O21  1  0.47261210  0.15255450  0.53414319  1
  O  O22  1  0.67196812  0.52172194  0.53335967  1
  O  O23  1  0.84721968  0.32341556  0.53186801  1
  O  O24  1  0.55409758  0.69984969  0.97136095  1
  O  O25  1  0.15202115  0.45367955  0.97850563  1
  O  O26  1  0.32257669  0.86104050  0.97216571  1
  O  O27  1  0.56694593  0.84089579  0.47947736  1
  O  O28  1  0.30697871  0.45192960  0.47185926  1
  O  O29  1  0.13956033  0.68132440  0.48198986  1
  O  O30  1  0.13711199  0.63443137  0.36256572  1
  O  O31  1  0.50102260  0.85720503  0.36328904  1
  O  O32  1  0.36868137  0.49683736  0.36468554  1
  O  O33  1  0.14139670  0.49717284  0.86153287  1
  O  O34  1  0.36883488  0.87325200  0.86492624  1
  O  O35  1  0.50877897  0.64093179  0.86492196  1
  O  O36  1  0.02304549  0.84005275  0.40854283  1
  O  O37  1  0.83543637  0.02928289  0.40703541  1
  O  O38  1  0.19726766  0.20272512  0.40549487  1
  O  O39  1  0.00262108  0.16872649  0.91127134  1
  O  O40  1  0.18249498  0.97643655  0.90890129  1
  O  O41  1  0.80410805  0.79988845  0.90759988  1
  O  O42  1  0.95801369  0.16135473  0.58375204  1
  O  O43  1  0.19841778  0.03688331  0.58463532  1
  O  O44  1  0.82804680  0.79805194  0.58332254  1
  O  O45  1  0.95805054  0.79745505  0.08289315  1
  O  O46  1  0.82856483  0.03135736  0.08186495  1
  O  O47  1  0.20292410  0.17025559  0.08238199  1
  O  O48  1  0.67222469  0.15110998  0.74448662  1
  O  O49  1  0.48015910  0.32960301  0.74525211  1
  O  O50  1  0.85457494  0.52843861  0.74767316  1
  O  O51  1  0.67206273  0.51962509  0.24391419  1
  O  O52  1  0.85251404  0.32737206  0.24478249  1
  O  O53  1  0.47723003  0.14557060  0.24511193  1
  O  O54  1  0.61915213  0.48893839  0.92287309  1
  O  O55  1  0.84684152  0.36101325  0.92479894  1
  O  O56  1  0.49788874  0.13971834  0.92118698  1
  O  O57  1  0.61805064  0.14161758  0.42926764  1
  O  O58  1  0.50755912  0.37694406  0.42342966  1
  O  O59  1  0.84553531  0.49055735  0.42584687  1
  O  O60  1  0.36578856  0.49392436  0.08145367  1
  O  O61  1  0.13398803  0.65272282  0.07945826  1
  O  O62  1  0.50765695  0.86355732  0.07525485  1
  O  O63  1  0.35033445  0.86737520  0.58267774  1
  O  O64  1  0.50611860  0.63961575  0.58119610  1
  O  O65  1  0.13703219  0.48064058  0.57921105  1
  O  O66  1  0.31041376  0.83088627  0.25604893  1
  O  O67  1  0.51540128  0.67897572  0.25474368  1
  O  O68  1  0.16838807  0.47796840  0.25446042  1
  O  O69  1  0.31870507  0.48101204  0.76015414  1
  O  O70  1  0.16834050  0.69827036  0.76042695  1
  O  O71  1  0.52056783  0.83715354  0.76026156  1
loop_
_geom_bond_atom_site_label_1
_geom_bond_atom_site_label_2
_geom_bond_distance
_geom_bond_site_symmetry_2
Na0 O36 2.299255 1_655
Na0 O37 2.382366 1_565
Na0 O44 2.602433 1_555
Na0 O38 2.701416 1_665
Na0 O42 2.762008 1_565
Na0 O43 2.773136 1_665
Na1 O39 2.341193 1_555
Na1 O47 2.439190 1_556
Na1 O46 2.474390 1_456
Na1 O45 2.630789 1_446
Na1 O40 2.708790 1_545
Na1 O41 2.784424 1_445
Na2 O48 2.373059 1_555
Na2 O50 2.398900 1_555
Na2 O49 2.420677 1_555
Na2 O55 2.693044 1_555
Na2 O56 2.730593 1_555
Na2 O54 2.806207 1_555
Na3 O52 2.487118 1_555
Na3 O51 2.522383 1_555
Na3 O53 2.545332 1_555
Na3 O59 2.605712 1_555
Na3 O57 2.708300 1_555
Na3 O58 2.723234 1_555
Na4 O60 2.479585 1_555
Na4 O67 2.528149 1_555
Na4 O68 2.532702 1_555
Na4 O61 2.575243 1_555
Na4 O66 2.619840 1_555
Na4 O62 2.631886 1_555
Na5 O64 2.247424 1_555
Na5 O63 2.252525 1_555
Na5 O65 2.338740 1_555
O0 S0 1.444540 1_545
O0 Zn0 2.231142 1_445
O1 S1 1.450761 1_555
O1 Zn0 2.063526 1_555
O2 S2 1.447678 1_655
O2 Zn0 2.149752 1_545
O3 S3 1.462568 1_555
O3 Zn1 2.061879 1_555
O4 S4 1.461143 1_555
O4 Zn1 2.104770 1_665
O5 S5 1.464712 1_555
O5 Zn1 2.031901 1_655
O6 S5 1.459494 1_565
O6 Zn2 2.205843 1_555
O7 S3 1.452557 1_555
O7 Zn2 2.253990 1_445
O8 S4 1.454546 1_455
O8 Zn2 2.160182 1_455
O9 S1 1.486296 1_555
O9 Zn3 2.072636 1_555
O10 S2 1.488407 1_555
O10 Zn3 2.045162 1_445
O11 S0 1.481910 1_555
O11 Zn3 2.061529 1_455
O12 S6 1.474474 1_555
O12 Zn4 1.999072 1_555
O13 S7 1.478279 1_555
O13 Zn4 1.992137 1_555
O14 S8 1.479243 1_555
O14 Zn4 2.000436 1_555
O15 S9 1.451653 1_555
O15 Zn5 2.072333 1_555
O16 S10 1.451277 1_555
O16 Zn5 2.081127 1_555
O17 S11 1.455826 1_555
O17 Zn5 2.039193 1_555
O18 S11 1.553304 1_555
O18 Ta0 2.034939 1_554
O19 S9 1.588393 1_555
O19 Ta0 1.947656 1_554
O20 S10 1.584261 1_555
O20 Ta0 1.943291 1_554
O21 S7 1.506412 1_555
O21 Ta1 2.105044 1_555
O22 S8 1.513471 1_555
O22 Ta1 2.064986 1_555
O23 S6 1.537092 1_555
O23 Ta1 1.999260 1_555
O24 S12 1.450524 1_555
O24 Zn6 2.118997 1_556
O25 Si0 1.570826 1_555
O25 Zn6 1.875502 1_556
O26 S13 1.446650 1_555
O26 Zn6 2.117613 1_556
O27 Si1 1.579822 1_555
O27 Zn7 1.878567 1_555
O28 S14 1.445589 1_555
O28 Zn7 2.152703 1_555
O29 Si2 1.571463 1_555
O29 Zn7 1.866985 1_555
O30 Si2 1.708397 1_555
O30 Ta2 1.848012 1_555
O31 Si1 1.706252 1_555
O31 Ta2 1.846915 1_555
O32 S14 1.531411 1_555
O32 Ta2 2.013507 1_555
O33 Si0 1.705657 1_555
O33 Ta3 1.862245 1_555
O34 S13 1.520776 1_555
O34 Ta3 2.070417 1_555
O35 S12 1.513350 1_555
O35 Ta3 2.066255 1_555
O36 Si2 1.571618 1_555
O36 Zn0 1.930148 1_455
O37 Si1 1.579785 1_545
O37 Zn0 1.930740 1_545
O38 S14 1.439817 1_555
O38 Zn0 2.229556 1_445
O39 Si0 1.586316 1_555
O39 Zn1 1.929151 1_555
O40 S13 1.448738 1_555
O40 Zn1 2.228808 1_565
O41 S12 1.446998 1_555
O41 Zn1 2.236395 1_665
O42 S6 1.477784 1_555
O42 Zn2 2.090177 1_545
O43 S7 1.481534 1_555
O43 Zn2 2.101159 1_445
O44 S8 1.482668 1_555
O44 Zn2 2.096997 1_555
O45 S9 1.465865 1_555
O45 Zn3 2.292680 1_555
O46 S10 1.463957 1_555
O46 Zn3 2.327639 1_545
O47 S11 1.469567 1_555
O47 Zn3 2.349638 1_445
O48 S5 1.477064 1_555
O48 Zn4 2.175976 1_555
O49 S3 1.465881 1_555
O49 Zn4 2.234549 1_555
O50 S4 1.467991 1_555
O50 Zn4 2.281013 1_555
O51 S1 1.483600 1_555
O51 Zn5 2.102621 1_555
O52 S2 1.489834 1_655
O52 Zn5 2.102628 1_555
O53 S0 1.480920 1_545
O53 Zn5 2.123685 1_555
O54 S12 1.528759 1_555
O54 Ta0 2.079004 1_555
O55 Si0 1.704823 1_655
O55 Ta0 1.894483 1_555
O56 S13 1.526123 1_545
O56 Ta0 2.104257 1_555
O57 Si1 1.687418 1_545
O57 Ta1 1.870032 1_555
O58 S14 1.518206 1_555
O58 Ta1 2.059635 1_555
O59 Si2 1.692580 1_655
O59 Ta1 1.878190 1_555
O60 S11 1.473195 1_555
O60 Zn6 2.129751 1_555
O61 S9 1.461290 1_455
O61 Zn6 2.191756 1_555
O62 S10 1.463500 1_565
O62 Zn6 2.161718 1_555
O63 S7 1.467177 1_565
O63 Zn7 2.215840 1_555
O64 S8 1.460438 1_555
O64 Zn7 2.315445 1_555
O65 S6 1.450976 1_455
O65 Zn7 2.396570 1_555
O66 S0 1.552318 1_555
O66 Ta2 2.049836 1_555
O67 S1 1.525753 1_555
O67 Ta2 2.166759 1_555
O68 S2 1.526253 1_555
O68 Ta2 2.158742 1_555
O69 S3 1.583795 1_555
O69 Ta3 1.960478 1_555
O70 S4 1.581296 1_455
O70 Ta3 1.961716 1_555
O71 S5 1.544256 1_565
O71 Ta3 2.056809 1_555
