# generated using pymatgen
data_MgMn4(CuO4)2
_symmetry_space_group_name_H-M   'P 1'
_cell_length_a   6.18938097
_cell_length_b   5.86523174
_cell_length_c   6.23054934
_cell_angle_alpha   61.92133538
_cell_angle_beta   64.73419323
_cell_angle_gamma   61.71782968
_symmetry_Int_Tables_number   1
_chemical_formula_structural   MgMn4(CuO4)2
_chemical_formula_sum   'Mg1 Mn4 Cu2 O8'
_cell_volume   169.58526037
_cell_formula_units_Z   1
loop_
 _symmetry_equiv_pos_site_id
 _symmetry_equiv_pos_as_xyz
  1  'x, y, z'
loop_
 _atom_site_type_symbol
 _atom_site_label
 _atom_site_symmetry_multiplicity
 _atom_site_fract_x
 _atom_site_fract_y
 _atom_site_fract_z
 _atom_site_occupancy
  Mg  Mg0  1  0.62500000  0.12500000  0.12500000  1
  Mn  Mn0  1  0.12151155  0.90173948  0.07500948  1
  Mn  Mn1  1  0.12848845  0.34826052  0.17499052  1
  Mn  Mn2  1  0.12500000  0.62500000  0.62500000  1
  Mn  Mn3  1  0.62500000  0.62500000  0.12500000  1
  Cu  Cu0  1  0.62500000  0.12500000  0.62500000  1
  Cu  Cu1  1  0.62500000  0.62500000  0.62500000  1
  O  O0  1  0.35363102  0.44519240  0.28210535  1
  O  O1  1  0.41839814  0.37582456  0.82995175  1
  O  O2  1  0.35363102  0.91907123  0.28210535  1
  O  O3  1  0.47464110  0.84327401  0.83881187  1
  O  O4  1  0.77535890  0.40672599  0.41118813  1
  O  O5  1  0.83160186  0.87417544  0.42004825  1
  O  O6  1  0.89636898  0.33092877  0.96789465  1
  O  O7  1  0.89636898  0.80480760  0.96789465  1
loop_
_geom_bond_atom_site_label_1
_geom_bond_atom_site_label_2
_geom_bond_distance
_geom_bond_site_symmetry_2
Mg0 O0 2.155009 1_555
Mg0 O7 2.155009 1_544
Mg0 O6 2.155009 1_554
Mg0 O2 2.155009 1_545
Mg0 O5 2.203849 1_545
Mg0 O1 2.203849 1_554
Mn0 O3 2.019776 1_554
Mn0 O5 2.126562 1_455
Mn0 O6 2.147616 1_464
Mn0 O7 2.147616 1_454
Mn0 O0 2.362968 1_555
Mn0 O2 2.362969 1_555
Mn1 O4 2.019776 1_455
Mn1 O1 2.126562 1_554
Mn1 O2 2.147616 1_545
Mn1 O0 2.147616 1_555
Mn1 O7 2.362968 1_454
Mn1 O6 2.362969 1_454
Mn2 O1 2.184474 1_555
Mn2 O5 2.184474 1_455
Mn2 O7 2.409362 1_455
Mn2 O0 2.409362 1_555
Mn2 O6 2.409362 1_455
Mn2 O2 2.409362 1_555
Mn3 O3 1.955277 1_554
Mn3 O4 1.955277 1_555
Mn3 O2 2.048113 1_555
Mn3 O6 2.048113 1_554
Mn3 O7 2.048114 1_554
Mn3 O0 2.048114 1_555
Cu0 O4 1.922982 1_555
Cu0 O3 1.922982 1_545
Cu0 O1 2.005474 1_555
Cu0 O5 2.005474 1_545
Cu1 O3 1.922987 1_555
Cu1 O4 1.922987 1_555
Cu1 O5 2.005478 1_555
Cu1 O1 2.005478 1_555
