# generated using pymatgen
data_Na5Sc2Ga2P5SO24
_symmetry_space_group_name_H-M   'P 1'
_cell_length_a   8.81775163
_cell_length_b   8.81310692
_cell_length_c   22.40408265
_cell_angle_alpha   90.27033859
_cell_angle_beta   89.84995966
_cell_angle_gamma   119.89272660
_symmetry_Int_Tables_number   1
_chemical_formula_structural   Na5Sc2Ga2P5SO24
_chemical_formula_sum   'Na15 Sc6 Ga6 P15 S3 O72'
_cell_volume   1509.41368797
_cell_formula_units_Z   3
loop_
 _symmetry_equiv_pos_site_id
 _symmetry_equiv_pos_as_xyz
  1  'x, y, z'
loop_
 _atom_site_type_symbol
 _atom_site_label
 _atom_site_symmetry_multiplicity
 _atom_site_fract_x
 _atom_site_fract_y
 _atom_site_fract_z
 _atom_site_occupancy
  Na  Na0  1  0.63827520  0.00051216  0.25026639  1
  Na  Na1  1  0.99832824  0.36246693  0.74996087  1
  Na  Na2  1  0.36422222  -0.00013958  0.75030423  1
  Na  Na3  1  0.03095638  0.69908328  0.58261638  1
  Na  Na4  1  0.66654304  0.96820778  0.58318542  1
  Na  Na5  1  0.30157222  0.96994525  0.08283728  1
  Na  Na6  1  0.03258255  0.33431370  0.08382796  1
  Na  Na7  1  0.97217363  0.66662416  0.91699153  1
  Na  Na8  1  0.70173941  0.66839918  0.41667207  1
  Na  Na9  1  0.00965497  0.00946585  0.49831637  1
  Na  Na10  1  0.99832667  0.00408858  0.00048571  1
  Na  Na11  1  0.66069284  0.32933919  0.83397590  1
  Na  Na12  1  0.67394741  0.33624566  0.33318448  1
  Na  Na13  1  0.33474594  0.65733035  0.16765002  1
  Na  Na14  1  0.33939988  0.65932865  0.66645391  1
  Sc  Sc0  1  0.00561115  0.01061234  0.85265138  1
  Sc  Sc1  1  0.00411954  0.00494249  0.64771286  1
  Sc  Sc2  1  0.66498704  0.33924630  0.68424929  1
  Sc  Sc3  1  0.66183730  0.32361965  0.98344659  1
  Sc  Sc4  1  0.33184259  0.66751647  0.51619569  1
  Sc  Sc5  1  0.33572684  0.66818598  0.81525321  1
  Ga  Ga0  1  0.98707042  0.99378842  0.34912417  1
  Ga  Ga1  1  0.98738374  0.99724284  0.15020724  1
  Ga  Ga2  1  0.67694893  0.35207984  0.18268251  1
  Ga  Ga3  1  0.67403593  0.32628435  0.48286188  1
  Ga  Ga4  1  0.33185786  0.66455743  0.01860715  1
  Ga  Ga5  1  0.32380877  0.65809585  0.31639252  1
  P  P0  1  0.70737613  0.70534074  0.25032239  1
  P  P1  1  0.00312061  0.29257454  0.25009862  1
  P  P2  1  0.29448438  0.29450311  0.75015464  1
  P  P3  1  0.99723788  0.70647917  0.75075840  1
  P  P4  1  0.70653964  0.99780024  0.74938406  1
  P  P5  1  0.95861835  0.33383945  0.58246637  1
  P  P6  1  0.37817788  0.04749708  0.58123154  1
  P  P7  1  0.66314406  0.62023758  0.58053642  1
  P  P8  1  0.95862286  0.63018078  0.08389199  1
  P  P9  1  0.66533441  0.03727291  0.08569675  1
  P  P10  1  0.37560300  0.33562737  0.08552622  1
  P  P11  1  0.04397768  0.37641437  0.91860856  1
  P  P12  1  0.33541124  0.95797366  0.91830586  1
  P  P13  1  0.62618363  0.96351690  0.41451344  1
  P  P14  1  0.04001958  0.66828963  0.41481828  1
  S  S0  1  0.28907224  0.00076004  0.25015341  1
  S  S1  1  0.62219023  0.66640432  0.91844495  1
  S  S2  1  0.33024457  0.36922655  0.41498208  1
  O  O0  1  0.20737169  0.02939654  0.30351392  1
  O  O1  1  0.81964045  0.78551663  0.30735405  1
  O  O2  1  0.96586526  0.16992613  0.30449885  1
  O  O3  1  0.21120935  0.17701962  0.80485504  1
  O  O4  1  0.97165269  0.78997518  0.80715223  1
  O  O5  1  0.82478316  0.03229717  0.80371863  1
  O  O6  1  0.78692078  0.97081215  0.69224921  1
  O  O7  1  0.17713627  0.21187250  0.69530936  1
  O  O8  1  0.03250944  0.82005791  0.69466110  1
  O  O9  1  0.79145922  0.82853738  0.19612265  1
  O  O10  1  0.03376404  0.21150476  0.19250426  1
  O  O11  1  0.18303237  0.97056393  0.19509794  1
  O  O12  1  0.88087695  0.36752404  0.63946926  1
  O  O13  1  0.48766980  0.12031831  0.63874047  1
  O  O14  1  0.63707951  0.51173965  0.63647652  1
  O  O15  1  0.87804101  0.50617563  0.13758115  1
  O  O16  1  0.62811663  0.11946508  0.14155903  1
  O  O17  1  0.49103969  0.36461294  0.14044378  1
  O  O18  1  0.45336486  0.29660211  0.02986004  1
  O  O19  1  0.85057058  0.55183456  0.02684070  1
  O  O20  1  0.70373131  0.15648192  0.03095427  1
  O  O21  1  0.46597856  0.16246256  0.52683715  1
  O  O22  1  0.69855949  0.53872633  0.52438939  1
  O  O23  1  0.83856087  0.29810939  0.52822453  1
  O  O24  1  0.54179431  0.69515504  0.97174312  1
  O  O25  1  0.15784204  0.46241706  0.97475159  1
  O  O26  1  0.30233215  0.83977874  0.97397159  1
  O  O27  1  0.54920124  0.84627366  0.47062446  1
  O  O28  1  0.30108012  0.44870989  0.46905099  1
  O  O29  1  0.14772189  0.69752313  0.47235409  1
  O  O30  1  0.12784098  0.63507797  0.36082531  1
  O  O31  1  0.51165208  0.87450143  0.35859952  1
  O  O32  1  0.36736587  0.48633493  0.36246920  1
  O  O33  1  0.12455262  0.48827010  0.86198391  1
  O  O34  1  0.36169209  0.87581837  0.86118049  1
  O  O35  1  0.51774389  0.63892613  0.86431769  1
  O  O36  1  0.01857184  0.83373297  0.40748493  1
  O  O37  1  0.80967950  0.97541833  0.40830936  1
  O  O38  1  0.17366307  0.19477243  0.40752666  1
  O  O39  1  0.02284071  0.19368914  0.91345220  1
  O  O40  1  0.16407502  0.96603076  0.91335962  1
  O  O41  1  0.79998718  0.82202398  0.91291416  1
  O  O42  1  0.97060361  0.16617473  0.58738684  1
  O  O43  1  0.19141610  0.01831182  0.58676512  1
  O  O44  1  0.83015375  0.80416028  0.58653974  1
  O  O45  1  0.98653606  0.81723370  0.09295803  1
  O  O46  1  0.83495807  0.02547563  0.09175653  1
  O  O47  1  0.18925541  0.16770213  0.09234341  1
  O  O48  1  0.68800286  0.16378716  0.74472275  1
  O  O49  1  0.47331753  0.30604933  0.74476389  1
  O  O50  1  0.83960768  0.52070603  0.74557079  1
  O  O51  1  0.68861007  0.52234935  0.24246995  1
  O  O52  1  0.83080190  0.30245662  0.24291101  1
  O  O53  1  0.46818353  0.15617147  0.24433258  1
  O  O54  1  0.64530999  0.51103052  0.92325562  1
  O  O55  1  0.86393114  0.36669716  0.92355561  1
  O  O56  1  0.49628960  0.14056340  0.92311812  1
  O  O57  1  0.64331029  0.14538375  0.42261697  1
  O  O58  1  0.49284391  0.35871039  0.42176462  1
  O  O59  1  0.85176155  0.50589364  0.42205888  1
  O  O60  1  0.34961711  0.49668916  0.07725963  1
  O  O61  1  0.14439551  0.64673414  0.07773065  1
  O  O62  1  0.49764428  0.85673368  0.07644241  1
  O  O63  1  0.35886768  0.86137484  0.57609175  1
  O  O64  1  0.50495509  0.64875407  0.57586486  1
  O  O65  1  0.13848759  0.50000550  0.57606457  1
  O  O66  1  0.31178293  0.84310107  0.25599902  1
  O  O67  1  0.52546317  0.69563363  0.25798608  1
  O  O68  1  0.16697873  0.47631333  0.25809092  1
  O  O69  1  0.30746954  0.47394423  0.75641665  1
  O  O70  1  0.16430800  0.68860997  0.75534110  1
  O  O71  1  0.52145165  0.83860724  0.75514851  1
loop_
_geom_bond_atom_site_label_1
_geom_bond_atom_site_label_2
_geom_bond_distance
_geom_bond_site_symmetry_2
Na0 O52 2.343124 1_555
Na0 O67 2.361854 1_545
Na0 O53 2.490525 1_555
Na0 O66 2.499618 1_545
Na0 O31 2.673218 1_545
Na0 O16 2.675349 1_555
Na0 O9 2.758216 1_545
Na0 O2 2.784236 1_555
Na1 O69 2.397528 1_655
Na1 O48 2.406532 1_555
Na1 O50 2.420901 1_555
Na1 O70 2.494569 1_655
Na1 O12 2.694989 1_555
Na1 O33 2.743242 1_655
Na1 O7 2.794092 1_655
Na1 O5 2.800786 1_555
Na2 O49 2.374377 1_555
Na2 O70 2.413869 1_545
Na2 O71 2.433041 1_545
Na2 O48 2.478405 1_555
Na2 O34 2.714269 1_545
Na2 O13 2.723651 1_555
Na2 O3 2.797308 1_555
Na2 O8 2.828613 1_545
Na3 O44 2.373441 1_455
Na3 O65 2.377787 1_555
Na3 O43 2.440541 1_565
Na3 O63 2.510997 1_555
Na3 O29 2.676427 1_555
Na3 O8 2.720048 1_555
Na3 O12 2.843247 1_455
Na3 O22 2.857205 1_455
Na4 O42 2.361881 1_565
Na4 O63 2.393092 1_555
Na4 O64 2.445782 1_555
Na4 O44 2.501563 1_555
Na4 O6 2.662060 1_555
Na4 O27 2.732178 1_555
Na4 O23 2.810426 1_565
Na4 O13 2.813464 1_565
Na5 O62 2.392058 1_555
Na5 O47 2.404086 1_565
Na5 O45 2.419209 1_455
Na5 O61 2.471955 1_555
Na5 O26 2.691861 1_554
Na5 O11 2.722147 1_555
Na5 O18 2.769702 1_565
Na5 O16 2.824826 1_565
Na6 O46 2.398294 1_455
Na6 O61 2.422580 1_555
Na6 O60 2.428338 1_555
Na6 O47 2.475285 1_555
Na6 O10 2.671329 1_555
Na6 O25 2.689882 1_554
Na6 O15 2.762775 1_455
Na6 O20 2.781827 1_455
Na7 O40 2.320226 1_655
Na7 O55 2.325469 1_555
Na7 O41 2.502760 1_555
Na7 O54 2.503480 1_555
Na7 O19 2.675536 1_556
Na7 O4 2.695900 1_555
Na7 O33 2.805903 1_655
Na7 O26 2.829608 1_655
Na8 O37 2.387296 1_555
Na8 O59 2.388837 1_555
Na8 O58 2.417830 1_555
Na8 O36 2.431625 1_655
Na8 O1 2.661871 1_555
Na8 O22 2.669197 1_555
Na8 O27 2.793380 1_555
Na8 O32 2.833246 1_555
Na9 O43 2.528285 1_555
Na9 O42 2.540197 1_455
Na9 O38 2.560811 1_555
Na9 O36 2.576203 1_545
Na9 O37 2.598321 1_445
Na9 O44 2.616998 1_445
Na10 O39 2.511875 1_654
Na10 O40 2.554660 1_644
Na10 O46 2.558053 1_555
Na10 O41 2.583353 1_544
Na10 O47 2.592164 1_655
Na10 O45 2.622072 1_545
Na11 O49 2.538157 1_555
Na11 O56 2.543668 1_555
Na11 O48 2.550579 1_555
Na11 O50 2.572799 1_555
Na11 O54 2.601580 1_555
Na11 O55 2.602379 1_555
Na12 O59 2.511987 1_555
Na12 O52 2.546043 1_555
Na12 O57 2.548146 1_555
Na12 O51 2.579937 1_555
Na12 O58 2.612024 1_555
Na12 O53 2.625309 1_555
Na13 O60 2.505838 1_555
Na13 O67 2.546320 1_555
Na13 O68 2.549822 1_555
Na13 O61 2.596943 1_555
Na13 O62 2.613345 1_555
Na13 O66 2.633851 1_555
Na14 O64 2.525314 1_555
Na14 O69 2.525980 1_555
Na14 O71 2.545772 1_555
Na14 O65 2.592991 1_555
Na14 O70 2.606198 1_555
Na14 O63 2.650706 1_555
Ga0 O1 1.927294 1_555
Ga0 O2 1.936280 1_565
Ga0 O37 1.992459 1_555
Ga0 O36 2.046063 1_655
Ga0 O0 2.073937 1_665
Ga0 O38 2.154330 1_665
Ga1 O9 1.923096 1_555
Ga1 O10 1.961215 1_665
Ga1 O46 1.982145 1_565
Ga1 O45 2.032481 1_555
Ga1 O47 2.108762 1_665
Ga1 O11 2.111556 1_655
Ga2 O15 1.900739 1_555
Ga2 O17 1.945411 1_555
Ga2 O51 1.970927 1_555
Ga2 O16 2.083599 1_555
Ga2 O52 2.111645 1_555
Ga2 O53 2.262440 1_555
Ga3 O23 1.889009 1_555
Ga3 O21 1.945434 1_555
Ga3 O57 1.997004 1_555
Ga3 O22 1.999713 1_555
Ga3 O59 2.086577 1_555
Ga3 O58 2.231204 1_555
Ga4 O25 1.939133 1_554
Ga4 O26 1.967025 1_554
Ga4 O24 2.024068 1_554
Ga4 O60 2.047036 1_555
Ga4 O62 2.050817 1_555
Ga4 O61 2.059938 1_555
Ga5 O30 1.913527 1_555
Ga5 O68 1.991624 1_555
Ga5 O32 2.025075 1_555
Ga5 O31 2.029174 1_555
Ga5 O67 2.095009 1_555
Ga5 O66 2.166647 1_555
O0 S0 1.478433 1_555
O1 P0 1.553301 1_555
O2 P1 1.555034 1_655
O3 P2 1.537061 1_555
O3 Sc0 1.984610 1_555
O4 P3 1.530982 1_555
O4 Sc0 2.076626 1_665
O5 P4 1.532510 1_545
O5 Sc0 2.023776 1_655
O6 P4 1.535543 1_555
O6 Sc1 2.042717 1_665
O7 P2 1.535576 1_555
O7 Sc1 2.001856 1_555
O8 P3 1.542004 1_455
O8 Sc1 2.061095 1_565
O9 P0 1.551904 1_555
O10 P1 1.558971 1_555
O11 S0 1.490459 1_565
O12 P5 1.543925 1_555
O12 Sc2 2.052325 1_555
O13 P6 1.544404 1_555
O13 Sc2 2.046889 1_555
O14 P7 1.525983 1_555
O14 Sc2 1.976547 1_555
O15 P8 1.542731 1_555
O16 P9 1.557246 1_555
O17 P10 1.536100 1_555
O18 P10 1.539602 1_555
O18 Sc3 2.018222 1_554
O19 P8 1.536426 1_555
O19 Sc3 2.100884 1_554
O20 P9 1.542083 1_555
O20 Sc3 1.999577 1_554
O21 P6 1.528374 1_555
O22 P7 1.552084 1_555
O23 P5 1.538677 1_555
O24 S1 1.471183 1_555
O25 P11 1.550416 1_555
O26 P12 1.559809 1_555
O27 P13 1.554815 1_555
O27 Sc4 2.047682 1_555
O28 S2 1.481266 1_555
O28 Sc4 2.090144 1_555
O29 P14 1.545737 1_555
O29 Sc4 2.027146 1_555
O30 P14 1.538282 1_555
O31 P13 1.553147 1_555
O32 S2 1.493056 1_555
O33 P11 1.547563 1_555
O33 Sc5 2.034733 1_555
O34 P12 1.540416 1_555
O34 Sc5 2.006371 1_555
O35 S1 1.469080 1_555
O35 Sc5 2.067668 1_555
O36 P14 1.570353 1_555
O37 P13 1.574202 1_555
O38 S2 1.476804 1_555
O39 P11 1.529897 1_555
O39 Sc0 2.053764 1_555
O40 P12 1.551684 1_555
O40 Sc0 2.125777 1_565
O41 S1 1.487154 1_555
O41 Sc0 2.208472 1_665
O42 P5 1.537536 1_555
O42 Sc1 2.090918 1_655
O43 P6 1.539664 1_555
O43 Sc1 2.098029 1_555
O44 P7 1.560085 1_555
O44 Sc1 2.155265 1_665
O45 P8 1.553098 1_555
O46 P9 1.556457 1_555
O47 P10 1.578123 1_555
O48 P4 1.554814 1_545
O48 Sc2 2.145227 1_555
O49 P2 1.533216 1_555
O49 Sc2 2.068578 1_555
O50 P3 1.535176 1_555
O50 Sc2 2.086088 1_555
O51 P0 1.546183 1_555
O52 P1 1.573405 1_655
O53 S0 1.493917 1_555
O54 S1 1.485930 1_555
O54 Sc3 2.197668 1_555
O55 P11 1.550406 1_655
O55 Sc3 2.106675 1_555
O56 P12 1.528818 1_545
O56 Sc3 2.050079 1_555
O57 P13 1.543017 1_545
O58 S2 1.490327 1_555
O59 P14 1.569390 1_655
O60 P10 1.558382 1_555
O61 P8 1.576231 1_455
O62 P9 1.553853 1_565
O63 P6 1.566146 1_565
O63 Sc4 2.085835 1_555
O64 P7 1.539550 1_555
O64 Sc4 2.099742 1_555
O65 P5 1.538294 1_455
O65 Sc4 2.093629 1_555
O66 S0 1.505680 1_565
O67 P0 1.572174 1_555
O68 P1 1.551896 1_555
O69 P2 1.533372 1_555
O69 Sc5 2.070135 1_555
O70 P3 1.561347 1_455
O70 Sc5 2.098314 1_555
O71 P4 1.538488 1_555
O71 Sc5 2.075316 1_555
