# generated using pymatgen
data_Sr2MgCu(PO4)2
_symmetry_space_group_name_H-M   'P 1'
_cell_length_a   5.64326500
_cell_length_b   8.12854557
_cell_length_c   6.27149498
_cell_angle_alpha   108.89587963
_cell_angle_beta   89.99996832
_cell_angle_gamma   110.31173452
_symmetry_Int_Tables_number   1
_chemical_formula_structural   Sr2MgCu(PO4)2
_chemical_formula_sum   'Sr2 Mg1 Cu1 P2 O8'
_cell_volume   253.19775712
_cell_formula_units_Z   1
loop_
 _symmetry_equiv_pos_site_id
 _symmetry_equiv_pos_as_xyz
  1  'x, y, z'
loop_
 _atom_site_type_symbol
 _atom_site_label
 _atom_site_symmetry_multiplicity
 _atom_site_fract_x
 _atom_site_fract_y
 _atom_site_fract_z
 _atom_site_occupancy
  Sr  Sr0  1  0.21073900  0.42147800  0.23511100  1
  Sr  Sr1  1  0.78926100  0.57852200  0.76488900  1
  Mg  Mg0  1  0.00000000  0.00000000  0.50000000  1
  Cu  Cu0  1  0.50000000  0.00000000  0.50000000  1
  P  P0  1  0.82583500  0.65167000  0.29166100  1
  P  P1  1  0.17416500  0.34833000  0.70833900  1
  O  O0  1  0.37541500  0.31357200  0.54524200  1
  O  O1  1  0.06184300  0.68642800  0.45475800  1
  O  O2  1  0.62458500  0.68642800  0.45475800  1
  O  O3  1  0.93815700  0.31357200  0.54524200  1
  O  O4  1  0.72925100  0.45850200  0.10511500  1
  O  O5  1  0.09431200  0.18862500  0.81461400  1
  O  O6  1  0.90568800  0.81137500  0.18538600  1
  O  O7  1  0.27074900  0.54149800  0.89488500  1
loop_
_geom_bond_atom_site_label_1
_geom_bond_atom_site_label_2
_geom_bond_distance
_geom_bond_site_symmetry_2
Mg0 O5 2.000312 1_555
Mg0 O6 2.000312 1_445
Cu0 Mg0 2.821633 1_655
Cu0 Mg0 2.821633 1_555
O0 P1 1.565723 1_555
O0 Sr1 2.564495 1_555
O0 Sr0 2.662102 1_555
O1 P0 1.565724 1_455
O1 Sr0 2.564497 1_555
O1 Sr1 2.662100 1_455
O2 P0 1.565723 1_555
O2 Sr0 2.564495 1_555
O2 Sr1 2.662102 1_555
O3 P1 1.565724 1_655
O3 Sr1 2.564497 1_555
O3 Sr0 2.662100 1_655
O4 P0 1.532082 1_555
O4 Sr1 2.595794 1_554
O4 Sr0 2.977389 1_555
O4 Sr0 2.977390 1_655
O5 P1 1.576963 1_555
O5 Sr0 2.621527 1_556
O6 P0 1.576963 1_555
O6 Sr1 2.621527 1_554
O7 P1 1.532082 1_555
O7 Sr0 2.595794 1_556
O7 Sr1 2.977389 1_555
O7 Sr1 2.977390 1_455
