# generated using pymatgen
data_V(PO3)3
_symmetry_space_group_name_H-M   'P 1'
_cell_length_a   7.35416146
_cell_length_b   7.35416146
_cell_length_c   9.43711643
_cell_angle_alpha   57.42988473
_cell_angle_beta   57.42988473
_cell_angle_gamma   52.10750336
_symmetry_Int_Tables_number   1
_chemical_formula_structural   V(PO3)3
_chemical_formula_sum   'V2 P6 O18'
_cell_volume   322.46244311
_cell_formula_units_Z   2
loop_
 _symmetry_equiv_pos_site_id
 _symmetry_equiv_pos_as_xyz
  1  'x, y, z'
loop_
 _atom_site_type_symbol
 _atom_site_label
 _atom_site_symmetry_multiplicity
 _atom_site_fract_x
 _atom_site_fract_y
 _atom_site_fract_z
 _atom_site_occupancy
  V  V0  1  0.49282151  0.01327567  0.39485775  1
  V  V1  1  0.01327567  0.49282151  0.89485775  1
  P  P0  1  0.28913957  0.49241636  0.07152468  1
  P  P1  1  0.49241636  0.28913957  0.57152468  1
  P  P2  1  0.05042846  0.94321414  0.15807587  1
  P  P3  1  0.94321414  0.05042846  0.65807587  1
  P  P4  1  0.52748907  0.70034759  0.21876313  1
  P  P5  1  0.70034759  0.52748907  0.71876313  1
  O  O0  1  0.41189908  0.33536890  0.20941913  1
  O  O1  1  0.33536890  0.41189908  0.70941913  1
  O  O2  1  0.46851314  0.56560841  0.88570493  1
  O  O3  1  0.56560841  0.46851314  0.38570493  1
  O  O4  1  0.74791489  0.09952469  0.60058156  1
  O  O5  1  0.09952469  0.74791489  0.10058156  1
  O  O6  1  0.67657334  0.61865585  0.05909111  1
  O  O7  1  0.61865585  0.67657334  0.55909111  1
  O  O8  1  0.81232074  0.24951372  0.74706884  1
  O  O9  1  0.24951372  0.81232074  0.24706884  1
  O  O10  1  0.07496281  0.14829492  0.99517551  1
  O  O11  1  0.14829492  0.07496281  0.49517551  1
  O  O12  1  0.81729530  0.99281049  0.30337203  1
  O  O13  1  0.99281049  0.81729530  0.80337203  1
  O  O14  1  0.56723807  0.86960439  0.22605283  1
  O  O15  1  0.86960439  0.56723807  0.72605283  1
  O  O16  1  0.40256413  0.16220677  0.56331161  1
  O  O17  1  0.16220677  0.40256413  0.06331161  1
loop_
_geom_bond_atom_site_label_1
_geom_bond_atom_site_label_2
_geom_bond_distance
_geom_bond_site_symmetry_2
O0 P0 1.486038 1_555
O0 V0 1.988514 1_555
O1 P1 1.486038 1_555
O1 V1 1.988514 1_555
O2 P5 1.569683 1_555
O2 P0 1.571728 1_556
O3 P4 1.569683 1_555
O3 P1 1.571728 1_555
O4 P1 1.573152 1_555
O4 P3 1.574392 1_555
O5 P0 1.573152 1_555
O5 P2 1.574392 1_555
O6 P4 1.490103 1_555
O6 V1 1.996851 1_654
O7 P5 1.490103 1_555
O7 V0 1.996851 1_565
O8 P3 1.580443 1_555
O8 P5 1.584168 1_555
O9 P2 1.580443 1_555
O9 P4 1.584168 1_555
O10 P2 1.486555 1_546
O10 V1 1.997407 1_555
O11 P3 1.486555 1_455
O11 V0 1.997407 1_555
O12 P2 1.480497 1_655
O12 V0 1.985643 1_565
O13 P3 1.480497 1_565
O13 V1 1.985643 1_655
O14 P4 1.483364 1_555
O14 V0 2.029010 1_565
O15 P5 1.483364 1_555
O15 V1 2.029010 1_655
O16 P1 1.484850 1_555
O16 V0 2.003227 1_555
O17 P0 1.484850 1_555
O17 V1 2.003227 1_554
