# generated using pymatgen
data_Tb16B4Br23
_symmetry_space_group_name_H-M   'P 1'
_cell_length_a   10.69625517
_cell_length_b   10.69627359
_cell_length_c   12.03432693
_cell_angle_alpha   78.42439344
_cell_angle_beta   78.42473582
_cell_angle_gamma   68.72623855
_symmetry_Int_Tables_number   1
_chemical_formula_structural   Tb16B4Br23
_chemical_formula_sum   'Tb16 B4 Br23'
_cell_volume   1244.54314105
_cell_formula_units_Z   1
loop_
 _symmetry_equiv_pos_site_id
 _symmetry_equiv_pos_as_xyz
  1  'x, y, z'
loop_
 _atom_site_type_symbol
 _atom_site_label
 _atom_site_symmetry_multiplicity
 _atom_site_fract_x
 _atom_site_fract_y
 _atom_site_fract_z
 _atom_site_occupancy
  Tb  Tb0  1  0.18786780  0.18786659  0.27372063  1
  Tb  Tb1  1  0.81212045  0.81211888  0.72629418  1
  Tb  Tb2  1  0.19099855  0.80533828  0.84835157  1
  Tb  Tb3  1  0.19465410  0.80901599  0.15163936  1
  Tb  Tb4  1  0.80902194  0.19465141  0.15163299  1
  Tb  Tb5  1  0.80533782  0.19100001  0.84835582  1
  Tb  Tb6  1  0.51359371  0.80974550  0.62834492  1
  Tb  Tb7  1  0.19020459  0.48642125  0.37166270  1
  Tb  Tb8  1  0.48642779  0.19021444  0.37166239  1
  Tb  Tb9  1  0.80975353  0.51360002  0.62834657  1
  Tb  Tb10  1  0.20150021  0.50103435  0.06243570  1
  Tb  Tb11  1  0.49898123  0.79847834  0.93752759  1
  Tb  Tb12  1  0.79847322  0.49898824  0.93753202  1
  Tb  Tb13  1  0.50103409  0.20150164  0.06243675  1
  Tb  Tb14  1  0.49450064  0.49449919  0.15037532  1
  Tb  Tb15  1  0.50552711  0.50553407  0.84959990  1
  B  B0  1  0.33258701  0.33258607  0.22846536  1
  B  B1  1  0.66740855  0.66740791  0.77153299  1
  B  B2  1  0.32917295  0.67083809  -0.00000437  1
  B  B3  1  0.67083687  0.32917648  -0.00000541  1
  Br  Br0  1  -0.00001493  -0.00000871  0.00001271  1
  Br  Br1  1  0.01295681  0.01294001  0.31070055  1
  Br  Br2  1  0.98705079  0.98705483  0.68933980  1
  Br  Br3  1  0.66817301  0.66817630  0.11437984  1
  Br  Br4  1  0.33178409  0.33178311  0.88562929  1
  Br  Br5  1  0.65892202  0.00047969  0.55791580  1
  Br  Br6  1  0.99950806  0.34107224  0.44209845  1
  Br  Br7  1  0.34108168  0.99949127  0.44210136  1
  Br  Br8  1  0.00046636  0.65895436  0.55790813  1
  Br  Br9  1  0.66136871  0.33032097  0.66296692  1
  Br  Br10  1  0.66976080  0.33862405  0.33707403  1
  Br  Br11  1  0.33863212  0.66971487  0.33707630  1
  Br  Br12  1  0.65958144  0.99696934  0.89449235  1
  Br  Br13  1  0.00299230  0.34042243  0.10550547  1
  Br  Br14  1  0.34041584  0.00299688  0.10550461  1
  Br  Br15  1  0.99697883  0.65958729  0.89449383  1
  Br  Br16  1  0.67325085  0.99941149  0.22356675  1
  Br  Br17  1  0.00055715  0.32677148  0.77641754  1
  Br  Br18  1  0.32677064  0.00055806  0.77642076  1
  Br  Br19  1  0.99941047  0.67324979  0.22356869  1
  Br  Br20  1  0.66480508  0.66479686  0.44845128  1
  Br  Br21  1  0.33525658  0.33523889  0.55151662  1
  Br  Br22  1  0.33028917  0.66137780  0.66295193  1
loop_
_geom_bond_atom_site_label_1
_geom_bond_atom_site_label_2
_geom_bond_distance
_geom_bond_site_symmetry_2
B0 Tb0 2.480135 1_555
B0 Tb8 2.502581 1_555
B0 Tb7 2.502590 1_555
B0 Tb13 2.655338 1_555
B0 Tb10 2.655349 1_555
B0 Tb14 2.784252 1_555
B1 Tb1 2.480005 1_555
B1 Tb9 2.502237 1_555
B1 Tb6 2.502262 1_555
B1 Tb12 2.654877 1_555
B1 Tb11 2.654907 1_555
B1 Tb15 2.783631 1_555
B2 Tb2 2.463792 1_554
B2 Tb3 2.463866 1_555
B2 Tb11 2.562750 1_554
B2 Tb10 2.562949 1_555
B2 Tb14 2.730191 1_555
B2 Tb15 2.730250 1_554
B3 Tb5 2.463772 1_554
B3 Tb4 2.463860 1_555
B3 Tb12 2.562749 1_554
B3 Tb13 2.562958 1_555
B3 Tb14 2.730176 1_555
B3 Tb15 2.730272 1_554
Br0 Tb4 2.963050 1_455
Br0 Tb3 2.963177 1_545
Br0 Tb5 2.963379 1_454
Br0 Tb2 2.963478 1_544
Br1 Tb0 3.011816 1_555
Br1 Tb3 3.050498 1_545
Br1 Tb4 3.050640 1_455
Br2 Tb1 3.012099 1_555
Br2 Tb2 3.050306 1_655
Br2 Tb5 3.050329 1_565
Br3 Tb12 2.876094 1_554
Br3 Tb11 2.876146 1_554
Br3 Tb14 2.991290 1_555
Br4 Tb13 2.876083 1_556
Br4 Tb10 2.876099 1_556
Br4 Tb15 2.992511 1_555
Br5 Tb1 2.854608 1_545
Br5 Tb6 2.894051 1_545
Br5 Tb8 3.108669 1_555
Br6 Tb0 2.854650 1_655
Br6 Tb7 2.893879 1_655
Br6 Tb9 3.108882 1_555
Br7 Tb0 2.854759 1_565
Br7 Tb8 2.894097 1_565
Br7 Tb6 3.108714 1_555
Br8 Tb1 2.854463 1_455
Br8 Tb9 2.894068 1_455
Br8 Tb7 3.108837 1_555
Br9 Tb5 2.819372 1_555
Br9 Tb9 2.863656 1_555
Br9 Tb15 3.042265 1_555
Br10 Tb4 2.819795 1_555
Br10 Tb8 2.864395 1_555
Br10 Tb14 3.043191 1_555
Br11 Tb3 2.819844 1_555
Br11 Tb7 2.864185 1_555
Br11 Tb14 3.042947 1_555
Br12 Tb5 2.929902 1_565
Br12 Tb1 2.934025 1_555
Br12 Tb13 3.074693 1_566
Br12 Tb11 3.094345 1_555
Br13 Tb4 2.929469 1_455
Br13 Tb0 2.934349 1_555
Br13 Tb12 3.074858 1_454
Br13 Tb10 3.094562 1_555
Br14 Tb3 2.929487 1_545
Br14 Tb0 2.934321 1_555
Br14 Tb11 3.074900 1_544
Br14 Tb13 3.094587 1_555
Br15 Tb2 2.929753 1_655
Br15 Tb1 2.934060 1_555
Br15 Tb10 3.074590 1_656
Br15 Tb12 3.094466 1_555
Br16 Tb4 2.861863 1_565
Br16 Tb8 2.899284 1_565
Br16 Tb13 2.947498 1_565
Br17 Tb5 2.861681 1_455
Br17 Tb9 2.899107 1_455
Br17 Tb12 2.947370 1_455
Br18 Tb2 2.861685 1_545
Br18 Tb6 2.899196 1_545
Br18 Tb11 2.947247 1_545
Br19 Tb3 2.861857 1_655
Br19 Tb7 2.899220 1_655
Br19 Tb10 2.947528 1_655
Br20 Tb9 2.797949 1_555
Br20 Tb6 2.797984 1_555
Br21 Tb8 2.797929 1_555
Br21 Tb7 2.798085 1_555
Br22 Tb2 2.819387 1_555
Br22 Tb6 2.863764 1_555
Br22 Tb15 3.042538 1_555
