# generated using pymatgen
data_Ba4Mg(Co2O5)2
_symmetry_space_group_name_H-M   'P 1'
_cell_length_a   6.22666721
_cell_length_b   6.26354653
_cell_length_c   9.66169004
_cell_angle_alpha   113.13325876
_cell_angle_beta   113.51445500
_cell_angle_gamma   75.34104787
_symmetry_Int_Tables_number   1
_chemical_formula_structural   Ba4Mg(Co2O5)2
_chemical_formula_sum   'Ba4 Mg1 Co4 O10'
_cell_volume   315.66275520
_cell_formula_units_Z   1
loop_
 _symmetry_equiv_pos_site_id
 _symmetry_equiv_pos_as_xyz
  1  'x, y, z'
loop_
 _atom_site_type_symbol
 _atom_site_label
 _atom_site_symmetry_multiplicity
 _atom_site_fract_x
 _atom_site_fract_y
 _atom_site_fract_z
 _atom_site_occupancy
  Ba  Ba0  1  0.62705107  0.12785375  0.20722820  1
  Ba  Ba1  1  0.33167914  0.83547626  0.78283172  1
  Ba  Ba2  1  0.14885377  0.63700897  0.22948395  1
  Ba  Ba3  1  0.96026787  0.46542819  0.79030023  1
  Mg  Mg0  1  0.61221245  0.11373212  0.73361407  1
  Co  Co0  1  0.03231287  0.05621558  0.03686318  1
  Co  Co1  1  0.56509555  0.53874891  0.04339345  1
  Co  Co2  1  0.19006474  0.16259023  0.48137858  1
  Co  Co3  1  0.74546892  0.82858668  0.47935689  1
  O  O0  1  0.20113613  0.23996842  0.00206231  1
  O  O1  1  0.25223051  0.74641921  0.00991148  1
  O  O2  1  0.68740518  0.19594984  0.96187951  1
  O  O3  1  0.74328595  0.71231295  0.00694840  1
  O  O4  1  0.10680670  0.14845772  0.27870171  1
  O  O5  1  0.87500747  0.85346998  0.69520353  1
  O  O6  1  0.66831211  0.60811691  0.28556834  1
  O  O7  1  0.35354764  0.36733344  0.67415379  1
  O  O8  1  0.90663756  0.07139417  0.49169534  1
  O  O9  1  0.42776837  0.89807866  0.51775933  1
loop_
_geom_bond_atom_site_label_1
_geom_bond_atom_site_label_2
_geom_bond_distance
_geom_bond_site_symmetry_2
Ba0 O3 2.692458 1_545
Ba0 O8 2.709932 1_555
Ba0 O0 2.722501 1_555
Ba0 O2 2.743859 1_554
Ba0 O4 2.810046 1_655
Ba0 O6 2.852163 1_555
Ba0 O1 3.237643 1_545
Ba1 O5 2.609014 1_455
Ba1 O7 2.685491 1_555
Ba1 O1 2.708645 1_556
Ba1 O0 2.771472 1_566
Ba1 O3 2.781353 1_556
Ba1 O9 3.033352 1_555
Ba1 O2 3.066145 1_565
Ba2 O0 2.643111 1_555
Ba2 O3 2.661564 1_455
Ba2 O9 2.728825 1_555
Ba2 O1 2.799952 1_555
Ba2 O4 3.005806 1_565
Ba2 O6 3.028292 1_555
Ba2 O6 3.305204 1_455
Ba2 O4 3.362568 1_555
Ba2 O8 3.413431 1_465
Ba3 O1 2.551818 1_656
Ba3 O0 2.679431 1_656
Ba3 O3 2.693328 1_556
Ba3 O5 2.783131 1_555
Ba3 O7 2.919421 1_655
Ba3 O8 2.929121 1_555
Mg0 O2 1.937526 1_555
Mg0 O7 2.032510 1_555
Mg0 O5 2.032702 1_545
Mg0 O9 2.037986 1_545
Co0 O0 1.934227 1_555
Co0 O2 2.051465 1_454
Co0 O4 2.053918 1_555
Co0 O1 2.061758 1_545
Co1 O3 1.939053 1_555
Co1 O2 2.032916 1_554
Co1 O1 2.033948 1_555
Co1 O6 2.054057 1_555
Co2 O4 1.785527 1_555
Co2 O7 1.849565 1_555
Co2 O9 1.964811 1_545
Co2 O8 2.036194 1_455
Co3 O6 1.797164 1_555
Co3 O5 1.868138 1_555
Co3 O8 1.966928 1_565
Co3 O9 2.064812 1_555
