# generated using pymatgen
data_RbSnI3
_symmetry_space_group_name_H-M   'P 1'
_cell_length_a   4.75301072
_cell_length_b   10.40655468
_cell_length_c   17.43905401
_cell_angle_alpha   90.00000000
_cell_angle_beta   90.00000000
_cell_angle_gamma   90.00000000
_symmetry_Int_Tables_number   1
_chemical_formula_structural   RbSnI3
_chemical_formula_sum   'Rb4 Sn4 I12'
_cell_volume   862.57861521
_cell_formula_units_Z   4
loop_
 _symmetry_equiv_pos_site_id
 _symmetry_equiv_pos_as_xyz
  1  'x, y, z'
loop_
 _atom_site_type_symbol
 _atom_site_label
 _atom_site_symmetry_multiplicity
 _atom_site_fract_x
 _atom_site_fract_y
 _atom_site_fract_z
 _atom_site_occupancy
  Rb  Rb0  1  0.25000000  0.58450045  0.17206743  1
  Rb  Rb1  1  0.25000000  0.08450045  0.32793257  1
  Rb  Rb2  1  0.75000000  0.41549955  0.82793257  1
  Rb  Rb3  1  0.75000000  0.91549955  0.67206743  1
  Sn  Sn0  1  0.75000000  0.16249626  0.06060108  1
  Sn  Sn1  1  0.25000000  0.33750374  0.56060108  1
  Sn  Sn2  1  0.25000000  0.83750374  0.93939892  1
  Sn  Sn3  1  0.75000000  0.66249626  0.43939892  1
  I  I0  1  0.25000000  0.69871763  0.78854336  1
  I  I1  1  0.25000000  0.47535294  0.38268643  1
  I  I2  1  0.75000000  0.52464706  0.61731357  1
  I  I3  1  0.25000000  0.97535294  0.11731357  1
  I  I4  1  0.75000000  0.16128163  0.49538546  1
  I  I5  1  0.25000000  0.83871837  0.50461454  1
  I  I6  1  0.75000000  0.66128163  0.00461454  1
  I  I7  1  0.25000000  0.33871837  0.99538546  1
  I  I8  1  0.75000000  0.30128237  0.21145664  1
  I  I9  1  0.25000000  0.19871763  0.71145664  1
  I  I10  1  0.75000000  0.80128237  0.28854336  1
  I  I11  1  0.75000000  0.02464706  0.88268643  1
loop_
_geom_bond_atom_site_label_1
_geom_bond_atom_site_label_2
_geom_bond_distance
_geom_bond_site_symmetry_2
I0 Sn2 3.001159 1_555
I0 Rb2 3.847901 1_555
I0 Rb2 3.847901 1_455
I0 Rb3 3.855256 1_555
I0 Rb3 3.855256 1_455
I1 Sn3 3.227808 1_455
I1 Sn3 3.227808 1_555
I1 Sn1 3.418247 1_555
I1 Rb0 3.844614 1_555
I1 Rb1 4.178004 1_555
I2 Sn1 3.227808 1_555
I2 Sn1 3.227808 1_655
I2 Sn3 3.418247 1_555
I2 Rb2 3.844614 1_555
I2 Rb3 4.178004 1_555
I3 Sn0 3.227808 1_465
I3 Sn0 3.227808 1_565
I3 Sn2 3.418247 1_554
I3 Rb1 3.844614 1_565
I3 Rb0 4.178004 1_555
I4 Sn1 3.210029 1_655
I4 Sn1 3.210029 1_555
I4 Rb1 3.848884 1_555
I4 Rb1 3.848884 1_655
I4 Rb3 4.004453 1_545
I5 Sn3 3.210029 1_555
I5 Sn3 3.210029 1_455
I5 Rb3 3.848884 1_555
I5 Rb3 3.848884 1_455
I5 Rb1 4.004453 1_565
I6 Sn2 3.210029 1_554
I6 Sn2 3.210029 1_654
I6 Rb0 3.848884 1_655
I6 Rb0 3.848884 1_555
I6 Rb2 4.004453 1_554
I7 Sn0 3.210029 1_556
I7 Sn0 3.210029 1_456
I7 Rb2 3.848884 1_555
I7 Rb2 3.848884 1_455
I7 Rb0 4.004453 1_556
I8 Sn0 3.001159 1_555
I8 Rb0 3.847901 1_655
I8 Rb0 3.847901 1_555
I8 Rb1 3.855256 1_655
I8 Rb1 3.855256 1_555
I9 Sn1 3.001159 1_555
I9 Rb3 3.847901 1_545
I9 Rb3 3.847901 1_445
I9 Rb2 3.855256 1_555
I9 Rb2 3.855256 1_455
I10 Sn3 3.001159 1_555
I10 Rb1 3.847901 1_565
I10 Rb1 3.847901 1_665
I10 Rb0 3.855256 1_555
I10 Rb0 3.855256 1_655
I11 Sn2 3.227808 1_645
I11 Sn2 3.227808 1_545
I11 Sn0 3.418247 1_556
I11 Rb3 3.844614 1_545
I11 Rb2 4.178004 1_555
