# generated using pymatgen
data_TiMnSi2
_symmetry_space_group_name_H-M   'P 1'
_cell_length_a   7.70903456
_cell_length_b   8.65890282
_cell_length_c   9.47317089
_cell_angle_alpha   89.99976731
_cell_angle_beta   89.99997216
_cell_angle_gamma   89.99999865
_symmetry_Int_Tables_number   1
_chemical_formula_structural   TiMnSi2
_chemical_formula_sum   'Ti12 Mn12 Si24'
_cell_volume   632.35102948
_cell_formula_units_Z   12
loop_
 _symmetry_equiv_pos_site_id
 _symmetry_equiv_pos_as_xyz
  1  'x, y, z'
loop_
 _atom_site_type_symbol
 _atom_site_label
 _atom_site_symmetry_multiplicity
 _atom_site_fract_x
 _atom_site_fract_y
 _atom_site_fract_z
 _atom_site_occupancy
  Ti  Ti0  1  0.00000145  0.16583106  0.82245133  1
  Ti  Ti1  1  0.23930545  0.17030350  0.54641289  1
  Ti  Ti2  1  0.76069520  0.32968509  0.04642013  1
  Ti  Ti3  1  0.76069773  0.67031995  0.95358668  1
  Ti  Ti4  1  0.76069524  0.17030393  0.54641379  1
  Ti  Ti5  1  0.76069318  0.82969247  0.45358225  1
  Ti  Ti6  1  0.23930235  0.67031803  0.95358671  1
  Ti  Ti7  1  0.23930600  0.32968630  0.04641944  1
  Ti  Ti8  1  0.00000155  0.33415780  0.32244860  1
  Ti  Ti9  1  0.00000082  0.66584725  0.67755108  1
  Ti  Ti10  1  0.00000122  0.83416603  0.17754958  1
  Ti  Ti11  1  0.23930786  0.82969410  0.45358162  1
  Mn  Mn0  1  0.24853945  0.08447986  0.25180824  1
  Mn  Mn1  1  0.24853850  0.58448018  0.24816721  1
  Mn  Mn2  1  0.24853171  0.41551614  0.75183488  1
  Mn  Mn3  1  0.75146074  0.08448042  0.25180791  1
  Mn  Mn4  1  0.75146585  0.91551667  0.74818690  1
  Mn  Mn5  1  0.75146690  0.41551711  0.75183427  1
  Mn  Mn6  1  0.75146138  0.58447983  0.24816749  1
  Mn  Mn7  1  0.24853339  0.91551651  0.74818540  1
  Mn  Mn8  1  0.24343801  0.00000113  0.00000650  1
  Mn  Mn9  1  0.75655574  0.49999894  0.49999642  1
  Mn  Mn10  1  0.75656144  -0.00000062  0.00000587  1
  Mn  Mn11  1  0.24344291  0.49999729  0.49999691  1
  Si  Si0  1  0.49999943  0.03766287  0.37756864  1
  Si  Si1  1  0.00000047  0.46120215  0.88035062  1
  Si  Si2  1  0.00000047  0.53879941  0.11965392  1
  Si  Si3  1  0.00000064  0.96120233  0.61964971  1
  Si  Si4  1  0.00000045  0.03879506  0.38035082  1
  Si  Si5  1  -0.00000043  0.36752255  0.60827778  1
  Si  Si6  1  -0.00000078  0.63247834  0.39171928  1
  Si  Si7  1  0.00000077  0.86752654  0.89173192  1
  Si  Si8  1  0.49999940  0.37459338  0.60417743  1
  Si  Si9  1  0.49999947  0.62540442  0.39582169  1
  Si  Si10  1  0.49999929  0.87461008  0.89585698  1
  Si  Si11  1  0.49999945  0.12539388  0.10414611  1
  Si  Si12  1  0.49999959  0.46233418  0.87757437  1
  Si  Si13  1  0.49999914  0.53766887  0.12242784  1
  Si  Si14  1  0.50000081  0.96234039  0.62242822  1
  Si  Si15  1  -0.00000043  0.13247414  0.10826909  1
  Si  Si16  1  0.34556805  0.33184207  0.31624230  1
  Si  Si17  1  0.65443289  0.83184620  0.18375555  1
  Si  Si18  1  0.34556642  0.83184589  0.18375411  1
  Si  Si19  1  0.65443472  0.16815258  0.81624591  1
  Si  Si20  1  0.65443473  0.66816016  0.68375338  1
  Si  Si21  1  0.65443153  0.33184285  0.31624248  1
  Si  Si22  1  0.34556567  0.16815358  0.81624568  1
  Si  Si23  1  0.34556418  0.66815912  0.68375407  1
loop_
_geom_bond_atom_site_label_1
_geom_bond_atom_site_label_2
_geom_bond_distance
_geom_bond_site_symmetry_2
Mn0 Si4 2.304414 1_555
Mn0 Si0 2.311165 1_555
Mn0 Si16 2.349418 1_555
Mn0 Si15 2.385947 1_555
Mn0 Si18 2.400086 1_545
Mn0 Si11 2.416621 1_555
Mn1 Si2 2.304258 1_555
Mn1 Si13 2.311059 1_555
Mn1 Si18 2.349388 1_555
Mn1 Si6 2.386020 1_555
Mn1 Si16 2.400174 1_555
Mn1 Si9 2.416601 1_555
Mn2 Si1 2.304234 1_555
Mn2 Si12 2.311117 1_555
Mn2 Si22 2.349372 1_555
Mn2 Si5 2.385997 1_555
Mn2 Si23 2.400234 1_555
Mn2 Si8 2.416656 1_555
Mn3 Si4 2.304422 1_655
Mn3 Si0 2.311175 1_555
Mn3 Si21 2.349422 1_555
Mn3 Si15 2.385937 1_655
Mn3 Si17 2.400086 1_545
Mn3 Si11 2.416628 1_555
Mn4 Si3 2.304361 1_655
Mn4 Si14 2.311200 1_555
Mn4 Si20 2.349378 1_555
Mn4 Si7 2.385942 1_655
Mn4 Si19 2.400124 1_565
Mn4 Si10 2.416696 1_555
Mn5 Si1 2.304251 1_655
Mn5 Si12 2.311114 1_555
Mn5 Si19 2.349385 1_555
Mn5 Si5 2.385998 1_655
Mn5 Si20 2.400234 1_555
Mn5 Si8 2.416654 1_555
Mn6 Si2 2.304265 1_655
Mn6 Si13 2.311071 1_555
Mn6 Si17 2.349392 1_555
Mn6 Si6 2.386011 1_655
Mn6 Si21 2.400166 1_555
Mn6 Si9 2.416605 1_555
Mn7 Si3 2.304342 1_555
Mn7 Si14 2.311207 1_555
Mn7 Si23 2.349378 1_555
Mn7 Si7 2.385935 1_555
Mn7 Si22 2.400140 1_565
Mn7 Si10 2.416701 1_555
Mn8 Si18 2.402048 1_545
Mn8 Si22 2.402121 1_554
Mn8 Si15 2.426834 1_555
Mn8 Si7 2.426882 1_544
Mn8 Si11 2.462518 1_555
Mn8 Si10 2.462547 1_544
Mn9 Si21 2.402094 1_555
Mn9 Si20 2.402133 1_555
Mn9 Si6 2.426945 1_655
Mn9 Si5 2.426952 1_655
Mn9 Si9 2.462664 1_555
Mn9 Si8 2.462688 1_555
Mn10 Si17 2.402051 1_545
Mn10 Si19 2.402117 1_554
Mn10 Si15 2.426843 1_655
Mn10 Si7 2.426884 1_644
Mn10 Si11 2.462530 1_555
Mn10 Si10 2.462544 1_544
Mn11 Si16 2.402095 1_555
Mn11 Si23 2.402138 1_555
Mn11 Si5 2.426940 1_555
Mn11 Si6 2.426956 1_555
Mn11 Si9 2.462673 1_555
Mn11 Si8 2.462682 1_555
Si0 Ti11 2.792873 1_545
Si0 Ti5 2.792896 1_545
Si0 Ti1 2.813605 1_555
Si0 Ti4 2.813623 1_555
Si1 Si2 2.364442 1_556
Si1 Ti9 2.613580 1_555
Si1 Ti0 2.615744 1_555
Si1 Ti6 2.676427 1_555
Si1 Ti3 2.676442 1_455
Si1 Ti7 2.678639 1_556
Si1 Ti2 2.678645 1_456
Si2 Ti8 2.613525 1_555
Si2 Ti10 2.615699 1_555
Si2 Ti7 2.676426 1_555
Si2 Ti2 2.676430 1_455
Si2 Ti6 2.678620 1_554
Si2 Ti3 2.678633 1_454
Si3 Si4 2.364385 1_565
Si3 Ti0 2.613509 1_565
Si3 Ti9 2.615608 1_555
Si3 Ti1 2.676354 1_565
Si3 Ti4 2.676358 1_465
Si3 Ti11 2.678621 1_555
Si3 Ti5 2.678625 1_455
Si4 Ti10 2.613508 1_545
Si4 Ti8 2.615675 1_555
Si4 Ti11 2.676352 1_545
Si4 Ti5 2.676362 1_445
Si4 Ti1 2.678577 1_555
Si4 Ti4 2.678584 1_455
Si5 Ti4 2.581278 1_455
Si5 Ti1 2.581291 1_555
Si5 Ti9 2.665221 1_555
Si5 Ti0 2.677018 1_555
Si5 Ti8 2.723079 1_555
Si6 Ti5 2.581259 1_455
Si6 Ti11 2.581282 1_555
Si6 Ti8 2.665180 1_555
Si6 Ti10 2.676969 1_555
Si6 Ti9 2.723107 1_555
Si7 Ti3 2.581179 1_455
Si7 Ti6 2.581182 1_555
Si7 Ti0 2.665063 1_565
Si7 Ti9 2.677012 1_555
Si7 Ti10 2.722964 1_556
Si8 Ti1 2.732662 1_555
Si8 Ti4 2.732668 1_555
Si9 Ti11 2.732638 1_555
Si9 Ti5 2.732643 1_555
Si10 Ti3 2.732620 1_555
Si10 Ti6 2.732622 1_555
Si11 Ti7 2.732598 1_555
Si11 Ti2 2.732603 1_555
Si12 Ti6 2.792990 1_555
Si12 Ti3 2.793007 1_555
Si12 Ti7 2.813628 1_556
Si12 Ti2 2.813648 1_556
Si13 Ti7 2.792951 1_555
Si13 Ti2 2.792972 1_555
Si13 Ti6 2.813630 1_554
Si13 Ti3 2.813646 1_554
Si14 Ti4 2.792863 1_565
Si14 Ti1 2.792868 1_565
Si14 Ti5 2.813631 1_555
Si14 Ti11 2.813633 1_555
Si15 Ti2 2.581199 1_455
Si15 Ti7 2.581218 1_555
Si15 Ti10 2.665093 1_545
Si15 Ti8 2.677027 1_555
Si15 Ti0 2.722961 1_554
Si16 Si21 2.381039 1_555
Si16 Ti8 2.664708 1_555
Si16 Ti7 2.684202 1_555
Si16 Ti1 2.716959 1_555
Si17 Si18 2.381062 1_555
Si17 Ti10 2.664723 1_655
Si17 Ti5 2.684232 1_555
Si17 Ti3 2.716905 1_554
Si18 Ti10 2.664698 1_555
Si18 Ti11 2.684234 1_555
Si18 Ti6 2.716900 1_554
Si19 Si22 2.381082 1_555
Si19 Ti0 2.664710 1_655
Si19 Ti4 2.684280 1_555
Si19 Ti2 2.716965 1_556
Si20 Si23 2.381094 1_555
Si20 Ti9 2.664704 1_655
Si20 Ti3 2.684298 1_555
Si20 Ti5 2.716926 1_555
Si21 Ti8 2.664735 1_655
Si21 Ti2 2.684200 1_555
Si21 Ti4 2.716969 1_555
Si22 Ti0 2.664691 1_555
Si22 Ti1 2.684286 1_555
Si22 Ti7 2.716959 1_556
Si23 Ti9 2.664683 1_555
Si23 Ti6 2.684289 1_555
Si23 Ti11 2.716943 1_555
