# generated using pymatgen
data_ThBrN
_symmetry_space_group_name_H-M   'P 1'
_cell_length_a   4.07401477
_cell_length_b   4.07401477
_cell_length_c   8.12696051
_cell_angle_alpha   90.00000000
_cell_angle_beta   90.00000000
_cell_angle_gamma   90.00000000
_symmetry_Int_Tables_number   1
_chemical_formula_structural   ThBrN
_chemical_formula_sum   'Th2 Br2 N2'
_cell_volume   134.88801007
_cell_formula_units_Z   2
loop_
 _symmetry_equiv_pos_site_id
 _symmetry_equiv_pos_as_xyz
  1  'x, y, z'
loop_
 _atom_site_type_symbol
 _atom_site_label
 _atom_site_symmetry_multiplicity
 _atom_site_fract_x
 _atom_site_fract_y
 _atom_site_fract_z
 _atom_site_occupancy
  Th  Th0  1  0.75000000  0.75000000  0.85734008  1
  Th  Th1  1  0.25000000  0.25000000  0.14265992  1
  Br  Br0  1  0.25000000  0.25000000  0.64794248  1
  Br  Br1  1  0.75000000  0.75000000  0.35205752  1
  N  N0  1  0.75000000  0.25000000  -0.00000000  1
  N  N1  1  0.25000000  0.75000000  -0.00000000  1
loop_
_geom_bond_atom_site_label_1
_geom_bond_atom_site_label_2
_geom_bond_distance
_geom_bond_site_symmetry_2
Br0 Th0 3.345864 1_455
Br0 Th0 3.345864 1_555
Br0 Th0 3.345864 1_445
Br0 Th0 3.345864 1_545
Br1 Th1 3.345864 1_665
Br1 Th1 3.345864 1_565
Br1 Th1 3.345864 1_555
Br1 Th1 3.345864 1_655
N0 Th1 2.343840 1_555
N0 Th1 2.343840 1_655
N0 Th0 2.343840 1_554
N0 Th0 2.343840 1_544
N1 Th1 2.343840 1_565
N1 Th1 2.343840 1_555
N1 Th0 2.343840 1_554
N1 Th0 2.343840 1_454
