# generated using pymatgen
data_Li9Ge4
_symmetry_space_group_name_H-M   'P 1'
_cell_length_a   4.42905124
_cell_length_b   4.42905124
_cell_length_c   23.53126705
_cell_angle_alpha   90.00000000
_cell_angle_beta   90.00000000
_cell_angle_gamma   120.32881863
_symmetry_Int_Tables_number   1
_chemical_formula_structural   Li9Ge4
_chemical_formula_sum   'Li18 Ge8'
_cell_volume   398.42704162
_cell_formula_units_Z   2
loop_
 _symmetry_equiv_pos_site_id
 _symmetry_equiv_pos_as_xyz
  1  'x, y, z'
loop_
 _atom_site_type_symbol
 _atom_site_label
 _atom_site_symmetry_multiplicity
 _atom_site_fract_x
 _atom_site_fract_y
 _atom_site_fract_z
 _atom_site_occupancy
  Li  Li0  1  0.84638840  0.15361160  0.25000000  1
  Li  Li1  1  0.15361160  0.84638840  0.75000000  1
  Li  Li2  1  0.16320953  0.83679047  0.51705975  1
  Li  Li3  1  0.83679047  0.16320953  0.48294025  1
  Li  Li4  1  0.83679047  0.16320953  0.01705975  1
  Li  Li5  1  0.16320953  0.83679047  0.98294025  1
  Li  Li6  1  0.15325275  0.84674725  0.63158866  1
  Li  Li7  1  0.84674725  0.15325275  0.36841134  1
  Li  Li8  1  0.82384970  0.17615030  0.59335341  1
  Li  Li9  1  0.17615030  0.82384970  0.40664659  1
  Li  Li10  1  0.17615030  0.82384970  0.09335341  1
  Li  Li11  1  0.82384970  0.17615030  0.90664659  1
  Li  Li12  1  0.48732303  0.51267697  0.82361871  1
  Li  Li13  1  0.51267697  0.48732303  0.17638129  1
  Li  Li14  1  0.51267697  0.48732303  0.32361871  1
  Li  Li15  1  0.48732303  0.51267697  0.67638129  1
  Li  Li16  1  0.15325275  0.84674725  0.86841134  1
  Li  Li17  1  0.84674725  0.15325275  0.13158866  1
  Ge  Ge0  1  0.49453721  0.50546279  0.55406384  1
  Ge  Ge1  1  0.50546279  0.49453721  0.44593616  1
  Ge  Ge2  1  0.50546279  0.49453721  0.05406384  1
  Ge  Ge3  1  0.49453721  0.50546279  0.94593616  1
  Ge  Ge4  1  0.82040798  0.17959202  0.69934311  1
  Ge  Ge5  1  0.17959202  0.82040798  0.30065689  1
  Ge  Ge6  1  0.17959202  0.82040798  0.19934311  1
  Ge  Ge7  1  0.82040798  0.17959202  0.80065689  1
loop_
_geom_bond_atom_site_label_1
_geom_bond_atom_site_label_2
_geom_bond_distance
_geom_bond_site_symmetry_2
Li0 Li17 2.786370 1_555
Li0 Li7 2.786370 1_555
Li1 Li16 2.786370 1_555
Li1 Li6 2.786370 1_555
Li2 Li6 2.696096 1_555
Li3 Li7 2.696096 1_555
Li6 Li8 2.686293 1_465
Li6 Li8 2.717230 1_565
Li6 Li8 2.717230 1_455
Li7 Li9 2.686293 1_645
Li7 Li9 2.717230 1_655
Li7 Li9 2.717230 1_545
Li10 Li17 2.686293 1_465
Li10 Li17 2.717230 1_455
Li10 Li17 2.717230 1_565
Li11 Li16 2.686293 1_645
Li11 Li16 2.717230 1_545
Li11 Li16 2.717230 1_655
Li12 Li16 2.755372 1_545
Li12 Li16 2.755372 1_655
Li12 Li16 2.774973 1_555
Li13 Li17 2.755372 1_455
Li13 Li17 2.755372 1_565
Li13 Li17 2.774973 1_555
Li14 Li7 2.755372 1_455
Li14 Li7 2.755372 1_565
Li14 Li7 2.774973 1_555
Li15 Li6 2.755372 1_545
Li15 Li6 2.755372 1_655
Li15 Li6 2.774973 1_555
Li16 Li5 2.696096 1_555
Li17 Li4 2.696096 1_555
Ge0 Li2 2.690718 1_555
Ge0 Li8 2.694050 1_555
Ge0 Li2 2.700647 1_655
Ge0 Li2 2.700647 1_545
Ge0 Li8 2.725880 1_565
Ge0 Li8 2.725880 1_455
Ge0 Li15 2.878818 1_555
Ge0 Li6 3.109780 1_655
Ge0 Li6 3.109780 1_545
Ge0 Li6 3.194540 1_555
Ge1 Li3 2.690718 1_555
Ge1 Li9 2.694050 1_555
Ge1 Li3 2.700647 1_565
Ge1 Li3 2.700647 1_455
Ge1 Li9 2.725880 1_655
Ge1 Li9 2.725880 1_545
Ge1 Li14 2.878818 1_555
Ge1 Li7 3.109780 1_455
Ge1 Li7 3.109780 1_565
Ge1 Li7 3.194540 1_555
Ge2 Li4 2.690718 1_555
Ge2 Li10 2.694050 1_555
Ge2 Li4 2.700647 1_455
Ge2 Li4 2.700647 1_565
Ge2 Li10 2.725880 1_655
Ge2 Li10 2.725880 1_545
Ge2 Li13 2.878818 1_555
Ge2 Li17 3.109780 1_455
Ge2 Li17 3.109780 1_565
Ge2 Li17 3.194540 1_555
Ge3 Li5 2.690718 1_555
Ge3 Li11 2.694050 1_555
Ge3 Li5 2.700647 1_655
Ge3 Li5 2.700647 1_545
Ge3 Li11 2.725880 1_565
Ge3 Li11 2.725880 1_455
Ge3 Li12 2.878818 1_555
Ge3 Li16 3.109780 1_655
Ge3 Li16 3.109780 1_545
Ge3 Li16 3.194540 1_555
Ge4 Ge7 2.384042 1_555
Ge4 Li8 2.494212 1_555
Ge4 Li15 2.606225 1_655
Ge4 Li15 2.606225 1_545
Ge4 Li15 2.615843 1_555
Ge4 Li1 2.814079 1_655
Ge4 Li1 2.814079 1_545
Ge4 Li1 2.824229 1_645
Ge4 Li6 3.007848 1_655
Ge4 Li6 3.007848 1_545
Ge4 Li6 3.013833 1_645
Ge5 Ge6 2.384042 1_555
Ge5 Li9 2.494212 1_555
Ge5 Li14 2.606225 1_455
Ge5 Li14 2.606225 1_565
Ge5 Li14 2.615843 1_555
Ge5 Li0 2.814079 1_565
Ge5 Li0 2.814079 1_455
Ge5 Li0 2.824229 1_465
Ge5 Li7 3.007848 1_455
Ge5 Li7 3.007848 1_565
Ge5 Li7 3.013833 1_465
Ge6 Li10 2.494212 1_555
Ge6 Li13 2.606225 1_565
Ge6 Li13 2.606225 1_455
Ge6 Li13 2.615843 1_555
Ge6 Li0 2.814079 1_565
Ge6 Li0 2.814079 1_455
Ge6 Li0 2.824229 1_465
Ge6 Li17 3.007848 1_455
Ge6 Li17 3.007848 1_565
Ge6 Li17 3.013833 1_465
Ge7 Li11 2.494212 1_555
Ge7 Li12 2.606225 1_655
Ge7 Li12 2.606225 1_545
Ge7 Li12 2.615843 1_555
Ge7 Li1 2.814079 1_655
Ge7 Li1 2.814079 1_545
Ge7 Li1 2.824229 1_645
Ge7 Li16 3.007848 1_655
Ge7 Li16 3.007848 1_545
Ge7 Li16 3.013833 1_645
