# generated using pymatgen
data_CeO2
_symmetry_space_group_name_H-M   'P 1'
_cell_length_a   3.86607151
_cell_length_b   3.86607158
_cell_length_c   3.86607100
_cell_angle_alpha   59.99999638
_cell_angle_beta   59.99999581
_cell_angle_gamma   59.99999283
_symmetry_Int_Tables_number   1
_chemical_formula_structural   CeO2
_chemical_formula_sum   'Ce1 O2'
_cell_volume   40.85964150
_cell_formula_units_Z   1
loop_
 _symmetry_equiv_pos_site_id
 _symmetry_equiv_pos_as_xyz
  1  'x, y, z'
loop_
 _atom_site_type_symbol
 _atom_site_label
 _atom_site_symmetry_multiplicity
 _atom_site_fract_x
 _atom_site_fract_y
 _atom_site_fract_z
 _atom_site_occupancy
  Ce  Ce0  1  0.00000000  0.00000000  0.00000000  1
  O  O0  1  0.75000000  0.75000000  0.75000000  1
  O  O1  1  0.25000000  0.25000000  0.25000000  1
loop_
_geom_bond_atom_site_label_1
_geom_bond_atom_site_label_2
_geom_bond_distance
_geom_bond_site_symmetry_2
Ce0 O1 2.367475 1_554
Ce0 O0 2.367475 1_445
Ce0 O1 2.367475 1_455
Ce0 O0 2.367475 1_544
Ce0 O0 2.367476 1_454
Ce0 O1 2.367476 1_545
Ce0 O1 2.367476 1_555
Ce0 O0 2.367476 1_444
