# generated using pymatgen
data_NaTaZn3(SO4)6
_symmetry_space_group_name_H-M   'P 1'
_cell_length_a   8.73314696
_cell_length_b   8.73314668
_cell_length_c   22.67309635
_cell_angle_alpha   90.00000000
_cell_angle_beta   90.00000000
_cell_angle_gamma   120.00000106
_symmetry_Int_Tables_number   1
_chemical_formula_structural   NaTaZn3(SO4)6
_chemical_formula_sum   'Na3 Ta3 Zn9 S18 O72'
_cell_volume   1497.55569721
_cell_formula_units_Z   3
loop_
 _symmetry_equiv_pos_site_id
 _symmetry_equiv_pos_as_xyz
  1  'x, y, z'
loop_
 _atom_site_type_symbol
 _atom_site_label
 _atom_site_symmetry_multiplicity
 _atom_site_fract_x
 _atom_site_fract_y
 _atom_site_fract_z
 _atom_site_occupancy
  Na  Na0  1  0.00000000  -0.00000000  0.00326154  1
  Na  Na1  1  0.66666700  0.33333300  0.83616659  1
  Na  Na2  1  0.66666700  0.33333300  0.32600894  1
  Ta  Ta0  1  0.00000000  -0.00000000  0.64788490  1
  Ta  Ta1  1  0.33333300  0.66666700  0.02381455  1
  Ta  Ta2  1  0.33333300  0.66666700  0.51480780  1
  Zn  Zn0  1  0.00000000  -0.00000000  0.34389274  1
  Zn  Zn1  1  0.00000000  -0.00000000  0.85540028  1
  Zn  Zn2  1  0.00000000  -0.00000000  0.15949814  1
  Zn  Zn3  1  0.66666700  0.33333300  0.68372702  1
  Zn  Zn4  1  0.66666700  0.33333300  0.18934586  1
  Zn  Zn5  1  0.66666700  0.33333300  0.98555382  1
  Zn  Zn6  1  0.66666700  0.33333300  0.47995091  1
  Zn  Zn7  1  0.33333300  0.66666700  0.30357226  1
  Zn  Zn8  1  0.33333300  0.66666700  0.81386659  1
  S  S0  1  0.29517024  0.00242108  0.25076943  1
  S  S1  1  0.70725085  0.70482976  0.25076943  1
  S  S2  1  0.99757892  0.29274915  0.25076943  1
  S  S3  1  0.29357461  0.29171627  0.75191632  1
  S  S4  1  0.99814166  0.70642539  0.75191632  1
  S  S5  1  0.70828373  0.00185834  0.75191632  1
  S  S6  1  0.95826063  0.33518554  0.58354690  1
  S  S7  1  0.37692590  0.04173937  0.58354690  1
  S  S8  1  0.66481446  0.62307410  0.58354690  1
  S  S9  1  0.95317889  0.62767938  0.08255276  1
  S  S10  1  0.67450149  0.04682111  0.08255276  1
  S  S11  1  0.37232062  0.32549851  0.08255276  1
  S  S12  1  0.62348378  0.66490413  0.91580933  1
  S  S13  1  0.04141934  0.37651622  0.91580933  1
  S  S14  1  0.33509587  0.95858066  0.91580933  1
  S  S15  1  0.62870921  0.96263258  0.41356076  1
  S  S16  1  0.33392236  0.37129079  0.41356076  1
  S  S17  1  0.03736743  0.66607764  0.41356076  1
  O  O0  1  0.21804981  0.03499845  0.30465193  1
  O  O1  1  0.81694864  0.78195019  0.30465193  1
  O  O2  1  0.96500155  0.18305136  0.30465193  1
  O  O3  1  0.21074202  0.17875531  0.80320802  1
  O  O4  1  0.96801328  0.78925798  0.80320802  1
  O  O5  1  0.82124469  0.03198671  0.80320802  1
  O  O6  1  0.80657664  0.98280467  0.69661702  1
  O  O7  1  0.17622803  0.19342336  0.69661702  1
  O  O8  1  0.01719533  0.82377197  0.69661702  1
  O  O9  1  0.78493979  0.80961022  0.19652244  1
  O  O10  1  0.02467043  0.21506021  0.19652244  1
  O  O11  1  0.19038978  0.97532957  0.19652244  1
  O  O12  1  0.88623745  0.36897301  0.63695284  1
  O  O13  1  0.48273655  0.11376255  0.63695284  1
  O  O14  1  0.63102699  0.51726345  0.63695284  1
  O  O15  1  0.88568450  0.51727978  0.13428464  1
  O  O16  1  0.63159628  0.11431550  0.13428464  1
  O  O17  1  0.48272022  0.36840372  0.13428464  1
  O  O18  1  0.44987928  0.30246924  0.02780403  1
  O  O19  1  0.85259096  0.55012072  0.02780403  1
  O  O20  1  0.69753076  0.14740904  0.02780403  1
  O  O21  1  0.44584773  0.15047485  0.53123727  1
  O  O22  1  0.70462812  0.55415227  0.53123727  1
  O  O23  1  0.84952515  0.29537188  0.53123727  1
  O  O24  1  0.52967443  0.68594752  0.96943959  1
  O  O25  1  0.15627209  0.47032557  0.96943959  1
  O  O26  1  0.31405248  0.84372791  0.96943959  1
  O  O27  1  0.52749416  0.84322426  0.47129053  1
  O  O28  1  0.31572910  0.47250584  0.47129053  1
  O  O29  1  0.15677574  0.68427090  0.47129053  1
  O  O30  1  0.12459631  0.63576013  0.36466335  1
  O  O31  1  0.51116283  0.87540369  0.36466335  1
  O  O32  1  0.36423987  0.48883717  0.36466335  1
  O  O33  1  0.12210498  0.48178024  0.86232729  1
  O  O34  1  0.35967427  0.87789502  0.86232729  1
  O  O35  1  0.51821976  0.64032573  0.86232729  1
  O  O36  1  0.03096933  0.82843129  0.41387514  1
  O  O37  1  0.79746196  0.96903067  0.41387514  1
  O  O38  1  0.17156871  0.20253804  0.41387514  1
  O  O39  1  0.03204530  0.20238062  0.91444256  1
  O  O40  1  0.17033533  0.96795470  0.91444256  1
  O  O41  1  0.79761938  0.82966467  0.91444256  1
  O  O42  1  0.98365754  0.17616714  0.59497701  1
  O  O43  1  0.19250960  0.01634246  0.59497701  1
  O  O44  1  0.82383286  0.80749040  0.59497701  1
  O  O45  1  0.98725119  0.80900682  0.08817747  1
  O  O46  1  0.82175564  0.01274881  0.08817747  1
  O  O47  1  0.19099318  0.17824436  0.08817747  1
  O  O48  1  0.69342021  0.16073994  0.74189991  1
  O  O49  1  0.46732072  0.30657979  0.74189991  1
  O  O50  1  0.83926006  0.53267928  0.74189991  1
  O  O51  1  0.68960497  0.52631053  0.24522493  1
  O  O52  1  0.83670656  0.31039503  0.24522493  1
  O  O53  1  0.47368947  0.16329344  0.24522493  1
  O  O54  1  0.64149372  0.50699816  0.92336955  1
  O  O55  1  0.86550543  0.35850628  0.92336955  1
  O  O56  1  0.49300184  0.13449457  0.92336955  1
  O  O57  1  0.64015682  0.13414848  0.42555099  1
  O  O58  1  0.49399266  0.35984318  0.42555099  1
  O  O59  1  0.86585152  0.50600734  0.42555099  1
  O  O60  1  0.35476148  0.49440231  0.07065164  1
  O  O61  1  0.13963983  0.64523852  0.07065164  1
  O  O62  1  0.50559769  0.86036017  0.07065164  1
  O  O63  1  0.34798083  0.85908435  0.57396100  1
  O  O64  1  0.51110252  0.65201917  0.57396100  1
  O  O65  1  0.14091565  0.48889748  0.57396100  1
  O  O66  1  0.31077290  0.84395099  0.25739033  1
  O  O67  1  0.53317710  0.68922710  0.25739033  1
  O  O68  1  0.15604901  0.46682290  0.25739033  1
  O  O69  1  0.30047679  0.46164525  0.75329638  1
  O  O70  1  0.16116745  0.69952321  0.75329638  1
  O  O71  1  0.53835475  0.83883255  0.75329638  1
loop_
_geom_bond_atom_site_label_1
_geom_bond_atom_site_label_2
_geom_bond_distance
_geom_bond_site_symmetry_2
Na0 O46 2.513091 1_455
Na0 O47 2.513091 1_555
Na0 O45 2.513091 1_445
Na0 O39 2.600551 1_554
Na0 O41 2.600551 1_444
Na0 O40 2.600551 1_544
Na1 O56 2.567319 1_555
Na1 O55 2.567319 1_555
Na1 O54 2.567319 1_555
Na1 O48 2.691982 1_555
Na1 O50 2.691982 1_555
Na1 O49 2.691982 1_555
Na2 O51 2.428500 1_555
Na2 O53 2.428500 1_555
Na2 O52 2.428500 1_555
Na2 O57 2.787558 1_555
Na2 O59 2.787558 1_555
Na2 O58 2.787558 1_555
O0 S0 1.489521 1_555
O0 Zn0 1.982217 1_555
O1 S1 1.489521 1_555
O1 Zn0 1.982217 1_665
O2 S2 1.489521 1_555
O2 Zn0 1.982217 1_655
O3 S3 1.461263 1_555
O3 Zn1 2.086020 1_555
O4 S4 1.461263 1_555
O4 Zn1 2.086020 1_665
O5 S5 1.461263 1_555
O5 Zn1 2.086020 1_655
O6 S5 1.574617 1_565
O6 Ta0 1.960379 1_665
O7 S3 1.574617 1_555
O7 Ta0 1.960379 1_555
O8 S4 1.574617 1_455
O8 Ta0 1.960379 1_565
O9 S1 1.479726 1_555
O9 Zn2 1.968226 1_665
O10 S2 1.479726 1_455
O10 Zn2 1.968226 1_555
O11 S0 1.479726 1_565
O11 Zn2 1.968226 1_565
O12 S6 1.460998 1_555
O12 Zn3 2.074054 1_555
O13 S7 1.460998 1_555
O13 Zn3 2.074054 1_555
O14 S8 1.460998 1_555
O14 Zn3 2.074054 1_555
O15 S9 1.443760 1_555
O15 Zn4 2.173701 1_555
O16 S10 1.443760 1_555
O16 Zn4 2.173701 1_555
O17 S11 1.443760 1_555
O17 Zn4 2.173701 1_555
O18 S11 1.475240 1_555
O18 Zn5 2.016026 1_554
O19 S9 1.475240 1_555
O19 Zn5 2.016026 1_554
O20 S10 1.475240 1_555
O20 Zn5 2.016026 1_554
O21 S7 1.448831 1_555
O21 Zn6 2.131114 1_555
O22 S8 1.448831 1_555
O22 Zn6 2.131114 1_555
O23 S6 1.448831 1_555
O23 Zn6 2.131114 1_555
O24 S12 1.527767 1_555
O24 Ta1 2.049310 1_556
O25 S13 1.527767 1_555
O25 Ta1 2.049310 1_556
O26 S14 1.527767 1_555
O26 Ta1 2.049310 1_556
O27 S15 1.631031 1_555
O27 Ta2 1.900437 1_555
O28 S16 1.631031 1_555
O28 Ta2 1.900437 1_555
O29 S17 1.631031 1_555
O29 Ta2 1.900437 1_555
O30 S17 1.442646 1_555
O30 Zn7 2.196009 1_555
O31 S15 1.442646 1_555
O31 Zn7 2.196009 1_555
O32 S16 1.442646 1_555
O32 Zn7 2.196009 1_555
O33 S13 1.471138 1_555
O33 Zn8 2.058808 1_555
O34 S14 1.471138 1_555
O34 Zn8 2.058808 1_555
O35 S12 1.471138 1_555
O35 Zn8 2.058808 1_555
O36 S17 1.446623 1_555
O36 Zn0 2.289338 1_565
O37 S15 1.446632 1_555
O37 Zn0 2.289338 1_665
O38 S16 1.446628 1_555
O38 Zn0 2.289338 1_555
O39 S13 1.481841 1_555
O39 Zn1 2.121205 1_555
O40 S14 1.481832 1_555
O40 Zn1 2.121205 1_565
O41 S12 1.481837 1_555
O41 Zn1 2.121205 1_665
O42 S6 1.533930 1_555
O42 Ta0 2.011445 1_655
O43 S7 1.533939 1_555
O43 Ta0 2.011445 1_555
O44 S8 1.533935 1_555
O44 Ta0 2.011445 1_665
O45 S9 1.463305 1_555
O45 Zn2 2.285542 1_665
O46 S10 1.463297 1_555
O46 Zn2 2.285542 1_655
O47 S11 1.463303 1_555
O47 Zn2 2.285542 1_555
O48 S5 1.474378 1_555
O48 Zn3 2.101975 1_555
O49 S3 1.474387 1_555
O49 Zn3 2.101975 1_555
O50 S4 1.474383 1_555
O50 Zn3 2.101975 1_555
O51 S1 1.493281 1_555
O51 Zn4 2.036648 1_555
O52 S2 1.493272 1_555
O52 Zn4 2.036648 1_555
O53 S0 1.493277 1_555
O53 Zn4 2.036648 1_555
O54 S12 1.474009 1_555
O54 Zn5 2.160973 1_555
O55 S13 1.473992 1_655
O55 Zn5 2.160973 1_555
O56 S14 1.473999 1_545
O56 Zn5 2.160973 1_555
O57 S15 1.475729 1_545
O57 Zn6 2.048920 1_555
O58 S16 1.475747 1_555
O58 Zn6 2.048920 1_555
O59 S17 1.475737 1_655
O59 Zn6 2.048920 1_555
O60 S11 1.580610 1_555
O60 Ta1 1.925495 1_555
O61 S9 1.580593 1_455
O61 Ta1 1.925495 1_555
O62 S10 1.580600 1_565
O62 Ta1 1.925495 1_555
O63 S7 1.500808 1_565
O63 Ta2 2.103321 1_555
O64 S8 1.500825 1_555
O64 Ta2 2.103321 1_555
O65 S6 1.500814 1_455
O65 Ta2 2.103321 1_555
O66 S0 1.464573 1_565
O66 Zn7 1.958907 1_555
O67 S1 1.464582 1_555
O67 Zn7 1.958907 1_555
O68 S2 1.464578 1_455
O68 Zn7 1.958907 1_555
O69 S3 1.455149 1_555
O69 Zn8 2.158797 1_555
O70 S4 1.455140 1_455
O70 Zn8 2.158797 1_555
O71 S5 1.455145 1_565
O71 Zn8 2.158797 1_555
