# generated using pymatgen
data_Si2NCl5
_symmetry_space_group_name_H-M   'P 1'
_cell_length_a   12.98467496
_cell_length_b   6.51466551
_cell_length_c   11.33370031
_cell_angle_alpha   68.65415623
_cell_angle_beta   90.00000000
_cell_angle_gamma   90.00000000
_symmetry_Int_Tables_number   1
_chemical_formula_structural   Si2NCl5
_chemical_formula_sum   'Si8 N4 Cl20'
_cell_volume   892.95853973
_cell_formula_units_Z   4
loop_
 _symmetry_equiv_pos_site_id
 _symmetry_equiv_pos_as_xyz
  1  'x, y, z'
loop_
 _atom_site_type_symbol
 _atom_site_label
 _atom_site_symmetry_multiplicity
 _atom_site_fract_x
 _atom_site_fract_y
 _atom_site_fract_z
 _atom_site_occupancy
  Si  Si0  1  0.58928046  0.55901730  0.50837342  1
  Si  Si1  1  0.08928046  0.44098270  0.99162658  1
  Si  Si2  1  0.41071954  0.44098270  0.49162658  1
  Si  Si3  1  0.91071954  0.55901730  0.00837342  1
  Si  Si4  1  0.49783666  0.78060249  0.23310156  1
  Si  Si5  1  0.99783666  0.21939751  0.26689844  1
  Si  Si6  1  0.50216334  0.21939751  0.76689844  1
  Si  Si7  1  0.00216334  0.78060249  0.73310156  1
  N  N0  1  0.49624115  0.62781976  0.39060823  1
  N  N1  1  0.99624115  0.37218024  0.10939177  1
  N  N2  1  0.50375885  0.37218024  0.60939177  1
  N  N3  1  0.00375885  0.62781976  0.89060823  1
  Cl  Cl0  1  0.71788091  0.42575219  0.46613918  1
  Cl  Cl1  1  0.21788091  0.57424781  0.03386082  1
  Cl  Cl2  1  0.28211909  0.57424781  0.53386082  1
  Cl  Cl3  1  0.78211909  0.42575219  0.96613918  1
  Cl  Cl4  1  0.63233521  0.80341454  0.56752432  1
  Cl  Cl5  1  0.13233521  0.19658546  0.93247568  1
  Cl  Cl6  1  0.36766479  0.19658546  0.43247568  1
  Cl  Cl7  1  0.86766479  0.80341454  0.06752432  1
  Cl  Cl8  1  0.35939948  0.92854291  0.17986807  1
  Cl  Cl9  1  0.85939948  0.07145709  0.32013193  1
  Cl  Cl10  1  0.64060052  0.07145709  0.82013193  1
  Cl  Cl11  1  0.14060052  0.92854291  0.67986807  1
  Cl  Cl12  1  0.61067301  0.00923143  0.19887357  1
  Cl  Cl13  1  0.11067301  -0.00923143  0.30112643  1
  Cl  Cl14  1  0.38932699  -0.00923143  0.80112643  1
  Cl  Cl15  1  0.88932699  0.00923143  0.69887357  1
  Cl  Cl16  1  0.52593225  0.59148245  0.12888627  1
  Cl  Cl17  1  0.02593225  0.40851755  0.37111373  1
  Cl  Cl18  1  0.47406775  0.40851755  0.87111373  1
  Cl  Cl19  1  0.97406775  0.59148245  0.62888627  1
loop_
_geom_bond_atom_site_label_1
_geom_bond_atom_site_label_2
_geom_bond_distance
_geom_bond_site_symmetry_2
N0 Si4 1.698327 1_555
N0 Si0 1.733873 1_555
N0 Si2 1.735221 1_555
N1 Si5 1.698327 1_555
N1 Si1 1.733873 1_654
N1 Si3 1.735221 1_555
N2 Si6 1.698327 1_555
N2 Si2 1.733873 1_555
N2 Si0 1.735221 1_555
N3 Si7 1.698327 1_555
N3 Si3 1.733873 1_456
N3 Si1 1.735221 1_555
Cl0 Si0 2.018351 1_555
Cl1 Si1 2.018351 1_554
Cl2 Si2 2.018351 1_555
Cl3 Si3 2.018351 1_556
Cl4 Si0 2.018419 1_555
Cl5 Si1 2.018419 1_555
Cl6 Si2 2.018419 1_555
Cl7 Si3 2.018419 1_555
Cl8 Si4 2.025043 1_555
Cl9 Si5 2.025043 1_555
Cl10 Si6 2.025043 1_555
Cl11 Si7 2.025043 1_555
Cl12 Si4 2.023595 1_545
Cl13 Si5 2.023595 1_455
Cl14 Si6 2.023595 1_555
Cl15 Si7 2.023595 1_645
Cl16 Si4 2.026215 1_555
Cl17 Si5 2.026215 1_455
Cl18 Si6 2.026215 1_555
Cl19 Si7 2.026215 1_655
