# generated using pymatgen
data_V7O13
_symmetry_space_group_name_H-M   'P 1'
_cell_length_a   5.44423134
_cell_length_b   7.00784784
_cell_length_c   11.14171378
_cell_angle_alpha   95.92374735
_cell_angle_beta   89.01527176
_cell_angle_gamma   109.15763868
_symmetry_Int_Tables_number   1
_chemical_formula_structural   V7O13
_chemical_formula_sum   'V14 O26'
_cell_volume   399.33398153
_cell_formula_units_Z   2
loop_
 _symmetry_equiv_pos_site_id
 _symmetry_equiv_pos_as_xyz
  1  'x, y, z'
loop_
 _atom_site_type_symbol
 _atom_site_label
 _atom_site_symmetry_multiplicity
 _atom_site_fract_x
 _atom_site_fract_y
 _atom_site_fract_z
 _atom_site_occupancy
  V  V0  1  0.00000000  0.50000000  0.50000000  1
  V  V1  1  0.00000000  -0.00000000  0.50000000  1
  V  V2  1  0.60992051  0.26419390  0.64840546  1
  V  V3  1  0.39007949  0.73580610  0.35159454  1
  V  V4  1  0.61255987  0.76408659  0.64279111  1
  V  V5  1  0.38744013  0.23591341  0.35720889  1
  V  V6  1  0.22253971  0.02475214  0.78954374  1
  V  V7  1  0.77746029  0.97524786  0.21045626  1
  V  V8  1  0.21330399  0.51648047  0.79306360  1
  V  V9  1  0.78669601  0.48351953  0.20693640  1
  V  V10  1  0.79668090  0.78643869  0.94271099  1
  V  V11  1  0.20331910  0.21356131  0.05728901  1
  V  V12  1  0.79466526  0.28632019  0.94601863  1
  V  V13  1  0.20533474  0.71367981  0.05398137  1
  O  O0  1  0.36818980  0.16990455  0.51439206  1
  O  O1  1  0.63181020  0.83009545  0.48560794  1
  O  O2  1  0.89244233  0.23115320  0.54958837  1
  O  O3  1  0.10755767  0.76884680  0.45041163  1
  O  O4  1  0.72164874  0.53271625  0.60050639  1
  O  O5  1  0.27835126  0.46728375  0.39949361  1
  O  O6  1  0.24698474  0.59774946  0.63830510  1
  O  O7  1  0.75301526  0.40225054  0.36169490  1
  O  O8  1  0.97324100  0.92699198  0.66910264  1
  O  O9  1  0.02675900  0.07300802  0.33089736  1
  O  O10  1  0.50421041  0.99227777  0.70352859  1
  O  O11  1  0.49578959  0.00772223  0.29647141  1
  O  O12  1  0.32257645  0.29525044  0.74909504  1
  O  O13  1  0.67742355  0.70474956  0.25090496  1
  O  O14  1  0.80231889  0.55060537  0.02707989  1
  O  O15  1  0.19768111  0.44939463  0.97292011  1
  O  O16  1  0.54415692  0.83597115  0.05697670  1
  O  O17  1  0.45584308  0.16402885  0.94302330  1
  O  O18  1  0.05071662  0.92903944  0.09289920  1
  O  O19  1  0.94928338  0.07096056  0.90710080  1
  O  O20  1  0.87001850  0.23406147  0.12373067  1
  O  O21  1  0.12998150  0.76593853  0.87626933  1
  O  O22  1  0.41924422  0.30916905  0.18040009  1
  O  O23  1  0.58075578  0.69083095  0.81959991  1
  O  O24  1  0.15055497  0.63609669  0.20931906  1
  O  O25  1  0.84944503  0.36390331  0.79068094  1
loop_
_geom_bond_atom_site_label_1
_geom_bond_atom_site_label_2
_geom_bond_distance
_geom_bond_site_symmetry_2
O0 V5 1.849613 1_555
O0 V2 1.921244 1_555
O0 V1 1.966372 1_555
O1 V4 1.849613 1_555
O1 V3 1.921244 1_555
O1 V1 1.966372 1_665
O2 V0 1.917652 1_655
O2 V1 1.923251 1_655
O2 V2 1.937656 1_555
O3 V0 1.917652 1_555
O3 V1 1.923251 1_565
O3 V3 1.937656 1_555
O4 V2 1.908065 1_555
O4 V4 1.915302 1_555
O4 V0 1.928659 1_655
O5 V3 1.908065 1_555
O5 V5 1.915302 1_555
O5 V0 1.928659 1_555
O6 V8 1.858598 1_555
O6 V4 1.947092 1_555
O6 V0 1.975004 1_555
O7 V9 1.858598 1_555
O7 V5 1.947092 1_555
O7 V0 1.975004 1_655
O8 V6 1.837051 1_665
O8 V4 1.929887 1_555
O8 V1 1.993341 1_665
O9 V7 1.837051 1_445
O9 V5 1.929887 1_555
O9 V1 1.993341 1_555
O10 V6 1.858849 1_565
O10 V4 1.935239 1_555
O10 V2 1.961927 1_565
O11 V7 1.858849 1_545
O11 V5 1.935239 1_555
O11 V3 1.961927 1_545
O12 V8 1.853654 1_555
O12 V6 1.892976 1_555
O12 V2 1.966192 1_555
O13 V9 1.853654 1_555
O13 V7 1.892976 1_555
O13 V3 1.966192 1_555
O14 V12 1.962901 1_554
O14 V10 1.992708 1_554
O14 V9 2.099110 1_555
O14 V13 2.125121 1_655
O15 V13 1.962901 1_556
O15 V11 1.992708 1_556
O15 V8 2.099110 1_555
O15 V12 2.125121 1_455
O16 V13 1.759788 1_555
O16 V10 1.947620 1_554
O16 V7 2.099191 1_555
O17 V12 1.759788 1_555
O17 V11 1.947620 1_556
O17 V6 2.099191 1_555
O18 V13 1.964819 1_555
O18 V11 1.971789 1_565
O18 V7 2.048226 1_455
O18 V10 2.130445 1_454
O19 V12 1.964819 1_555
O19 V10 1.971789 1_545
O19 V6 2.048226 1_655
O19 V11 2.130445 1_656
O20 V11 1.991047 1_655
O20 V7 2.054837 1_545
O20 V9 2.071907 1_555
O20 V12 2.121104 1_554
O21 V10 1.991047 1_455
O21 V6 2.054837 1_565
O21 V8 2.071907 1_555
O21 V13 2.121104 1_556
O22 V11 1.749592 1_555
O22 V9 1.980846 1_555
O22 V5 2.076756 1_555
O23 V10 1.749592 1_555
O23 V8 1.980846 1_555
O23 V4 2.076756 1_555
O24 V13 1.857424 1_555
O24 V9 1.916726 1_455
O24 V3 1.986441 1_555
O25 V12 1.857424 1_555
O25 V8 1.916726 1_655
O25 V2 1.986441 1_555
