# generated using pymatgen
data_Bi2Te2S
_symmetry_space_group_name_H-M   'P 1'
_cell_length_a   10.71371459
_cell_length_b   10.71371459
_cell_length_c   10.71371412
_cell_angle_alpha   23.02949976
_cell_angle_beta   23.02949976
_cell_angle_gamma   23.02950509
_symmetry_Int_Tables_number   1
_chemical_formula_structural   Bi2Te2S
_chemical_formula_sum   'Bi2 Te2 S1'
_cell_volume   165.18278698
_cell_formula_units_Z   1
loop_
 _symmetry_equiv_pos_site_id
 _symmetry_equiv_pos_as_xyz
  1  'x, y, z'
loop_
 _atom_site_type_symbol
 _atom_site_label
 _atom_site_symmetry_multiplicity
 _atom_site_fract_x
 _atom_site_fract_y
 _atom_site_fract_z
 _atom_site_occupancy
  Bi  Bi0  1  0.38880900  0.38880900  0.38880900  1
  Bi  Bi1  1  0.61119100  0.61119100  0.61119100  1
  Te  Te0  1  0.77892574  0.77892574  0.77892574  1
  Te  Te1  1  0.22107426  0.22107426  0.22107426  1
  S  S0  1  -0.00000000  -0.00000000  0.00000000  1
loop_
_geom_bond_atom_site_label_1
_geom_bond_atom_site_label_2
_geom_bond_distance
_geom_bond_site_symmetry_2
Bi0 S0 3.018099 1_556
Bi0 S0 3.018099 1_565
Bi0 S0 3.018099 1_655
Bi0 Te0 3.041796 1_554
Bi0 Te0 3.041796 1_455
Bi0 Te0 3.041796 1_545
Bi1 S0 3.018099 1_665
Bi1 S0 3.018099 1_656
Bi1 S0 3.018099 1_566
Bi1 Te1 3.041796 1_556
Bi1 Te1 3.041796 1_565
Bi1 Te1 3.041796 1_655
