# generated using pymatgen
data_MgCu2GeS4
_symmetry_space_group_name_H-M   'P 1'
_cell_length_a   5.47650104
_cell_length_b   5.47650154
_cell_length_c   6.53415707
_cell_angle_alpha   114.77570446
_cell_angle_beta   114.77569847
_cell_angle_gamma   89.99999521
_symmetry_Int_Tables_number   1
_chemical_formula_structural   MgCu2GeS4
_chemical_formula_sum   'Mg1 Cu2 Ge1 S4'
_cell_volume   157.84828632
_cell_formula_units_Z   1
loop_
 _symmetry_equiv_pos_site_id
 _symmetry_equiv_pos_as_xyz
  1  'x, y, z'
loop_
 _atom_site_type_symbol
 _atom_site_label
 _atom_site_symmetry_multiplicity
 _atom_site_fract_x
 _atom_site_fract_y
 _atom_site_fract_z
 _atom_site_occupancy
  Mg  Mg0  1  0.00000000  0.00000000  0.00000000  1
  Cu  Cu0  1  0.75000000  0.25000000  0.50000000  1
  Cu  Cu1  1  0.25000000  0.75000000  0.50000000  1
  Ge  Ge0  1  0.50000000  0.50000000  0.00000000  1
  S  S0  1  0.86458500  0.86458500  0.26091600  1
  S  S1  1  0.60367000  0.13541500  0.73908400  1
  S  S2  1  0.39633100  0.39633000  0.26091600  1
  S  S3  1  0.13541500  0.60367000  0.73908400  1
loop_
_geom_bond_atom_site_label_1
_geom_bond_atom_site_label_2
_geom_bond_distance
_geom_bond_site_symmetry_2
Mg0 S3 2.475046 1_544
Mg0 S1 2.475046 1_454
Mg0 S2 2.475046 1_555
Mg0 S0 2.475049 1_445
Cu0 S1 2.312449 1_555
Cu0 S2 2.312450 1_555
Cu0 S0 2.312453 1_545
Cu0 S3 2.312456 1_655
Cu1 S3 2.312449 1_555
Cu1 S0 2.312453 1_455
Cu1 S2 2.312456 1_555
Cu1 S1 2.312456 1_565
Ge0 S0 2.274586 1_555
Ge0 S2 2.274588 1_555
Ge0 S1 2.274588 1_554
Ge0 S3 2.274589 1_554
