# generated using pymatgen
data_UB12
_symmetry_space_group_name_H-M   'P 1'
_cell_length_a   5.25977937
_cell_length_b   5.25977952
_cell_length_c   5.25978048
_cell_angle_alpha   60.00000669
_cell_angle_beta   60.00000575
_cell_angle_gamma   60.00000114
_symmetry_Int_Tables_number   1
_chemical_formula_structural   UB12
_chemical_formula_sum   'U1 B12'
_cell_volume   102.89345100
_cell_formula_units_Z   1
loop_
 _symmetry_equiv_pos_site_id
 _symmetry_equiv_pos_as_xyz
  1  'x, y, z'
loop_
 _atom_site_type_symbol
 _atom_site_label
 _atom_site_symmetry_multiplicity
 _atom_site_fract_x
 _atom_site_fract_y
 _atom_site_fract_z
 _atom_site_occupancy
  U  U0  1  -0.00000000  -0.00000000  0.00000000  1
  B  B0  1  0.83959246  0.50000000  0.50000000  1
  B  B1  1  0.50000000  0.50000000  0.83959246  1
  B  B2  1  0.83959246  0.16040754  0.50000000  1
  B  B3  1  0.50000000  0.83959246  0.16040754  1
  B  B4  1  0.50000000  0.16040854  0.83959246  1
  B  B5  1  0.50000000  0.83959246  0.50000000  1
  B  B6  1  0.83959246  0.50000000  0.16040754  1
  B  B7  1  0.16040754  0.83959246  0.50000000  1
  B  B8  1  0.50000000  0.16040854  0.50000000  1
  B  B9  1  0.16040854  0.50000000  0.83959246  1
  B  B10  1  0.50000000  0.50000000  0.16040854  1
  B  B11  1  0.16040854  0.50000000  0.50000000  1
loop_
_geom_bond_atom_site_label_1
_geom_bond_atom_site_label_2
_geom_bond_distance
_geom_bond_site_symmetry_2
B0 B11 1.687422 1_655
B0 B2 1.786181 1_555
B0 B5 1.786181 1_555
B0 B1 1.786182 1_555
B0 B6 1.786182 1_555
B0 U0 2.761914 1_665
B0 U0 2.761914 1_656
B1 B10 1.687422 1_556
B1 B9 1.786176 1_555
B1 B4 1.786176 1_555
B1 B5 1.786182 1_555
B1 U0 2.761913 1_656
B1 U0 2.761913 1_566
B2 B7 1.687417 1_645
B2 B8 1.786179 1_555
B2 B4 1.786182 1_555
B2 B6 1.786182 1_555
B2 U0 2.761914 1_655
B2 U0 2.761914 1_656
B3 B4 1.687420 1_564
B3 B6 1.786181 1_555
B3 B7 1.786182 1_555
B3 B5 1.786182 1_555
B3 U0 2.761913 1_665
B3 U0 2.761913 1_565
B4 B9 1.786176 1_555
B4 B8 1.786182 1_555
B4 U0 2.761911 1_656
B4 U0 2.761916 1_556
B5 B8 1.687422 1_565
B5 B7 1.786181 1_555
B5 U0 2.761913 1_665
B5 U0 2.761914 1_566
B6 B9 1.687419 1_654
B6 U0 2.761913 1_665
B6 U0 2.761913 1_655
B7 B9 1.786182 1_555
B7 U0 2.761914 1_565
B7 U0 2.761914 1_566
B8 U0 2.761915 1_556
B8 U0 2.761915 1_655
B9 U0 2.761911 1_566
B9 U0 2.761916 1_556
B10 B11 1.786176 1_555
B10 B8 1.786177 1_555
B10 B6 1.786179 1_555
B10 B3 1.786179 1_555
B10 U0 2.761915 1_565
B10 U0 2.761915 1_655
B11 B8 1.786176 1_555
B11 B7 1.786179 1_555
B11 B9 1.786182 1_555
B11 U0 2.761915 1_556
B11 U0 2.761915 1_565
