# generated using pymatgen
data_BaTi5O11
_symmetry_space_group_name_H-M   'P 1'
_cell_length_a   14.24450500
_cell_length_b   7.62484100
_cell_length_c   10.04266134
_cell_angle_alpha   49.65296572
_cell_angle_beta   90.00000000
_cell_angle_gamma   90.00000000
_symmetry_Int_Tables_number   1
_chemical_formula_structural   BaTi5O11
_chemical_formula_sum   'Ba4 Ti20 O44'
_cell_volume   831.30441393
_cell_formula_units_Z   4
loop_
 _symmetry_equiv_pos_site_id
 _symmetry_equiv_pos_as_xyz
  1  'x, y, z'
loop_
 _atom_site_type_symbol
 _atom_site_label
 _atom_site_symmetry_multiplicity
 _atom_site_fract_x
 _atom_site_fract_y
 _atom_site_fract_z
 _atom_site_occupancy
  Ba  Ba0  1  0.58219200  0.03520700  0.26393200  1
  Ba  Ba1  1  0.08219200  0.96479300  0.23606800  1
  Ba  Ba2  1  0.41780800  0.96479300  0.73606800  1
  Ba  Ba3  1  0.91780800  0.03520700  0.76393200  1
  Ti  Ti0  1  0.49010200  0.47796900  0.26953500  1
  Ti  Ti1  1  0.99010200  0.52203100  0.23046500  1
  Ti  Ti2  1  0.50989800  0.52203100  0.73046500  1
  Ti  Ti3  1  0.00989800  0.47796900  0.76953500  1
  Ti  Ti4  1  0.83953900  0.70413000  0.55097500  1
  Ti  Ti5  1  0.33953900  0.29587000  0.94902500  1
  Ti  Ti6  1  0.16046100  0.29587000  0.44902500  1
  Ti  Ti7  1  0.66046100  0.70413000  0.05097500  1
  Ti  Ti8  1  0.82490100  0.49038100  0.92976700  1
  Ti  Ti9  1  0.32490100  0.50961900  0.57023300  1
  Ti  Ti10  1  0.17509900  0.50961900  0.07023300  1
  Ti  Ti11  1  0.67509900  0.49038100  0.42976700  1
  Ti  Ti12  1  0.83967100  0.97620000  0.15465300  1
  Ti  Ti13  1  0.33967100  0.02380000  0.34534700  1
  Ti  Ti14  1  0.16032900  0.02380000  0.84534700  1
  Ti  Ti15  1  0.66032900  0.97620000  0.65465300  1
  Ti  Ti16  1  0.82358000  0.23895000  0.30972300  1
  Ti  Ti17  1  0.32358000  0.76105000  0.19027700  1
  Ti  Ti18  1  0.17642000  0.76105000  0.69027700  1
  Ti  Ti19  1  0.67642000  0.23895000  0.80972300  1
  O  O0  1  0.92815700  0.78726700  0.17120700  1
  O  O1  1  0.42815700  0.21273300  0.32879300  1
  O  O2  1  0.07184300  0.21273300  0.82879300  1
  O  O3  1  0.57184300  0.78726700  0.67120700  1
  O  O4  1  0.89601600  0.98014200  0.33965300  1
  O  O5  1  0.39601600  0.01985800  0.16034700  1
  O  O6  1  0.10398400  0.01985800  0.66034700  1
  O  O7  1  0.60398400  0.98014200  0.83965300  1
  O  O8  1  0.90207500  0.49890400  0.08716600  1
  O  O9  1  0.40207500  0.50109600  0.41283400  1
  O  O10  1  0.09792500  0.50109600  0.91283400  1
  O  O11  1  0.59792500  0.49890400  0.58716600  1
  O  O12  1  0.91285200  0.24640100  0.97509500  1
  O  O13  1  0.41285200  0.75359900  0.52490500  1
  O  O14  1  0.08714800  0.75359900  0.02490500  1
  O  O15  1  0.58714800  0.24640100  0.47509500  1
  O  O16  1  0.90878800  0.70067000  0.72807300  1
  O  O17  1  0.92619000  0.49388300  0.60702100  1
  O  O18  1  0.07381000  0.50611700  0.39297900  1
  O  O19  1  0.57381000  0.49388300  0.10702100  1
  O  O20  1  0.91658900  0.28051600  0.41533400  1
  O  O21  1  0.41658900  0.71948400  0.08466600  1
  O  O22  1  0.08341100  0.71948400  0.58466600  1
  O  O23  1  0.58341100  0.28051600  0.91533400  1
  O  O24  1  0.74815800  0.98921600  0.00514700  1
  O  O25  1  0.24815800  0.01078400  0.49485300  1
  O  O26  1  0.25184200  0.01078400  0.99485300  1
  O  O27  1  0.75184200  0.98921600  0.50514700  1
  O  O28  1  0.74077600  0.73146900  0.87543500  1
  O  O29  1  0.24077600  0.26853100  0.62456500  1
  O  O30  1  0.25922400  0.26853100  0.12456500  1
  O  O31  1  0.75922400  0.73146900  0.37543500  1
  O  O32  1  0.75913600  0.47883200  0.75673700  1
  O  O33  1  0.25913600  0.52116800  0.74326300  1
  O  O34  1  0.24086400  0.52116800  0.24326300  1
  O  O35  1  0.74086400  0.47883200  0.25673700  1
  O  O36  1  0.73962700  0.23426500  0.62875300  1
  O  O37  1  0.23962700  0.76573500  0.87124700  1
  O  O38  1  0.26037300  0.76573500  0.37124700  1
  O  O39  1  0.76037300  0.23426500  0.12875300  1
  O  O40  1  0.59121200  0.70067000  0.22807300  1
  O  O41  1  0.09121200  0.29933000  0.27192700  1
  O  O42  1  0.40878800  0.29933000  0.77192700  1
  O  O43  1  0.42619000  0.50611700  0.89297900  1
loop_
_geom_bond_atom_site_label_1
_geom_bond_atom_site_label_2
_geom_bond_distance
_geom_bond_site_symmetry_2
Ba0 O23 2.697421 1_554
Ba0 O19 2.755501 1_555
Ba0 O40 2.800384 1_545
Ba0 O39 2.814358 1_555
Ba0 O1 2.865748 1_555
Ba0 O5 2.878632 1_555
Ba0 O31 3.101406 1_545
Ba0 O13 3.164057 1_545
Ba0 O11 3.181439 1_545
Ba0 O3 3.211341 1_545
Ba0 O27 3.275837 1_545
Ba0 O15 3.393664 1_555
Ba1 O22 2.697421 1_555
Ba1 O18 2.755501 1_555
Ba1 O41 2.800384 1_565
Ba1 O38 2.814358 1_555
Ba1 O0 2.865748 1_455
Ba1 O4 2.878632 1_455
Ba1 O30 3.101406 1_565
Ba1 O12 3.164057 1_464
Ba1 O10 3.181439 1_564
Ba1 O2 3.211341 1_564
Ba1 O26 3.275837 1_564
Ba1 O14 3.393664 1_555
Ba2 O21 2.697421 1_556
Ba2 O43 2.755501 1_555
Ba2 O42 2.800384 1_565
Ba2 O37 2.814358 1_555
Ba2 O3 2.865748 1_555
Ba2 O7 2.878632 1_555
Ba2 O29 3.101406 1_565
Ba2 O15 3.164057 1_565
Ba2 O9 3.181439 1_565
Ba2 O1 3.211341 1_565
Ba2 O25 3.275837 1_565
Ba2 O13 3.393664 1_555
Ba3 O20 2.697421 1_555
Ba3 O17 2.755501 1_555
Ba3 O16 2.800384 1_545
Ba3 O36 2.814358 1_555
Ba3 O2 2.865748 1_655
Ba3 O6 2.878632 1_655
Ba3 O28 3.101406 1_545
Ba3 O14 3.164057 1_646
Ba3 O8 3.181439 1_546
Ba3 O0 3.211341 1_546
Ba3 O24 3.275837 1_546
Ba3 O12 3.393664 1_555
O0 Ti12 1.838893 1_555
O0 Ti1 1.914261 1_555
O1 Ti13 1.838893 1_555
O1 Ti0 1.914261 1_555
O2 Ti14 1.838893 1_555
O2 Ti3 1.914261 1_555
O3 Ti15 1.838893 1_555
O3 Ti2 1.914261 1_555
O4 Ti4 1.948599 1_555
O4 Ti12 2.041850 1_555
O4 Ti16 2.069094 1_565
O5 Ti5 1.948599 1_554
O5 Ti13 2.041850 1_555
O5 Ti17 2.069094 1_545
O6 Ti6 1.948599 1_555
O6 Ti14 2.041850 1_555
O6 Ti18 2.069094 1_545
O7 Ti7 1.948599 1_556
O7 Ti15 2.041850 1_555
O7 Ti19 2.069094 1_565
O8 Ti8 1.960697 1_554
O8 Ti1 2.000743 1_555
O8 Ti16 2.106699 1_555
O9 Ti9 1.960697 1_555
O9 Ti0 2.000743 1_555
O9 Ti17 2.106699 1_555
O10 Ti10 1.960697 1_556
O10 Ti3 2.000743 1_555
O10 Ti18 2.106699 1_555
O11 Ti11 1.960697 1_555
O11 Ti2 2.000743 1_555
O11 Ti19 2.106699 1_555
O12 Ti12 1.942287 1_546
O12 Ti8 2.034947 1_555
O12 Ti3 2.137875 1_655
O13 Ti13 1.942287 1_565
O13 Ti9 2.034947 1_555
O13 Ti2 2.137875 1_555
O14 Ti14 1.942287 1_564
O14 Ti10 2.034947 1_555
O14 Ti1 2.137875 1_455
O15 Ti15 1.942287 1_545
O15 Ti11 2.034947 1_555
O15 Ti0 2.137875 1_555
O16 Ti8 1.973902 1_555
O16 Ti4 2.018947 1_555
O16 Ti3 2.053199 1_655
O17 Ti4 1.800526 1_555
O17 Ti3 1.960543 1_655
O18 Ti6 1.800526 1_555
O18 Ti1 1.960543 1_455
O19 Ti7 1.800526 1_555
O19 Ti0 1.960543 1_555
O20 Ti16 1.848209 1_555
O20 Ti1 1.872878 1_555
O21 Ti17 1.848209 1_555
O21 Ti0 1.872878 1_555
O22 Ti18 1.848209 1_555
O22 Ti3 1.872878 1_555
O23 Ti19 1.848209 1_555
O23 Ti2 1.872878 1_555
O24 Ti19 1.919094 1_564
O24 Ti12 1.941774 1_555
O24 Ti7 2.280802 1_555
O25 Ti18 1.919094 1_545
O25 Ti13 1.941774 1_555
O25 Ti6 2.280802 1_555
O26 Ti17 1.919094 1_546
O26 Ti14 1.941774 1_555
O26 Ti5 2.280802 1_555
O27 Ti16 1.919094 1_565
O27 Ti15 1.941774 1_555
O27 Ti4 2.280802 1_555
O28 Ti8 1.952981 1_555
O28 Ti7 1.996057 1_556
O28 Ti15 2.086646 1_555
O29 Ti9 1.952981 1_555
O29 Ti6 1.996057 1_555
O29 Ti14 2.086646 1_555
O30 Ti10 1.952981 1_555
O30 Ti5 1.996057 1_554
O30 Ti13 2.086646 1_555
O31 Ti11 1.952981 1_555
O31 Ti4 1.996057 1_555
O31 Ti12 2.086646 1_555
O32 Ti19 1.938209 1_555
O32 Ti4 1.984034 1_555
O32 Ti8 2.025587 1_555
O33 Ti18 1.938209 1_555
O33 Ti5 1.984034 1_555
O33 Ti9 2.025587 1_555
O34 Ti17 1.938209 1_555
O34 Ti6 1.984034 1_555
O34 Ti10 2.025587 1_555
O35 Ti16 1.938209 1_555
O35 Ti7 1.984034 1_555
O35 Ti11 2.025587 1_555
O36 Ti11 1.897060 1_555
O36 Ti19 2.049144 1_555
O36 Ti15 2.133710 1_545
O37 Ti10 1.897060 1_556
O37 Ti18 2.049144 1_555
O37 Ti14 2.133710 1_565
O38 Ti9 1.897060 1_555
O38 Ti17 2.049144 1_555
O38 Ti13 2.133710 1_565
O39 Ti8 1.897060 1_554
O39 Ti16 2.049144 1_555
O39 Ti12 2.133710 1_545
O40 Ti11 1.973902 1_555
O40 Ti7 2.018947 1_555
O40 Ti0 2.053199 1_555
O41 Ti10 1.973902 1_555
O41 Ti6 2.018947 1_555
O41 Ti1 2.053199 1_455
O42 Ti9 1.973902 1_555
O42 Ti5 2.018947 1_555
O42 Ti2 2.053199 1_555
O43 Ti5 1.800526 1_555
O43 Ti2 1.960543 1_555
