# generated using pymatgen
data_MgCo4OF11
_symmetry_space_group_name_H-M   'P 1'
_cell_length_a   7.58127037
_cell_length_b   5.14129673
_cell_length_c   5.48942203
_cell_angle_alpha   88.75709103
_cell_angle_beta   85.89604720
_cell_angle_gamma   89.72332103
_symmetry_Int_Tables_number   1
_chemical_formula_structural   MgCo4OF11
_chemical_formula_sum   'Mg1 Co4 O1 F11'
_cell_volume   213.36427810
_cell_formula_units_Z   1
loop_
 _symmetry_equiv_pos_site_id
 _symmetry_equiv_pos_as_xyz
  1  'x, y, z'
loop_
 _atom_site_type_symbol
 _atom_site_label
 _atom_site_symmetry_multiplicity
 _atom_site_fract_x
 _atom_site_fract_y
 _atom_site_fract_z
 _atom_site_occupancy
  Mg  Mg0  1  0.80309000  0.49650800  0.11322200  1
  Co  Co0  1  0.01373400  0.47865700  0.51812300  1
  Co  Co1  1  0.02008600  0.99928300  0.97912200  1
  Co  Co2  1  0.48960000  0.49993500  0.50877300  1
  Co  Co3  1  0.49441700  0.00581800  0.99457800  1
  O  O0  1  0.05273300  0.22269200  0.69562900  1
  F  F0  1  0.03858100  0.31354700  0.17946700  1
  F  F1  1  0.25553600  0.86939100  0.00410000  1
  F  F2  1  0.43221800  0.31240700  0.81723300  1
  F  F3  1  0.24073900  0.62596700  0.50356600  1
  F  F4  1  0.45689100  0.17407700  0.29019400  1
  F  F5  1  0.55661700  0.82218500  0.71410400  1
  F  F6  1  0.75920600  0.39049800  0.47412100  1
  F  F7  1  0.57843400  0.68398500  0.18207400  1
  F  F8  1  0.75233200  0.14795400  0.99199400  1
  F  F9  1  0.91832500  0.68913000  0.82491000  1
  F  F10  1  0.94301900  0.76796300  0.29629000  1
loop_
_geom_bond_atom_site_label_1
_geom_bond_atom_site_label_2
_geom_bond_distance
_geom_bond_site_symmetry_2
Co0 O0 1.658483 1_555
Co0 F3 1.879377 1_555
Co0 F10 1.997458 1_455
Co0 F6 2.016736 1_455
Co0 F0 2.056417 1_555
Co0 F9 2.104144 1_455
Co1 F1 1.915877 1_556
Co1 O0 1.916360 1_565
Co1 F0 1.985217 1_566
Co1 F9 2.004602 1_455
Co1 F10 2.135033 1_456
Co1 F8 2.162551 1_465
Co2 F2 1.952884 1_555
Co2 F3 1.993830 1_555
Co2 F7 2.079632 1_555
Co2 F4 2.107542 1_555
Co2 F5 2.108233 1_555
Co2 F6 2.113859 1_555
Co3 F5 1.854466 1_545
Co3 F4 1.858784 1_556
Co3 F2 1.909625 1_555
Co3 F1 1.942070 1_546
Co3 F7 2.052477 1_546
Co3 F8 2.089710 1_555
F0 Mg0 2.065505 1_455
F6 Mg0 2.047724 1_555
F7 Mg0 1.969907 1_555
F8 Mg0 1.974162 1_556
F9 Mg0 1.997814 1_556
F10 Mg0 2.076246 1_555
