# generated using pymatgen
data_CaSe2O5
_symmetry_space_group_name_H-M   'P 1'
_cell_length_a   6.50150896
_cell_length_b   10.18739931
_cell_length_c   14.57374236
_cell_angle_alpha   90.00000000
_cell_angle_beta   90.00000000
_cell_angle_gamma   90.00000000
_symmetry_Int_Tables_number   1
_chemical_formula_structural   CaSe2O5
_chemical_formula_sum   'Ca8 Se16 O40'
_cell_volume   965.26949668
_cell_formula_units_Z   8
loop_
 _symmetry_equiv_pos_site_id
 _symmetry_equiv_pos_as_xyz
  1  'x, y, z'
loop_
 _atom_site_type_symbol
 _atom_site_label
 _atom_site_symmetry_multiplicity
 _atom_site_fract_x
 _atom_site_fract_y
 _atom_site_fract_z
 _atom_site_occupancy
  Ca  Ca0  1  0.55807356  0.35862172  0.59195757  1
  Ca  Ca1  1  0.05807356  0.64137828  0.90804243  1
  Ca  Ca2  1  0.94192644  0.85862172  0.40804243  1
  Ca  Ca3  1  0.44192644  0.14137828  0.09195757  1
  Ca  Ca4  1  0.44192644  0.64137828  0.40804243  1
  Ca  Ca5  1  0.94192644  0.35862172  0.09195757  1
  Ca  Ca6  1  0.05807356  0.14137828  0.59195757  1
  Ca  Ca7  1  0.55807356  0.85862172  0.90804243  1
  Se  Se0  1  0.89129705  0.13504403  0.26953111  1
  Se  Se1  1  0.39129705  0.86495597  0.23046889  1
  Se  Se2  1  0.60870295  0.63504403  0.73046889  1
  Se  Se3  1  0.10870295  0.36495597  0.76953111  1
  Se  Se4  1  0.10870295  0.86495597  0.73046889  1
  Se  Se5  1  0.60870295  0.13504403  0.76953111  1
  Se  Se6  1  0.39129705  0.36495597  0.26953111  1
  Se  Se7  1  0.89129705  0.63504403  0.23046889  1
  Se  Se8  1  0.85516844  0.37750450  0.41411784  1
  Se  Se9  1  0.35516844  0.62249550  0.08588216  1
  Se  Se10  1  0.64483156  0.87750450  0.58588216  1
  Se  Se11  1  0.14483156  0.12249550  0.91411784  1
  Se  Se12  1  0.14483156  0.62249550  0.58588216  1
  Se  Se13  1  0.64483156  0.37750450  0.91411784  1
  Se  Se14  1  0.35516844  0.12249550  0.41411784  1
  Se  Se15  1  0.85516844  0.87750450  0.08588216  1
  O  O0  1  0.75340055  0.19134486  0.17978527  1
  O  O1  1  0.25340055  0.80865514  0.32021473  1
  O  O2  1  0.74659945  0.69134486  0.82021473  1
  O  O3  1  0.24659945  0.30865514  0.67978527  1
  O  O4  1  0.24659945  0.80865514  0.82021473  1
  O  O5  1  0.74659945  0.19134486  0.67978527  1
  O  O6  1  0.25340055  0.30865514  0.17978527  1
  O  O7  1  0.75340055  0.69134486  0.32021473  1
  O  O8  1  0.78816562  0.98916331  0.29248537  1
  O  O9  1  0.28816562  0.01083669  0.20751463  1
  O  O10  1  0.71183438  0.48916331  0.70751463  1
  O  O11  1  0.21183438  0.51083669  0.79248537  1
  O  O12  1  0.21183438  0.01083669  0.70751463  1
  O  O13  1  0.71183438  0.98916331  0.79248537  1
  O  O14  1  0.28816562  0.51083669  0.29248537  1
  O  O15  1  0.90550908  0.32420608  0.52099202  1
  O  O16  1  0.78816562  0.48916331  0.20751463  1
  O  O17  1  0.25770689  0.77442841  0.13535824  1
  O  O18  1  0.74229311  0.72557159  0.63535824  1
  O  O19  1  0.24229311  0.27442841  0.86464176  1
  O  O20  1  0.24229311  0.77442841  0.63535824  1
  O  O21  1  0.74229311  0.22557159  0.86464176  1
  O  O22  1  0.25770689  0.27442841  0.36464176  1
  O  O23  1  0.75770689  0.72557159  0.13535824  1
  O  O24  1  0.62258564  0.94347969  0.06519572  1
  O  O25  1  0.12258564  0.05652031  0.43480428  1
  O  O26  1  0.87741436  0.44347969  0.93480428  1
  O  O27  1  0.37741436  0.55652031  0.56519572  1
  O  O28  1  0.37741436  0.05652031  0.93480428  1
  O  O29  1  0.87741436  0.94347969  0.56519572  1
  O  O30  1  0.12258564  0.55652031  0.06519572  1
  O  O31  1  0.62258564  0.44347969  0.43480428  1
  O  O32  1  0.90550908  0.82420608  0.97900798  1
  O  O33  1  0.40550908  0.17579392  0.52099202  1
  O  O34  1  0.59449092  0.32420608  0.02099202  1
  O  O35  1  0.09449092  0.67579392  0.47900798  1
  O  O36  1  0.09449092  0.17579392  0.02099202  1
  O  O37  1  0.59449092  0.82420608  0.47900798  1
  O  O38  1  0.40550908  0.67579392  0.97900798  1
  O  O39  1  0.75770689  0.22557159  0.36464176  1
loop_
_geom_bond_atom_site_label_1
_geom_bond_atom_site_label_2
_geom_bond_distance
_geom_bond_site_symmetry_2
Ca0 O33 2.350012 1_555
Ca0 O27 2.365639 1_555
Ca0 O10 2.367303 1_555
Ca0 O3 2.449141 1_555
Ca0 O5 2.458598 1_555
Ca0 O31 2.483702 1_555
Ca0 O15 2.508982 1_555
Ca1 O32 2.350012 1_455
Ca1 O26 2.365639 1_455
Ca1 O11 2.367303 1_555
Ca1 O2 2.449141 1_455
Ca1 O4 2.458598 1_555
Ca1 O30 2.483702 1_556
Ca1 O38 2.508982 1_555
Ca2 O35 2.350012 1_655
Ca2 O25 2.365639 1_665
Ca2 O8 2.367303 1_555
Ca2 O1 2.449141 1_655
Ca2 O7 2.458598 1_555
Ca2 O29 2.483702 1_555
Ca2 O37 2.508982 1_555
Ca3 O34 2.350012 1_555
Ca3 O24 2.365639 1_545
Ca3 O9 2.367303 1_555
Ca3 O0 2.449141 1_555
Ca3 O6 2.458598 1_555
Ca3 O28 2.483702 1_554
Ca3 O36 2.508982 1_555
Ca4 O37 2.350012 1_555
Ca4 O31 2.365639 1_555
Ca4 O14 2.367303 1_555
Ca4 O7 2.449141 1_555
Ca4 O1 2.458598 1_555
Ca4 O27 2.483702 1_555
Ca4 O35 2.508982 1_555
Ca5 O36 2.350012 1_655
Ca5 O30 2.365639 1_655
Ca5 O16 2.367303 1_555
Ca5 O6 2.449141 1_655
Ca5 O0 2.458598 1_555
Ca5 O26 2.483702 1_554
Ca5 O34 2.508982 1_555
Ca6 O15 2.350012 1_455
Ca6 O29 2.365639 1_445
Ca6 O12 2.367303 1_555
Ca6 O5 2.449141 1_455
Ca6 O3 2.458598 1_555
Ca6 O25 2.483702 1_555
Ca6 O33 2.508982 1_555
Ca7 O38 2.350012 1_555
Ca7 O28 2.365639 1_565
Ca7 O13 2.367303 1_555
Ca7 O4 2.449141 1_555
Ca7 O2 2.458598 1_555
Ca7 O24 2.483702 1_556
Ca7 O32 2.508982 1_555
O0 Se0 1.686248 1_555
O1 Se1 1.686248 1_555
O2 Se2 1.686248 1_555
O3 Se3 1.686248 1_555
O4 Se4 1.686248 1_555
O5 Se5 1.686248 1_555
O6 Se6 1.686248 1_555
O7 Se7 1.686248 1_555
O8 Se0 1.664368 1_565
O9 Se1 1.664368 1_545
O10 Se2 1.664368 1_555
O11 Se3 1.664368 1_555
O12 Se4 1.664368 1_545
O13 Se5 1.664368 1_565
O14 Se6 1.664368 1_555
O15 Se8 1.681642 1_555
O16 Se7 1.664368 1_555
O17 Se9 1.821294 1_555
O17 Se1 1.877820 1_555
O18 Se10 1.821294 1_555
O18 Se2 1.877820 1_555
O19 Se11 1.821294 1_555
O19 Se3 1.877820 1_555
O20 Se12 1.821294 1_555
O20 Se4 1.877820 1_555
O21 Se13 1.821294 1_555
O21 Se5 1.877820 1_555
O22 Se14 1.821294 1_555
O22 Se6 1.877820 1_555
O23 Se15 1.821294 1_555
O23 Se7 1.877820 1_555
O24 Se15 1.682021 1_555
O25 Se14 1.682021 1_555
O26 Se13 1.682021 1_555
O27 Se12 1.682021 1_555
O28 Se11 1.682021 1_555
O29 Se10 1.682021 1_555
O30 Se9 1.682021 1_555
O31 Se8 1.682021 1_555
O32 Se15 1.681642 1_556
O33 Se14 1.681642 1_555
O34 Se13 1.681642 1_554
O35 Se12 1.681642 1_555
O36 Se11 1.681642 1_554
O37 Se10 1.681642 1_555
O38 Se9 1.681642 1_556
O39 Se8 1.821294 1_555
O39 Se0 1.877820 1_555
