# generated using pymatgen
data_Yb5Si4
_symmetry_space_group_name_H-M   'P 1'
_cell_length_a   7.24563813
_cell_length_b   7.53337005
_cell_length_c   14.21709703
_cell_angle_alpha   90.00000000
_cell_angle_beta   90.00000000
_cell_angle_gamma   90.00000000
_symmetry_Int_Tables_number   1
_chemical_formula_structural   Yb5Si4
_chemical_formula_sum   'Yb20 Si16'
_cell_volume   776.02706640
_cell_formula_units_Z   4
loop_
 _symmetry_equiv_pos_site_id
 _symmetry_equiv_pos_as_xyz
  1  'x, y, z'
loop_
 _atom_site_type_symbol
 _atom_site_label
 _atom_site_symmetry_multiplicity
 _atom_site_fract_x
 _atom_site_fract_y
 _atom_site_fract_z
 _atom_site_occupancy
  Yb  Yb0  1  0.32172749  0.17948193  0.12383906  1
  Yb  Yb1  1  0.82172749  0.32051807  0.37616094  1
  Yb  Yb2  1  0.17827251  0.67948193  0.87616094  1
  Yb  Yb3  1  0.67827251  0.82051807  0.62383906  1
  Yb  Yb4  1  0.32172749  0.17948193  0.37616094  1
  Yb  Yb5  1  0.82172749  0.32051807  0.12383906  1
  Yb  Yb6  1  0.17827251  0.67948193  0.62383906  1
  Yb  Yb7  1  0.67827251  0.82051807  0.87616094  1
  Yb  Yb8  1  0.97751809  0.81941902  0.40243712  1
  Yb  Yb9  1  0.47751809  0.68058098  0.09756288  1
  Yb  Yb10  1  0.52248191  0.31941902  0.59756288  1
  Yb  Yb11  1  0.02248191  0.18058098  0.90243712  1
  Yb  Yb12  1  0.02248191  0.18058098  0.59756288  1
  Yb  Yb13  1  0.52248191  0.31941902  0.90243712  1
  Yb  Yb14  1  0.47751809  0.68058098  0.40243712  1
  Yb  Yb15  1  0.97751809  0.81941902  0.09756288  1
  Yb  Yb16  1  0.34698580  0.01103505  0.75000000  1
  Yb  Yb17  1  0.84698580  0.48896495  0.75000000  1
  Yb  Yb18  1  0.15301420  0.51103505  0.25000000  1
  Yb  Yb19  1  0.65301420  0.98896495  0.25000000  1
  Si  Si0  1  0.84792457  0.52940426  0.53917601  1
  Si  Si1  1  0.34792457  0.97059574  0.96082399  1
  Si  Si2  1  0.65207543  0.02940426  0.46082399  1
  Si  Si3  1  0.15207543  0.47059574  0.03917601  1
  Si  Si4  1  0.15207543  0.47059574  0.46082399  1
  Si  Si5  1  0.65207543  0.02940426  0.03917601  1
  Si  Si6  1  0.34792457  0.97059574  0.53917601  1
  Si  Si7  1  0.84792457  0.52940426  0.96082399  1
  Si  Si8  1  0.97582748  0.89532854  0.75000000  1
  Si  Si9  1  0.47582748  0.60467146  0.75000000  1
  Si  Si10  1  0.52417252  0.39532854  0.25000000  1
  Si  Si11  1  0.02417252  0.10467146  0.25000000  1
  Si  Si12  1  0.22627627  0.36954879  0.75000000  1
  Si  Si13  1  0.72627627  0.13045121  0.75000000  1
  Si  Si14  1  0.27372373  0.86954879  0.25000000  1
  Si  Si15  1  0.77372373  0.63045121  0.25000000  1
loop_
_geom_bond_atom_site_label_1
_geom_bond_atom_site_label_2
_geom_bond_distance
_geom_bond_site_symmetry_2
Si0 Si4 2.508729 1_655
Si0 Yb3 2.787360 1_555
Si0 Yb1 2.807770 1_555
Si0 Yb6 2.907967 1_655
Si0 Yb10 2.958344 1_555
Si0 Yb17 3.012755 1_555
Si0 Yb12 3.032182 1_655
Si0 Yb8 3.071523 1_555
Si0 Yb14 3.504173 1_555
Si1 Si5 2.508729 1_566
Si1 Yb2 2.787360 1_555
Si1 Yb0 2.807770 1_566
Si1 Yb7 2.907967 1_555
Si1 Yb11 2.958344 1_565
Si1 Yb16 3.012755 1_565
Si1 Yb13 3.032182 1_565
Si1 Yb9 3.071523 1_556
Si1 Yb15 3.504173 1_456
Si2 Si6 2.508729 1_545
Si2 Yb1 2.787360 1_555
Si2 Yb3 2.807770 1_545
Si2 Yb4 2.907967 1_555
Si2 Yb8 2.958344 1_545
Si2 Yb19 3.012755 1_545
Si2 Yb14 3.032182 1_545
Si2 Yb10 3.071523 1_555
Si2 Yb12 3.504173 1_655
Si3 Si7 2.508729 1_454
Si3 Yb0 2.787360 1_555
Si3 Yb2 2.807770 1_554
Si3 Yb5 2.907967 1_455
Si3 Yb9 2.958344 1_555
Si3 Yb18 3.012755 1_555
Si3 Yb15 3.032182 1_455
Si3 Yb11 3.071523 1_554
Si3 Yb13 3.504173 1_554
Si4 Yb4 2.787360 1_555
Si4 Yb6 2.807770 1_555
Si4 Yb1 2.907967 1_455
Si4 Yb14 2.958344 1_555
Si4 Yb18 3.012755 1_555
Si4 Yb8 3.032182 1_455
Si4 Yb12 3.071523 1_555
Si4 Yb10 3.504173 1_555
Si5 Yb5 2.787360 1_555
Si5 Yb7 2.807770 1_544
Si5 Yb0 2.907967 1_555
Si5 Yb15 2.958344 1_545
Si5 Yb19 3.012755 1_545
Si5 Yb9 3.032182 1_545
Si5 Yb13 3.071523 1_554
Si5 Yb11 3.504173 1_654
Si6 Yb6 2.787360 1_555
Si6 Yb4 2.807770 1_565
Si6 Yb3 2.907967 1_555
Si6 Yb12 2.958344 1_565
Si6 Yb16 3.012755 1_565
Si6 Yb10 3.032182 1_565
Si6 Yb14 3.071523 1_555
Si6 Yb8 3.504173 1_455
Si7 Yb7 2.787360 1_555
Si7 Yb5 2.807770 1_556
Si7 Yb2 2.907967 1_655
Si7 Yb13 2.958344 1_555
Si7 Yb17 3.012755 1_555
Si7 Yb11 3.032182 1_655
Si7 Yb15 3.071523 1_556
Si7 Yb9 3.504173 1_556
Si8 Yb16 2.827015 1_665
Si8 Yb2 2.830694 1_655
Si8 Yb6 2.830694 1_655
Si8 Yb7 2.860594 1_555
Si8 Yb3 2.860594 1_555
Si8 Yb11 3.070653 1_665
Si8 Yb12 3.070653 1_665
Si8 Yb17 3.200465 1_555
Si9 Yb17 2.827015 1_555
Si9 Yb7 2.830694 1_555
Si9 Yb3 2.830694 1_555
Si9 Yb2 2.860594 1_555
Si9 Yb6 2.860594 1_555
Si9 Yb13 3.070653 1_555
Si9 Yb10 3.070653 1_555
Si9 Yb16 3.200465 1_565
Si10 Si15 2.531169 1_555
Si10 Yb18 2.827015 1_555
Si10 Yb4 2.830694 1_555
Si10 Yb0 2.830694 1_555
Si10 Yb1 2.860594 1_555
Si10 Yb5 2.860594 1_555
Si10 Yb14 3.070653 1_555
Si10 Yb9 3.070653 1_555
Si10 Yb19 3.200465 1_545
Si11 Si14 2.531169 1_545
Si11 Yb19 2.827015 1_445
Si11 Yb1 2.830694 1_455
Si11 Yb5 2.830694 1_455
Si11 Yb4 2.860594 1_555
Si11 Yb0 2.860594 1_555
Si11 Yb8 3.070653 1_445
Si11 Yb15 3.070653 1_445
Si11 Yb18 3.200465 1_555
Si12 Si9 2.531169 1_555
Si12 Yb16 2.838902 1_555
Si12 Yb17 2.891695 1_455
Si12 Yb2 2.964728 1_555
Si12 Yb6 2.964728 1_555
Si12 Yb11 2.983916 1_555
Si12 Yb12 2.983916 1_555
Si12 Yb13 3.073370 1_555
Si12 Yb10 3.073370 1_555
Si13 Si8 2.531169 1_545
Si13 Yb17 2.838902 1_555
Si13 Yb16 2.891695 1_555
Si13 Yb7 2.964728 1_545
Si13 Yb3 2.964728 1_545
Si13 Yb13 2.983916 1_555
Si13 Yb10 2.983916 1_555
Si13 Yb11 3.073370 1_655
Si13 Yb12 3.073370 1_655
Si14 Yb18 2.838902 1_555
Si14 Yb19 2.891695 1_555
Si14 Yb4 2.964728 1_565
Si14 Yb0 2.964728 1_565
Si14 Yb14 2.983916 1_555
Si14 Yb9 2.983916 1_555
Si14 Yb8 3.073370 1_455
Si14 Yb15 3.073370 1_455
Si15 Yb19 2.838902 1_555
Si15 Yb18 2.891695 1_655
Si15 Yb1 2.964728 1_555
Si15 Yb5 2.964728 1_555
Si15 Yb8 2.983916 1_555
Si15 Yb15 2.983916 1_555
Si15 Yb14 3.073370 1_555
Si15 Yb9 3.073370 1_555
