# generated using pymatgen
data_FeCl3
_symmetry_space_group_name_H-M   'P 1'
_cell_length_a   11.72852441
_cell_length_b   3.69557777
_cell_length_c   10.18180771
_cell_angle_alpha   110.37262448
_cell_angle_beta   143.15225249
_cell_angle_gamma   63.67845643
_symmetry_Int_Tables_number   1
_chemical_formula_structural   FeCl3
_chemical_formula_sum   'Fe2 Cl6'
_cell_volume   237.19585462
_cell_formula_units_Z   2
loop_
 _symmetry_equiv_pos_site_id
 _symmetry_equiv_pos_as_xyz
  1  'x, y, z'
loop_
 _atom_site_type_symbol
 _atom_site_label
 _atom_site_symmetry_multiplicity
 _atom_site_fract_x
 _atom_site_fract_y
 _atom_site_fract_z
 _atom_site_occupancy
  Fe  Fe0  1  0.46555502  0.80919506  0.33462168  1
  Fe  Fe1  1  0.82605198  0.13927626  0.16813432  1
  Cl  Cl0  1  0.18506379  0.87329639  0.99381105  1
  Cl  Cl1  1  0.03624456  0.16818813  0.51290111  1
  Cl  Cl2  1  0.65261531  0.13471505  0.42791701  1
  Cl  Cl3  1  0.43711958  0.03933213  0.53333139  1
  Cl  Cl4  1  0.88053492  0.47024632  0.07183140  1
  Cl  Cl5  1  0.52556584  0.39378466  0.98414004  1
loop_
_geom_bond_atom_site_label_1
_geom_bond_atom_site_label_2
_geom_bond_distance
_geom_bond_site_symmetry_2
Cl0 Fe0 2.128574 1_556
Cl1 Fe1 2.129235 1_455
Cl2 Fe0 2.317835 1_545
Cl2 Fe0 2.322106 1_555
Cl3 Fe0 2.135023 1_545
Cl4 Fe1 2.323053 1_565
Cl4 Fe1 2.323093 1_555
Cl5 Fe1 2.129576 1_556
