# generated using pymatgen
data_K2Mg(CoO2)2
_symmetry_space_group_name_H-M   'P 1'
_cell_length_a   3.89038800
_cell_length_b   3.89038800
_cell_length_c   7.88584200
_cell_angle_alpha   90.00000000
_cell_angle_beta   90.00000000
_cell_angle_gamma   90.00000000
_symmetry_Int_Tables_number   1
_chemical_formula_structural   K2Mg(CoO2)2
_chemical_formula_sum   'K2 Mg1 Co2 O4'
_cell_volume   119.35315543
_cell_formula_units_Z   1
loop_
 _symmetry_equiv_pos_site_id
 _symmetry_equiv_pos_as_xyz
  1  'x, y, z'
loop_
 _atom_site_type_symbol
 _atom_site_label
 _atom_site_symmetry_multiplicity
 _atom_site_fract_x
 _atom_site_fract_y
 _atom_site_fract_z
 _atom_site_occupancy
  K  K0  1  0.75000100  0.75000100  0.25474700  1
  K  K1  1  0.24999900  0.24999900  0.74525400  1
  Mg  Mg0  1  0.25000000  0.75000000  0.50000000  1
  Co  Co0  1  0.75000100  0.75000100  0.89661900  1
  Co  Co1  1  0.24999900  0.24999900  0.10338000  1
  O  O0  1  0.24999900  0.75000100  0.00000000  1
  O  O1  1  0.75000100  0.24999900  0.00000000  1
  O  O2  1  0.75000100  0.75000100  0.63033600  1
  O  O3  1  0.24999900  0.24999900  0.36966400  1
loop_
_geom_bond_atom_site_label_1
_geom_bond_atom_site_label_2
_geom_bond_distance
_geom_bond_site_symmetry_2
K0 Mg0 2.743032 1_655
K0 Mg0 2.743037 1_555
K0 O0 2.796320 1_655
K0 O1 2.796320 1_565
K0 O1 2.796331 1_555
K0 O0 2.796331 1_555
K0 O3 2.896330 1_665
K0 O3 2.896341 1_655
K0 O3 2.896341 1_565
K0 O3 2.896351 1_555
K0 O2 2.961836 1_555
K1 Mg0 2.743037 1_545
K1 Mg0 2.743043 1_555
K1 O1 2.796315 1_456
K1 O0 2.796315 1_546
K1 O1 2.796325 1_556
K1 O0 2.796325 1_556
K1 O2 2.896333 1_445
K1 O2 2.896343 1_545
K1 O2 2.896343 1_455
K1 O2 2.896354 1_555
K1 O3 2.961843 1_555
Mg0 O3 2.200035 1_565
Mg0 O2 2.200035 1_455
Mg0 O2 2.200042 1_555
Mg0 O3 2.200042 1_555
Co0 O2 2.099866 1_555
Co0 O1 2.109117 1_566
Co0 O0 2.109117 1_656
Co0 O0 2.109132 1_556
Co0 O1 2.109132 1_556
Co0 K0 2.824141 1_556
Co0 K1 2.998712 1_665
Co0 K1 2.998723 1_565
Co0 K1 2.998723 1_655
Co0 K1 2.998733 1_555
Co1 O3 2.099874 1_555
Co1 O0 2.109114 1_545
Co1 O1 2.109114 1_455
Co1 O1 2.109129 1_555
Co1 O0 2.109129 1_555
Co1 K1 2.824125 1_554
Co1 K0 2.998719 1_445
Co1 K0 2.998729 1_545
Co1 K0 2.998729 1_455
Co1 K0 2.998739 1_555
