# generated using pymatgen
data_Na3Ta2Al2SiP5O24
_symmetry_space_group_name_H-M   'P 1'
_cell_length_a   8.65325712
_cell_length_b   8.61780139
_cell_length_c   22.21886866
_cell_angle_alpha   90.04729187
_cell_angle_beta   89.94009682
_cell_angle_gamma   119.81338796
_symmetry_Int_Tables_number   1
_chemical_formula_structural   Na3Ta2Al2SiP5O24
_chemical_formula_sum   'Na9 Ta6 Al6 Si3 P15 O72'
_cell_volume   1437.61299496
_cell_formula_units_Z   3
loop_
 _symmetry_equiv_pos_site_id
 _symmetry_equiv_pos_as_xyz
  1  'x, y, z'
loop_
 _atom_site_type_symbol
 _atom_site_label
 _atom_site_symmetry_multiplicity
 _atom_site_fract_x
 _atom_site_fract_y
 _atom_site_fract_z
 _atom_site_occupancy
  Na  Na0  1  0.36215060  0.99389227  0.75208883  1
  Na  Na1  1  0.67003456  0.97226728  0.58712238  1
  Na  Na2  1  0.67416669  0.69974830  0.08406811  1
  Na  Na3  1  0.01510864  0.00119629  0.50532295  1
  Na  Na4  1  0.01142620  0.00672826  0.00519827  1
  Na  Na5  1  0.67626458  0.34219659  0.83996239  1
  Na  Na6  1  0.66539487  0.33220241  0.33913537  1
  Na  Na7  1  0.32210363  0.66578496  0.17357991  1
  Na  Na8  1  0.32661628  0.65102990  0.67246166  1
  Ta  Ta0  1  0.00051574  0.00018242  0.35586349  1
  Ta  Ta1  1  0.99486389  -0.00001215  0.85638313  1
  Ta  Ta2  1  0.66816245  0.33224771  0.68831998  1
  Ta  Ta3  1  0.67173781  0.33480829  0.18982544  1
  Ta  Ta4  1  0.32696249  0.66625858  0.02180083  1
  Ta  Ta5  1  0.32965726  0.66692875  0.52114513  1
  Al  Al0  1  0.00329808  0.99959061  0.64700657  1
  Al  Al1  1  0.00734186  0.00204046  0.14691427  1
  Al  Al2  1  0.66854823  0.33753525  0.98021946  1
  Al  Al3  1  0.65958080  0.33013101  0.47920974  1
  Al  Al4  1  0.33282123  0.66648539  0.31332914  1
  Al  Al5  1  0.33794244  0.66506042  0.81340173  1
  Si  Si0  1  0.70788985  0.98628460  0.74660709  1
  Si  Si1  1  0.36811786  0.05405243  0.58095098  1
  Si  Si2  1  0.95120395  0.62673646  0.08152189  1
  P  P0  1  0.28202551  0.98901041  0.24868124  1
  P  P1  1  0.70564704  0.71847769  0.24842264  1
  P  P2  1  0.01146578  0.29054496  0.24822566  1
  P  P3  1  0.27945822  0.29269259  0.74895584  1
  P  P4  1  0.00448356  0.71449789  0.74957797  1
  P  P5  1  0.95114747  0.32892817  0.58068136  1
  P  P6  1  0.67572072  0.62167149  0.58006116  1
  P  P7  1  0.67666994  0.05489130  0.08124777  1
  P  P8  1  0.37476325  0.32021622  0.08172158  1
  P  P9  1  0.61425549  0.65439220  0.91569348  1
  P  P10  1  0.04243879  0.38698696  0.91399686  1
  P  P11  1  0.34503424  0.96289300  0.91427730  1
  P  P12  1  0.61484544  0.95875115  0.41443197  1
  P  P13  1  0.34484123  0.38655424  0.41377553  1
  P  P14  1  0.03887599  0.65325984  0.41404557  1
  O  O0  1  0.19750991  0.02445970  0.30584813  1
  O  O1  1  0.82813124  0.80333363  0.30452029  1
  O  O2  1  0.97577202  0.17268379  0.30568369  1
  O  O3  1  0.20443925  0.16810972  0.80555996  1
  O  O4  1  0.97349799  0.80021671  0.80689171  1
  O  O5  1  0.83575534  0.02850505  0.80653339  1
  O  O6  1  0.80103627  0.96755477  0.68681952  1
  O  O7  1  0.16942531  0.20318573  0.69343712  1
  O  O8  1  0.03998514  0.83467602  0.69495661  1
  O  O9  1  0.79227168  0.82618943  0.19149873  1
  O  O10  1  0.03111668  0.19852641  0.19304893  1
  O  O11  1  0.16924722  0.96665404  0.19368081  1
  O  O12  1  0.87112506  0.36736742  0.63866596  1
  O  O13  1  0.49800395  0.13012419  0.64239300  1
  O  O14  1  0.63963261  0.50696957  0.63811380  1
  O  O15  1  0.86305525  0.49886203  0.14181247  1
  O  O16  1  0.63372650  0.12997750  0.13890317  1
  O  O17  1  0.49735163  0.36404451  0.13838895  1
  O  O18  1  0.46105759  0.29512224  0.02562832  1
  O  O19  1  0.82211816  0.53315198  0.02508366  1
  O  O20  1  0.69662473  0.16524510  0.02581414  1
  O  O21  1  0.47246098  0.17061108  0.52391018  1
  O  O22  1  0.70038531  0.53309709  0.52502093  1
  O  O23  1  0.83387760  0.30052976  0.52629100  1
  O  O24  1  0.53931550  0.69257237  0.97443602  1
  O  O25  1  0.16097198  0.46931984  0.97165422  1
  O  O26  1  0.30999302  0.83950904  0.97077099  1
  O  O27  1  0.53722279  0.84328415  0.47321018  1
  O  O28  1  0.30669095  0.46631233  0.47146863  1
  O  O29  1  0.15923102  0.69267357  0.47157337  1
  O  O30  1  0.13193659  0.63316380  0.35936332  1
  O  O31  1  0.49974298  0.86432216  0.36041845  1
  O  O32  1  0.36321989  0.49839675  0.35886265  1
  O  O33  1  0.13535427  0.50013555  0.85945606  1
  O  O34  1  0.36437808  0.87350286  0.85763394  1
  O  O35  1  0.50211406  0.63696553  0.86107038  1
  O  O36  1  0.02391651  0.82785958  0.40935796  1
  O  O37  1  0.80349726  0.97321454  0.40899713  1
  O  O38  1  0.17197797  0.19598364  0.40889445  1
  O  O39  1  0.03034696  0.19858222  0.91052044  1
  O  O40  1  0.17222399  0.97746425  0.91087135  1
  O  O41  1  0.80500072  0.82690394  0.91045519  1
  O  O42  1  0.96824869  0.16275696  0.58967129  1
  O  O43  1  0.17351465  0.02375511  0.59217568  1
  O  O44  1  0.83180293  0.81125389  0.58815612  1
  O  O45  1  0.97123458  0.82096646  0.09235966  1
  O  O46  1  0.83654306  0.02785090  0.09083450  1
  O  O47  1  0.18909734  0.16539530  0.09188167  1
  O  O48  1  0.68779606  0.17017140  0.74433797  1
  O  O49  1  0.46995069  0.31024691  0.74303977  1
  O  O50  1  0.83261227  0.53012893  0.74445720  1
  O  O51  1  0.68813879  0.52734389  0.24428446  1
  O  O52  1  0.83576946  0.30344688  0.24438170  1
  O  O53  1  0.46976885  0.16146717  0.24367121  1
  O  O54  1  0.63562356  0.48984966  0.92255864  1
  O  O55  1  0.85659022  0.36066807  0.92329704  1
  O  O56  1  0.50836608  0.14569555  0.92444865  1
  O  O57  1  0.64205036  0.14609153  0.42291838  1
  O  O58  1  0.50737336  0.36409881  0.42190374  1
  O  O59  1  0.85507969  0.49292800  0.42445487  1
  O  O60  1  0.36627998  0.49938844  0.07568293  1
  O  O61  1  0.14951261  0.64380463  0.07766206  1
  O  O62  1  0.50923085  0.86001209  0.07538769  1
  O  O63  1  0.36026319  0.85499618  0.57591047  1
  O  O64  1  0.50340680  0.64113540  0.57497538  1
  O  O65  1  0.13969196  0.49707782  0.57632265  1
  O  O66  1  0.30416253  0.82575658  0.25844280  1
  O  O67  1  0.52099938  0.69557699  0.25819319  1
  O  O68  1  0.17152397  0.47667241  0.25742025  1
  O  O69  1  0.30077746  0.47623664  0.75909490  1
  O  O70  1  0.16749872  0.69193219  0.75878985  1
  O  O71  1  0.50740127  0.82345298  0.75719735  1
loop_
_geom_bond_atom_site_label_1
_geom_bond_atom_site_label_2
_geom_bond_distance
_geom_bond_site_symmetry_2
Na0 O70 2.296220 1_555
Na0 O71 2.363547 1_555
Na0 O49 2.411417 1_565
Na0 O48 2.453729 1_565
Na0 O34 2.569089 1_555
Na0 O13 2.706878 1_565
Na0 O8 2.732544 1_555
Na0 O3 2.749385 1_565
Na1 O42 2.268269 1_565
Na1 O63 2.361343 1_555
Na1 O44 2.411832 1_555
Na1 O64 2.490631 1_555
Na1 O6 2.498955 1_555
Na1 O13 2.753511 1_565
Na1 O27 2.773714 1_555
Na1 O23 2.802465 1_565
Na2 O45 2.250268 1_555
Na2 O60 2.353811 1_555
Na2 O62 2.437776 1_555
Na2 O46 2.457848 1_565
Na2 O9 2.612085 1_555
Na2 O24 2.689431 1_554
Na2 O19 2.690529 1_555
Na2 O17 2.787078 1_555
Na3 O43 2.319620 1_555
Na3 O44 2.449450 1_445
Na3 O42 2.484097 1_455
Na3 O36 2.625114 1_545
Na3 O38 2.642911 1_555
Na3 O37 2.749568 1_445
Na4 O47 2.419581 1_555
Na4 O45 2.425762 1_445
Na4 O46 2.492184 1_455
Na4 O40 2.595024 1_544
Na4 O39 2.630880 1_554
Na4 O41 2.696959 1_444
Na5 O54 2.355948 1_555
Na5 O55 2.376383 1_555
Na5 O56 2.460779 1_555
Na5 O50 2.603312 1_555
Na5 O48 2.619801 1_555
Na5 O49 2.723775 1_555
Na6 O58 2.386417 1_555
Na6 O57 2.400124 1_555
Na6 O59 2.438827 1_555
Na6 O51 2.642758 1_555
Na6 O52 2.650142 1_555
Na6 O53 2.656176 1_555
Na7 O66 2.384930 1_555
Na7 O68 2.390062 1_555
Na7 O67 2.475705 1_555
Na7 O61 2.555971 1_555
Na7 O60 2.733479 1_555
Na7 O62 2.736267 1_555
Na8 O69 2.386049 1_555
Na8 O71 2.426937 1_555
Na8 O70 2.484991 1_555
Na8 O65 2.609239 1_555
Na8 O64 2.676151 1_555
Na8 O63 2.696774 1_555
Al0 O43 1.840858 1_565
Al0 O6 1.854376 1_455
Al0 O7 1.923887 1_565
Al0 O8 1.925487 1_555
Al0 O42 2.029757 1_465
Al0 O44 2.037615 1_455
Al1 O45 1.874782 1_445
Al1 O11 1.887842 1_545
Al1 O10 1.900380 1_555
Al1 O47 1.935921 1_555
Al1 O9 1.983848 1_445
Al1 O46 2.029197 1_455
Al2 O19 1.836820 1_556
Al2 O20 1.910897 1_556
Al2 O18 1.928607 1_556
Al2 O54 1.954711 1_555
Al2 O56 1.977773 1_555
Al2 O55 1.990126 1_555
Al3 O21 1.812068 1_555
Al3 O22 1.898384 1_555
Al3 O23 1.954603 1_555
Al3 O58 1.956818 1_555
Al3 O57 1.964860 1_555
Al3 O59 1.987150 1_555
Al4 O32 1.890214 1_555
Al4 O31 1.907689 1_555
Al4 O30 1.910696 1_555
Al4 O66 1.942810 1_555
Al4 O67 1.950785 1_555
Al4 O68 1.974091 1_555
Al5 O35 1.882590 1_555
Al5 O71 1.892525 1_555
Al5 O33 1.913495 1_555
Al5 O69 1.919513 1_555
Al5 O34 1.958038 1_555
Al5 O70 2.011253 1_555
O0 P0 1.568796 1_545
O0 Ta0 1.956099 1_555
O1 P1 1.562775 1_555
O1 Ta0 1.971918 1_665
O2 P2 1.564054 1_655
O2 Ta0 1.954123 1_655
O3 P3 1.569506 1_555
O3 Ta1 2.012186 1_455
O4 P4 1.560105 1_655
O4 Ta1 1.971818 1_565
O5 Si0 1.652717 1_545
O5 Ta1 1.876930 1_555
O6 Si0 1.602240 1_555
O7 P3 1.514541 1_555
O8 P4 1.524731 1_555
O9 P1 1.526852 1_555
O10 P2 1.514197 1_555
O11 P0 1.515931 1_555
O12 P5 1.573085 1_555
O12 Ta2 1.965012 1_555
O13 Si1 1.681004 1_555
O13 Ta2 1.921810 1_555
O14 P6 1.559705 1_555
O14 Ta2 1.986330 1_555
O15 Si2 1.659876 1_555
O15 Ta3 1.883890 1_555
O16 P7 1.560317 1_555
O16 Ta3 1.981006 1_555
O17 P8 1.567429 1_555
O17 Ta3 2.007199 1_555
O18 P8 1.521803 1_555
O19 Si2 1.605033 1_555
O20 P7 1.513093 1_555
O21 Si1 1.590081 1_555
O22 P6 1.511183 1_555
O23 P5 1.518299 1_555
O24 P9 1.562687 1_555
O24 Ta4 2.029171 1_556
O25 P10 1.572975 1_555
O25 Ta4 1.939386 1_556
O26 P11 1.574469 1_555
O26 Ta4 1.938409 1_556
O27 P12 1.575639 1_555
O27 Ta5 1.988599 1_555
O28 P13 1.564579 1_555
O28 Ta5 1.975458 1_555
O29 P14 1.576115 1_555
O29 Ta5 1.940715 1_555
O30 P14 1.513577 1_555
O31 P12 1.513105 1_555
O32 P13 1.513948 1_555
O33 P10 1.512000 1_555
O34 P11 1.526951 1_555
O35 P9 1.514741 1_555
O36 P14 1.576575 1_555
O36 Ta0 1.990359 1_565
O37 P12 1.578705 1_555
O37 Ta0 1.989106 1_665
O38 P13 1.582319 1_555
O38 Ta0 1.986939 1_555
O39 P10 1.576067 1_555
O39 Ta1 1.986221 1_455
O40 P11 1.563522 1_555
O40 Ta1 2.039440 1_465
O41 P9 1.583667 1_555
O41 Ta1 1.982318 1_565
O42 P5 1.524388 1_555
O43 Si1 1.590001 1_555
O44 P6 1.526969 1_555
O45 Si2 1.612665 1_555
O46 P7 1.528002 1_555
O47 P8 1.510158 1_555
O48 Si0 1.678745 1_545
O48 Ta2 1.941183 1_555
O49 P3 1.583964 1_555
O49 Ta2 2.031906 1_555
O50 P4 1.549092 1_655
O50 Ta2 2.018921 1_555
O51 P1 1.579924 1_555
O51 Ta3 2.000058 1_555
O52 P2 1.580975 1_655
O52 Ta3 1.985631 1_555
O53 P0 1.568291 1_545
O53 Ta3 2.029743 1_555
O54 P9 1.526202 1_555
O55 P10 1.522209 1_655
O56 P11 1.522007 1_545
O57 P12 1.522871 1_545
O58 P13 1.522937 1_555
O59 P14 1.518797 1_655
O60 P8 1.587644 1_555
O60 Ta4 2.026630 1_555
O61 Si2 1.649979 1_455
O61 Ta4 1.907023 1_555
O62 P7 1.586565 1_565
O62 Ta4 2.018717 1_555
O63 Si1 1.686302 1_565
O63 Ta5 1.936018 1_555
O64 P6 1.585337 1_555
O64 Ta5 2.019149 1_555
O65 P5 1.555675 1_455
O65 Ta5 1.988447 1_555
O66 P0 1.526971 1_555
O67 P1 1.524745 1_555
O68 P2 1.524427 1_555
O69 P3 1.515272 1_555
O70 P4 1.530678 1_555
O71 Si0 1.616556 1_555
