# generated using pymatgen
data_Na9Ta4Zn8P9(SO8)9
_symmetry_space_group_name_H-M   'P 1'
_cell_length_a   8.81819892
_cell_length_b   8.79972037
_cell_length_c   22.57647359
_cell_angle_alpha   90.38104584
_cell_angle_beta   89.86513927
_cell_angle_gamma   119.99342144
_symmetry_Int_Tables_number   1
_chemical_formula_structural   Na9Ta4Zn8P9(SO8)9
_chemical_formula_sum   'Na9 Ta4 Zn8 P9 S9 O72'
_cell_volume   1517.24044089
_cell_formula_units_Z   1
loop_
 _symmetry_equiv_pos_site_id
 _symmetry_equiv_pos_as_xyz
  1  'x, y, z'
loop_
 _atom_site_type_symbol
 _atom_site_label
 _atom_site_symmetry_multiplicity
 _atom_site_fract_x
 _atom_site_fract_y
 _atom_site_fract_z
 _atom_site_occupancy
  Na  Na0  1  0.65968842  0.96331555  0.58291246  1
  Na  Na1  1  0.29741142  0.95779033  0.08253722  1
  Na  Na2  1  0.03537078  0.34015020  0.08252264  1
  Na  Na3  1  0.01768012  0.00136827  0.49505987  1
  Na  Na4  1  0.98238146  0.98350151  0.99393404  1
  Na  Na5  1  0.66498447  0.33386548  0.82815050  1
  Na  Na6  1  0.66843306  0.33554611  0.32754430  1
  Na  Na7  1  0.34707518  0.67513733  0.16144097  1
  Na  Na8  1  0.31973711  0.66162104  0.66047899  1
  Ta  Ta0  1  0.67617245  0.33751377  0.97730569  1
  Ta  Ta1  1  0.65809358  0.32904144  0.47711779  1
  Ta  Ta2  1  0.33100747  0.66659471  0.31743777  1
  Ta  Ta3  1  0.33585071  0.66882409  0.81722361  1
  Zn  Zn0  1  0.00049942  0.99879550  0.35442654  1
  Zn  Zn1  1  0.99944108  0.99790270  0.85407950  1
  Zn  Zn2  1  0.02370341  0.00226385  0.64880776  1
  Zn  Zn3  1  0.97507752  0.97919227  0.14804985  1
  Zn  Zn4  1  0.65996923  0.32831824  0.68246171  1
  Zn  Zn5  1  0.67359251  0.33349271  0.18173512  1
  Zn  Zn6  1  0.33983906  0.67558490  0.01306483  1
  Zn  Zn7  1  0.32646997  0.67047023  0.51343183  1
  P  P0  1  0.37232084  0.03843248  0.58475168  1
  P  P1  1  0.96011019  0.62749053  0.08496590  1
  P  P2  1  0.66420090  0.03958069  0.08459456  1
  P  P3  1  0.62686870  0.66844946  0.91885760  1
  P  P4  1  0.04581004  0.37259606  0.91935776  1
  P  P5  1  0.33012218  0.96163561  0.91955917  1
  P  P6  1  0.62962969  0.95696995  0.41984568  1
  P  P7  1  0.32826154  0.37541462  0.41939898  1
  P  P8  1  0.03909583  0.66838797  0.41911597  1
  S  S0  1  0.29578509  0.00190128  0.25005244  1
  S  S1  1  0.70288736  0.70243475  0.25160600  1
  S  S2  1  0.00051374  0.29349908  0.25040524  1
  S  S3  1  0.29420128  0.29466663  0.75111152  1
  S  S4  1  0.99812252  0.70272884  0.75069048  1
  S  S5  1  0.70747681  0.00080102  0.74964830  1
  S  S6  1  0.95821718  0.33611451  0.58411996  1
  S  S7  1  0.66665572  0.62445404  0.58446882  1
  S  S8  1  0.37897705  0.33647441  0.08423170  1
  O  O0  1  0.20844113  0.02034471  0.30214502  1
  O  O1  1  0.80854230  0.78631944  0.30407683  1
  O  O2  1  0.98220619  0.18763348  0.30208211  1
  O  O3  1  0.21212188  0.19042053  0.80374378  1
  O  O4  1  0.97594625  0.78503009  0.80376981  1
  O  O5  1  0.81286819  0.01935890  0.80167149  1
  O  O6  1  0.77418584  0.96696758  0.69392089  1
  O  O7  1  0.18925862  0.22638292  0.69672432  1
  O  O8  1  0.03497066  0.80756050  0.69658969  1
  O  O9  1  0.76903202  0.80660983  0.19717356  1
  O  O10  1  0.03364926  0.22636005  0.19442640  1
  O  O11  1  0.19540369  0.96745020  0.19437344  1
  O  O12  1  0.87943376  0.36117064  0.63779517  1
  O  O13  1  0.48976246  0.12246767  0.63843086  1
  O  O14  1  0.64847298  0.52335565  0.63738237  1
  O  O15  1  0.87661657  0.51402894  0.13866580  1
  O  O16  1  0.62809270  0.12006633  0.13884296  1
  O  O17  1  0.48058723  0.35965499  0.13765892  1
  O  O18  1  0.46989113  0.31370618  0.03007178  1
  O  O19  1  0.83985911  0.52799007  0.02823276  1
  O  O20  1  0.68639445  0.16411853  0.02848944  1
  O  O21  1  0.47713394  0.16152524  0.52834140  1
  O  O22  1  0.68591346  0.53115851  0.52986102  1
  O  O23  1  0.84214332  0.31585254  0.53018333  1
  O  O24  1  0.54538327  0.69255605  0.97369900  1
  O  O25  1  0.14261544  0.45013232  0.97676583  1
  O  O26  1  0.30408621  0.86121874  0.97631033  1
  O  O27  1  0.55414528  0.85877172  0.47681055  1
  O  O28  1  0.30813739  0.45886258  0.47450550  1
  O  O29  1  0.14579639  0.69629404  0.47365658  1
  O  O30  1  0.13235275  0.63569152  0.36299009  1
  O  O31  1  0.50141811  0.86278744  0.36507403  1
  O  O32  1  0.36080659  0.49748522  0.36317824  1
  O  O33  1  0.14053410  0.49863945  0.86473155  1
  O  O34  1  0.36202682  0.86449495  0.86464347  1
  O  O35  1  0.50351752  0.63820405  0.86262874  1
  O  O36  1  0.01111374  0.82102261  0.40765560  1
  O  O37  1  0.81036712  0.98766881  0.40813943  1
  O  O38  1  0.17895925  0.19236291  0.40844854  1
  O  O39  1  0.01439058  0.19067255  0.90837700  1
  O  O40  1  0.17708466  0.98777238  0.90788973  1
  O  O41  1  0.80791424  0.82076696  0.90796641  1
  O  O42  1  0.95789502  0.16659189  0.58494207  1
  O  O43  1  0.19588727  0.03253402  0.58458006  1
  O  O44  1  0.82621594  0.80156294  0.58517461  1
  O  O45  1  0.98053593  0.81196665  0.08525265  1
  O  O46  1  0.84122163  0.04345036  0.08516775  1
  O  O47  1  0.20503082  0.17143902  0.08529332  1
  O  O48  1  0.67960020  0.15266518  0.74627717  1
  O  O49  1  0.47414198  0.32480819  0.74580675  1
  O  O50  1  0.84738317  0.52335147  0.74465369  1
  O  O51  1  0.67398033  0.52309776  0.24572977  1
  O  O52  1  0.84978661  0.32245479  0.24717669  1
  O  O53  1  0.47468237  0.15346708  0.24630727  1
  O  O54  1  0.63310180  0.49167196  0.92292291  1
  O  O55  1  0.86151957  0.36679614  0.92196469  1
  O  O56  1  0.50666650  0.14342427  0.92317472  1
  O  O57  1  0.63594191  0.14147615  0.42343693  1
  O  O58  1  0.50617419  0.36792459  0.42357451  1
  O  O59  1  0.85666825  0.49233450  0.42411717  1
  O  O60  1  0.35237793  0.48803775  0.07806902  1
  O  O61  1  0.14143196  0.64229336  0.07800276  1
  O  O62  1  0.50274999  0.85828075  0.07705433  1
  O  O63  1  0.36053001  0.85894925  0.57739978  1
  O  O64  1  0.51004653  0.64302407  0.57849611  1
  O  O65  1  0.13376330  0.48702836  0.57731414  1
  O  O66  1  0.31355563  0.83536447  0.25859864  1
  O  O67  1  0.52062865  0.68652429  0.25979081  1
  O  O68  1  0.16664481  0.47723661  0.25854059  1
  O  O69  1  0.31151038  0.47818405  0.75920484  1
  O  O70  1  0.16402284  0.68533890  0.75918955  1
  O  O71  1  0.52299378  0.83486016  0.75815720  1
loop_
_geom_bond_atom_site_label_1
_geom_bond_atom_site_label_2
_geom_bond_distance
_geom_bond_site_symmetry_2
Na0 O63 2.322915 1_555
Na0 O42 2.326675 1_565
Na0 O64 2.444065 1_555
Na0 O44 2.505219 1_555
Na0 O27 2.564303 1_555
Na0 O6 2.698107 1_555
Na0 O13 2.800660 1_565
Na0 O23 2.946089 1_565
Na1 O62 2.375614 1_555
Na1 O47 2.394060 1_565
Na1 O61 2.406055 1_555
Na1 O45 2.423562 1_455
Na1 O26 2.549386 1_554
Na1 O11 2.693367 1_555
Na1 O16 2.826358 1_565
Na1 O18 2.967106 1_565
Na2 O46 2.298669 1_455
Na2 O61 2.339062 1_555
Na2 O60 2.425152 1_555
Na2 O25 2.576189 1_554
Na2 O47 2.582371 1_555
Na2 O10 2.720993 1_555
Na2 O15 2.831073 1_455
Na2 O20 2.929885 1_455
Na3 O43 2.491195 1_555
Na3 O36 2.506539 1_545
Na3 O38 2.512310 1_555
Na3 O37 2.645908 1_445
Na3 O44 2.672920 1_445
Na3 O42 2.689172 1_455
Na4 O41 2.441083 1_555
Na4 O45 2.558479 1_556
Na4 O40 2.577524 1_655
Na4 O39 2.581464 1_665
Na4 O46 2.588489 1_566
Na4 O47 2.751614 1_666
Na5 O48 2.478073 1_555
Na5 O49 2.484575 1_555
Na5 O50 2.503386 1_555
Na5 O54 2.633133 1_555
Na5 O56 2.656012 1_555
Na5 O55 2.660913 1_555
Na6 O52 2.455730 1_555
Na6 O53 2.467532 1_555
Na6 O51 2.469280 1_555
Na6 O59 2.664534 1_555
Na6 O58 2.685807 1_555
Na6 O57 2.691182 1_555
Na7 O62 2.434747 1_555
Na7 O60 2.508203 1_555
Na7 O61 2.530865 1_555
Na7 O67 2.672473 1_555
Na7 O66 2.694285 1_555
Na7 O68 2.762957 1_555
Na8 O65 2.456053 1_555
Na8 O63 2.465410 1_555
Na8 O64 2.554367 1_555
Na8 O70 2.676066 1_555
Na8 O69 2.740221 1_555
Na8 O71 2.764347 1_555
O0 S0 1.456325 1_555
O0 Zn0 2.106333 1_545
O1 S1 1.456771 1_555
O1 Zn0 2.114191 1_655
O2 S2 1.455427 1_655
O2 Zn0 2.116341 1_645
O3 S3 1.457375 1_555
O3 Zn1 2.125496 1_445
O4 S4 1.458673 1_555
O4 Zn1 2.103982 1_555
O5 S5 1.456256 1_555
O5 Zn1 2.113077 1_545
O6 S5 1.477906 1_565
O6 Zn2 2.299020 1_665
O7 S3 1.471288 1_555
O7 Zn2 2.071599 1_555
O8 S4 1.470316 1_455
O8 Zn2 2.074698 1_565
O9 S1 1.472334 1_555
O9 Zn3 2.022811 1_555
O10 S2 1.480729 1_555
O10 Zn3 2.223234 1_445
O11 S0 1.479008 1_565
O11 Zn3 2.256307 1_455
O12 S6 1.464699 1_555
O12 Zn4 2.069085 1_555
O13 P0 1.521952 1_555
O13 Zn4 1.946019 1_555
O14 S7 1.454254 1_555
O14 Zn4 2.046785 1_555
O15 P1 1.511849 1_555
O15 Zn5 1.960421 1_555
O16 P2 1.521539 1_555
O16 Zn5 1.962185 1_555
O17 S8 1.455490 1_555
O17 Zn5 2.083897 1_555
O18 S8 1.526654 1_555
O18 Ta0 2.093799 1_554
O19 P1 1.610843 1_555
O19 Ta0 1.943740 1_554
O20 P2 1.626830 1_555
O20 Ta0 1.957812 1_554
O21 P0 1.631356 1_555
O21 Ta1 1.928444 1_555
O22 S7 1.532221 1_555
O22 Ta1 2.044108 1_555
O23 S6 1.543624 1_555
O23 Ta1 2.069340 1_555
O24 P3 1.496326 1_555
O24 Zn6 1.954732 1_556
O25 P4 1.511677 1_555
O25 Zn6 2.041473 1_556
O26 P5 1.511936 1_555
O26 Zn6 1.997629 1_556
O27 P6 1.509773 1_555
O27 Zn7 2.035768 1_555
O28 P7 1.495200 1_555
O28 Zn7 1.985892 1_555
O29 P8 1.494060 1_555
O29 Zn7 1.941076 1_555
O30 P8 1.609803 1_555
O30 Ta2 1.928538 1_555
O31 P6 1.596966 1_555
O31 Ta2 1.945364 1_555
O32 P7 1.598586 1_555
O32 Ta2 1.939743 1_555
O33 P4 1.592462 1_555
O33 Ta3 1.947672 1_555
O34 P5 1.603644 1_555
O34 Ta3 1.934799 1_555
O35 P3 1.605636 1_555
O35 Ta3 1.928351 1_555
O36 P8 1.506035 1_555
O36 Zn0 2.017926 1_555
O37 P6 1.500487 1_555
O37 Zn0 2.029544 1_655
O38 P7 1.505023 1_555
O38 Zn0 2.041266 1_545
O39 P4 1.500871 1_555
O39 Zn1 2.036445 1_445
O40 P5 1.502098 1_555
O40 Zn1 2.021811 1_455
O41 P3 1.506285 1_555
O41 Zn1 2.036093 1_555
O42 S6 1.490573 1_555
O42 Zn2 2.318926 1_655
O43 P0 1.530553 1_555
O43 Zn2 2.017265 1_555
O44 S7 1.488719 1_555
O44 Zn2 2.262467 1_665
O45 P1 1.541182 1_555
O45 Zn3 2.054379 1_555
O46 P2 1.544346 1_555
O46 Zn3 2.101025 1_545
O47 S8 1.495189 1_555
O47 Zn3 2.360037 1_445
O48 S5 1.477148 1_555
O48 Zn4 2.189329 1_555
O49 S3 1.476897 1_555
O49 Zn4 2.161094 1_555
O50 S4 1.475560 1_555
O50 Zn4 2.188893 1_555
O51 S1 1.472483 1_555
O51 Zn5 2.198507 1_555
O52 S2 1.475181 1_655
O52 Zn5 2.184008 1_555
O53 S0 1.473745 1_555
O53 Zn5 2.225306 1_555
O54 P3 1.587048 1_555
O54 Ta0 2.007827 1_555
O55 P4 1.601161 1_655
O55 Ta0 1.967832 1_555
O56 P5 1.580588 1_545
O56 Ta0 2.018218 1_555
O57 P6 1.598022 1_545
O57 Ta1 1.970610 1_555
O58 P7 1.605847 1_555
O58 Ta1 1.960715 1_555
O59 P8 1.584442 1_655
O59 Ta1 2.014977 1_555
O60 S8 1.472603 1_555
O60 Zn6 2.259445 1_555
O61 P1 1.545676 1_455
O61 Zn6 2.185737 1_555
O62 P2 1.525713 1_565
O62 Zn6 2.098856 1_555
O63 P0 1.537947 1_565
O63 Zn7 2.097333 1_555
O64 S7 1.476101 1_555
O64 Zn7 2.289854 1_555
O65 S6 1.459369 1_455
O65 Zn7 2.202357 1_555
O66 S0 1.562981 1_565
O66 Ta2 2.061453 1_555
O67 S1 1.552672 1_555
O67 Ta2 2.054299 1_555
O68 S2 1.556668 1_555
O68 Ta2 2.051905 1_555
O69 S3 1.553820 1_555
O69 Ta3 2.046501 1_555
O70 S4 1.557553 1_455
O70 Ta3 2.065347 1_555
O71 S5 1.562978 1_565
O71 Ta3 2.059426 1_555
