# generated using pymatgen
data_Ca4Nb2(SO4)9
_symmetry_space_group_name_H-M   'P 1'
_cell_length_a   9.19718106
_cell_length_b   9.19718074
_cell_length_c   23.49101609
_cell_angle_alpha   90.00000000
_cell_angle_beta   90.00000000
_cell_angle_gamma   120.00000116
_symmetry_Int_Tables_number   1
_chemical_formula_structural   Ca4Nb2(SO4)9
_chemical_formula_sum   'Ca8 Nb4 S18 O72'
_cell_volume   1720.84552333
_cell_formula_units_Z   2
loop_
 _symmetry_equiv_pos_site_id
 _symmetry_equiv_pos_as_xyz
  1  'x, y, z'
loop_
 _atom_site_type_symbol
 _atom_site_label
 _atom_site_symmetry_multiplicity
 _atom_site_fract_x
 _atom_site_fract_y
 _atom_site_fract_z
 _atom_site_occupancy
  Ca  Ca0  1  -0.00000000  0.00000000  0.35697468  1
  Ca  Ca1  1  -0.00000000  0.00000000  0.85697468  1
  Ca  Ca2  1  -0.00000000  0.00000000  0.64333316  1
  Ca  Ca3  1  -0.00000000  0.00000000  0.14333316  1
  Ca  Ca4  1  0.66666700  0.33333300  0.69289980  1
  Ca  Ca5  1  0.66666700  0.33333300  0.19289980  1
  Ca  Ca6  1  0.33333300  0.66666700  0.02373033  1
  Ca  Ca7  1  0.33333300  0.66666700  0.52373033  1
  Nb  Nb0  1  0.66666700  0.33333300  0.97993108  1
  Nb  Nb1  1  0.66666700  0.33333300  0.47993108  1
  Nb  Nb2  1  0.33333300  0.66666700  0.31477934  1
  Nb  Nb3  1  0.33333300  0.66666700  0.81477934  1
  S  S0  1  0.29051766  0.98692456  0.25357788  1
  S  S1  1  0.69640690  0.70948234  0.25357788  1
  S  S2  1  0.01307544  0.30359310  0.25357788  1
  S  S3  1  0.29051766  0.30359310  0.75357788  1
  S  S4  1  0.01307544  0.70948234  0.75357788  1
  S  S5  1  0.69640690  0.98692456  0.75357788  1
  S  S6  1  0.94541975  0.32753049  0.58104417  1
  S  S7  1  0.38211174  0.05458025  0.58104417  1
  S  S8  1  0.67246951  0.61788826  0.58104417  1
  S  S9  1  0.94541975  0.61788826  0.08104417  1
  S  S10  1  0.67246951  0.05458025  0.08104417  1
  S  S11  1  0.38211174  0.32753049  0.08104417  1
  S  S12  1  0.61427335  0.65108903  0.91731813  1
  S  S13  1  0.03681468  0.38572665  0.91731813  1
  S  S14  1  0.34891097  0.96318532  0.91731813  1
  S  S15  1  0.61427335  0.96318532  0.41731813  1
  S  S16  1  0.34891097  0.38572665  0.41731813  1
  S  S17  1  0.03681468  0.65108903  0.41731813  1
  O  O0  1  0.21297414  0.01325067  0.30328151  1
  O  O1  1  0.80027652  0.78702586  0.30328151  1
  O  O2  1  0.98674933  0.19972348  0.30328151  1
  O  O3  1  0.21297414  0.19972348  0.80328151  1
  O  O4  1  0.98674933  0.78702586  0.80328151  1
  O  O5  1  0.80027652  0.01325067  0.80328151  1
  O  O6  1  0.75657471  0.94420553  0.70203514  1
  O  O7  1  0.18763082  0.24342529  0.70203514  1
  O  O8  1  0.05579447  0.81236918  0.70203514  1
  O  O9  1  0.75657471  0.81236918  0.20203514  1
  O  O10  1  0.05579447  0.24342529  0.20203514  1
  O  O11  1  0.18763082  0.94420553  0.20203514  1
  O  O12  1  0.86565151  0.35001790  0.63115299  1
  O  O13  1  0.48436739  0.13434849  0.63115299  1
  O  O14  1  0.64998210  0.51563261  0.63115299  1
  O  O15  1  0.86565151  0.51563261  0.13115299  1
  O  O16  1  0.64998210  0.13434849  0.13115299  1
  O  O17  1  0.48436739  0.35001790  0.13115299  1
  O  O18  1  0.48223442  0.31318860  0.02723091  1
  O  O19  1  0.83095517  0.51776558  0.02723091  1
  O  O20  1  0.68681140  0.16904483  0.02723091  1
  O  O21  1  0.48223442  0.16904483  0.52723091  1
  O  O22  1  0.68681140  0.51776558  0.52723091  1
  O  O23  1  0.83095517  0.31318860  0.52723091  1
  O  O24  1  0.54260326  0.68070480  0.96775488  1
  O  O25  1  0.13810054  0.45739674  0.96775488  1
  O  O26  1  0.31929520  0.86189946  0.96775488  1
  O  O27  1  0.54260326  0.86189946  0.46775488  1
  O  O28  1  0.31929520  0.45739674  0.46775488  1
  O  O29  1  0.13810054  0.68070480  0.46775488  1
  O  O30  1  0.12401070  0.62078149  0.36676557  1
  O  O31  1  0.49676979  0.87598930  0.36676557  1
  O  O32  1  0.37921851  0.50323021  0.36676557  1
  O  O33  1  0.12401070  0.50323021  0.86676557  1
  O  O34  1  0.37921851  0.87598930  0.86676557  1
  O  O35  1  0.49676979  0.62078149  0.86676557  1
  O  O36  1  0.00583699  0.78705798  0.40493412  1
  O  O37  1  0.78122099  0.99416301  0.40493412  1
  O  O38  1  0.21294202  0.21877901  0.40493412  1
  O  O39  1  0.00583699  0.21877901  0.90493412  1
  O  O40  1  0.21294202  0.99416301  0.90493412  1
  O  O41  1  0.78122099  0.78705798  0.90493412  1
  O  O42  1  0.94823924  0.17028008  0.58101492  1
  O  O43  1  0.22204083  0.05176076  0.58101492  1
  O  O44  1  0.82971992  0.77795917  0.58101492  1
  O  O45  1  0.94823924  0.77795917  0.08101492  1
  O  O46  1  0.82971992  0.05176076  0.08101492  1
  O  O47  1  0.22204083  0.17028008  0.08101492  1
  O  O48  1  0.65714985  0.12077091  0.74608979  1
  O  O49  1  0.46362206  0.34285015  0.74608979  1
  O  O50  1  0.87922909  0.53637794  0.74608979  1
  O  O51  1  0.65714985  0.53637794  0.24608979  1
  O  O52  1  0.87922909  0.34285015  0.24608979  1
  O  O53  1  0.46362206  0.12077091  0.24608979  1
  O  O54  1  0.62269346  0.48982761  0.92467299  1
  O  O55  1  0.86713514  0.37730654  0.92467299  1
  O  O56  1  0.51017239  0.13286486  0.92467299  1
  O  O57  1  0.62269346  0.13286486  0.42467299  1
  O  O58  1  0.51017239  0.37730654  0.42467299  1
  O  O59  1  0.86713514  0.48982761  0.42467299  1
  O  O60  1  0.36709981  0.47465796  0.07087948  1
  O  O61  1  0.10755715  0.63290019  0.07087948  1
  O  O62  1  0.52534204  0.89244285  0.07087948  1
  O  O63  1  0.36709981  0.89244285  0.57087948  1
  O  O64  1  0.52534204  0.63290019  0.57087948  1
  O  O65  1  0.10755715  0.47465796  0.57087948  1
  O  O66  1  0.30427234  0.82486483  0.26836472  1
  O  O67  1  0.52059149  0.69572766  0.26836472  1
  O  O68  1  0.17513517  0.47940851  0.26836472  1
  O  O69  1  0.30427234  0.47940851  0.76836472  1
  O  O70  1  0.17513517  0.69572766  0.76836472  1
  O  O71  1  0.52059149  0.82486483  0.76836472  1
loop_
_geom_bond_atom_site_label_1
_geom_bond_atom_site_label_2
_geom_bond_distance
_geom_bond_site_symmetry_2
Ca0 O1 2.281180 1_445
Ca0 O0 2.281180 1_555
Ca0 O2 2.281180 1_455
Ca0 O38 2.283172 1_555
Ca0 O36 2.283172 1_545
Ca0 O37 2.283172 1_445
Ca1 O4 2.281180 1_445
Ca1 O3 2.281180 1_555
Ca1 O5 2.281180 1_455
Ca1 O39 2.283172 1_555
Ca1 O41 2.283172 1_445
Ca1 O40 2.283172 1_545
Ca2 O44 2.359637 1_445
Ca2 O43 2.359637 1_555
Ca2 O42 2.359637 1_455
Ca2 O7 2.455273 1_555
Ca2 O8 2.455273 1_545
Ca2 O6 2.455273 1_445
Ca3 O45 2.359637 1_445
Ca3 O47 2.359637 1_555
Ca3 O46 2.359637 1_455
Ca3 O10 2.455273 1_555
Ca3 O9 2.455273 1_445
Ca3 O11 2.455273 1_545
Ca4 O13 2.279452 1_555
Ca4 O14 2.279452 1_555
Ca4 O12 2.279452 1_555
Ca4 O48 2.284661 1_555
Ca4 O50 2.284661 1_555
Ca4 O49 2.284661 1_555
Ca5 O16 2.279452 1_555
Ca5 O15 2.279452 1_555
Ca5 O17 2.279452 1_555
Ca5 O53 2.284661 1_555
Ca5 O51 2.284661 1_555
Ca5 O52 2.284661 1_555
Ca6 O62 2.233868 1_555
Ca6 O60 2.233868 1_555
Ca6 O61 2.233868 1_555
Ca6 O25 2.280712 1_554
Ca6 O26 2.280712 1_554
Ca6 O24 2.280712 1_554
Ca7 O63 2.233868 1_555
Ca7 O65 2.233868 1_555
Ca7 O64 2.233868 1_555
Ca7 O28 2.280712 1_555
Ca7 O27 2.280712 1_555
Ca7 O29 2.280712 1_555
Nb0 O20 1.957535 1_556
Nb0 O19 1.957535 1_556
Nb0 O18 1.957535 1_556
Nb0 O56 2.121854 1_555
Nb0 O55 2.121854 1_555
Nb0 O54 2.121854 1_555
Nb1 O23 1.957535 1_555
Nb1 O21 1.957535 1_555
Nb1 O22 1.957535 1_555
Nb1 O57 2.121853 1_555
Nb1 O59 2.121854 1_555
Nb1 O58 2.121854 1_555
Nb2 O68 1.940639 1_555
Nb2 O66 1.940639 1_555
Nb2 O67 1.940639 1_555
Nb2 O31 2.136186 1_555
Nb2 O32 2.136186 1_555
Nb2 O30 2.136187 1_555
Nb3 O69 1.940639 1_555
Nb3 O71 1.940639 1_555
Nb3 O70 1.940639 1_555
Nb3 O34 2.136186 1_555
Nb3 O33 2.136186 1_555
Nb3 O35 2.136187 1_555
O0 S0 1.450240 1_545
O1 S1 1.450240 1_555
O2 S2 1.450240 1_655
O3 S3 1.450240 1_555
O4 S4 1.450240 1_655
O5 S5 1.450240 1_545
O6 S5 1.464248 1_555
O7 S3 1.464248 1_555
O8 S4 1.464248 1_555
O9 S1 1.464248 1_555
O10 S2 1.464248 1_555
O11 S0 1.464248 1_555
O12 S6 1.455445 1_555
O13 S7 1.455445 1_555
O14 S8 1.455445 1_555
O15 S9 1.455445 1_555
O16 S10 1.455445 1_555
O17 S11 1.455445 1_555
O18 S11 1.607744 1_555
O19 S9 1.607744 1_555
O20 S10 1.607744 1_555
O21 S7 1.607744 1_555
O22 S8 1.607744 1_555
O23 S6 1.607744 1_555
O24 S12 1.446377 1_555
O25 S13 1.446377 1_555
O26 S14 1.446377 1_555
O27 S15 1.446377 1_555
O28 S16 1.446377 1_555
O29 S17 1.446377 1_555
O30 S17 1.534472 1_555
O31 S15 1.534472 1_555
O32 S16 1.534472 1_555
O33 S13 1.534472 1_555
O34 S14 1.534472 1_555
O35 S12 1.534472 1_555
O36 S17 1.444270 1_555
O37 S15 1.444279 1_555
O38 S16 1.444276 1_555
O39 S13 1.444279 1_555
O40 S14 1.444270 1_555
O41 S12 1.444276 1_555
O42 S6 1.459399 1_555
O43 S7 1.459408 1_555
O44 S8 1.459404 1_555
O45 S9 1.459408 1_555
O46 S10 1.459399 1_555
O47 S11 1.459404 1_555
O48 S5 1.456416 1_545
O49 S3 1.456425 1_555
O50 S4 1.456422 1_655
O51 S1 1.456424 1_555
O52 S2 1.456416 1_655
O53 S0 1.456422 1_545
O54 S12 1.533114 1_555
O55 S13 1.533096 1_655
O56 S14 1.533105 1_545
O57 S15 1.533096 1_545
O58 S16 1.533115 1_555
O59 S17 1.533105 1_655
O60 S11 1.447046 1_555
O61 S9 1.447028 1_455
O62 S10 1.447035 1_565
O63 S7 1.447028 1_565
O64 S8 1.447046 1_555
O65 S6 1.447035 1_455
O66 S0 1.595864 1_555
O67 S1 1.595873 1_555
O68 S2 1.595869 1_555
O69 S3 1.595873 1_555
O70 S4 1.595864 1_555
O71 S5 1.595869 1_555
