# generated using pymatgen
data_AlP2I9
_symmetry_space_group_name_H-M   'P 1'
_cell_length_a   11.48292000
_cell_length_b   18.82112600
_cell_length_c   21.60612100
_cell_angle_alpha   90.00000000
_cell_angle_beta   90.00000000
_cell_angle_gamma   90.00000000
_symmetry_Int_Tables_number   1
_chemical_formula_structural   AlP2I9
_chemical_formula_sum   'Al8 P16 I72'
_cell_volume   4669.54693763
_cell_formula_units_Z   8
loop_
 _symmetry_equiv_pos_site_id
 _symmetry_equiv_pos_as_xyz
  1  'x, y, z'
loop_
 _atom_site_type_symbol
 _atom_site_label
 _atom_site_symmetry_multiplicity
 _atom_site_fract_x
 _atom_site_fract_y
 _atom_site_fract_z
 _atom_site_occupancy
  Al  Al0  1  0.86992200  0.22108300  0.37988100  1
  Al  Al1  1  0.36992200  0.27891700  0.62011900  1
  Al  Al2  1  0.13007800  0.72108300  0.12011900  1
  Al  Al3  1  0.63007800  0.77891700  0.87988100  1
  Al  Al4  1  0.13007800  0.77891700  0.62011900  1
  Al  Al5  1  0.63007800  0.72108300  0.37988100  1
  Al  Al6  1  0.86992200  0.27891700  0.87988100  1
  Al  Al7  1  0.36992200  0.22108300  0.12011900  1
  P  P0  1  0.80507200  0.99518900  0.13324800  1
  P  P1  1  0.30507200  0.50481100  0.86675200  1
  P  P2  1  0.19492800  0.49518900  0.36675200  1
  P  P3  1  0.69492800  0.00481100  0.63324800  1
  P  P4  1  0.19492800  0.00481100  0.86675200  1
  P  P5  1  0.69492800  0.49518900  0.13324800  1
  P  P6  1  0.80507200  0.50481100  0.63324800  1
  P  P7  1  0.30507200  0.99518900  0.36675200  1
  P  P8  1  0.66981200  0.92417200  0.08709400  1
  P  P9  1  0.16981200  0.57582800  0.91290600  1
  P  P10  1  0.33018800  0.42417200  0.41290600  1
  P  P11  1  0.83018800  0.07582800  0.58709400  1
  P  P12  1  0.33018800  0.07582800  0.91290600  1
  P  P13  1  0.83018800  0.42417200  0.08709400  1
  P  P14  1  0.66981200  0.57582800  0.58709400  1
  P  P15  1  0.16981200  0.92417200  0.41290600  1
  I  I0  1  0.97489800  0.22483500  0.48388200  1
  I  I1  1  0.72577600  0.38617900  0.88117000  1
  I  I2  1  0.77422400  0.61382100  0.38117000  1
  I  I3  1  0.27422400  0.88617900  0.61883000  1
  I  I4  1  0.77422400  0.88617900  0.88117000  1
  I  I5  1  0.27422400  0.61382100  0.11883000  1
  I  I6  1  0.22577600  0.38617900  0.61883000  1
  I  I7  1  0.72577600  0.11382100  0.38117000  1
  I  I8  1  0.00028800  0.00262500  0.39895600  1
  I  I9  1  0.50028800  0.49737500  0.60104400  1
  I  I10  1  0.99971200  0.50262500  0.10104400  1
  I  I11  1  0.49971200  0.99737500  0.89895600  1
  I  I12  1  0.99971200  0.99737500  0.60104400  1
  I  I13  1  0.49971200  0.50262500  0.39895600  1
  I  I14  1  0.00028800  0.49737500  0.89895600  1
  I  I15  1  0.50028800  0.00262500  0.10104400  1
  I  I16  1  0.15024100  0.83715300  0.32902400  1
  I  I17  1  0.65024100  0.66284700  0.67097600  1
  I  I18  1  0.84975900  0.33715300  0.17097600  1
  I  I19  1  0.34975900  0.16284700  0.82902400  1
  I  I20  1  0.84975900  0.16284700  0.67097600  1
  I  I21  1  0.34975900  0.33715300  0.32902400  1
  I  I22  1  0.15024100  0.66284700  0.82902400  1
  I  I23  1  0.65024100  0.83715300  0.17097600  1
  I  I24  1  0.22577600  0.11382100  0.11883000  1
  I  I25  1  0.98908400  0.57296300  0.63268200  1
  I  I26  1  0.51091600  0.42703700  0.13268200  1
  I  I27  1  0.01091600  0.07296300  0.86731800  1
  I  I28  1  0.51091600  0.07296300  0.63268200  1
  I  I29  1  0.01091600  0.42703700  0.36731800  1
  I  I30  1  0.48908400  0.57296300  0.86731800  1
  I  I31  1  0.98908400  0.92703700  0.13268200  1
  I  I32  1  0.26283100  0.04154500  0.26265300  1
  I  I33  1  0.76283100  0.45845500  0.73734700  1
  I  I34  1  0.73716900  0.54154500  0.23734700  1
  I  I35  1  0.23716900  0.95845500  0.76265300  1
  I  I36  1  0.73716900  0.95845500  0.73734700  1
  I  I37  1  0.23716900  0.54154500  0.26265300  1
  I  I38  1  0.26283100  0.45845500  0.76265300  1
  I  I39  1  0.76283100  0.04154500  0.23734700  1
  I  I40  1  0.32700600  0.09481300  0.43782800  1
  I  I41  1  0.82700600  0.40518700  0.56217200  1
  I  I42  1  0.67299400  0.59481300  0.06217200  1
  I  I43  1  0.17299400  0.90518700  0.93782800  1
  I  I44  1  0.67299400  0.90518700  0.56217200  1
  I  I45  1  0.17299400  0.59481300  0.43782800  1
  I  I46  1  0.32700600  0.40518700  0.93782800  1
  I  I47  1  0.82700600  0.09481300  0.06217200  1
  I  I48  1  0.48908400  0.92703700  0.36731800  1
  I  I49  1  0.47489800  0.27516500  0.51611800  1
  I  I50  1  0.02510200  0.72483500  0.01611800  1
  I  I51  1  0.52510200  0.77516500  0.98388200  1
  I  I52  1  0.02510200  0.77516500  0.51611800  1
  I  I53  1  0.52510200  0.72483500  0.48388200  1
  I  I54  1  0.97489800  0.27516500  0.98388200  1
  I  I55  1  0.47489800  0.22483500  0.01611800  1
  I  I56  1  0.00220700  0.20947900  0.28621900  1
  I  I57  1  0.50220700  0.29052100  0.71378100  1
  I  I58  1  0.99779300  0.70947900  0.21378100  1
  I  I59  1  0.49779300  0.79052100  0.78621900  1
  I  I60  1  0.99779300  0.79052100  0.71378100  1
  I  I61  1  0.49779300  0.70947900  0.28621900  1
  I  I62  1  0.00220700  0.29052100  0.78621900  1
  I  I63  1  0.50220700  0.20947900  0.21378100  1
  I  I64  1  0.75290000  0.33795400  0.36942600  1
  I  I65  1  0.25290000  0.16204600  0.63057400  1
  I  I66  1  0.24710000  0.83795400  0.13057400  1
  I  I67  1  0.74710000  0.66204600  0.86942600  1
  I  I68  1  0.24710000  0.66204600  0.63057400  1
  I  I69  1  0.74710000  0.83795400  0.36942600  1
  I  I70  1  0.75290000  0.16204600  0.86942600  1
  I  I71  1  0.25290000  0.33795400  0.13057400  1
loop_
_geom_bond_atom_site_label_1
_geom_bond_atom_site_label_2
_geom_bond_distance
_geom_bond_site_symmetry_2
Al0 I56 2.539757 1_655
Al0 I0 2.550945 1_555
Al0 I64 2.587496 1_555
Al0 I7 2.610754 1_555
Al1 I57 2.539757 1_555
Al1 I49 2.550945 1_555
Al1 I65 2.587496 1_555
Al1 I6 2.610754 1_555
Al2 I58 2.539757 1_455
Al2 I50 2.550945 1_555
Al2 I66 2.587496 1_555
Al2 I5 2.610754 1_555
Al3 I59 2.539757 1_555
Al3 I51 2.550945 1_555
Al3 I67 2.587496 1_555
Al3 I4 2.610754 1_555
Al4 I60 2.539757 1_455
Al4 I52 2.550945 1_555
Al4 I68 2.587496 1_555
Al4 I3 2.610754 1_555
Al5 I61 2.539757 1_555
Al5 I53 2.550945 1_555
Al5 I69 2.587496 1_555
Al5 I2 2.610754 1_555
Al6 I62 2.539757 1_655
Al6 I54 2.550945 1_555
Al6 I70 2.587496 1_555
Al6 I1 2.610754 1_555
Al7 I63 2.539757 1_555
Al7 I55 2.550945 1_555
Al7 I71 2.587496 1_555
Al7 I24 2.610754 1_555
P0 P8 2.278891 1_555
P1 P9 2.278891 1_555
P10 P2 2.278891 1_555
P11 P3 2.278891 1_555
P12 P4 2.278891 1_555
P13 P5 2.278891 1_555
P14 P6 2.278891 1_555
P15 P7 2.278891 1_555
I8 P15 2.461805 1_545
I9 P14 2.461805 1_555
I10 P13 2.461805 1_555
I11 P12 2.461805 1_565
I12 P11 2.461805 1_565
I13 P10 2.461805 1_555
I14 P9 2.461805 1_555
I15 P8 2.461805 1_545
I16 P15 2.453068 1_555
I17 P14 2.453068 1_555
I18 P13 2.453068 1_555
I19 P12 2.453068 1_555
I20 P11 2.453068 1_555
I21 P10 2.453068 1_555
I22 P9 2.453068 1_555
I23 P8 2.453068 1_555
I25 P6 2.471884 1_555
I26 P5 2.471884 1_555
I27 P4 2.471884 1_555
I28 P3 2.471884 1_555
I29 P2 2.471884 1_555
I30 P1 2.471884 1_555
I31 P0 2.471884 1_555
I32 P7 2.460746 1_545
I33 P6 2.460746 1_555
I34 P5 2.460746 1_555
I35 P4 2.460746 1_565
I36 P3 2.460746 1_565
I37 P2 2.460746 1_555
I38 P1 2.460746 1_555
I39 P0 2.460746 1_545
I40 P7 2.436698 1_545
I41 P6 2.436698 1_555
I42 P5 2.436698 1_555
I43 P4 2.436698 1_565
I44 P3 2.436698 1_565
I45 P2 2.436698 1_555
I46 P1 2.436698 1_555
I47 P0 2.436698 1_545
I48 P7 2.471884 1_555
