# generated using pymatgen
data_Na4MgTi2(GeO5)2
_symmetry_space_group_name_H-M   'P 1'
_cell_length_a   5.59337549
_cell_length_b   6.90835000
_cell_length_c   6.83959314
_cell_angle_alpha   90.00000000
_cell_angle_beta   91.15132314
_cell_angle_gamma   90.00000000
_symmetry_Int_Tables_number   1
_chemical_formula_structural   Na4MgTi2(GeO5)2
_chemical_formula_sum   'Na4 Mg1 Ti2 Ge2 O10'
_cell_volume   264.23533224
_cell_formula_units_Z   1
loop_
 _symmetry_equiv_pos_site_id
 _symmetry_equiv_pos_as_xyz
  1  'x, y, z'
loop_
 _atom_site_type_symbol
 _atom_site_label
 _atom_site_symmetry_multiplicity
 _atom_site_fract_x
 _atom_site_fract_y
 _atom_site_fract_z
 _atom_site_occupancy
  Na  Na0  1  0.98609700  0.98142600  0.01579900  1
  Na  Na1  1  0.98609700  0.51857400  0.01579900  1
  Na  Na2  1  0.08310900  0.57216700  0.50812100  1
  Na  Na3  1  0.08310900  0.92783300  0.50812100  1
  Mg  Mg0  1  0.82203200  0.25000000  0.58779400  1
  Ti  Ti0  1  0.63588200  0.75000000  0.72514200  1
  Ti  Ti1  1  0.36418300  0.25000000  0.26939800  1
  Ge  Ge0  1  0.40464500  0.25000000  0.77122600  1
  Ge  Ge1  1  0.51485200  0.75000000  0.23428600  1
  O  O0  1  0.72531000  0.75000000  0.42883800  1
  O  O1  1  0.68971300  0.75000000  0.02304600  1
  O  O2  1  0.78231400  0.49915800  0.72428800  1
  O  O3  1  0.78231400  0.00084200  0.72428800  1
  O  O4  1  0.31742200  0.95816400  0.24360100  1
  O  O5  1  0.23260300  0.25000000  0.99063300  1
  O  O6  1  0.18184300  0.25000000  0.51477700  1
  O  O7  1  0.31742200  0.54183600  0.24360100  1
  O  O8  1  0.66974400  0.25000000  0.31833700  1
  O  O9  1  0.32130900  0.75000000  0.71290300  1
loop_
_geom_bond_atom_site_label_1
_geom_bond_atom_site_label_2
_geom_bond_distance
_geom_bond_site_symmetry_2
Na0 O3 2.280612 1_564
Na0 O1 2.304363 1_555
Na0 O5 2.320081 1_664
Na0 O4 2.402462 1_655
Na1 O2 2.280612 1_554
Na1 O1 2.304363 1_555
Na1 O5 2.320081 1_654
Na1 O7 2.402462 1_655
Na2 O7 2.264973 1_555
Na2 O9 2.274025 1_555
Na2 O6 2.293367 1_555
Na2 O2 2.317535 1_455
Na2 O0 2.401031 1_455
Na3 O4 2.264973 1_555
Na3 O9 2.274025 1_555
Na3 O6 2.293367 1_565
Na3 O3 2.317535 1_465
Na3 O0 2.401031 1_455
Mg0 O2 1.972816 1_555
Mg0 O3 1.972816 1_555
Mg0 O8 2.014707 1_555
Mg0 O6 2.083312 1_655
Ge0 O5 1.798891 1_555
Ge0 O6 2.131138 1_555
Ge1 O0 1.758815 1_555
Ge1 O1 1.760917 1_555
Ge1 O4 1.815051 1_555
Ge1 O7 1.815051 1_555
O0 Ti0 2.097151 1_555
O1 Ti0 2.053676 1_554
O2 Ti0 1.916775 1_555
O3 Ti0 1.916775 1_545
O4 Ti1 2.040188 1_565
O5 Ti1 2.029912 1_556
O6 Ti1 1.981323 1_555
O7 Ti1 2.040188 1_555
O8 Ti1 1.734973 1_555
O9 Ti0 1.759834 1_555
