# generated using pymatgen
data_LaFeAsO
_symmetry_space_group_name_H-M   'P 1'
_cell_length_a   4.14459300
_cell_length_b   10.11502346
_cell_length_c   8.24135832
_cell_angle_alpha   65.55564015
_cell_angle_beta   90.00027006
_cell_angle_gamma   89.99992706
_symmetry_Int_Tables_number   1
_chemical_formula_structural   LaFeAsO
_chemical_formula_sum   'La4 Fe4 As4 O4'
_cell_volume   314.53026605
_cell_formula_units_Z   4
loop_
 _symmetry_equiv_pos_site_id
 _symmetry_equiv_pos_as_xyz
  1  'x, y, z'
loop_
 _atom_site_type_symbol
 _atom_site_label
 _atom_site_symmetry_multiplicity
 _atom_site_fract_x
 _atom_site_fract_y
 _atom_site_fract_z
 _atom_site_occupancy
  La  La0  1  0.74918400  0.86956400  0.69096700  1
  La  La1  1  0.75081100  0.86951500  0.19097600  1
  La  La2  1  0.24916300  0.13045800  0.30901700  1
  La  La3  1  0.25080300  0.13049000  0.80903800  1
  Fe  Fe0  1  0.75917600  0.49858800  0.12366100  1
  Fe  Fe1  1  0.25924000  0.50141200  0.87633300  1
  Fe  Fe2  1  0.74076000  0.49873100  0.62356900  1
  Fe  Fe3  1  0.24080200  0.50127900  0.37645000  1
  As  As0  1  0.75082800  0.32827300  0.95619300  1
  As  As1  1  0.74924400  0.32815100  0.45630900  1
  As  As2  1  0.25082900  0.67169000  0.04379900  1
  As  As3  1  0.24920500  0.67185100  0.54368100  1
  O  O0  1  0.74950400  0.00026400  0.37472200  1
  O  O1  1  0.75047300  0.00026100  0.87474600  1
  O  O2  1  0.25047100  0.99972300  0.12526700  1
  O  O3  1  0.24950800  0.99975000  0.62527200  1
loop_
_geom_bond_atom_site_label_1
_geom_bond_atom_site_label_2
_geom_bond_distance
_geom_bond_site_symmetry_2
La0 O0 2.385135 1_565
La0 O1 2.387223 1_565
La0 O3 2.392898 1_555
La0 O3 2.395230 1_655
La1 O1 2.385076 1_564
La1 O0 2.387418 1_565
La1 O2 2.392949 1_655
La1 O2 2.395381 1_555
La2 O3 2.385215 1_545
La2 O2 2.387330 1_545
La2 O0 2.392881 1_455
La2 O0 2.395320 1_555
La3 O2 2.385091 1_546
La3 O3 2.387486 1_545
La3 O1 2.393075 1_555
La3 O1 2.395450 1_455
As0 Fe2 2.564650 1_555
As0 Fe1 2.587935 1_555
As0 Fe0 2.615661 1_556
As0 Fe1 2.643189 1_655
As0 La3 3.431483 1_655
As0 La3 3.431605 1_555
As0 La2 3.450974 1_656
As0 La2 3.459271 1_556
As1 Fe0 2.564748 1_555
As1 Fe3 2.587782 1_655
As1 Fe2 2.616649 1_555
As1 Fe3 2.643218 1_555
As1 La2 3.431351 1_655
As1 La2 3.431753 1_555
As1 La3 3.450425 1_555
As1 La3 3.458158 1_655
As2 Fe3 2.564714 1_555
As2 Fe0 2.587941 1_455
As2 Fe1 2.615323 1_554
As2 Fe0 2.642756 1_555
As2 La1 3.431915 1_555
As2 La1 3.432009 1_455
As2 La0 3.451221 1_554
As2 La0 3.459379 1_454
As3 Fe1 2.564786 1_555
As3 Fe2 2.587712 1_555
As3 Fe3 2.616382 1_555
As3 Fe2 2.643185 1_455
As3 La0 3.431615 1_555
As3 La0 3.431724 1_455
As3 La1 3.450177 1_455
As3 La1 3.458183 1_555
