# generated using pymatgen
data_Cr2(PO4)3
_symmetry_space_group_name_H-M   'P 1'
_cell_length_a   8.35922028
_cell_length_b   8.36272063
_cell_length_c   8.68514341
_cell_angle_alpha   118.04618936
_cell_angle_beta   89.95867104
_cell_angle_gamma   60.16493577
_symmetry_Int_Tables_number   1
_chemical_formula_structural   Cr2(PO4)3
_chemical_formula_sum   'Cr4 P6 O24'
_cell_volume   442.45566521
_cell_formula_units_Z   2
loop_
 _symmetry_equiv_pos_site_id
 _symmetry_equiv_pos_as_xyz
  1  'x, y, z'
loop_
 _atom_site_type_symbol
 _atom_site_label
 _atom_site_symmetry_multiplicity
 _atom_site_fract_x
 _atom_site_fract_y
 _atom_site_fract_z
 _atom_site_occupancy
  Cr  Cr0  1  0.35247500  0.78213000  0.92141600  1
  Cr  Cr1  1  0.14678500  0.21290000  0.56528200  1
  Cr  Cr2  1  0.64752500  0.21787000  0.07858400  1
  Cr  Cr3  1  0.85321500  0.78710000  0.43471800  1
  P  P0  1  0.25271700  0.28018800  0.25141100  1
  P  P1  1  0.74728300  0.71981200  0.74858900  1
  P  P2  1  0.03035400  0.00549700  0.75346800  1
  P  P3  1  0.46883100  0.28277700  0.74263200  1
  P  P4  1  0.53116900  0.71722300  0.25736800  1
  P  P5  1  0.96964600  0.99450300  0.24653200  1
  O  O0  1  0.28729800  0.23055400  0.40448500  1
  O  O1  1  0.28840000  0.07825000  0.07397300  1
  O  O2  1  0.01030400  0.16603400  0.70218800  1
  O  O3  1  0.60080000  0.66998400  0.77854400  1
  O  O4  1  0.98905400  0.84170500  0.61381400  1
  O  O5  1  0.04637300  0.47655400  0.30473900  1
  O  O6  1  0.29886600  0.25393800  0.72927400  1
  O  O7  1  0.35466100  0.89880000  0.43026600  1
  O  O8  1  0.01094600  0.15829500  0.38618600  1
  O  O9  1  0.51932600  0.29498300  0.91566300  1
  O  O10  1  0.95362700  0.52344600  0.69526100  1
  O  O11  1  0.88621000  0.14189900  0.94633100  1
  O  O12  1  0.71270200  0.76944600  0.59551500  1
  O  O13  1  0.98969600  0.83396600  0.29781200  1
  O  O14  1  0.64533900  0.10120000  0.56973400  1
  O  O15  1  0.71160000  0.92175000  0.92602700  1
  O  O16  1  0.60002700  0.49965300  0.24162800  1
  O  O17  1  0.23709200  0.86989300  0.75885400  1
  O  O18  1  0.39920000  0.33001600  0.22145600  1
  O  O19  1  0.76290800  0.13010700  0.24114600  1
  O  O20  1  0.48067400  0.70501700  0.08433700  1
  O  O21  1  0.70113400  0.74606200  0.27072600  1
  O  O22  1  0.39997300  0.50034700  0.75837200  1
  O  O23  1  0.11379000  0.85810100  0.05366900  1
loop_
_geom_bond_atom_site_label_1
_geom_bond_atom_site_label_2
_geom_bond_distance
_geom_bond_site_symmetry_2
Cr0 O22 1.909489 1_555
Cr0 O3 1.921752 1_555
Cr0 O17 1.932453 1_555
Cr0 O20 1.933681 1_556
Cr0 O23 1.937286 1_556
Cr0 O1 1.941287 1_566
Cr1 O10 1.921997 1_455
Cr1 O0 1.927649 1_555
Cr1 O6 1.933808 1_555
Cr1 O2 1.936548 1_555
Cr1 O8 1.941120 1_555
Cr1 O7 1.962964 1_545
Cr2 O16 1.909489 1_555
Cr2 O18 1.921752 1_555
Cr2 O19 1.932453 1_555
Cr2 O9 1.933681 1_554
Cr2 O11 1.937286 1_554
Cr2 O15 1.941287 1_544
Cr3 O5 1.921997 1_655
Cr3 O12 1.927649 1_555
Cr3 O21 1.933808 1_555
Cr3 O13 1.936548 1_555
Cr3 O4 1.941120 1_555
Cr3 O14 1.962964 1_565
O0 P0 1.556736 1_555
O1 P0 1.538374 1_555
O2 P2 1.538608 1_555
O3 P1 1.532925 1_555
O4 P2 1.541225 1_665
O5 P0 1.533502 1_555
O6 P3 1.550836 1_555
O7 P4 1.536554 1_555
O8 P5 1.541225 1_445
O9 P3 1.531838 1_555
O10 P1 1.533502 1_555
O11 P2 1.546458 1_655
O12 P1 1.556736 1_555
O13 P5 1.538608 1_555
O14 P3 1.536554 1_555
O15 P1 1.538374 1_555
O16 P4 1.544158 1_555
O17 P2 1.541025 1_565
O18 P0 1.532925 1_555
O19 P5 1.541025 1_545
O20 P4 1.531838 1_555
O21 P4 1.550836 1_555
O22 P3 1.544158 1_555
O23 P5 1.546458 1_455
