# generated using pymatgen
data_Na14Zn4Si7Ge4S5O48
_symmetry_space_group_name_H-M   'P 1'
_cell_length_a   17.91649899
_cell_length_b   8.97468408
_cell_length_c   21.98518748
_cell_angle_alpha   90.20160154
_cell_angle_beta   88.57475921
_cell_angle_gamma   120.00557846
_symmetry_Int_Tables_number   1
_chemical_formula_structural   Na14Zn4Si7Ge4S5O48
_chemical_formula_sum   'Na42 Zn12 Si21 Ge12 S15 O144'
_cell_volume   3060.21032607
_cell_formula_units_Z   3
loop_
 _symmetry_equiv_pos_site_id
 _symmetry_equiv_pos_as_xyz
  1  'x, y, z'
loop_
 _atom_site_type_symbol
 _atom_site_label
 _atom_site_symmetry_multiplicity
 _atom_site_fract_x
 _atom_site_fract_y
 _atom_site_fract_z
 _atom_site_occupancy
  Na  Na0  1  0.80888975  0.99480278  0.25303300  1
  Na  Na1  1  0.18064829  0.35389905  0.25615533  1
  Na  Na2  1  0.68912327  0.37098168  0.25501015  1
  Na  Na3  1  0.99570693  0.63302809  0.24771248  1
  Na  Na4  1  0.49855374  0.63338180  0.25258073  1
  Na  Na5  1  0.31089489  0.62373124  0.74277715  1
  Na  Na6  1  0.99771234  0.36172592  0.74774896  1
  Na  Na7  1  0.49824717  0.36338720  0.74327365  1
  Na  Na8  1  0.18899667  0.00759472  0.75074254  1
  Na  Na9  1  0.68240637  0.00809588  0.75193634  1
  Na  Na10  1  0.15119100  0.33188202  0.58356924  1
  Na  Na11  1  0.66003119  0.33938667  0.57761171  1
  Na  Na12  1  0.33722579  0.98193311  0.57972285  1
  Na  Na13  1  0.83580044  0.97931907  0.57925823  1
  Na  Na14  1  0.15776582  0.97764195  0.08304065  1
  Na  Na15  1  0.65088371  0.97096084  0.08838975  1
  Na  Na16  1  0.33539402  0.68978260  0.08631615  1
  Na  Na17  1  0.83599541  0.69470119  0.08415527  1
  Na  Na18  1  0.48108747  0.67208985  0.92199796  1
  Na  Na19  1  0.97390476  0.66803439  0.91953513  1
  Na  Na20  1  0.35598789  0.04384053  0.91553935  1
  Na  Na21  1  0.85312338  0.04117660  0.91347108  1
  Na  Na22  1  0.16658310  0.28482914  0.91492752  1
  Na  Na23  1  0.67022183  0.28708668  0.91051467  1
  Na  Na24  1  0.47639813  0.28510869  0.42005991  1
  Na  Na25  1  0.97468755  0.27628371  0.42270851  1
  Na  Na26  1  0.16942238  0.05617940  0.40966618  1
  Na  Na27  1  0.67186793  0.04261180  0.41270100  1
  Na  Na28  1  0.35478085  0.66729967  0.41334862  1
  Na  Na29  1  0.85300608  0.67381865  0.41821856  1
  Na  Na30  1  0.99534724  0.99554912  0.49715592  1
  Na  Na31  1  0.50217624  0.99661858  0.49961577  1
  Na  Na32  1  0.99858157  0.00210730  0.00143188  1
  Na  Na33  1  0.50191682  0.00595033  0.00131458  1
  Na  Na34  1  0.32832381  0.32319941  0.82618257  1
  Na  Na35  1  0.82587259  0.33648566  0.83118616  1
  Na  Na36  1  0.32770556  0.31770003  0.33318732  1
  Na  Na37  1  0.82649119  0.32084880  0.33195297  1
  Na  Na38  1  0.16569854  0.66895524  0.16952210  1
  Na  Na39  1  0.66349168  0.66177698  0.17093313  1
  Na  Na40  1  0.16327634  0.66437431  0.66810846  1
  Na  Na41  1  0.66633022  0.66371291  0.66623055  1
  Zn  Zn0  1  0.00064805  0.00272873  0.35149718  1
  Zn  Zn1  1  0.49186725  0.98372046  0.34462821  1
  Zn  Zn2  1  0.99005285  0.99722448  0.84219707  1
  Zn  Zn3  1  0.51092929  0.01366940  0.84353772  1
  Zn  Zn4  1  0.33690698  0.32491690  0.68281677  1
  Zn  Zn5  1  0.83578775  0.34570862  0.18491236  1
  Zn  Zn6  1  0.33319486  0.32716495  0.00474441  1
  Zn  Zn7  1  0.83178252  0.34382934  0.98158676  1
  Zn  Zn8  1  0.33337637  0.32398396  0.48061524  1
  Zn  Zn9  1  0.83012169  0.32002324  0.49385122  1
  Zn  Zn10  1  0.67658284  0.69579614  0.31130224  1
  Zn  Zn11  1  0.17044270  0.66009391  0.80692255  1
  Si  Si0  1  0.15361471  0.99866448  0.25245938  1
  Si  Si1  1  0.64310484  0.00454432  0.24850939  1
  Si  Si2  1  0.35066703  0.69319781  0.25001791  1
  Si  Si3  1  0.85665678  0.71217353  0.25149344  1
  Si  Si4  1  0.14339560  0.27992076  0.74970781  1
  Si  Si5  1  0.65617392  0.31379595  0.75142728  1
  Si  Si6  1  0.35811096  -0.00003281  0.75268446  1
  Si  Si7  1  0.85151437  0.01039538  0.74990533  1
  Si  Si8  1  0.48341043  0.34463996  0.58109730  1
  Si  Si9  1  0.98281950  0.34314684  0.58372726  1
  Si  Si10  1  0.67845734  0.03195277  0.58534937  1
  Si  Si11  1  0.84169021  0.63128213  0.58204320  1
  Si  Si12  1  0.48182411  0.62312659  0.08282436  1
  Si  Si13  1  0.98024297  0.62382912  0.08208894  1
  Si  Si14  1  0.34123644  0.04595135  0.08206407  1
  Si  Si15  1  0.17947889  0.32419356  0.08404180  1
  Si  Si16  1  0.81141640  0.66920663  0.91853641  1
  Si  Si17  1  0.66500116  0.95194690  0.91412545  1
  Si  Si18  1  0.31129186  0.95424737  0.41895973  1
  Si  Si19  1  0.81147362  0.96379500  0.41790418  1
  Si  Si20  1  0.16688591  0.38127228  0.41436926  1
  Ge  Ge0  1  0.98950365  0.00667437  0.64858707  1
  Ge  Ge1  1  0.51049766  0.04957233  0.65036292  1
  Ge  Ge2  1  0.01029693  0.97626433  0.15208946  1
  Ge  Ge3  1  0.48907736  0.97355886  0.15060466  1
  Ge  Ge4  1  0.82696349  0.32231797  0.67792619  1
  Ge  Ge5  1  0.32680627  0.33030192  0.17956125  1
  Ge  Ge6  1  0.16846753  0.66570927  0.03022444  1
  Ge  Ge7  1  0.66188748  0.67441244  0.01554008  1
  Ge  Ge8  1  0.16040332  0.65054614  0.51455197  1
  Ge  Ge9  1  0.67601958  0.67994833  0.52876206  1
  Ge  Ge10  1  0.18622115  0.69322181  0.31338512  1
  Ge  Ge11  1  0.68769895  0.68234265  0.81227527  1
  S  S0  1  0.00142647  0.29053205  0.25024193  1
  S  S1  1  0.49441606  0.28289430  0.24840668  1
  S  S2  1  0.99594379  0.70643694  0.74970721  1
  S  S3  1  0.50072748  0.70956182  0.75216232  1
  S  S4  1  0.17971305  0.02619988  0.58302788  1
  S  S5  1  0.33354830  0.63329920  0.58223134  1
  S  S6  1  0.83273056  0.03439951  0.08047116  1
  S  S7  1  0.67922033  0.33446681  0.08187767  1
  S  S8  1  0.30951861  0.66224840  0.91841135  1
  S  S9  1  0.02747889  0.38704647  0.91962087  1
  S  S10  1  0.52336613  0.38452129  0.91645404  1
  S  S11  1  0.16831018  0.95318202  0.91724010  1
  S  S12  1  0.66588545  0.37920965  0.41641316  1
  S  S13  1  0.02592270  0.66452676  0.41567050  1
  S  S14  1  0.52498733  0.66674761  0.41848051  1
  O  O0  1  0.11569437  0.04940518  0.31070861  1
  O  O1  1  0.60532293  0.04838782  0.30982133  1
  O  O2  1  0.40593671  0.76188369  0.31028606  1
  O  O3  1  0.91515847  0.79462295  0.31028858  1
  O  O4  1  0.48128570  0.18977471  0.30677947  1
  O  O5  1  0.99113750  0.19900491  0.30821699  1
  O  O6  1  0.10659806  0.16531545  0.81238781  1
  O  O7  1  0.62179050  0.19272309  0.81141991  1
  O  O8  1  0.48839317  0.77882915  0.81089356  1
  O  O9  1  0.98496684  0.77529645  0.80897445  1
  O  O10  1  0.41223486  0.02578289  0.81392862  1
  O  O11  1  0.90525854  0.05154637  0.81132802  1
  O  O12  1  0.40879922  0.96847162  0.69103095  1
  O  O13  1  0.89469201  0.97221417  0.68986377  1
  O  O14  1  0.07939219  0.17712998  0.69055491  1
  O  O15  1  0.58906250  0.23070424  0.69375940  1
  O  O16  1  0.00921756  0.82293456  0.69721031  1
  O  O17  1  0.51623919  0.82715482  0.70032871  1
  O  O18  1  0.39238224  0.81438556  0.18874893  1
  O  O19  1  0.90694226  0.84671631  0.18887461  1
  O  O20  1  0.01831495  0.20466958  0.19719118  1
  O  O21  1  0.50719104  0.19162604  0.19499618  1
  O  O22  1  0.09100037  0.95095539  0.19137156  1
  O  O23  1  0.57984703  0.98198553  0.18790921  1
  O  O24  1  0.44680567  0.37694485  0.64437823  1
  O  O25  1  0.93504746  0.36696868  0.64513209  1
  O  O26  1  0.23291938  0.10136877  0.63741388  1
  O  O27  1  0.74623704  0.11996315  0.64234902  1
  O  O28  1  0.31986351  0.52858542  0.63777938  1
  O  O29  1  0.81739625  0.49036249  0.63809634  1
  O  O30  1  0.43237620  0.49860869  0.14225251  1
  O  O31  1  0.94337716  0.51470524  0.14382355  1
  O  O32  1  0.31419381  0.14044014  0.13539004  1
  O  O33  1  0.81861515  0.11100604  0.13579490  1
  O  O34  1  0.24755197  0.37306407  0.14006850  1
  O  O35  1  0.73262225  0.36463263  0.13556048  1
  O  O36  1  0.21355277  0.27503870  0.02222403  1
  O  O37  1  0.71708289  0.30081207  0.02608369  1
  O  O38  1  0.42501730  0.55951748  0.02207273  1
  O  O39  1  0.92203856  0.55507190  0.02228370  1
  O  O40  1  0.35630688  0.13935128  0.01665039  1
  O  O41  1  0.83923513  0.13103576  0.02432604  1
  O  O42  1  0.21838710  0.13605576  0.52806146  1
  O  O43  1  0.70932629  0.15196083  0.52517062  1
  O  O44  1  0.33983596  0.54808657  0.52644585  1
  O  O45  1  0.85509378  0.55932632  0.51800887  1
  O  O46  1  0.42109578  0.28933855  0.52343398  1
  O  O47  1  0.92649849  0.29236254  0.52397321  1
  O  O48  1  0.26605100  0.68547700  0.97574520  1
  O  O49  1  0.75927865  0.69370455  0.97960951  1
  O  O50  1  0.08371566  0.47757912  0.97334052  1
  O  O51  1  0.57706648  0.46858010  0.97198482  1
  O  O52  1  0.16140900  0.85057683  0.97409246  1
  O  O53  1  0.64649715  0.83143382  0.97697761  1
  O  O54  1  0.25949502  0.82612168  0.48033046  1
  O  O55  1  0.76140326  0.82956229  0.47918977  1
  O  O56  1  0.14898009  0.46445894  0.47787870  1
  O  O57  1  0.65644334  0.46431310  0.47318536  1
  O  O58  1  0.07941507  0.68845606  0.47185116  1
  O  O59  1  0.57869448  0.68343313  0.47165841  1
  O  O60  1  0.06923639  0.64266844  0.35955326  1
  O  O61  1  0.56037560  0.63859221  0.36026683  1
  O  O62  1  0.24971470  0.86911089  0.35962334  1
  O  O63  1  0.75460326  0.88969261  0.35763296  1
  O  O64  1  0.17832507  0.50721489  0.35445099  1
  O  O65  1  0.67044076  0.47581335  0.36030058  1
  O  O66  1  0.06578879  0.48759590  0.86257671  1
  O  O67  1  0.56614269  0.48776593  0.86017428  1
  O  O68  1  0.17546058  0.86693177  0.86148910  1
  O  O69  1  0.67617021  0.84703229  0.85455339  1
  O  O70  1  0.25879986  0.64332482  0.86400156  1
  O  O71  1  0.74959249  0.63143160  0.85940475  1
  O  O72  1  0.02099325  0.82358383  0.41518722  1
  O  O73  1  0.51872155  0.82696917  0.41749597  1
  O  O74  1  0.40523259  0.96600425  0.41607474  1
  O  O75  1  0.90448953  0.97066176  0.41868969  1
  O  O76  1  0.08166446  0.19125122  0.41440946  1
  O  O77  1  0.58732354  0.20358550  0.41797558  1
  O  O78  1  0.02057537  0.21462992  0.91903727  1
  O  O79  1  0.51522353  0.21164588  0.91638711  1
  O  O80  1  0.08876270  0.96690605  0.91925526  1
  O  O81  1  0.57818363  0.96949231  0.91350688  1
  O  O82  1  0.39602335  0.81976432  0.91739579  1
  O  O83  1  0.90555858  0.84550234  0.91561806  1
  O  O84  1  0.49427398  0.16554875  0.58856599  1
  O  O85  1  0.99840861  0.17217317  0.59224297  1
  O  O86  1  0.09233408  0.00768424  0.59014575  1
  O  O87  1  0.58171566  0.01099895  0.60149893  1
  O  O88  1  0.40936991  0.80899275  0.58468994  1
  O  O89  1  0.92445988  0.83158138  0.59387117  1
  O  O90  1  0.49617095  0.82312589  0.09101091  1
  O  O91  1  0.99383041  0.82558773  0.08874472  1
  O  O92  1  0.42320715  0.01312832  0.09377544  1
  O  O93  1  0.90813258  0.00923672  0.08266784  1
  O  O94  1  0.08353475  0.15253528  0.09864411  1
  O  O95  1  0.59161660  0.17909455  0.08845061  1
  O  O96  1  0.34700854  0.16912886  0.74706010  1
  O  O97  1  0.84149605  0.18352147  0.74035266  1
  O  O98  1  0.24227092  0.31524606  0.74031902  1
  O  O99  1  0.74875716  0.32287514  0.73794849  1
  O  O100  1  0.42141460  0.53796536  0.74689152  1
  O  O101  1  0.92028715  0.53056247  0.74445310  1
  O  O102  1  0.34140970  0.50006006  0.23954679  1
  O  O103  1  0.84554551  0.52028996  0.24631100  1
  O  O104  1  0.41806687  0.30718624  0.24196413  1
  O  O105  1  0.92205466  0.30176623  0.24442608  1
  O  O106  1  0.24731888  0.17474253  0.23802733  1
  O  O107  1  0.74148149  0.16672485  0.23881909  1
  O  O108  1  0.31777629  0.50569347  0.92190124  1
  O  O109  1  0.81930714  0.49630205  0.91888804  1
  O  O110  1  0.43725548  0.37031633  0.92005067  1
  O  O111  1  0.93975165  0.36472940  0.92530872  1
  O  O112  1  0.24659305  0.12814806  0.91769086  1
  O  O113  1  0.75393230  0.13723081  0.91731680  1
  O  O114  1  0.31879872  0.14230213  0.41954743  1
  O  O115  1  0.82168863  0.15568828  0.42409585  1
  O  O116  1  0.25615820  0.37494529  0.41756451  1
  O  O117  1  0.74560042  0.36661312  0.41698573  1
  O  O118  1  0.43579811  0.51468205  0.42393685  1
  O  O119  1  0.94045403  0.50996947  0.41914549  1
  O  O120  1  0.17634554  0.50624778  0.07728827  1
  O  O121  1  0.67358493  0.49654606  0.07565253  1
  O  O122  1  0.08346989  0.66670539  0.07434725  1
  O  O123  1  0.58204654  0.64829708  0.07728448  1
  O  O124  1  0.25174734  0.84449146  0.07785830  1
  O  O125  1  0.74993414  0.85260374  0.07929470  1
  O  O126  1  0.17349884  0.85269389  0.57665961  1
  O  O127  1  0.67448750  0.84427458  0.58034416  1
  O  O128  1  0.25169899  0.65044761  0.58137725  1
  O  O129  1  0.75210080  0.65221429  0.58126265  1
  O  O130  1  0.08342964  0.51852010  0.57817802  1
  O  O131  1  0.58563719  0.50487662  0.57193546  1
  O  O132  1  0.15427135  0.81223382  0.25864087  1
  O  O133  1  0.64371873  0.82230413  0.24664794  1
  O  O134  1  0.25222678  0.67037089  0.25264537  1
  O  O135  1  0.76044826  0.69124153  0.24741718  1
  O  O136  1  0.07857539  0.46950008  0.25087111  1
  O  O137  1  0.57423558  0.45541228  0.24913875  1
  O  O138  1  0.14610425  0.46640163  0.74949947  1
  O  O139  1  0.65462947  0.49895611  0.75858067  1
  O  O140  1  0.07668382  0.69319032  0.75033208  1
  O  O141  1  0.57819767  0.68559077  0.75335592  1
  O  O142  1  0.26181236  0.82686055  0.74929648  1
  O  O143  1  0.75306735  0.83588671  0.75256886  1
loop_
_geom_bond_atom_site_label_1
_geom_bond_atom_site_label_2
_geom_bond_distance
_geom_bond_site_symmetry_2
Na0 O107 2.413059 1_565
Na0 O135 2.414281 1_555
Na0 O63 2.471963 1_555
Na0 O105 2.476720 1_565
Na0 O133 2.571146 1_555
Na0 O33 2.752511 1_565
Na1 O106 2.462454 1_555
Na1 O134 2.463964 1_555
Na1 O102 2.514408 1_555
Na1 O136 2.518613 1_555
Na1 O64 2.568466 1_555
Na1 O0 2.652077 1_555
Na1 O34 2.761303 1_555
Na1 O20 2.865776 1_555
Na2 O103 2.430125 1_555
Na2 O107 2.462887 1_555
Na2 O135 2.498253 1_555
Na2 O137 2.530151 1_555
Na2 O65 2.572303 1_555
Na2 O35 2.729232 1_555
Na2 O1 2.770444 1_555
Na3 O103 2.354592 1_555
Na3 O132 2.485276 1_655
Na3 O31 2.513384 1_555
Na3 O136 2.558960 1_655
Na3 O105 2.581581 1_555
Na3 O22 2.763675 1_655
Na3 O60 2.799025 1_655
Na3 O3 2.838856 1_555
Na4 O133 2.286998 1_555
Na4 O102 2.471646 1_555
Na4 O104 2.548308 1_555
Na4 O137 2.560394 1_555
Na4 O61 2.629059 1_555
Na4 O30 2.727698 1_555
Na4 O2 2.737159 1_555
Na5 O142 2.390099 1_555
Na5 O98 2.403588 1_555
Na5 O100 2.460763 1_555
Na5 O28 2.487684 1_555
Na5 O138 2.557899 1_555
Na5 O70 2.835873 1_555
Na5 O12 2.905352 1_555
Na6 O138 2.336512 1_655
Na6 O97 2.441644 1_555
Na6 O101 2.516666 1_555
Na6 O25 2.555797 1_555
Na6 O140 2.578295 1_655
Na6 O11 2.783391 1_555
Na6 O66 2.809260 1_655
Na6 O14 2.964112 1_655
Na7 O96 2.377739 1_555
Na7 O24 2.409408 1_555
Na7 O139 2.465420 1_555
Na7 O141 2.516195 1_555
Na7 O100 2.550865 1_555
Na7 O15 2.662899 1_555
Na7 O67 2.847515 1_555
Na8 O98 2.438197 1_555
Na8 O96 2.451012 1_555
Na8 O140 2.516536 1_545
Na8 O142 2.539296 1_545
Na8 O26 2.605803 1_555
Na8 O68 2.695682 1_545
Na8 O6 2.827873 1_555
Na9 O143 2.439174 1_545
Na9 O99 2.473389 1_555
Na9 O97 2.479187 1_555
Na9 O141 2.541096 1_545
Na9 O27 2.617661 1_555
Na9 O69 2.653413 1_545
Na9 O7 2.710931 1_555
Na9 O17 2.847347 1_545
Na10 O85 2.373932 1_455
Na10 O128 2.503287 1_555
Na10 O130 2.517159 1_555
Na10 O86 2.554446 1_555
Na10 O56 2.624441 1_555
Na10 O14 2.683587 1_555
Na10 O42 2.838211 1_555
Na10 O28 2.915140 1_555
Na11 O129 2.445965 1_555
Na11 O131 2.446948 1_555
Na11 O43 2.521955 1_555
Na11 O57 2.574792 1_555
Na11 O84 2.577728 1_555
Na11 O87 2.601670 1_555
Na11 O15 2.775648 1_555
Na11 O29 2.811823 1_555
Na12 O84 2.461295 1_565
Na12 O88 2.471105 1_555
Na12 O126 2.561458 1_555
Na12 O128 2.576514 1_555
Na12 O54 2.617624 1_555
Na12 O46 2.680667 1_565
Na12 O12 2.821450 1_555
Na12 O26 2.850637 1_565
Na13 O127 2.513139 1_555
Na13 O129 2.542325 1_555
Na13 O89 2.553299 1_555
Na13 O85 2.561146 1_565
Na13 O55 2.599325 1_555
Na13 O13 2.688209 1_555
Na13 O47 2.714898 1_565
Na13 O27 2.827523 1_565
Na14 O122 2.426794 1_555
Na14 O124 2.505632 1_555
Na14 O94 2.532104 1_565
Na14 O91 2.545362 1_455
Na14 O22 2.595456 1_555
Na14 O52 2.662585 1_554
Na14 O36 2.683468 1_565
Na14 O32 2.714259 1_565
Na15 O90 2.400294 1_555
Na15 O125 2.486734 1_555
Na15 O23 2.530350 1_555
Na15 O123 2.530676 1_555
Na15 O95 2.569135 1_565
Na15 O53 2.731925 1_554
Na15 O33 2.840030 1_565
Na15 O37 2.912487 1_565
Na16 O120 2.490786 1_555
Na16 O124 2.511022 1_555
Na16 O90 2.511282 1_555
Na16 O18 2.513809 1_555
Na16 O92 2.523184 1_565
Na16 O34 2.722101 1_555
Na16 O48 2.748811 1_554
Na16 O38 2.773655 1_555
Na17 O93 2.447356 1_565
Na17 O91 2.465315 1_555
Na17 O121 2.552203 1_555
Na17 O125 2.567468 1_555
Na17 O19 2.677032 1_555
Na17 O49 2.704985 1_554
Na17 O39 2.759161 1_555
Na17 O35 2.813291 1_555
Na18 O81 2.351286 1_555
Na18 O38 2.400250 1_556
Na18 O110 2.413954 1_555
Na18 O82 2.473520 1_555
Na18 O108 2.534054 1_555
Na18 O8 2.603171 1_555
Na18 O53 2.866368 1_555
Na19 O109 2.404115 1_555
Na19 O80 2.430686 1_655
Na19 O39 2.442050 1_556
Na19 O83 2.449590 1_555
Na19 O111 2.476455 1_555
Na19 O9 2.583782 1_555
Na20 O40 2.378780 1_556
Na20 O112 2.427878 1_555
Na20 O82 2.450535 1_545
Na20 O10 2.465984 1_555
Na20 O79 2.472421 1_555
Na20 O110 2.540293 1_555
Na21 O113 2.330849 1_555
Na21 O83 2.370992 1_545
Na21 O11 2.394623 1_555
Na21 O111 2.532934 1_555
Na21 O78 2.604804 1_655
Na21 O41 2.609364 1_556
Na22 O78 2.364009 1_555
Na22 O108 2.436928 1_555
Na22 O112 2.461079 1_555
Na22 O80 2.471954 1_545
Na22 O6 2.517573 1_555
Na22 O36 2.540596 1_556
Na23 O7 2.358515 1_555
Na23 O109 2.387461 1_555
Na23 O113 2.471952 1_555
Na23 O81 2.478460 1_545
Na23 O79 2.507830 1_555
Na23 O37 2.678853 1_556
Na23 O71 2.895662 1_555
Na24 O77 2.436532 1_555
Na24 O114 2.449001 1_555
Na24 O46 2.464412 1_555
Na24 O74 2.487317 1_545
Na24 O118 2.505210 1_555
Na24 O4 2.644115 1_555
Na25 O75 2.380429 1_545
Na25 O115 2.390663 1_555
Na25 O76 2.394529 1_655
Na25 O47 2.397810 1_555
Na25 O119 2.463923 1_555
Na25 O5 2.656880 1_555
Na26 O0 2.389201 1_555
Na26 O114 2.401251 1_555
Na26 O76 2.418640 1_555
Na26 O72 2.424422 1_545
Na26 O116 2.488541 1_555
Na26 O42 2.744137 1_555
Na26 O62 2.902133 1_545
Na27 O115 2.367496 1_555
Na27 O73 2.441558 1_545
Na27 O117 2.524215 1_555
Na27 O77 2.563939 1_555
Na27 O1 2.595537 1_555
Na27 O43 2.633309 1_555
Na27 O63 2.735005 1_545
Na28 O116 2.317686 1_555
Na28 O74 2.363300 1_555
Na28 O2 2.413869 1_555
Na28 O118 2.458617 1_555
Na28 O73 2.547906 1_555
Na28 O44 2.664200 1_555
Na29 O75 2.343232 1_555
Na29 O45 2.434922 1_555
Na29 O117 2.449671 1_555
Na29 O3 2.593276 1_555
Na29 O72 2.610397 1_655
Na29 O119 2.631276 1_555
Na29 O55 2.935276 1_555
Na30 O75 2.334325 1_555
Na30 O76 2.439634 1_665
Na30 O89 2.513582 1_555
Na30 O72 2.547363 1_655
Na30 O85 2.604100 1_565
Na30 O86 2.682681 1_665
Na31 O77 2.460113 1_565
Na31 O73 2.463943 1_555
Na31 O74 2.478601 1_555
Na31 O88 2.483067 1_555
Na31 O84 2.514550 1_565
Na31 O87 2.652833 1_565
Na32 O93 2.403932 1_555
Na32 O91 2.465801 1_545
Na32 O83 2.471314 1_544
Na32 O78 2.512299 1_654
Na32 O80 2.517090 1_644
Na32 O94 2.606408 1_655
Na33 O81 2.452023 1_544
Na33 O92 2.464206 1_555
Na33 O95 2.510345 1_555
Na33 O90 2.536784 1_545
Na33 O79 2.552040 1_554
Na33 O82 2.603311 1_544
Na34 O96 2.338169 1_555
Na34 O98 2.445284 1_555
Na34 O100 2.489867 1_555
Na34 O112 2.563299 1_555
Na34 O108 2.722532 1_555
Na34 O110 2.759624 1_555
Na35 O109 2.434500 1_555
Na35 O113 2.458044 1_555
Na35 O99 2.469018 1_555
Na35 O97 2.507621 1_555
Na35 O101 2.539162 1_555
Na35 O111 2.863253 1_555
Na36 O114 2.421353 1_555
Na36 O116 2.425294 1_555
Na36 O106 2.525901 1_555
Na36 O102 2.563931 1_555
Na36 O104 2.577234 1_555
Na36 O118 2.756737 1_555
Na37 O115 2.488611 1_555
Na37 O117 2.493823 1_555
Na37 O103 2.499218 1_555
Na37 O107 2.540409 1_555
Na37 O105 2.605917 1_555
Na37 O119 2.725832 1_555
Na38 O132 2.399970 1_555
Na38 O134 2.421631 1_555
Na38 O136 2.434845 1_555
Na38 O124 2.521604 1_555
Na38 O120 2.553256 1_555
Na38 O122 2.583111 1_555
Na39 O133 2.331571 1_555
Na39 O135 2.365959 1_555
Na39 O137 2.422197 1_555
Na39 O123 2.520728 1_555
Na39 O125 2.570376 1_555
Na39 O121 2.616717 1_555
Na40 O138 2.429334 1_555
Na40 O130 2.432826 1_555
Na40 O142 2.448017 1_555
Na40 O140 2.449511 1_555
Na40 O128 2.491461 1_555
Na40 O126 2.574529 1_555
Na41 O129 2.424073 1_555
Na41 O127 2.446153 1_555
Na41 O139 2.458151 1_555
Na41 O143 2.475901 1_555
Na41 O141 2.521483 1_555
Na41 O131 2.546957 1_555
Ge0 O13 1.790130 1_545
Ge0 O14 1.839866 1_655
Ge0 O89 1.870644 1_545
Ge0 O85 1.879398 1_555
Ge0 O16 2.144864 1_645
Ge0 O86 2.216039 1_655
Ge1 O12 1.801738 1_545
Ge1 O87 1.809154 1_555
Ge1 O15 1.817004 1_555
Ge1 O84 1.829179 1_555
Ge2 O19 1.792653 1_455
Ge2 O22 1.811108 1_555
Ge2 O91 1.860998 1_455
Ge2 O94 1.861528 1_565
Ge2 O20 2.214510 1_565
Ge3 O18 1.790588 1_555
Ge3 O23 1.807217 1_555
Ge3 O92 1.890912 1_565
Ge3 O90 1.925187 1_555
Ge3 O21 2.062779 1_565
Ge3 O95 2.269010 1_565
Ge4 O29 1.829207 1_555
Ge4 O27 1.849589 1_555
Ge4 O25 1.893892 1_555
Ge4 O99 1.902543 1_555
Ge4 O97 1.963997 1_555
Ge4 O101 2.324820 1_555
Ge5 O32 1.873961 1_555
Ge5 O34 1.877805 1_555
Ge5 O106 1.887451 1_555
Ge5 O30 1.898946 1_555
Ge5 O102 1.932134 1_555
Ge5 O104 2.247569 1_555
Ge6 O122 1.788923 1_555
Ge6 O120 1.832581 1_555
Ge6 O124 1.889158 1_555
Ge6 O48 2.027286 1_554
Ge6 O50 2.058116 1_554
Ge6 O52 2.126890 1_554
Ge7 O53 1.785883 1_554
Ge7 O49 1.824533 1_554
Ge7 O123 1.874620 1_555
Ge7 O51 1.972568 1_554
Ge7 O125 2.140477 1_555
Ge7 O121 2.168384 1_555
Ge8 O56 1.771433 1_555
Ge8 O54 1.828896 1_555
Ge8 O130 1.882538 1_555
Ge8 O58 1.914765 1_555
Ge8 O126 2.187152 1_555
Ge8 O128 2.225974 1_555
Ge9 O55 1.789937 1_555
Ge9 O131 1.838798 1_555
Ge9 O127 1.867871 1_555
Ge9 O129 1.916222 1_555
Ge9 O57 2.164945 1_555
Ge9 O59 2.186639 1_555
Ge10 O62 1.751998 1_555
Ge10 O134 1.840077 1_555
Ge10 O64 1.841175 1_555
Ge10 O132 1.889946 1_555
Ge10 O60 2.139030 1_555
Ge10 O136 2.424739 1_555
Ge11 O71 1.754799 1_555
Ge11 O143 1.820911 1_555
Ge11 O69 1.837755 1_555
Ge11 O139 1.870610 1_555
Ge11 O67 2.235300 1_555
Ge11 O141 2.389905 1_555
O0 Si0 1.603433 1_545
O0 Zn0 2.067699 1_555
O1 Si1 1.627055 1_555
O1 Zn1 1.949414 1_545
O2 Si2 1.601627 1_555
O2 Zn1 1.971206 1_555
O3 Si3 1.613063 1_555
O3 Zn0 1.962402 1_665
O4 S1 1.482098 1_555
O4 Zn1 2.125438 1_545
O5 S0 1.475649 1_655
O5 Zn0 2.087448 1_655
O6 Si4 1.636489 1_555
O6 Zn2 1.963084 1_445
O7 Si5 1.612446 1_555
O7 Zn3 1.942148 1_555
O8 S3 1.489996 1_555
O8 Zn3 2.067073 1_565
O9 S2 1.490487 1_555
O9 Zn2 2.078545 1_555
O10 Si6 1.626356 1_555
O10 Zn3 1.952520 1_555
O11 Si7 1.610166 1_555
O11 Zn2 1.949532 1_545
O12 Si6 1.713109 1_565
O13 Si7 1.633853 1_565
O14 Si4 1.692620 1_555
O15 Si5 1.667831 1_555
O16 S2 1.492619 1_455
O17 S3 1.479528 1_555
O18 Si2 1.644130 1_555
O19 Si3 1.739803 1_555
O20 S0 1.501671 1_555
O21 S1 1.506496 1_555
O22 Si0 1.684054 1_555
O23 Si1 1.715882 1_565
O24 Si8 1.609868 1_555
O24 Zn4 1.951820 1_555
O25 Si9 1.650541 1_555
O26 S4 1.483685 1_555
O26 Zn4 2.198306 1_555
O27 Si10 1.666840 1_555
O28 S5 1.482372 1_555
O28 Zn4 2.236236 1_555
O29 Si11 1.655691 1_555
O30 Si12 1.644152 1_555
O31 Si13 1.598531 1_555
O31 Zn5 1.957304 1_555
O32 Si14 1.644393 1_555
O33 S6 1.472667 1_555
O33 Zn5 2.247205 1_555
O34 Si15 1.653181 1_555
O35 S7 1.475297 1_555
O35 Zn5 2.244455 1_555
O36 Si15 1.624271 1_555
O36 Zn6 1.979580 1_555
O37 S7 1.488954 1_555
O37 Zn7 2.106728 1_554
O38 Si12 1.620750 1_555
O38 Zn6 1.947939 1_555
O39 Si13 1.617381 1_555
O39 Zn7 2.000868 1_554
O40 Si14 1.614486 1_555
O40 Zn6 1.946204 1_555
O41 S6 1.479423 1_555
O41 Zn7 2.195862 1_554
O42 S4 1.481880 1_555
O42 Zn8 2.146461 1_555
O43 Si10 1.610646 1_555
O43 Zn9 2.025168 1_555
O44 S5 1.474594 1_555
O44 Zn8 2.198295 1_555
O45 Si11 1.608886 1_555
O45 Zn9 2.034079 1_555
O46 Si8 1.616090 1_555
O46 Zn8 2.004316 1_555
O47 Si9 1.597975 1_555
O47 Zn9 1.992126 1_555
O48 S8 1.533140 1_555
O49 Si16 1.692550 1_555
O50 S9 1.517844 1_555
O51 S10 1.520292 1_555
O52 S11 1.520546 1_555
O53 Si17 1.678753 1_555
O54 Si18 1.698606 1_555
O55 Si19 1.715189 1_555
O56 Si20 1.679221 1_555
O57 S12 1.510583 1_555
O58 S13 1.530158 1_555
O59 S14 1.491914 1_555
O60 S13 1.505247 1_555
O61 S14 1.490447 1_555
O61 Zn10 2.140228 1_555
O62 Si18 1.650519 1_555
O63 Si19 1.618493 1_555
O63 Zn10 1.909223 1_555
O64 Si20 1.679358 1_555
O65 S12 1.487265 1_555
O65 Zn10 2.205015 1_555
O66 S9 1.484562 1_555
O66 Zn11 2.098921 1_555
O67 S10 1.492495 1_555
O68 S11 1.484123 1_555
O68 Zn11 2.171613 1_555
O69 Si17 1.675907 1_555
O70 S8 1.477765 1_555
O70 Zn11 2.107580 1_555
O71 Si16 1.650716 1_555
O72 S13 1.473730 1_555
O72 Zn0 2.303442 1_565
O73 S14 1.497507 1_555
O73 Zn1 2.346950 1_555
O74 Si18 1.632502 1_555
O74 Zn1 2.129675 1_555
O75 Si19 1.637097 1_555
O75 Zn0 2.147947 1_665
O76 Si20 1.623349 1_555
O76 Zn0 2.123615 1_555
O77 S12 1.498586 1_555
O77 Zn1 2.481613 1_545
O78 S9 1.489421 1_555
O78 Zn2 2.432179 1_445
O79 S10 1.483933 1_555
O79 Zn3 2.361648 1_555
O80 S11 1.490220 1_555
O81 Si17 1.640273 1_555
O81 Zn3 2.133018 1_565
O82 S8 1.485986 1_555
O82 Zn3 2.484700 1_565
O83 Si16 1.636646 1_555
O83 Zn2 2.140938 1_555
O84 Si8 1.721788 1_555
O85 Si9 1.703178 1_555
O86 S4 1.493578 1_555
O87 Si10 1.676160 1_555
O88 S5 1.481652 1_555
O89 Si11 1.687560 1_555
O90 Si12 1.690803 1_555
O91 Si13 1.708336 1_555
O92 Si14 1.661920 1_555
O93 S6 1.478791 1_555
O94 Si15 1.660934 1_555
O95 S7 1.493295 1_555
O96 Si6 1.632266 1_555
O96 Zn4 2.064498 1_555
O97 Si7 1.665406 1_555
O98 Si4 1.643739 1_555
O98 Zn4 2.056104 1_555
O99 Si5 1.639054 1_555
O100 S3 1.490821 1_555
O100 Zn4 2.263723 1_555
O101 S2 1.486179 1_555
O102 Si2 1.672292 1_555
O103 Si3 1.635569 1_555
O103 Zn5 2.007606 1_555
O104 S1 1.498965 1_555
O105 S0 1.483685 1_655
O105 Zn5 2.229404 1_555
O106 Si0 1.655287 1_545
O107 Si1 1.639568 1_555
O107 Zn5 2.009714 1_555
O108 S8 1.486983 1_555
O108 Zn6 2.539477 1_556
O109 Si16 1.627137 1_555
O109 Zn7 2.038891 1_555
O110 S10 1.483248 1_555
O110 Zn6 2.490638 1_556
O111 S9 1.483825 1_655
O111 Zn7 2.197211 1_555
O112 S11 1.493592 1_545
O113 Si17 1.632039 1_545
O113 Zn7 2.207462 1_555
O114 Si18 1.624683 1_545
O114 Zn8 2.026205 1_555
O115 Si19 1.643862 1_545
O115 Zn9 2.079096 1_555
O116 Si20 1.631822 1_555
O116 Zn8 2.185729 1_555
O117 S12 1.488329 1_555
O117 Zn9 2.467660 1_555
O118 S14 1.496940 1_555
O118 Zn8 2.146932 1_555
O119 S13 1.464673 1_655
O119 Zn9 2.449286 1_555
O120 Si15 1.669916 1_555
O121 S7 1.514528 1_555
O122 Si13 1.694275 1_455
O123 Si12 1.695224 1_555
O124 Si14 1.719026 1_565
O125 S6 1.563365 1_565
O126 S4 1.510825 1_565
O127 Si10 1.653322 1_565
O128 S5 1.549723 1_555
O129 Si11 1.707339 1_555
O130 Si9 1.701241 1_455
O131 Si8 1.677060 1_555
O132 Si0 1.685060 1_555
O133 Si1 1.641436 1_565
O133 Zn10 2.092335 1_555
O134 Si2 1.670208 1_555
O135 Si3 1.642629 1_555
O135 Zn10 2.046494 1_555
O136 S0 1.506947 1_555
O137 S1 1.492991 1_555
O137 Zn10 2.455970 1_555
O138 Si4 1.649893 1_555
O138 Zn11 2.014827 1_555
O139 Si5 1.682516 1_555
O140 S2 1.509939 1_455
O140 Zn11 2.250241 1_555
O141 S3 1.507980 1_555
O142 Si6 1.649429 1_565
O142 Zn11 1.996157 1_555
O143 Si7 1.673313 1_565
