# generated using pymatgen
data_PuCu2
_symmetry_space_group_name_H-M   'P 1'
_cell_length_a   5.37014946
_cell_length_b   5.37718136
_cell_length_c   5.37718136
_cell_angle_alpha   130.61086334
_cell_angle_beta   113.67909739
_cell_angle_gamma   87.01498588
_symmetry_Int_Tables_number   1
_chemical_formula_structural   PuCu2
_chemical_formula_sum   'Pu2 Cu4'
_cell_volume   102.94100045
_cell_formula_units_Z   2
loop_
 _symmetry_equiv_pos_site_id
 _symmetry_equiv_pos_as_xyz
  1  'x, y, z'
loop_
 _atom_site_type_symbol
 _atom_site_label
 _atom_site_symmetry_multiplicity
 _atom_site_fract_x
 _atom_site_fract_y
 _atom_site_fract_z
 _atom_site_occupancy
  Pu  Pu0  1  0.75075036  0.50064208  0.25010828  1
  Pu  Pu1  1  0.24919816  0.49931291  0.74988525  1
  Cu  Cu0  1  0.16812336  0.16673713  0.00138623  1
  Cu  Cu1  1  0.83228008  0.83328539  0.99899569  1
  Cu  Cu2  1  0.66540454  0.16678692  0.49861662  1
  Cu  Cu3  1  0.33424250  0.83323556  0.50100794  1
loop_
_geom_bond_atom_site_label_1
_geom_bond_atom_site_label_2
_geom_bond_distance
_geom_bond_site_symmetry_2
Pu0 Pu1 2.938043 1_655
Pu0 Pu1 2.940631 1_554
Cu0 Cu3 2.594428 1_544
Cu0 Cu3 2.594432 1_555
Cu0 Cu1 2.599232 1_444
Cu0 Cu2 2.923039 1_555
Cu0 Cu2 2.955598 1_454
Cu0 Pu1 2.981640 1_555
Cu0 Pu1 2.981640 1_544
Cu0 Pu0 2.983059 1_455
Cu0 Pu0 2.983059 1_444
Cu0 Pu0 2.983221 1_555
Cu0 Pu1 2.986473 1_554
Cu1 Cu2 2.594421 1_566
Cu1 Cu2 2.594428 1_555
Cu1 Cu3 2.927489 1_555
Cu1 Cu3 2.951149 1_656
Cu1 Pu1 2.981704 1_666
Cu1 Pu1 2.981707 1_655
Cu1 Pu0 2.982529 1_566
Cu1 Pu0 2.982532 1_555
Cu1 Pu1 2.984792 1_555
Cu1 Pu0 2.985795 1_556
Cu2 Cu3 2.600059 1_545
Cu2 Pu1 2.980370 1_544
Cu2 Pu1 2.980373 1_555
Cu2 Pu1 2.981219 1_655
Cu2 Pu0 2.985963 1_545
Cu2 Pu0 2.985966 1_556
Cu2 Pu0 2.986469 1_555
Cu3 Pu0 2.980606 1_455
Cu3 Pu0 2.981203 1_566
Cu3 Pu0 2.981207 1_555
Cu3 Pu1 2.984659 1_565
Cu3 Pu1 2.984663 1_554
Cu3 Pu1 2.987993 1_555
