# generated using pymatgen
data_Na6Mg2Si3Sn2(SO8)3
_symmetry_space_group_name_H-M   'P 1'
_cell_length_a   9.02422787
_cell_length_b   9.03936021
_cell_length_c   22.39479976
_cell_angle_alpha   89.86374391
_cell_angle_beta   90.77736430
_cell_angle_gamma   119.57048796
_symmetry_Int_Tables_number   1
_chemical_formula_structural   Na6Mg2Si3Sn2(SO8)3
_chemical_formula_sum   'Na18 Mg6 Si9 Sn6 S9 O72'
_cell_volume   1588.70645623
_cell_formula_units_Z   3
loop_
 _symmetry_equiv_pos_site_id
 _symmetry_equiv_pos_as_xyz
  1  'x, y, z'
loop_
 _atom_site_type_symbol
 _atom_site_label
 _atom_site_symmetry_multiplicity
 _atom_site_fract_x
 _atom_site_fract_y
 _atom_site_fract_z
 _atom_site_occupancy
  Na  Na0  1  0.37519543  0.35365201  0.24468934  1
  Na  Na1  1  0.00423027  0.64031974  0.23291191  1
  Na  Na2  1  0.99040154  0.34921749  0.73936761  1
  Na  Na3  1  0.38975742  0.02887073  0.74396289  1
  Na  Na4  1  0.29585893  0.33250083  0.58360938  1
  Na  Na5  1  0.65433907  0.98280603  0.59757747  1
  Na  Na6  1  0.29687588  0.96070852  0.06840863  1
  Na  Na7  1  0.65551607  0.67665756  0.07995612  1
  Na  Na8  1  0.98771011  0.68501548  0.91938993  1
  Na  Na9  1  0.32410643  0.28298083  0.90643544  1
  Na  Na10  1  0.98833523  0.30461342  0.43384878  1
  Na  Na11  1  0.32248809  0.03942824  0.41708303  1
  Na  Na12  1  0.00925425  0.99703333  0.50548478  1
  Na  Na13  1  0.01042541  0.01413821  0.99392799  1
  Na  Na14  1  0.64992954  0.31023674  0.82370582  1
  Na  Na15  1  0.64437321  0.31958839  0.33116781  1
  Na  Na16  1  0.31659091  0.65057409  0.15501689  1
  Na  Na17  1  0.32137771  0.66680843  0.66072174  1
  Mg  Mg0  1  0.01846949  0.01186863  0.35203038  1
  Mg  Mg1  1  0.01615516  0.00990303  0.84650603  1
  Mg  Mg2  1  0.66014385  0.32213180  0.68560064  1
  Mg  Mg3  1  0.65475288  0.32465697  0.18181675  1
  Mg  Mg4  1  0.30961378  0.65601672  0.02105640  1
  Mg  Mg5  1  0.31429047  0.65416218  0.52359442  1
  Si  Si0  1  0.30710984  0.99696029  0.25499953  1
  Si  Si1  1  0.30777009  0.30873576  0.75428868  1
  Si  Si2  1  0.71178212  0.00014703  0.75089877  1
  Si  Si3  1  0.95785692  0.33544562  0.58592441  1
  Si  Si4  1  0.35693744  0.02479894  0.58612788  1
  Si  Si5  1  0.95503089  0.61913405  0.08786235  1
  Si  Si6  1  0.36628073  0.33762779  0.08661532  1
  Si  Si7  1  0.33636612  0.96259460  0.91994915  1
  Si  Si8  1  0.33936253  0.37643118  0.41808149  1
  Sn  Sn0  1  0.00404841  0.01924724  0.65123847  1
  Sn  Sn1  1  0.01600575  0.99497774  0.14696876  1
  Sn  Sn2  1  0.65631022  0.32228904  0.98558850  1
  Sn  Sn3  1  0.64526461  0.32831461  0.49114502  1
  Sn  Sn4  1  0.34115969  0.66694074  0.31828556  1
  Sn  Sn5  1  0.35548468  0.68753846  0.81185786  1
  S  S0  1  0.71076949  0.71664090  0.25176081  1
  S  S1  1  0.99679874  0.28898787  0.25268175  1
  S  S2  1  0.99877324  0.70817862  0.75320397  1
  S  S3  1  0.67352290  0.63198679  0.58431418  1
  S  S4  1  0.67420622  0.04064852  0.08628333  1
  S  S5  1  0.63119211  0.66611444  0.92071603  1
  S  S6  1  0.03535562  0.37424768  0.91733406  1
  S  S7  1  0.63528559  0.96513311  0.41770684  1
  S  S8  1  0.03411479  0.66373240  0.41469886  1
  O  O0  1  0.21465298  0.02005057  0.31222997  1
  O  O1  1  0.81355133  0.81899660  0.30257414  1
  O  O2  1  0.98430613  0.19674191  0.30753377  1
  O  O3  1  0.22597061  0.18958486  0.81186966  1
  O  O4  1  0.98811518  0.78458502  0.80968637  1
  O  O5  1  0.82877889  0.00708385  0.80554273  1
  O  O6  1  0.78252266  0.96424655  0.68630180  1
  O  O7  1  0.18041576  0.23044652  0.69296697  1
  O  O8  1  0.02859137  0.82303962  0.70094432  1
  O  O9  1  0.78068882  0.80898272  0.19379280  1
  O  O10  1  0.01720991  0.20081510  0.19903392  1
  O  O11  1  0.17664389  0.94753801  0.19432633  1
  O  O12  1  0.86251767  0.35014718  0.64225251  1
  O  O13  1  0.47950136  0.12332577  0.64133477  1
  O  O14  1  0.65231872  0.51940231  0.63348110  1
  O  O15  1  0.86284938  0.51552034  0.14687910  1
  O  O16  1  0.65215393  0.12848461  0.13696641  1
  O  O17  1  0.47282425  0.35938582  0.14749372  1
  O  O18  1  0.44595865  0.28420799  0.02808544  1
  O  O19  1  0.83699707  0.53194466  0.02574737  1
  O  O20  1  0.70743763  0.14063137  0.02954073  1
  O  O21  1  0.42247868  0.15016459  0.52305125  1
  O  O22  1  0.70135935  0.56236426  0.52545927  1
  O  O23  1  0.84242415  0.30882689  0.52078667  1
  O  O24  1  0.54920199  0.67898835  0.97482704  1
  O  O25  1  0.14487512  0.45957599  0.96931155  1
  O  O26  1  0.31929338  0.84966819  0.97757975  1
  O  O27  1  0.55295162  0.86753705  0.47046003  1
  O  O28  1  0.31622669  0.48104534  0.47053493  1
  O  O29  1  0.15128892  0.69479295  0.46478047  1
  O  O30  1  0.10934977  0.63339019  0.35751495  1
  O  O31  1  0.52097379  0.88777130  0.36217984  1
  O  O32  1  0.36749420  0.47867278  0.35126320  1
  O  O33  1  0.10872614  0.47682544  0.86189990  1
  O  O34  1  0.35478521  0.87502603  0.85706908  1
  O  O35  1  0.51719590  0.63243222  0.86684259  1
  O  O36  1  0.01101341  0.81300762  0.40783616  1
  O  O37  1  0.80448648  0.98418992  0.40873595  1
  O  O38  1  0.16822012  0.18726061  0.41402326  1
  O  O39  1  0.01403188  0.20239389  0.91312864  1
  O  O40  1  0.16518560  0.98342600  0.91559165  1
  O  O41  1  0.80214672  0.81321479  0.91425799  1
  O  O42  1  0.96134712  0.15005768  0.58260795  1
  O  O43  1  0.16536558  0.00694292  0.59144765  1
  O  O44  1  0.82657136  0.80313608  0.58805620  1
  O  O45  1  0.95421100  0.80810173  0.08614488  1
  O  O46  1  0.82637495  0.01699333  0.09322834  1
  O  O47  1  0.17404790  0.16118692  0.08775384  1
  O  O48  1  0.69554081  0.17165122  0.74805765  1
  O  O49  1  0.49367470  0.33329745  0.74351086  1
  O  O50  1  0.85060081  0.53921697  0.74532677  1
  O  O51  1  0.70280363  0.54949570  0.25211513  1
  O  O52  1  0.85244019  0.31949949  0.24679397  1
  O  O53  1  0.48976441  0.16574771  0.24613552  1
  O  O54  1  0.64815283  0.50583342  0.92107113  1
  O  O55  1  0.86443770  0.36695001  0.92270549  1
  O  O56  1  0.50955623  0.15964555  0.92075179  1
  O  O57  1  0.65183311  0.14078885  0.41845865  1
  O  O58  1  0.51204694  0.34968663  0.42025611  1
  O  O59  1  0.86771124  0.50374939  0.41962684  1
  O  O60  1  0.36052625  0.51059361  0.07533556  1
  O  O61  1  0.15111487  0.66706523  0.08219080  1
  O  O62  1  0.52259304  0.87070845  0.08003027  1
  O  O63  1  0.35958170  0.85089194  0.57355114  1
  O  O64  1  0.51934414  0.64900420  0.57771944  1
  O  O65  1  0.15267212  0.48474243  0.58012465  1
  O  O66  1  0.30859949  0.80934129  0.25727854  1
  O  O67  1  0.53013154  0.68605372  0.25250308  1
  O  O68  1  0.16117023  0.46228660  0.25254175  1
  O  O69  1  0.29510595  0.48758922  0.76006824  1
  O  O70  1  0.15767406  0.68973691  0.75354970  1
  O  O71  1  0.50971092  0.83822674  0.74893818  1
loop_
_geom_bond_atom_site_label_1
_geom_bond_atom_site_label_2
_geom_bond_distance
_geom_bond_site_symmetry_2
Na0 O17 2.350158 1_555
Na0 O53 2.384764 1_555
Na0 O68 2.570517 1_555
Na0 O51 2.593147 1_555
Na0 O67 2.619763 1_555
Na0 O32 2.659541 1_555
Na1 O15 2.266190 1_455
Na1 O66 2.449041 1_555
Na1 O51 2.466588 1_455
Na1 O52 2.543538 1_455
Na1 O11 2.576826 1_555
Na1 O68 2.649188 1_555
Na1 O30 2.945584 1_555
Na2 O48 2.343436 1_555
Na2 O69 2.431863 1_655
Na2 O12 2.450176 1_555
Na2 O50 2.589085 1_555
Na2 O7 2.653942 1_655
Na2 O70 2.694395 1_655
Na2 O33 2.953069 1_655
Na3 O48 2.401530 1_555
Na3 O49 2.430055 1_555
Na3 O71 2.447641 1_545
Na3 O13 2.454777 1_555
Na3 O70 2.739034 1_545
Na3 O34 2.832196 1_545
Na3 O3 2.966248 1_555
Na3 O8 2.991773 1_545
Na4 O65 2.306817 1_555
Na4 O64 2.565263 1_555
Na4 O43 2.580813 1_555
Na4 O42 2.630139 1_455
Na4 O7 2.654067 1_555
Na4 O21 2.787999 1_555
Na4 O28 2.828792 1_555
Na4 O14 2.999483 1_555
Na5 O6 2.332776 1_555
Na5 O63 2.370750 1_555
Na5 O42 2.441823 1_565
Na5 O13 2.662514 1_565
Na5 O64 2.673943 1_555
Na5 O44 2.756988 1_555
Na6 O26 2.325347 1_554
Na6 O61 2.330692 1_555
Na6 O62 2.549277 1_555
Na6 O47 2.588373 1_565
Na6 O18 2.704445 1_565
Na6 O45 2.728269 1_455
Na6 O11 3.016153 1_555
Na7 O60 2.323747 1_555
Na7 O45 2.350797 1_555
Na7 O24 2.534218 1_554
Na7 O62 2.567586 1_555
Na7 O46 2.690772 1_565
Na7 O9 2.794405 1_555
Na7 O19 2.836025 1_555
Na7 O17 2.934460 1_555
Na8 O40 2.363711 1_655
Na8 O41 2.463684 1_555
Na8 O55 2.520663 1_555
Na8 O4 2.613884 1_555
Na8 O54 2.668088 1_555
Na8 O19 2.766292 1_556
Na8 O26 2.893950 1_655
Na8 O33 2.910311 1_655
Na9 O3 2.280726 1_555
Na9 O40 2.367156 1_545
Na9 O56 2.443710 1_555
Na9 O39 2.526258 1_555
Na9 O54 2.622932 1_555
Na9 O35 2.897689 1_555
Na9 O18 2.921997 1_556
Na10 O23 2.375983 1_555
Na10 O38 2.383062 1_655
Na10 O59 2.539367 1_555
Na10 O37 2.587986 1_545
Na10 O57 2.658715 1_555
Na10 O28 2.693805 1_655
Na11 O38 2.358307 1_555
Na11 O58 2.461560 1_555
Na11 O0 2.502648 1_555
Na11 O36 2.537861 1_545
Na11 O21 2.551408 1_555
Na11 O57 2.642665 1_555
Na11 O29 2.917443 1_545
Na11 O31 3.015087 1_545
Na12 O43 2.345521 1_565
Na12 O42 2.388554 1_465
Na12 O44 2.534688 1_455
Na12 O38 2.615037 1_565
Na12 O36 2.755702 1_555
Na12 O37 2.793454 1_455
Na13 O40 2.357260 1_545
Na13 O39 2.470507 1_555
Na13 O47 2.520739 1_556
Na13 O41 2.563177 1_445
Na13 O45 2.658686 1_446
Na13 O46 2.801328 1_456
Na14 O48 2.268642 1_555
Na14 O49 2.340263 1_555
Na14 O56 2.557287 1_555
Na14 O50 2.648411 1_555
Na14 O55 2.799097 1_555
Na14 O54 2.815682 1_555
Na15 O53 2.352081 1_555
Na15 O58 2.422472 1_555
Na15 O57 2.554802 1_555
Na15 O51 2.580211 1_555
Na15 O52 2.682099 1_555
Na15 O59 2.711753 1_555
Na16 O61 2.250452 1_555
Na16 O60 2.338293 1_555
Na16 O62 2.579410 1_555
Na16 O68 2.709868 1_555
Na16 O66 2.726137 1_555
Na16 O67 2.803893 1_555
Na17 O65 2.398084 1_555
Na17 O63 2.476954 1_555
Na17 O71 2.552779 1_555
Na17 O70 2.633367 1_555
Na17 O64 2.654803 1_555
Na17 O69 2.692344 1_555
Mg0 O0 1.961512 1_555
Mg0 O38 2.027849 1_555
Mg0 O2 2.091169 1_455
Mg0 O1 2.111271 1_445
Mg0 O36 2.161001 1_545
Mg0 O37 2.234352 1_445
Mg1 O5 1.901823 1_455
Mg1 O3 1.955335 1_555
Mg1 O4 2.094248 1_445
Mg1 O40 2.125833 1_545
Mg1 O39 2.302182 1_555
Mg1 O41 2.422953 1_445
Mg2 O12 1.982991 1_555
Mg2 O13 1.985663 1_555
Mg2 O49 2.037649 1_555
Mg2 O48 2.077591 1_555
Mg2 O14 2.158542 1_555
Mg2 O50 2.283649 1_555
Mg3 O17 1.964198 1_555
Mg3 O15 1.987715 1_555
Mg3 O16 2.029945 1_555
Mg3 O53 2.071812 1_555
Mg3 O52 2.305110 1_555
Mg3 O51 2.433931 1_555
Mg4 O26 1.965480 1_554
Mg4 O60 1.997508 1_555
Mg4 O25 2.015843 1_554
Mg4 O61 2.031012 1_555
Mg4 O24 2.325130 1_554
Mg4 O62 2.338032 1_555
Mg5 O63 1.964885 1_555
Mg5 O28 1.974198 1_555
Mg5 O65 1.977768 1_555
Mg5 O29 2.124099 1_555
Mg5 O64 2.218017 1_555
Mg5 O27 2.394428 1_555
O0 Si0 1.607651 1_545
O1 S0 1.463098 1_555
O2 S1 1.457078 1_555
O3 Si1 1.613165 1_555
O4 S2 1.469453 1_555
O5 Si2 1.586242 1_555
O6 Si2 1.684445 1_565
O6 Sn0 1.979886 1_665
O7 Si1 1.693111 1_555
O7 Sn0 2.005062 1_555
O8 S2 1.499045 1_455
O8 Sn0 2.192126 1_565
O9 S0 1.509102 1_555
O9 Sn1 2.227998 1_655
O10 S1 1.506013 1_455
O10 Sn1 2.193545 1_545
O11 Si0 1.694795 1_555
O11 Sn1 1.994943 1_555
O12 Si3 1.578687 1_555
O13 Si4 1.594044 1_555
O14 S3 1.446679 1_555
O15 Si5 1.603430 1_555
O16 S4 1.457630 1_555
O17 Si6 1.612739 1_555
O18 Si6 1.685099 1_555
O18 Sn2 2.007528 1_554
O19 Si5 1.681428 1_555
O19 Sn2 1.994373 1_554
O20 S4 1.502965 1_555
O20 Sn2 2.146130 1_554
O21 Si4 1.727122 1_555
O21 Sn3 1.995963 1_555
O22 S3 1.537979 1_555
O22 Sn3 2.064688 1_555
O23 Si3 1.727429 1_555
O23 Sn3 1.978389 1_555
O24 S5 1.462684 1_555
O25 S6 1.465379 1_555
O26 Si7 1.604791 1_555
O27 S7 1.448429 1_555
O28 Si8 1.588874 1_555
O29 S8 1.459845 1_555
O30 S8 1.544419 1_555
O30 Sn4 2.159236 1_555
O31 S7 1.535199 1_555
O31 Sn4 2.086416 1_555
O32 Si8 1.711698 1_555
O32 Sn4 1.971429 1_555
O33 S6 1.500070 1_555
O33 Sn5 2.390365 1_555
O34 Si7 1.666945 1_555
O34 Sn5 1.978969 1_555
O35 S5 1.505164 1_555
O35 Sn5 2.135370 1_555
O36 S8 1.470925 1_555
O37 S7 1.466300 1_555
O38 Si8 1.645571 1_555
O39 S6 1.471144 1_555
O40 Si7 1.647490 1_555
O41 S5 1.466116 1_555
O42 Si3 1.693377 1_555
O42 Sn0 2.081811 1_655
O43 Si4 1.661037 1_555
O43 Sn0 2.034196 1_555
O44 S3 1.482086 1_555
O44 Sn0 2.290639 1_665
O45 Si5 1.712149 1_555
O45 Sn1 2.020028 1_655
O46 S4 1.496483 1_555
O46 Sn1 2.166929 1_645
O47 Si6 1.680474 1_555
O47 Sn1 1.994207 1_545
O48 Si2 1.628638 1_555
O49 Si1 1.601609 1_555
O50 S2 1.459781 1_555
O51 S0 1.476742 1_555
O52 S1 1.462988 1_555
O53 Si0 1.615389 1_545
O54 S5 1.530164 1_555
O54 Sn2 2.225302 1_555
O55 S6 1.517366 1_655
O55 Sn2 2.234825 1_555
O56 Si7 1.693360 1_545
O56 Sn2 2.014929 1_555
O57 S7 1.519796 1_545
O57 Sn3 2.375196 1_555
O58 Si8 1.690849 1_555
O58 Sn3 2.044224 1_555
O59 S8 1.489590 1_655
O59 Sn3 2.458240 1_555
O60 Si6 1.609019 1_555
O61 Si5 1.607529 1_455
O62 S4 1.474022 1_565
O63 Si4 1.609478 1_565
O64 S3 1.478807 1_555
O65 Si3 1.610145 1_455
O66 Si0 1.703268 1_555
O66 Sn4 1.990955 1_555
O67 S0 1.513234 1_555
O67 Sn4 2.210073 1_555
O68 S1 1.536526 1_455
O68 Sn4 2.282677 1_555
O69 Si1 1.681475 1_555
O69 Sn5 1.982331 1_555
O70 S2 1.523058 1_455
O70 Sn5 2.205377 1_555
O71 Si2 1.683251 1_565
O71 Sn5 1.987684 1_555
