# generated using pymatgen
data_Na8Mg3Si3Ge(SO8)3
_symmetry_space_group_name_H-M   'P 1'
_cell_length_a   9.05026212
_cell_length_b   9.07537614
_cell_length_c   21.99160372
_cell_angle_alpha   90.24237185
_cell_angle_beta   88.86432181
_cell_angle_gamma   120.40584545
_symmetry_Int_Tables_number   1
_chemical_formula_structural   Na8Mg3Si3Ge(SO8)3
_chemical_formula_sum   'Na24 Mg9 Si9 Ge3 S9 O72'
_cell_volume   1557.49812840
_cell_formula_units_Z   3
loop_
 _symmetry_equiv_pos_site_id
 _symmetry_equiv_pos_as_xyz
  1  'x, y, z'
loop_
 _atom_site_type_symbol
 _atom_site_label
 _atom_site_symmetry_multiplicity
 _atom_site_fract_x
 _atom_site_fract_y
 _atom_site_fract_z
 _atom_site_occupancy
  Na  Na0  1  0.63147514  0.99647908  0.25919079  1
  Na  Na1  1  0.36803522  0.36721807  0.24431953  1
  Na  Na2  1  0.99981025  0.62520694  0.25186236  1
  Na  Na3  1  0.63932931  0.64580641  0.73511938  1
  Na  Na4  1  0.98825218  0.34994567  0.75157420  1
  Na  Na5  1  0.38027297  0.00980942  0.74034864  1
  Na  Na6  1  0.31303580  0.33128634  0.58317625  1
  Na  Na7  1  0.04193349  0.71665028  0.57325793  1
  Na  Na8  1  0.65183006  0.94390349  0.58294131  1
  Na  Na9  1  0.28301225  0.95751071  0.07457056  1
  Na  Na10  1  0.66616484  0.68572053  0.08400306  1
  Na  Na11  1  0.05469695  0.34936578  0.07945456  1
  Na  Na12  1  0.98300254  0.67593889  0.92234678  1
  Na  Na13  1  0.70759099  0.04185244  0.90834658  1
  Na  Na14  1  0.31567686  0.28995001  0.92270764  1
  Na  Na15  1  0.96766552  0.30717725  0.41599327  1
  Na  Na16  1  0.32871887  0.00905988  0.42528355  1
  Na  Na17  1  0.70687917  0.68574909  0.42891506  1
  Na  Na18  1  0.99181366  0.98147478  0.50031728  1
  Na  Na19  1  0.01879403  0.00933423  0.99989446  1
  Na  Na20  1  0.66686326  0.31902502  0.83229525  1
  Na  Na21  1  0.67650470  0.33189965  0.34067005  1
  Na  Na22  1  0.31905654  0.65265595  0.15922765  1
  Na  Na23  1  0.35368160  0.68349811  0.65879721  1
  Mg  Mg0  1  0.99664274  0.99306245  0.35559124  1
  Mg  Mg1  1  0.99944741  0.00875719  0.85206867  1
  Mg  Mg2  1  0.98109614  0.98235088  0.64373717  1
  Mg  Mg3  1  0.00861729  0.99814911  0.14271588  1
  Mg  Mg4  1  0.65915028  0.32443006  0.68117997  1
  Mg  Mg5  1  0.66306346  0.33773194  0.17908559  1
  Mg  Mg6  1  0.32178615  0.66167526  0.01880473  1
  Mg  Mg7  1  0.34206416  0.68277356  0.51738128  1
  Mg  Mg8  1  0.33033920  0.68086933  0.33014492  1
  Si  Si0  1  0.69956639  0.99574593  0.75381845  1
  Si  Si1  1  0.37180689  0.04064651  0.58527118  1
  Si  Si2  1  0.66156943  0.61857271  0.58444232  1
  Si  Si3  1  0.95759213  0.62311360  0.08471696  1
  Si  Si4  1  0.37695906  0.33746757  0.08415466  1
  Si  Si5  1  0.04157971  0.37730422  0.91882950  1
  Si  Si6  1  0.33875317  0.97080036  0.92159443  1
  Si  Si7  1  0.63580838  0.97361942  0.41735991  1
  Si  Si8  1  0.02875121  0.65832351  0.41789072  1
  Ge  Ge0  1  0.66841429  0.33062812  0.98386492  1
  Ge  Ge1  1  0.66929299  0.33216712  0.48532847  1
  Ge  Ge2  1  0.33649989  0.69303105  0.82277575  1
  S  S0  1  0.29536540  0.00045144  0.24877020  1
  S  S1  1  0.70427495  0.70601816  0.25026239  1
  S  S2  1  0.00113753  0.29057276  0.24869975  1
  S  S3  1  0.29360919  0.29696506  0.75123141  1
  S  S4  1  0.00408289  0.70709893  0.75204083  1
  S  S5  1  0.95934752  0.33322812  0.58408678  1
  S  S6  1  0.66827437  0.04326658  0.08429792  1
  S  S7  1  0.62292582  0.66496897  0.91643028  1
  S  S8  1  0.33446401  0.37384460  0.41433382  1
  O  O0  1  0.21367954  0.02420137  0.30371636  1
  O  O1  1  0.80807931  0.79206894  0.30380081  1
  O  O2  1  0.98666230  0.19021774  0.30341108  1
  O  O3  1  0.21225301  0.19092127  0.80631867  1
  O  O4  1  0.98259149  0.78668746  0.80774687  1
  O  O5  1  0.80957149  0.01724497  0.81294925  1
  O  O6  1  0.77271480  0.95084284  0.69275251  1
  O  O7  1  0.19199222  0.21442449  0.69663258  1
  O  O8  1  0.03040466  0.81123181  0.69736553  1
  O  O9  1  0.78604928  0.80923777  0.19420789  1
  O  O10  1  0.01559664  0.20477144  0.19300299  1
  O  O11  1  0.19400233  0.98206666  0.19421831  1
  O  O12  1  0.88182703  0.36165666  0.63907805  1
  O  O13  1  0.48695832  0.11902039  0.64432020  1
  O  O14  1  0.64420892  0.51345103  0.64585075  1
  O  O15  1  0.87647869  0.50533534  0.14472575  1
  O  O16  1  0.63833919  0.12006764  0.13868167  1
  O  O17  1  0.48172604  0.35976280  0.14538480  1
  O  O18  1  0.47361599  0.29784438  0.02315699  1
  O  O19  1  0.82790068  0.52381066  0.02306766  1
  O  O20  1  0.70189782  0.15313400  0.02771683  1
  O  O21  1  0.47172933  0.17131950  0.52384697  1
  O  O22  1  0.69470839  0.52170280  0.52372538  1
  O  O23  1  0.85017597  0.30200135  0.52859651  1
  O  O24  1  0.54663792  0.69194473  0.97139223  1
  O  O25  1  0.16068781  0.45822124  0.97582083  1
  O  O26  1  0.31384674  0.85270593  0.97860954  1
  O  O27  1  0.55112105  0.84232013  0.47387761  1
  O  O28  1  0.30569230  0.44863370  0.46910650  1
  O  O29  1  0.14996304  0.68503014  0.47455638  1
  O  O30  1  0.09599409  0.61094366  0.35488823  1
  O  O31  1  0.51886666  0.90258862  0.35620090  1
  O  O32  1  0.35878073  0.48030409  0.35892028  1
  O  O33  1  0.13998326  0.51426551  0.85615119  1
  O  O34  1  0.38125685  0.88877735  0.85863048  1
  O  O35  1  0.51184032  0.63789942  0.86162731  1
  O  O36  1  0.01120777  0.82892213  0.41157633  1
  O  O37  1  0.83155867  0.01236739  0.40952961  1
  O  O38  1  0.18431505  0.19845703  0.40744723  1
  O  O39  1  0.00999497  0.18650467  0.91026052  1
  O  O40  1  0.17034239  0.98744228  0.91133443  1
  O  O41  1  0.79818732  0.81193486  0.90908460  1
  O  O42  1  0.97381900  0.17779746  0.58905562  1
  O  O43  1  0.18632220  0.03373961  0.58658441  1
  O  O44  1  0.83276286  0.80958311  0.58163945  1
  O  O45  1  0.96337526  0.80692259  0.08445851  1
  O  O46  1  0.82481521  0.02969121  0.08883714  1
  O  O47  1  0.18488280  0.16796979  0.08378689  1
  O  O48  1  0.67681544  0.16388028  0.74954931  1
  O  O49  1  0.47050271  0.32287932  0.74809852  1
  O  O50  1  0.85178669  0.53118340  0.74783926  1
  O  O51  1  0.68768750  0.53235679  0.24757245  1
  O  O52  1  0.84223772  0.30522938  0.24798827  1
  O  O53  1  0.47355690  0.15400866  0.24442726  1
  O  O54  1  0.63333986  0.50482026  0.91786517  1
  O  O55  1  0.84805425  0.36608824  0.92274655  1
  O  O56  1  0.52113079  0.16502738  0.92431543  1
  O  O57  1  0.64561548  0.16453364  0.42773496  1
  O  O58  1  0.49278132  0.36038730  0.41683960  1
  O  O59  1  0.83044488  0.48273715  0.42619711  1
  O  O60  1  0.37000357  0.51264098  0.07706789  1
  O  O61  1  0.15078298  0.65434270  0.07964536  1
  O  O62  1  0.51745385  0.87126906  0.07719097  1
  O  O63  1  0.34334547  0.84886500  0.57897359  1
  O  O64  1  0.48647496  0.62738443  0.57780222  1
  O  O65  1  0.13168266  0.48447269  0.57549317  1
  O  O66  1  0.31004495  0.84284637  0.25217700  1
  O  O67  1  0.52795866  0.68288627  0.25528747  1
  O  O68  1  0.15796380  0.46512955  0.24966794  1
  O  O69  1  0.30650763  0.46856350  0.75624168  1
  O  O70  1  0.16409698  0.69124022  0.75529245  1
  O  O71  1  0.49393499  0.80508493  0.76081228  1
loop_
_geom_bond_atom_site_label_1
_geom_bond_atom_site_label_2
_geom_bond_distance
_geom_bond_site_symmetry_2
Na0 O31 2.316526 1_555
Na0 O52 2.475371 1_565
Na0 O53 2.506488 1_565
Na0 O67 2.507358 1_555
Na0 O66 2.518047 1_555
Na1 O17 2.403659 1_555
Na1 O68 2.473518 1_555
Na1 O67 2.484144 1_555
Na1 O51 2.497773 1_555
Na1 O53 2.554744 1_555
Na1 O32 2.732900 1_555
Na2 O30 2.470353 1_655
Na2 O66 2.484271 1_655
Na2 O68 2.502612 1_655
Na2 O52 2.506890 1_555
Na2 O51 2.509751 1_555
Na2 O15 2.614193 1_555
Na3 O14 2.308480 1_555
Na3 O71 2.455450 1_555
Na3 O49 2.542054 1_555
Na3 O6 2.565821 1_555
Na3 O50 2.627919 1_555
Na3 O69 2.631060 1_555
Na3 O35 2.977785 1_555
Na4 O48 2.446300 1_555
Na4 O50 2.509762 1_555
Na4 O69 2.517473 1_655
Na4 O70 2.673291 1_655
Na4 O12 2.694408 1_555
Na4 O33 2.724335 1_655
Na4 O5 2.925579 1_555
Na4 O7 2.926981 1_655
Na5 O13 2.311400 1_555
Na5 O48 2.327947 1_555
Na5 O49 2.534032 1_555
Na5 O70 2.559550 1_545
Na5 O71 2.583161 1_545
Na5 O34 2.829816 1_545
Na5 O8 2.914689 1_545
Na6 O64 2.329067 1_555
Na6 O43 2.340146 1_555
Na6 O65 2.641552 1_555
Na6 O42 2.653111 1_455
Na6 O7 2.699688 1_555
Na6 O28 2.744521 1_555
Na6 O21 2.809440 1_555
Na6 O14 2.957175 1_555
Na7 O63 2.365555 1_555
Na7 O44 2.435145 1_455
Na7 O29 2.438108 1_555
Na7 O43 2.505241 1_565
Na7 O65 2.614756 1_555
Na7 O8 2.873402 1_555
Na7 O22 2.946772 1_455
Na8 O63 2.473374 1_555
Na8 O64 2.481189 1_555
Na8 O44 2.487282 1_555
Na8 O27 2.578909 1_555
Na8 O42 2.601432 1_565
Na8 O6 2.658279 1_555
Na9 O26 2.380004 1_554
Na9 O61 2.383061 1_555
Na9 O47 2.486865 1_565
Na9 O45 2.501806 1_455
Na9 O62 2.608441 1_555
Na9 O11 2.777551 1_555
Na9 O18 2.890138 1_565
Na10 O60 2.329639 1_555
Na10 O45 2.334792 1_555
Na10 O62 2.640764 1_555
Na10 O9 2.675375 1_555
Na10 O46 2.698866 1_565
Na10 O24 2.734158 1_554
Na10 O19 2.860107 1_555
Na10 O17 2.881927 1_555
Na11 O61 2.445515 1_555
Na11 O60 2.460901 1_555
Na11 O25 2.462401 1_554
Na11 O47 2.465058 1_555
Na11 O46 2.581876 1_455
Na11 O10 2.757795 1_555
Na12 O55 2.433614 1_555
Na12 O40 2.462312 1_655
Na12 O41 2.553050 1_555
Na12 O19 2.593011 1_556
Na12 O4 2.717974 1_555
Na12 O54 2.733533 1_555
Na12 O33 2.881052 1_655
Na12 O26 2.887508 1_655
Na13 O5 2.330447 1_555
Na13 O39 2.362769 1_655
Na13 O56 2.470491 1_555
Na13 O55 2.568382 1_555
Na13 O41 2.599804 1_545
Na13 O34 2.794625 1_545
Na13 O20 2.817597 1_556
Na14 O40 2.383625 1_545
Na14 O39 2.451255 1_555
Na14 O54 2.528631 1_555
Na14 O56 2.623126 1_555
Na14 O18 2.635967 1_556
Na14 O3 2.731166 1_555
Na14 O25 2.784287 1_555
Na15 O37 2.315938 1_555
Na15 O59 2.473854 1_555
Na15 O57 2.528103 1_555
Na15 O38 2.606810 1_655
Na15 O23 2.666660 1_555
Na15 O2 2.726124 1_555
Na15 O30 2.735524 1_655
Na15 O28 2.919729 1_655
Na16 O57 2.475567 1_555
Na16 O36 2.509132 1_545
Na16 O21 2.587841 1_555
Na16 O38 2.667612 1_555
Na16 O29 2.753339 1_545
Na16 O58 2.758102 1_555
Na16 O31 2.787534 1_545
Na16 O0 2.916931 1_555
Na17 O36 2.399922 1_655
Na17 O22 2.535177 1_555
Na17 O59 2.594352 1_555
Na17 O58 2.601187 1_555
Na17 O37 2.616738 1_565
Na17 O27 2.635210 1_555
Na17 O1 2.892824 1_555
Na18 O44 2.313547 1_555
Na18 O36 2.442475 1_655
Na18 O43 2.490499 1_665
Na18 O37 2.588343 1_565
Na18 O42 2.694630 1_565
Na18 O38 2.739426 1_665
Na19 O47 2.373352 1_556
Na19 O40 2.424945 1_545
Na19 O45 2.478664 1_446
Na19 O39 2.576800 1_555
Na19 O46 2.670422 1_456
Na19 O41 2.773272 1_445
Na20 O48 2.324248 1_555
Na20 O56 2.416670 1_555
Na20 O55 2.498278 1_555
Na20 O50 2.569636 1_555
Na20 O49 2.604183 1_555
Na20 O54 2.635298 1_555
Na21 O59 2.346101 1_555
Na21 O57 2.371681 1_555
Na21 O58 2.441016 1_555
Na21 O52 2.589371 1_555
Na21 O51 2.710802 1_555
Na21 O53 2.753777 1_555
Na22 O61 2.347764 1_555
Na22 O60 2.373285 1_555
Na22 O68 2.525840 1_555
Na22 O62 2.590554 1_555
Na22 O66 2.696350 1_555
Na22 O67 2.782225 1_555
Na23 O64 2.324520 1_555
Na23 O63 2.348097 1_555
Na23 O71 2.556585 1_555
Na23 O65 2.664550 1_555
Na23 O70 2.725538 1_555
Na23 O69 2.781287 1_555
Mg0 O37 1.965425 1_565
Mg0 O36 1.993229 1_655
Mg0 O1 2.108386 1_555
Mg0 O38 2.124611 1_665
Mg0 O0 2.142794 1_665
Mg0 O2 2.170597 1_565
Mg1 O5 1.972864 1_555
Mg1 O39 2.020026 1_655
Mg1 O3 2.041794 1_655
Mg1 O40 2.124414 1_645
Mg1 O4 2.170966 1_545
Mg1 O41 2.171536 1_545
Mg2 O44 2.012323 1_555
Mg2 O6 2.043645 1_555
Mg2 O43 2.069444 1_665
Mg2 O42 2.176248 1_565
Mg2 O8 2.177073 1_655
Mg2 O7 2.330273 1_665
Mg3 O47 2.011421 1_565
Mg3 O45 2.025722 1_455
Mg3 O11 2.108007 1_555
Mg3 O10 2.146766 1_565
Mg3 O9 2.170103 1_455
Mg3 O46 2.194534 1_465
Mg4 O13 1.912433 1_555
Mg4 O14 1.953177 1_555
Mg4 O12 2.066946 1_555
Mg4 O48 2.161731 1_555
Mg4 O49 2.226455 1_555
Mg4 O50 2.340070 1_555
Mg5 O15 1.895569 1_555
Mg5 O17 1.914222 1_555
Mg5 O16 2.070589 1_555
Mg5 O53 2.194169 1_555
Mg5 O51 2.242823 1_555
Mg5 O52 2.365998 1_555
Mg6 O25 1.934788 1_554
Mg6 O26 1.983369 1_554
Mg6 O61 2.001047 1_555
Mg6 O60 2.072632 1_555
Mg6 O24 2.157819 1_554
Mg6 O62 2.250009 1_555
Mg7 O27 1.938678 1_555
Mg7 O29 2.002774 1_555
Mg7 O63 2.018063 1_555
Mg7 O64 2.113271 1_555
Mg7 O65 2.225244 1_555
Mg7 O28 2.244416 1_555
Mg8 O30 1.947240 1_555
Mg8 O31 1.960143 1_555
Mg8 O32 2.066476 1_555
Mg8 O66 2.332753 1_555
Mg8 O67 2.399915 1_555
Mg8 O68 2.527396 1_555
Ge0 O18 1.831421 1_556
Ge0 O19 1.837219 1_556
Ge0 O56 1.942988 1_555
Ge0 O55 1.985136 1_555
Ge0 O20 2.033580 1_556
Ge0 O54 2.291767 1_555
Ge1 O22 1.821982 1_555
Ge1 O21 1.831340 1_555
Ge1 O59 1.899448 1_555
Ge1 O57 1.905008 1_555
Ge1 O23 2.043982 1_555
Ge1 O58 2.323549 1_555
Ge2 O34 1.792786 1_555
Ge2 O33 1.836173 1_555
Ge2 O71 1.840989 1_555
Ge2 O35 2.087964 1_555
Ge2 O70 2.168673 1_555
Ge2 O69 2.407342 1_555
O0 S0 1.475395 1_555
O1 S1 1.473816 1_555
O2 S2 1.475317 1_655
O3 S3 1.480938 1_555
O4 S4 1.478379 1_655
O5 Si0 1.603987 1_545
O6 Si0 1.625121 1_555
O7 S3 1.479002 1_555
O8 S4 1.471732 1_555
O9 S1 1.488856 1_555
O10 S2 1.487438 1_555
O11 S0 1.481766 1_565
O12 S5 1.472498 1_555
O13 Si1 1.604309 1_555
O14 Si2 1.615354 1_555
O15 Si3 1.613149 1_555
O16 S6 1.469978 1_555
O17 Si4 1.614703 1_555
O18 Si4 1.720989 1_555
O19 Si3 1.734923 1_555
O20 S6 1.524285 1_555
O21 Si1 1.711268 1_555
O22 Si2 1.699069 1_555
O23 S5 1.518926 1_555
O24 S7 1.460511 1_555
O25 Si5 1.586374 1_555
O26 Si6 1.589728 1_555
O27 Si7 1.613214 1_555
O28 S8 1.462517 1_555
O29 Si8 1.611702 1_555
O30 Si8 1.643576 1_555
O31 Si7 1.644121 1_555
O32 S8 1.500355 1_555
O33 Si5 1.755964 1_555
O34 Si6 1.696890 1_555
O35 S7 1.522868 1_555
O36 Si8 1.641061 1_555
O37 Si7 1.627776 1_545
O38 S8 1.489876 1_555
O39 Si5 1.616764 1_555
O40 Si6 1.625954 1_555
O41 S7 1.473478 1_555
O42 S5 1.485847 1_555
O43 Si1 1.647522 1_555
O44 Si2 1.639427 1_555
O45 Si3 1.642297 1_555
O46 S6 1.488178 1_555
O47 Si4 1.637628 1_555
O48 Si0 1.643026 1_545
O49 S3 1.495890 1_555
O50 S4 1.494485 1_655
O51 S1 1.506657 1_555
O52 S2 1.510153 1_655
O53 S0 1.507329 1_555
O54 S7 1.503810 1_555
O55 Si5 1.702648 1_655
O56 Si6 1.700875 1_545
O57 Si7 1.704024 1_545
O58 S8 1.500408 1_555
O59 Si8 1.699477 1_655
O60 Si4 1.630763 1_555
O61 Si3 1.625024 1_455
O62 S6 1.474372 1_565
O63 Si1 1.631073 1_565
O64 Si2 1.635966 1_555
O65 S5 1.475069 1_455
O66 S0 1.504243 1_565
O67 S1 1.502227 1_555
O68 S2 1.499818 1_555
O69 S3 1.505342 1_555
O70 S4 1.529115 1_555
O71 Si0 1.792310 1_555
