# generated using pymatgen
data_MgNb3SiO10
_symmetry_space_group_name_H-M   'P 1'
_cell_length_a   5.00228061
_cell_length_b   5.55726086
_cell_length_c   6.71781878
_cell_angle_alpha   102.48897149
_cell_angle_beta   110.95198011
_cell_angle_gamma   88.36420100
_symmetry_Int_Tables_number   1
_chemical_formula_structural   MgNb3SiO10
_chemical_formula_sum   'Mg1 Nb3 Si1 O10'
_cell_volume   170.03016220
_cell_formula_units_Z   1
loop_
 _symmetry_equiv_pos_site_id
 _symmetry_equiv_pos_as_xyz
  1  'x, y, z'
loop_
 _atom_site_type_symbol
 _atom_site_label
 _atom_site_symmetry_multiplicity
 _atom_site_fract_x
 _atom_site_fract_y
 _atom_site_fract_z
 _atom_site_occupancy
  Mg  Mg0  1  0.23143100  0.86611800  0.95763700  1
  Nb  Nb0  1  0.59794400  0.71192500  0.68939100  1
  Nb  Nb1  1  0.10966300  0.24088100  0.70234900  1
  Nb  Nb2  1  0.87277300  0.75939800  0.28456000  1
  Si  Si0  1  0.39967300  0.28568200  0.29584900  1
  O  O0  1  0.26907400  0.59628700  0.38704500  1
  O  O1  1  0.64814700  0.48081300  0.22691700  1
  O  O2  1  0.43708100  0.01392000  0.77283800  1
  O  O3  1  0.89878900  0.87218200  0.61485000  1
  O  O4  1  0.32666800  0.54887500  0.79800000  1
  O  O5  1  0.69672500  0.35622900  0.56742400  1
  O  O6  1  0.15722900  0.23725700  0.02027500  1
  O  O7  1  0.89045200  0.73912200  0.99474500  1
  O  O8  1  0.55300000  0.99859100  0.23356700  1
  O  O9  1  0.16135100  0.15521900  0.40825900  1
loop_
_geom_bond_atom_site_label_1
_geom_bond_atom_site_label_2
_geom_bond_distance
_geom_bond_site_symmetry_2
Mg0 O8 1.977487 1_556
Mg0 O7 1.979508 1_455
Mg0 O4 1.996225 1_555
Mg0 O6 2.064326 1_566
Mg0 O2 2.162571 1_565
Mg0 O3 2.315757 1_455
Nb0 O2 1.901826 1_565
Nb0 O7 2.025748 1_555
Nb0 O3 2.029041 1_555
Nb0 O4 2.063744 1_555
Nb0 O0 2.085881 1_555
Nb0 O5 2.087133 1_555
Nb1 O4 1.911122 1_555
Nb1 O2 2.020714 1_555
Nb1 O9 2.036705 1_555
Nb1 O6 2.067226 1_556
Nb1 O5 2.082305 1_455
Nb1 O3 2.194426 1_445
Nb2 O1 1.827074 1_555
Nb2 O7 1.959265 1_554
Nb2 O8 2.031413 1_555
Nb2 O0 2.101624 1_655
Nb2 O3 2.128296 1_555
Nb2 O9 2.479068 1_665
O0 Si0 1.883102 1_555
O1 Si0 1.908141 1_555
O5 Si0 1.864202 1_555
O6 Si0 1.779855 1_555
O8 Si0 1.783166 1_565
O9 Si0 1.856639 1_555
