# generated using pymatgen
data_Na4Al2Si3Ge2(SO8)3
_symmetry_space_group_name_H-M   'P 1'
_cell_length_a   8.62960453
_cell_length_b   8.62722090
_cell_length_c   21.87167641
_cell_angle_alpha   89.92343557
_cell_angle_beta   87.59791449
_cell_angle_gamma   119.67727375
_symmetry_Int_Tables_number   1
_chemical_formula_structural   Na4Al2Si3Ge2(SO8)3
_chemical_formula_sum   'Na12 Al6 Si9 Ge6 S9 O72'
_cell_volume   1413.04263030
_cell_formula_units_Z   3
loop_
 _symmetry_equiv_pos_site_id
 _symmetry_equiv_pos_as_xyz
  1  'x, y, z'
loop_
 _atom_site_type_symbol
 _atom_site_label
 _atom_site_symmetry_multiplicity
 _atom_site_fract_x
 _atom_site_fract_y
 _atom_site_fract_z
 _atom_site_occupancy
  Na  Na0  1  0.99790634  0.63932901  0.25352164  1
  Na  Na1  1  0.99853505  0.36423941  0.74263686  1
  Na  Na2  1  0.66571011  0.97317766  0.58834053  1
  Na  Na3  1  0.66952442  0.70101697  0.08247281  1
  Na  Na4  1  0.33626684  0.30096079  0.90641969  1
  Na  Na5  1  0.32594968  0.02996568  0.42054116  1
  Na  Na6  1  0.00508438  0.99904138  0.50225513  1
  Na  Na7  1  0.99126637  0.98687282  0.99729120  1
  Na  Na8  1  0.65788309  0.32692314  0.82588387  1
  Na  Na9  1  0.65967784  0.33870745  0.33350023  1
  Na  Na10  1  0.33135787  0.67413167  0.16868943  1
  Na  Na11  1  0.32668329  0.66635593  0.66242258  1
  Al  Al0  1  0.99575328  0.97485247  0.35124271  1
  Al  Al1  1  0.98334012  0.99004146  0.84648296  1
  Al  Al2  1  0.65038420  0.30525330  0.68645774  1
  Al  Al3  1  0.67256217  0.34166775  0.19164960  1
  Al  Al4  1  0.33067305  0.67305906  0.01772193  1
  Al  Al5  1  0.30754161  0.66843686  0.52234864  1
  Si  Si0  1  0.29991477  0.00940433  0.25274804  1
  Si  Si1  1  0.70088632  0.70740538  0.25265204  1
  Si  Si2  1  0.29443113  0.28283989  0.75383828  1
  Si  Si3  1  0.71761657  0.00229878  0.74927210  1
  Si  Si4  1  0.95987014  0.34198564  0.58678947  1
  Si  Si5  1  0.37638332  0.04670745  0.58282625  1
  Si  Si6  1  0.96659164  0.62352642  0.08603537  1
  Si  Si7  1  0.63155409  0.67653187  0.91968819  1
  Si  Si8  1  0.03472596  0.65872149  0.41819223  1
  Ge  Ge0  1  0.02074570  0.03660107  0.64714613  1
  Ge  Ge1  1  0.00061534  0.97040572  0.15571157  1
  Ge  Ge2  1  0.68480156  0.36380820  0.98361576  1
  Ge  Ge3  1  0.68569346  0.34013994  0.48985090  1
  Ge  Ge4  1  0.33522557  0.67781781  0.31492493  1
  Ge  Ge5  1  0.36919707  0.66470040  0.80866875  1
  S  S0  1  0.99828620  0.27510191  0.24931778  1
  S  S1  1  0.00413401  0.71615408  0.75148586  1
  S  S2  1  0.66559941  0.61947172  0.58401127  1
  S  S3  1  0.66768223  0.05538688  0.08223901  1
  S  S4  1  0.37090115  0.32724775  0.08468370  1
  S  S5  1  0.04268935  0.38134432  0.91909732  1
  S  S6  1  0.33709352  0.95329092  0.91735240  1
  S  S7  1  0.62797469  0.95339041  0.41595041  1
  S  S8  1  0.32846066  0.38430556  0.41671904  1
  O  O0  1  0.20914484  0.04301399  0.31320916  1
  O  O1  1  0.83957812  0.80481452  0.30491219  1
  O  O2  1  0.97441511  0.16974303  0.30473476  1
  O  O3  1  0.20048352  0.16476272  0.81660379  1
  O  O4  1  0.97884907  0.79805605  0.80811412  1
  O  O5  1  0.83694669  0.03554535  0.80765604  1
  O  O6  1  0.80223853  0.95670682  0.68701728  1
  O  O7  1  0.16143840  0.21068390  0.69585228  1
  O  O8  1  0.04092785  0.82804776  0.69577376  1
  O  O9  1  0.77625947  0.82957183  0.18654886  1
  O  O10  1  0.03028670  0.19450445  0.19123805  1
  O  O11  1  0.16455595  0.94908497  0.19354241  1
  O  O12  1  0.86572780  0.37247429  0.64691324  1
  O  O13  1  0.50498655  0.13401447  0.63828274  1
  O  O14  1  0.63584710  0.50633218  0.63768671  1
  O  O15  1  0.86545272  0.49763580  0.14500100  1
  O  O16  1  0.64095328  0.13856051  0.13660113  1
  O  O17  1  0.48877573  0.35779383  0.13505481  1
  O  O18  1  0.44704500  0.29240227  0.02487597  1
  O  O19  1  0.83019317  0.54845756  0.02718976  1
  O  O20  1  0.69174485  0.16397145  0.02349589  1
  O  O21  1  0.46201499  0.17391340  0.51755267  1
  O  O22  1  0.70169639  0.54460308  0.52504790  1
  O  O23  1  0.82801646  0.28457637  0.52735557  1
  O  O24  1  0.53015286  0.69352523  0.98153222  1
  O  O25  1  0.15419602  0.47084770  0.97158665  1
  O  O26  1  0.31044895  0.84396326  0.97343556  1
  O  O27  1  0.54776781  0.84238104  0.47171035  1
  O  O28  1  0.31574376  0.47638543  0.47135318  1
  O  O29  1  0.17552416  0.70549711  0.47059253  1
  O  O30  1  0.12013603  0.61985643  0.35329828  1
  O  O31  1  0.51111663  0.87421707  0.36159575  1
  O  O32  1  0.36164602  0.49517361  0.35848114  1
  O  O33  1  0.11528504  0.48793574  0.86134827  1
  O  O34  1  0.36343866  0.87095494  0.86115017  1
  O  O35  1  0.49119318  0.61653166  0.86268727  1
  O  O36  1  0.01937647  0.84026469  0.41103394  1
  O  O37  1  0.80840032  0.97863675  0.40530669  1
  O  O38  1  0.16269130  0.20802837  0.41348830  1
  O  O39  1  0.02763982  0.20352407  0.91643166  1
  O  O40  1  0.17797337  0.97608854  0.91582537  1
  O  O41  1  0.82768838  0.84667492  0.90898355  1
  O  O42  1  0.96942591  0.15316073  0.58874894  1
  O  O43  1  0.17278705  0.01651069  0.59171025  1
  O  O44  1  0.82589419  0.79778612  0.58540802  1
  O  O45  1  0.97763669  0.82494444  0.09020860  1
  O  O46  1  0.83050324  0.03771363  0.08238433  1
  O  O47  1  0.18925999  0.16954753  0.09124573  1
  O  O48  1  0.69771267  0.17855119  0.74383361  1
  O  O49  1  0.49366392  0.31953461  0.74217937  1
  O  O50  1  0.84313386  0.53964320  0.74840466  1
  O  O51  1  0.69440110  0.51728801  0.24307261  1
  O  O52  1  0.83725149  0.29471261  0.24434104  1
  O  O53  1  0.49448849  0.17527885  0.23819371  1
  O  O54  1  0.63801986  0.48210715  0.92474337  1
  O  O55  1  0.85624052  0.35625941  0.92601513  1
  O  O56  1  0.49950993  0.13489127  0.92159778  1
  O  O57  1  0.63730207  0.13076740  0.41948486  1
  O  O58  1  0.48511300  0.35567514  0.41640643  1
  O  O59  1  0.83397826  0.47747915  0.42593584  1
  O  O60  1  0.35831317  0.49280126  0.07744496  1
  O  O61  1  0.16173060  0.64477289  0.07392346  1
  O  O62  1  0.50849014  0.87273942  0.07805837  1
  O  O63  1  0.37008859  0.85656181  0.57197320  1
  O  O64  1  0.50726099  0.64051221  0.57600526  1
  O  O65  1  0.15819007  0.50730905  0.57678875  1
  O  O66  1  0.30505684  0.81953808  0.25829727  1
  O  O67  1  0.49969287  0.68070275  0.26010282  1
  O  O68  1  0.15704307  0.45730239  0.24961143  1
  O  O69  1  0.29585044  0.47886641  0.75944628  1
  O  O70  1  0.16294097  0.68896001  0.75748210  1
  O  O71  1  0.51384937  0.82570470  0.75415538  1
loop_
_geom_bond_atom_site_label_1
_geom_bond_atom_site_label_2
_geom_bond_distance
_geom_bond_site_symmetry_2
Na0 O51 2.311010 1_555
Na0 O66 2.323071 1_655
Na0 O30 2.504118 1_655
Na0 O68 2.546638 1_655
Na0 O52 2.597108 1_555
Na0 O11 2.637689 1_655
Na0 O1 2.641135 1_555
Na0 O15 2.699262 1_555
Na1 O48 2.276455 1_555
Na1 O69 2.294248 1_655
Na1 O12 2.446059 1_555
Na1 O70 2.464075 1_655
Na1 O50 2.469836 1_555
Na1 O7 2.550581 1_655
Na1 O5 2.813443 1_555
Na1 O33 2.838538 1_655
Na2 O63 2.276935 1_555
Na2 O42 2.291849 1_565
Na2 O44 2.503713 1_555
Na2 O64 2.515211 1_555
Na2 O6 2.538575 1_555
Na2 O13 2.612476 1_565
Na2 O23 2.658196 1_565
Na2 O27 2.811468 1_555
Na3 O45 2.337651 1_555
Na3 O60 2.387393 1_555
Na3 O62 2.486926 1_555
Na3 O46 2.524162 1_565
Na3 O9 2.535939 1_555
Na3 O24 2.543780 1_554
Na3 O19 2.605275 1_555
Na3 O17 2.791145 1_555
Na4 O54 2.333065 1_555
Na4 O3 2.334175 1_555
Na4 O39 2.362536 1_555
Na4 O40 2.438733 1_545
Na4 O56 2.486745 1_555
Na4 O35 2.529012 1_555
Na4 O18 2.812253 1_556
Na4 O25 2.957449 1_555
Na5 O36 2.341038 1_545
Na5 O57 2.378434 1_555
Na5 O58 2.440846 1_555
Na5 O21 2.488967 1_555
Na5 O38 2.555237 1_555
Na5 O0 2.617174 1_555
Na5 O29 2.644578 1_545
Na5 O31 2.824710 1_545
Na6 O42 2.409239 1_465
Na6 O44 2.410528 1_455
Na6 O43 2.442807 1_565
Na6 O36 2.454833 1_555
Na6 O38 2.492180 1_565
Na6 O37 2.723023 1_455
Na7 O40 2.384884 1_655
Na7 O41 2.393769 1_555
Na7 O45 2.430055 1_556
Na7 O46 2.443185 1_566
Na7 O39 2.466464 1_665
Na7 O47 2.694881 1_666
Na8 O48 2.316731 1_555
Na8 O49 2.343583 1_555
Na8 O50 2.377960 1_555
Na8 O56 2.550248 1_555
Na8 O54 2.588611 1_555
Na8 O55 2.770763 1_555
Na9 O58 2.359850 1_555
Na9 O51 2.420774 1_555
Na9 O59 2.502263 1_555
Na9 O57 2.531761 1_555
Na9 O52 2.573412 1_555
Na9 O53 2.575249 1_555
Na10 O66 2.391128 1_555
Na10 O68 2.424083 1_555
Na10 O67 2.504620 1_555
Na10 O62 2.518957 1_555
Na10 O61 2.528151 1_555
Na10 O60 2.610336 1_555
Na11 O65 2.400924 1_555
Na11 O63 2.463162 1_555
Na11 O64 2.479674 1_555
Na11 O70 2.526870 1_555
Na11 O71 2.569901 1_555
Na11 O69 2.589914 1_555
Al0 O1 1.776478 1_555
Al0 O0 1.796341 1_665
Al0 O36 1.831012 1_655
Al0 O37 1.976209 1_555
Al0 O2 2.052636 1_565
Al0 O38 2.297304 1_665
Al1 O5 1.746819 1_565
Al1 O3 1.818873 1_665
Al1 O4 1.841725 1_555
Al1 O41 1.843676 1_555
Al1 O39 2.288703 1_665
Al1 O40 2.355632 1_655
Al2 O13 1.773832 1_555
Al2 O12 1.826070 1_555
Al2 O49 1.832155 1_555
Al2 O48 1.848735 1_555
Al2 O14 2.093974 1_555
Al2 O50 2.357340 1_555
Al3 O53 1.771719 1_555
Al3 O15 1.805101 1_555
Al3 O51 1.826370 1_555
Al3 O16 2.038206 1_555
Al3 O52 2.053825 1_555
Al3 O17 2.109400 1_555
Al4 O61 1.786815 1_555
Al4 O24 1.790379 1_554
Al4 O26 1.846018 1_554
Al4 O25 1.970675 1_554
Al4 O60 2.137655 1_555
Al4 O62 2.149887 1_555
Al5 O65 1.761833 1_555
Al5 O29 1.774646 1_555
Al5 O63 1.813791 1_555
Al5 O28 2.026993 1_555
Al5 O27 2.121023 1_555
Al5 O64 2.232863 1_555
Ge0 O7 1.780888 1_555
Ge0 O43 1.820448 1_555
Ge0 O42 1.823092 1_455
Ge0 O6 1.834316 1_445
Ge0 O8 2.172434 1_545
Ge0 O44 2.379677 1_445
Ge1 O11 1.753671 1_555
Ge1 O9 1.799609 1_455
Ge1 O45 1.857116 1_455
Ge1 O10 1.984354 1_565
Ge1 O47 2.149756 1_565
Ge1 O46 2.470491 1_465
Ge2 O19 1.773493 1_556
Ge2 O54 1.819520 1_555
Ge2 O55 1.928616 1_555
Ge2 O20 1.959427 1_556
Ge2 O18 1.998812 1_556
Ge2 O56 2.314940 1_555
Ge3 O23 1.754282 1_555
Ge3 O21 1.818823 1_555
Ge3 O59 1.827517 1_555
Ge3 O22 1.869365 1_555
Ge3 O57 2.262759 1_555
Ge3 O58 2.461031 1_555
Ge4 O67 1.809699 1_555
Ge4 O30 1.830003 1_555
Ge4 O66 1.853328 1_555
Ge4 O31 1.950540 1_555
Ge4 O32 1.952519 1_555
Ge4 O68 2.306289 1_555
Ge5 O71 1.750155 1_555
Ge5 O69 1.785183 1_555
Ge5 O35 1.792509 1_555
Ge5 O34 2.138822 1_555
Ge5 O33 2.220169 1_555
Ge5 O70 2.236187 1_555
O0 Si0 1.607936 1_555
O1 Si1 1.602011 1_555
O2 S0 1.458918 1_555
O3 Si2 1.632391 1_555
O4 S1 1.487699 1_655
O5 Si3 1.609981 1_555
O6 Si3 1.656651 1_565
O7 Si2 1.652210 1_555
O8 S1 1.475933 1_555
O9 Si1 1.691881 1_555
O10 S0 1.528564 1_455
O11 Si0 1.684859 1_565
O12 Si4 1.606679 1_555
O13 Si5 1.599281 1_555
O14 S2 1.456150 1_555
O15 Si6 1.602452 1_555
O16 S3 1.457730 1_555
O17 S4 1.465326 1_555
O18 S4 1.535532 1_555
O19 Si6 1.683975 1_555
O20 S3 1.534020 1_555
O21 Si5 1.700863 1_555
O22 S2 1.531391 1_555
O23 Si4 1.672556 1_555
O24 Si7 1.626399 1_555
O25 S5 1.483024 1_555
O26 S6 1.485135 1_555
O27 S7 1.467422 1_555
O28 S8 1.465898 1_555
O29 Si8 1.607822 1_555
O30 Si8 1.681814 1_555
O31 S7 1.522300 1_555
O32 S8 1.521271 1_555
O33 S5 1.481065 1_555
O34 S6 1.485295 1_555
O35 Si7 1.672367 1_555
O36 Si8 1.643654 1_555
O37 S7 1.469544 1_555
O38 S8 1.489522 1_555
O39 S5 1.475567 1_555
O40 S6 1.482087 1_555
O41 Si7 1.606205 1_555
O42 Si4 1.671981 1_555
O43 Si5 1.646367 1_555
O44 S2 1.475610 1_555
O45 Si6 1.695313 1_555
O46 S3 1.486615 1_555
O47 S4 1.482394 1_555
O48 Si3 1.617292 1_555
O49 Si2 1.595401 1_555
O50 S1 1.472029 1_655
O51 Si1 1.627342 1_555
O52 S0 1.488989 1_555
O53 Si0 1.594731 1_555
O54 Si7 1.709246 1_555
O55 S5 1.514347 1_655
O56 S6 1.504832 1_545
O57 S7 1.494339 1_545
O58 S8 1.489437 1_555
O59 Si8 1.663460 1_655
O60 S4 1.493749 1_555
O61 Si6 1.611323 1_455
O62 S3 1.498639 1_565
O63 Si5 1.632233 1_565
O64 S2 1.481969 1_555
O65 Si4 1.600550 1_455
O66 Si0 1.664842 1_565
O67 Si1 1.635300 1_555
O68 S0 1.488656 1_455
O69 Si2 1.689793 1_555
O70 S1 1.511195 1_555
O71 Si3 1.659997 1_565
