# generated using pymatgen
data_Ba2ErMgSbO6
_symmetry_space_group_name_H-M   'P 1'
_cell_length_a   6.59379869
_cell_length_b   6.59379883
_cell_length_c   6.25930800
_cell_angle_alpha   61.66435030
_cell_angle_beta   61.66434967
_cell_angle_gamma   55.28917490
_symmetry_Int_Tables_number   1
_chemical_formula_structural   Ba2ErMgSbO6
_chemical_formula_sum   'Ba2 Er1 Mg1 Sb1 O6'
_cell_volume   188.88965313
_cell_formula_units_Z   1
loop_
 _symmetry_equiv_pos_site_id
 _symmetry_equiv_pos_as_xyz
  1  'x, y, z'
loop_
 _atom_site_type_symbol
 _atom_site_label
 _atom_site_symmetry_multiplicity
 _atom_site_fract_x
 _atom_site_fract_y
 _atom_site_fract_z
 _atom_site_occupancy
  Ba  Ba0  1  0.80728800  0.80728800  0.69271200  1
  Ba  Ba1  1  0.19271200  0.19271200  0.30728800  1
  Er  Er0  1  0.00000000  0.00000000  0.00000000  1
  Mg  Mg0  1  0.50000000  0.50000000  0.00000000  1
  Sb  Sb0  1  0.50000000  0.50000000  0.50000000  1
  O  O0  1  0.26480600  0.73519400  0.76961700  1
  O  O1  1  0.26480600  0.73519400  0.23038300  1
  O  O2  1  0.73519400  0.26480600  0.76961700  1
  O  O3  1  0.24168700  0.24168700  0.75831300  1
  O  O4  1  0.73519400  0.26480600  0.23038300  1
  O  O5  1  0.75831300  0.75831300  0.24168700  1
loop_
_geom_bond_atom_site_label_1
_geom_bond_atom_site_label_2
_geom_bond_distance
_geom_bond_site_symmetry_2
Ba0 O0 3.014419 1_655
Ba0 O1 3.014419 1_655
Ba0 O2 3.014419 1_565
Ba0 O4 3.014419 1_565
Ba0 Mg0 3.031010 1_556
Ba0 O3 3.127107 1_565
Ba0 O3 3.127107 1_655
Ba0 O5 3.166717 1_556
Ba0 O5 3.166717 1_555
Ba1 O2 3.014419 1_455
Ba1 O4 3.014419 1_455
Ba1 O0 3.014419 1_545
Ba1 O1 3.014419 1_545
Ba1 Mg0 3.031010 1_555
Ba1 O5 3.127107 1_545
Ba1 O5 3.127107 1_455
Ba1 O3 3.166717 1_555
Ba1 O3 3.166717 1_554
Er0 O1 2.169073 1_545
Er0 O4 2.169073 1_455
Er0 O2 2.169073 1_454
Er0 O0 2.169073 1_544
Er0 O3 2.383938 1_554
Er0 O5 2.383938 1_445
Mg0 O4 2.037286 1_555
Mg0 O1 2.037286 1_555
Mg0 O2 2.037286 1_554
Mg0 O0 2.037286 1_554
O0 Sb0 2.217906 1_555
O1 Sb0 2.217906 1_555
O2 Sb0 2.217906 1_555
O3 Sb0 2.547933 1_555
O4 Sb0 2.217906 1_555
O5 Sb0 2.547933 1_555
