# generated using pymatgen
data_MgNbTl3S4
_symmetry_space_group_name_H-M   'P 1'
_cell_length_a   7.00445488
_cell_length_b   7.00445488
_cell_length_c   7.00445488
_cell_angle_alpha   107.61401562
_cell_angle_beta   107.61401562
_cell_angle_gamma   107.61401562
_symmetry_Int_Tables_number   1
_chemical_formula_structural   MgNbTl3S4
_chemical_formula_sum   'Mg1 Nb1 Tl3 S4'
_cell_volume   281.26800585
_cell_formula_units_Z   1
loop_
 _symmetry_equiv_pos_site_id
 _symmetry_equiv_pos_as_xyz
  1  'x, y, z'
loop_
 _atom_site_type_symbol
 _atom_site_label
 _atom_site_symmetry_multiplicity
 _atom_site_fract_x
 _atom_site_fract_y
 _atom_site_fract_z
 _atom_site_occupancy
  Mg  Mg0  1  0.37882100  0.37882100  0.37882100  1
  Nb  Nb0  1  0.00336800  0.00336800  0.00336800  1
  Tl  Tl0  1  0.91251100  0.43882800  0.43882800  1
  Tl  Tl1  1  0.43882800  0.91251100  0.43882800  1
  Tl  Tl2  1  0.43882800  0.43882800  0.91251100  1
  S  S0  1  0.36339300  0.05313700  0.05313700  1
  S  S1  1  0.05313700  0.36339300  0.05313700  1
  S  S2  1  0.05313700  0.05313700  0.36339300  1
  S  S3  1  0.69797500  0.69797500  0.69797500  1
loop_
_geom_bond_atom_site_label_1
_geom_bond_atom_site_label_2
_geom_bond_distance
_geom_bond_site_symmetry_2
Mg0 S3 2.432879 1_555
Mg0 S0 2.640429 1_555
Mg0 S1 2.640429 1_555
Mg0 S2 2.640429 1_555
Nb0 S3 2.327980 1_444
Nb0 S2 2.337690 1_555
Nb0 S1 2.337690 1_555
Nb0 S0 2.337690 1_555
S0 Tl2 3.099903 1_554
S0 Tl1 3.099903 1_545
S1 Tl0 3.099903 1_455
S1 Tl2 3.099903 1_554
S2 Tl1 3.099903 1_545
S2 Tl0 3.099903 1_455
S3 Tl2 3.186762 1_555
S3 Tl0 3.186762 1_555
S3 Tl1 3.186762 1_555
