# generated using pymatgen
data_Na14Nb4Zn4Si9(SO16)3
_symmetry_space_group_name_H-M   'P 1'
_cell_length_a   18.35828855
_cell_length_b   9.14239524
_cell_length_c   22.38516740
_cell_angle_alpha   90.14993452
_cell_angle_beta   89.86356376
_cell_angle_gamma   119.94777137
_symmetry_Int_Tables_number   1
_chemical_formula_structural   Na14Nb4Zn4Si9(SO16)3
_chemical_formula_sum   'Na42 Nb12 Zn12 Si27 S9 O144'
_cell_volume   3255.43977590
_cell_formula_units_Z   3
loop_
 _symmetry_equiv_pos_site_id
 _symmetry_equiv_pos_as_xyz
  1  'x, y, z'
loop_
 _atom_site_type_symbol
 _atom_site_label
 _atom_site_symmetry_multiplicity
 _atom_site_fract_x
 _atom_site_fract_y
 _atom_site_fract_z
 _atom_site_occupancy
  Na  Na0  1  0.81678827  0.99335126  0.25711662  1
  Na  Na1  1  0.17460508  0.34979575  0.24985957  1
  Na  Na2  1  0.67016368  0.36046850  0.25192683  1
  Na  Na3  1  0.00590383  0.64950199  0.24695858  1
  Na  Na4  1  0.51127089  0.64411853  0.25196195  1
  Na  Na5  1  0.31695016  0.63995014  0.75957984  1
  Na  Na6  1  0.01196659  0.37748130  0.75588336  1
  Na  Na7  1  0.50512296  0.36727985  0.74898025  1
  Na  Na8  1  0.17190277  0.98021834  0.75558823  1
  Na  Na9  1  0.67052895  0.99004726  0.75336009  1
  Na  Na10  1  0.14433175  0.31128516  0.58653441  1
  Na  Na11  1  0.64227334  0.31246484  0.58762246  1
  Na  Na12  1  0.34040039  0.98412200  0.58302657  1
  Na  Na13  1  0.83964032  0.97121560  0.59162483  1
  Na  Na14  1  0.14458782  0.97651150  0.08766675  1
  Na  Na15  1  0.63751546  0.96934544  0.08645099  1
  Na  Na16  1  0.34505192  0.70668675  0.08923515  1
  Na  Na17  1  0.83939080  0.69907785  0.08011754  1
  Na  Na18  1  0.47771613  0.66464675  0.91924487  1
  Na  Na19  1  0.97604201  0.64559534  0.92102006  1
  Na  Na20  1  0.35290827  0.04763209  0.91584001  1
  Na  Na21  1  0.84864872  0.04544809  0.92018777  1
  Na  Na22  1  0.17237901  0.29536671  0.92491198  1
  Na  Na23  1  0.66686591  0.28040930  0.91833565  1
  Na  Na24  1  0.47625994  0.30734727  0.41937475  1
  Na  Na25  1  0.98098159  0.29285196  0.40970775  1
  Na  Na26  1  0.16750854  0.05435081  0.41469804  1
  Na  Na27  1  0.67005112  0.04595685  0.42183874  1
  Na  Na28  1  0.35002644  0.65095679  0.41688813  1
  Na  Na29  1  0.85196335  0.66185705  0.41245759  1
  Na  Na30  1  0.01060087  0.99241313  0.49943579  1
  Na  Na31  1  0.50566928  0.00045076  0.50617981  1
  Na  Na32  1  0.00603125  0.01246896  0.00874850  1
  Na  Na33  1  0.50837333  0.01391743  0.00500452  1
  Na  Na34  1  0.33285984  0.33223288  0.84379760  1
  Na  Na35  1  0.83280075  0.33832773  0.84539278  1
  Na  Na36  1  0.33156468  0.32330592  0.33954475  1
  Na  Na37  1  0.83297997  0.33341631  0.33924544  1
  Na  Na38  1  0.16816642  0.66668265  0.16854294  1
  Na  Na39  1  0.65278501  0.64763096  0.17086045  1
  Na  Na40  1  0.15604724  0.66116485  0.67429549  1
  Na  Na41  1  0.66565474  0.66800991  0.67091042  1
  Nb  Nb0  1  0.50261846  0.00835387  0.35125172  1
  Nb  Nb1  1  0.00189508  0.99520538  0.85253869  1
  Nb  Nb2  1  0.33337659  0.32827280  0.68494439  1
  Nb  Nb3  1  0.83111081  0.32577773  0.69202250  1
  Nb  Nb4  1  0.33723348  0.34766587  0.18916253  1
  Nb  Nb5  1  0.83392141  0.33762500  0.18400740  1
  Nb  Nb6  1  0.15476335  0.65021715  0.02071613  1
  Nb  Nb7  1  0.65769893  0.64591783  0.01932944  1
  Nb  Nb8  1  0.16487097  0.68081766  0.51604528  1
  Nb  Nb9  1  0.65382199  0.65926904  0.52051774  1
  Nb  Nb10  1  0.16620324  0.66442696  0.31267703  1
  Nb  Nb11  1  0.66725017  0.66844904  0.81414786  1
  Zn  Zn0  1  0.01786482  0.03458116  0.34859136  1
  Zn  Zn1  1  0.51725848  0.00063193  0.85146989  1
  Zn  Zn2  1  0.00822582  0.00371365  0.65932725  1
  Zn  Zn3  1  0.52082471  0.01302768  0.65083721  1
  Zn  Zn4  1  0.02196976  0.02718180  0.15183820  1
  Zn  Zn5  1  0.50614745  0.99949281  0.15308874  1
  Zn  Zn6  1  0.33369934  0.33301323  0.98654479  1
  Zn  Zn7  1  0.83107605  0.34593192  0.97974773  1
  Zn  Zn8  1  0.33028873  0.31598329  0.47971265  1
  Zn  Zn9  1  0.82914539  0.34084396  0.48065500  1
  Zn  Zn10  1  0.65316246  0.64680749  0.31705141  1
  Zn  Zn11  1  0.15426711  0.65969753  0.81924895  1
  Si  Si0  1  0.14965265  0.99947512  0.24939038  1
  Si  Si1  1  0.65058027  0.99589459  0.24856844  1
  Si  Si2  1  0.35481338  0.71584186  0.24719011  1
  Si  Si3  1  0.99630516  0.28530937  0.25184813  1
  Si  Si4  1  0.49958613  0.29059795  0.24571031  1
  Si  Si5  1  0.14886249  0.30291331  0.74767726  1
  Si  Si6  1  0.64629005  0.29859895  0.74944414  1
  Si  Si7  1  0.00144519  0.70661962  0.74702450  1
  Si  Si8  1  0.49690922  0.70875729  0.75137099  1
  Si  Si9  1  0.85572713  0.99297228  0.74616797  1
  Si  Si10  1  0.47724798  0.32313244  0.58004854  1
  Si  Si11  1  0.18177970  0.03660617  0.58021821  1
  Si  Si12  1  0.69030229  0.04259456  0.57885893  1
  Si  Si13  1  0.47922732  0.62671730  0.07918920  1
  Si  Si14  1  0.97757912  0.63175483  0.08013852  1
  Si  Si15  1  0.18893482  0.33651930  0.07957524  1
  Si  Si16  1  0.68440630  0.33029328  0.07915479  1
  Si  Si17  1  0.81233198  0.67122973  0.91775446  1
  Si  Si18  1  0.01549327  0.36356933  0.91376635  1
  Si  Si19  1  0.51582923  0.36240216  0.91270595  1
  Si  Si20  1  0.17073588  0.96061786  0.91341976  1
  Si  Si21  1  0.66588950  0.95676880  0.91906350  1
  Si  Si22  1  0.31408615  0.95852188  0.41459340  1
  Si  Si23  1  0.16528961  0.37422921  0.41951385  1
  Si  Si24  1  0.66943096  0.38118491  0.41289772  1
  Si  Si25  1  0.01487117  0.66471839  0.41384779  1
  Si  Si26  1  0.51488405  0.66731330  0.41375720  1
  S  S0  1  0.85339577  0.70504128  0.24876970  1
  S  S1  1  0.35341323  0.00141973  0.74722238  1
  S  S2  1  0.98029263  0.33950288  0.58136454  1
  S  S3  1  0.33104624  0.62598103  0.58355195  1
  S  S4  1  0.83346858  0.62483117  0.58126388  1
  S  S5  1  0.33204651  0.03984367  0.08082363  1
  S  S6  1  0.83216214  0.03815365  0.08313227  1
  S  S7  1  0.31065218  0.67156189  0.91621293  1
  S  S8  1  0.81193201  0.95285299  0.41813973  1
  O  O0  1  0.11776554  0.05137596  0.30939365  1
  O  O1  1  0.60100917  0.03278977  0.30702624  1
  O  O2  1  0.41760936  0.80764189  0.30627161  1
  O  O3  1  0.90349282  0.77575078  0.30331893  1
  O  O4  1  0.48764648  0.17419391  0.30916190  1
  O  O5  1  0.97076009  0.17328677  0.31297061  1
  O  O6  1  0.09943629  0.16632493  0.80497794  1
  O  O7  1  0.61732868  0.18058510  0.80803902  1
  O  O8  1  0.47061308  0.77039591  0.81187690  1
  O  O9  1  0.98607139  0.79669095  0.80845644  1
  O  O10  1  0.40389148  0.03269430  0.80233498  1
  O  O11  1  0.91821292  0.02889114  0.80460227  1
  O  O12  1  0.39364918  0.98623739  0.69342120  1
  O  O13  1  0.89389534  0.97507643  0.68444012  1
  O  O14  1  0.09154469  0.23317674  0.68865714  1
  O  O15  1  0.59079438  0.23509891  0.68960502  1
  O  O16  1  0.02134774  0.82817771  0.69181053  1
  O  O17  1  0.51812678  0.82875254  0.69458983  1
  O  O18  1  0.38990660  0.81221567  0.18613912  1
  O  O19  1  0.89421021  0.80274682  0.19436722  1
  O  O20  1  0.01749588  0.20499590  0.19590229  1
  O  O21  1  0.51895937  0.19939054  0.19328707  1
  O  O22  1  0.08946670  0.94100695  0.19132163  1
  O  O23  1  0.59272294  0.95162360  0.19062211  1
  O  O24  1  0.42957532  0.35246778  0.63997131  1
  O  O25  1  0.93950297  0.35850348  0.63681469  1
  O  O26  1  0.24917897  0.13952726  0.63862982  1
  O  O27  1  0.75252418  0.14174943  0.63885645  1
  O  O28  1  0.32083325  0.51406509  0.63738504  1
  O  O29  1  0.82415411  0.51471214  0.63320195  1
  O  O30  1  0.43088666  0.50431724  0.13948246  1
  O  O31  1  0.93073052  0.50693914  0.14022198  1
  O  O32  1  0.31959077  0.12728253  0.13272728  1
  O  O33  1  0.82321373  0.13181252  0.13770427  1
  O  O34  1  0.25117974  0.36457043  0.13910448  1
  O  O35  1  0.75133736  0.35872729  0.13839145  1
  O  O36  1  0.22894143  0.30827548  0.02006615  1
  O  O37  1  0.72878393  0.30365776  0.02163670  1
  O  O38  1  0.42548697  0.53965464  0.02031319  1
  O  O39  1  0.92543691  0.54563109  0.02097403  1
  O  O40  1  0.34039542  0.12894697  0.02436081  1
  O  O41  1  0.84274657  0.13505463  0.02900865  1
  O  O42  1  0.22694860  0.14767524  0.52201047  1
  O  O43  1  0.73547849  0.15263981  0.52077871  1
  O  O44  1  0.34088876  0.54923142  0.52883922  1
  O  O45  1  0.84362668  0.55380650  0.52529757  1
  O  O46  1  0.42440942  0.30368247  0.52115893  1
  O  O47  1  0.93213085  0.32771750  0.52784739  1
  O  O48  1  0.26415639  0.68338247  0.97058516  1
  O  O49  1  0.76811325  0.70024296  0.97768782  1
  O  O50  1  0.08179955  0.46797509  0.97253007  1
  O  O51  1  0.58191758  0.46785166  0.97126843  1
  O  O52  1  0.15565340  0.83039868  0.97237216  1
  O  O53  1  0.65838517  0.83093710  0.97594876  1
  O  O54  1  0.26648626  0.83910681  0.47598566  1
  O  O55  1  0.76514973  0.84665320  0.47237248  1
  O  O56  1  0.15748526  0.48308442  0.47851863  1
  O  O57  1  0.65679711  0.48279883  0.47302032  1
  O  O58  1  0.08405865  0.69692688  0.47158740  1
  O  O59  1  0.58112014  0.69494912  0.47340058  1
  O  O60  1  0.06610513  0.64130212  0.35766564  1
  O  O61  1  0.55645779  0.63618398  0.35638403  1
  O  O62  1  0.24867960  0.84492443  0.36193362  1
  O  O63  1  0.76214492  0.87781232  0.36362532  1
  O  O64  1  0.17148156  0.49134567  0.36141087  1
  O  O65  1  0.68759510  0.49706400  0.35494860  1
  O  O66  1  0.05520230  0.47449162  0.85533660  1
  O  O67  1  0.56997916  0.49085368  0.85697249  1
  O  O68  1  0.18727222  0.88137568  0.85427670  1
  O  O69  1  0.67246342  0.85551311  0.85903610  1
  O  O70  1  0.26143819  0.65140599  0.86148569  1
  O  O71  1  0.74958296  0.65535816  0.86209936  1
  O  O72  1  0.00707261  0.83225168  0.41307723  1
  O  O73  1  0.51623181  0.84982803  0.41386593  1
  O  O74  1  0.40445772  0.96331215  0.41150591  1
  O  O75  1  0.89387175  0.95945294  0.41831085  1
  O  O76  1  0.07779165  0.19593723  0.42070095  1
  O  O77  1  0.57947640  0.19577860  0.41238469  1
  O  O78  1  0.01630740  0.18275032  0.91254784  1
  O  O79  1  0.50962848  0.18024997  0.91098313  1
  O  O80  1  0.07982104  0.96470747  0.91078985  1
  O  O81  1  0.57867024  0.96016082  0.92031985  1
  O  O82  1  0.39302145  0.82789765  0.91689028  1
  O  O83  1  0.90466603  0.84594344  0.90981902  1
  O  O84  1  0.48837446  0.15985893  0.58810173  1
  O  O85  1  0.98862801  0.18681034  0.58467308  1
  O  O86  1  0.09135124  0.02214447  0.58766847  1
  O  O87  1  0.59845987  0.02273117  0.58403994  1
  O  O88  1  0.39997091  0.79735431  0.59173261  1
  O  O89  1  0.90427275  0.80002554  0.58710366  1
  O  O90  1  0.49051576  0.81292089  0.08570148  1
  O  O91  1  0.98795016  0.81666160  0.08851732  1
  O  O92  1  0.40290290  0.00971616  0.08696076  1
  O  O93  1  0.90199922  0.00648046  0.09187142  1
  O  O94  1  0.09639452  0.17373596  0.08570497  1
  O  O95  1  0.59368188  0.16894643  0.08750091  1
  O  O96  1  0.34487779  0.16354597  0.74354424  1
  O  O97  1  0.84733387  0.17230128  0.74292605  1
  O  O98  1  0.24147933  0.30520666  0.74173061  1
  O  O99  1  0.74208751  0.31760297  0.73693813  1
  O  O100  1  0.41356758  0.51156780  0.73948387  1
  O  O101  1  0.91576062  0.51522976  0.73907655  1
  O  O102  1  0.34636915  0.52184114  0.24619515  1
  O  O103  1  0.84525276  0.52720427  0.24415998  1
  O  O104  1  0.41403032  0.31044813  0.24208027  1
  O  O105  1  0.91427077  0.31809526  0.24112982  1
  O  O106  1  0.24222812  0.16980587  0.23626937  1
  O  O107  1  0.74312974  0.17957331  0.24356152  1
  O  O108  1  0.32039903  0.52033542  0.91987139  1
  O  O109  1  0.82130658  0.50605984  0.91446932  1
  O  O110  1  0.42767093  0.36028612  0.91557852  1
  O  O111  1  0.92332180  0.33789298  0.92377982  1
  O  O112  1  0.24911337  0.15036517  0.92086447  1
  O  O113  1  0.75098532  0.13677064  0.91758741  1
  O  O114  1  0.32138173  0.13970589  0.41400388  1
  O  O115  1  0.82429620  0.12589810  0.42365349  1
  O  O116  1  0.25028103  0.36467849  0.41900898  1
  O  O117  1  0.74822167  0.34809247  0.41888378  1
  O  O118  1  0.42300730  0.50772706  0.42390970  1
  O  O119  1  0.92733835  0.48756405  0.42105508  1
  O  O120  1  0.18844031  0.52223809  0.07633498  1
  O  O121  1  0.68831572  0.51870501  0.07916940  1
  O  O122  1  0.07468568  0.64954585  0.07808162  1
  O  O123  1  0.57618837  0.64603968  0.07781759  1
  O  O124  1  0.25055223  0.86704733  0.07904200  1
  O  O125  1  0.75039819  0.87305140  0.08420731  1
  O  O126  1  0.18318949  0.85123902  0.57999085  1
  O  O127  1  0.68963170  0.85614781  0.57725112  1
  O  O128  1  0.24856974  0.62845987  0.58373408  1
  O  O129  1  0.75187727  0.63139965  0.58036717  1
  O  O130  1  0.06806704  0.49307251  0.58007825  1
  O  O131  1  0.57461307  0.50021670  0.57828557  1
  O  O132  1  0.15952626  0.82977908  0.25927316  1
  O  O133  1  0.67192874  0.84635002  0.25979661  1
  O  O134  1  0.25645770  0.66881471  0.25924104  1
  O  O135  1  0.76777407  0.67891884  0.25227970  1
  O  O136  1  0.08011030  0.47987217  0.25813295  1
  O  O137  1  0.58000422  0.48036517  0.25178085  1
  O  O138  1  0.17092438  0.49581290  0.75828393  1
  O  O139  1  0.65889280  0.48903905  0.75747918  1
  O  O140  1  0.08078479  0.67654260  0.75337492  1
  O  O141  1  0.57977721  0.67950785  0.75757149  1
  O  O142  1  0.26768929  0.85676740  0.75126575  1
  O  O143  1  0.75740244  0.84466416  0.75665755  1
loop_
_geom_bond_atom_site_label_1
_geom_bond_atom_site_label_2
_geom_bond_distance
_geom_bond_site_symmetry_2
Na0 O133 2.305061 1_555
Na0 O135 2.549773 1_555
Na0 O63 2.598155 1_555
Na0 O105 2.615918 1_565
Na0 O107 2.668789 1_565
Na0 O5 2.760952 1_565
Na0 O33 2.937471 1_565
Na1 O106 2.525218 1_555
Na1 O134 2.535980 1_555
Na1 O136 2.552445 1_555
Na1 O102 2.733399 1_555
Na1 O0 2.734659 1_555
Na1 O20 2.779628 1_555
Na1 O34 2.817235 1_555
Na1 O64 2.823114 1_555
Na2 O137 2.398463 1_555
Na2 O135 2.545290 1_555
Na2 O65 2.563151 1_555
Na2 O107 2.602603 1_555
Na2 O21 2.742802 1_555
Na2 O103 2.791508 1_555
Na2 O1 2.884838 1_555
Na2 O35 2.947148 1_555
Na3 O132 2.471165 1_555
Na3 O136 2.537026 1_555
Na3 O103 2.580786 1_455
Na3 O22 2.633127 1_555
Na3 O105 2.633826 1_455
Na3 O60 2.732264 1_555
Na3 O31 2.741473 1_455
Na3 O3 2.933661 1_455
Na4 O137 2.391561 1_555
Na4 O61 2.495508 1_555
Na4 O133 2.589282 1_555
Na4 O102 2.655787 1_555
Na4 O104 2.665108 1_555
Na4 O23 2.799680 1_555
Na4 O30 2.875535 1_555
Na5 O138 2.323156 1_555
Na5 O70 2.519438 1_555
Na5 O142 2.564026 1_555
Na5 O100 2.607321 1_555
Na5 O98 2.684743 1_555
Na5 O8 2.720328 1_555
Na5 O28 2.979310 1_555
Na6 O140 2.372014 1_555
Na6 O66 2.380788 1_555
Na6 O138 2.556860 1_555
Na6 O101 2.659560 1_455
Na6 O97 2.660534 1_455
Na6 O14 2.836002 1_555
Na6 O25 2.947550 1_455
Na6 O11 2.973393 1_455
Na7 O139 2.471514 1_555
Na7 O141 2.481117 1_555
Na7 O96 2.582280 1_555
Na7 O100 2.612906 1_555
Na7 O67 2.682226 1_555
Na7 O15 2.753149 1_555
Na7 O24 2.779076 1_555
Na7 O10 2.927448 1_555
Na8 O140 2.423107 1_555
Na8 O68 2.458572 1_555
Na8 O142 2.521030 1_555
Na8 O98 2.601814 1_565
Na8 O96 2.765890 1_565
Na8 O16 2.789675 1_555
Na8 O6 2.851368 1_565
Na8 O26 2.987944 1_565
Na9 O141 2.474476 1_555
Na9 O143 2.536365 1_555
Na9 O99 2.627632 1_565
Na9 O7 2.677368 1_565
Na9 O69 2.677547 1_555
Na9 O17 2.760674 1_555
Na9 O97 2.822231 1_565
Na9 O27 2.945364 1_565
Na10 O86 2.316814 1_555
Na10 O14 2.445828 1_555
Na10 O85 2.494008 1_455
Na10 O128 2.556267 1_555
Na10 O130 2.658711 1_555
Na10 O56 2.830226 1_555
Na11 O87 2.354109 1_555
Na11 O15 2.436356 1_555
Na11 O84 2.448143 1_555
Na11 O131 2.581628 1_555
Na11 O129 2.592349 1_555
Na12 O84 2.369967 1_565
Na12 O88 2.452895 1_555
Na12 O126 2.511973 1_555
Na12 O12 2.656165 1_555
Na12 O54 2.746472 1_555
Na12 O128 2.818218 1_555
Na12 O46 2.888657 1_565
Na12 O26 2.954448 1_565
Na13 O13 2.298797 1_555
Na13 O89 2.391720 1_555
Na13 O127 2.429841 1_555
Na13 O85 2.450981 1_565
Na13 O129 2.703965 1_555
Na13 O27 2.929030 1_565
Na13 O55 2.956302 1_555
Na14 O94 2.372606 1_565
Na14 O22 2.485581 1_555
Na14 O91 2.491836 1_455
Na14 O124 2.600775 1_555
Na14 O122 2.606995 1_555
Na15 O95 2.333226 1_565
Na15 O90 2.339888 1_555
Na15 O23 2.449485 1_555
Na15 O123 2.591736 1_555
Na15 O125 2.625435 1_555
Na15 O53 2.886154 1_554
Na16 O90 2.343244 1_555
Na16 O18 2.349196 1_555
Na16 O92 2.422509 1_565
Na16 O120 2.520727 1_555
Na16 O124 2.784640 1_555
Na17 O91 2.388157 1_555
Na17 O121 2.417791 1_555
Na17 O93 2.461927 1_565
Na17 O49 2.645397 1_554
Na17 O19 2.738458 1_555
Na17 O125 2.792900 1_555
Na17 O39 2.899838 1_555
Na17 O35 2.997683 1_555
Na18 O81 2.394842 1_555
Na18 O110 2.457707 1_555
Na18 O38 2.500606 1_556
Na18 O108 2.505472 1_555
Na18 O8 2.620650 1_555
Na18 O82 2.639254 1_555
Na19 O39 2.420282 1_556
Na19 O109 2.470069 1_555
Na19 O111 2.477199 1_555
Na19 O80 2.577910 1_655
Na19 O83 2.745018 1_555
Na19 O9 2.837840 1_555
Na20 O82 2.460872 1_545
Na20 O110 2.477370 1_555
Na20 O79 2.505194 1_555
Na20 O112 2.512172 1_555
Na20 O40 2.581688 1_556
Na20 O10 2.732210 1_555
Na21 O111 2.318211 1_555
Na21 O113 2.326024 1_555
Na21 O83 2.511502 1_545
Na21 O41 2.587228 1_556
Na21 O78 2.686945 1_655
Na21 O11 2.919539 1_555
Na22 O36 2.348643 1_556
Na22 O112 2.369250 1_555
Na22 O108 2.459018 1_555
Na22 O78 2.530422 1_555
Na22 O80 2.644770 1_545
Na22 O6 2.969190 1_555
Na22 O50 2.999066 1_555
Na23 O113 2.476717 1_555
Na23 O37 2.540325 1_556
Na23 O109 2.542052 1_555
Na23 O81 2.542255 1_545
Na23 O79 2.561347 1_555
Na23 O7 2.631765 1_555
Na24 O46 2.461057 1_555
Na24 O114 2.469328 1_555
Na24 O118 2.471598 1_555
Na24 O77 2.565724 1_555
Na24 O74 2.742308 1_545
Na24 O4 2.801473 1_555
Na24 O61 2.964310 1_555
Na25 O76 2.362148 1_655
Na25 O5 2.388335 1_555
Na25 O119 2.439257 1_555
Na25 O115 2.513156 1_555
Na25 O75 2.649541 1_545
Na25 O47 2.858211 1_555
Na25 O60 2.998007 1_655
Na26 O116 2.462235 1_555
Na26 O0 2.525162 1_555
Na26 O114 2.527434 1_555
Na26 O76 2.555987 1_555
Na26 O42 2.600290 1_555
Na26 O72 2.613103 1_545
Na27 O117 2.395108 1_555
Na27 O43 2.476085 1_555
Na27 O73 2.483242 1_545
Na27 O115 2.547215 1_555
Na27 O77 2.638753 1_555
Na27 O1 2.843938 1_555
Na28 O118 2.299610 1_555
Na28 O116 2.328231 1_555
Na28 O74 2.513979 1_555
Na28 O44 2.650991 1_555
Na28 O73 2.661044 1_555
Na28 O2 2.819967 1_555
Na29 O75 2.433144 1_555
Na29 O72 2.471155 1_655
Na29 O117 2.534320 1_555
Na29 O119 2.587521 1_555
Na29 O3 2.639439 1_555
Na29 O45 2.690707 1_555
Na29 O65 2.915796 1_555
Na30 O72 2.403416 1_555
Na30 O86 2.404446 1_565
Na30 O76 2.409433 1_565
Na30 O89 2.706868 1_455
Na30 O75 2.711422 1_455
Na30 O85 2.767018 1_465
Na31 O87 2.376322 1_555
Na31 O84 2.456202 1_555
Na31 O73 2.540460 1_545
Na31 O77 2.650196 1_555
Na31 O88 2.698935 1_545
Na31 O74 2.728408 1_545
Na32 O94 2.334893 1_555
Na32 O91 2.433916 1_445
Na32 O78 2.611314 1_554
Na32 O93 2.644242 1_455
Na32 O80 2.721331 1_544
Na32 O83 2.803275 1_444
Na33 O95 2.378176 1_555
Na33 O81 2.473324 1_544
Na33 O90 2.482020 1_545
Na33 O79 2.593111 1_554
Na33 O92 2.650573 1_555
Na33 O82 2.770183 1_544
Na34 O110 2.289697 1_555
Na34 O112 2.356816 1_555
Na34 O108 2.507045 1_555
Na34 O98 2.774357 1_555
Na34 O96 2.789748 1_555
Na34 O100 2.813215 1_555
Na35 O109 2.257474 1_555
Na35 O113 2.346055 1_555
Na35 O111 2.420981 1_555
Na35 O97 2.831883 1_555
Na35 O101 2.853556 1_555
Na35 O99 2.899165 1_555
Na36 O114 2.308783 1_555
Na36 O116 2.466047 1_555
Na36 O118 2.529803 1_555
Na36 O104 2.688211 1_555
Na36 O102 2.694373 1_555
Na36 O106 2.776136 1_555
Na37 O117 2.410656 1_555
Na37 O119 2.429969 1_555
Na37 O115 2.628755 1_555
Na37 O107 2.640363 1_555
Na37 O105 2.694834 1_555
Na37 O103 2.709072 1_555
Na38 O132 2.567543 1_555
Na38 O120 2.572102 1_555
Na38 O134 2.594924 1_555
Na38 O136 2.607313 1_555
Na38 O122 2.610889 1_555
Na38 O124 2.625961 1_555
Na39 O137 2.316880 1_555
Na39 O123 2.511752 1_555
Na39 O133 2.595104 1_555
Na39 O121 2.603116 1_555
Na39 O135 2.696789 1_555
Na39 O125 2.745583 1_555
Na40 O140 2.289859 1_555
Na40 O138 2.514791 1_555
Na40 O142 2.590101 1_555
Na40 O126 2.621851 1_555
Na40 O130 2.634318 1_555
Na40 O128 2.751665 1_555
Na41 O139 2.502114 1_555
Na41 O141 2.531746 1_555
Na41 O143 2.532366 1_555
Na41 O127 2.608920 1_555
Na41 O131 2.624078 1_555
Na41 O129 2.689936 1_555
Nb0 O4 1.920115 1_555
Nb0 O1 1.970384 1_555
Nb0 O2 1.988758 1_545
Nb0 O77 2.093493 1_555
Nb0 O74 2.118182 1_545
Nb0 O73 2.121661 1_545
Nb1 O9 1.953867 1_455
Nb1 O6 1.997541 1_565
Nb1 O11 2.021971 1_465
Nb1 O80 2.057590 1_555
Nb1 O83 2.063658 1_455
Nb1 O78 2.085925 1_565
Nb2 O26 1.943446 1_555
Nb2 O24 1.945254 1_555
Nb2 O100 2.000182 1_555
Nb2 O98 2.035325 1_555
Nb2 O96 2.088655 1_555
Nb2 O28 2.114900 1_555
Nb3 O99 1.886294 1_555
Nb3 O97 1.945033 1_555
Nb3 O101 1.958392 1_555
Nb3 O27 1.975533 1_555
Nb3 O29 2.228586 1_555
Nb3 O25 2.229863 1_555
Nb4 O30 1.945424 1_555
Nb4 O102 1.979257 1_555
Nb4 O106 1.991651 1_555
Nb4 O104 1.998928 1_555
Nb4 O34 2.007089 1_555
Nb4 O32 2.257761 1_555
Nb5 O35 1.918048 1_555
Nb5 O31 1.941218 1_555
Nb5 O105 2.028775 1_555
Nb5 O107 2.058685 1_555
Nb5 O33 2.067593 1_555
Nb5 O103 2.118857 1_555
Nb6 O50 1.871617 1_554
Nb6 O122 1.947369 1_555
Nb6 O52 1.966554 1_554
Nb6 O120 2.008696 1_555
Nb6 O48 2.183454 1_554
Nb6 O124 2.289906 1_555
Nb7 O51 1.865442 1_554
Nb7 O53 1.947219 1_554
Nb7 O123 1.986380 1_555
Nb7 O121 2.031578 1_555
Nb7 O49 2.052476 1_554
Nb7 O125 2.405212 1_555
Nb8 O58 1.854469 1_555
Nb8 O54 1.918818 1_555
Nb8 O56 1.933883 1_555
Nb8 O126 2.014229 1_555
Nb8 O130 2.261467 1_555
Nb8 O128 2.373881 1_555
Nb9 O59 1.855646 1_555
Nb9 O131 1.947033 1_555
Nb9 O57 1.953232 1_555
Nb9 O127 2.023717 1_555
Nb9 O55 2.185600 1_555
Nb9 O129 2.360400 1_555
Nb10 O62 1.932673 1_555
Nb10 O64 1.966223 1_555
Nb10 O132 1.981056 1_555
Nb10 O60 2.010024 1_555
Nb10 O134 2.025405 1_555
Nb10 O136 2.042443 1_555
Nb11 O71 1.907912 1_555
Nb11 O69 1.942092 1_555
Nb11 O67 1.961943 1_555
Nb11 O139 2.015412 1_555
Nb11 O143 2.080712 1_555
Nb11 O141 2.089353 1_555
O0 Si0 1.625492 1_545
O0 Zn0 1.966965 1_555
O1 Si1 1.718387 1_545
O2 Si2 1.678681 1_555
O3 S0 1.470520 1_555
O3 Zn0 2.464163 1_665
O4 Si4 1.723829 1_555
O5 Si3 1.632678 1_555
O5 Zn0 2.023649 1_655
O6 Si5 1.702800 1_555
O7 Si6 1.612005 1_555
O7 Zn1 2.002271 1_555
O8 Si8 1.627762 1_555
O8 Zn1 2.035599 1_565
O9 Si7 1.695023 1_655
O10 S1 1.483777 1_555
O10 Zn1 2.499774 1_555
O11 Si9 1.662398 1_545
O12 S1 1.453478 1_565
O12 Zn3 2.416465 1_565
O13 Si9 1.592407 1_555
O13 Zn2 2.058274 1_665
O14 Si5 1.609853 1_555
O14 Zn2 1.991345 1_555
O15 Si6 1.606606 1_555
O15 Zn3 1.979235 1_555
O16 Si7 1.579815 1_555
O16 Zn2 1.885507 1_565
O17 Si8 1.596593 1_555
O17 Zn3 1.930041 1_565
O18 Si2 1.579378 1_555
O18 Zn5 2.093776 1_555
O19 S0 1.474957 1_555
O19 Zn4 2.410866 1_665
O20 Si3 1.592775 1_455
O20 Zn4 1.935705 1_555
O21 Si4 1.577310 1_555
O21 Zn5 1.941184 1_545
O22 Si0 1.615476 1_555
O22 Zn4 1.980120 1_565
O23 Si1 1.596610 1_555
O23 Zn5 2.031337 1_555
O24 Si10 1.692355 1_555
O25 S2 1.501988 1_555
O26 Si11 1.721892 1_555
O27 Si12 1.702191 1_555
O28 S3 1.532341 1_555
O29 S4 1.492590 1_555
O30 Si13 1.694728 1_555
O31 Si14 1.695128 1_555
O32 S5 1.489180 1_555
O33 S6 1.544832 1_555
O34 Si15 1.691206 1_555
O35 Si16 1.738608 1_555
O36 Si15 1.601103 1_555
O36 Zn6 1.967887 1_554
O37 Si16 1.603826 1_555
O37 Zn7 1.955517 1_554
O38 Si13 1.600171 1_555
O38 Zn6 1.949387 1_554
O39 Si14 1.593232 1_555
O39 Zn7 2.006714 1_554
O40 S5 1.471196 1_555
O40 Zn6 2.109529 1_554
O41 S6 1.457089 1_555
O41 Zn7 2.324528 1_554
O42 Si11 1.605488 1_555
O42 Zn8 1.986924 1_555
O43 Si12 1.599690 1_555
O43 Zn9 1.941873 1_555
O44 S3 1.464942 1_555
O44 Zn8 2.317106 1_555
O45 S4 1.463383 1_555
O45 Zn9 2.081920 1_555
O46 Si10 1.594681 1_555
O46 Zn8 2.015251 1_555
O47 S2 1.462121 1_555
O47 Zn9 2.222975 1_555
O48 S7 1.519261 1_555
O49 Si17 1.654455 1_555
O50 Si18 1.721687 1_555
O51 Si19 1.718464 1_555
O52 Si20 1.706710 1_555
O53 Si21 1.677055 1_555
O54 Si22 1.701108 1_555
O55 S8 1.524063 1_555
O56 Si23 1.700036 1_555
O57 Si24 1.713256 1_555
O58 Si25 1.732919 1_555
O59 Si26 1.739033 1_555
O60 Si25 1.645044 1_555
O61 Si26 1.588470 1_555
O61 Zn10 1.938378 1_555
O62 Si22 1.632551 1_555
O63 S8 1.473128 1_555
O63 Zn10 2.308638 1_555
O64 Si23 1.654120 1_555
O65 Si24 1.602716 1_555
O65 Zn10 1.966242 1_555
O66 Si18 1.592130 1_555
O66 Zn11 1.937201 1_555
O67 Si19 1.661335 1_555
O68 Si20 1.606998 1_555
O68 Zn11 1.963983 1_555
O69 Si21 1.667746 1_555
O70 S7 1.479501 1_555
O70 Zn11 2.220086 1_555
O71 Si17 1.655057 1_555
O72 Si25 1.608058 1_555
O72 Zn0 2.278464 1_565
O73 Si26 1.656404 1_555
O74 Si22 1.638940 1_555
O75 S8 1.475092 1_555
O75 Zn0 2.552786 1_665
O76 Si23 1.619797 1_555
O76 Zn0 2.089910 1_555
O77 Si24 1.675018 1_555
O78 Si18 1.660783 1_555
O79 Si19 1.611865 1_555
O79 Zn1 2.169874 1_555
O80 Si20 1.689185 1_555
O81 Si21 1.617078 1_555
O81 Zn1 2.052088 1_565
O82 S7 1.473706 1_555
O82 Zn1 2.498102 1_565
O83 Si17 1.659224 1_555
O84 Si10 1.615059 1_555
O84 Zn3 2.222921 1_555
O85 S2 1.480380 1_555
O85 Zn2 2.518544 1_655
O86 Si11 1.606524 1_555
O86 Zn2 2.159475 1_555
O87 Si12 1.607089 1_555
O87 Zn3 2.034536 1_555
O88 S3 1.452449 1_555
O88 Zn3 2.488655 1_565
O89 S4 1.480932 1_555
O89 Zn2 2.484822 1_665
O90 Si13 1.615177 1_555
O90 Zn5 2.183389 1_555
O91 Si14 1.614418 1_555
O91 Zn4 2.212087 1_665
O92 S5 1.464786 1_555
O92 Zn5 2.446111 1_545
O93 S6 1.462201 1_555
O93 Zn4 2.507019 1_655
O94 Si15 1.611049 1_555
O94 Zn4 2.006637 1_555
O95 Si16 1.591181 1_555
O95 Zn5 2.157102 1_545
O96 S1 1.568728 1_555
O97 Si9 1.723328 1_545
O98 Si5 1.694839 1_555
O99 Si6 1.701276 1_555
O100 Si8 1.705073 1_555
O101 Si7 1.679094 1_655
O102 Si2 1.701643 1_555
O103 S0 1.559786 1_555
O104 Si4 1.670862 1_555
O105 Si3 1.693600 1_555
O106 Si0 1.660503 1_545
O107 Si1 1.694311 1_545
O108 S7 1.482529 1_555
O108 Zn6 2.377537 1_555
O109 Si17 1.600175 1_555
O109 Zn7 2.141313 1_555
O110 Si19 1.609998 1_555
O110 Zn6 2.263076 1_555
O111 Si18 1.603269 1_655
O111 Zn7 2.134613 1_555
O112 Si20 1.617085 1_545
O112 Zn6 2.184148 1_555
O113 Si21 1.607173 1_545
O113 Zn7 2.223362 1_555
O114 Si22 1.593913 1_545
O114 Zn8 2.124422 1_555
O115 S8 1.486676 1_545
O115 Zn9 2.304457 1_555
O116 Si23 1.605682 1_555
O116 Zn8 2.206269 1_555
O117 Si24 1.624748 1_555
O117 Zn9 2.057193 1_555
O118 Si26 1.602557 1_555
O118 Zn8 2.133753 1_555
O119 Si25 1.622676 1_655
O119 Zn9 2.100598 1_555
O120 Si15 1.704199 1_555
O121 Si16 1.687851 1_555
O122 Si14 1.707857 1_455
O123 Si13 1.698971 1_555
O124 S5 1.541353 1_565
O125 S6 1.506642 1_565
O126 Si11 1.707761 1_565
O127 Si12 1.698745 1_565
O128 S3 1.525563 1_555
O129 S4 1.528922 1_555
O130 S2 1.519797 1_455
O131 Si10 1.711245 1_555
O132 Si0 1.664778 1_555
O133 Si1 1.619646 1_555
O133 Zn10 2.114716 1_555
O134 Si2 1.655644 1_555
O135 S0 1.469246 1_555
O135 Zn10 2.446746 1_555
O136 Si3 1.678758 1_455
O137 Si4 1.628017 1_555
O137 Zn10 2.052156 1_555
O138 Si5 1.617310 1_555
O138 Zn11 2.155369 1_555
O139 Si6 1.647303 1_555
O140 Si7 1.618146 1_555
O140 Zn11 2.058174 1_555
O141 Si8 1.677064 1_555
O142 S1 1.468263 1_565
O142 Zn11 2.480193 1_555
O143 Si9 1.645569 1_555
