# generated using pymatgen
data_Na8TaAl3Si5SO24
_symmetry_space_group_name_H-M   'P 1'
_cell_length_a   8.90196314
_cell_length_b   8.89797729
_cell_length_c   21.76083382
_cell_angle_alpha   89.68358251
_cell_angle_beta   89.96942510
_cell_angle_gamma   120.09362331
_symmetry_Int_Tables_number   1
_chemical_formula_structural   Na8TaAl3Si5SO24
_chemical_formula_sum   'Na24 Ta3 Al9 Si15 S3 O72'
_cell_volume   1491.29296989
_cell_formula_units_Z   3
loop_
 _symmetry_equiv_pos_site_id
 _symmetry_equiv_pos_as_xyz
  1  'x, y, z'
loop_
 _atom_site_type_symbol
 _atom_site_label
 _atom_site_symmetry_multiplicity
 _atom_site_fract_x
 _atom_site_fract_y
 _atom_site_fract_z
 _atom_site_occupancy
  Na  Na0  1  0.62195443  0.99885885  0.25136579  1
  Na  Na1  1  0.36667017  0.36108082  0.25318766  1
  Na  Na2  1  0.00758740  0.63937041  0.24991914  1
  Na  Na3  1  0.63615730  0.62203839  0.74645503  1
  Na  Na4  1  0.99650817  0.36567176  0.74175099  1
  Na  Na5  1  0.35967762  0.00578874  0.74450286  1
  Na  Na6  1  0.29865380  0.33734826  0.58248206  1
  Na  Na7  1  0.03767278  0.70205352  0.58281322  1
  Na  Na8  1  0.66504077  0.96326307  0.58008786  1
  Na  Na9  1  0.29941706  0.96076920  0.08382834  1
  Na  Na10  1  0.66270761  0.70037576  0.08165541  1
  Na  Na11  1  0.03708506  0.33584837  0.08200113  1
  Na  Na12  1  0.96940098  0.67317041  0.91516825  1
  Na  Na13  1  0.70150626  0.02772678  0.91769918  1
  Na  Na14  1  0.32637393  0.29657620  0.91455456  1
  Na  Na15  1  0.97333305  0.30202982  0.41881198  1
  Na  Na16  1  0.33053402  0.02835725  0.41683376  1
  Na  Na17  1  0.69912123  0.67281928  0.41868929  1
  Na  Na18  1  0.00020961  0.00091540  0.50178590  1
  Na  Na19  1  0.99938495  0.99888670  -0.00001290  1
  Na  Na20  1  0.66494169  0.33940701  0.82954140  1
  Na  Na21  1  0.66004071  0.32766452  0.33408025  1
  Na  Na22  1  0.33228283  0.67237357  0.16361905  1
  Na  Na23  1  0.32837448  0.66217446  0.65822067  1
  Ta  Ta0  1  0.66629826  0.33268399  0.98190431  1
  Ta  Ta1  1  0.66758528  0.33486866  0.48090971  1
  Ta  Ta2  1  0.32368925  0.65837600  0.81350900  1
  Al  Al0  1  0.01894143  0.00628762  0.35995222  1
  Al  Al1  1  0.01320082  0.99495934  0.85527107  1
  Al  Al2  1  0.01821016  0.00536483  0.64193691  1
  Al  Al3  1  0.01108387  0.99365228  0.14169174  1
  Al  Al4  1  0.66426429  0.34504448  0.68066729  1
  Al  Al5  1  0.64857741  0.31811002  0.17773761  1
  Al  Al6  1  0.33399261  0.66657385  0.02115320  1
  Al  Al7  1  0.33436560  0.66712914  0.51932778  1
  Al  Al8  1  0.33082909  0.68231932  0.32374104  1
  Si  Si0  1  0.28981357  0.99962742  0.24979758  1
  Si  Si1  1  0.28728358  0.27936723  0.74871157  1
  Si  Si2  1  0.99265892  0.71302578  0.74873746  1
  Si  Si3  1  0.96015857  0.33240058  0.58779117  1
  Si  Si4  1  0.37689406  0.03892032  0.58726974  1
  Si  Si5  1  0.66632963  0.63282252  0.58594447  1
  Si  Si6  1  0.95855892  0.62287829  0.08848860  1
  Si  Si7  1  0.66848354  0.03474409  0.08717931  1
  Si  Si8  1  0.37080236  0.33679077  0.08636072  1
  Si  Si9  1  0.62790415  0.67488194  0.91851471  1
  Si  Si10  1  0.04256033  0.36818656  0.92029333  1
  Si  Si11  1  0.33016688  0.95254300  0.91912910  1
  Si  Si12  1  0.62702090  0.95231713  0.41533465  1
  Si  Si13  1  0.33039255  0.38620466  0.41472576  1
  Si  Si14  1  0.04949191  0.66989194  0.41647574  1
  S  S0  1  0.71278147  0.71208723  0.24935687  1
  S  S1  1  0.99977907  0.28735999  0.24926414  1
  S  S2  1  0.71494423  0.00183335  0.75086085  1
  O  O0  1  0.19704003  0.03484644  0.30885693  1
  O  O1  1  0.81951193  0.79410628  0.30472279  1
  O  O2  1  0.96953931  0.17768538  0.30496419  1
  O  O3  1  0.19749099  0.16694411  0.81095511  1
  O  O4  1  0.96396454  0.79816635  0.81068677  1
  O  O5  1  0.81815754  0.02527893  0.80641374  1
  O  O6  1  0.78996669  0.96924445  0.69530582  1
  O  O7  1  0.15906367  0.19981357  0.69031173  1
  O  O8  1  0.03502098  0.84038864  0.69008836  1
  O  O9  1  0.79380001  0.82275901  0.19393050  1
  O  O10  1  0.02391487  0.20417092  0.19415435  1
  O  O11  1  0.16333764  0.96499871  0.19032252  1
  O  O12  1  0.86346725  0.36575948  0.64545133  1
  O  O13  1  0.50523919  0.13358953  0.64532166  1
  O  O14  1  0.62691334  0.50377877  0.64430153  1
  O  O15  1  0.85883562  0.49149387  0.14603881  1
  O  O16  1  0.63014418  0.12760864  0.14414175  1
  O  O17  1  0.50086518  0.37529969  0.14386815  1
  O  O18  1  0.46131622  0.29470610  0.02580409  1
  O  O19  1  0.83210299  0.53412493  0.02632678  1
  O  O20  1  0.70785402  0.16573796  0.02566371  1
  O  O21  1  0.46666878  0.16718147  0.52550033  1
  O  O22  1  0.70523855  0.54017188  0.52533091  1
  O  O23  1  0.83333578  0.29751360  0.52584680  1
  O  O24  1  0.53483449  0.70408787  0.97686834  1
  O  O25  1  0.16896244  0.46278768  0.97719729  1
  O  O26  1  0.29778878  0.82794606  0.97728455  1
  O  O27  1  0.54037499  0.83189322  0.47551618  1
  O  O28  1  0.29718679  0.46945067  0.47541943  1
  O  O29  1  0.17150464  0.70600701  0.47582710  1
  O  O30  1  0.12396596  0.62418661  0.35499337  1
  O  O31  1  0.50445407  0.87536245  0.35461990  1
  O  O32  1  0.36785177  0.50843792  0.35307804  1
  O  O33  1  0.12781420  0.49794906  0.85843794  1
  O  O34  1  0.37175045  0.86944545  0.85719886  1
  O  O35  1  0.50066363  0.63336116  0.85718558  1
  O  O36  1  0.01970739  0.83649246  0.40847652  1
  O  O37  1  0.82188595  0.97944156  0.40413751  1
  O  O38  1  0.16130381  0.18953865  0.40905764  1
  O  O39  1  0.01729374  0.17830201  0.90814615  1
  O  O40  1  0.16187970  0.97595008  0.91209810  1
  O  O41  1  0.81837676  0.84393104  0.90891623  1
  O  O42  1  0.97133695  0.15513227  0.59194095  1
  O  O43  1  0.18861527  0.02804391  0.58839406  1
  O  O44  1  0.84123920  0.82181860  0.59249991  1
  O  O45  1  0.97043495  0.81183072  0.09064153  1
  O  O46  1  0.84362625  0.02149846  0.09499330  1
  O  O47  1  0.18162242  0.16130949  0.09125865  1
  O  O48  1  0.69110747  0.15396287  0.74685418  1
  O  O49  1  0.48329712  0.30479496  0.74416283  1
  O  O50  1  0.82826992  0.51302732  0.74439686  1
  O  O51  1  0.69733040  0.53677408  0.24532392  1
  O  O52  1  0.84391015  0.30957984  0.24551214  1
  O  O53  1  0.48786553  0.17771845  0.24296349  1
  O  O54  1  0.64296489  0.49647939  0.92197111  1
  O  O55  1  0.85221226  0.35774112  0.92168379  1
  O  O56  1  0.50631797  0.14704066  0.92175933  1
  O  O57  1  0.64602097  0.14838672  0.42143041  1
  O  O58  1  0.50417798  0.36070209  0.42014429  1
  O  O59  1  0.85232413  0.49547332  0.42105750  1
  O  O60  1  0.35603073  0.50913880  0.07731314  1
  O  O61  1  0.14719106  0.64031603  0.07884584  1
  O  O62  1  0.49420705  0.84883574  0.07745522  1
  O  O63  1  0.35936680  0.85027032  0.57803324  1
  O  O64  1  0.49206111  0.64469713  0.57674037  1
  O  O65  1  0.14811686  0.50588930  0.57797531  1
  O  O66  1  0.31098707  0.82312081  0.25635729  1
  O  O67  1  0.53520825  0.68936356  0.25275345  1
  O  O68  1  0.15905422  0.46237976  0.25288673  1
  O  O69  1  0.31382121  0.48236242  0.75502053  1
  O  O70  1  0.17438274  0.69572322  0.75487293  1
  O  O71  1  0.53481155  0.84082813  0.75491176  1
loop_
_geom_bond_atom_site_label_1
_geom_bond_atom_site_label_2
_geom_bond_distance
_geom_bond_site_symmetry_2
Na0 O66 2.403517 1_555
Na0 O53 2.427583 1_565
Na0 O67 2.459177 1_555
Na0 O52 2.466138 1_565
Na0 O31 2.483486 1_555
Na0 O16 2.578468 1_565
Na1 O53 2.375799 1_555
Na1 O68 2.428750 1_555
Na1 O67 2.527522 1_555
Na1 O32 2.542035 1_555
Na1 O51 2.553313 1_555
Na1 O17 2.635192 1_555
Na1 O0 2.781647 1_555
Na1 O10 2.943003 1_555
Na2 O66 2.358391 1_555
Na2 O51 2.438092 1_455
Na2 O68 2.535911 1_555
Na2 O52 2.541416 1_455
Na2 O30 2.541480 1_555
Na2 O15 2.623645 1_455
Na2 O11 2.815547 1_555
Na2 O1 2.906660 1_455
Na3 O50 2.351915 1_555
Na3 O49 2.443782 1_555
Na3 O14 2.448413 1_555
Na3 O69 2.496705 1_555
Na3 O71 2.530386 1_555
Na3 O35 2.718922 1_555
Na3 O4 2.892675 1_555
Na3 O6 2.894227 1_555
Na4 O12 2.407812 1_555
Na4 O48 2.411144 1_555
Na4 O50 2.436267 1_555
Na4 O69 2.490664 1_655
Na4 O70 2.561233 1_655
Na4 O7 2.771839 1_655
Na4 O33 2.802800 1_655
Na5 O49 2.313711 1_555
Na5 O70 2.410925 1_545
Na5 O13 2.474375 1_555
Na5 O48 2.558442 1_555
Na5 O71 2.632097 1_545
Na5 O34 2.756010 1_545
Na5 O8 2.770941 1_545
Na5 O3 2.885942 1_555
Na6 O64 2.394390 1_555
Na6 O43 2.417230 1_555
Na6 O65 2.463395 1_555
Na6 O42 2.533621 1_455
Na6 O28 2.606695 1_555
Na6 O7 2.643448 1_555
Na6 O14 2.868496 1_555
Na6 O21 2.890841 1_555
Na7 O65 2.397335 1_555
Na7 O44 2.471572 1_455
Na7 O63 2.482276 1_555
Na7 O43 2.515852 1_565
Na7 O29 2.606680 1_555
Na7 O8 2.650642 1_555
Na7 O22 2.854148 1_455
Na7 O12 2.918224 1_455
Na8 O63 2.382078 1_555
Na8 O42 2.398578 1_565
Na8 O64 2.456942 1_555
Na8 O44 2.468510 1_555
Na8 O27 2.550950 1_555
Na8 O6 2.733296 1_555
Na8 O23 2.823868 1_565
Na8 O13 2.918789 1_565
Na9 O62 2.398169 1_555
Na9 O61 2.471270 1_555
Na9 O47 2.487818 1_565
Na9 O45 2.541686 1_455
Na9 O26 2.604894 1_554
Na9 O11 2.623525 1_555
Na9 O18 2.857014 1_565
Na9 O16 2.870000 1_565
Na10 O60 2.387661 1_555
Na10 O45 2.409204 1_555
Na10 O62 2.447289 1_555
Na10 O46 2.497451 1_565
Na10 O24 2.556574 1_554
Na10 O9 2.697210 1_555
Na10 O17 2.837373 1_555
Na10 O19 2.857725 1_555
Na11 O61 2.374840 1_555
Na11 O46 2.455508 1_455
Na11 O60 2.461079 1_555
Na11 O47 2.471590 1_555
Na11 O25 2.548360 1_554
Na11 O10 2.678277 1_555
Na11 O20 2.821216 1_455
Na11 O15 2.932659 1_455
Na12 O40 2.359505 1_655
Na12 O55 2.458671 1_555
Na12 O41 2.486167 1_555
Na12 O54 2.520608 1_555
Na12 O4 2.536690 1_555
Na12 O19 2.706102 1_556
Na12 O33 2.857924 1_655
Na12 O26 2.873476 1_655
Na13 O41 2.345842 1_545
Na13 O39 2.441314 1_655
Na13 O56 2.450469 1_555
Na13 O55 2.546065 1_555
Na13 O5 2.638909 1_555
Na13 O20 2.644488 1_556
Na13 O24 2.797199 1_545
Na13 O34 2.865739 1_545
Na14 O39 2.407395 1_555
Na14 O40 2.469539 1_545
Na14 O54 2.471670 1_555
Na14 O3 2.536439 1_555
Na14 O56 2.548781 1_555
Na14 O18 2.706780 1_556
Na14 O25 2.847374 1_555
Na14 O35 2.870533 1_555
Na15 O38 2.351276 1_655
Na15 O59 2.446587 1_555
Na15 O37 2.507689 1_545
Na15 O57 2.523156 1_555
Na15 O23 2.631619 1_555
Na15 O2 2.712160 1_555
Na15 O28 2.786595 1_655
Na15 O30 2.836039 1_655
Na16 O36 2.422923 1_545
Na16 O57 2.455930 1_555
Na16 O38 2.553291 1_555
Na16 O58 2.560860 1_555
Na16 O0 2.647027 1_555
Na16 O21 2.668386 1_555
Na16 O29 2.786477 1_545
Na16 O31 2.866160 1_545
Na17 O37 2.395480 1_555
Na17 O58 2.427193 1_555
Na17 O36 2.478422 1_655
Na17 O59 2.551500 1_555
Na17 O22 2.610676 1_555
Na17 O1 2.696557 1_555
Na17 O27 2.748272 1_555
Na17 O32 2.928516 1_555
Na18 O43 2.454703 1_555
Na18 O44 2.477830 1_445
Na18 O42 2.486118 1_455
Na18 O38 2.547734 1_555
Na18 O36 2.565261 1_545
Na18 O37 2.602998 1_445
Na19 O40 2.467650 1_654
Na19 O41 2.496098 1_554
Na19 O45 2.502270 1_555
Na19 O39 2.505464 1_664
Na19 O47 2.519759 1_665
Na19 O46 2.553140 1_565
Na20 O50 2.376237 1_555
Na20 O49 2.381483 1_555
Na20 O54 2.518329 1_555
Na20 O48 2.536223 1_555
Na20 O56 2.546754 1_555
Na20 O55 2.561369 1_555
Na21 O58 2.435434 1_555
Na21 O57 2.437204 1_555
Na21 O53 2.458135 1_555
Na21 O59 2.492658 1_555
Na21 O51 2.577363 1_555
Na21 O52 2.585294 1_555
Na22 O61 2.395203 1_555
Na22 O62 2.398680 1_555
Na22 O60 2.453400 1_555
Na22 O66 2.488415 1_555
Na22 O68 2.590364 1_555
Na22 O67 2.604107 1_555
Na23 O65 2.313006 1_555
Na23 O63 2.329442 1_555
Na23 O64 2.349204 1_555
Na23 O69 2.601615 1_555
Na23 O70 2.608851 1_555
Na23 O71 2.728146 1_555
Al0 O38 1.831686 1_555
Al0 O36 1.841295 1_545
Al0 O0 1.845372 1_555
Al0 O37 1.906346 1_445
Al0 O2 2.145724 1_455
Al0 O1 2.196983 1_445
Al1 O3 1.851374 1_565
Al1 O4 1.857188 1_455
Al1 O40 1.879755 1_555
Al1 O41 1.954425 1_455
Al1 O39 1.986904 1_565
Al1 O5 2.164786 1_465
Al2 O43 1.840627 1_555
Al2 O8 1.865122 1_545
Al2 O7 1.876128 1_555
Al2 O42 1.917224 1_455
Al2 O44 1.935849 1_445
Al2 O6 2.217836 1_445
Al3 O11 1.834931 1_555
Al3 O45 1.848146 1_455
Al3 O47 1.855698 1_565
Al3 O46 1.919760 1_465
Al3 O9 2.091602 1_455
Al3 O10 2.152766 1_565
Al4 O14 1.786222 1_555
Al4 O12 1.853382 1_555
Al4 O13 1.865959 1_555
Al4 O49 2.011512 1_555
Al4 O50 2.031147 1_555
Al4 O48 2.324453 1_555
Al5 O16 1.780326 1_555
Al5 O17 1.788607 1_555
Al5 O15 1.857506 1_555
Al5 O53 1.951384 1_555
Al5 O51 2.307059 1_555
Al5 O52 2.310481 1_555
Al6 O26 1.877817 1_554
Al6 O24 1.905979 1_554
Al6 O25 1.926239 1_554
Al6 O60 1.936833 1_555
Al6 O62 1.967120 1_555
Al6 O61 2.000217 1_555
Al7 O28 1.884531 1_555
Al7 O29 1.902211 1_555
Al7 O27 1.925594 1_555
Al7 O64 1.962515 1_555
Al7 O63 1.999157 1_555
Al7 O65 2.007011 1_555
Al8 O31 1.772668 1_555
Al8 O30 1.777834 1_555
Al8 O32 1.846794 1_555
Al8 O66 1.988177 1_555
Al8 O68 2.362266 1_555
Al8 O67 2.362600 1_555
O0 Si0 1.641587 1_545
O1 S0 1.484070 1_555
O2 S1 1.488990 1_555
O3 Si1 1.629790 1_555
O4 Si2 1.631391 1_555
O5 S2 1.469983 1_555
O6 S2 1.479466 1_565
O7 Si1 1.618681 1_555
O8 Si2 1.615635 1_455
O9 S0 1.489415 1_555
O10 S1 1.483666 1_455
O11 Si0 1.641842 1_555
O12 Si3 1.631721 1_555
O13 Si4 1.630616 1_555
O14 Si5 1.622829 1_555
O15 Si6 1.632488 1_555
O16 Si7 1.621550 1_555
O17 Si8 1.622468 1_555
O18 Si8 1.683110 1_555
O18 Ta0 1.932012 1_554
O19 Si6 1.685992 1_555
O19 Ta0 1.921806 1_554
O20 Si7 1.686993 1_555
O20 Ta0 1.945789 1_554
O21 Si4 1.677848 1_555
O21 Ta1 1.916429 1_555
O22 Si5 1.684414 1_555
O22 Ta1 1.946712 1_555
O23 Si3 1.686041 1_555
O23 Ta1 1.932251 1_555
O24 Si9 1.607744 1_555
O25 Si10 1.603488 1_555
O26 Si11 1.605424 1_555
O27 Si12 1.616402 1_555
O28 Si13 1.615665 1_555
O29 Si14 1.614656 1_555
O30 Si14 1.634122 1_555
O31 Si12 1.633163 1_555
O32 Si13 1.647261 1_555
O33 Si10 1.680446 1_555
O33 Ta2 1.876335 1_555
O34 Si11 1.668792 1_555
O34 Ta2 1.956660 1_555
O35 Si9 1.669721 1_555
O35 Ta2 1.945697 1_555
O36 Si14 1.639966 1_555
O37 Si12 1.644927 1_555
O38 Si13 1.644463 1_555
O39 Si10 1.612162 1_555
O40 Si11 1.619827 1_555
O41 Si9 1.618541 1_555
O42 Si3 1.631522 1_555
O43 Si4 1.629840 1_555
O44 Si5 1.627824 1_555
O45 Si6 1.631793 1_555
O46 Si7 1.630331 1_555
O47 Si8 1.626804 1_555
O48 S2 1.473685 1_555
O49 Si1 1.646008 1_555
O50 Si2 1.645525 1_555
O51 S0 1.498788 1_555
O52 S1 1.498690 1_555
O53 Si0 1.684333 1_545
O54 Si9 1.660018 1_555
O54 Ta0 2.037427 1_555
O55 Si10 1.650081 1_655
O55 Ta0 2.032346 1_555
O56 Si11 1.654389 1_545
O56 Ta0 2.033839 1_555
O57 Si12 1.672296 1_545
O57 Ta1 2.042054 1_555
O58 Si13 1.676499 1_555
O58 Ta1 2.061878 1_555
O59 Si14 1.663017 1_655
O59 Ta1 2.015791 1_555
O60 Si8 1.614542 1_555
O61 Si6 1.620428 1_455
O62 Si7 1.618223 1_565
O63 Si4 1.619742 1_565
O64 Si5 1.619378 1_555
O65 Si3 1.622954 1_455
O66 Si0 1.678378 1_555
O67 S0 1.491410 1_555
O68 S1 1.492970 1_455
O69 Si1 1.706472 1_555
O69 Ta2 1.991148 1_555
O70 Si2 1.705357 1_455
O70 Ta2 1.986242 1_555
O71 S2 1.525187 1_565
O71 Ta2 2.169914 1_555
