# generated using pymatgen
data_CeZnSn
_symmetry_space_group_name_H-M   'P 1'
_cell_length_a   4.55915751
_cell_length_b   4.55915751
_cell_length_c   16.98223452
_cell_angle_alpha   90.00000000
_cell_angle_beta   90.00000000
_cell_angle_gamma   120.00000773
_symmetry_Int_Tables_number   1
_chemical_formula_structural   CeZnSn
_chemical_formula_sum   'Ce4 Zn4 Sn4'
_cell_volume   305.69942755
_cell_formula_units_Z   4
loop_
 _symmetry_equiv_pos_site_id
 _symmetry_equiv_pos_as_xyz
  1  'x, y, z'
loop_
 _atom_site_type_symbol
 _atom_site_label
 _atom_site_symmetry_multiplicity
 _atom_site_fract_x
 _atom_site_fract_y
 _atom_site_fract_z
 _atom_site_occupancy
  Ce  Ce0  1  0.00000000  0.00000000  0.75000000  1
  Ce  Ce1  1  0.00000000  -0.00000000  0.25000000  1
  Ce  Ce2  1  0.00000000  -0.00000000  0.50000000  1
  Ce  Ce3  1  0.00000000  -0.00000000  -0.00000000  1
  Zn  Zn0  1  0.66666700  0.33333300  0.84201690  1
  Zn  Zn1  1  0.66666700  0.33333300  0.65798310  1
  Zn  Zn2  1  0.33333300  0.66666700  0.15798310  1
  Zn  Zn3  1  0.33333300  0.66666700  0.34201690  1
  Sn  Sn0  1  0.66666700  0.33333300  0.11726575  1
  Sn  Sn1  1  0.66666700  0.33333300  0.38273425  1
  Sn  Sn2  1  0.33333300  0.66666700  0.88273425  1
  Sn  Sn3  1  0.33333300  0.66666700  0.61726575  1
loop_
_geom_bond_atom_site_label_1
_geom_bond_atom_site_label_2
_geom_bond_distance
_geom_bond_site_symmetry_2
Ce0 Zn0 3.061129 1_455
Ce0 Zn1 3.061129 1_455
Ce0 Zn0 3.061132 1_445
Ce0 Zn0 3.061132 1_555
Ce0 Zn1 3.061132 1_555
Ce0 Zn1 3.061132 1_445
Ce0 Sn3 3.465502 1_545
Ce0 Sn2 3.465502 1_545
Ce0 Sn3 3.465504 1_445
Ce0 Sn3 3.465504 1_555
Ce0 Sn2 3.465504 1_445
Ce0 Sn2 3.465504 1_555
Ce1 Zn3 3.061129 1_545
Ce1 Zn2 3.061129 1_545
Ce1 Zn3 3.061132 1_445
Ce1 Zn3 3.061132 1_555
Ce1 Zn2 3.061132 1_555
Ce1 Zn2 3.061132 1_445
Ce1 Sn0 3.465502 1_455
Ce1 Sn1 3.465502 1_455
Ce1 Sn0 3.465504 1_445
Ce1 Sn1 3.465504 1_445
Ce1 Sn1 3.465504 1_555
Ce1 Sn0 3.465504 1_555
Ce2 Sn1 3.300672 1_455
Ce2 Sn3 3.300672 1_545
Ce2 Sn1 3.300675 1_445
Ce2 Sn1 3.300675 1_555
Ce2 Sn3 3.300675 1_445
Ce2 Sn3 3.300675 1_555
Ce3 Sn2 3.300672 1_544
Ce3 Sn0 3.300672 1_455
Ce3 Sn2 3.300675 1_444
Ce3 Sn2 3.300675 1_554
Ce3 Sn0 3.300675 1_555
Ce3 Sn0 3.300675 1_445
Sn0 Zn2 2.721536 1_545
Sn0 Zn2 2.721536 1_655
Sn0 Zn2 2.721544 1_555
Sn1 Zn3 2.721536 1_545
Sn1 Zn3 2.721536 1_655
Sn1 Zn3 2.721544 1_555
Sn2 Zn0 2.721536 1_455
Sn2 Zn0 2.721536 1_565
Sn2 Zn0 2.721544 1_555
Sn3 Zn1 2.721536 1_455
Sn3 Zn1 2.721536 1_565
Sn3 Zn1 2.721544 1_555
