# generated using pymatgen
data_TiVO4
_symmetry_space_group_name_H-M   'P 1'
_cell_length_a   5.54960028
_cell_length_b   5.54960005
_cell_length_c   5.54959994
_cell_angle_alpha   139.02927992
_cell_angle_beta   141.02629679
_cell_angle_gamma   57.82686393
_symmetry_Int_Tables_number   1
_chemical_formula_structural   TiVO4
_chemical_formula_sum   'Ti1 V1 O4'
_cell_volume   69.86658005
_cell_formula_units_Z   1
loop_
 _symmetry_equiv_pos_site_id
 _symmetry_equiv_pos_as_xyz
  1  'x, y, z'
loop_
 _atom_site_type_symbol
 _atom_site_label
 _atom_site_symmetry_multiplicity
 _atom_site_fract_x
 _atom_site_fract_y
 _atom_site_fract_z
 _atom_site_occupancy
  Ti  Ti0  1  0.75739600  0.25739600  0.50000000  1
  V  V0  1  0.99466700  0.99466700  0.00000000  1
  O  O0  1  0.53723500  0.03723500  0.50000000  1
  O  O1  1  0.20730800  0.20730800  0.00000000  1
  O  O2  1  0.95684400  0.45684400  0.50000000  1
  O  O3  1  0.79655000  0.79655000  0.00000000  1
loop_
_geom_bond_atom_site_label_1
_geom_bond_atom_site_label_2
_geom_bond_distance
_geom_bond_site_symmetry_2
O0 V0 1.896928 1_546
O0 V0 1.896928 1_445
O0 Ti0 2.139018 1_555
O1 Ti0 1.914186 1_454
O1 Ti0 1.914186 1_555
O1 V0 2.065956 1_445
O2 Ti0 1.937777 1_555
O2 V0 1.976642 1_545
O2 V0 1.976642 1_556
O3 V0 1.924845 1_555
O3 Ti0 1.979087 1_565
O3 Ti0 1.979087 1_554
