# generated using pymatgen
data_MgScCr2Ag(H2O5)2
_symmetry_space_group_name_H-M   'P 1'
_cell_length_a   5.79797122
_cell_length_b   6.57066626
_cell_length_c   7.15478490
_cell_angle_alpha   109.79974077
_cell_angle_beta   95.44376045
_cell_angle_gamma   111.63629334
_symmetry_Int_Tables_number   1
_chemical_formula_structural   MgScCr2Ag(H2O5)2
_chemical_formula_sum   'Mg1 Sc1 Cr2 Ag1 H4 O10'
_cell_volume   230.74071282
_cell_formula_units_Z   1
loop_
 _symmetry_equiv_pos_site_id
 _symmetry_equiv_pos_as_xyz
  1  'x, y, z'
loop_
 _atom_site_type_symbol
 _atom_site_label
 _atom_site_symmetry_multiplicity
 _atom_site_fract_x
 _atom_site_fract_y
 _atom_site_fract_z
 _atom_site_occupancy
  Mg  Mg0  1  0.27648555  0.31387600  0.46971879  1
  Sc  Sc0  1  0.01122675  0.00748179  0.99222742  1
  Cr  Cr0  1  0.67454053  0.24938457  0.30540843  1
  Cr  Cr1  1  0.35594879  0.78227622  0.70442164  1
  Ag  Ag0  1  0.82131538  0.85788902  0.45826921  1
  H  H0  1  0.21246949  0.44939893  0.92730467  1
  H  H1  1  0.77459686  0.51548037  0.79256389  1
  H  H2  1  0.81015908  0.55691233  0.03538712  1
  H  H3  1  0.25397405  0.51061758  0.17408303  1
  O  O0  1  0.89509364  0.11362465  0.29276793  1
  O  O1  1  0.33492572  0.08803611  0.20009620  1
  O  O2  1  0.65830048  0.97510801  0.85481774  1
  O  O3  1  0.77120662  0.48181881  0.24269434  1
  O  O4  1  0.63860198  0.34449382  0.55380740  1
  O  O5  1  0.18290299  0.37934636  0.03538633  1
  O  O6  1  0.83886859  0.63808849  0.93975862  1
  O  O7  1  0.12742048  0.89991816  0.72400260  1
  O  O8  1  0.24799067  0.51921145  0.74252829  1
  O  O9  1  0.37438938  0.65037034  0.45290435  1
loop_
_geom_bond_atom_site_label_1
_geom_bond_atom_site_label_2
_geom_bond_distance
_geom_bond_site_symmetry_2
Mg0 O8 2.024590 1_555
Mg0 O4 2.043860 1_555
Mg0 O0 2.102058 1_455
Mg0 O9 2.119628 1_555
Mg0 O1 2.143290 1_555
Cr0 O3 1.651879 1_555
Cr0 O4 1.733898 1_555
Cr0 O1 1.790771 1_555
Cr0 O0 1.802110 1_555
Cr1 O2 1.707884 1_555
Cr1 O8 1.734267 1_555
Cr1 O9 1.746198 1_555
Cr1 O7 1.757809 1_555
Ag0 O0 2.307112 1_565
Ag0 O3 2.317956 1_555
Ag0 O7 2.341703 1_655
Ag0 O9 2.432177 1_555
H0 O5 1.023404 1_556
H0 O8 1.547077 1_555
H1 O6 1.013100 1_555
H1 O4 1.610296 1_555
H2 O6 0.991820 1_554
H2 O3 1.723847 1_555
H3 O5 0.989428 1_555
O0 Sc0 2.273460 1_654
O1 Sc0 2.054020 1_554
O2 Sc0 2.086769 1_665
O5 Sc0 2.166415 1_554
O6 Sc0 2.133911 1_665
O7 Sc0 2.076975 1_565
