# generated using pymatgen
data_Li2Cr(PO4)2
_symmetry_space_group_name_H-M   'P 1'
_cell_length_a   5.06668741
_cell_length_b   5.06668741
_cell_length_c   13.78452935
_cell_angle_alpha   84.37452618
_cell_angle_beta   84.37452618
_cell_angle_gamma   54.46565850
_symmetry_Int_Tables_number   1
_chemical_formula_structural   Li2Cr(PO4)2
_chemical_formula_sum   'Li4 Cr2 P4 O16'
_cell_volume   286.21013530
_cell_formula_units_Z   2
loop_
 _symmetry_equiv_pos_site_id
 _symmetry_equiv_pos_as_xyz
  1  'x, y, z'
loop_
 _atom_site_type_symbol
 _atom_site_label
 _atom_site_symmetry_multiplicity
 _atom_site_fract_x
 _atom_site_fract_y
 _atom_site_fract_z
 _atom_site_occupancy
  Li  Li0  1  0.91977900  0.05337900  0.73572400  1
  Li  Li1  1  0.62579800  0.70148400  0.84020100  1
  Li  Li2  1  0.70148400  0.62579800  0.34020100  1
  Li  Li3  1  0.05337900  0.91977900  0.23572400  1
  Cr  Cr0  1  0.00845800  0.00005300  0.50405300  1
  Cr  Cr1  1  0.00005300  0.00845800  0.00405300  1
  P  P0  1  0.32356500  0.35458700  0.88952500  1
  P  P1  1  0.68878600  0.64141800  0.11514100  1
  P  P2  1  0.35458700  0.32356500  0.38952500  1
  P  P3  1  0.64141800  0.68878600  0.61514100  1
  O  O0  1  0.33766000  0.02897700  0.42101300  1
  O  O1  1  0.26205400  0.86517700  0.61875800  1
  O  O2  1  0.72452800  0.18612100  0.37655500  1
  O  O3  1  0.50543000  0.15401000  0.80114700  1
  O  O4  1  0.56789900  0.21494200  0.97266700  1
  O  O5  1  0.86517700  0.26205400  0.11875800  1
  O  O6  1  0.02897700  0.33766000  0.92101300  1
  O  O7  1  0.70346600  0.95255200  0.58711900  1
  O  O8  1  0.15401000  0.50543000  0.30114700  1
  O  O9  1  0.44472100  0.78504100  0.03124400  1
  O  O10  1  0.18612100  0.72452800  0.87655500  1
  O  O11  1  0.78504100  0.44472100  0.53124400  1
  O  O12  1  0.95255200  0.70346600  0.08711900  1
  O  O13  1  0.76924500  0.51630000  0.71326100  1
  O  O14  1  0.51630000  0.76924500  0.21326100  1
  O  O15  1  0.21494200  0.56789900  0.47266700  1
loop_
_geom_bond_atom_site_label_1
_geom_bond_atom_site_label_2
_geom_bond_distance
_geom_bond_site_symmetry_2
Li0 O3 1.988816 1_555
Li0 O13 2.000844 1_555
Li0 O1 2.085033 1_645
Li0 O10 2.373127 1_645
Li1 O13 1.936567 1_555
Li1 O3 2.028726 1_565
Li1 O6 2.116214 1_655
Li1 O10 2.172028 1_555
Li2 O14 1.936567 1_555
Li2 O8 2.028726 1_655
Li2 O0 2.116214 1_565
Li2 O2 2.172028 1_555
Li3 O8 1.988816 1_555
Li3 O14 2.000844 1_555
Li3 O5 2.085033 1_465
Li3 O2 2.373127 1_465
Cr0 O15 1.873573 1_545
Cr0 O11 1.901512 1_455
Cr0 O1 1.945203 1_545
Cr0 O7 1.946366 1_445
Cr0 O0 1.997692 1_555
Cr0 O2 2.154415 1_455
Cr1 O4 1.873573 1_454
Cr1 O9 1.901512 1_545
Cr1 O5 1.945203 1_455
Cr1 O12 1.946366 1_445
Cr1 O6 1.997692 1_554
Cr1 O10 2.154415 1_544
O0 P2 1.561425 1_555
O1 P3 1.577634 1_555
O2 P2 1.572154 1_555
O3 P0 1.516621 1_555
O4 P0 1.564510 1_555
O5 P1 1.577634 1_555
O6 P0 1.561425 1_555
O7 P3 1.548356 1_555
O8 P2 1.516621 1_555
O9 P1 1.570211 1_555
O10 P0 1.572154 1_555
O11 P3 1.570211 1_555
O12 P1 1.548356 1_555
O13 P3 1.514813 1_555
O14 P1 1.514813 1_555
O15 P2 1.564510 1_555
