# generated using pymatgen
data_Ba2Co2O5
_symmetry_space_group_name_H-M   'P 1'
_cell_length_a   5.61275762
_cell_length_b   5.67732567
_cell_length_c   9.66942718
_cell_angle_alpha   107.25909883
_cell_angle_beta   107.05777890
_cell_angle_gamma   89.39127660
_symmetry_Int_Tables_number   1
_chemical_formula_structural   Ba2Co2O5
_chemical_formula_sum   'Ba4 Co4 O10'
_cell_volume   280.31591233
_cell_formula_units_Z   2
loop_
 _symmetry_equiv_pos_site_id
 _symmetry_equiv_pos_as_xyz
  1  'x, y, z'
loop_
 _atom_site_type_symbol
 _atom_site_label
 _atom_site_symmetry_multiplicity
 _atom_site_fract_x
 _atom_site_fract_y
 _atom_site_fract_z
 _atom_site_occupancy
  Ba  Ba0  1  0.61730100  0.11348400  0.22341200  1
  Ba  Ba1  1  0.39338800  0.88688900  0.77767900  1
  Ba  Ba2  1  0.11575300  0.60928700  0.22224600  1
  Ba  Ba3  1  0.89388100  0.39019600  0.77661700  1
  Co  Co0  1  0.00579500  0.00265300  0.00336800  1
  Co  Co1  1  0.50241300  0.49933800  0.99669600  1
  Co  Co2  1  0.23102300  0.17848500  0.50000700  1
  Co  Co3  1  0.72129500  0.81871600  0.50013200  1
  O  O0  1  0.25269200  0.25257900  0.99843400  1
  O  O1  1  0.25205100  0.74941600  0.99927000  1
  O  O2  1  0.75153000  0.25181900  0.00081800  1
  O  O3  1  0.75281400  0.75276500  0.00149100  1
  O  O4  1  0.16915400  0.17788800  0.30615900  1
  O  O5  1  0.85254300  0.83297300  0.69195900  1
  O  O6  1  0.66084400  0.64114700  0.30835200  1
  O  O7  1  0.36298300  0.37206400  0.69338400  1
  O  O8  1  0.89945800  0.09308300  0.49999400  1
  O  O9  1  0.39308200  0.87721900  0.49998100  1
loop_
_geom_bond_atom_site_label_1
_geom_bond_atom_site_label_2
_geom_bond_distance
_geom_bond_site_symmetry_2
Ba0 O8 2.714580 1_555
Ba0 O3 2.773794 1_545
Ba0 O2 2.789985 1_555
Ba0 O0 2.813761 1_554
Ba0 O1 2.827970 1_544
Ba0 O4 2.844010 1_555
Ba0 O6 2.854191 1_555
Ba0 O4 2.960472 1_655
Ba0 O6 3.016714 1_545
Ba1 O9 2.668901 1_555
Ba1 O3 2.777944 1_556
Ba1 O7 2.784197 1_555
Ba1 O0 2.795492 1_565
Ba1 O1 2.798591 1_555
Ba1 O2 2.807132 1_566
Ba1 O5 2.896347 1_455
Ba1 O5 2.916874 1_555
Ba1 O7 3.085674 1_565
Ba2 O9 2.668850 1_555
Ba2 O0 2.778057 1_554
Ba2 O4 2.787054 1_555
Ba2 O3 2.795555 1_455
Ba2 O2 2.797136 1_455
Ba2 O1 2.804479 1_554
Ba2 O6 2.897111 1_455
Ba2 O6 2.917913 1_555
Ba2 O4 3.081018 1_565
Ba3 O8 2.715052 1_555
Ba3 O0 2.773704 1_655
Ba3 O1 2.788951 1_655
Ba3 O3 2.812746 1_556
Ba3 O2 2.827623 1_556
Ba3 O7 2.843932 1_555
Ba3 O5 2.853121 1_555
Ba3 O7 2.962945 1_655
Ba3 O5 3.016521 1_545
Co0 O1 1.983706 1_544
Co0 O2 1.998885 1_455
Co0 O3 2.010375 1_445
Co0 O0 2.014122 1_554
Co0 O4 2.668073 1_555
Co1 O2 1.972347 1_556
Co1 O1 1.987004 1_555
Co1 O0 1.999237 1_555
Co1 O3 2.003166 1_556
Co1 O7 2.672855 1_555
Co2 O7 1.799480 1_555
Co2 O4 1.802322 1_555
Co2 O8 1.928051 1_455
Co2 O9 1.928629 1_545
Co3 O6 1.760415 1_555
Co3 O5 1.760757 1_555
Co3 O8 1.860490 1_565
Co3 O9 1.868062 1_555
