# generated using pymatgen
data_Na8Ga2Si5Sn2SO24
_symmetry_space_group_name_H-M   'P 1'
_cell_length_a   9.06442949
_cell_length_b   9.04485979
_cell_length_c   22.10709591
_cell_angle_alpha   90.06704940
_cell_angle_beta   89.32804499
_cell_angle_gamma   119.86045310
_symmetry_Int_Tables_number   1
_chemical_formula_structural   Na8Ga2Si5Sn2SO24
_chemical_formula_sum   'Na24 Ga6 Si15 Sn6 S3 O72'
_cell_volume   1571.72822980
_cell_formula_units_Z   3
loop_
 _symmetry_equiv_pos_site_id
 _symmetry_equiv_pos_as_xyz
  1  'x, y, z'
loop_
 _atom_site_type_symbol
 _atom_site_label
 _atom_site_symmetry_multiplicity
 _atom_site_fract_x
 _atom_site_fract_y
 _atom_site_fract_z
 _atom_site_occupancy
  Na  Na0  1  0.63792418  0.00067172  0.25267873  1
  Na  Na1  1  0.36171518  0.36286899  0.24676148  1
  Na  Na2  1  0.99990864  0.63563293  0.24978133  1
  Na  Na3  1  0.63528072  0.63607088  0.74681900  1
  Na  Na4  1  0.99973990  0.36594944  0.74994205  1
  Na  Na5  1  0.36693906  0.00259783  0.75009266  1
  Na  Na6  1  0.30172348  0.33965986  0.58516172  1
  Na  Na7  1  0.03809042  0.70073993  0.58262586  1
  Na  Na8  1  0.66443672  0.96233454  0.58266454  1
  Na  Na9  1  0.28633546  0.96306337  0.08102977  1
  Na  Na10  1  0.66784522  0.69531708  0.08652318  1
  Na  Na11  1  0.04286322  0.33513670  0.08721173  1
  Na  Na12  1  0.97138424  0.66782471  0.91610628  1
  Na  Na13  1  0.70308241  0.04222510  0.91052201  1
  Na  Na14  1  0.32257081  0.28470830  0.91892743  1
  Na  Na15  1  0.96135663  0.29335158  0.41181721  1
  Na  Na16  1  0.32745421  0.02320394  0.41532290  1
  Na  Na17  1  0.71449865  0.68109233  0.41790396  1
  Na  Na18  1  0.99266360  0.99155080  0.49926362  1
  Na  Na19  1  0.01542733  0.00598970  0.00004243  1
  Na  Na20  1  0.66647166  0.32590246  0.83391879  1
  Na  Na21  1  0.67424825  0.33282031  0.33198887  1
  Na  Na22  1  0.32585934  0.65838026  0.16505977  1
  Na  Na23  1  0.33399114  0.66709874  0.66362131  1
  Ga  Ga0  1  0.98725940  0.98546647  0.34668650  1
  Ga  Ga1  1  0.01431268  0.01238463  0.84830376  1
  Ga  Ga2  1  0.01333517  0.99880300  0.15245378  1
  Ga  Ga3  1  0.66420804  0.33283538  0.98300517  1
  Ga  Ga4  1  0.29547289  0.64227168  0.01667859  1
  Ga  Ga5  1  0.33799526  0.68635521  0.52206721  1
  Si  Si0  1  0.28783022  0.00205665  0.25046572  1
  Si  Si1  1  0.71192328  0.71406587  0.24916375  1
  Si  Si2  1  0.99959541  0.28287644  0.24979583  1
  Si  Si3  1  0.29441629  0.29416924  0.75135122  1
  Si  Si4  1  0.99737579  0.71243859  0.75258250  1
  Si  Si5  1  0.71112738  0.99916077  0.75322645  1
  Si  Si6  1  0.96954973  0.33717815  0.58276944  1
  Si  Si7  1  0.37394881  0.04187107  0.58341242  1
  Si  Si8  1  0.66225025  0.62773770  0.58217171  1
  Si  Si9  1  0.95664688  0.62853913  0.08104022  1
  Si  Si10  1  0.37198754  0.33657020  0.08046892  1
  Si  Si11  1  0.03061679  0.36271636  0.91803567  1
  Si  Si12  1  0.33540951  0.96175501  0.92040567  1
  Si  Si13  1  0.62852183  0.95828720  0.41770478  1
  Si  Si14  1  0.04151743  0.67042298  0.41853695  1
  Sn  Sn0  1  0.00010627  0.00110701  0.64833495  1
  Sn  Sn1  1  0.67005361  0.33569903  0.68586962  1
  Sn  Sn2  1  0.66798904  0.34195486  0.18592011  1
  Sn  Sn3  1  0.67610520  0.33200379  0.48429738  1
  Sn  Sn4  1  0.32977607  0.67206531  0.31306569  1
  Sn  Sn5  1  0.32471262  0.67010983  0.81481355  1
  S  S0  1  0.66631657  0.03952020  0.08198893  1
  S  S1  1  0.62336944  0.66660550  0.91841284  1
  S  S2  1  0.33356703  0.37559745  0.41794878  1
  O  O0  1  0.20720667  0.04096739  0.31033543  1
  O  O1  1  0.82412126  0.78553010  0.30975288  1
  O  O2  1  0.96665902  0.16986709  0.31090135  1
  O  O3  1  0.21622965  0.17520800  0.81083897  1
  O  O4  1  0.96276117  0.79761662  0.81176303  1
  O  O5  1  0.83091546  0.03308368  0.81136318  1
  O  O6  1  0.78348167  0.95810926  0.69104254  1
  O  O7  1  0.17584815  0.22012814  0.69136936  1
  O  O8  1  0.03921214  0.82654317  0.69089981  1
  O  O9  1  0.79325518  0.83407667  0.18959199  1
  O  O10  1  0.03341811  0.20245547  0.18895523  1
  O  O11  1  0.17544411  0.96116898  0.18996743  1
  O  O12  1  0.88766579  0.37966312  0.64219845  1
  O  O13  1  0.49570400  0.12323926  0.64215043  1
  O  O14  1  0.62440309  0.50721355  0.64215920  1
  O  O15  1  0.88238550  0.50317186  0.14158393  1
  O  O16  1  0.63406553  0.11470592  0.13793056  1
  O  O17  1  0.49004523  0.37474471  0.14190256  1
  O  O18  1  0.46225499  0.29694380  0.02329518  1
  O  O19  1  0.83379682  0.53706245  0.02325432  1
  O  O20  1  0.69374092  0.14872418  0.02857455  1
  O  O21  1  0.45226450  0.16417379  0.52289717  1
  O  O22  1  0.70396997  0.54625288  0.52208647  1
  O  O23  1  0.84613603  0.28699736  0.52346976  1
  O  O24  1  0.53936594  0.69102471  0.97199965  1
  O  O25  1  0.15722005  0.44271971  0.97549893  1
  O  O26  1  0.30670770  0.83568677  0.97815126  1
  O  O27  1  0.54011773  0.83421831  0.47560013  1
  O  O28  1  0.31112200  0.45721774  0.47102014  1
  O  O29  1  0.16164559  0.69947173  0.47618400  1
  O  O30  1  0.11450748  0.61915957  0.35760244  1
  O  O31  1  0.50984776  0.87972219  0.35680900  1
  O  O32  1  0.36329526  0.47946891  0.36127682  1
  O  O33  1  0.11337066  0.48907039  0.85826909  1
  O  O34  1  0.38225829  0.88659796  0.85907686  1
  O  O35  1  0.51955758  0.63801635  0.86276899  1
  O  O36  1  0.02746763  0.84377047  0.41176241  1
  O  O37  1  0.82074151  0.98399101  0.41206644  1
  O  O38  1  0.18168204  0.20490054  0.41321082  1
  O  O39  1  0.01069675  0.17262437  0.91179596  1
  O  O40  1  0.15927351  0.97083334  0.91437422  1
  O  O41  1  0.79323496  0.81934690  0.91372417  1
  O  O42  1  0.98203823  0.16351523  0.58743714  1
  O  O43  1  0.18573221  0.02476424  0.58673523  1
  O  O44  1  0.83628133  0.81435685  0.58618716  1
  O  O45  1  0.97072253  0.81643182  0.08763869  1
  O  O46  1  0.82148747  0.02615763  0.08641863  1
  O  O47  1  0.18167776  0.16661866  0.08692428  1
  O  O48  1  0.69155644  0.17050519  0.74800118  1
  O  O49  1  0.48317654  0.31147205  0.74651262  1
  O  O50  1  0.82784143  0.52172433  0.74824234  1
  O  O51  1  0.69009484  0.52121840  0.24667342  1
  O  O52  1  0.82764491  0.30408542  0.24519112  1
  O  O53  1  0.48247839  0.16969228  0.24465122  1
  O  O54  1  0.64045457  0.51147231  0.92121622  1
  O  O55  1  0.84436658  0.35243934  0.92538046  1
  O  O56  1  0.50588652  0.15339968  0.92456132  1
  O  O57  1  0.63875735  0.14805074  0.42031639  1
  O  O58  1  0.49012947  0.35862768  0.41953107  1
  O  O59  1  0.84688098  0.49850204  0.42039369  1
  O  O60  1  0.36239472  0.51521598  0.07459066  1
  O  O61  1  0.14895921  0.64969312  0.07862309  1
  O  O62  1  0.51508116  0.86876159  0.07751136  1
  O  O63  1  0.35654689  0.85446930  0.57970152  1
  O  O64  1  0.49158508  0.64287665  0.57637284  1
  O  O65  1  0.15605693  0.50490564  0.57465376  1
  O  O66  1  0.30990217  0.83129082  0.25303770  1
  O  O67  1  0.51696714  0.68635838  0.25485675  1
  O  O68  1  0.17191393  0.47583437  0.25421598  1
  O  O69  1  0.31781242  0.48646713  0.75732195  1
  O  O70  1  0.16853317  0.69182071  0.75396860  1
  O  O71  1  0.52083532  0.82696777  0.75689374  1
loop_
_geom_bond_atom_site_label_1
_geom_bond_atom_site_label_2
_geom_bond_distance
_geom_bond_site_symmetry_2
Na0 O52 2.410607 1_555
Na0 O67 2.486336 1_545
Na0 O53 2.550581 1_555
Na0 O31 2.553895 1_545
Na0 O66 2.579022 1_545
Na0 O16 2.746685 1_555
Na0 O9 2.873971 1_545
Na0 O2 2.902124 1_555
Na1 O68 2.403011 1_555
Na1 O53 2.481231 1_555
Na1 O67 2.545178 1_555
Na1 O17 2.559548 1_555
Na1 O51 2.581861 1_555
Na1 O32 2.738798 1_555
Na1 O0 2.883884 1_555
Na1 O10 2.894686 1_555
Na2 O51 2.464258 1_555
Na2 O66 2.466855 1_655
Na2 O68 2.603354 1_655
Na2 O52 2.604136 1_555
Na2 O30 2.644973 1_655
Na2 O15 2.659646 1_555
Na2 O1 2.869209 1_555
Na2 O11 2.871312 1_655
Na3 O71 2.425766 1_555
Na3 O50 2.432333 1_555
Na3 O69 2.504694 1_555
Na3 O49 2.547572 1_555
Na3 O14 2.570220 1_555
Na3 O35 2.761601 1_555
Na3 O6 2.807587 1_555
Na3 O4 2.963756 1_555
Na4 O48 2.452699 1_555
Na4 O69 2.531493 1_655
Na4 O70 2.558974 1_655
Na4 O50 2.569450 1_555
Na4 O12 2.627504 1_555
Na4 O33 2.635434 1_655
Na4 O7 2.829945 1_655
Na4 O5 2.936492 1_555
Na5 O49 2.447189 1_555
Na5 O70 2.471047 1_545
Na5 O48 2.552221 1_555
Na5 O71 2.589245 1_545
Na5 O13 2.630571 1_555
Na5 O34 2.661539 1_545
Na5 O3 2.860589 1_555
Na5 O8 2.906669 1_545
Na6 O64 2.411343 1_555
Na6 O65 2.450395 1_555
Na6 O43 2.497250 1_555
Na6 O42 2.517418 1_455
Na6 O7 2.588108 1_555
Na6 O28 2.723257 1_555
Na6 O14 2.847373 1_555
Na6 O21 2.895464 1_555
Na7 O65 2.488541 1_555
Na7 O63 2.503839 1_555
Na7 O44 2.505374 1_455
Na7 O43 2.546602 1_565
Na7 O29 2.596638 1_555
Na7 O8 2.647067 1_555
Na7 O12 2.837453 1_455
Na7 O22 2.965264 1_455
Na8 O63 2.457187 1_555
Na8 O44 2.510570 1_555
Na8 O64 2.513808 1_555
Na8 O42 2.529907 1_565
Na8 O27 2.640195 1_555
Na8 O6 2.647306 1_555
Na8 O23 2.861941 1_565
Na8 O13 2.889913 1_565
Na9 O47 2.458144 1_565
Na9 O61 2.464513 1_555
Na9 O45 2.485400 1_455
Na9 O26 2.594216 1_554
Na9 O11 2.595517 1_555
Na9 O62 2.605743 1_555
Na9 O18 2.908211 1_565
Na9 O16 3.030270 1_565
Na10 O45 2.396799 1_555
Na10 O60 2.431874 1_555
Na10 O62 2.566820 1_555
Na10 O9 2.587004 1_555
Na10 O46 2.596946 1_565
Na10 O24 2.791345 1_554
Na10 O17 2.795046 1_555
Na10 O19 2.891031 1_555
Na11 O47 2.411666 1_555
Na11 O46 2.500719 1_455
Na11 O61 2.515552 1_555
Na11 O60 2.530655 1_555
Na11 O10 2.531039 1_555
Na11 O25 2.657384 1_554
Na11 O15 2.833193 1_455
Na12 O40 2.400850 1_655
Na12 O55 2.496078 1_555
Na12 O41 2.587395 1_555
Na12 O54 2.603657 1_555
Na12 O4 2.609060 1_555
Na12 O19 2.652089 1_556
Na12 O33 2.816737 1_655
Na12 O26 2.987101 1_655
Na13 O39 2.427698 1_655
Na13 O55 2.459735 1_555
Na13 O56 2.465480 1_555
Na13 O5 2.488024 1_555
Na13 O41 2.525619 1_545
Na13 O34 2.780189 1_545
Na13 O20 2.795758 1_556
Na14 O40 2.465590 1_545
Na14 O56 2.481434 1_555
Na14 O39 2.490094 1_555
Na14 O54 2.574916 1_555
Na14 O3 2.591856 1_555
Na14 O18 2.620549 1_556
Na14 O25 2.817444 1_555
Na15 O37 2.429520 1_545
Na15 O38 2.494395 1_655
Na15 O2 2.504406 1_555
Na15 O59 2.543155 1_555
Na15 O57 2.544444 1_555
Na15 O23 2.658338 1_555
Na15 O30 2.818397 1_655
Na16 O36 2.375808 1_545
Na16 O57 2.466545 1_555
Na16 O38 2.571562 1_555
Na16 O0 2.614450 1_555
Na16 O58 2.633463 1_555
Na16 O21 2.679717 1_555
Na16 O31 2.858911 1_545
Na16 O29 2.867496 1_545
Na17 O37 2.412585 1_555
Na17 O36 2.462972 1_655
Na17 O59 2.479027 1_555
Na17 O1 2.571187 1_555
Na17 O22 2.585858 1_555
Na17 O58 2.595407 1_555
Na17 O27 2.858702 1_555
Na18 O44 2.439610 1_555
Na18 O36 2.455117 1_655
Na18 O37 2.472487 1_555
Na18 O42 2.523057 1_565
Na18 O43 2.539057 1_665
Na18 O38 2.630253 1_665
Na19 O40 2.396148 1_544
Na19 O47 2.439684 1_555
Na19 O45 2.480194 1_445
Na19 O39 2.480435 1_554
Na19 O46 2.647593 1_455
Na19 O41 2.691578 1_444
Na20 O48 2.436556 1_555
Na20 O50 2.495427 1_555
Na20 O56 2.499194 1_555
Na20 O49 2.523895 1_555
Na20 O55 2.536935 1_555
Na20 O54 2.640683 1_555
Na21 O52 2.445198 1_555
Na21 O57 2.483322 1_555
Na21 O51 2.497816 1_555
Na21 O59 2.498745 1_555
Na21 O53 2.538633 1_555
Na21 O58 2.626086 1_555
Na22 O61 2.484922 1_555
Na22 O60 2.488355 1_555
Na22 O68 2.491380 1_555
Na22 O66 2.541886 1_555
Na22 O67 2.578494 1_555
Na22 O62 2.643761 1_555
Na23 O63 2.451372 1_555
Na23 O64 2.460680 1_555
Na23 O65 2.516620 1_555
Na23 O70 2.559543 1_555
Na23 O69 2.596898 1_555
Na23 O71 2.616745 1_555
Ga0 O1 1.866991 1_555
Ga0 O2 1.938870 1_565
Ga0 O0 1.959435 1_665
Ga0 O37 2.072756 1_555
Ga0 O36 2.080100 1_655
Ga0 O38 2.403918 1_665
Ga1 O3 1.867605 1_555
Ga1 O4 1.935378 1_445
Ga1 O5 1.951315 1_455
Ga1 O39 2.028131 1_555
Ga1 O40 2.130559 1_545
Ga1 O41 2.368496 1_445
Ga2 O11 1.868198 1_555
Ga2 O10 1.934773 1_565
Ga2 O9 1.969344 1_455
Ga2 O45 2.072737 1_455
Ga2 O47 2.092352 1_565
Ga2 O46 2.388573 1_465
Ga3 O18 1.902749 1_556
Ga3 O19 1.941033 1_556
Ga3 O55 1.996120 1_555
Ga3 O56 2.020434 1_555
Ga3 O20 2.076964 1_556
Ga3 O54 2.209381 1_555
Ga4 O25 1.851359 1_554
Ga4 O26 1.902710 1_554
Ga4 O61 1.920794 1_555
Ga4 O60 2.010859 1_555
Ga4 O24 2.244219 1_554
Ga4 O62 2.442013 1_555
Ga5 O63 1.926052 1_555
Ga5 O27 1.928652 1_555
Ga5 O29 1.955852 1_555
Ga5 O65 2.007253 1_555
Ga5 O64 2.029697 1_555
Ga5 O28 2.264164 1_555
O0 Si0 1.625439 1_555
O1 Si1 1.619126 1_555
O2 Si2 1.627472 1_555
O3 Si3 1.616051 1_555
O4 Si4 1.622466 1_555
O5 Si5 1.620189 1_545
O6 Si5 1.636452 1_555
O6 Sn0 2.023670 1_665
O7 Si3 1.636018 1_555
O7 Sn0 2.062976 1_555
O8 Si4 1.633973 1_455
O8 Sn0 2.018084 1_565
O9 Si1 1.624764 1_555
O10 Si2 1.625501 1_455
O11 Si0 1.618316 1_565
O12 Si6 1.638478 1_555
O12 Sn1 2.038688 1_555
O13 Si7 1.633525 1_555
O13 Sn1 2.032701 1_555
O14 Si8 1.638611 1_555
O14 Sn1 2.040515 1_555
O15 Si9 1.659126 1_555
O15 Sn2 2.000135 1_555
O16 S0 1.504952 1_555
O16 Sn2 2.195011 1_555
O17 Si10 1.665513 1_555
O17 Sn2 2.037244 1_555
O18 Si10 1.631630 1_555
O19 Si9 1.634009 1_555
O20 S0 1.477543 1_555
O21 Si7 1.648215 1_555
O21 Sn3 2.011146 1_555
O22 Si8 1.647446 1_555
O22 Sn3 2.007671 1_555
O23 Si6 1.644207 1_555
O23 Sn3 1.986939 1_555
O24 S1 1.475693 1_555
O25 Si11 1.630794 1_555
O26 Si12 1.642494 1_555
O27 Si13 1.619701 1_555
O28 S2 1.450813 1_555
O29 Si14 1.620406 1_555
O30 Si14 1.658454 1_555
O30 Sn4 2.008020 1_555
O31 Si13 1.656804 1_555
O31 Sn4 2.026601 1_555
O32 S2 1.505874 1_555
O32 Sn4 2.191309 1_555
O33 Si11 1.655647 1_555
O33 Sn5 2.027552 1_555
O34 Si12 1.659047 1_555
O34 Sn5 2.013505 1_555
O35 S1 1.499883 1_555
O35 Sn5 2.209675 1_555
O36 Si14 1.642194 1_555
O37 Si13 1.642260 1_555
O38 S2 1.475298 1_555
O39 Si11 1.642772 1_555
O40 Si12 1.645943 1_555
O41 S1 1.472592 1_555
O42 Si6 1.633540 1_555
O42 Sn0 2.060700 1_655
O43 Si7 1.635315 1_555
O43 Sn0 2.078414 1_555
O44 Si8 1.642246 1_555
O44 Sn0 2.119111 1_665
O45 Si9 1.646109 1_555
O46 S0 1.474815 1_555
O47 Si10 1.647215 1_555
O48 Si5 1.649643 1_545
O48 Sn1 2.111446 1_555
O49 Si3 1.640906 1_555
O49 Sn1 2.071846 1_555
O50 Si4 1.646130 1_555
O50 Sn1 2.102967 1_555
O51 Si1 1.655611 1_555
O51 Sn2 2.037324 1_555
O52 Si2 1.666734 1_555
O52 Sn2 2.113699 1_555
O53 Si0 1.661247 1_555
O53 Sn2 2.070171 1_555
O54 S1 1.487781 1_555
O55 Si11 1.650011 1_655
O56 Si12 1.654290 1_545
O57 Si13 1.673093 1_545
O57 Sn3 2.080479 1_555
O58 S2 1.502281 1_555
O58 Sn3 2.326259 1_555
O59 Si14 1.673006 1_655
O59 Sn3 2.071782 1_555
O60 Si10 1.666135 1_555
O61 Si9 1.656481 1_455
O62 S0 1.472748 1_565
O63 Si7 1.624331 1_565
O64 Si8 1.626027 1_555
O65 Si6 1.622152 1_455
O66 Si0 1.654416 1_565
O66 Sn4 2.033721 1_555
O67 Si1 1.659933 1_555
O67 Sn4 2.069409 1_555
O68 Si2 1.668505 1_455
O68 Sn4 2.097524 1_555
O69 Si3 1.649365 1_555
O69 Sn5 2.066821 1_555
O70 Si4 1.652853 1_455
O70 Sn5 2.043067 1_555
O71 Si5 1.652092 1_555
O71 Sn5 2.062058 1_555
