# generated using pymatgen
data_Na10Ta6Ga2Si11SO48
_symmetry_space_group_name_H-M   'P 1'
_cell_length_a   17.89450814
_cell_length_b   8.97906567
_cell_length_c   22.46304692
_cell_angle_alpha   90.10226180
_cell_angle_beta   89.77706199
_cell_angle_gamma   120.11267148
_symmetry_Int_Tables_number   1
_chemical_formula_structural   Na10Ta6Ga2Si11SO48
_chemical_formula_sum   'Na30 Ta18 Ga6 Si33 S3 O144'
_cell_volume   3122.14246049
_cell_formula_units_Z   3
loop_
 _symmetry_equiv_pos_site_id
 _symmetry_equiv_pos_as_xyz
  1  'x, y, z'
loop_
 _atom_site_type_symbol
 _atom_site_label
 _atom_site_symmetry_multiplicity
 _atom_site_fract_x
 _atom_site_fract_y
 _atom_site_fract_z
 _atom_site_occupancy
  Na  Na0  1  0.31599211  0.99205122  0.25259700  1
  Na  Na1  1  0.81741689  0.99303617  0.25279146  1
  Na  Na2  1  0.82037624  0.64285870  0.74779069  1
  Na  Na3  1  0.18256392  0.98791813  0.75042346  1
  Na  Na4  1  0.68096170  0.00124233  0.74897245  1
  Na  Na5  1  0.01762967  0.70744388  0.58587525  1
  Na  Na6  1  0.83661459  0.96382823  0.58565299  1
  Na  Na7  1  0.64714855  0.96983286  0.08609208  1
  Na  Na8  1  0.33570343  0.70684154  0.08679429  1
  Na  Na9  1  0.83739884  0.70824382  0.08834837  1
  Na  Na10  1  0.01793949  0.32639014  0.08726627  1
  Na  Na11  1  0.51485824  0.32396962  0.08768983  1
  Na  Na12  1  0.98790217  0.66375276  0.91403367  1
  Na  Na13  1  0.34658388  0.02863500  0.91444153  1
  Na  Na14  1  0.48584631  0.31131552  0.41525639  1
  Na  Na15  1  0.98748925  0.31255794  0.41488542  1
  Na  Na16  1  0.34528356  0.66259648  0.41579269  1
  Na  Na17  1  0.84597019  0.66362171  0.41533662  1
  Na  Na18  1  0.01022482  0.01095963  0.50581263  1
  Na  Na19  1  0.50491129  0.99961424  0.50381224  1
  Na  Na20  1  0.00720918  0.01036748  0.00514770  1
  Na  Na21  1  0.50195162  0.99816951  0.00114089  1
  Na  Na22  1  0.33688368  0.34993734  0.83388850  1
  Na  Na23  1  0.83633421  0.32685417  0.83400445  1
  Na  Na24  1  0.33147932  0.33793327  0.33347180  1
  Na  Na25  1  0.83197802  0.33845014  0.33334720  1
  Na  Na26  1  0.16278694  0.65808604  0.17362655  1
  Na  Na27  1  0.66349488  0.65052569  0.17588643  1
  Na  Na28  1  0.17102148  0.66383236  0.67172048  1
  Na  Na29  1  0.65815292  0.65094300  0.66424259  1
  Ta  Ta0  1  0.99716873  0.99680922  0.35459338  1
  Ta  Ta1  1  0.49635674  0.99654434  0.35428011  1
  Ta  Ta2  1  0.99613001  0.00006284  0.85632026  1
  Ta  Ta3  1  0.49925667  0.99594694  0.85520629  1
  Ta  Ta4  1  0.49725183  0.99923933  0.64473455  1
  Ta  Ta5  1  0.33778851  0.33425465  0.68618978  1
  Ta  Ta6  1  0.83652453  0.33711071  0.68778306  1
  Ta  Ta7  1  0.33710094  0.34206225  0.18789106  1
  Ta  Ta8  1  0.83900216  0.34606211  0.18802348  1
  Ta  Ta9  1  0.33146049  0.33942875  0.97871003  1
  Ta  Ta10  1  0.83257876  0.32910075  0.97810819  1
  Ta  Ta11  1  0.33117961  0.32914594  0.48024264  1
  Ta  Ta12  1  0.83241731  0.32827976  0.47986618  1
  Ta  Ta13  1  0.16664107  0.66811517  0.02053562  1
  Ta  Ta14  1  0.66653669  0.66629781  0.02008832  1
  Ta  Ta15  1  0.16909421  0.66826163  0.52233225  1
  Ta  Ta16  1  0.66295258  0.66282452  0.52091973  1
  Ta  Ta17  1  0.66362457  0.66406869  0.81196214  1
  Ga  Ga0  1  0.99786118  0.98974405  0.64450985  1
  Ga  Ga1  1  0.99738208  0.00410488  0.14596909  1
  Ga  Ga2  1  0.49254262  0.00551247  0.14656720  1
  Ga  Ga3  1  0.16584573  0.64635029  0.31598866  1
  Ga  Ga4  1  0.66614130  0.64635385  0.31625602  1
  Ga  Ga5  1  0.16824050  0.67687756  0.81653928  1
  Si  Si0  1  0.35177295  0.70865299  0.24795182  1
  Si  Si1  1  0.85265305  0.71119205  0.24791178  1
  Si  Si2  1  0.00544550  0.29669275  0.24780313  1
  Si  Si3  1  0.50489662  0.29779192  0.24803398  1
  Si  Si4  1  0.64228569  0.28864104  0.74939786  1
  Si  Si5  1  0.00436638  0.71316199  0.74901913  1
  Si  Si6  1  0.49645335  0.70863357  0.74945941  1
  Si  Si7  1  0.35170382  0.99276589  0.75158617  1
  Si  Si8  1  0.85821016  0.00353182  0.74712099  1
  Si  Si9  1  0.47888182  0.33142237  0.58186000  1
  Si  Si10  1  0.98132456  0.32920022  0.58375079  1
  Si  Si11  1  0.18618363  0.04401521  0.58562617  1
  Si  Si12  1  0.68682863  0.04320040  0.58458738  1
  Si  Si13  1  0.33307452  0.62046800  0.58379800  1
  Si  Si14  1  0.83185113  0.62209775  0.58343539  1
  Si  Si15  1  0.47898883  0.62905855  0.08392885  1
  Si  Si16  1  0.98045279  0.63226908  0.08252739  1
  Si  Si17  1  0.33164880  0.04477431  0.08354900  1
  Si  Si18  1  0.83327718  0.04447938  0.08518916  1
  Si  Si19  1  0.18553423  0.32483061  0.08506535  1
  Si  Si20  1  0.68725237  0.32966680  0.08467569  1
  Si  Si21  1  0.30718671  0.66216880  0.91334814  1
  Si  Si22  1  0.80985157  0.66354279  0.91585105  1
  Si  Si23  1  0.02641716  0.38319913  0.91455548  1
  Si  Si24  1  0.52110235  0.37513658  0.91720974  1
  Si  Si25  1  0.16737059  0.95821190  0.91480928  1
  Si  Si26  1  0.66611124  0.95645638  0.91641621  1
  Si  Si27  1  0.30502278  0.95252628  0.41230552  1
  Si  Si28  1  0.80508330  0.95081924  0.41329544  1
  Si  Si29  1  0.16722654  0.37824656  0.41582676  1
  Si  Si30  1  0.66750079  0.37717865  0.41558247  1
  Si  Si31  1  0.02716345  0.67049082  0.41526725  1
  Si  Si32  1  0.52559545  0.66945418  0.41371728  1
  S  S0  1  0.14239303  0.99884826  0.24831002  1
  S  S1  1  0.64339682  0.99958270  0.24811196  1
  S  S2  1  0.14229016  0.28873329  0.74883610  1
  O  O0  1  0.10176194  0.02540919  0.30332072  1
  O  O1  1  0.60095539  0.02453048  0.30205668  1
  O  O2  1  0.41455123  0.80205671  0.30744305  1
  O  O3  1  0.91467972  0.80211601  0.30765668  1
  O  O4  1  0.48721953  0.16743296  0.30636051  1
  O  O5  1  0.98671397  0.16721162  0.30667117  1
  O  O6  1  0.10159357  0.17521656  0.80327927  1
  O  O7  1  0.59842888  0.16399161  0.80712445  1
  O  O8  1  0.48535968  0.80324681  0.80826717  1
  O  O9  1  0.98568343  0.80566656  0.80761779  1
  O  O10  1  0.41400996  0.02869470  0.81018547  1
  O  O11  1  0.91755083  0.02935341  0.80612889  1
  O  O12  1  0.40366647  0.97557979  0.69386281  1
  O  O13  1  0.89688906  0.96028537  0.68924106  1
  O  O14  1  0.09082977  0.20634026  0.69555170  1
  O  O15  1  0.58379505  0.19662410  0.69155642  1
  O  O16  1  0.01877529  0.83111130  0.69057447  1
  O  O17  1  0.51720335  0.83662795  0.69300084  1
  O  O18  1  0.39779649  0.82700830  0.18948554  1
  O  O19  1  0.89805717  0.82927519  0.18961045  1
  O  O20  1  0.01409192  0.20506008  0.18831772  1
  O  O21  1  0.51570338  0.20883186  0.18809529  1
  O  O22  1  0.09134735  0.97926931  0.19514018  1
  O  O23  1  0.59406134  0.98088114  0.19346556  1
  O  O24  1  0.43142651  0.35982890  0.64018375  1
  O  O25  1  0.93125175  0.36486877  0.63973496  1
  O  O26  1  0.24682194  0.13441097  0.64435009  1
  O  O27  1  0.74877446  0.13266872  0.64308225  1
  O  O28  1  0.31943429  0.49625656  0.64090913  1
  O  O29  1  0.81822369  0.50270700  0.64251935  1
  O  O30  1  0.43451693  0.49811084  0.14118111  1
  O  O31  1  0.93286269  0.49694034  0.13956221  1
  O  O32  1  0.31823668  0.13530584  0.14303787  1
  O  O33  1  0.81298741  0.13031841  0.14325940  1
  O  O34  1  0.25265199  0.36521456  0.14084434  1
  O  O35  1  0.75266664  0.36750347  0.14081924  1
  O  O36  1  0.23537413  0.30538821  0.02672032  1
  O  O37  1  0.73541033  0.30256224  0.02672670  1
  O  O38  1  0.41621877  0.53296213  0.02736445  1
  O  O39  1  0.91783504  0.53563477  0.02465310  1
  O  O40  1  0.34847397  0.16886710  0.02574328  1
  O  O41  1  0.84716605  0.17059939  0.02833833  1
  O  O42  1  0.23762898  0.16680306  0.52796627  1
  O  O43  1  0.73719464  0.16475038  0.52715762  1
  O  O44  1  0.34706473  0.53174267  0.52410871  1
  O  O45  1  0.84707965  0.52729356  0.52580613  1
  O  O46  1  0.42135059  0.30783783  0.52282369  1
  O  O47  1  0.91965315  0.30195289  0.52512713  1
  O  O48  1  0.26646620  0.69914887  0.97472296  1
  O  O49  1  0.76591030  0.69346627  0.97540524  1
  O  O50  1  0.08179910  0.46570901  0.97631077  1
  O  O51  1  0.58089786  0.46841797  0.97617979  1
  O  O52  1  0.14851892  0.82784413  0.97213600  1
  O  O53  1  0.65362742  0.83680813  0.97541513  1
  O  O54  1  0.26435042  0.82772577  0.47106918  1
  O  O55  1  0.76629102  0.83093209  0.47345673  1
  O  O56  1  0.14735354  0.46574860  0.47382751  1
  O  O57  1  0.64796291  0.46576802  0.47363596  1
  O  O58  1  0.08182401  0.69782214  0.47670929  1
  O  O59  1  0.58361505  0.69845039  0.47403428  1
  O  O60  1  0.06697680  0.62333072  0.35954921  1
  O  O61  1  0.56664869  0.62342137  0.35854311  1
  O  O62  1  0.25170346  0.87174985  0.35265626  1
  O  O63  1  0.75111731  0.86976879  0.35383556  1
  O  O64  1  0.19362616  0.50240512  0.35929594  1
  O  O65  1  0.69381674  0.50194066  0.35929960  1
  O  O66  1  0.06564736  0.51097020  0.85921292  1
  O  O67  1  0.57035890  0.49980288  0.86024124  1
  O  O68  1  0.18977112  0.88638147  0.85613991  1
  O  O69  1  0.68009956  0.86530359  0.85752195  1
  O  O70  1  0.24838325  0.63243673  0.85692188  1
  O  O71  1  0.75233240  0.64073417  0.85709027  1
  O  O72  1  0.01071747  0.83558950  0.40849005  1
  O  O73  1  0.51112176  0.83683447  0.40817523  1
  O  O74  1  0.40462246  0.97384233  0.40837512  1
  O  O75  1  0.90453093  0.97327582  0.40862551  1
  O  O76  1  0.07977175  0.18774798  0.40841316  1
  O  O77  1  0.57978565  0.18766538  0.40832253  1
  O  O78  1  0.01455144  0.19045249  0.90789746  1
  O  O79  1  0.51000396  0.18473581  0.91119217  1
  O  O80  1  0.07977210  0.97260570  0.90871431  1
  O  O81  1  0.58040072  0.97377045  0.91115251  1
  O  O82  1  0.40339830  0.83962713  0.91028845  1
  O  O83  1  0.90666832  0.83480635  0.91016981  1
  O  O84  1  0.48710334  0.16089088  0.58875076  1
  O  O85  1  0.98513483  0.15571460  0.59071844  1
  O  O86  1  0.09063521  0.01872129  0.58926778  1
  O  O87  1  0.59274256  0.02396083  0.58961640  1
  O  O88  1  0.41825378  0.81008215  0.59086949  1
  O  O89  1  0.91850641  0.80921507  0.58655031  1
  O  O90  1  0.49069079  0.81814467  0.09085989  1
  O  O91  1  0.98570411  0.81428002  0.09052974  1
  O  O92  1  0.41743964  0.02492526  0.08644864  1
  O  O93  1  0.91736471  0.02387066  0.08709982  1
  O  O94  1  0.09006641  0.16181186  0.09000306  1
  O  O95  1  0.59302116  0.15966699  0.08977692  1
  O  O96  1  0.34093424  0.16682076  0.74429652  1
  O  O97  1  0.84266824  0.16861136  0.74394265  1
  O  O98  1  0.22953048  0.29704309  0.74577268  1
  O  O99  1  0.73890074  0.30816414  0.74400689  1
  O  O100  1  0.41169444  0.51762052  0.74423814  1
  O  O101  1  0.91215301  0.52450020  0.74434175  1
  O  O102  1  0.34416020  0.51716653  0.24386775  1
  O  O103  1  0.84437767  0.51828616  0.24369378  1
  O  O104  1  0.41013474  0.29602044  0.24484497  1
  O  O105  1  0.91032604  0.29655507  0.24385962  1
  O  O106  1  0.23158151  0.16017394  0.24557614  1
  O  O107  1  0.73233063  0.16095576  0.24599586  1
  O  O108  1  0.32215001  0.49840996  0.92382513  1
  O  O109  1  0.82496139  0.49964328  0.92208610  1
  O  O110  1  0.42528650  0.35206407  0.92292957  1
  O  O111  1  0.92941036  0.36130136  0.92533323  1
  O  O112  1  0.25286893  0.14620153  0.92580760  1
  O  O113  1  0.75277047  0.14536841  0.92332472  1
  O  O114  1  0.32618258  0.15133223  0.42234684  1
  O  O115  1  0.82639263  0.15049540  0.42267253  1
  O  O116  1  0.25213564  0.35641500  0.42536888  1
  O  O117  1  0.75281269  0.35723624  0.42587768  1
  O  O118  1  0.42728024  0.50122731  0.42345933  1
  O  O119  1  0.92788104  0.50058117  0.42449997  1
  O  O120  1  0.18089479  0.50393169  0.07714817  1
  O  O121  1  0.68010473  0.50493236  0.07731257  1
  O  O122  1  0.07167198  0.63286608  0.07747593  1
  O  O123  1  0.57344872  0.64021461  0.07763103  1
  O  O124  1  0.24754376  0.85112512  0.07698110  1
  O  O125  1  0.74567116  0.85378076  0.07737202  1
  O  O126  1  0.17814960  0.85421630  0.57670090  1
  O  O127  1  0.68389905  0.85882317  0.57688938  1
  O  O128  1  0.24752481  0.63937945  0.57645245  1
  O  O129  1  0.74748449  0.64558036  0.57720693  1
  O  O130  1  0.07211122  0.51000068  0.57794026  1
  O  O131  1  0.57312262  0.50594754  0.57752097  1
  O  O132  1  0.15557021  0.85142198  0.25413815  1
  O  O133  1  0.65606610  0.85127137  0.25381380  1
  O  O134  1  0.25970778  0.70033825  0.25490812  1
  O  O135  1  0.75988645  0.70075132  0.25496632  1
  O  O136  1  0.08574203  0.48773614  0.25576399  1
  O  O137  1  0.58603998  0.48789523  0.25592543  1
  O  O138  1  0.15396497  0.46027103  0.75609703  1
  O  O139  1  0.65797928  0.48415506  0.75582914  1
  O  O140  1  0.08800281  0.69190132  0.75633056  1
  O  O141  1  0.58526796  0.69543623  0.75651385  1
  O  O142  1  0.25640367  0.82568801  0.75470450  1
  O  O143  1  0.76068013  0.83199081  0.75671126  1
loop_
_geom_bond_atom_site_label_1
_geom_bond_atom_site_label_2
_geom_bond_distance
_geom_bond_site_symmetry_2
Na0 O134 2.287110 1_555
Na0 O104 2.388202 1_565
Na0 O132 2.489699 1_555
Na0 O62 2.506747 1_555
Na0 O106 2.622205 1_565
Na0 O32 2.769753 1_565
Na0 O18 2.915791 1_555
Na0 O4 2.916701 1_565
Na1 O135 2.288882 1_555
Na1 O105 2.384249 1_565
Na1 O133 2.503817 1_555
Na1 O63 2.540632 1_555
Na1 O107 2.630782 1_565
Na1 O33 2.773052 1_565
Na1 O5 2.890718 1_565
Na1 O19 2.892119 1_555
Na2 O101 2.362752 1_555
Na2 O143 2.425419 1_555
Na2 O139 2.519884 1_555
Na2 O99 2.601533 1_555
Na2 O29 2.668044 1_555
Na2 O71 2.732133 1_555
Na2 O13 2.794938 1_555
Na2 O9 2.894527 1_555
Na3 O140 2.330714 1_555
Na3 O142 2.410360 1_555
Na3 O96 2.461821 1_565
Na3 O98 2.465997 1_565
Na3 O68 2.572002 1_555
Na3 O26 2.683657 1_565
Na3 O16 2.874588 1_555
Na3 O6 2.960056 1_565
Na4 O141 2.404602 1_545
Na4 O99 2.411516 1_555
Na4 O97 2.505814 1_555
Na4 O143 2.559864 1_545
Na4 O27 2.659628 1_555
Na4 O69 2.725272 1_545
Na4 O17 2.833473 1_545
Na4 O7 2.857758 1_555
Na5 O89 2.368048 1_455
Na5 O130 2.420135 1_555
Na5 O86 2.420873 1_565
Na5 O126 2.495610 1_555
Na5 O16 2.594787 1_555
Na5 O58 2.723458 1_555
Na5 O25 2.922790 1_455
Na5 O45 2.970212 1_455
Na6 O85 2.334920 1_565
Na6 O127 2.411205 1_555
Na6 O89 2.473223 1_555
Na6 O129 2.484508 1_555
Na6 O13 2.575472 1_555
Na6 O55 2.804723 1_555
Na6 O47 2.957424 1_565
Na6 O27 2.966749 1_565
Na7 O95 2.346468 1_565
Na7 O90 2.424251 1_555
Na7 O125 2.464224 1_555
Na7 O123 2.572627 1_555
Na7 O23 2.608753 1_555
Na7 O53 2.783367 1_554
Na7 O33 2.874783 1_565
Na7 O37 2.908900 1_565
Na8 O90 2.432995 1_555
Na8 O120 2.445293 1_555
Na8 O92 2.470827 1_565
Na8 O124 2.504039 1_555
Na8 O18 2.555002 1_555
Na8 O48 2.795570 1_554
Na8 O34 2.918430 1_555
Na8 O38 2.920667 1_555
Na9 O91 2.327514 1_555
Na9 O93 2.451726 1_565
Na9 O121 2.482855 1_555
Na9 O19 2.521913 1_555
Na9 O125 2.572807 1_555
Na9 O49 2.818587 1_554
Na9 O35 2.897090 1_555
Na9 O39 2.955589 1_555
Na10 O93 2.390032 1_455
Na10 O94 2.401695 1_555
Na10 O122 2.427179 1_555
Na10 O20 2.505294 1_555
Na10 O120 2.535315 1_555
Na10 O50 2.763579 1_554
Na10 O31 2.891681 1_455
Na10 O41 2.963628 1_455
Na11 O92 2.356477 1_555
Na11 O21 2.486000 1_555
Na11 O95 2.491230 1_555
Na11 O123 2.495334 1_555
Na11 O121 2.571634 1_555
Na11 O51 2.793505 1_554
Na11 O30 2.862006 1_555
Na11 O40 2.933470 1_555
Na12 O111 2.383983 1_555
Na12 O80 2.415092 1_655
Na12 O109 2.528114 1_555
Na12 O83 2.592547 1_555
Na12 O66 2.688780 1_655
Na12 O9 2.720626 1_555
Na12 O39 2.758367 1_556
Na12 O52 2.812161 1_655
Na13 O82 2.377494 1_545
Na13 O112 2.400801 1_555
Na13 O110 2.519873 1_555
Na13 O79 2.531301 1_555
Na13 O10 2.630149 1_555
Na13 O68 2.765315 1_545
Na13 O40 2.790015 1_556
Na13 O48 2.895664 1_545
Na14 O118 2.414674 1_555
Na14 O77 2.439825 1_555
Na14 O114 2.476089 1_555
Na14 O74 2.626658 1_545
Na14 O46 2.667176 1_555
Na14 O61 2.738564 1_555
Na14 O4 2.770084 1_555
Na14 O57 2.836377 1_555
Na15 O119 2.416303 1_555
Na15 O76 2.420432 1_655
Na15 O115 2.499231 1_555
Na15 O75 2.639423 1_545
Na15 O60 2.714941 1_655
Na15 O47 2.734310 1_555
Na15 O5 2.753739 1_555
Na15 O56 2.811278 1_655
Na16 O116 2.405008 1_555
Na16 O74 2.447092 1_555
Na16 O118 2.533408 1_555
Na16 O73 2.573314 1_555
Na16 O64 2.673554 1_555
Na16 O44 2.711072 1_555
Na16 O2 2.730955 1_555
Na16 O54 2.823424 1_555
Na17 O117 2.408505 1_555
Na17 O75 2.434794 1_555
Na17 O119 2.547642 1_555
Na17 O72 2.555138 1_655
Na17 O65 2.675670 1_555
Na17 O3 2.713346 1_555
Na17 O45 2.773477 1_555
Na17 O55 2.849932 1_555
Na18 O86 2.347242 1_555
Na18 O85 2.469529 1_455
Na18 O89 2.503940 1_445
Na18 O76 2.620007 1_555
Na18 O72 2.694518 1_545
Na18 O75 2.800896 1_445
Na19 O87 2.431110 1_565
Na19 O84 2.507469 1_565
Na19 O88 2.542715 1_555
Na19 O73 2.629403 1_555
Na19 O77 2.639654 1_565
Na19 O74 2.735249 1_555
Na20 O94 2.381267 1_555
Na20 O93 2.481961 1_455
Na20 O91 2.500608 1_445
Na20 O80 2.628809 1_544
Na20 O78 2.683531 1_554
Na20 O83 2.728685 1_444
Na21 O92 2.521354 1_565
Na21 O95 2.523193 1_565
Na21 O81 2.527789 1_554
Na21 O90 2.529199 1_555
Na21 O79 2.584018 1_564
Na21 O82 2.607718 1_554
Na22 O100 2.466155 1_555
Na22 O108 2.503423 1_555
Na22 O110 2.549031 1_555
Na22 O96 2.620215 1_555
Na22 O98 2.635244 1_555
Na22 O112 2.664545 1_555
Na23 O97 2.504807 1_555
Na23 O113 2.541744 1_555
Na23 O111 2.566298 1_555
Na23 O101 2.573389 1_555
Na23 O109 2.581867 1_555
Na23 O99 2.624426 1_555
Na24 O102 2.516813 1_555
Na24 O116 2.552859 1_555
Na24 O104 2.567704 1_555
Na24 O114 2.579349 1_555
Na24 O118 2.582437 1_555
Na24 O106 2.606664 1_555
Na25 O103 2.522112 1_555
Na25 O117 2.563419 1_555
Na25 O105 2.579232 1_555
Na25 O115 2.593371 1_555
Na25 O107 2.595045 1_555
Na25 O119 2.601317 1_555
Na26 O136 2.349237 1_555
Na26 O134 2.418163 1_555
Na26 O132 2.552061 1_555
Na26 O122 2.651367 1_555
Na26 O120 2.674232 1_555
Na26 O124 2.714350 1_555
Na27 O137 2.290213 1_555
Na27 O135 2.361049 1_555
Na27 O133 2.560912 1_555
Na27 O121 2.659844 1_555
Na27 O123 2.711748 1_555
Na27 O125 2.772446 1_555
Na28 O142 2.388669 1_555
Na28 O140 2.496948 1_555
Na28 O138 2.544491 1_555
Na28 O128 2.603673 1_555
Na28 O130 2.654030 1_555
Na28 O126 2.699344 1_555
Na29 O131 2.414813 1_555
Na29 O129 2.536258 1_555
Na29 O139 2.545905 1_555
Na29 O141 2.579834 1_555
Na29 O127 2.586465 1_555
Na29 O143 2.710743 1_555
Ga0 O16 1.944935 1_655
Ga0 O13 1.962535 1_555
Ga0 O86 1.978719 1_665
Ga0 O89 2.009052 1_555
Ga0 O85 2.020366 1_565
Ga0 O14 2.150584 1_665
Ga1 O20 1.924805 1_655
Ga1 O19 1.943366 1_545
Ga1 O94 1.992485 1_655
Ga1 O93 2.025096 1_555
Ga1 O91 2.033897 1_545
Ga1 O22 2.118634 1_645
Ga2 O21 1.900679 1_555
Ga2 O18 1.907620 1_545
Ga2 O92 1.977437 1_555
Ga2 O95 2.065760 1_555
Ga2 O90 2.081895 1_545
Ga2 O23 2.208561 1_545
Ga3 O64 1.875364 1_555
Ga3 O60 1.936651 1_555
Ga3 O136 1.967988 1_555
Ga3 O62 2.004704 1_555
Ga3 O134 2.026349 1_555
Ga3 O132 2.388626 1_555
Ga4 O65 1.874598 1_555
Ga4 O61 1.932386 1_555
Ga4 O137 1.969115 1_555
Ga4 O63 1.998058 1_555
Ga4 O135 2.027407 1_555
Ga4 O133 2.393623 1_555
Ga5 O70 1.903787 1_555
Ga5 O68 1.935955 1_555
Ga5 O66 1.937951 1_555
Ga5 O142 2.019410 1_555
Ga5 O140 2.029545 1_555
Ga5 O138 2.277307 1_555
O0 S0 1.509449 1_545
O0 Ta0 2.097024 1_445
O1 S1 1.502636 1_545
O1 Ta1 2.110624 1_545
O2 Si0 1.677360 1_555
O2 Ta1 1.933857 1_555
O3 Si1 1.672729 1_555
O3 Ta0 1.939811 1_555
O4 Si3 1.678532 1_555
O4 Ta1 1.949068 1_545
O5 Si2 1.680379 1_655
O5 Ta0 1.956921 1_545
O6 S2 1.522367 1_555
O6 Ta2 2.113206 1_455
O7 Si4 1.632778 1_555
O7 Ta3 1.973999 1_545
O8 Si6 1.633812 1_555
O8 Ta3 1.931631 1_555
O9 Si5 1.675005 1_655
O9 Ta2 1.986434 1_565
O10 Si7 1.651923 1_545
O10 Ta3 1.974673 1_545
O11 Si8 1.643499 1_555
O11 Ta2 1.924059 1_555
O12 Si7 1.644260 1_555
O12 Ta4 1.922752 1_555
O13 Si8 1.606591 1_565
O14 S2 1.466212 1_555
O15 Si4 1.614108 1_555
O15 Ta4 1.974242 1_545
O16 Si5 1.624811 1_555
O17 Si6 1.624947 1_555
O17 Ta4 1.991629 1_555
O18 Si0 1.628140 1_555
O19 Si1 1.622258 1_555
O20 Si2 1.615115 1_555
O21 Si3 1.624001 1_555
O22 S0 1.462317 1_555
O23 S1 1.474231 1_555
O24 Si9 1.646239 1_555
O24 Ta5 1.878740 1_555
O25 Si10 1.662732 1_555
O25 Ta6 1.913942 1_555
O26 Si11 1.643134 1_555
O26 Ta5 1.956516 1_555
O27 Si12 1.647626 1_555
O27 Ta6 1.989243 1_555
O28 Si13 1.636704 1_555
O28 Ta5 1.935368 1_555
O29 Si14 1.646334 1_555
O29 Ta6 1.961760 1_555
O30 Si15 1.651752 1_555
O30 Ta7 1.908703 1_555
O31 Si16 1.673890 1_555
O31 Ta8 1.883945 1_555
O32 Si17 1.641182 1_555
O32 Ta7 1.985637 1_555
O33 Si18 1.643458 1_555
O33 Ta8 2.017992 1_555
O34 Si19 1.648333 1_555
O34 Ta7 1.942201 1_555
O35 Si20 1.639225 1_555
O35 Ta8 1.964726 1_555
O36 Si19 1.640090 1_555
O36 Ta9 1.916326 1_554
O37 Si20 1.642225 1_555
O37 Ta10 1.960427 1_554
O38 Si15 1.629519 1_555
O38 Ta9 1.968795 1_554
O39 Si16 1.652350 1_555
O39 Ta10 2.006589 1_554
O40 Si17 1.638220 1_555
O40 Ta9 2.007603 1_554
O41 Si18 1.641740 1_555
O41 Ta10 1.935851 1_554
O42 Si11 1.648641 1_555
O42 Ta11 1.902516 1_555
O43 Si12 1.636049 1_555
O43 Ta12 1.915459 1_555
O44 Si13 1.639759 1_555
O44 Ta11 1.959056 1_555
O45 Si14 1.643405 1_555
O45 Ta12 1.962666 1_555
O46 Si9 1.629173 1_555
O46 Ta11 1.969143 1_555
O47 Si10 1.658651 1_555
O47 Ta12 1.977345 1_555
O48 Si21 1.665912 1_555
O48 Ta13 1.953172 1_556
O49 Si22 1.637869 1_555
O49 Ta14 1.944432 1_556
O50 Si23 1.650967 1_555
O50 Ta13 1.957431 1_556
O51 Si24 1.645890 1_555
O51 Ta14 1.936904 1_556
O52 Si25 1.657735 1_555
O52 Ta13 1.954262 1_556
O53 Si26 1.649988 1_555
O53 Ta14 1.940764 1_556
O54 Si27 1.645391 1_555
O54 Ta15 1.955339 1_555
O55 Si28 1.647744 1_555
O55 Ta16 2.006063 1_555
O56 Si29 1.647526 1_555
O56 Ta15 1.982775 1_555
O57 Si30 1.651467 1_555
O57 Ta16 1.962164 1_555
O58 Si31 1.640206 1_555
O58 Ta15 1.997209 1_555
O59 Si32 1.649221 1_555
O59 Ta16 1.922403 1_555
O60 Si31 1.596014 1_555
O61 Si32 1.594474 1_555
O62 Si27 1.594945 1_555
O63 Si28 1.596102 1_555
O64 Si29 1.597022 1_555
O65 Si30 1.595686 1_555
O66 Si23 1.595197 1_555
O67 Si24 1.635192 1_555
O67 Ta17 1.912752 1_555
O68 Si25 1.601804 1_555
O69 Si26 1.637637 1_555
O69 Ta17 1.964794 1_555
O70 Si21 1.585051 1_555
O71 Si22 1.625333 1_555
O71 Ta17 1.984517 1_555
O72 Si31 1.657195 1_555
O72 Ta0 1.995192 1_455
O73 Si32 1.653131 1_555
O73 Ta1 1.995203 1_555
O74 Si27 1.696327 1_555
O74 Ta1 1.965292 1_555
O75 Si28 1.690293 1_555
O75 Ta0 1.974730 1_555
O76 Si29 1.648538 1_555
O76 Ta0 2.012337 1_445
O77 Si30 1.645261 1_555
O77 Ta1 2.020748 1_545
O78 Si23 1.641133 1_555
O78 Ta2 1.950356 1_455
O79 Si24 1.624566 1_555
O79 Ta3 2.039426 1_545
O80 Si25 1.642443 1_555
O80 Ta2 2.017712 1_465
O81 Si26 1.622117 1_555
O81 Ta3 2.008137 1_555
O82 Si21 1.659702 1_555
O82 Ta3 2.004312 1_555
O83 Si22 1.645692 1_555
O83 Ta2 1.958467 1_565
O84 Si9 1.617801 1_555
O84 Ta4 1.998507 1_545
O85 Si10 1.601007 1_555
O86 Si11 1.609657 1_555
O87 Si12 1.607465 1_555
O87 Ta4 2.026327 1_545
O88 Si13 1.626107 1_555
O88 Ta4 1.985938 1_555
O89 Si14 1.618188 1_555
O90 Si15 1.610356 1_555
O91 Si16 1.599071 1_555
O92 Si17 1.633450 1_555
O93 Si18 1.606282 1_555
O94 Si19 1.601040 1_555
O95 Si20 1.613361 1_555
O96 Si7 1.676253 1_545
O96 Ta5 2.014835 1_555
O97 Si8 1.641254 1_555
O97 Ta6 2.016772 1_555
O98 S2 1.526339 1_555
O98 Ta5 2.233331 1_555
O99 Si4 1.651896 1_555
O99 Ta6 2.059803 1_555
O100 Si6 1.626740 1_555
O100 Ta5 1.995245 1_555
O101 Si5 1.673161 1_655
O101 Ta6 1.999405 1_555
O102 Si0 1.657624 1_555
O102 Ta7 1.965696 1_555
O103 Si1 1.665317 1_555
O103 Ta8 1.951724 1_555
O104 Si3 1.689591 1_555
O104 Ta7 2.018092 1_555
O105 Si2 1.704145 1_655
O105 Ta8 1.995854 1_555
O106 S0 1.526126 1_545
O106 Ta7 2.192242 1_555
O107 S1 1.523254 1_545
O107 Ta8 2.215159 1_555
O108 Si21 1.638885 1_555
O108 Ta9 1.957560 1_555
O109 Si22 1.630588 1_555
O109 Ta10 2.040782 1_555
O110 Si24 1.625167 1_555
O110 Ta9 2.048127 1_555
O111 Si23 1.662831 1_655
O111 Ta10 1.993477 1_555
O112 Si25 1.631313 1_545
O112 Ta9 1.989359 1_555
O113 Si26 1.633298 1_545
O113 Ta10 1.979383 1_555
O114 Si27 1.643719 1_545
O114 Ta11 2.024528 1_555
O115 Si28 1.648503 1_545
O115 Ta12 2.007873 1_555
O116 Si29 1.641496 1_555
O116 Ta11 1.985488 1_555
O117 Si30 1.641123 1_555
O117 Ta12 1.988395 1_555
O118 Si32 1.660235 1_555
O118 Ta11 2.072552 1_555
O119 Si31 1.674959 1_655
O119 Ta12 2.048651 1_555
O120 Si19 1.661265 1_555
O120 Ta13 2.059630 1_555
O121 Si20 1.650266 1_555
O121 Ta14 2.042715 1_555
O122 Si16 1.633145 1_455
O122 Ta13 2.017181 1_555
O123 Si15 1.647877 1_555
O123 Ta14 2.023182 1_555
O124 Si17 1.638667 1_565
O124 Ta13 2.005896 1_555
O125 Si18 1.651663 1_565
O125 Ta14 2.027171 1_555
O126 Si11 1.648752 1_565
O126 Ta15 2.007105 1_555
O127 Si12 1.638722 1_565
O127 Ta16 2.037704 1_555
O128 Si13 1.631725 1_555
O128 Ta15 1.973462 1_555
O129 Si14 1.632293 1_555
O129 Ta16 2.039942 1_555
O130 Si10 1.626205 1_455
O130 Ta15 2.026426 1_555
O131 Si9 1.629941 1_555
O131 Ta16 1.975642 1_555
O132 S0 1.462572 1_555
O133 S1 1.464579 1_555
O134 Si0 1.618252 1_555
O135 Si1 1.622158 1_555
O136 Si2 1.602141 1_555
O137 Si3 1.602319 1_555
O138 S2 1.455715 1_555
O139 Si4 1.639012 1_555
O139 Ta17 2.009923 1_555
O140 Si5 1.609979 1_555
O141 Si6 1.660123 1_555
O141 Ta17 2.001956 1_555
O142 Si7 1.611241 1_555
O143 Si8 1.663041 1_565
O143 Ta17 2.047540 1_555
