# generated using pymatgen
data_TlVO3
_symmetry_space_group_name_H-M   'P 1'
_cell_length_a   5.15348249
_cell_length_b   5.77053724
_cell_length_c   11.16164076
_cell_angle_alpha   90.00000000
_cell_angle_beta   90.00000000
_cell_angle_gamma   90.00000000
_symmetry_Int_Tables_number   1
_chemical_formula_structural   TlVO3
_chemical_formula_sum   'Tl4 V4 O12'
_cell_volume   331.92892040
_cell_formula_units_Z   4
loop_
 _symmetry_equiv_pos_site_id
 _symmetry_equiv_pos_as_xyz
  1  'x, y, z'
loop_
 _atom_site_type_symbol
 _atom_site_label
 _atom_site_symmetry_multiplicity
 _atom_site_fract_x
 _atom_site_fract_y
 _atom_site_fract_z
 _atom_site_occupancy
  Tl  Tl0  1  0.06631539  0.75000000  0.90353309  1
  Tl  Tl1  1  0.06631539  0.25000000  0.59646691  1
  Tl  Tl2  1  0.93368461  0.25000000  0.09646691  1
  Tl  Tl3  1  0.93368461  0.75000000  0.40353309  1
  V  V0  1  0.53718262  0.75000000  0.66606178  1
  V  V1  1  0.53718262  0.25000000  0.83393822  1
  V  V2  1  0.46281738  0.25000000  0.33393822  1
  V  V3  1  0.46281738  0.75000000  0.16606178  1
  O  O0  1  0.57247652  0.50000000  0.25000000  1
  O  O1  1  0.42752348  0.00000000  0.75000000  1
  O  O2  1  0.42752348  0.50000000  0.75000000  1
  O  O3  1  0.57247652  -0.00000000  0.25000000  1
  O  O4  1  0.41472611  0.75000000  0.52953605  1
  O  O5  1  0.41472611  0.25000000  0.97046395  1
  O  O6  1  0.58527389  0.25000000  0.47046395  1
  O  O7  1  0.58527389  0.75000000  0.02953605  1
  O  O8  1  0.14074091  0.75000000  0.15671342  1
  O  O9  1  0.14074091  0.25000000  0.34328658  1
  O  O10  1  0.85925909  0.25000000  0.84328658  1
  O  O11  1  0.85925909  0.75000000  0.65671342  1
loop_
_geom_bond_atom_site_label_1
_geom_bond_atom_site_label_2
_geom_bond_distance
_geom_bond_site_symmetry_2
O0 V3 1.810614 1_555
O0 V2 1.810614 1_555
O1 V0 1.810614 1_545
O1 V1 1.810614 1_555
O2 V1 1.810614 1_555
O2 V0 1.810614 1_555
O3 V3 1.810614 1_545
O3 V2 1.810614 1_555
O4 V0 1.649358 1_555
O5 V1 1.649358 1_555
O6 V2 1.649358 1_555
O7 V3 1.649358 1_555
O8 V3 1.663092 1_555
O9 V2 1.663092 1_555
O10 V1 1.663092 1_555
O11 V0 1.663092 1_555
