# generated using pymatgen
data_NaMgTi3P3(SO8)3
_symmetry_space_group_name_H-M   'P 1'
_cell_length_a   8.60906215
_cell_length_b   8.60823566
_cell_length_c   22.36554759
_cell_angle_alpha   90.03768374
_cell_angle_beta   90.11105796
_cell_angle_gamma   120.07036952
_symmetry_Int_Tables_number   1
_chemical_formula_structural   NaMgTi3P3(SO8)3
_chemical_formula_sum   'Na3 Mg3 Ti9 P9 S9 O72'
_cell_volume   1434.39968788
_cell_formula_units_Z   3
loop_
 _symmetry_equiv_pos_site_id
 _symmetry_equiv_pos_as_xyz
  1  'x, y, z'
loop_
 _atom_site_type_symbol
 _atom_site_label
 _atom_site_symmetry_multiplicity
 _atom_site_fract_x
 _atom_site_fract_y
 _atom_site_fract_z
 _atom_site_occupancy
  Na  Na0  1  0.66086561  0.33288911  0.83158731  1
  Na  Na1  1  0.66922930  0.32982500  0.33108066  1
  Na  Na2  1  0.33088927  0.66950103  0.16755297  1
  Mg  Mg0  1  0.66106068  0.33612444  0.68746592  1
  Mg  Mg1  1  0.66940890  0.33043230  0.18623009  1
  Mg  Mg2  1  0.33005458  0.66982393  0.31354621  1
  Ti  Ti0  1  0.99337875  0.99277803  0.35930795  1
  Ti  Ti1  1  0.00894871  0.00594273  0.86006783  1
  Ti  Ti2  1  0.99931703  0.00196580  0.64462938  1
  Ti  Ti3  1  0.99531057  0.99563546  0.13930381  1
  Ti  Ti4  1  0.67871587  0.33692586  0.97985073  1
  Ti  Ti5  1  0.67829643  0.34717109  0.48053733  1
  Ti  Ti6  1  0.33514780  0.67515683  0.01792160  1
  Ti  Ti7  1  0.34566839  0.68061607  0.51975261  1
  Ti  Ti8  1  0.33428464  0.65810853  0.81166931  1
  P  P0  1  0.28533967  0.28295762  0.75113882  1
  P  P1  1  0.66512650  0.62217569  0.58526094  1
  P  P2  1  0.95737725  0.61880262  0.08486493  1
  P  P3  1  0.66314118  0.04452655  0.08462952  1
  P  P4  1  0.62005802  0.66519865  0.91614553  1
  P  P5  1  0.04856396  0.38307852  0.91618236  1
  P  P6  1  0.33854257  0.95494300  0.91490377  1
  P  P7  1  0.62041348  0.96026557  0.41519640  1
  P  P8  1  0.04905828  0.66623193  0.41566396  1
  S  S0  1  0.28529058  0.00148614  0.24980234  1
  S  S1  1  0.71191459  0.71218184  0.24967270  1
  S  S2  1  0.00151564  0.28525245  0.25028966  1
  S  S3  1  0.00176474  0.71440777  0.75111241  1
  S  S4  1  0.71363987  0.00019407  0.75086097  1
  S  S5  1  0.95930508  0.33697075  0.58419060  1
  S  S6  1  0.37780812  0.04519274  0.58375243  1
  S  S7  1  0.37918130  0.33630641  0.08388422  1
  S  S8  1  0.33462463  0.37806216  0.41632109  1
  O  O0  1  0.19546877  0.02017695  0.30437309  1
  O  O1  1  0.82343734  0.80175390  0.30446441  1
  O  O2  1  0.98139533  0.17504242  0.30478946  1
  O  O3  1  0.18692907  0.16501083  0.80624509  1
  O  O4  1  0.97231997  0.79862210  0.80427621  1
  O  O5  1  0.82484341  0.02521179  0.80408620  1
  O  O6  1  0.79554125  0.97049137  0.69585371  1
  O  O7  1  0.16630212  0.19296808  0.69455748  1
  O  O8  1  0.02648021  0.82476331  0.69641330  1
  O  O9  1  0.80112678  0.82319167  0.19567393  1
  O  O10  1  0.02015103  0.19561640  0.19591568  1
  O  O11  1  0.17525281  0.98130352  0.19545027  1
  O  O12  1  0.88061727  0.36689145  0.63690838  1
  O  O13  1  0.48752224  0.11748386  0.63684226  1
  O  O14  1  0.62705922  0.50717998  0.63902038  1
  O  O15  1  0.88035205  0.50819606  0.13983928  1
  O  O16  1  0.62265346  0.11570997  0.13970108  1
  O  O17  1  0.48682636  0.36868429  0.13764432  1
  O  O18  1  0.45867945  0.30445743  0.02997674  1
  O  O19  1  0.83802482  0.53355171  0.02792626  1
  O  O20  1  0.69472803  0.16341442  0.02815996  1
  O  O21  1  0.45877928  0.15685871  0.52994786  1
  O  O22  1  0.69840217  0.53318800  0.52860427  1
  O  O23  1  0.84152758  0.30159179  0.53007836  1
  O  O24  1  0.53387001  0.69679377  0.97150234  1
  O  O25  1  0.16291767  0.46627815  0.97218376  1
  O  O26  1  0.30493255  0.83848747  0.97151588  1
  O  O27  1  0.53489444  0.84004701  0.47170581  1
  O  O28  1  0.30425374  0.45865081  0.46995314  1
  O  O29  1  0.16370990  0.69491361  0.47200826  1
  O  O30  1  0.11528178  0.62142915  0.36035706  1
  O  O31  1  0.50799439  0.88274873  0.36043798  1
  O  O32  1  0.37121056  0.48675006  0.36282522  1
  O  O33  1  0.13237204  0.50080883  0.86044907  1
  O  O34  1  0.36860463  0.86728002  0.86006470  1
  O  O35  1  0.49883268  0.63191584  0.86027495  1
  O  O36  1  0.02471142  0.83320983  0.40736040  1
  O  O37  1  0.81001691  0.97974787  0.40713515  1
  O  O38  1  0.17340852  0.19678793  0.40888035  1
  O  O39  1  0.02512413  0.19533457  0.90693868  1
  O  O40  1  0.16828855  0.97019121  0.90655619  1
  O  O41  1  0.80406297  0.83085111  0.90469112  1
  O  O42  1  0.97443597  0.17183844  0.59094907  1
  O  O43  1  0.19595869  0.02347168  0.59126669  1
  O  O44  1  0.83278920  0.81174556  0.59394583  1
  O  O45  1  0.97796442  0.80928341  0.09283223  1
  O  O46  1  0.83387186  0.02582142  0.09273326  1
  O  O47  1  0.19732334  0.17279970  0.09128350  1
  O  O48  1  0.69662986  0.15986392  0.74404871  1
  O  O49  1  0.46884674  0.30266510  0.74727712  1
  O  O50  1  0.84486088  0.53469985  0.74520431  1
  O  O51  1  0.69863958  0.53621812  0.24606562  1
  O  O52  1  0.83849283  0.29950652  0.24750958  1
  O  O53  1  0.46173005  0.16550586  0.24658594  1
  O  O54  1  0.63800004  0.49737083  0.92457522  1
  O  O55  1  0.85965504  0.36154734  0.92341459  1
  O  O56  1  0.50139768  0.14292934  0.92427633  1
  O  O57  1  0.64732606  0.14808204  0.42898258  1
  O  O58  1  0.49262560  0.35142758  0.42553043  1
  O  O59  1  0.85517892  0.50391931  0.42771014  1
  O  O60  1  0.35308281  0.49284843  0.07570897  1
  O  O61  1  0.14672855  0.64699284  0.07333908  1
  O  O62  1  0.50418318  0.85246002  0.07297964  1
  O  O63  1  0.35298074  0.86230248  0.57351156  1
  O  O64  1  0.50360826  0.64680835  0.56904031  1
  O  O65  1  0.13788587  0.49117917  0.57257287  1
  O  O66  1  0.29953487  0.83857503  0.25288295  1
  O  O67  1  0.53593801  0.69837921  0.25424502  1
  O  O68  1  0.16541616  0.46156177  0.25404883  1
  O  O69  1  0.29624947  0.46776115  0.75976320  1
  O  O70  1  0.16777467  0.70471124  0.75772272  1
  O  O71  1  0.53540875  0.83634061  0.75736223  1
loop_
_geom_bond_atom_site_label_1
_geom_bond_atom_site_label_2
_geom_bond_distance
_geom_bond_site_symmetry_2
Na0 O49 2.431532 1_555
Na0 O50 2.553108 1_555
Na0 O48 2.569918 1_555
Na0 O56 2.573322 1_555
Na0 O54 2.577945 1_555
Na0 O55 2.601979 1_555
Na1 O52 2.464989 1_555
Na1 O53 2.492864 1_555
Na1 O51 2.528154 1_555
Na1 O57 2.643506 1_555
Na1 O59 2.656585 1_555
Na1 O58 2.665289 1_555
Na2 O66 2.495069 1_555
Na2 O68 2.536870 1_555
Na2 O67 2.546316 1_555
Na2 O61 2.582620 1_555
Na2 O62 2.615759 1_555
Na2 O60 2.618589 1_555
Mg0 O14 1.964869 1_555
Mg0 O49 2.035236 1_555
Mg0 O13 2.056478 1_555
Mg0 O50 2.090930 1_555
Mg0 O12 2.104401 1_555
Mg0 O48 2.112837 1_555
Mg1 O16 1.977810 1_555
Mg1 O15 1.985099 1_555
Mg1 O17 2.067008 1_555
Mg1 O52 2.109335 1_555
Mg1 O53 2.121935 1_555
Mg1 O51 2.130995 1_555
Mg2 O30 1.981058 1_555
Mg2 O31 1.995896 1_555
Mg2 O32 2.093851 1_555
Mg2 O66 2.098510 1_555
Mg2 O68 2.106381 1_555
Mg2 O67 2.129332 1_555
O0 S0 1.497186 1_555
O0 Ti0 2.046846 1_445
O1 S1 1.506777 1_555
O1 Ti0 1.982047 1_555
O2 S2 1.501159 1_655
O2 Ti0 2.030602 1_545
O3 P0 1.552845 1_555
O3 Ti1 1.891713 1_555
O4 S3 1.479119 1_655
O4 Ti1 2.067141 1_665
O5 S4 1.472625 1_555
O5 Ti1 2.088864 1_655
O6 S4 1.503233 1_565
O6 Ti2 1.998863 1_565
O7 P0 1.565201 1_555
O7 Ti2 1.907784 1_455
O8 S3 1.498111 1_555
O8 Ti2 2.020310 1_465
O9 S1 1.493732 1_555
O9 Ti3 2.027688 1_555
O10 S2 1.491175 1_555
O10 Ti3 2.059015 1_445
O11 S0 1.495207 1_565
O11 Ti3 2.043557 1_455
O12 S5 1.446715 1_555
O13 S6 1.447387 1_555
O14 P1 1.486936 1_555
O15 P2 1.493320 1_555
O16 P3 1.492911 1_555
O17 S7 1.455541 1_555
O18 S7 1.479195 1_555
O18 Ti4 2.097961 1_554
O19 P2 1.566553 1_555
O19 Ti4 1.888808 1_554
O20 P3 1.562231 1_555
O20 Ti4 1.903997 1_554
O21 S6 1.480303 1_555
O21 Ti5 2.093908 1_555
O22 P1 1.579428 1_555
O22 Ti5 1.862532 1_555
O23 S5 1.506937 1_555
O23 Ti5 1.975724 1_555
O24 P4 1.537122 1_555
O24 Ti6 1.930602 1_556
O25 P5 1.529169 1_555
O25 Ti6 1.948840 1_556
O26 P6 1.550565 1_555
O26 Ti6 1.867904 1_556
O27 P7 1.565935 1_555
O27 Ti7 1.860198 1_555
O28 S8 1.473206 1_555
O28 Ti7 2.081226 1_555
O29 P8 1.540712 1_555
O29 Ti7 1.948384 1_555
O30 P8 1.492089 1_555
O31 P7 1.492980 1_555
O32 S8 1.453863 1_555
O33 P5 1.540718 1_555
O33 Ti8 1.922475 1_555
O34 P6 1.528556 1_555
O34 Ti8 1.990998 1_555
O35 P4 1.558054 1_555
O35 Ti8 1.885156 1_555
O36 P8 1.564168 1_555
O36 Ti0 1.867268 1_455
O37 P7 1.565857 1_555
O37 Ti0 1.864928 1_555
O38 S8 1.489094 1_555
O38 Ti0 1.994654 1_445
O39 P5 1.538818 1_555
O39 Ti1 1.883070 1_555
O40 P6 1.546679 1_555
O40 Ti1 1.864262 1_565
O41 P4 1.531923 1_555
O41 Ti1 1.929672 1_665
O42 S5 1.498747 1_555
O42 Ti2 1.985154 1_555
O43 S6 1.490595 1_555
O43 Ti2 2.004656 1_455
O44 P1 1.556338 1_555
O44 Ti2 1.913196 1_565
O45 P2 1.568456 1_555
O45 Ti3 1.852849 1_555
O46 P3 1.566958 1_555
O46 Ti3 1.854913 1_545
O47 S7 1.500880 1_555
O47 Ti3 1.963510 1_445
O48 S4 1.461416 1_555
O49 P0 1.504676 1_555
O50 S3 1.462934 1_655
O51 S1 1.462984 1_555
O52 S2 1.470003 1_655
O53 S0 1.468778 1_555
O54 P4 1.539624 1_555
O54 Ti4 2.011098 1_555
O55 P5 1.550628 1_655
O55 Ti4 1.934356 1_555
O56 P6 1.533976 1_545
O56 Ti4 2.024666 1_555
O57 P7 1.544788 1_545
O57 Ti5 1.968765 1_555
O58 S8 1.502250 1_555
O58 Ti5 2.030039 1_555
O59 P8 1.573508 1_655
O59 Ti5 1.866949 1_555
O60 S7 1.484381 1_555
O60 Ti6 2.098059 1_555
O61 P2 1.545307 1_455
O61 Ti6 1.959676 1_555
O62 P3 1.550762 1_565
O62 Ti6 1.930890 1_555
O63 S6 1.496288 1_565
O63 Ti7 1.947887 1_555
O64 P1 1.550402 1_555
O64 Ti7 1.881449 1_555
O65 S5 1.466327 1_455
O65 Ti7 2.083786 1_555
O66 S0 1.469313 1_565
O67 S1 1.462876 1_555
O68 S2 1.467925 1_555
O69 P0 1.557744 1_555
O69 Ti8 1.896875 1_555
O70 S3 1.479917 1_555
O70 Ti8 2.059568 1_555
O71 S4 1.482325 1_565
O71 Ti8 2.043450 1_555
