# generated using pymatgen
data_MgFe12(OF)12
_symmetry_space_group_name_H-M   'P 1'
_cell_length_a   9.69126910
_cell_length_b   14.61756927
_cell_length_c   3.11650200
_cell_angle_alpha   90.00000000
_cell_angle_beta   90.00000000
_cell_angle_gamma   91.44862273
_symmetry_Int_Tables_number   1
_chemical_formula_structural   MgFe12(OF)12
_chemical_formula_sum   'Mg1 Fe12 O12 F12'
_cell_volume   441.35128867
_cell_formula_units_Z   1
loop_
 _symmetry_equiv_pos_site_id
 _symmetry_equiv_pos_as_xyz
  1  'x, y, z'
loop_
 _atom_site_type_symbol
 _atom_site_label
 _atom_site_symmetry_multiplicity
 _atom_site_fract_x
 _atom_site_fract_y
 _atom_site_fract_z
 _atom_site_occupancy
  Mg  Mg0  1  0.97811700  0.49824200  0.50000000  1
  Fe  Fe0  1  0.01164000  0.00059000  0.00000000  1
  Fe  Fe1  1  0.03135500  0.31493200  0.00000000  1
  Fe  Fe2  1  0.00416300  0.69127000  0.00000000  1
  Fe  Fe3  1  0.23715700  0.15571400  0.50000000  1
  Fe  Fe4  1  0.25701200  0.48353600  0.50000000  1
  Fe  Fe5  1  0.25887800  0.86767900  0.50000000  1
  Fe  Fe6  1  0.50881300  0.32522500  0.00000000  1
  Fe  Fe7  1  0.51939000  0.99960800  0.00000000  1
  Fe  Fe8  1  0.50212900  0.68179500  0.00000000  1
  Fe  Fe9  1  0.76387500  0.13664400  0.50000000  1
  Fe  Fe10  1  0.58886000  0.48796900  0.50000000  1
  Fe  Fe11  1  0.72350000  0.83950100  0.50000000  1
  O  O0  1  0.12458500  0.26775000  0.50000000  1
  O  O1  1  0.09476300  0.93377700  0.50000000  1
  O  O2  1  0.16237600  0.09978400  0.00000000  1
  O  O3  1  0.11178000  0.44459500  0.00000000  1
  O  O4  1  0.35793500  0.91133000  0.00000000  1
  O  O5  1  0.42660800  0.39766400  0.50000000  1
  O  O6  1  0.60639400  0.94376300  0.50000000  1
  O  O7  1  0.57642400  0.61366000  0.50000000  1
  O  O8  1  0.65414000  0.10587700  0.00000000  1
  O  O9  1  0.65181100  0.42842600  0.00000000  1
  O  O10  1  0.63979500  0.77608000  0.00000000  1
  O  O11  1  0.91151500  0.05688600  0.50000000  1
  F  F0  1  0.10151700  0.61059500  0.50000000  1
  F  F1  1  0.16632700  0.77840400  0.00000000  1
  F  F2  1  0.36231900  0.23011700  0.00000000  1
  F  F3  1  0.35314300  0.56440500  0.00000000  1
  F  F4  1  0.41058300  0.07443900  0.50000000  1
  F  F5  1  0.38963800  0.73663700  0.50000000  1
  F  F6  1  0.60438200  0.26555700  0.50000000  1
  F  F7  1  0.86424800  0.22355600  0.00000000  1
  F  F8  1  0.84427600  0.89284300  0.00000000  1
  F  F9  1  0.88765400  0.56094900  0.00000000  1
  F  F10  1  0.90579200  0.37340000  0.50000000  1
  F  F11  1  0.88567600  0.74068400  0.50000000  1
loop_
_geom_bond_atom_site_label_1
_geom_bond_atom_site_label_2
_geom_bond_distance
_geom_bond_site_symmetry_2
Mg0 O3 2.184588 1_656
Mg0 O3 2.184588 1_655
Fe0 O1 2.017597 1_544
Fe0 O1 2.017597 1_545
Fe0 O11 2.021697 1_455
Fe0 O11 2.021697 1_454
Fe0 O2 2.032077 1_555
Fe1 O0 1.936921 1_554
Fe1 O0 1.936921 1_555
Fe1 O3 2.031055 1_555
Fe3 O2 1.895209 1_555
Fe3 O2 1.895209 1_556
Fe3 O0 1.990624 1_555
Fe4 O5 2.093171 1_555
Fe4 O3 2.166255 1_555
Fe4 O3 2.166255 1_556
Fe5 O1 1.881717 1_555
Fe5 O4 1.930256 1_555
Fe5 O4 1.930256 1_556
Fe6 O9 2.022509 1_555
Fe6 O5 2.055897 1_555
Fe6 O5 2.055897 1_554
Fe7 O6 1.959662 1_554
Fe7 O6 1.959662 1_555
Fe7 O4 2.002840 1_555
Fe7 O8 2.003956 1_565
Fe8 O10 1.893804 1_555
Fe8 O7 1.993684 1_554
Fe8 O7 1.993684 1_555
Fe9 O11 1.868378 1_555
Fe9 O8 1.933184 1_555
Fe9 O8 1.933184 1_556
Fe10 O7 1.844283 1_555
Fe10 O9 1.893340 1_556
Fe10 O9 1.893340 1_555
Fe10 O5 2.027335 1_555
Fe11 O6 1.923074 1_555
Fe11 O10 1.976771 1_556
Fe11 O10 1.976771 1_555
F0 Mg0 2.007017 1_455
F0 Fe2 2.182945 1_555
F0 Fe2 2.182945 1_556
F0 Fe4 2.421143 1_555
F1 Fe2 1.997729 1_555
F1 Fe5 2.208267 1_554
F1 Fe5 2.208267 1_555
F2 Fe6 1.961779 1_555
F2 Fe3 2.239557 1_555
F2 Fe3 2.239557 1_554
F3 Fe4 2.153551 1_554
F3 Fe4 2.153551 1_555
F3 Fe8 2.214493 1_555
F4 Fe3 2.082599 1_555
F4 Fe7 2.189724 1_546
F4 Fe7 2.189724 1_545
F5 Fe8 2.074483 1_556
F5 Fe8 2.074483 1_555
F5 Fe5 2.323318 1_555
F6 Fe6 2.021767 1_556
F6 Fe6 2.021767 1_555
F6 Fe9 2.467259 1_555
F7 Fe1 2.073023 1_655
F7 Fe9 2.219440 1_555
F7 Fe9 2.219440 1_554
F8 Fe11 2.088058 1_555
F8 Fe11 2.088058 1_554
F8 Fe0 2.232094 1_665
F9 Mg0 2.019302 1_554
F9 Mg0 2.019302 1_555
F9 Fe2 2.189770 1_655
F10 Mg0 1.938254 1_555
F10 Fe1 2.166087 1_655
F10 Fe1 2.166087 1_656
F11 Fe2 2.076147 1_656
F11 Fe2 2.076147 1_655
F11 Fe11 2.161360 1_555
