# generated using pymatgen
data_Lu(BRh)4
_symmetry_space_group_name_H-M   'P 1'
_cell_length_a   11.80546691
_cell_length_b   11.80546691
_cell_length_c   7.51271000
_cell_angle_alpha   90.00000000
_cell_angle_beta   90.00000000
_cell_angle_gamma   142.92077374
_symmetry_Int_Tables_number   1
_chemical_formula_structural   Lu(BRh)4
_chemical_formula_sum   'Lu6 B24 Rh24'
_cell_volume   631.27961372
_cell_formula_units_Z   6
loop_
 _symmetry_equiv_pos_site_id
 _symmetry_equiv_pos_as_xyz
  1  'x, y, z'
loop_
 _atom_site_type_symbol
 _atom_site_label
 _atom_site_symmetry_multiplicity
 _atom_site_fract_x
 _atom_site_fract_y
 _atom_site_fract_z
 _atom_site_occupancy
  Lu  Lu0  1  0.00000000  0.00000000  0.50000000  1
  Lu  Lu1  1  0.50000000  0.50000000  0.00000000  1
  Lu  Lu2  1  0.66683200  0.33316800  0.50000000  1
  Lu  Lu3  1  0.33316800  0.66683200  0.50000000  1
  Lu  Lu4  1  0.83316800  0.16683200  0.00000000  1
  Lu  Lu5  1  0.16683200  0.83316800  0.00000000  1
  B  B0  1  0.40897800  0.30208400  0.33425800  1
  B  B1  1  0.30208400  0.40897800  0.66574200  1
  B  B2  1  0.59102200  0.69791600  0.33425800  1
  B  B3  1  0.69791600  0.59102200  0.66574200  1
  B  B4  1  0.09102200  0.19791600  0.16574200  1
  B  B5  1  0.19791600  0.09102200  0.83425800  1
  B  B6  1  0.94793300  0.39104800  0.63632900  1
  B  B7  1  0.39104800  0.94793300  0.36367100  1
  B  B8  1  0.05206700  0.60895200  0.63632900  1
  B  B9  1  0.60895200  0.05206700  0.36367100  1
  B  B10  1  0.55206700  0.10895200  0.86367100  1
  B  B11  1  0.10895200  0.55206700  0.13632900  1
  B  B12  1  0.44793300  0.89104800  0.86367100  1
  B  B13  1  0.89104800  0.44793300  0.13632900  1
  B  B14  1  0.02656700  0.24740100  0.32802800  1
  B  B15  1  0.24740100  0.02656700  0.67197200  1
  B  B16  1  0.97343300  0.75259900  0.32802800  1
  B  B17  1  0.75259900  0.97343300  0.67197200  1
  B  B18  1  0.47343300  0.25259900  0.17197200  1
  B  B19  1  0.25259900  0.47343300  0.82802800  1
  B  B20  1  0.52656700  0.74740100  0.17197200  1
  B  B21  1  0.74740100  0.52656700  0.82802800  1
  B  B22  1  0.90897800  0.80208400  0.16574200  1
  B  B23  1  0.80208400  0.90897800  0.83425800  1
  Rh  Rh0  1  0.10643400  0.19225800  0.87598900  1
  Rh  Rh1  1  0.19225800  0.10643400  0.12401100  1
  Rh  Rh2  1  0.60643400  0.69225800  0.62401100  1
  Rh  Rh3  1  0.69225800  0.60643400  0.37598900  1
  Rh  Rh4  1  0.39356600  0.30774200  0.62401100  1
  Rh  Rh5  1  0.30774200  0.39356600  0.37598900  1
  Rh  Rh6  1  0.02856500  0.27963300  0.61435200  1
  Rh  Rh7  1  0.27963300  0.02856500  0.38564800  1
  Rh  Rh8  1  0.97143500  0.72036700  0.61435200  1
  Rh  Rh9  1  0.72036700  0.97143500  0.38564800  1
  Rh  Rh10  1  0.47143500  0.22036700  0.88564800  1
  Rh  Rh11  1  0.22036700  0.47143500  0.11435200  1
  Rh  Rh12  1  0.52856500  0.77963300  0.88564800  1
  Rh  Rh13  1  0.77963300  0.52856500  0.11435200  1
  Rh  Rh14  1  0.90751100  0.32491600  0.34405100  1
  Rh  Rh15  1  0.32491600  0.90751100  0.65594900  1
  Rh  Rh16  1  0.09248900  0.67508400  0.34405100  1
  Rh  Rh17  1  0.67508400  0.09248900  0.65594900  1
  Rh  Rh18  1  0.59248900  0.17508400  0.15594900  1
  Rh  Rh19  1  0.17508400  0.59248900  0.84405100  1
  Rh  Rh20  1  0.40751100  0.82491600  0.15594900  1
  Rh  Rh21  1  0.82491600  0.40751100  0.84405100  1
  Rh  Rh22  1  0.80774200  0.89356600  0.12401100  1
  Rh  Rh23  1  0.89356600  0.80774200  0.87598900  1
loop_
_geom_bond_atom_site_label_1
_geom_bond_atom_site_label_2
_geom_bond_distance
_geom_bond_site_symmetry_2
Lu0 Rh2 2.953084 1_445
Lu0 Rh4 2.953084 1_555
Lu0 Rh5 2.953084 1_555
Lu0 Rh3 2.953084 1_445
Lu0 Rh7 3.158066 1_555
Lu0 Rh8 3.158066 1_445
Lu0 Rh9 3.158066 1_445
Lu0 Rh6 3.158066 1_555
Lu0 Rh0 3.187280 1_555
Lu0 Rh23 3.187280 1_445
Lu0 Rh22 3.187280 1_445
Lu0 Rh1 3.187280 1_555
Lu1 Rh0 2.953084 1_554
Lu1 Rh23 2.953084 1_554
Lu1 Rh22 2.953084 1_555
Lu1 Rh1 2.953084 1_555
Lu1 Rh11 3.158066 1_555
Lu1 Rh12 3.158066 1_554
Lu1 Rh13 3.158066 1_555
Lu1 Rh10 3.158066 1_554
Lu1 Rh3 3.187280 1_555
Lu1 Rh5 3.187280 1_555
Lu1 Rh4 3.187280 1_554
Lu1 Rh2 3.187280 1_554
Lu2 Rh18 2.884556 1_555
Lu2 Rh21 2.884556 1_555
Lu2 Rh8 2.887223 1_555
Lu2 Rh7 2.887223 1_555
Lu2 Rh3 3.133732 1_555
Lu2 Rh4 3.133732 1_555
Lu2 Rh14 3.145941 1_555
Lu2 Rh17 3.145941 1_555
Lu2 Rh16 3.248472 1_655
Lu2 Rh15 3.248472 1_545
Lu2 Rh13 3.253790 1_555
Lu2 Rh10 3.253790 1_555
Lu3 Rh20 2.884556 1_555
Lu3 Rh19 2.884556 1_555
Lu3 Rh6 2.887223 1_555
Lu3 Rh9 2.887223 1_555
Lu3 Rh2 3.133732 1_555
Lu3 Rh5 3.133732 1_555
Lu3 Rh15 3.145941 1_555
Lu3 Rh16 3.145941 1_555
Lu3 Rh14 3.248472 1_455
Lu3 Rh17 3.248472 1_565
Lu3 Rh12 3.253790 1_555
Lu3 Rh11 3.253790 1_555
Lu4 Rh14 2.884556 1_555
Lu4 Rh17 2.884556 1_554
Lu4 Rh12 2.887223 1_544
Lu4 Rh11 2.887223 1_655
Lu4 Rh0 3.133732 1_654
Lu4 Rh22 3.133732 1_545
Lu4 Rh18 3.145941 1_555
Lu4 Rh21 3.145941 1_554
Lu4 Rh20 3.248472 1_545
Lu4 Rh19 3.248472 1_654
Lu4 Rh6 3.253790 1_654
Lu4 Rh9 3.253790 1_545
Lu5 Rh15 2.884556 1_554
Lu5 Rh16 2.884556 1_555
Lu5 Rh10 2.887223 1_564
Lu5 Rh13 2.887223 1_455
Lu5 Rh1 3.133732 1_565
Lu5 Rh23 3.133732 1_454
Lu5 Rh19 3.145941 1_554
Lu5 Rh20 3.145941 1_555
Lu5 Rh21 3.248472 1_454
Lu5 Rh18 3.248472 1_565
Lu5 Rh7 3.253790 1_565
Lu5 Rh8 3.253790 1_454
B0 B18 1.765230 1_555
B0 Rh5 2.180028 1_555
B0 Rh4 2.189874 1_555
B0 Rh1 2.224075 1_555
B0 Rh3 2.240384 1_555
B0 Rh7 2.244978 1_555
B0 Lu1 2.985604 1_555
B0 Lu2 3.028067 1_555
B0 Lu0 3.178990 1_555
B1 B19 1.765230 1_555
B1 Rh4 2.180028 1_555
B1 Rh5 2.189874 1_555
B1 Rh0 2.224075 1_555
B1 Rh2 2.240384 1_555
B1 Rh6 2.244978 1_555
B1 Lu1 2.985604 1_556
B1 Lu3 3.028067 1_555
B1 Lu0 3.178990 1_555
B2 B20 1.765230 1_555
B2 Rh3 2.180028 1_555
B2 Rh2 2.189874 1_555
B2 Rh22 2.224075 1_555
B2 Rh5 2.240384 1_555
B2 Rh9 2.244978 1_555
B2 Lu1 2.985604 1_555
B2 Lu3 3.028067 1_555
B2 Lu0 3.178990 1_665
B3 Rh2 2.180028 1_555
B3 Rh3 2.189874 1_555
B3 Rh23 2.224075 1_555
B3 Rh4 2.240384 1_555
B3 Rh8 2.244978 1_555
B3 Lu1 2.985604 1_556
B3 Lu2 3.028067 1_555
B3 Lu0 3.178990 1_665
B4 Rh1 2.180028 1_555
B4 Rh0 2.189874 1_554
B4 Rh5 2.224075 1_555
B4 Rh22 2.240384 1_445
B4 Rh11 2.244978 1_555
B4 Lu0 2.985604 1_555
B4 Lu4 3.028067 1_455
B4 Lu1 3.178990 1_555
B5 Rh0 2.180028 1_555
B5 Rh1 2.189874 1_556
B5 Rh4 2.224075 1_555
B5 Rh23 2.240384 1_445
B5 Rh10 2.244978 1_555
B5 Lu0 2.985604 1_555
B5 Lu5 3.028067 1_546
B5 Lu1 3.178990 1_556
B6 B8 1.755796 1_655
B6 Rh6 2.158972 1_655
B6 Rh17 2.169109 1_555
B6 Rh21 2.243339 1_555
B6 Rh14 2.250405 1_555
B6 Rh19 2.259725 1_655
B6 Lu3 2.950653 1_655
B6 Lu2 2.985029 1_555
B6 Lu4 3.253385 1_556
B7 B9 1.755796 1_565
B7 Rh7 2.158972 1_565
B7 Rh16 2.169109 1_555
B7 Rh20 2.243339 1_555
B7 Rh15 2.250405 1_555
B7 Rh18 2.259725 1_565
B7 Lu2 2.950653 1_565
B7 Lu3 2.985029 1_555
B7 Lu5 3.253385 1_555
B8 Rh8 2.158972 1_455
B8 Rh15 2.169109 1_555
B8 Rh19 2.243339 1_555
B8 Rh16 2.250405 1_555
B8 Rh21 2.259725 1_455
B8 Lu2 2.950653 1_455
B8 Lu3 2.985029 1_555
B8 Lu5 3.253385 1_556
B9 Rh9 2.158972 1_545
B9 Rh14 2.169109 1_555
B9 Rh18 2.243339 1_555
B9 Rh17 2.250405 1_555
B9 Rh20 2.259725 1_545
B9 Lu3 2.950653 1_545
B9 Lu2 2.985029 1_555
B9 Lu4 3.253385 1_555
B10 B12 1.755796 1_545
B10 Rh10 2.158972 1_555
B10 Rh21 2.169109 1_555
B10 Rh17 2.243339 1_555
B10 Rh18 2.250405 1_556
B10 Rh15 2.259725 1_545
B10 Lu5 2.950653 1_546
B10 Lu4 2.985029 1_556
B10 Lu2 3.253385 1_555
B11 B13 1.755796 1_455
B11 Rh11 2.158972 1_555
B11 Rh20 2.169109 1_555
B11 Rh16 2.243339 1_555
B11 Rh19 2.250405 1_554
B11 Rh14 2.259725 1_455
B11 Lu4 2.950653 1_455
B11 Lu5 2.985029 1_555
B11 Lu3 3.253385 1_555
B12 Rh12 2.158972 1_555
B12 Rh19 2.169109 1_555
B12 Rh15 2.243339 1_555
B12 Rh20 2.250405 1_556
B12 Rh17 2.259725 1_565
B12 Lu4 2.950653 1_566
B12 Lu5 2.985029 1_556
B12 Lu3 3.253385 1_555
B13 Rh13 2.158972 1_555
B13 Rh18 2.169109 1_555
B13 Rh14 2.243339 1_555
B13 Rh21 2.250405 1_554
B13 Rh16 2.259725 1_655
B13 Lu5 2.950653 1_655
B13 Lu4 2.985029 1_555
B13 Lu2 3.253385 1_555
B14 B4 1.765230 1_555
B14 Rh6 2.181313 1_555
B14 Rh14 2.208983 1_455
B14 Rh5 2.233045 1_555
B14 Rh9 2.253277 1_445
B14 Rh11 2.269663 1_555
B14 Lu4 2.953916 1_455
B14 Lu0 2.972598 1_555
B14 Lu3 3.269748 1_555
B15 B5 1.765230 1_555
B15 Rh7 2.181313 1_555
B15 Rh15 2.208983 1_545
B15 Rh4 2.233045 1_555
B15 Rh8 2.253277 1_445
B15 Rh10 2.269663 1_555
B15 Lu5 2.953916 1_546
B15 Lu0 2.972598 1_555
B15 Lu2 3.269748 1_555
B16 B22 1.765230 1_555
B16 Rh8 2.181313 1_555
B16 Rh16 2.208983 1_655
B16 Rh3 2.233045 1_555
B16 Rh7 2.253277 1_665
B16 Rh13 2.269663 1_555
B16 Lu5 2.953916 1_655
B16 Lu0 2.972598 1_665
B16 Lu2 3.269748 1_555
B17 B23 1.765230 1_555
B17 Rh9 2.181313 1_555
B17 Rh17 2.208983 1_565
B17 Rh2 2.233045 1_555
B17 Rh6 2.253277 1_665
B17 Rh12 2.269663 1_555
B17 Lu4 2.953916 1_566
B17 Lu0 2.972598 1_665
B17 Lu3 3.269748 1_555
B18 Rh10 2.181313 1_554
B18 Rh18 2.208983 1_555
B18 Rh1 2.233045 1_555
B18 Rh13 2.253277 1_555
B18 Rh7 2.269663 1_555
B18 Lu2 2.953916 1_555
B18 Lu1 2.972598 1_555
B18 Lu5 3.269748 1_545
B19 Rh11 2.181313 1_556
B19 Rh19 2.208983 1_555
B19 Rh0 2.233045 1_555
B19 Rh12 2.253277 1_555
B19 Rh6 2.269663 1_555
B19 Lu3 2.953916 1_555
B19 Lu1 2.972598 1_556
B19 Lu4 3.269748 1_456
B20 Rh12 2.181313 1_554
B20 Rh20 2.208983 1_555
B20 Rh22 2.233045 1_555
B20 Rh11 2.253277 1_555
B20 Rh9 2.269663 1_555
B20 Lu3 2.953916 1_555
B20 Lu1 2.972598 1_555
B20 Lu4 3.269748 1_565
B21 B3 1.765230 1_555
B21 Rh13 2.181313 1_556
B21 Rh21 2.208983 1_555
B21 Rh23 2.233045 1_555
B21 Rh10 2.253277 1_555
B21 Rh8 2.269663 1_555
B21 Lu2 2.953916 1_555
B21 Lu1 2.972598 1_556
B21 Lu5 3.269748 1_656
B22 Rh22 2.180028 1_555
B22 Rh23 2.189874 1_554
B22 Rh3 2.224075 1_555
B22 Rh1 2.240384 1_665
B22 Rh13 2.244978 1_555
B22 Lu0 2.985604 1_665
B22 Lu5 3.028067 1_655
B22 Lu1 3.178990 1_555
B23 Rh23 2.180028 1_555
B23 Rh22 2.189874 1_556
B23 Rh2 2.224075 1_555
B23 Rh0 2.240384 1_665
B23 Rh12 2.244978 1_555
B23 Lu0 2.985604 1_665
B23 Lu4 3.028067 1_566
B23 Lu1 3.178990 1_556
