# generated using pymatgen
data_BaMgCuS2
_symmetry_space_group_name_H-M   'P 1'
_cell_length_a   3.76766351
_cell_length_b   5.52709434
_cell_length_c   5.40673519
_cell_angle_alpha   82.99776420
_cell_angle_beta   90.00000000
_cell_angle_gamma   90.00000000
_symmetry_Int_Tables_number   1
_chemical_formula_structural   BaMgCuS2
_chemical_formula_sum   'Ba1 Mg1 Cu1 S2'
_cell_volume   111.75133359
_cell_formula_units_Z   1
loop_
 _symmetry_equiv_pos_site_id
 _symmetry_equiv_pos_as_xyz
  1  'x, y, z'
loop_
 _atom_site_type_symbol
 _atom_site_label
 _atom_site_symmetry_multiplicity
 _atom_site_fract_x
 _atom_site_fract_y
 _atom_site_fract_z
 _atom_site_occupancy
  Ba  Ba0  1  0.50000000  0.43816851  0.45205729  1
  Mg  Mg0  1  0.50000000  0.85257484  0.85758219  1
  Cu  Cu0  1  0.00000000  0.11055934  0.10409735  1
  S  S0  1  0.00000000  0.50685407  0.95624551  1
  S  S1  1  0.00000000  0.95295425  0.50501766  1
loop_
_geom_bond_atom_site_label_1
_geom_bond_atom_site_label_2
_geom_bond_distance
_geom_bond_site_symmetry_2
Ba0 S0 3.260535 1_554
Ba0 S0 3.260535 1_654
Ba0 S1 3.261253 1_545
Ba0 S1 3.261253 1_645
Ba0 S0 3.372893 1_655
Ba0 S0 3.372893 1_555
Ba0 S1 3.453261 1_555
Ba0 S1 3.453261 1_655
Mg0 S1 2.689324 1_555
Mg0 S1 2.689324 1_655
Mg0 S0 2.690007 1_555
Mg0 S0 2.690007 1_655
Cu0 S1 2.235446 1_545
Cu0 S0 2.238256 1_554
Cu0 Mg0 2.796760 1_544
Cu0 Mg0 2.796760 1_444
