# generated using pymatgen
data_Na7Si5Sn4PO24
_symmetry_space_group_name_H-M   'P 1'
_cell_length_a   9.06873387
_cell_length_b   9.07381498
_cell_length_c   22.81010090
_cell_angle_alpha   90.11619555
_cell_angle_beta   89.73268506
_cell_angle_gamma   120.01515978
_symmetry_Int_Tables_number   1
_chemical_formula_structural   Na7Si5Sn4PO24
_chemical_formula_sum   'Na21 Si15 Sn12 P3 O72'
_cell_volume   1625.26168887
_cell_formula_units_Z   3
loop_
 _symmetry_equiv_pos_site_id
 _symmetry_equiv_pos_as_xyz
  1  'x, y, z'
loop_
 _atom_site_type_symbol
 _atom_site_label
 _atom_site_symmetry_multiplicity
 _atom_site_fract_x
 _atom_site_fract_y
 _atom_site_fract_z
 _atom_site_occupancy
  Na  Na0  1  0.63498301  0.99977764  0.25075528  1
  Na  Na1  1  0.36569308  0.36543024  0.24898251  1
  Na  Na2  1  0.99998398  0.63402977  0.25024603  1
  Na  Na3  1  0.63483126  0.63425484  0.74927533  1
  Na  Na4  1  0.99939205  0.36561504  0.75012912  1
  Na  Na5  1  0.36638400  0.00044562  0.75026280  1
  Na  Na6  1  0.30058443  0.33262237  0.58389494  1
  Na  Na7  1  0.03258727  0.69958029  0.58331015  1
  Na  Na8  1  0.66744872  0.96792971  0.58325090  1
  Na  Na9  1  0.29734879  0.96736278  0.08289646  1
  Na  Na10  1  0.03523342  0.33576993  0.08369774  1
  Na  Na11  1  0.97005701  0.66754066  0.91688937  1
  Na  Na12  1  0.33125916  0.29799464  0.91719161  1
  Na  Na13  1  0.33253033  0.02989906  0.41667036  1
  Na  Na14  1  0.70197821  0.66831643  0.41711167  1
  Na  Na15  1  0.99780893  0.00184271  0.49960134  1
  Na  Na16  1  0.99551015  0.99761665  0.00002098  1
  Na  Na17  1  0.66728871  0.32754562  0.83365824  1
  Na  Na18  1  0.67269029  0.33290598  0.33393956  1
  Na  Na19  1  0.33581114  0.66489141  0.16624464  1
  Na  Na20  1  0.33337841  0.66696278  0.66669174  1
  Si  Si0  1  0.29134390  0.00055675  0.25021450  1
  Si  Si1  1  0.70871059  0.70929777  0.25022518  1
  Si  Si2  1  0.99981881  0.29010624  0.24957051  1
  Si  Si3  1  0.29216319  0.29200063  0.75013594  1
  Si  Si4  1  0.99942015  0.70912656  0.75033961  1
  Si  Si5  1  0.70872811  0.99983097  0.75030232  1
  Si  Si6  1  0.95935049  0.33295429  0.58365989  1
  Si  Si7  1  0.37601724  0.04346052  0.58291218  1
  Si  Si8  1  0.66609767  0.62396406  0.58283365  1
  Si  Si9  1  0.95498373  0.62610886  0.08268969  1
  Si  Si10  1  0.37764575  0.33742980  0.08305985  1
  Si  Si11  1  0.03825684  0.37140043  0.91674052  1
  Si  Si12  1  0.33703600  0.95962566  0.91711247  1
  Si  Si13  1  0.62794065  0.96146861  0.41662496  1
  Si  Si14  1  0.03978661  0.66372049  0.41654743  1
  Sn  Sn0  1  0.99641822  0.00000897  0.35158831  1
  Sn  Sn1  1  0.99962454  0.00298695  0.85180554  1
  Sn  Sn2  1  0.99965948  -0.00007303  0.64860529  1
  Sn  Sn3  1  0.99920843  0.99635537  0.14838687  1
  Sn  Sn4  1  0.66713424  0.33348970  0.68478665  1
  Sn  Sn5  1  0.66757370  0.33749568  0.18486766  1
  Sn  Sn6  1  0.66666749  0.32905559  0.98177794  1
  Sn  Sn7  1  0.67447486  0.33230631  0.48172991  1
  Sn  Sn8  1  0.33150452  0.66312336  0.01824554  1
  Sn  Sn9  1  0.33376519  0.66950640  0.51808853  1
  Sn  Sn10  1  0.33150665  0.66838833  0.31510981  1
  Sn  Sn11  1  0.33151121  0.66864998  0.81526400  1
  P  P0  1  0.66688678  0.04016984  0.08350377  1
  P  P1  1  0.62468123  0.66951896  0.91677888  1
  P  P2  1  0.33087096  0.37428237  0.41675428  1
  O  O0  1  0.21289078  0.04209870  0.30854423  1
  O  O1  1  0.82702568  0.78565843  0.30847915  1
  O  O2  1  0.95963745  0.16865132  0.30645114  1
  O  O3  1  0.21357266  0.17253450  0.80807524  1
  O  O4  1  0.95895336  0.78845029  0.80861789  1
  O  O5  1  0.83162699  0.04028237  0.80655203  1
  O  O6  1  0.78557763  0.95860291  0.69136328  1
  O  O7  1  0.17295654  0.21416173  0.69197731  1
  O  O8  1  0.04022594  0.82806711  0.69197161  1
  O  O9  1  0.78881518  0.83281749  0.19359871  1
  O  O10  1  0.03916492  0.21172858  0.19069938  1
  O  O11  1  0.17298196  0.95991534  0.19217034  1
  O  O12  1  0.88203028  0.37553460  0.64207153  1
  O  O13  1  0.49448825  0.12108650  0.64126496  1
  O  O14  1  0.62595817  0.50579525  0.64138178  1
  O  O15  1  0.87997216  0.50378655  0.14089824  1
  O  O16  1  0.62922898  0.11636289  0.13904191  1
  O  O17  1  0.48950822  0.36562270  0.14209216  1
  O  O18  1  0.45567940  0.29267359  0.02512982  1
  O  O19  1  0.84099927  0.54074520  0.02416809  1
  O  O20  1  0.70375298  0.15648290  0.02980105  1
  O  O21  1  0.45540326  0.16360328  0.52476257  1
  O  O22  1  0.70452232  0.54320843  0.52464071  1
  O  O23  1  0.83642142  0.29042454  0.52750514  1
  O  O24  1  0.54392417  0.70008331  0.97110977  1
  O  O25  1  0.16096848  0.45307157  0.97415865  1
  O  O26  1  0.29643692  0.83867900  0.97524634  1
  O  O27  1  0.54610111  0.83811852  0.47439471  1
  O  O28  1  0.30113934  0.45340362  0.47234755  1
  O  O29  1  0.16071957  0.70599651  0.47459014  1
  O  O30  1  0.12213384  0.63085929  0.35784302  1
  O  O31  1  0.50663316  0.87774824  0.35878322  1
  O  O32  1  0.36915203  0.48837807  0.36158831  1
  O  O33  1  0.12127022  0.49315453  0.85875280  1
  O  O34  1  0.36928183  0.87816258  0.85805193  1
  O  O35  1  0.51197745  0.63044264  0.86113801  1
  O  O36  1  0.02672515  0.83967440  0.41095102  1
  O  O37  1  0.81271272  0.97096486  0.41119995  1
  O  O38  1  0.17462765  0.19359024  0.41088779  1
  O  O39  1  0.02862154  0.18676466  0.91108474  1
  O  O40  1  0.16140356  0.97342109  0.91120385  1
  O  O41  1  0.80622623  0.82509008  0.91083170  1
  O  O42  1  0.97779297  0.16252812  0.58935962  1
  O  O43  1  0.18638605  0.02396957  0.58892914  1
  O  O44  1  0.83679772  0.81307780  0.58882713  1
  O  O45  1  0.98265796  0.81820426  0.08866166  1
  O  O46  1  0.83120044  0.02970768  0.08945168  1
  O  O47  1  0.18563704  0.16480693  0.08884829  1
  O  O48  1  0.68953401  0.17007327  0.74421700  1
  O  O49  1  0.48127077  0.31052407  0.74420515  1
  O  O50  1  0.82889242  0.51987225  0.74448518  1
  O  O51  1  0.68975328  0.51967897  0.24464285  1
  O  O52  1  0.82842319  0.30843126  0.24325011  1
  O  O53  1  0.48207012  0.16986806  0.24344489  1
  O  O54  1  0.64084400  0.50600133  0.92229790  1
  O  O55  1  0.85419793  0.36445117  0.92306091  1
  O  O56  1  0.50059324  0.15347516  0.92285875  1
  O  O57  1  0.63259367  0.14417702  0.42225121  1
  O  O58  1  0.49424646  0.35876676  0.42230782  1
  O  O59  1  0.84596041  0.50073388  0.42194083  1
  O  O60  1  0.35209720  0.50367076  0.07710473  1
  O  O61  1  0.14753841  0.64539439  0.07770291  1
  O  O62  1  0.50253303  0.86463389  0.07660456  1
  O  O63  1  0.35723638  0.85373192  0.57775104  1
  O  O64  1  0.49433058  0.64139895  0.57683376  1
  O  O65  1  0.14913652  0.50348293  0.57673345  1
  O  O66  1  0.31062269  0.83014749  0.25542262  1
  O  O67  1  0.51763642  0.68748290  0.25702938  1
  O  O68  1  0.17151428  0.47944050  0.25610279  1
  O  O69  1  0.31230732  0.48214790  0.75691671  1
  O  O70  1  0.17018459  0.69011229  0.75538209  1
  O  O71  1  0.51965951  0.82749251  0.75630466  1
loop_
_geom_bond_atom_site_label_1
_geom_bond_atom_site_label_2
_geom_bond_distance
_geom_bond_site_symmetry_2
Na0 O52 2.456473 1_565
Na0 O67 2.483165 1_555
Na0 O53 2.545038 1_565
Na0 O66 2.549738 1_555
Na0 O31 2.710662 1_555
Na0 O16 2.771734 1_565
Na0 O9 2.833820 1_555
Na0 O2 2.853736 1_565
Na1 O68 2.452908 1_555
Na1 O53 2.479947 1_555
Na1 O67 2.538423 1_555
Na1 O51 2.547177 1_555
Na1 O17 2.679182 1_555
Na1 O32 2.792334 1_555
Na1 O0 2.881798 1_555
Na1 O10 2.894589 1_555
Na2 O51 2.467887 1_555
Na2 O66 2.470540 1_655
Na2 O52 2.564449 1_555
Na2 O68 2.567282 1_655
Na2 O30 2.703524 1_655
Na2 O15 2.743892 1_555
Na2 O1 2.872240 1_555
Na2 O11 2.883643 1_655
Na3 O50 2.451837 1_555
Na3 O71 2.453677 1_555
Na3 O69 2.539237 1_555
Na3 O49 2.547348 1_555
Na3 O14 2.705244 1_555
Na3 O35 2.772798 1_555
Na3 O6 2.872149 1_555
Na3 O4 2.888728 1_555
Na4 O48 2.465159 1_555
Na4 O69 2.489236 1_655
Na4 O70 2.553564 1_655
Na4 O50 2.556236 1_555
Na4 O12 2.708757 1_555
Na4 O33 2.726578 1_655
Na4 O5 2.861697 1_555
Na4 O7 2.874505 1_655
Na5 O49 2.467465 1_555
Na5 O70 2.468931 1_545
Na5 O48 2.541780 1_555
Na5 O71 2.568862 1_545
Na5 O34 2.705143 1_545
Na5 O13 2.727853 1_555
Na5 O3 2.870063 1_555
Na5 O8 2.891873 1_545
Na6 O43 2.455162 1_555
Na6 O64 2.457071 1_555
Na6 O42 2.538515 1_455
Na6 O65 2.539695 1_555
Na6 O7 2.704166 1_555
Na6 O28 2.771427 1_555
Na6 O21 2.875901 1_555
Na6 O14 2.878261 1_555
Na7 O44 2.460867 1_455
Na7 O65 2.486914 1_555
Na7 O63 2.553008 1_555
Na7 O43 2.553140 1_565
Na7 O29 2.722061 1_555
Na7 O8 2.723321 1_555
Na7 O12 2.879020 1_455
Na7 O22 2.908905 1_455
Na8 O42 2.467612 1_565
Na8 O63 2.467809 1_555
Na8 O44 2.551580 1_555
Na8 O64 2.571285 1_555
Na8 O6 2.711536 1_555
Na8 O27 2.735077 1_555
Na8 O23 2.835273 1_565
Na8 O13 2.880405 1_565
Na9 O47 2.463346 1_565
Na9 O62 2.466612 1_555
Na9 O45 2.475172 1_455
Na9 O61 2.534569 1_555
Na9 O26 2.715126 1_554
Na9 O11 2.718016 1_555
Na9 O18 2.875571 1_565
Na9 O16 2.912811 1_565
Na10 O46 2.451881 1_455
Na10 O61 2.467127 1_555
Na10 O60 2.493594 1_555
Na10 O47 2.529787 1_555
Na10 O10 2.697646 1_555
Na10 O25 2.728746 1_554
Na10 O15 2.851585 1_455
Na10 O20 2.885890 1_455
Na11 O55 2.407597 1_555
Na11 O40 2.431523 1_655
Na11 O41 2.529398 1_555
Na11 O54 2.587731 1_555
Na11 O19 2.705370 1_556
Na11 O4 2.727080 1_555
Na11 O33 2.878936 1_655
Na11 O26 2.893794 1_655
Na12 O39 2.408790 1_555
Na12 O56 2.472197 1_555
Na12 O54 2.481719 1_555
Na12 O40 2.554762 1_545
Na12 O18 2.723641 1_556
Na12 O3 2.725376 1_555
Na12 O25 2.863809 1_555
Na12 O35 2.910403 1_555
Na13 O57 2.382444 1_555
Na13 O36 2.429147 1_545
Na13 O38 2.530719 1_555
Na13 O58 2.587268 1_555
Na13 O0 2.723718 1_555
Na13 O21 2.730147 1_555
Na13 O29 2.868131 1_545
Na13 O31 2.880341 1_545
Na14 O37 2.410256 1_555
Na14 O59 2.453120 1_555
Na14 O58 2.481488 1_555
Na14 O36 2.554685 1_655
Na14 O1 2.708551 1_555
Na14 O22 2.709839 1_555
Na14 O27 2.869340 1_555
Na14 O32 2.911521 1_555
Na15 O37 2.553621 1_545
Na15 O42 2.569014 1_555
Na15 O36 2.586899 1_645
Na15 O44 2.586955 1_545
Na15 O43 2.608448 1_655
Na15 O38 2.624133 1_655
Na16 O45 2.563832 1_555
Na16 O39 2.577609 1_664
Na16 O40 2.591551 1_654
Na16 O47 2.604398 1_665
Na16 O41 2.620564 1_554
Na16 O46 2.621019 1_565
Na17 O56 2.552539 1_555
Na17 O48 2.552915 1_555
Na17 O55 2.570126 1_555
Na17 O50 2.599711 1_555
Na17 O49 2.608292 1_555
Na17 O54 2.671754 1_555
Na18 O59 2.537817 1_555
Na18 O57 2.550846 1_555
Na18 O52 2.570569 1_555
Na18 O51 2.606458 1_555
Na18 O53 2.626815 1_555
Na18 O58 2.661650 1_555
Na19 O60 2.549002 1_555
Na19 O68 2.594206 1_555
Na19 O67 2.596381 1_555
Na19 O61 2.598845 1_555
Na19 O66 2.600859 1_555
Na19 O62 2.645055 1_555
Na20 O70 2.570688 1_555
Na20 O63 2.584119 1_555
Na20 O64 2.587348 1_555
Na20 O71 2.590781 1_555
Na20 O65 2.596667 1_555
Na20 O69 2.602696 1_555
O0 Si0 1.635838 1_555
O0 Sn0 2.048707 1_455
O1 Si1 1.631805 1_555
O1 Sn0 2.031463 1_565
O2 Si2 1.621827 1_555
O2 Sn0 2.008270 1_555
O3 Si3 1.629034 1_555
O3 Sn1 2.031791 1_455
O4 Si4 1.635757 1_555
O4 Sn1 2.042861 1_565
O5 Si5 1.620284 1_545
O5 Sn1 2.008251 1_555
O6 Si5 1.638028 1_555
O6 Sn2 2.028934 1_565
O7 Si3 1.634961 1_555
O7 Sn2 2.043954 1_455
O8 Si4 1.635833 1_455
O8 Sn2 2.032055 1_465
O9 Si1 1.623215 1_555
O9 Sn3 2.015256 1_555
O10 Si2 1.637652 1_455
O10 Sn3 2.041836 1_445
O11 Si0 1.629842 1_565
O11 Sn3 2.031639 1_455
O12 Si6 1.635976 1_555
O12 Sn4 2.032927 1_555
O13 Si7 1.635394 1_555
O13 Sn4 2.034503 1_555
O14 Si8 1.636008 1_555
O14 Sn4 2.039100 1_555
O15 Si9 1.643095 1_555
O15 Sn5 2.018222 1_555
O16 P0 1.558234 1_555
O16 Sn5 2.129904 1_555
O17 Si10 1.630773 1_555
O17 Sn5 2.013172 1_555
O18 Si10 1.639636 1_555
O18 Sn6 2.024754 1_554
O19 Si9 1.630351 1_555
O19 Sn6 2.023009 1_554
O20 P0 1.540973 1_555
O20 Sn6 2.074206 1_554
O21 Si7 1.636407 1_555
O21 Sn7 2.049164 1_555
O22 Si8 1.633254 1_555
O22 Sn7 2.041491 1_555
O23 Si6 1.616580 1_555
O23 Sn7 1.991452 1_555
O24 P1 1.530510 1_555
O24 Sn8 2.077304 1_556
O25 Si11 1.639371 1_555
O25 Sn8 2.023247 1_556
O26 Si12 1.641777 1_555
O26 Sn8 2.028972 1_556
O27 Si13 1.644924 1_555
O27 Sn9 2.020623 1_555
O28 P2 1.543682 1_555
O28 Sn9 2.106018 1_555
O29 Si14 1.641154 1_555
O29 Sn9 2.022997 1_555
O30 Si14 1.628339 1_555
O30 Sn10 2.002132 1_555
O31 Si13 1.643611 1_555
O31 Sn10 2.027856 1_555
O32 P2 1.554795 1_555
O32 Sn10 2.115832 1_555
O33 Si11 1.643586 1_555
O33 Sn11 2.026389 1_555
O34 Si12 1.629518 1_555
O34 Sn11 2.007016 1_555
O35 P1 1.558488 1_555
O35 Sn11 2.116290 1_555
O36 Si14 1.664194 1_555
O36 Sn0 2.106449 1_465
O37 Si13 1.638351 1_555
O37 Sn0 2.057889 1_565
O38 P2 1.546104 1_555
O38 Sn0 2.167381 1_455
O39 Si11 1.638245 1_555
O39 Sn1 2.057603 1_455
O40 Si12 1.665014 1_555
O40 Sn1 2.115170 1_465
O41 P1 1.547648 1_555
O41 Sn1 2.156126 1_565
O42 Si6 1.641966 1_555
O42 Sn2 2.084645 1_555
O43 Si7 1.643517 1_555
O43 Sn2 2.092398 1_455
O44 Si8 1.644111 1_555
O44 Sn2 2.102221 1_565
O45 Si9 1.637507 1_555
O45 Sn3 2.059572 1_555
O46 P0 1.546393 1_555
O46 Sn3 2.168470 1_545
O47 Si10 1.665209 1_555
O47 Sn3 2.107293 1_445
O48 Si5 1.644967 1_545
O48 Sn4 2.095173 1_555
O49 Si3 1.642318 1_555
O49 Sn4 2.085633 1_555
O50 Si4 1.643920 1_555
O50 Sn4 2.096105 1_555
O51 Si1 1.646056 1_555
O51 Sn5 2.071961 1_555
O52 Si2 1.650809 1_555
O52 Sn5 2.091706 1_555
O53 Si0 1.647948 1_555
O53 Sn5 2.087150 1_555
O54 P1 1.567575 1_555
O54 Sn6 2.204868 1_555
O55 Si11 1.644207 1_655
O55 Sn6 2.055061 1_555
O56 Si12 1.643732 1_545
O56 Sn6 2.054840 1_555
O57 Si13 1.641937 1_545
O57 Sn7 2.060514 1_555
O58 P2 1.562543 1_555
O58 Sn7 2.231776 1_555
O59 Si14 1.640118 1_655
O59 Sn7 2.055468 1_555
O60 Si10 1.642651 1_555
O60 Sn8 2.052146 1_555
O61 Si9 1.668946 1_455
O61 Sn8 2.088027 1_555
O62 P0 1.552200 1_565
O62 Sn8 2.166352 1_555
O63 Si7 1.647016 1_565
O63 Sn9 2.080677 1_555
O64 Si8 1.648890 1_555
O64 Sn9 2.090942 1_555
O65 Si6 1.647895 1_455
O65 Sn9 2.079924 1_555
O66 Si0 1.645299 1_565
O66 Sn10 2.081454 1_555
O67 Si1 1.649342 1_555
O67 Sn10 2.078907 1_555
O68 Si2 1.650153 1_455
O68 Sn10 2.091976 1_555
O69 Si3 1.648639 1_555
O69 Sn11 2.088934 1_555
O70 Si4 1.646288 1_455
O70 Sn11 2.085394 1_555
O71 Si5 1.649304 1_555
O71 Sn11 2.079292 1_555
