# generated using pymatgen
data_NaCaY3(SO4)6
_symmetry_space_group_name_H-M   'P 1'
_cell_length_a   9.23468779
_cell_length_b   9.23468746
_cell_length_c   24.16144202
_cell_angle_alpha   90.00000000
_cell_angle_beta   90.00000000
_cell_angle_gamma   120.00000121
_symmetry_Int_Tables_number   1
_chemical_formula_structural   NaCaY3(SO4)6
_chemical_formula_sum   'Na3 Ca3 Y9 S18 O72'
_cell_volume   1784.42334355
_cell_formula_units_Z   3
loop_
 _symmetry_equiv_pos_site_id
 _symmetry_equiv_pos_as_xyz
  1  'x, y, z'
loop_
 _atom_site_type_symbol
 _atom_site_label
 _atom_site_symmetry_multiplicity
 _atom_site_fract_x
 _atom_site_fract_y
 _atom_site_fract_z
 _atom_site_occupancy
  Na  Na0  1  -0.00000000  0.00000000  0.99663188  1
  Na  Na1  1  0.66666700  0.33333300  0.83678050  1
  Na  Na2  1  0.66666700  0.33333300  0.33332063  1
  Ca  Ca0  1  -0.00000000  0.00000000  0.35506589  1
  Ca  Ca1  1  -0.00000000  0.00000000  0.85178088  1
  Ca  Ca2  1  0.66666700  0.33333300  0.98132502  1
  Y  Y0  1  -0.00000000  0.00000000  0.64672660  1
  Y  Y1  1  -0.00000000  0.00000000  0.14988941  1
  Y  Y2  1  0.66666700  0.33333300  0.68500735  1
  Y  Y3  1  0.66666700  0.33333300  0.18339558  1
  Y  Y4  1  0.66666700  0.33333300  0.48121494  1
  Y  Y5  1  0.33333300  0.66666700  0.02067353  1
  Y  Y6  1  0.33333300  0.66666700  0.52044900  1
  Y  Y7  1  0.33333300  0.66666700  0.31214013  1
  Y  Y8  1  0.33333300  0.66666700  0.81237579  1
  S  S0  1  0.29494498  0.00267038  0.25091891  1
  S  S1  1  0.70772540  0.70505502  0.25091891  1
  S  S2  1  0.99732962  0.29227460  0.25091891  1
  S  S3  1  0.29391141  0.29188191  0.75036957  1
  S  S4  1  0.99797049  0.70608859  0.75036957  1
  S  S5  1  0.70811809  0.00202951  0.75036957  1
  S  S6  1  0.95845000  0.33313405  0.58331182  1
  S  S7  1  0.37468505  0.04155000  0.58331182  1
  S  S8  1  0.66686595  0.62531495  0.58331182  1
  S  S9  1  0.95956464  0.62876201  0.08263389  1
  S  S10  1  0.66919837  0.04043536  0.08263389  1
  S  S11  1  0.37123799  0.33080163  0.08263389  1
  S  S12  1  0.62600313  0.66676709  0.91664743  1
  S  S13  1  0.04076297  0.37399687  0.91664743  1
  S  S14  1  0.33323291  0.95923703  0.91664743  1
  S  S15  1  0.62327059  0.95880161  0.41642525  1
  S  S16  1  0.33553003  0.37672941  0.41642525  1
  S  S17  1  0.04119839  0.66446997  0.41642525  1
  O  O0  1  0.21904517  0.03065573  0.30008484  1
  O  O1  1  0.81161057  0.78095483  0.30008484  1
  O  O2  1  0.96934427  0.18838943  0.30008484  1
  O  O3  1  0.21957992  0.18896123  0.79975621  1
  O  O4  1  0.96938132  0.78042008  0.79975621  1
  O  O5  1  0.81103877  0.03061868  0.79975621  1
  O  O6  1  0.78765634  0.97933980  0.70004560  1
  O  O7  1  0.19168346  0.21234366  0.70004560  1
  O  O8  1  0.02066020  0.80831654  0.70004560  1
  O  O9  1  0.78627751  0.80690927  0.20038830  1
  O  O10  1  0.02063176  0.21372249  0.20038830  1
  O  O11  1  0.19309073  0.97936824  0.20038830  1
  O  O12  1  0.87947401  0.36033903  0.63280062  1
  O  O13  1  0.48086603  0.12052599  0.63280062  1
  O  O14  1  0.63966097  0.51913397  0.63280062  1
  O  O15  1  0.88038725  0.52613907  0.13302444  1
  O  O16  1  0.64575282  0.11961275  0.13302444  1
  O  O17  1  0.47386093  0.35424718  0.13302444  1
  O  O18  1  0.44673802  0.30254821  0.03347628  1
  O  O19  1  0.85581120  0.55326198  0.03347628  1
  O  O20  1  0.69745179  0.14418880  0.03347628  1
  O  O21  1  0.45393538  0.14789416  0.53382613  1
  O  O22  1  0.69395977  0.54606462  0.53382613  1
  O  O23  1  0.85210584  0.30604023  0.53382613  1
  O  O24  1  0.54212065  0.68525625  0.96680411  1
  O  O25  1  0.14313461  0.45787935  0.96680411  1
  O  O26  1  0.31474375  0.85686539  0.96680411  1
  O  O27  1  0.54051904  0.85759977  0.46650251  1
  O  O28  1  0.31707972  0.45948096  0.46650251  1
  O  O29  1  0.14240023  0.68292028  0.46650251  1
  O  O30  1  0.12019997  0.63710004  0.36675200  1
  O  O31  1  0.51689907  0.87980003  0.36675200  1
  O  O32  1  0.36289996  0.48310093  0.36675200  1
  O  O33  1  0.12471842  0.47646755  0.86652162  1
  O  O34  1  0.35174812  0.87528158  0.86652162  1
  O  O35  1  0.52353245  0.64825188  0.86652162  1
  O  O36  1  0.02331843  0.81173679  0.41009273  1
  O  O37  1  0.78841836  0.97668157  0.41009273  1
  O  O38  1  0.18826321  0.21158164  0.41009273  1
  O  O39  1  0.02553937  0.20692817  0.91275851  1
  O  O40  1  0.18138880  0.97446063  0.91275851  1
  O  O41  1  0.79307183  0.81861120  0.91275851  1
  O  O42  1  0.97542239  0.18380768  0.59167981  1
  O  O43  1  0.20838529  0.02457761  0.59167981  1
  O  O44  1  0.81619232  0.79161471  0.59167981  1
  O  O45  1  0.97972817  0.79919910  0.09043665  1
  O  O46  1  0.81947093  0.02027183  0.09043665  1
  O  O47  1  0.20080090  0.18052907  0.09043665  1
  O  O48  1  0.68739688  0.15233617  0.74284930  1
  O  O49  1  0.46494029  0.31260312  0.74284930  1
  O  O50  1  0.84766383  0.53505971  0.74284930  1
  O  O51  1  0.68706763  0.53413535  0.24321089  1
  O  O52  1  0.84706872  0.31293237  0.24321089  1
  O  O53  1  0.46586465  0.15293128  0.24321089  1
  O  O54  1  0.64109667  0.51482566  0.92057123  1
  O  O55  1  0.87372999  0.35890333  0.92057123  1
  O  O56  1  0.48517434  0.12627001  0.92057123  1
  O  O57  1  0.63891848  0.12869896  0.42242367  1
  O  O58  1  0.48978147  0.36108152  0.42242367  1
  O  O59  1  0.87130104  0.51021853  0.42242367  1
  O  O60  1  0.35389357  0.48067233  0.07600478  1
  O  O61  1  0.12677777  0.64610643  0.07600478  1
  O  O62  1  0.51932767  0.87322223  0.07600478  1
  O  O63  1  0.35758954  0.87539760  0.57509580  1
  O  O64  1  0.51780706  0.64241046  0.57509580  1
  O  O65  1  0.12460240  0.48219294  0.57509580  1
  O  O66  1  0.31243858  0.85278705  0.25750095  1
  O  O67  1  0.54034747  0.68756142  0.25750095  1
  O  O68  1  0.14721295  0.45965253  0.25750095  1
  O  O69  1  0.31197664  0.45953494  0.75704910  1
  O  O70  1  0.14755730  0.68802336  0.75704910  1
  O  O71  1  0.54046506  0.85244270  0.75704910  1
loop_
_geom_bond_atom_site_label_1
_geom_bond_atom_site_label_2
_geom_bond_distance
_geom_bond_site_symmetry_2
Na0 O39 2.713531 1_555
Na0 O41 2.713531 1_445
Na0 O40 2.713531 1_545
Na0 O45 2.874595 1_446
Na0 O47 2.874595 1_556
Na0 O46 2.874595 1_456
Na1 O56 2.712788 1_555
Na1 O54 2.712788 1_555
Na1 O55 2.712788 1_555
Na1 O50 2.881155 1_555
Na1 O48 2.881155 1_555
Na1 O49 2.881155 1_555
Na2 O57 2.790574 1_555
Na2 O59 2.790574 1_555
Na2 O58 2.790574 1_555
Na2 O51 2.804437 1_555
Na2 O53 2.804437 1_555
Na2 O52 2.804437 1_555
Ca0 O38 2.282752 1_555
Ca0 O36 2.282752 1_545
Ca0 O37 2.282752 1_445
Ca0 O2 2.316025 1_455
Ca0 O1 2.316025 1_445
Ca0 O0 2.316025 1_555
Ca1 O3 2.280000 1_555
Ca1 O5 2.280000 1_455
Ca1 O4 2.280000 1_445
Ca1 O39 2.329630 1_555
Ca1 O41 2.329630 1_445
Ca1 O40 2.329630 1_545
Ca2 O19 2.283862 1_556
Ca2 O18 2.283862 1_556
Ca2 O20 2.283862 1_556
Ca2 O56 2.327085 1_555
Ca2 O54 2.327085 1_555
Ca2 O55 2.327085 1_555
O0 S0 1.466410 1_555
O1 S1 1.466410 1_555
O2 S2 1.466410 1_555
O3 S3 1.464910 1_555
O4 S4 1.464910 1_555
O5 S5 1.464911 1_555
O6 S5 1.488531 1_565
O6 Y0 2.273133 1_665
O7 S3 1.488531 1_555
O7 Y0 2.273133 1_555
O8 S4 1.488531 1_455
O8 Y0 2.273133 1_565
O9 S1 1.489696 1_555
O9 Y1 2.245953 1_665
O10 S2 1.489696 1_455
O10 Y1 2.245953 1_555
O11 S0 1.489696 1_565
O11 Y1 2.245953 1_565
O12 S6 1.485933 1_555
O12 Y2 2.241702 1_555
O13 S7 1.485933 1_555
O13 Y2 2.241702 1_555
O14 S8 1.485933 1_555
O14 Y2 2.241702 1_555
O15 S9 1.490683 1_555
O15 Y3 2.243337 1_555
O16 S10 1.490683 1_555
O16 Y3 2.243337 1_555
O17 S11 1.490683 1_555
O17 Y3 2.243337 1_555
O18 S11 1.465189 1_555
O19 S9 1.465189 1_555
O20 S10 1.465189 1_555
O21 S7 1.486906 1_555
O21 Y4 2.245783 1_555
O22 S8 1.486906 1_555
O22 Y4 2.245783 1_555
O23 S6 1.486906 1_555
O23 Y4 2.245783 1_555
O24 S12 1.493339 1_555
O24 Y5 2.260547 1_556
O25 S13 1.493339 1_555
O25 Y5 2.260547 1_556
O26 S14 1.493339 1_555
O26 Y5 2.260547 1_556
O27 S15 1.485653 1_555
O27 Y6 2.257206 1_555
O28 S16 1.485653 1_555
O28 Y6 2.257206 1_555
O29 S17 1.485653 1_555
O29 Y6 2.257207 1_555
O30 S17 1.490288 1_555
O30 Y7 2.269826 1_555
O31 S15 1.490288 1_555
O31 Y7 2.269826 1_555
O32 S16 1.490288 1_555
O32 Y7 2.269826 1_555
O33 S13 1.493213 1_555
O33 Y8 2.263662 1_555
O34 S14 1.493212 1_555
O34 Y8 2.263662 1_555
O35 S12 1.493213 1_555
O35 Y8 2.263662 1_555
O36 S17 1.457643 1_555
O37 S15 1.457652 1_555
O38 S16 1.457649 1_555
O39 S13 1.480544 1_555
O40 S14 1.480535 1_555
O41 S12 1.480540 1_555
O42 S6 1.477556 1_555
O42 Y0 2.255412 1_655
O43 S7 1.477565 1_555
O43 Y0 2.255412 1_555
O44 S8 1.477561 1_555
O44 Y0 2.255412 1_665
O45 S9 1.501468 1_555
O45 Y1 2.278133 1_665
O46 S10 1.501459 1_555
O46 Y1 2.278133 1_655
O47 S11 1.501465 1_555
O47 Y1 2.278133 1_555
O48 S5 1.503954 1_555
O48 Y2 2.259091 1_555
O49 S3 1.503964 1_555
O49 Y2 2.259091 1_555
O50 S4 1.503960 1_555
O50 Y2 2.259091 1_555
O51 S1 1.503757 1_555
O51 Y3 2.283292 1_555
O52 S2 1.503748 1_555
O52 Y3 2.283292 1_555
O53 S0 1.503753 1_555
O53 Y3 2.283292 1_555
O54 S12 1.480800 1_555
O55 S13 1.480782 1_655
O56 S14 1.480790 1_545
O57 S15 1.508896 1_545
O57 Y4 2.273824 1_555
O58 S16 1.508915 1_555
O58 Y4 2.273824 1_555
O59 S17 1.508904 1_655
O59 Y4 2.273824 1_555
O60 S11 1.479347 1_555
O60 Y5 2.258227 1_555
O61 S9 1.479329 1_455
O61 Y5 2.258227 1_555
O62 S10 1.479336 1_565
O62 Y5 2.258227 1_555
O63 S7 1.475254 1_565
O63 Y6 2.253266 1_555
O64 S8 1.475272 1_555
O64 Y6 2.253266 1_555
O65 S6 1.475262 1_455
O65 Y6 2.253266 1_555
O66 S0 1.480134 1_565
O66 Y7 2.250741 1_555
O67 S1 1.480143 1_555
O67 Y7 2.250741 1_555
O68 S2 1.480139 1_455
O68 Y7 2.250741 1_555
O69 S3 1.480739 1_555
O69 Y8 2.259960 1_555
O70 S4 1.480730 1_455
O70 Y8 2.259960 1_555
O71 S5 1.480735 1_565
O71 Y8 2.259960 1_555
