# generated using pymatgen
data_Sr3MgFe2Cu2Se2O5
_symmetry_space_group_name_H-M   'P 1'
_cell_length_a   3.91844698
_cell_length_b   5.09481071
_cell_length_c   12.92476372
_cell_angle_alpha   101.36712984
_cell_angle_beta   98.71889397
_cell_angle_gamma   90.00000007
_symmetry_Int_Tables_number   1
_chemical_formula_structural   Sr3MgFe2Cu2Se2O5
_chemical_formula_sum   'Sr3 Mg1 Fe2 Cu2 Se2 O5'
_cell_volume   249.92320199
_cell_formula_units_Z   1
loop_
 _symmetry_equiv_pos_site_id
 _symmetry_equiv_pos_as_xyz
  1  'x, y, z'
loop_
 _atom_site_type_symbol
 _atom_site_label
 _atom_site_symmetry_multiplicity
 _atom_site_fract_x
 _atom_site_fract_y
 _atom_site_fract_z
 _atom_site_occupancy
  Sr  Sr0  1  0.36323988  0.36323988  0.72647977  1
  Sr  Sr1  1  0.50000000  0.50000000  -0.00000000  1
  Sr  Sr2  1  0.63676012  0.63676012  0.27352023  1
  Mg  Mg0  1  0.50000000  -0.00000000  -0.00000000  1
  Fe  Fe0  1  0.91435399  0.91435399  0.82870799  1
  Fe  Fe1  1  0.08564601  0.08564601  0.17129201  1
  Cu  Cu0  1  0.74730535  0.24730535  0.49461070  1
  Cu  Cu1  1  0.25269465  0.75269465  0.50538930  1
  Se  Se0  1  0.80489874  0.80489874  0.60979947  1
  Se  Se1  1  0.19510126  0.19510126  0.39020053  1
  O  O0  1  0.57922613  0.07922613  0.15845126  1
  O  O1  1  0.00000000  -0.00000000  -0.00000000  1
  O  O2  1  0.92439579  0.42439579  0.84879258  1
  O  O3  1  0.07560421  0.57560421  0.15120742  1
  O  O4  1  0.42077387  0.92077387  0.84154874  1
loop_
_geom_bond_atom_site_label_1
_geom_bond_atom_site_label_2
_geom_bond_distance
_geom_bond_site_symmetry_2
Mg0 O1 1.959223 1_555
Mg0 O1 1.959223 1_655
Mg0 O4 1.983628 1_544
Mg0 O0 1.983628 1_555
Mg0 Sr1 2.547405 1_545
Mg0 Sr1 2.547405 1_555
Fe0 O4 1.965805 1_655
Fe0 O4 1.965809 1_555
Fe0 O1 2.144380 1_666
Fe0 O2 2.559781 1_565
Fe0 O2 2.559787 1_555
Fe0 Se0 2.740484 1_555
Fe1 O0 1.965805 1_455
Fe1 O0 1.965809 1_555
Fe1 O1 2.144380 1_555
Fe1 O3 2.559781 1_545
Fe1 O3 2.559787 1_555
Fe1 Se1 2.740484 1_555
Cu0 Se1 2.355216 1_555
Cu0 Se1 2.355222 1_655
Cu0 Se0 2.927235 1_555
Cu0 Se0 2.927243 1_545
Cu1 Se0 2.355216 1_555
Cu1 Se0 2.355222 1_455
Cu1 Se1 2.927235 1_555
Cu1 Se1 2.927243 1_565
Se0 Sr0 3.530077 1_555
Se0 Sr0 3.530081 1_655
Se0 Sr0 3.530084 1_565
Se0 Sr0 3.530089 1_665
Se1 Sr2 3.530077 1_555
Se1 Sr2 3.530081 1_455
Se1 Sr2 3.530084 1_545
Se1 Sr2 3.530089 1_445
O0 Sr2 2.926498 1_555
O0 Sr2 2.926503 1_545
O2 Sr0 2.486598 1_555
O2 Sr0 2.486601 1_655
O2 Sr1 2.724295 1_556
O2 Sr1 2.724298 1_656
O3 Sr2 2.486598 1_555
O3 Sr2 2.486601 1_455
O3 Sr1 2.724295 1_555
O3 Sr1 2.724298 1_455
O4 Sr0 2.926498 1_555
O4 Sr0 2.926503 1_565
