# generated using pymatgen
data_Na4MgSi3Sn3(SO8)3
_symmetry_space_group_name_H-M   'P 1'
_cell_length_a   8.95055198
_cell_length_b   8.94091742
_cell_length_c   22.80229600
_cell_angle_alpha   89.90399083
_cell_angle_beta   90.46348052
_cell_angle_gamma   120.13434807
_symmetry_Int_Tables_number   1
_chemical_formula_structural   Na4MgSi3Sn3(SO8)3
_chemical_formula_sum   'Na12 Mg3 Si9 Sn9 S9 O72'
_cell_volume   1578.10435956
_cell_formula_units_Z   3
loop_
 _symmetry_equiv_pos_site_id
 _symmetry_equiv_pos_as_xyz
  1  'x, y, z'
loop_
 _atom_site_type_symbol
 _atom_site_label
 _atom_site_symmetry_multiplicity
 _atom_site_fract_x
 _atom_site_fract_y
 _atom_site_fract_z
 _atom_site_occupancy
  Na  Na0  1  0.63049167  0.00206785  0.24145754  1
  Na  Na1  1  0.37772036  0.35922797  0.25168413  1
  Na  Na2  1  0.99078979  0.64333894  0.24734556  1
  Na  Na3  1  0.99403222  0.35407643  0.75598479  1
  Na  Na4  1  0.38049696  0.01576121  0.75767863  1
  Na  Na5  1  0.69998752  0.67743952  0.40522949  1
  Na  Na6  1  0.00717139  0.02255522  0.48941217  1
  Na  Na7  1  0.00254411  0.01192362  0.00010877  1
  Na  Na8  1  0.65817223  0.32506907  0.83548277  1
  Na  Na9  1  0.64599000  0.31727282  0.32781260  1
  Na  Na10  1  0.35033911  0.68532181  0.16342394  1
  Na  Na11  1  0.35266241  0.66382126  0.67118599  1
  Mg  Mg0  1  0.00428030  0.00528777  0.35223426  1
  Mg  Mg1  1  0.66131192  0.32935843  0.68919712  1
  Mg  Mg2  1  0.65208537  0.31922798  0.18405378  1
  Si  Si0  1  0.28683516  0.00030331  0.25168427  1
  Si  Si1  1  0.70951678  0.70225856  0.25308801  1
  Si  Si2  1  0.30061169  0.29989749  0.74946069  1
  Si  Si3  1  0.70403852  0.99478160  0.75052585  1
  Si  Si4  1  0.66992647  0.03568530  0.08729364  1
  Si  Si5  1  0.04300409  0.38335949  0.91831692  1
  Si  Si6  1  0.32792471  0.96051696  0.91507159  1
  Si  Si7  1  0.63633106  0.96571642  0.41753705  1
  Si  Si8  1  0.32272324  0.36590651  0.41703522  1
  Sn  Sn0  1  0.01385011  0.02596337  0.85651105  1
  Sn  Sn1  1  0.99266454  0.00648833  0.65282819  1
  Sn  Sn2  1  0.98930384  0.98795952  0.14913015  1
  Sn  Sn3  1  0.66848550  0.31145739  0.98027493  1
  Sn  Sn4  1  0.65499984  0.32398898  0.47864327  1
  Sn  Sn5  1  0.33360552  0.67765653  0.01872027  1
  Sn  Sn6  1  0.33976242  0.66419692  0.51403591  1
  Sn  Sn7  1  0.35101489  0.68021803  0.31453476  1
  Sn  Sn8  1  0.34194088  0.66755618  0.81863843  1
  S  S0  1  0.00047927  0.29253575  0.25125617  1
  S  S1  1  0.99628799  0.70770472  0.74919916  1
  S  S2  1  0.96146443  0.33839183  0.58390746  1
  S  S3  1  0.36609097  0.03271911  0.58502719  1
  S  S4  1  0.67104358  0.62717389  0.58456304  1
  S  S5  1  0.95473868  0.62063626  0.08389803  1
  S  S6  1  0.37469770  0.33427401  0.08336879  1
  S  S7  1  0.63120391  0.66493686  0.91871597  1
  S  S8  1  0.04164452  0.66729303  0.41784397  1
  O  O0  1  0.19852122  0.03773195  0.30549757  1
  O  O1  1  0.81898783  0.78455400  0.31224254  1
  O  O2  1  0.96879678  0.18427520  0.30264503  1
  O  O3  1  0.21244629  0.16294405  0.80326402  1
  O  O4  1  0.96860849  0.78551200  0.80128324  1
  O  O5  1  0.83327113  0.02911242  0.80585508  1
  O  O6  1  0.77277447  0.94594577  0.68984611  1
  O  O7  1  0.17034879  0.22166361  0.69008788  1
  O  O8  1  0.03466317  0.82079149  0.69479287  1
  O  O9  1  0.78280045  0.83392208  0.19602835  1
  O  O10  1  0.04210402  0.22446605  0.19738073  1
  O  O11  1  0.16737815  0.95674899  0.19003222  1
  O  O12  1  0.88130608  0.35692825  0.63682954  1
  O  O13  1  0.47287949  0.11353412  0.63696384  1
  O  O14  1  0.65197697  0.51906362  0.63484707  1
  O  O15  1  0.87446472  0.52382264  0.13754916  1
  O  O16  1  0.64289043  0.11622366  0.14575545  1
  O  O17  1  0.47604221  0.35904874  0.13717074  1
  O  O18  1  0.45785267  0.31336534  0.02950344  1
  O  O19  1  0.84745637  0.54114435  0.02984022  1
  O  O20  1  0.70217453  0.14911282  0.02716574  1
  O  O21  1  0.44286059  0.13868187  0.53110341  1
  O  O22  1  0.69296927  0.55226885  0.52847405  1
  O  O23  1  0.85527931  0.31554741  0.52997592  1
  O  O24  1  0.55190523  0.69709986  0.97008744  1
  O  O25  1  0.17130177  0.46923353  0.97462946  1
  O  O26  1  0.30154555  0.84580457  0.97293469  1
  O  O27  1  0.54625026  0.84640585  0.47692022  1
  O  O28  1  0.29093931  0.44857957  0.47761629  1
  O  O29  1  0.14681742  0.69225525  0.47260223  1
  O  O30  1  0.11518273  0.63189997  0.36523430  1
  O  O31  1  0.51193137  0.89103672  0.35923646  1
  O  O32  1  0.36928802  0.49608861  0.35983812  1
  O  O33  1  0.12316584  0.48561908  0.85523439  1
  O  O34  1  0.36688619  0.88341403  0.85437207  1
  O  O35  1  0.52488333  0.63025349  0.86335876  1
  O  O36  1  0.02186347  0.81830383  0.41349932  1
  O  O37  1  0.81436734  0.96783317  0.41376410  1
  O  O38  1  0.16536223  0.17664993  0.41298781  1
  O  O39  1  0.01561851  0.18839420  0.91650612  1
  O  O40  1  0.14667274  0.96188820  0.91043573  1
  O  O41  1  0.80310721  0.82042825  0.91067229  1
  O  O42  1  0.98015314  0.18023827  0.58510900  1
  O  O43  1  0.18934435  0.01193930  0.58927256  1
  O  O44  1  0.82997392  0.80387361  0.58764806  1
  O  O45  1  0.98041725  0.79993264  0.08498945  1
  O  O46  1  0.84863771  0.01928708  0.08734846  1
  O  O47  1  0.19933480  0.17580193  0.08691325  1
  O  O48  1  0.69732129  0.17156457  0.74267251  1
  O  O49  1  0.48366269  0.31359214  0.74141428  1
  O  O50  1  0.84822526  0.53386455  0.73956544  1
  O  O51  1  0.69020881  0.51361051  0.24230174  1
  O  O52  1  0.85095769  0.31785935  0.24252322  1
  O  O53  1  0.48392110  0.16118814  0.24502738  1
  O  O54  1  0.64608316  0.50842705  0.92595548  1
  O  O55  1  0.85653945  0.37564224  0.92084911  1
  O  O56  1  0.49503797  0.15744814  0.91947779  1
  O  O57  1  0.65335216  0.15717919  0.42342292  1
  O  O58  1  0.51862823  0.38254942  0.42430741  1
  O  O59  1  0.86556184  0.50883730  0.42503360  1
  O  O60  1  0.35492117  0.49082293  0.07771186  1
  O  O61  1  0.12853385  0.63375270  0.07963634  1
  O  O62  1  0.49517125  0.83792579  0.07886219  1
  O  O63  1  0.34754965  0.85673645  0.57833290  1
  O  O64  1  0.51295302  0.64530634  0.58125772  1
  O  O65  1  0.13664576  0.49819393  0.57892611  1
  O  O66  1  0.29224171  0.81302260  0.25540027  1
  O  O67  1  0.50944542  0.67769044  0.25277941  1
  O  O68  1  0.15872870  0.47021091  0.25791419  1
  O  O69  1  0.29928674  0.48232085  0.75611510  1
  O  O70  1  0.15647458  0.69399285  0.75295652  1
  O  O71  1  0.50641268  0.83023213  0.75547718  1
loop_
_geom_bond_atom_site_label_1
_geom_bond_atom_site_label_2
_geom_bond_distance
_geom_bond_site_symmetry_2
Na0 O53 2.372295 1_555
Na0 O16 2.387237 1_555
Na0 O52 2.504346 1_555
Na0 O67 2.549290 1_545
Na0 O66 2.645685 1_545
Na0 O9 2.697687 1_545
Na0 O31 2.881605 1_545
Na0 O2 2.959018 1_555
Na1 O53 2.398958 1_555
Na1 O51 2.430287 1_555
Na1 O67 2.475310 1_555
Na1 O68 2.608572 1_555
Na1 O17 2.762475 1_555
Na1 O32 2.773236 1_555
Na1 O0 2.780598 1_555
Na1 O10 2.884342 1_555
Na2 O51 2.336426 1_555
Na2 O66 2.344852 1_655
Na2 O52 2.527648 1_555
Na2 O68 2.653804 1_655
Na2 O15 2.709922 1_555
Na2 O11 2.762687 1_655
Na2 O1 2.853245 1_555
Na2 O30 2.922523 1_655
Na3 O48 2.333501 1_555
Na3 O69 2.373608 1_655
Na3 O33 2.538222 1_655
Na3 O50 2.554159 1_555
Na3 O70 2.630486 1_655
Na3 O5 2.760995 1_555
Na3 O7 2.840801 1_655
Na3 O12 2.895179 1_555
Na4 O49 2.369494 1_555
Na4 O71 2.429522 1_545
Na4 O34 2.475318 1_545
Na4 O48 2.479292 1_555
Na4 O70 2.552308 1_545
Na4 O3 2.663068 1_555
Na4 O13 2.885752 1_555
Na5 O37 2.270855 1_555
Na5 O58 2.342255 1_555
Na5 O1 2.356467 1_555
Na5 O36 2.504115 1_655
Na5 O59 2.627282 1_555
Na5 O32 2.756597 1_555
Na6 O38 2.238971 1_555
Na6 O37 2.302129 1_445
Na6 O36 2.569824 1_545
Na6 O42 2.677474 1_455
Na6 O43 2.819085 1_555
Na6 O44 2.878391 1_445
Na7 O39 2.438323 1_554
Na7 O46 2.448465 1_455
Na7 O47 2.555224 1_555
Na7 O40 2.582734 1_544
Na7 O45 2.644770 1_445
Na7 O41 2.676004 1_444
Na8 O56 2.425864 1_555
Na8 O55 2.507358 1_555
Na8 O49 2.614722 1_555
Na8 O48 2.643811 1_555
Na8 O54 2.673624 1_555
Na8 O50 2.832007 1_555
Na9 O53 2.355230 1_555
Na9 O51 2.518635 1_555
Na9 O57 2.624521 1_555
Na9 O58 2.682232 1_555
Na9 O52 2.682525 1_555
Na9 O59 2.876265 1_555
Na10 O62 2.348569 1_555
Na10 O67 2.496855 1_555
Na10 O66 2.567951 1_555
Na10 O61 2.612783 1_555
Na10 O60 2.632470 1_555
Na10 O68 2.831367 1_555
Na11 O71 2.390125 1_555
Na11 O69 2.416197 1_555
Na11 O64 2.564717 1_555
Na11 O70 2.676400 1_555
Na11 O65 2.725211 1_555
Na11 O63 2.743249 1_555
Mg0 O0 1.940372 1_555
Mg0 O38 2.025365 1_555
Mg0 O1 2.042602 1_445
Mg0 O37 2.106059 1_445
Mg0 O2 2.106870 1_455
Mg0 O36 2.241443 1_545
Mg1 O49 1.941873 1_555
Mg1 O48 2.006384 1_555
Mg1 O50 2.089448 1_555
Mg1 O14 2.133851 1_555
Mg1 O13 2.166608 1_555
Mg1 O12 2.216660 1_555
Mg2 O16 1.979384 1_555
Mg2 O53 2.021632 1_555
Mg2 O17 2.070539 1_555
Mg2 O51 2.075084 1_555
Mg2 O15 2.191874 1_555
Mg2 O52 2.220260 1_555
O0 Si0 1.589079 1_555
O1 Si1 1.605909 1_555
O2 S0 1.454782 1_655
O3 Si2 1.633297 1_555
O3 Sn0 1.994464 1_555
O4 S1 1.461640 1_555
O4 Sn0 2.344883 1_665
O5 Si3 1.626376 1_545
O5 Sn0 1.990661 1_655
O6 Si3 1.664068 1_555
O6 Sn1 1.958246 1_565
O7 Si2 1.685323 1_555
O7 Sn1 1.965683 1_455
O8 S1 1.527530 1_455
O8 Sn1 2.104533 1_465
O9 Si1 1.655974 1_555
O9 Sn2 1.981865 1_555
O10 S0 1.501983 1_555
O10 Sn2 2.213888 1_445
O11 Si0 1.682440 1_565
O11 Sn2 1.977316 1_455
O12 S2 1.460314 1_555
O13 S3 1.459213 1_555
O14 S4 1.453253 1_555
O15 S5 1.465726 1_555
O16 Si4 1.592965 1_555
O17 S6 1.469047 1_555
O18 S6 1.500924 1_555
O18 Sn3 2.209349 1_554
O19 S5 1.498381 1_555
O19 Sn3 2.176283 1_554
O20 Si4 1.642993 1_555
O20 Sn3 1.941667 1_554
O21 S3 1.495907 1_555
O21 Sn4 2.157011 1_555
O22 S4 1.503883 1_555
O22 Sn4 2.208496 1_555
O23 S2 1.498114 1_555
O23 Sn4 2.165833 1_555
O24 S7 1.475848 1_555
O24 Sn5 2.184277 1_556
O25 Si5 1.628239 1_555
O25 Sn5 1.964253 1_556
O26 Si6 1.614274 1_555
O26 Sn5 1.963560 1_556
O27 Si7 1.664566 1_555
O27 Sn6 1.945152 1_555
O28 Si8 1.660258 1_555
O28 Sn6 1.936678 1_555
O29 S8 1.505313 1_555
O29 Sn6 2.084649 1_555
O30 S8 1.481771 1_555
O30 Sn7 2.258523 1_555
O31 Si7 1.638725 1_555
O31 Sn7 1.980696 1_555
O32 Si8 1.657139 1_555
O32 Sn7 2.016447 1_555
O33 Si5 1.665361 1_555
O33 Sn8 2.000120 1_555
O34 Si6 1.662807 1_555
O34 Sn8 2.002050 1_555
O35 S7 1.510188 1_555
O35 Sn8 2.086254 1_555
O36 S8 1.450318 1_555
O37 Si7 1.587138 1_555
O38 Si8 1.568769 1_555
O39 Si5 1.634469 1_555
O39 Sn0 1.991002 1_555
O40 Si6 1.631070 1_555
O40 Sn0 1.977699 1_565
O41 S7 1.479780 1_555
O41 Sn0 2.238289 1_665
O42 S2 1.505165 1_555
O42 Sn1 2.230268 1_555
O43 S3 1.501285 1_555
O43 Sn1 2.270787 1_455
O44 S4 1.505559 1_555
O44 Sn1 2.221825 1_565
O45 S5 1.501130 1_555
O45 Sn2 2.200841 1_555
O46 Si4 1.677958 1_555
O46 Sn2 1.993068 1_545
O47 S6 1.498810 1_555
O47 Sn2 2.287452 1_445
O48 Si3 1.621197 1_545
O49 Si2 1.592607 1_555
O50 S1 1.465812 1_555
O51 Si1 1.625823 1_555
O52 S0 1.477074 1_655
O53 Si0 1.630895 1_555
O54 S7 1.479571 1_555
O54 Sn3 2.240317 1_555
O55 Si5 1.636902 1_655
O55 Sn3 2.015697 1_555
O56 Si6 1.643603 1_545
O56 Sn3 2.013271 1_555
O57 Si7 1.646282 1_545
O57 Sn4 1.947809 1_555
O58 Si8 1.690460 1_555
O58 Sn4 1.978415 1_555
O59 S8 1.509777 1_655
O59 Sn4 2.163505 1_555
O60 S6 1.501632 1_555
O60 Sn5 2.223640 1_555
O61 S5 1.504065 1_455
O61 Sn5 2.183700 1_555
O62 Si4 1.682049 1_565
O62 Sn5 1.979679 1_555
O63 S3 1.504922 1_565
O63 Sn6 2.237004 1_555
O64 S4 1.504243 1_555
O64 Sn6 2.237092 1_555
O65 S2 1.505258 1_455
O65 Sn6 2.241493 1_555
O66 Si0 1.701223 1_565
O66 Sn7 2.028583 1_555
O67 Si1 1.691133 1_555
O67 Sn7 2.014662 1_555
O68 S0 1.513598 1_555
O68 Sn7 2.209533 1_555
O69 Si2 1.644296 1_555
O69 Sn8 2.070137 1_555
O70 S1 1.500833 1_455
O70 Sn8 2.325342 1_555
O71 Si3 1.641900 1_555
O71 Sn8 2.057739 1_555
