# generated using pymatgen
data_Na2ZnGaP(SO6)2
_symmetry_space_group_name_H-M   'P 1'
_cell_length_a   8.74653869
_cell_length_b   8.72709179
_cell_length_c   21.98320859
_cell_angle_alpha   90.37064481
_cell_angle_beta   90.00000000
_cell_angle_gamma   120.07374025
_symmetry_Int_Tables_number   1
_chemical_formula_structural   Na2ZnGaP(SO6)2
_chemical_formula_sum   'Na12 Zn6 Ga6 P6 S12 O72'
_cell_volume   1452.08539934
_cell_formula_units_Z   6
loop_
 _symmetry_equiv_pos_site_id
 _symmetry_equiv_pos_as_xyz
  1  'x, y, z'
loop_
 _atom_site_type_symbol
 _atom_site_label
 _atom_site_symmetry_multiplicity
 _atom_site_fract_x
 _atom_site_fract_y
 _atom_site_fract_z
 _atom_site_occupancy
  Na  Na0  1  0.99813514  0.63652561  0.24446212  1
  Na  Na1  1  0.63839047  0.63652561  0.74446212  1
  Na  Na2  1  0.66034241  0.96213467  0.58086803  1
  Na  Na3  1  0.30179326  0.96213467  0.08086803  1
  Na  Na4  1  0.69504139  0.02743611  0.91155077  1
  Na  Na5  1  0.33239372  0.02743611  0.41155077  1
  Na  Na6  1  0.98622270  0.99254796  0.49723632  1
  Na  Na7  1  0.00632526  0.99254796  0.99723632  1
  Na  Na8  1  0.66093721  0.31974947  0.83053466  1
  Na  Na9  1  0.65881326  0.31974947  0.33053466  1
  Na  Na10  1  0.33663795  0.65674368  0.16404011  1
  Na  Na11  1  0.32010473  0.65674368  0.66404011  1
  Zn  Zn0  1  0.99520282  0.00546126  0.34991702  1
  Zn  Zn1  1  0.01025844  0.00546126  0.84991702  1
  Zn  Zn2  1  0.66730023  0.32694480  0.68272112  1
  Zn  Zn3  1  0.65964558  0.32694480  0.18272112  1
  Zn  Zn4  1  0.31704265  0.66488519  0.01629509  1
  Zn  Zn5  1  0.34784155  0.66488519  0.51629509  1
  Ga  Ga0  1  0.99109693  0.98883384  0.65083794  1
  Ga  Ga1  1  0.99773691  0.98883384  0.15083794  1
  Ga  Ga2  1  0.66607141  0.34188430  0.98379677  1
  Ga  Ga3  1  0.67581389  0.34188430  0.48379677  1
  Ga  Ga4  1  0.34775629  0.68643334  0.31717771  1
  Ga  Ga5  1  0.33867604  0.68643334  0.81717771  1
  P  P0  1  0.29720047  -0.00016976  0.25224385  1
  P  P1  1  0.70262977  -0.00016976  0.75224385  1
  P  P2  1  0.67163083  0.62579129  0.58627537  1
  P  P3  1  0.95416146  0.62579129  0.08627537  1
  P  P4  1  0.33725455  0.97184445  0.92059992  1
  P  P5  1  0.63458891  0.97184445  0.42059992  1
  S  S0  1  0.70012329  0.70755018  0.25079988  1
  S  S1  1  0.00688695  0.29590302  0.24987606  1
  S  S2  1  0.28901607  0.29590302  0.74987606  1
  S  S3  1  0.00742689  0.70755018  0.75079988  1
  S  S4  1  0.96445780  0.33340541  0.58389069  1
  S  S5  1  0.36237620  0.03906675  0.58281914  1
  S  S6  1  0.67669155  0.03906675  0.08281914  1
  S  S7  1  0.36894860  0.33340541  0.08389069  1
  S  S8  1  0.62202384  0.65877731  0.91671354  1
  S  S9  1  0.03984293  0.37759450  0.91586478  1
  S  S10  1  0.33775057  0.37759450  0.41586478  1
  S  S11  1  0.03675248  0.65877731  0.41671354  1
  O  O0  1  0.21210351  0.01923821  0.31032562  1
  O  O1  1  0.81067392  0.78862826  0.30474896  1
  O  O2  1  0.98065684  0.19359055  0.30481484  1
  O  O3  1  0.21293371  0.19359055  0.80481484  1
  O  O4  1  0.97795434  0.78862826  0.80474896  1
  O  O5  1  0.80713469  0.01923821  0.81032562  1
  O  O6  1  0.78626019  0.96122363  0.69444516  1
  O  O7  1  0.18095487  0.20874219  0.69409495  1
  O  O8  1  0.03881086  0.81723167  0.69493409  1
  O  O9  1  0.77842080  0.81723167  0.19493409  1
  O  O10  1  0.02778732  0.20874219  0.19409495  1
  O  O11  1  0.17496344  0.96122363  0.19444516  1
  O  O12  1  0.88606409  0.35798384  0.63912490  1
  O  O13  1  0.47991482  0.12083654  0.63541356  1
  O  O14  1  0.65143081  0.52625261  0.64508961  1
  O  O15  1  0.87482279  0.52625261  0.14508961  1
  O  O16  1  0.64092273  0.12083654  0.13541356  1
  O  O17  1  0.47192075  0.35798384  0.13912490  1
  O  O18  1  0.44822840  0.29288680  0.02927898  1
  O  O19  1  0.83817126  0.53530251  0.02903002  1
  O  O20  1  0.70075890  0.14237907  0.02552243  1
  O  O21  1  0.44162118  0.14237907  0.52552243  1
  O  O22  1  0.69713225  0.53530251  0.52903002  1
  O  O23  1  0.84465940  0.29288680  0.52927898  1
  O  O24  1  0.53516022  0.68462930  0.96946922  1
  O  O25  1  0.14235789  0.45274037  0.97134024  1
  O  O26  1  0.31416481  0.86985245  0.97928664  1
  O  O27  1  0.55568664  0.86985245  0.47928664  1
  O  O28  1  0.31038148  0.45274037  0.47134024  1
  O  O29  1  0.14946808  0.68462930  0.46946922  1
  O  O30  1  0.11356134  0.63171814  0.35866413  1
  O  O31  1  0.50468355  0.88484672  0.36502794  1
  O  O32  1  0.35885406  0.48540113  0.36067677  1
  O  O33  1  0.12654607  0.48540113  0.86067677  1
  O  O34  1  0.38016216  0.88484672  0.86502794  1
  O  O35  1  0.51815579  0.63171814  0.85866413  1
  O  O36  1  0.02017945  0.81937633  0.41221198  1
  O  O37  1  0.81622808  0.99278883  0.41137800  1
  O  O38  1  0.18584360  0.19415139  0.41092838  1
  O  O39  1  0.00830779  0.19415139  0.91092838  1
  O  O40  1  0.17656075  0.99278883  0.91137800  1
  O  O41  1  0.79919688  0.81937633  0.91221198  1
  O  O42  1  0.97656288  0.16674688  0.58831248  1
  O  O43  1  0.18859234  0.03023171  0.58989219  1
  O  O44  1  0.84133518  0.81778416  0.58837215  1
  O  O45  1  0.97644897  0.81778416  0.08837215  1
  O  O46  1  0.84163937  0.03023171  0.08989219  1
  O  O47  1  0.19018400  0.16674688  0.08831248  1
  O  O48  1  0.67825724  0.15974426  0.74474205  1
  O  O49  1  0.47119707  0.32522295  0.74476590  1
  O  O50  1  0.84778488  0.53090376  0.74456218  1
  O  O51  1  0.68311988  0.53090376  0.24456218  1
  O  O52  1  0.85402688  0.32522295  0.24476590  1
  O  O53  1  0.48148802  0.15974426  0.24474205  1
  O  O54  1  0.63963987  0.49764468  0.92112074  1
  O  O55  1  0.85990461  0.36179516  0.91940596  1
  O  O56  1  0.51563460  0.15630035  0.92496423  1
  O  O57  1  0.64066675  0.15630035  0.42496423  1
  O  O58  1  0.50189155  0.36179516  0.41940596  1
  O  O59  1  0.85800580  0.49764468  0.42112074  1
  O  O60  1  0.35051154  0.48936615  0.07547723  1
  O  O61  1  0.14346959  0.65506464  0.08118732  1
  O  O62  1  0.52071153  0.85845565  0.07754126  1
  O  O63  1  0.33774311  0.85845565  0.57754126  1
  O  O64  1  0.51159405  0.65506464  0.58118732  1
  O  O65  1  0.13885360  0.48936615  0.57547723  1
  O  O66  1  0.30371909  0.82122511  0.25553137  1
  O  O67  1  0.52110504  0.68899895  0.25606269  1
  O  O68  1  0.17117243  0.47607170  0.25373492  1
  O  O69  1  0.30489827  0.47607170  0.75373492  1
  O  O70  1  0.16789291  0.68899895  0.75606269  1
  O  O71  1  0.51750502  0.82122511  0.75553137  1
loop_
_geom_bond_atom_site_label_1
_geom_bond_atom_site_label_2
_geom_bond_distance
_geom_bond_site_symmetry_2
Na0 O66 2.340584 1_655
Na0 O52 2.353265 1_555
Na0 O15 2.407095 1_555
Na0 O51 2.428152 1_555
Na0 O68 2.533915 1_655
Na0 O11 2.697893 1_655
Na0 O30 2.714327 1_655
Na0 O1 2.892303 1_555
Na1 O71 2.340591 1_555
Na1 O49 2.353265 1_555
Na1 O14 2.407097 1_555
Na1 O50 2.428161 1_555
Na1 O69 2.533923 1_555
Na1 O6 2.697893 1_555
Na1 O35 2.714330 1_555
Na1 O4 2.892303 1_555
Na2 O64 2.319514 1_555
Na2 O27 2.389783 1_555
Na2 O42 2.431375 1_565
Na2 O44 2.474206 1_555
Na2 O63 2.495200 1_555
Na2 O6 2.730571 1_555
Na2 O23 2.756012 1_565
Na2 O13 2.831181 1_565
Na3 O61 2.319514 1_555
Na3 O26 2.389780 1_554
Na3 O47 2.431382 1_565
Na3 O45 2.474214 1_455
Na3 O62 2.495183 1_555
Na3 O11 2.730574 1_555
Na3 O18 2.756012 1_565
Na3 O16 2.831181 1_565
Na4 O56 2.361867 1_555
Na4 O39 2.372649 1_655
Na4 O41 2.405262 1_545
Na4 O5 2.446702 1_555
Na4 O55 2.529857 1_555
Na4 O34 2.593891 1_545
Na4 O20 2.683896 1_556
Na4 O24 2.895395 1_545
Na5 O57 2.361883 1_555
Na5 O38 2.372641 1_555
Na5 O36 2.405256 1_545
Na5 O0 2.446699 1_555
Na5 O58 2.529857 1_555
Na5 O31 2.593891 1_545
Na5 O21 2.683899 1_555
Na5 O29 2.895395 1_545
Na6 O37 2.403412 1_555
Na6 O44 2.459349 1_555
Na6 O36 2.505807 1_655
Na6 O42 2.533030 1_565
Na6 O38 2.590036 1_665
Na6 O43 2.607289 1_665
Na7 O40 2.403412 1_555
Na7 O45 2.459349 1_456
Na7 O41 2.505807 1_455
Na7 O47 2.533030 1_566
Na7 O39 2.590036 1_565
Na7 O46 2.607289 1_466
Na8 O48 2.389089 1_555
Na8 O56 2.486067 1_555
Na8 O55 2.516105 1_555
Na8 O49 2.528255 1_555
Na8 O54 2.580773 1_555
Na8 O50 2.581725 1_555
Na9 O53 2.389089 1_555
Na9 O57 2.486067 1_555
Na9 O58 2.516105 1_555
Na9 O52 2.528255 1_555
Na9 O59 2.580773 1_555
Na9 O51 2.581725 1_555
Na10 O60 2.465701 1_555
Na10 O61 2.479323 1_555
Na10 O68 2.494346 1_555
Na10 O67 2.512416 1_555
Na10 O62 2.551387 1_555
Na10 O66 2.562320 1_555
Na11 O65 2.465702 1_555
Na11 O64 2.479323 1_555
Na11 O69 2.494346 1_555
Na11 O70 2.512416 1_555
Na11 O63 2.551387 1_555
Na11 O71 2.562320 1_555
Ga0 O6 1.938356 1_555
Ga0 O44 1.960512 1_555
Ga0 O8 2.000447 1_655
Ga0 O7 2.031591 1_665
Ga0 O43 2.071292 1_665
Ga0 O42 2.131111 1_565
Ga1 O11 1.938356 1_655
Ga1 O45 1.960512 1_555
Ga1 O9 2.000447 1_555
Ga1 O10 2.031591 1_665
Ga1 O46 2.071292 1_565
Ga1 O47 2.131111 1_665
Ga2 O19 1.880334 1_556
Ga2 O56 1.965764 1_555
Ga2 O18 2.000487 1_556
Ga2 O54 2.034408 1_555
Ga2 O20 2.124837 1_556
Ga2 O55 2.148509 1_555
Ga3 O22 1.880334 1_555
Ga3 O57 1.965764 1_555
Ga3 O23 2.000487 1_555
Ga3 O59 2.034408 1_555
Ga3 O21 2.124837 1_555
Ga3 O58 2.148509 1_555
Ga4 O31 1.892940 1_555
Ga4 O66 1.960456 1_555
Ga4 O67 2.017607 1_555
Ga4 O32 2.047982 1_555
Ga4 O30 2.069063 1_555
Ga4 O68 2.196820 1_555
Ga5 O34 1.892940 1_555
Ga5 O71 1.960456 1_555
Ga5 O70 2.017607 1_555
Ga5 O33 2.047982 1_555
Ga5 O35 2.069063 1_555
Ga5 O69 2.196820 1_555
O0 P0 1.528563 1_555
O0 Zn0 2.035635 1_455
O1 S0 1.464787 1_555
O1 Zn0 2.021501 1_565
O2 S1 1.455042 1_655
O2 Zn0 1.981219 1_555
O3 S2 1.455042 1_555
O3 Zn1 1.981219 1_555
O4 S3 1.464787 1_655
O4 Zn1 2.021501 1_665
O5 P1 1.528563 1_555
O5 Zn1 2.035635 1_655
O6 P1 1.582550 1_565
O7 S2 1.497665 1_555
O8 S3 1.500569 1_555
O9 S0 1.500569 1_555
O10 S1 1.497665 1_555
O11 P0 1.582550 1_565
O12 S4 1.461005 1_555
O12 Zn2 2.033955 1_555
O13 S5 1.468667 1_555
O13 Zn2 2.006080 1_555
O14 P2 1.522561 1_555
O14 Zn2 1.997410 1_555
O15 P3 1.522561 1_555
O15 Zn3 1.997410 1_555
O16 S6 1.468667 1_555
O16 Zn3 2.006080 1_555
O17 S7 1.461005 1_555
O17 Zn3 2.033955 1_555
O18 S7 1.512425 1_555
O19 P3 1.555867 1_555
O20 S6 1.506056 1_555
O21 S5 1.506056 1_555
O22 P2 1.555867 1_555
O23 S4 1.512425 1_555
O24 S8 1.463398 1_555
O24 Zn4 2.098036 1_556
O25 S9 1.456581 1_555
O25 Zn4 1.969790 1_556
O26 P4 1.527143 1_555
O26 Zn4 1.981455 1_556
O27 P5 1.527143 1_555
O27 Zn5 1.981455 1_555
O28 S10 1.456581 1_555
O28 Zn5 1.969790 1_555
O29 S11 1.463398 1_555
O29 Zn5 2.098036 1_555
O30 S11 1.513493 1_555
O31 P5 1.575845 1_555
O32 S10 1.493936 1_555
O33 S9 1.493936 1_555
O34 P4 1.575845 1_555
O35 S8 1.513493 1_555
O36 S11 1.483440 1_555
O36 Zn0 2.223679 1_465
O37 P5 1.519198 1_555
O37 Zn0 2.028955 1_565
O38 S10 1.485262 1_555
O38 Zn0 2.123778 1_455
O39 S9 1.485265 1_555
O39 Zn1 2.123778 1_555
O40 P4 1.519189 1_555
O40 Zn1 2.028955 1_565
O41 S8 1.483445 1_555
O41 Zn1 2.223679 1_665
O42 S4 1.514012 1_555
O43 S5 1.491053 1_555
O44 P2 1.587196 1_555
O45 P3 1.587200 1_555
O46 S6 1.491044 1_555
O47 S7 1.514017 1_555
O48 P1 1.523627 1_555
O48 Zn2 2.040387 1_555
O49 S2 1.486244 1_555
O49 Zn2 2.185633 1_555
O50 S3 1.478159 1_655
O50 Zn2 2.158936 1_555
O51 S0 1.478163 1_555
O51 Zn3 2.158936 1_555
O52 S1 1.486235 1_655
O52 Zn3 2.185633 1_555
O53 P0 1.523633 1_555
O53 Zn3 2.040387 1_555
O54 S8 1.493149 1_555
O55 S9 1.511518 1_655
O56 P4 1.586074 1_545
O57 P5 1.586066 1_545
O58 S10 1.511536 1_555
O59 S11 1.493139 1_655
O60 S7 1.461505 1_555
O60 Zn4 2.144724 1_555
O61 P3 1.547850 1_455
O61 Zn4 2.053864 1_555
O62 S6 1.483784 1_565
O62 Zn4 2.189620 1_555
O63 S5 1.483777 1_565
O63 Zn5 2.189620 1_555
O64 P2 1.547867 1_555
O64 Zn5 2.053864 1_555
O65 S4 1.461495 1_455
O65 Zn5 2.144724 1_555
O66 P0 1.590143 1_565
O67 S0 1.495819 1_555
O68 S1 1.509347 1_555
O69 S2 1.509351 1_555
O70 S3 1.495810 1_555
O71 P1 1.590148 1_565
