# generated using pymatgen
data_Ce2MgTi4O12
_symmetry_space_group_name_H-M   'P 1'
_cell_length_a   5.13649689
_cell_length_b   6.80416387
_cell_length_c   7.60174083
_cell_angle_alpha   78.02336605
_cell_angle_beta   75.18427343
_cell_angle_gamma   70.75453441
_symmetry_Int_Tables_number   1
_chemical_formula_structural   Ce2MgTi4O12
_chemical_formula_sum   'Ce2 Mg1 Ti4 O12'
_cell_volume   240.27073671
_cell_formula_units_Z   1
loop_
 _symmetry_equiv_pos_site_id
 _symmetry_equiv_pos_as_xyz
  1  'x, y, z'
loop_
 _atom_site_type_symbol
 _atom_site_label
 _atom_site_symmetry_multiplicity
 _atom_site_fract_x
 _atom_site_fract_y
 _atom_site_fract_z
 _atom_site_occupancy
  Ce  Ce0  1  0.80661300  0.82691400  0.13992800  1
  Ce  Ce1  1  0.22178800  0.20114100  0.82587700  1
  Mg  Mg0  1  0.78653700  0.46617300  0.52353900  1
  Ti  Ti0  1  0.45741000  0.36549500  0.19007100  1
  Ti  Ti1  1  0.03460500  0.83920300  0.64649900  1
  Ti  Ti2  1  0.52748600  0.66566200  0.84134400  1
  Ti  Ti3  1  0.00204300  0.14186800  0.32186100  1
  O  O0  1  0.94754200  0.87302300  0.40317900  1
  O  O1  1  0.54035200  0.62906200  0.10124200  1
  O  O2  1  0.03326600  0.14111100  0.58207800  1
  O  O3  1  0.44559200  0.40110600  0.91151200  1
  O  O4  1  0.59984100  0.31714800  0.40407700  1
  O  O5  1  0.92337900  0.55245900  0.71748000  1
  O  O6  1  0.42507600  0.69396800  0.59638600  1
  O  O7  1  0.06144500  0.46306100  0.27715500  1
  O  O8  1  0.38334300  0.08634900  0.19994000  1
  O  O9  1  0.14368000  0.85406200  0.88446000  1
  O  O10  1  0.64653300  0.92476300  0.81002000  1
  O  O11  1  0.87596800  0.17780100  0.09557500  1
loop_
_geom_bond_atom_site_label_1
_geom_bond_atom_site_label_2
_geom_bond_distance
_geom_bond_site_symmetry_2
Ce0 O9 2.268359 1_654
Ce0 O8 2.312562 1_565
Ce0 O1 2.313654 1_555
Ce0 O0 2.403795 1_555
Ce0 O11 2.471010 1_565
Ce0 O7 2.533947 1_655
Ce0 O10 2.722048 1_554
Ce1 O3 2.319032 1_555
Ce1 O10 2.359161 1_545
Ce1 O11 2.360522 1_456
Ce1 O2 2.456004 1_555
Ce1 O9 2.456238 1_545
Ce1 O5 2.481039 1_455
Mg0 O6 2.022242 1_555
Mg0 O7 2.036292 1_655
Mg0 O5 2.042918 1_555
Mg0 O4 2.059376 1_555
Mg0 O2 2.174435 1_655
O0 Ti3 1.893802 1_665
O0 Ti1 1.962831 1_655
O1 Ti0 1.925499 1_555
O1 Ti2 1.954844 1_554
O2 Ti1 2.008639 1_545
O2 Ti3 2.023884 1_555
O3 Ti2 1.920335 1_555
O3 Ti0 2.095100 1_556
O4 Ti0 1.875609 1_555
O4 Ti3 2.026258 1_655
O5 Ti2 1.975908 1_555
O5 Ti1 2.136445 1_655
O6 Ti1 1.898211 1_555
O6 Ti2 2.016571 1_555
O7 Ti0 1.902443 1_555
O7 Ti3 2.250133 1_555
O8 Ti3 1.888602 1_555
O8 Ti0 2.039741 1_555
O9 Ti2 1.953234 1_555
O9 Ti1 2.056175 1_555
O10 Ti2 2.000160 1_555
O10 Ti1 2.031151 1_655
O11 Ti3 1.931035 1_655
O11 Ti0 2.133082 1_555
