# generated using pymatgen
data_Na6Ca4Y4SiS11O48
_symmetry_space_group_name_H-M   'P 1'
_cell_length_a   18.49214461
_cell_length_b   9.24273603
_cell_length_c   24.26756113
_cell_angle_alpha   90.01961266
_cell_angle_beta   89.97760624
_cell_angle_gamma   120.03094092
_symmetry_Int_Tables_number   1
_chemical_formula_structural   Na6Ca4Y4SiS11O48
_chemical_formula_sum   'Na18 Ca12 Y12 Si3 S33 O144'
_cell_volume   3590.94758439
_cell_formula_units_Z   3
loop_
 _symmetry_equiv_pos_site_id
 _symmetry_equiv_pos_as_xyz
  1  'x, y, z'
loop_
 _atom_site_type_symbol
 _atom_site_label
 _atom_site_symmetry_multiplicity
 _atom_site_fract_x
 _atom_site_fract_y
 _atom_site_fract_z
 _atom_site_occupancy
  Na  Na0  1  0.81923949  0.99262864  0.24703849  1
  Na  Na1  1  0.99427728  0.63696219  0.25441422  1
  Na  Na2  1  0.31835455  0.65266518  0.74857328  1
  Na  Na3  1  0.81709866  0.64940304  0.74561223  1
  Na  Na4  1  0.99245903  0.35210294  0.75103533  1
  Na  Na5  1  0.69229838  0.00165307  0.74836335  1
  Na  Na6  1  0.99832156  0.99802744  0.49840356  1
  Na  Na7  1  0.50350123  0.00275969  0.49377534  1
  Na  Na8  1  0.00239974  0.00264910  0.00143083  1
  Na  Na9  1  0.50051925  0.00007957  0.00096336  1
  Na  Na10  1  0.33489338  0.30312190  0.83615129  1
  Na  Na11  1  0.83408738  0.31669181  0.83610725  1
  Na  Na12  1  0.33476710  0.33540424  0.32975650  1
  Na  Na13  1  0.82698173  0.35302095  0.33524035  1
  Na  Na14  1  0.17642339  0.66939926  0.16886714  1
  Na  Na15  1  0.66708437  0.65351675  0.17089292  1
  Na  Na16  1  0.17580703  0.69507503  0.66536507  1
  Na  Na17  1  0.67258023  0.67649879  0.66220586  1
  Ca  Ca0  1  0.49881648  0.99908362  0.35101412  1
  Ca  Ca1  1  0.83357734  0.32721623  0.67814623  1
  Ca  Ca2  1  0.33322869  0.33470769  0.18235622  1
  Ca  Ca3  1  0.82927097  0.34170804  0.18223878  1
  Ca  Ca4  1  0.33340393  0.33362598  0.98505363  1
  Ca  Ca5  1  0.83294930  0.33292977  0.98436361  1
  Ca  Ca6  1  0.83299550  0.33211821  0.48306021  1
  Ca  Ca7  1  0.16596432  0.66522249  0.51572615  1
  Ca  Ca8  1  0.66875209  0.66950965  0.51593758  1
  Ca  Ca9  1  0.17318879  0.67105405  0.31934049  1
  Ca  Ca10  1  0.17112773  0.68353417  0.81724667  1
  Ca  Ca11  1  0.66574936  0.66472754  0.81815117  1
  Y  Y0  1  0.99850239  0.99271097  0.35157438  1
  Y  Y1  1  0.99764139  0.00321502  0.85221063  1
  Y  Y2  1  0.49456747  0.00628858  0.85209386  1
  Y  Y3  1  0.99429933  0.99669705  0.64752634  1
  Y  Y4  1  0.49540403  0.00161625  0.64697642  1
  Y  Y5  1  0.99600916  0.99412342  0.14975548  1
  Y  Y6  1  0.49951058  0.99915295  0.15078312  1
  Y  Y7  1  0.33406441  0.31681787  0.68479644  1
  Y  Y8  1  0.33347289  0.33366832  0.48111804  1
  Y  Y9  1  0.16759433  0.66771380  0.01673045  1
  Y  Y10  1  0.66677797  0.66904550  0.01688962  1
  Y  Y11  1  0.66551518  0.65505970  0.31659767  1
  Si  Si0  1  0.85080672  0.70230856  0.25058206  1
  Si  Si1  1  0.34945253  0.99629539  0.74961937  1
  Si  Si2  1  0.85033366  0.00039739  0.75069028  1
  S  S0  1  0.14757933  0.99919026  0.25002582  1
  S  S1  1  0.64813704  0.99694924  0.25050422  1
  S  S2  1  0.35153572  0.70251847  0.24971699  1
  S  S3  1  0.00097704  0.29696587  0.24963223  1
  S  S4  1  0.49848204  0.29470812  0.25016947  1
  S  S5  1  0.14737102  0.29473431  0.74974979  1
  S  S6  1  0.64771524  0.29330164  0.74963611  1
  S  S7  1  0.99899898  0.70446734  0.74969275  1
  S  S8  1  0.49944295  0.70909222  0.74953764  1
  S  S9  1  0.48228876  0.33632643  0.58247930  1
  S  S10  1  0.98552592  0.33618260  0.58433296  1
  S  S11  1  0.18495257  0.03704389  0.58289168  1
  S  S12  1  0.68123817  0.02978527  0.58463280  1
  S  S13  1  0.33301007  0.62633432  0.58512685  1
  S  S14  1  0.83268904  0.63239822  0.58464152  1
  S  S15  1  0.48341272  0.63408121  0.08308346  1
  S  S16  1  0.98454392  0.63326711  0.08355945  1
  S  S17  1  0.33357245  0.03373771  0.08337542  1
  S  S18  1  0.83329880  0.03372667  0.08378514  1
  S  S19  1  0.18347398  0.33395536  0.08286013  1
  S  S20  1  0.68134898  0.33208349  0.08203574  1
  S  S21  1  0.31572484  0.66401228  0.91576455  1
  S  S22  1  0.81574396  0.66476991  0.91573865  1
  S  S23  1  0.01829382  0.37051429  0.91531917  1
  S  S24  1  0.51783597  0.37037343  0.91745282  1
  S  S25  1  0.16639380  0.96701958  0.91773753  1
  S  S26  1  0.66618461  0.96593315  0.91531693  1
  S  S27  1  0.31706756  0.96758503  0.41842197  1
  S  S28  1  0.81544986  0.96620172  0.41488036  1
  S  S29  1  0.16689580  0.36679261  0.41744422  1
  S  S30  1  0.66603778  0.36611291  0.41782327  1
  S  S31  1  0.01727274  0.66573766  0.41530694  1
  S  S32  1  0.51769624  0.66650265  0.41755616  1
  O  O0  1  0.10749048  0.02042187  0.29998333  1
  O  O1  1  0.60882492  0.01965131  0.29957129  1
  O  O2  1  0.39996091  0.78455541  0.29949938  1
  O  O3  1  0.91117962  0.80054110  0.30323487  1
  O  O4  1  0.49094328  0.19761039  0.29970376  1
  O  O5  1  0.99289399  0.19625109  0.29912795  1
  O  O6  1  0.11101263  0.19141653  0.79981140  1
  O  O7  1  0.60760154  0.18786137  0.79939040  1
  O  O8  1  0.48783188  0.78873260  0.79949818  1
  O  O9  1  0.99172539  0.79051403  0.79964566  1
  O  O10  1  0.40532369  0.01646960  0.80481798  1
  O  O11  1  0.91147612  0.02716959  0.80388673  1
  O  O12  1  0.39873140  0.97569732  0.69647842  1
  O  O13  1  0.89768590  0.97331966  0.69767643  1
  O  O14  1  0.09697098  0.20883844  0.70045451  1
  O  O15  1  0.59802743  0.21033855  0.69988753  1
  O  O16  1  0.01213067  0.80787507  0.70008111  1
  O  O17  1  0.51344738  0.81506956  0.70026285  1
  O  O18  1  0.39550565  0.80531964  0.19967238  1
  O  O19  1  0.89492495  0.82326639  0.19640867  1
  O  O20  1  0.01356368  0.21926528  0.19970154  1
  O  O21  1  0.50898314  0.21237025  0.19994552  1
  O  O22  1  0.09553540  0.98088363  0.20047070  1
  O  O23  1  0.59849539  0.98093092  0.19994374  1
  O  O24  1  0.43997075  0.35080454  0.63292822  1
  O  O25  1  0.94822955  0.35228161  0.63712608  1
  O  O26  1  0.23510836  0.12205150  0.63312405  1
  O  O27  1  0.72726170  0.10516426  0.63740881  1
  O  O28  1  0.32639657  0.53240070  0.63670412  1
  O  O29  1  0.82581512  0.54374262  0.63772409  1
  O  O30  1  0.44523913  0.53404493  0.13284807  1
  O  O31  1  0.94840732  0.53917185  0.13513040  1
  O  O32  1  0.32192549  0.11041575  0.13310127  1
  O  O33  1  0.82306289  0.10526428  0.13579846  1
  O  O34  1  0.23294531  0.35638606  0.13287361  1
  O  O35  1  0.73049561  0.35593304  0.13234520  1
  O  O36  1  0.22298073  0.31325577  0.03310014  1
  O  O37  1  0.72060570  0.30940521  0.03272509  1
  O  O38  1  0.43360911  0.55768864  0.03326643  1
  O  O39  1  0.93214320  0.54998867  0.03520143  1
  O  O40  1  0.34494112  0.13266221  0.03342235  1
  O  O41  1  0.84169542  0.13686035  0.03553864  1
  O  O42  1  0.22756107  0.14000221  0.53360971  1
  O  O43  1  0.72534143  0.13577539  0.53686166  1
  O  O44  1  0.34068917  0.53644601  0.53653819  1
  O  O45  1  0.84058122  0.54352953  0.53707174  1
  O  O46  1  0.43007146  0.31675621  0.53346216  1
  O  O47  1  0.93208812  0.31539247  0.53681922  1
  O  O48  1  0.27122781  0.68368490  0.96413430  1
  O  O49  1  0.77112286  0.68354689  0.96409820  1
  O  O50  1  0.07124867  0.46177041  0.96373965  1
  O  O51  1  0.56951582  0.45836101  0.96679553  1
  O  O52  1  0.15742030  0.86198574  0.96707362  1
  O  O53  1  0.65801917  0.85882558  0.96388234  1
  O  O54  1  0.27484708  0.86654928  0.46751770  1
  O  O55  1  0.77498541  0.86359161  0.46384368  1
  O  O56  1  0.15724234  0.44676953  0.46696529  1
  O  O57  1  0.65783199  0.44978575  0.46708487  1
  O  O58  1  0.06889991  0.68269969  0.46381925  1
  O  O59  1  0.56700867  0.68244212  0.46690168  1
  O  O60  1  0.05652230  0.65182815  0.36317706  1
  O  O61  1  0.55790202  0.64568920  0.36697468  1
  O  O62  1  0.26767817  0.89248440  0.36751919  1
  O  O63  1  0.76626011  0.88200389  0.36368751  1
  O  O64  1  0.17794045  0.46516237  0.36693788  1
  O  O65  1  0.67358522  0.46775170  0.36721552  1
  O  O66  1  0.05637943  0.46081098  0.86341247  1
  O  O67  1  0.55766822  0.46409979  0.86691534  1
  O  O68  1  0.17438429  0.88729824  0.86728780  1
  O  O69  1  0.67410126  0.88896706  0.86373730  1
  O  O70  1  0.26939598  0.64767883  0.86422630  1
  O  O71  1  0.76981404  0.64861813  0.86411539  1
  O  O72  1  0.01043808  0.82165465  0.41320764  1
  O  O73  1  0.50751900  0.81474746  0.41282696  1
  O  O74  1  0.40133770  0.98726167  0.41437125  1
  O  O75  1  0.90087031  0.98539542  0.41054554  1
  O  O76  1  0.09189684  0.19652310  0.41255124  1
  O  O77  1  0.59058913  0.19854109  0.41309618  1
  O  O78  1  0.01257388  0.20235397  0.91468324  1
  O  O79  1  0.51241264  0.20230088  0.91599488  1
  O  O80  1  0.08910253  0.98057872  0.91490925  1
  O  O81  1  0.58922306  0.97994997  0.91346706  1
  O  O82  1  0.40050318  0.81879618  0.91407384  1
  O  O83  1  0.90058891  0.81923708  0.91383952  1
  O  O84  1  0.48932642  0.18249461  0.58614863  1
  O  O85  1  0.99456563  0.18323306  0.58755887  1
  O  O86  1  0.10140912  0.02256030  0.58738893  1
  O  O87  1  0.59696905  0.01417120  0.58796677  1
  O  O88  1  0.41086267  0.79386814  0.58675923  1
  O  O89  1  0.91077203  0.80201488  0.58630824  1
  O  O90  1  0.49388617  0.80590473  0.08906985  1
  O  O91  1  0.99524551  0.80521174  0.08744676  1
  O  O92  1  0.40899109  0.01280419  0.08928511  1
  O  O93  1  0.90977150  0.01647855  0.08619545  1
  O  O94  1  0.09786643  0.18382036  0.08782640  1
  O  O95  1  0.59586105  0.18074727  0.08800381  1
  O  O96  1  0.33972631  0.16367208  0.74634635  1
  O  O97  1  0.84244162  0.17010205  0.74803033  1
  O  O98  1  0.23541826  0.33074091  0.74352465  1
  O  O99  1  0.73267922  0.31172197  0.74546186  1
  O  O100  1  0.42029375  0.54490516  0.74298521  1
  O  O101  1  0.91882207  0.54148029  0.74549023  1
  O  O102  1  0.34272016  0.53439150  0.24494120  1
  O  O103  1  0.84867377  0.52407277  0.24736036  1
  O  O104  1  0.42380985  0.31314392  0.24476506  1
  O  O105  1  0.92158032  0.30181110  0.24462068  1
  O  O106  1  0.23217083  0.14450568  0.24513251  1
  O  O107  1  0.73511865  0.14016581  0.24486597  1
  O  O108  1  0.32502688  0.51573087  0.92192727  1
  O  O109  1  0.82507305  0.51600866  0.92177053  1
  O  O110  1  0.43338858  0.34851587  0.92210068  1
  O  O111  1  0.93386476  0.34944978  0.92088198  1
  O  O112  1  0.24107795  0.13435373  0.92265787  1
  O  O113  1  0.74140775  0.13315871  0.92095324  1
  O  O114  1  0.32555011  0.13805012  0.42373286  1
  O  O115  1  0.82345094  0.13298393  0.41825045  1
  O  O116  1  0.24289742  0.34784742  0.42266707  1
  O  O117  1  0.74259638  0.35259642  0.41959547  1
  O  O118  1  0.43251694  0.51214310  0.42162779  1
  O  O119  1  0.93273152  0.51727525  0.41952594  1
  O  O120  1  0.17404509  0.48636059  0.07707149  1
  O  O121  1  0.67129525  0.48295875  0.07594402  1
  O  O122  1  0.06949644  0.65201737  0.07673683  1
  O  O123  1  0.56923930  0.65518120  0.07684626  1
  O  O124  1  0.25813445  0.86177251  0.07748470  1
  O  O125  1  0.75814342  0.86214372  0.07722249  1
  O  O126  1  0.17707747  0.87038045  0.57963959  1
  O  O127  1  0.67229254  0.86127168  0.58026409  1
  O  O128  1  0.25871796  0.64553513  0.58060447  1
  O  O129  1  0.75847892  0.65359255  0.58075633  1
  O  O130  1  0.06961946  0.48641403  0.57960096  1
  O  O131  1  0.56534874  0.48531424  0.57912589  1
  O  O132  1  0.14889620  0.83861057  0.25393580  1
  O  O133  1  0.65512980  0.84211027  0.25453279  1
  O  O134  1  0.26737101  0.68821247  0.25101600  1
  O  O135  1  0.75988625  0.69573705  0.25602825  1
  O  O136  1  0.07210181  0.47160607  0.25436449  1
  O  O137  1  0.57531567  0.46490048  0.25320812  1
  O  O138  1  0.14941068  0.45734573  0.75496872  1
  O  O139  1  0.65775957  0.46209559  0.75468866  1
  O  O140  1  0.06856930  0.66905817  0.75446988  1
  O  O141  1  0.57297048  0.68770352  0.75512255  1
  O  O142  1  0.25988637  0.82078216  0.75046452  1
  O  O143  1  0.75719930  0.83200795  0.75320947  1
loop_
_geom_bond_atom_site_label_1
_geom_bond_atom_site_label_2
_geom_bond_distance
_geom_bond_site_symmetry_2
Na0 O135 2.401637 1_555
Na0 O105 2.517577 1_565
Na0 O107 2.530905 1_565
Na0 O133 2.636669 1_555
Na0 O19 2.847648 1_555
Na0 O33 2.881725 1_565
Na0 O63 3.002630 1_555
Na1 O103 2.357093 1_555
Na1 O132 2.512978 1_655
Na1 O136 2.570705 1_655
Na1 O105 2.700193 1_555
Na1 O60 2.855536 1_655
Na1 O3 2.893729 1_555
Na1 O31 3.024670 1_555
Na1 O22 3.060662 1_655
Na2 O142 2.295018 1_555
Na2 O100 2.538287 1_555
Na2 O98 2.579298 1_555
Na2 O138 2.719916 1_555
Na2 O12 2.877682 1_555
Na2 O70 2.941975 1_555
Na2 O28 2.964942 1_555
Na2 O8 2.997950 1_555
Na3 O143 2.445474 1_555
Na3 O101 2.532119 1_555
Na3 O139 2.573235 1_555
Na3 O99 2.702108 1_555
Na3 O29 2.826671 1_555
Na3 O13 2.841233 1_555
Na3 O71 3.004404 1_555
Na4 O97 2.420749 1_555
Na4 O140 2.538292 1_655
Na4 O138 2.559955 1_655
Na4 O101 2.705946 1_555
Na4 O25 2.883303 1_555
Na4 O11 2.899428 1_555
Na4 O66 2.942072 1_655
Na5 O143 2.407615 1_545
Na5 O97 2.409577 1_555
Na5 O99 2.575639 1_555
Na5 O141 2.628165 1_545
Na5 O27 2.822176 1_555
Na5 O69 2.947473 1_545
Na6 O72 2.710188 1_655
Na6 O89 2.741918 1_555
Na6 O76 2.742816 1_665
Na6 O75 2.756668 1_555
Na6 O85 2.780745 1_565
Na6 O86 2.814056 1_665
Na7 O77 2.604685 1_555
Na7 O73 2.647831 1_545
Na7 O74 2.652278 1_545
Na7 O87 2.836173 1_555
Na7 O84 2.878608 1_555
Na7 O88 2.905770 1_545
Na8 O80 2.710221 1_544
Na8 O94 2.712549 1_555
Na8 O93 2.719915 1_455
Na8 O91 2.732323 1_445
Na8 O78 2.743877 1_554
Na8 O83 2.782575 1_444
Na9 O79 2.717426 1_554
Na9 O95 2.722529 1_555
Na9 O81 2.745223 1_544
Na9 O82 2.751932 1_544
Na9 O90 2.754940 1_545
Na9 O92 2.769254 1_555
Na10 O96 2.555782 1_555
Na10 O110 2.661098 1_555
Na10 O112 2.672211 1_555
Na10 O108 2.929776 1_555
Na10 O98 2.995882 1_555
Na10 O100 3.011306 1_555
Na11 O97 2.575926 1_555
Na11 O113 2.672826 1_555
Na11 O111 2.678024 1_555
Na11 O109 2.836841 1_555
Na11 O99 2.876542 1_555
Na11 O101 2.889571 1_555
Na12 O104 2.709944 1_555
Na12 O102 2.715196 1_555
Na12 O106 2.753167 1_555
Na12 O118 2.819865 1_555
Na12 O116 2.859284 1_555
Na12 O114 2.872063 1_555
Na13 O103 2.564257 1_555
Na13 O117 2.572361 1_555
Na13 O119 2.709619 1_555
Na13 O115 2.840456 1_555
Na13 O107 2.867231 1_555
Na13 O105 2.990879 1_555
Na14 O134 2.557863 1_555
Na14 O124 2.770094 1_555
Na14 O120 2.783797 1_555
Na14 O132 2.785813 1_555
Na14 O136 2.799634 1_555
Na14 O122 2.935900 1_555
Na15 O135 2.587988 1_555
Na15 O137 2.635889 1_555
Na15 O133 2.755013 1_555
Na15 O121 2.814365 1_555
Na15 O125 2.910485 1_555
Na15 O123 2.917871 1_555
Na16 O142 2.494982 1_555
Na16 O126 2.630199 1_555
Na16 O128 2.736953 1_555
Na16 O130 2.849026 1_555
Na16 O140 2.861087 1_555
Na16 O138 2.953547 1_555
Na17 O129 2.609358 1_555
Na17 O127 2.623414 1_555
Na17 O143 2.672260 1_555
Na17 O131 2.759140 1_555
Na17 O139 2.915152 1_555
Na17 O141 2.945440 1_555
Ca0 O4 2.282048 1_565
Ca0 O2 2.282150 1_555
Ca0 O1 2.311722 1_565
Ca0 O77 2.327448 1_565
Ca0 O74 2.329389 1_555
Ca0 O73 2.335648 1_555
Ca1 O27 2.239666 1_555
Ca1 O25 2.246459 1_555
Ca1 O97 2.291713 1_555
Ca1 O29 2.297180 1_555
Ca1 O99 2.429142 1_555
Ca1 O101 2.439830 1_555
Ca2 O34 2.301076 1_555
Ca2 O30 2.303929 1_555
Ca2 O32 2.309725 1_555
Ca2 O102 2.327636 1_555
Ca2 O104 2.339995 1_555
Ca2 O106 2.369584 1_555
Ca3 O103 2.204671 1_555
Ca3 O35 2.249862 1_555
Ca3 O31 2.338024 1_555
Ca3 O107 2.358974 1_555
Ca3 O33 2.409669 1_555
Ca3 O105 2.444186 1_555
Ca4 O36 2.275527 1_556
Ca4 O38 2.291365 1_556
Ca4 O40 2.296037 1_556
Ca4 O112 2.335079 1_555
Ca4 O108 2.338098 1_555
Ca4 O110 2.348327 1_555
Ca5 O41 2.268846 1_556
Ca5 O39 2.286536 1_556
Ca5 O37 2.299279 1_556
Ca5 O109 2.332490 1_555
Ca5 O113 2.348267 1_555
Ca5 O111 2.364696 1_555
Ca6 O45 2.297805 1_555
Ca6 O43 2.311833 1_555
Ca6 O47 2.317164 1_555
Ca6 O117 2.349733 1_555
Ca6 O119 2.355386 1_555
Ca6 O115 2.359122 1_555
Ca7 O58 2.264226 1_555
Ca7 O54 2.266014 1_555
Ca7 O56 2.274985 1_555
Ca7 O130 2.315315 1_555
Ca7 O126 2.377340 1_555
Ca7 O128 2.401798 1_555
Ca8 O55 2.268831 1_555
Ca8 O57 2.271273 1_555
Ca8 O59 2.279729 1_555
Ca8 O127 2.337652 1_555
Ca8 O129 2.344262 1_555
Ca8 O131 2.376382 1_555
Ca9 O62 2.242603 1_555
Ca9 O64 2.265455 1_555
Ca9 O60 2.330729 1_555
Ca9 O134 2.351400 1_555
Ca9 O132 2.412063 1_555
Ca9 O136 2.435173 1_555
Ca10 O142 2.201123 1_555
Ca10 O68 2.215912 1_555
Ca10 O70 2.305744 1_555
Ca10 O66 2.371279 1_555
Ca10 O140 2.384053 1_555
Ca10 O138 2.444170 1_555
Ca11 O143 2.261974 1_555
Ca11 O67 2.263541 1_555
Ca11 O69 2.285050 1_555
Ca11 O71 2.293077 1_555
Ca11 O139 2.371194 1_555
Ca11 O141 2.386449 1_555
O0 S0 1.484119 1_545
O0 Y0 2.275208 1_445
O1 S1 1.463625 1_545
O2 S2 1.468644 1_555
O3 Si0 1.639860 1_555
O3 Y0 2.065837 1_555
O4 S4 1.464655 1_555
O5 S3 1.480869 1_655
O5 Y0 2.316645 1_545
O6 S5 1.482356 1_555
O6 Y1 2.321043 1_455
O7 S6 1.494783 1_555
O7 Y2 2.304249 1_555
O8 S8 1.488383 1_555
O8 Y2 2.331453 1_565
O9 S7 1.492114 1_555
O9 Y1 2.299395 1_565
O10 Si1 1.644585 1_545
O10 Y2 2.050755 1_555
O11 Si2 1.651375 1_555
O11 Y1 2.077948 1_555
O12 Si1 1.643867 1_555
O12 Y4 2.065470 1_565
O13 Si2 1.644010 1_565
O13 Y3 2.081302 1_555
O14 S5 1.479732 1_555
O14 Y3 2.317993 1_445
O15 S6 1.478097 1_555
O15 Y4 2.303805 1_555
O16 S7 1.479939 1_455
O16 Y3 2.314953 1_455
O17 S8 1.484274 1_555
O17 Y4 2.309565 1_565
O18 S2 1.505182 1_555
O18 Y6 2.206137 1_555
O19 Si0 1.652579 1_555
O19 Y5 2.077175 1_555
O20 S3 1.484803 1_555
O20 Y5 2.286303 1_445
O21 S4 1.499825 1_555
O21 Y6 2.234006 1_545
O22 S0 1.496270 1_555
O22 Y5 2.268095 1_455
O23 S1 1.494927 1_555
O23 Y6 2.261099 1_555
O24 S9 1.494353 1_555
O24 Y7 2.213837 1_555
O25 S10 1.497025 1_555
O26 S11 1.494785 1_555
O26 Y7 2.205591 1_555
O27 S12 1.502256 1_555
O28 S13 1.493224 1_555
O28 Y7 2.374251 1_555
O29 S14 1.497787 1_555
O30 S15 1.469171 1_555
O31 S16 1.479039 1_555
O32 S17 1.468620 1_555
O33 S18 1.480126 1_555
O34 S19 1.470997 1_555
O35 S20 1.471490 1_555
O36 S19 1.472267 1_555
O37 S20 1.467771 1_555
O38 S15 1.468901 1_555
O39 S16 1.470484 1_555
O40 S17 1.468974 1_555
O41 S18 1.468358 1_555
O42 S11 1.485342 1_555
O42 Y8 2.270067 1_555
O43 S12 1.472794 1_555
O44 S13 1.489311 1_555
O44 Y8 2.255521 1_555
O45 S14 1.465549 1_555
O46 S9 1.485267 1_555
O46 Y8 2.260602 1_555
O47 S10 1.467517 1_555
O48 S21 1.495606 1_555
O48 Y9 2.244684 1_556
O49 S22 1.493546 1_555
O49 Y10 2.263129 1_556
O50 S23 1.491502 1_555
O50 Y9 2.248730 1_556
O51 S24 1.493591 1_555
O51 Y10 2.235878 1_556
O52 S25 1.497609 1_555
O52 Y9 2.247562 1_556
O53 S26 1.497627 1_555
O53 Y10 2.245852 1_556
O54 S27 1.473569 1_555
O55 S28 1.470031 1_555
O56 S29 1.467588 1_555
O57 S30 1.472050 1_555
O58 S31 1.474090 1_555
O59 S32 1.467485 1_555
O60 S31 1.495421 1_555
O61 S32 1.496263 1_555
O61 Y11 2.299527 1_555
O62 S27 1.485813 1_555
O63 S28 1.506017 1_555
O63 Y11 2.294575 1_555
O64 S29 1.478284 1_555
O65 S30 1.509869 1_555
O65 Y11 2.188276 1_555
O66 S23 1.480189 1_555
O67 S24 1.469167 1_555
O68 S25 1.473731 1_555
O69 S26 1.482484 1_555
O70 S21 1.480635 1_555
O71 S22 1.478815 1_555
O72 S31 1.509205 1_555
O72 Y0 2.266410 1_455
O73 S32 1.477917 1_555
O74 S27 1.478975 1_555
O75 S28 1.502362 1_555
O75 Y0 2.277719 1_555
O76 S29 1.493187 1_555
O76 Y0 2.337671 1_445
O77 S30 1.481779 1_555
O78 S23 1.504189 1_555
O78 Y1 2.291755 1_455
O79 S24 1.506168 1_555
O79 Y2 2.279457 1_555
O80 S25 1.497543 1_555
O80 Y1 2.361318 1_465
O81 S26 1.492936 1_555
O81 Y2 2.402115 1_565
O82 S21 1.503734 1_555
O82 Y2 2.296444 1_565
O83 S22 1.503324 1_555
O83 Y1 2.300928 1_565
O84 S9 1.493909 1_555
O84 Y4 2.275185 1_555
O85 S10 1.506374 1_555
O85 Y3 2.254676 1_545
O86 S11 1.486409 1_555
O86 Y3 2.373636 1_445
O87 S12 1.493497 1_555
O87 Y4 2.317645 1_555
O88 S13 1.496864 1_555
O88 Y4 2.293845 1_565
O89 S14 1.509475 1_555
O89 Y3 2.246927 1_555
O90 S15 1.507559 1_555
O90 Y6 2.292676 1_555
O91 S16 1.502949 1_555
O91 Y5 2.304093 1_555
O92 S17 1.507756 1_555
O92 Y6 2.293168 1_545
O93 S18 1.501454 1_555
O93 Y5 2.301504 1_545
O94 S19 1.499125 1_555
O94 Y5 2.361050 1_445
O95 S20 1.504415 1_555
O95 Y6 2.306308 1_545
O96 Si1 1.646367 1_545
O96 Y7 2.096548 1_555
O97 Si2 1.647717 1_555
O98 S5 1.497342 1_555
O98 Y7 2.368157 1_555
O99 S6 1.496646 1_555
O100 S8 1.499085 1_555
O100 Y7 2.369801 1_555
O101 S7 1.497469 1_555
O102 S2 1.483613 1_555
O103 Si0 1.629855 1_555
O104 S4 1.479409 1_555
O105 S3 1.496132 1_655
O106 S0 1.470379 1_545
O107 S1 1.492291 1_545
O108 S21 1.471879 1_555
O109 S22 1.476241 1_555
O110 S24 1.475219 1_555
O111 S23 1.479630 1_655
O112 S25 1.475015 1_545
O113 S26 1.480073 1_545
O114 S27 1.508681 1_545
O114 Y8 2.227807 1_555
O115 S28 1.475299 1_545
O116 S29 1.506138 1_555
O116 Y8 2.248625 1_555
O117 S30 1.482848 1_555
O118 S32 1.508954 1_555
O118 Y8 2.266133 1_555
O119 S31 1.479936 1_655
O120 S19 1.510100 1_555
O120 Y9 2.273784 1_555
O121 S20 1.503567 1_555
O121 Y10 2.272574 1_555
O122 S16 1.500884 1_455
O122 Y9 2.273101 1_555
O123 S15 1.506621 1_555
O123 Y10 2.270134 1_555
O124 S17 1.507790 1_565
O124 Y9 2.277791 1_555
O125 S18 1.505263 1_565
O125 Y10 2.272772 1_555
O126 S11 1.475038 1_565
O127 S12 1.485430 1_565
O128 S13 1.474819 1_555
O129 S14 1.483130 1_555
O130 S10 1.482618 1_455
O131 S9 1.464572 1_555
O132 S0 1.499569 1_555
O133 S1 1.503253 1_555
O133 Y11 2.372490 1_555
O134 S2 1.494922 1_555
O135 Si0 1.656982 1_555
O135 Y11 2.165405 1_555
O136 S3 1.491158 1_555
O137 S4 1.503839 1_555
O137 Y11 2.302927 1_555
O138 S5 1.489808 1_555
O139 S6 1.480993 1_555
O140 S7 1.482304 1_455
O141 S8 1.474922 1_555
O142 Si1 1.638872 1_555
O143 Si2 1.645967 1_565
