# generated using pymatgen
data_Na14Zn6Si5Sn2S7O48
_symmetry_space_group_name_H-M   'P 1'
_cell_length_a   18.28779583
_cell_length_b   9.16627320
_cell_length_c   22.14471038
_cell_angle_alpha   90.00273226
_cell_angle_beta   89.73184459
_cell_angle_gamma   120.29149637
_symmetry_Int_Tables_number   1
_chemical_formula_structural   Na14Zn6Si5Sn2S7O48
_chemical_formula_sum   'Na42 Zn18 Si15 Sn6 S21 O144'
_cell_volume   3205.27515046
_cell_formula_units_Z   3
loop_
 _symmetry_equiv_pos_site_id
 _symmetry_equiv_pos_as_xyz
  1  'x, y, z'
loop_
 _atom_site_type_symbol
 _atom_site_label
 _atom_site_symmetry_multiplicity
 _atom_site_fract_x
 _atom_site_fract_y
 _atom_site_fract_z
 _atom_site_occupancy
  Na  Na0  1  0.81137969  0.00657501  0.24922054  1
  Na  Na1  1  0.69073946  0.36380832  0.24733230  1
  Na  Na2  1  0.50257852  0.64078569  0.24364492  1
  Na  Na3  1  0.31092881  0.61634528  0.75015302  1
  Na  Na4  1  0.00399449  0.36721732  0.74304974  1
  Na  Na5  1  0.17805138  0.99290994  0.74261059  1
  Na  Na6  1  0.15511714  0.33152064  0.57107508  1
  Na  Na7  1  0.66963891  0.36530165  0.58163791  1
  Na  Na8  1  0.01293508  0.69136302  0.57104487  1
  Na  Na9  1  0.52192384  0.68334553  0.58915653  1
  Na  Na10  1  0.32285849  0.98267987  0.58074898  1
  Na  Na11  1  0.82331776  0.96447082  0.58918481  1
  Na  Na12  1  0.16133342  0.96503615  0.07310521  1
  Na  Na13  1  0.65935566  0.98855990  0.06521911  1
  Na  Na14  1  0.31994006  0.68361125  0.08151940  1
  Na  Na15  1  0.82539208  0.66532213  0.07324921  1
  Na  Na16  1  0.01928455  0.35941409  0.08241058  1
  Na  Na17  1  0.51150653  0.33000819  0.06416880  1
  Na  Na18  1  0.48502858  0.66320060  0.92145816  1
  Na  Na19  1  0.97753479  0.65634373  0.91409742  1
  Na  Na20  1  0.35225872  0.04074051  0.92612599  1
  Na  Na21  1  0.84795621  0.04494126  0.91116045  1
  Na  Na22  1  0.16724586  0.28944660  0.91503418  1
  Na  Na23  1  0.66405412  0.29125867  0.93112579  1
  Na  Na24  1  0.48080650  0.30888538  0.42913276  1
  Na  Na25  1  0.98591912  0.30878873  0.42644797  1
  Na  Na26  1  0.15986707  0.03042884  0.43399508  1
  Na  Na27  1  0.67268670  0.05264847  0.42313969  1
  Na  Na28  1  0.34428413  0.65072113  0.41979220  1
  Na  Na29  1  0.85221667  0.66275255  0.42768047  1
  Na  Na30  1  0.00222865  0.98241675  0.49875126  1
  Na  Na31  1  0.50798492  0.01794188  0.50206872  1
  Na  Na32  1  0.00575216  0.99692216  0.99582273  1
  Na  Na33  1  0.50308803  0.02078520  0.99509971  1
  Na  Na34  1  0.34100958  0.33235598  0.82994219  1
  Na  Na35  1  0.82579951  0.33235142  0.82641397  1
  Na  Na36  1  0.31501264  0.32036949  0.33198241  1
  Na  Na37  1  0.84487176  0.35047516  0.33189696  1
  Na  Na38  1  0.16585577  0.66984830  0.15723219  1
  Na  Na39  1  0.66818922  0.66310161  0.16200844  1
  Na  Na40  1  0.15946861  0.67368449  0.66743184  1
  Na  Na41  1  0.66982327  0.66486340  0.65921890  1
  Zn  Zn0  1  0.01054265  0.00736374  0.35809592  1
  Zn  Zn1  1  0.50691402  0.00976232  0.33985493  1
  Zn  Zn2  1  0.00982946  0.98217292  0.82598695  1
  Zn  Zn3  1  0.51020558  0.01360894  0.85764879  1
  Zn  Zn4  1  0.32374187  0.30749433  0.67536065  1
  Zn  Zn5  1  0.83112853  0.35351335  0.67969513  1
  Zn  Zn6  1  0.31278532  0.29955229  0.16431232  1
  Zn  Zn7  1  0.82418991  0.33665927  0.17353727  1
  Zn  Zn8  1  0.33236405  0.30569260  0.99059076  1
  Zn  Zn9  1  0.82517412  0.33697490  0.99021222  1
  Zn  Zn10  1  0.32477276  0.31743529  0.49289620  1
  Zn  Zn11  1  0.83546360  0.36016947  0.49581661  1
  Zn  Zn12  1  0.16433079  0.66562044  0.02254000  1
  Zn  Zn13  1  0.65836055  0.64813152  0.00831995  1
  Zn  Zn14  1  0.15677403  0.66665204  0.50957526  1
  Zn  Zn15  1  0.66556727  0.67206833  0.52521282  1
  Zn  Zn16  1  0.66366117  0.68161549  0.31642830  1
  Zn  Zn17  1  0.15662844  0.64333287  0.81115385  1
  Si  Si0  1  0.65213525  0.00288681  0.25150106  1
  Si  Si1  1  0.15308821  0.29797418  0.75019404  1
  Si  Si2  1  0.99372242  0.67732287  0.75388828  1
  Si  Si3  1  0.47581163  0.33272214  0.58232829  1
  Si  Si4  1  0.17892772  0.01491709  0.58441091  1
  Si  Si5  1  0.69104281  0.05328567  0.58319145  1
  Si  Si6  1  0.83569269  0.64600965  0.58354956  1
  Si  Si7  1  0.97533738  0.61945369  0.08203814  1
  Si  Si8  1  0.33670100  0.02947651  0.08560729  1
  Si  Si9  1  0.18597444  0.33283644  0.08051954  1
  Si  Si10  1  0.67922816  0.34260086  0.08624623  1
  Si  Si11  1  0.51105098  0.36543603  0.91578886  1
  Si  Si12  1  0.67230692  0.97016128  0.92191971  1
  Si  Si13  1  0.17197647  0.37468904  0.42197969  1
  Si  Si14  1  0.01079030  0.65716024  0.41603006  1
  Sn  Sn0  1  0.00247065  0.98706337  0.65278256  1
  Sn  Sn1  1  0.50829249  0.02339011  0.64996590  1
  Sn  Sn2  1  0.00719898  0.99353484  0.14977119  1
  Sn  Sn3  1  0.50134888  0.00435480  0.15122746  1
  Sn  Sn4  1  0.16313059  0.65042905  0.31870221  1
  Sn  Sn5  1  0.66395726  0.67605645  0.81888054  1
  S  S0  1  0.15261663  0.98747289  0.25387781  1
  S  S1  1  0.34676955  0.70337390  0.25375118  1
  S  S2  1  0.85497691  0.71637494  0.25389635  1
  S  S3  1  0.00596100  0.29321490  0.25187858  1
  S  S4  1  0.49947255  0.30302852  0.25395429  1
  S  S5  1  0.64988009  0.31692547  0.75473904  1
  S  S6  1  0.50587143  0.71788206  0.75188986  1
  S  S7  1  0.35756009  0.99744947  0.75351451  1
  S  S8  1  0.84507322  0.98279050  0.75397482  1
  S  S9  1  0.98332175  0.32529928  0.58616320  1
  S  S10  1  0.33883503  0.64435490  0.58636444  1
  S  S11  1  0.48131052  0.63446217  0.08894477  1
  S  S12  1  0.83792085  0.03223415  0.08790887  1
  S  S13  1  0.31214566  0.66625454  0.91426795  1
  S  S14  1  0.81599293  0.67331328  0.91573816  1
  S  S15  1  0.01638530  0.36114543  0.91801003  1
  S  S16  1  0.16604270  0.95649084  0.91494695  1
  S  S17  1  0.32003604  0.96316763  0.41147429  1
  S  S18  1  0.81367105  0.96228971  0.41396636  1
  S  S19  1  0.66145673  0.37532638  0.41092757  1
  S  S20  1  0.51666291  0.67249571  0.41485278  1
  O  O0  1  0.10592636  0.98938328  0.30724824  1
  O  O1  1  0.61194343  0.03533855  0.31260471  1
  O  O2  1  0.39463361  0.79759976  0.30792712  1
  O  O3  1  0.90172125  0.81626603  0.30640365  1
  O  O4  1  0.48860579  0.20279273  0.30906234  1
  O  O5  1  0.00531153  0.19715373  0.30516229  1
  O  O6  1  0.11027434  0.19034838  0.81246232  1
  O  O7  1  0.60165684  0.22129437  0.80792832  1
  O  O8  1  0.50532509  0.81231507  0.80549754  1
  O  O9  1  0.97858304  0.75442646  0.81631848  1
  O  O10  1  0.40576855  0.99491438  0.80571077  1
  O  O11  1  0.89406927  0.98779668  0.80794603  1
  O  O12  1  0.39838424  0.97537051  0.69521208  1
  O  O13  1  0.88815570  0.97490690  0.69704754  1
  O  O14  1  0.08430150  0.20337662  0.69330725  1
  O  O15  1  0.60059306  0.23918691  0.69645058  1
  O  O16  1  0.01047535  0.80844812  0.69658543  1
  O  O17  1  0.51107697  0.81395123  0.69385320  1
  O  O18  1  0.38971564  0.80099483  0.19710402  1
  O  O19  1  0.89634629  0.82006312  0.19604980  1
  O  O20  1  0.01053481  0.20778909  0.19372333  1
  O  O21  1  0.50458267  0.21060167  0.19894035  1
  O  O22  1  0.10398225  0.97022912  0.19572575  1
  O  O23  1  0.58243170  0.95866845  0.19482217  1
  O  O24  1  0.43123603  0.37791585  0.63675052  1
  O  O25  1  0.94062842  0.33456051  0.64102674  1
  O  O26  1  0.23466854  0.08920554  0.64547112  1
  O  O27  1  0.75400396  0.14023901  0.63909736  1
  O  O28  1  0.32866224  0.54483445  0.64121745  1
  O  O29  1  0.81415847  0.51722038  0.63838992  1
  O  O30  1  0.43800837  0.54125938  0.14495059  1
  O  O31  1  0.93212997  0.48640090  0.13743776  1
  O  O32  1  0.32804529  0.12186635  0.14504703  1
  O  O33  1  0.82824662  0.10988380  0.14366093  1
  O  O34  1  0.24649307  0.38818446  0.13992878  1
  O  O35  1  0.73281568  0.37443318  0.14812694  1
  O  O36  1  0.22543690  0.28458725  0.02210513  1
  O  O37  1  0.71924373  0.29760209  0.02805635  1
  O  O38  1  0.43420380  0.54826670  0.03382961  1
  O  O39  1  0.91986205  0.55354207  0.01948860  1
  O  O40  1  0.36489810  0.14833410  0.02500453  1
  O  O41  1  0.84866505  0.13338800  0.03327545  1
  O  O42  1  0.22036786  0.13631633  0.52542407  1
  O  O43  1  0.72472337  0.16577999  0.51996681  1
  O  O44  1  0.35046672  0.56679139  0.53082701  1
  O  O45  1  0.86476995  0.58581055  0.52244344  1
  O  O46  1  0.42033298  0.29054107  0.51965054  1
  O  O47  1  0.93599828  0.31495865  0.53010757  1
  O  O48  1  0.27149953  0.68397674  0.96982399  1
  O  O49  1  0.77368520  0.67809058  0.97250839  1
  O  O50  1  0.06783988  0.44961478  0.97182422  1
  O  O51  1  0.57059010  0.43988048  0.97483484  1
  O  O52  1  0.16629512  0.86778386  0.97106825  1
  O  O53  1  0.66011292  0.85232772  0.98086423  1
  O  O54  1  0.28102490  0.86972143  0.46787951  1
  O  O55  1  0.76823337  0.85569976  0.46639726  1
  O  O56  1  0.16249136  0.47133921  0.48065186  1
  O  O57  1  0.66028972  0.46495514  0.46583614  1
  O  O58  1  0.07091612  0.70401829  0.47483582  1
  O  O59  1  0.56941865  0.68807710  0.46730999  1
  O  O60  1  0.05869491  0.61851649  0.35757516  1
  O  O61  1  0.55614542  0.66009039  0.35697015  1
  O  O62  1  0.26480164  0.87344354  0.35761455  1
  O  O63  1  0.76786021  0.88129695  0.35626190  1
  O  O64  1  0.19659259  0.50366954  0.36150247  1
  O  O65  1  0.66238267  0.46796213  0.35490910  1
  O  O66  1  0.05854586  0.45406182  0.86145011  1
  O  O67  1  0.55968554  0.50094711  0.85839911  1
  O  O68  1  0.16715121  0.86497197  0.86021101  1
  O  O69  1  0.69621388  0.88842543  0.86229894  1
  O  O70  1  0.26383793  0.65936931  0.85922976  1
  O  O71  1  0.76123408  0.65312815  0.86184172  1
  O  O72  1  0.99863101  0.82168093  0.40860355  1
  O  O73  1  0.50612768  0.82535908  0.41442772  1
  O  O74  1  0.40471099  0.97502595  0.40659503  1
  O  O75  1  0.90063282  0.98463858  0.41354388  1
  O  O76  1  0.08330182  0.19262927  0.41582381  1
  O  O77  1  0.58162179  0.20283712  0.41348370  1
  O  O78  1  0.00469606  0.18746286  0.91757825  1
  O  O79  1  0.49817721  0.17565355  0.90938814  1
  O  O80  1  0.08827152  0.97258544  0.91760413  1
  O  O81  1  0.58396070  0.97640780  0.91587297  1
  O  O82  1  0.40026449  0.81693079  0.91298989  1
  O  O83  1  0.89851030  0.83290570  0.91318291  1
  O  O84  1  0.47875019  0.15138163  0.59037611  1
  O  O85  1  0.98878880  0.16588284  0.58595474  1
  O  O86  1  0.08579209  0.00722574  0.58704412  1
  O  O87  1  0.59360119  0.03708426  0.59028275  1
  O  O88  1  0.42107800  0.81640222  0.58946308  1
  O  O89  1  0.91706429  0.84186291  0.59143540  1
  O  O90  1  0.48596059  0.80544926  0.08745816  1
  O  O91  1  0.97871771  0.80714671  0.09101547  1
  O  O92  1  0.41678501  0.99186508  0.09238239  1
  O  O93  1  0.91933926  0.02324556  0.09064885  1
  O  O94  1  0.09133126  0.15164304  0.08941425  1
  O  O95  1  0.58401379  0.16535210  0.08963864  1
  O  O96  1  0.35359176  0.15333451  0.75133593  1
  O  O97  1  0.83410481  0.13001963  0.75404128  1
  O  O98  1  0.24632579  0.31216351  0.74241530  1
  O  O99  1  0.73194721  0.32750331  0.75221623  1
  O  O100  1  0.42848347  0.55218598  0.75091501  1
  O  O101  1  0.91656740  0.48340314  0.74470444  1
  O  O102  1  0.34182665  0.53785621  0.25336658  1
  O  O103  1  0.85052840  0.55184326  0.25253945  1
  O  O104  1  0.42975550  0.33971908  0.25012924  1
  O  O105  1  0.92911628  0.30548047  0.25124667  1
  O  O106  1  0.23624039  0.14245416  0.25061082  1
  O  O107  1  0.74625029  0.17125839  0.24195614  1
  O  O108  1  0.31846264  0.51040968  0.91525405  1
  O  O109  1  0.82584619  0.52251482  0.91308194  1
  O  O110  1  0.41922871  0.35849524  0.91959441  1
  O  O111  1  0.93162108  0.34824116  0.91992454  1
  O  O112  1  0.24341055  0.12919885  0.91260687  1
  O  O113  1  0.75524892  0.16256133  0.92431678  1
  O  O114  1  0.33020002  0.13403638  0.40974518  1
  O  O115  1  0.82135422  0.13170920  0.41638885  1
  O  O116  1  0.25483173  0.34843172  0.42409834  1
  O  O117  1  0.73717308  0.35505678  0.40809469  1
  O  O118  1  0.43129074  0.51724873  0.41776825  1
  O  O119  1  0.91888931  0.48053049  0.42026556  1
  O  O120  1  0.16522234  0.48455700  0.07339267  1
  O  O121  1  0.66783052  0.50776980  0.07839365  1
  O  O122  1  0.07386996  0.66606386  0.07703556  1
  O  O123  1  0.56883854  0.66442761  0.08885471  1
  O  O124  1  0.25199871  0.84531623  0.07865676  1
  O  O125  1  0.76512345  0.85768271  0.08412089  1
  O  O126  1  0.16735558  0.82581158  0.57747319  1
  O  O127  1  0.66901387  0.85689621  0.57769102  1
  O  O128  1  0.26680454  0.67387062  0.58212039  1
  O  O129  1  0.75356489  0.66933313  0.57558991  1
  O  O130  1  0.07067949  0.47383951  0.58497018  1
  O  O131  1  0.57462529  0.48472469  0.57711578  1
  O  O132  1  0.16196137  0.83192035  0.25308664  1
  O  O133  1  0.65890037  0.82932845  0.25143540  1
  O  O134  1  0.26013303  0.68632109  0.25151749  1
  O  O135  1  0.76761827  0.69177313  0.25088378  1
  O  O136  1  0.08531382  0.46590582  0.24905411  1
  O  O137  1  0.58253800  0.46665553  0.25278654  1
  O  O138  1  0.16443974  0.48699108  0.75016601  1
  O  O139  1  0.65951523  0.49112577  0.75394948  1
  O  O140  1  0.08524802  0.68118666  0.75350391  1
  O  O141  1  0.58469604  0.70372854  0.74936308  1
  O  O142  1  0.27127562  0.84623399  0.75127439  1
  O  O143  1  0.75920134  0.81924122  0.75187007  1
loop_
_geom_bond_atom_site_label_1
_geom_bond_atom_site_label_2
_geom_bond_distance
_geom_bond_site_symmetry_2
Na0 O107 2.353471 1_555
Na0 O133 2.417895 1_545
Na0 O33 2.480923 1_555
Na0 O105 2.488877 1_555
Na0 O63 2.575172 1_545
Na0 O135 2.576508 1_545
Na1 O35 2.310073 1_555
Na1 O107 2.442581 1_555
Na1 O103 2.538779 1_555
Na1 O137 2.588134 1_555
Na1 O135 2.599509 1_555
Na1 O65 2.709834 1_555
Na2 O104 2.387598 1_555
Na2 O30 2.437323 1_555
Na2 O133 2.491919 1_555
Na2 O102 2.602875 1_555
Na2 O137 2.661614 1_555
Na2 O61 2.671503 1_555
Na2 O23 2.735815 1_555
Na3 O138 2.319121 1_555
Na3 O98 2.424469 1_555
Na3 O100 2.498726 1_555
Na3 O142 2.551125 1_555
Na3 O28 2.561490 1_555
Na3 O70 2.656075 1_555
Na4 O101 2.325738 1_455
Na4 O25 2.492245 1_455
Na4 O140 2.496635 1_555
Na4 O138 2.567922 1_555
Na4 O97 2.760034 1_455
Na4 O66 2.779687 1_555
Na4 O14 2.799182 1_555
Na5 O26 2.352845 1_565
Na5 O140 2.491414 1_555
Na5 O98 2.537042 1_565
Na5 O142 2.658266 1_555
Na5 O96 2.783696 1_565
Na5 O68 2.820745 1_555
Na5 O16 2.844507 1_555
Na6 O56 2.343859 1_555
Na6 O130 2.491716 1_555
Na6 O86 2.600517 1_555
Na6 O85 2.645359 1_455
Na6 O128 2.760044 1_555
Na6 O42 2.791053 1_555
Na6 O14 2.969267 1_555
Na7 O129 2.413141 1_555
Na7 O131 2.479514 1_555
Na7 O87 2.607445 1_555
Na7 O29 2.611875 1_555
Na7 O57 2.757106 1_555
Na7 O15 2.809399 1_555
Na7 O43 2.840796 1_555
Na8 O58 2.351958 1_555
Na8 O126 2.450903 1_555
Na8 O86 2.529069 1_565
Na8 O45 2.611316 1_455
Na8 O130 2.704262 1_555
Na8 O89 2.759238 1_455
Na8 O16 2.988282 1_555
Na9 O127 2.346865 1_555
Na9 O131 2.466233 1_555
Na9 O24 2.645624 1_555
Na9 O17 2.661371 1_555
Na9 O88 2.675404 1_555
Na9 O87 2.818699 1_565
Na9 O59 2.824352 1_555
Na10 O126 2.457007 1_555
Na10 O84 2.474414 1_565
Na10 O128 2.477241 1_555
Na10 O54 2.668936 1_555
Na10 O26 2.678745 1_565
Na10 O46 2.806202 1_565
Na10 O88 2.889935 1_555
Na10 O12 2.909177 1_555
Na11 O129 2.357702 1_555
Na11 O89 2.479775 1_555
Na11 O127 2.489934 1_555
Na11 O85 2.633039 1_565
Na11 O13 2.651897 1_555
Na11 O27 2.733353 1_565
Na11 O55 2.900776 1_555
Na12 O122 2.377582 1_555
Na12 O124 2.409571 1_555
Na12 O52 2.447057 1_554
Na12 O94 2.626730 1_565
Na12 O36 2.784475 1_565
Na12 O22 2.915368 1_555
Na12 O91 2.918366 1_455
Na13 O53 2.250779 1_554
Na13 O37 2.600637 1_565
Na13 O123 2.621462 1_555
Na13 O95 2.657512 1_565
Na13 O125 2.775650 1_555
Na13 O90 2.780521 1_555
Na14 O124 2.367161 1_555
Na14 O92 2.476671 1_555
Na14 O120 2.482742 1_555
Na14 O48 2.631786 1_554
Na14 O90 2.658168 1_555
Na14 O34 2.669273 1_555
Na14 O18 2.825373 1_555
Na15 O49 2.452773 1_554
Na15 O91 2.457672 1_555
Na15 O121 2.490060 1_555
Na15 O125 2.517879 1_555
Na15 O39 2.686684 1_555
Na15 O35 2.854030 1_555
Na15 O93 2.860739 1_565
Na16 O120 2.320618 1_555
Na16 O122 2.465722 1_555
Na16 O50 2.590062 1_554
Na16 O93 2.680372 1_455
Na16 O31 2.689506 1_455
Na16 O20 2.793869 1_555
Na16 O94 2.814330 1_555
Na16 O41 2.953375 1_455
Na17 O51 2.231090 1_554
Na17 O40 2.496268 1_555
Na17 O121 2.497252 1_555
Na17 O95 2.525930 1_555
Na17 O123 2.749117 1_555
Na17 O92 2.751672 1_545
Na18 O110 2.420865 1_555
Na18 O81 2.507783 1_555
Na18 O82 2.574901 1_555
Na18 O108 2.638069 1_555
Na18 O38 2.675235 1_556
Na18 O67 2.838382 1_555
Na18 O8 2.842495 1_555
Na19 O9 2.340842 1_555
Na19 O109 2.401741 1_555
Na19 O111 2.510845 1_555
Na19 O39 2.534128 1_556
Na19 O80 2.566986 1_655
Na19 O83 2.658571 1_555
Na20 O79 2.334404 1_555
Na20 O40 2.365408 1_556
Na20 O112 2.518607 1_555
Na20 O110 2.530630 1_555
Na20 O82 2.622684 1_545
Na21 O111 2.412344 1_555
Na21 O113 2.441516 1_555
Na21 O78 2.483833 1_655
Na21 O83 2.539158 1_545
Na21 O11 2.576277 1_545
Na21 O69 2.634679 1_545
Na21 O41 2.821288 1_556
Na22 O108 2.469735 1_555
Na22 O6 2.477343 1_555
Na22 O112 2.482715 1_555
Na22 O80 2.508476 1_545
Na22 O36 2.613011 1_556
Na22 O78 2.628489 1_555
Na23 O37 2.364441 1_556
Na23 O113 2.485581 1_555
Na23 O81 2.515689 1_545
Na23 O109 2.658852 1_555
Na23 O79 2.706970 1_555
Na23 O51 2.836847 1_555
Na23 O7 2.906383 1_555
Na24 O46 2.249670 1_555
Na24 O114 2.428341 1_555
Na24 O77 2.503227 1_555
Na24 O118 2.505592 1_555
Na24 O74 2.694623 1_545
Na24 O4 2.858682 1_555
Na24 O57 2.961232 1_555
Na25 O119 2.438834 1_555
Na25 O47 2.477598 1_555
Na25 O76 2.503930 1_655
Na25 O75 2.582963 1_545
Na25 O115 2.611483 1_555
Na25 O60 2.885708 1_655
Na25 O5 2.956941 1_655
Na26 O42 2.280999 1_555
Na26 O76 2.537410 1_555
Na26 O116 2.539774 1_555
Na26 O72 2.644934 1_445
Na26 O58 2.737263 1_545
Na26 O114 2.809565 1_555
Na26 O0 2.940073 1_545
Na27 O43 2.366846 1_555
Na27 O117 2.425730 1_555
Na27 O115 2.438849 1_555
Na27 O77 2.651534 1_555
Na27 O1 2.664272 1_555
Na27 O73 2.694339 1_545
Na28 O116 2.405988 1_555
Na28 O118 2.448216 1_555
Na28 O73 2.560060 1_555
Na28 O44 2.596351 1_555
Na28 O74 2.612754 1_555
Na28 O64 2.671701 1_555
Na28 O2 2.743254 1_555
Na29 O45 2.263138 1_555
Na29 O72 2.350462 1_555
Na29 O119 2.521139 1_555
Na29 O117 2.567414 1_555
Na29 O75 2.636184 1_555
Na30 O86 2.426379 1_565
Na30 O72 2.462405 1_455
Na30 O89 2.498855 1_455
Na30 O76 2.525131 1_565
Na30 O85 2.651392 1_465
Na30 O75 2.661541 1_455
Na31 O87 2.459638 1_555
Na31 O77 2.491436 1_555
Na31 O84 2.501149 1_555
Na31 O88 2.587249 1_545
Na31 O73 2.612235 1_545
Na31 O74 2.734878 1_545
Na32 O80 2.375397 1_555
Na32 O78 2.467324 1_565
Na32 O83 2.552357 1_455
Na32 O94 2.558747 1_566
Na32 O91 2.614792 1_456
Na32 O93 2.705308 1_466
Na33 O79 2.399233 1_555
Na33 O81 2.452247 1_545
Na33 O95 2.525766 1_556
Na33 O92 2.597774 1_546
Na33 O82 2.611672 1_545
Na33 O90 2.747337 1_546
Na34 O110 2.392886 1_555
Na34 O96 2.480456 1_555
Na34 O100 2.530675 1_555
Na34 O98 2.549012 1_555
Na34 O112 2.573187 1_555
Na34 O108 2.659725 1_555
Na35 O99 2.365802 1_555
Na35 O101 2.366454 1_555
Na35 O97 2.512545 1_555
Na35 O109 2.592302 1_555
Na35 O113 2.595315 1_555
Na35 O111 2.794205 1_555
Na36 O106 2.374001 1_555
Na36 O116 2.388110 1_555
Na36 O102 2.500332 1_555
Na36 O114 2.538317 1_555
Na36 O104 2.703565 1_555
Na36 O118 2.748398 1_555
Na37 O119 2.340850 1_555
Na37 O103 2.512354 1_555
Na37 O105 2.519640 1_555
Na37 O117 2.603948 1_555
Na37 O115 2.613369 1_555
Na37 O107 2.638720 1_555
Na38 O124 2.348383 1_555
Na38 O122 2.440099 1_555
Na38 O120 2.512334 1_555
Na38 O132 2.612051 1_555
Na38 O136 2.644497 1_555
Na38 O134 2.669430 1_555
Na39 O121 2.333719 1_555
Na39 O123 2.444467 1_555
Na39 O125 2.465903 1_555
Na39 O133 2.555358 1_555
Na39 O135 2.607734 1_555
Na39 O137 2.619658 1_555
Na40 O140 2.355844 1_555
Na40 O126 2.393415 1_555
Na40 O130 2.520638 1_555
Na40 O138 2.540125 1_555
Na40 O142 2.627247 1_555
Na40 O128 2.717371 1_555
Na41 O129 2.384714 1_555
Na41 O131 2.488463 1_555
Na41 O127 2.526848 1_555
Na41 O143 2.565444 1_555
Na41 O139 2.581885 1_555
Na41 O141 2.658141 1_555
O0 S0 1.460084 1_555
O0 Zn0 2.146965 1_565
O1 Si0 1.634287 1_555
O1 Zn1 1.908748 1_555
O2 S1 1.482747 1_555
O2 Zn1 2.117373 1_565
O3 S2 1.463128 1_555
O3 Zn0 2.200830 1_665
O4 S4 1.478704 1_555
O4 Zn1 2.075483 1_555
O5 S3 1.468730 1_555
O5 Zn0 2.139808 1_555
O6 Si1 1.642707 1_555
O6 Zn2 1.887865 1_545
O7 S5 1.464245 1_555
O7 Zn3 2.098705 1_555
O8 S6 1.472123 1_555
O8 Zn3 2.140275 1_565
O9 Si2 1.637430 1_555
O9 Zn2 1.878321 1_655
O10 S7 1.464258 1_555
O10 Zn3 2.165733 1_565
O11 S8 1.483901 1_555
O11 Zn2 2.182191 1_655
O12 S7 1.551978 1_555
O12 Sn1 2.079996 1_565
O13 S8 1.504434 1_555
O13 Sn0 2.256010 1_655
O14 Si1 1.683932 1_555
O14 Sn0 1.998838 1_545
O15 S5 1.532704 1_555
O15 Sn1 2.114091 1_555
O16 Si2 1.665465 1_455
O16 Sn0 1.971329 1_555
O17 S6 1.533186 1_555
O17 Sn1 2.175298 1_565
O18 S1 1.507669 1_555
O18 Sn3 2.194628 1_565
O19 S2 1.543474 1_555
O19 Sn2 2.101722 1_655
O20 S3 1.530889 1_555
O20 Sn2 2.165067 1_545
O21 S4 1.513070 1_555
O21 Sn3 2.140451 1_555
O22 S0 1.530769 1_555
O22 Sn2 2.147626 1_555
O23 Si0 1.690647 1_565
O23 Sn3 1.986453 1_565
O24 Si3 1.618639 1_555
O24 Zn4 1.927800 1_555
O25 S9 1.466578 1_555
O25 Zn5 2.260170 1_555
O26 Si4 1.625952 1_555
O26 Zn4 1.953740 1_555
O27 Si5 1.606605 1_555
O27 Zn5 1.962006 1_555
O28 S10 1.472776 1_555
O28 Zn4 2.261574 1_555
O29 Si6 1.596935 1_555
O29 Zn5 1.912409 1_555
O30 S11 1.484442 1_555
O30 Zn6 2.282406 1_555
O31 Si7 1.623498 1_555
O31 Zn7 1.916166 1_555
O32 Si8 1.614932 1_555
O32 Zn6 1.835744 1_555
O33 S12 1.478876 1_555
O33 Zn7 2.217913 1_555
O34 Si9 1.631020 1_555
O34 Zn6 1.849632 1_555
O35 Si10 1.627085 1_555
O35 Zn7 1.954834 1_555
O36 Si9 1.644061 1_555
O36 Zn8 1.988442 1_554
O37 Si10 1.631492 1_555
O37 Zn9 1.965954 1_554
O38 S11 1.476193 1_555
O38 Zn8 2.273402 1_554
O39 Si7 1.645487 1_555
O39 Zn9 1.975398 1_554
O40 Si8 1.637326 1_555
O40 Zn8 1.971128 1_554
O41 S12 1.475169 1_555
O41 Zn9 2.321454 1_554
O42 Si4 1.630652 1_555
O42 Zn10 1.926172 1_555
O43 Si5 1.659598 1_555
O43 Zn11 1.977874 1_555
O44 S10 1.487722 1_555
O44 Zn10 2.251814 1_555
O45 Si6 1.645461 1_555
O45 Zn11 1.948673 1_555
O46 Si3 1.650078 1_555
O46 Zn10 1.977411 1_555
O47 S9 1.492039 1_555
O47 Zn11 2.215941 1_555
O48 S13 1.485170 1_555
O48 Zn12 2.208654 1_556
O49 S14 1.485286 1_555
O49 Zn13 2.133646 1_556
O50 S15 1.484532 1_555
O50 Zn12 2.188415 1_556
O51 Si11 1.620067 1_555
O51 Zn13 1.920982 1_556
O52 S16 1.486485 1_555
O52 Zn12 2.160344 1_556
O53 Si12 1.635419 1_555
O53 Zn13 1.952802 1_556
O54 S17 1.475856 1_555
O54 Zn14 2.279097 1_555
O55 S18 1.471468 1_555
O55 Zn15 2.200899 1_555
O56 Si13 1.629686 1_555
O56 Zn14 1.953052 1_555
O57 S19 1.473521 1_555
O57 Zn15 2.271226 1_555
O58 Si14 1.620576 1_555
O58 Zn14 1.930896 1_555
O59 S20 1.473808 1_555
O59 Zn15 2.244743 1_555
O60 Si14 1.694404 1_555
O60 Sn4 1.973663 1_555
O61 S20 1.500476 1_555
O61 Zn16 2.074399 1_555
O62 S17 1.514069 1_555
O62 Sn4 2.135176 1_555
O63 S18 1.506128 1_555
O63 Zn16 2.063126 1_555
O64 Si13 1.688671 1_555
O64 Sn4 1.979513 1_555
O65 S19 1.498523 1_555
O65 Zn16 2.125048 1_555
O66 S15 1.489038 1_555
O66 Zn17 2.076062 1_555
O67 Si11 1.680525 1_555
O67 Sn5 1.968573 1_555
O68 S16 1.479928 1_555
O68 Zn17 2.225302 1_555
O69 Si12 1.679454 1_555
O69 Sn5 1.976999 1_555
O70 S13 1.491229 1_555
O70 Zn17 2.174368 1_555
O71 S14 1.511892 1_555
O71 Sn5 2.122984 1_555
O72 Si14 1.639920 1_655
O72 Zn0 1.954274 1_665
O73 S20 1.507611 1_555
O73 Zn1 2.357946 1_565
O74 S17 1.500011 1_555
O74 Zn1 2.270008 1_565
O75 S18 1.497477 1_555
O75 Zn0 2.268426 1_665
O76 Si13 1.644776 1_555
O76 Zn0 2.006191 1_555
O77 S19 1.518281 1_555
O77 Zn1 2.288793 1_555
O78 S15 1.495667 1_555
O79 Si11 1.639771 1_555
O79 Zn3 1.973443 1_555
O80 S16 1.502979 1_555
O80 Zn2 2.517185 1_555
O81 Si12 1.651335 1_555
O81 Zn3 2.019490 1_565
O82 S13 1.503185 1_555
O82 Zn3 2.261634 1_565
O83 S14 1.480769 1_555
O84 Si3 1.699366 1_555
O84 Sn1 2.013920 1_555
O85 S9 1.514153 1_555
O85 Sn0 2.314468 1_645
O86 Si4 1.669536 1_555
O86 Sn0 2.042161 1_545
O87 Si5 1.718321 1_555
O87 Sn1 1.994907 1_555
O88 S10 1.536895 1_555
O88 Sn1 2.214902 1_565
O89 Si6 1.665905 1_555
O89 Sn0 1.994767 1_655
O90 S11 1.526536 1_555
O90 Sn3 2.209838 1_565
O91 Si7 1.701783 1_555
O91 Sn2 1.997891 1_655
O92 Si8 1.672640 1_565
O92 Sn3 1.985714 1_565
O93 S12 1.533651 1_555
O93 Sn2 2.197983 1_645
O94 Si9 1.699968 1_555
O94 Sn2 1.996394 1_545
O95 Si10 1.679931 1_555
O95 Sn3 2.013371 1_555
O96 S7 1.467636 1_545
O96 Zn4 2.431542 1_555
O97 S8 1.461021 1_545
O98 Si1 1.651520 1_555
O98 Zn4 2.062189 1_555
O99 S5 1.455135 1_555
O99 Zn5 2.337171 1_555
O100 S6 1.463582 1_555
O101 Si2 1.632286 1_555
O101 Zn5 2.018814 1_555
O102 S1 1.473680 1_555
O103 S2 1.469102 1_555
O103 Zn7 2.496462 1_555
O104 S4 1.476284 1_555
O105 S3 1.465379 1_655
O106 S0 1.472896 1_545
O106 Zn6 2.372131 1_555
O107 Si0 1.644955 1_555
O107 Zn7 2.103755 1_555
O108 S13 1.490298 1_555
O109 S14 1.482475 1_555
O109 Zn9 2.406017 1_555
O110 Si11 1.649804 1_555
O110 Zn8 2.104910 1_555
O111 S15 1.494379 1_655
O111 Zn9 2.447810 1_555
O112 S16 1.500161 1_545
O112 Zn8 2.370022 1_555
O113 Si12 1.648023 1_545
O113 Zn9 2.067704 1_555
O114 S17 1.481669 1_545
O114 Zn10 2.528399 1_555
O115 S18 1.488019 1_545
O116 Si13 1.650651 1_555
O116 Zn10 2.103023 1_555
O117 S19 1.488129 1_555
O118 S20 1.491487 1_555
O118 Zn10 2.507545 1_555
O119 Si14 1.645677 1_655
O119 Zn11 2.149939 1_555
O120 Si9 1.623586 1_555
O120 Zn12 2.012606 1_555
O121 Si10 1.638458 1_555
O121 Zn13 2.078645 1_555
O122 Si7 1.631964 1_455
O122 Zn12 2.044812 1_555
O123 S11 1.481252 1_555
O123 Zn13 2.470331 1_555
O124 Si8 1.623904 1_565
O124 Zn12 2.045044 1_555
O125 S12 1.480400 1_565
O125 Zn13 2.562484 1_555
O126 Si4 1.644158 1_565
O126 Zn14 2.035756 1_555
O127 Si5 1.639070 1_565
O127 Zn15 2.029165 1_555
O128 S10 1.475784 1_555
O128 Zn14 2.555413 1_555
O129 Si6 1.630642 1_555
O129 Zn15 1.972932 1_555
O130 S9 1.487304 1_455
O130 Zn14 2.357679 1_555
O131 Si3 1.636538 1_555
O131 Zn15 2.034000 1_555
O132 S0 1.519311 1_555
O132 Sn4 2.217148 1_555
O133 Si0 1.656735 1_565
O133 Zn16 2.008121 1_555
O134 S1 1.512637 1_555
O134 Sn4 2.203466 1_555
O135 S2 1.498391 1_555
O135 Zn16 2.350615 1_555
O136 S3 1.515701 1_555
O136 Sn4 2.203841 1_555
O137 S4 1.503005 1_555
O137 Zn16 2.267150 1_555
O138 Si1 1.637709 1_555
O138 Zn17 2.025496 1_555
O139 S5 1.515638 1_555
O139 Sn5 2.193055 1_555
O140 Si2 1.656201 1_455
O140 Zn17 1.981621 1_555
O141 S6 1.511910 1_555
O141 Sn5 2.219717 1_555
O142 S7 1.485910 1_555
O142 Zn17 2.377756 1_555
O143 S8 1.530187 1_555
O143 Sn5 2.151351 1_555
