# generated using pymatgen
data_Na5Y3TaSiP5O24
_symmetry_space_group_name_H-M   'P 1'
_cell_length_a   9.24211602
_cell_length_b   9.24856095
_cell_length_c   23.37746008
_cell_angle_alpha   90.00476073
_cell_angle_beta   89.99362727
_cell_angle_gamma   120.16022640
_symmetry_Int_Tables_number   1
_chemical_formula_structural   Na5Y3TaSiP5O24
_chemical_formula_sum   'Na15 Y9 Ta3 Si3 P15 O72'
_cell_volume   1727.70693327
_cell_formula_units_Z   3
loop_
 _symmetry_equiv_pos_site_id
 _symmetry_equiv_pos_as_xyz
  1  'x, y, z'
loop_
 _atom_site_type_symbol
 _atom_site_label
 _atom_site_symmetry_multiplicity
 _atom_site_fract_x
 _atom_site_fract_y
 _atom_site_fract_z
 _atom_site_occupancy
  Na  Na0  1  0.63791968  0.99995710  0.25182979  1
  Na  Na1  1  0.36129174  0.36066508  0.25075494  1
  Na  Na2  1  0.00125143  0.63902389  0.25122754  1
  Na  Na3  1  0.30897422  0.34212277  0.58728815  1
  Na  Na4  1  0.03188774  0.69899231  0.58391431  1
  Na  Na5  1  0.66362419  0.96066827  0.58425048  1
  Na  Na6  1  0.29658187  0.95795616  0.07791573  1
  Na  Na7  1  0.97758356  0.67774099  0.91486981  1
  Na  Na8  1  0.69627327  0.02049176  0.91264285  1
  Na  Na9  1  0.99562105  0.99556402  0.49720826  1
  Na  Na10  1  0.00960899  0.01893347  0.99658237  1
  Na  Na11  1  0.65458760  0.33132089  0.82588338  1
  Na  Na12  1  0.66641737  0.33113413  0.33779061  1
  Na  Na13  1  0.33268481  0.65460227  0.16217774  1
  Na  Na14  1  0.34194592  0.66518772  0.67200671  1
  Y  Y0  1  0.99979476  0.99971009  0.35457555  1
  Y  Y1  1  0.00928218  0.00916911  0.84905747  1
  Y  Y2  1  0.99738238  0.99754294  0.65477065  1
  Y  Y3  1  0.99227459  0.00052900  0.14346102  1
  Y  Y4  1  0.66593307  0.33543420  0.68840795  1
  Y  Y5  1  0.67068138  0.33716979  0.18138404  1
  Y  Y6  1  0.33088147  0.65544383  0.01706091  1
  Y  Y7  1  0.33561305  0.66673303  0.51310186  1
  Y  Y8  1  0.33393446  0.66719256  0.32432516  1
  Ta  Ta0  1  0.66522892  0.33319555  0.97846680  1
  Ta  Ta1  1  0.66769004  0.33842040  0.48130642  1
  Ta  Ta2  1  0.32919400  0.66592188  0.81694980  1
  Si  Si0  1  0.66799696  0.62732121  0.58247569  1
  Si  Si1  1  0.03456255  0.37207535  0.91697173  1
  Si  Si2  1  0.33646555  0.96020286  0.91937912  1
  P  P0  1  0.29542167  0.99752956  0.24823499  1
  P  P1  1  0.70158784  0.70433209  0.25037130  1
  P  P2  1  0.00276419  0.29804323  0.25032963  1
  P  P3  1  0.30174327  0.31332749  0.75058582  1
  P  P4  1  0.01008541  0.69984345  0.75317114  1
  P  P5  1  0.68810991  0.98864995  0.75313597  1
  P  P6  1  0.95307519  0.33203311  0.58097872  1
  P  P7  1  0.37898214  0.04690692  0.58101386  1
  P  P8  1  0.95911191  0.62743635  0.08061993  1
  P  P9  1  0.66786173  0.04585927  0.08022966  1
  P  P10  1  0.37787314  0.33089047  0.08201397  1
  P  P11  1  0.62056710  0.65810387  0.91570495  1
  P  P12  1  0.63782169  0.98086308  0.41886893  1
  P  P13  1  0.34170089  0.36233391  0.41897236  1
  P  P14  1  0.02169773  0.65830509  0.41912143  1
  O  O0  1  0.20850847  0.02497019  0.29961252  1
  O  O1  1  0.81242307  0.78664774  0.30275696  1
  O  O2  1  0.97354564  0.18682104  0.30266789  1
  O  O3  1  0.20911754  0.19873679  0.80067855  1
  O  O4  1  0.98774052  0.78430893  0.80581059  1
  O  O5  1  0.79506892  0.00885056  0.80572331  1
  O  O6  1  0.76587331  0.96307776  0.69718266  1
  O  O7  1  0.20254213  0.24243050  0.69358038  1
  O  O8  1  0.03878390  0.80358352  0.69738104  1
  O  O9  1  0.78327482  0.81334108  0.19670937  1
  O  O10  1  0.02934299  0.21656708  0.19655549  1
  O  O11  1  0.19208495  0.97203830  0.19282890  1
  O  O12  1  0.87520706  0.35921965  0.63424984  1
  O  O13  1  0.48701930  0.11999643  0.63411910  1
  O  O14  1  0.63326466  0.50667786  0.63608189  1
  O  O15  1  0.88117439  0.53550102  0.13681305  1
  O  O16  1  0.65001469  0.12367006  0.13594349  1
  O  O17  1  0.46689032  0.34352305  0.13870104  1
  O  O18  1  0.48746278  0.32284766  0.03043372  1
  O  O19  1  0.84429927  0.52263193  0.02816600  1
  O  O20  1  0.67890971  0.16286181  0.02756876  1
  O  O21  1  0.47819295  0.16159116  0.52809818  1
  O  O22  1  0.68547341  0.51826121  0.52648810  1
  O  O23  1  0.83713357  0.31256455  0.52797503  1
  O  O24  1  0.55209416  0.69815656  0.96895898  1
  O  O25  1  0.14304265  0.45151969  0.97286889  1
  O  O26  1  0.31198743  0.85765678  0.97737717  1
  O  O27  1  0.55095965  0.87205819  0.47154319  1
  O  O28  1  0.32072927  0.44836165  0.47180749  1
  O  O29  1  0.12744384  0.67909838  0.47223179  1
  O  O30  1  0.09809150  0.63020615  0.36398559  1
  O  O31  1  0.53298415  0.90365662  0.36358563  1
  O  O32  1  0.37159519  0.46755612  0.36390290  1
  O  O33  1  0.13799543  0.50379639  0.86234144  1
  O  O34  1  0.37081481  0.85865817  0.86522878  1
  O  O35  1  0.50292891  0.63089614  0.86355258  1
  O  O36  1  0.99566719  0.80845138  0.41441785  1
  O  O37  1  0.81317660  0.00351281  0.41443043  1
  O  O38  1  0.19065289  0.18613861  0.41440550  1
  O  O39  1  0.98169695  0.17840858  0.90984148  1
  O  O40  1  0.17139014  0.97439034  0.91036400  1
  O  O41  1  0.79932307  0.80425841  0.90645473  1
  O  O42  1  0.96554413  0.17052188  0.58366504  1
  O  O43  1  0.20823424  0.04169087  0.58412196  1
  O  O44  1  0.84297170  0.80915576  0.58408145  1
  O  O45  1  0.97475180  0.80256035  0.07940128  1
  O  O46  1  0.82774708  0.03460160  0.07884154  1
  O  O47  1  0.21052277  0.16212822  0.07957522  1
  O  O48  1  0.66235724  0.13957625  0.74839081  1
  O  O49  1  0.47806652  0.33681643  0.74832821  1
  O  O50  1  0.86124907  0.52164054  0.74833136  1
  O  O51  1  0.68041353  0.52646320  0.24579505  1
  O  O52  1  0.84614150  0.31959645  0.24577452  1
  O  O53  1  0.47485644  0.15408743  0.24529327  1
  O  O54  1  0.63706487  0.49667342  0.92565473  1
  O  O55  1  0.84990176  0.37180669  0.92561975  1
  O  O56  1  0.51391189  0.14880770  0.92657174  1
  O  O57  1  0.65084723  0.15598883  0.42731593  1
  O  O58  1  0.50426291  0.34791880  0.42736955  1
  O  O59  1  0.84555251  0.49331451  0.42690516  1
  O  O60  1  0.35747529  0.48461466  0.07856713  1
  O  O61  1  0.13710358  0.65217927  0.07827940  1
  O  O62  1  0.50617092  0.87536298  0.07624399  1
  O  O63  1  0.34849550  0.86728314  0.57354415  1
  O  O64  1  0.50548265  0.65294365  0.57677701  1
  O  O65  1  0.12959066  0.48756919  0.57410177  1
  O  O66  1  0.31276268  0.83845179  0.25536669  1
  O  O67  1  0.52400714  0.68495690  0.25602741  1
  O  O68  1  0.16167652  0.47548156  0.25610865  1
  O  O69  1  0.31524906  0.48890811  0.76180226  1
  O  O70  1  0.17601428  0.68947443  0.76228235  1
  O  O71  1  0.51211367  0.82371007  0.76171480  1
loop_
_geom_bond_atom_site_label_1
_geom_bond_atom_site_label_2
_geom_bond_distance
_geom_bond_site_symmetry_2
Na0 O53 2.546627 1_565
Na0 O67 2.554093 1_555
Na0 O52 2.597318 1_565
Na0 O66 2.599673 1_555
Na0 O31 2.773299 1_555
Na0 O16 2.921115 1_565
Na0 O2 2.938490 1_565
Na0 O9 2.961928 1_555
Na1 O68 2.552499 1_555
Na1 O51 2.553234 1_555
Na1 O67 2.596133 1_555
Na1 O53 2.604420 1_555
Na1 O32 2.808562 1_555
Na1 O17 2.827442 1_555
Na1 O0 2.921060 1_555
Na1 O10 2.947160 1_555
Na2 O66 2.522742 1_555
Na2 O52 2.557988 1_455
Na2 O68 2.598572 1_555
Na2 O51 2.605888 1_455
Na2 O30 2.798226 1_555
Na2 O15 2.869661 1_455
Na2 O1 2.958769 1_455
Na2 O11 3.000350 1_555
Na3 O43 2.448106 1_555
Na3 O64 2.525141 1_555
Na3 O65 2.625681 1_555
Na3 O7 2.660946 1_555
Na3 O42 2.745658 1_455
Na3 O14 2.831460 1_555
Na3 O28 2.856294 1_555
Na4 O44 2.423643 1_455
Na4 O65 2.542736 1_555
Na4 O63 2.543032 1_555
Na4 O43 2.740657 1_565
Na4 O29 2.791600 1_555
Na4 O8 2.813098 1_555
Na5 O64 2.467120 1_555
Na5 O42 2.472119 1_565
Na5 O63 2.600675 1_555
Na5 O44 2.654237 1_555
Na5 O27 2.800151 1_555
Na5 O6 2.800511 1_555
Na5 O13 2.934386 1_565
Na6 O47 2.389336 1_565
Na6 O62 2.413288 1_555
Na6 O61 2.445744 1_555
Na6 O26 2.556779 1_554
Na6 O45 2.572597 1_455
Na6 O11 2.879594 1_555
Na7 O40 2.410110 1_655
Na7 O41 2.461566 1_555
Na7 O55 2.471127 1_555
Na7 O4 2.718034 1_555
Na7 O54 2.734302 1_555
Na7 O33 2.947837 1_655
Na7 O19 2.968923 1_556
Na8 O39 2.285742 1_555
Na8 O56 2.522815 1_555
Na8 O41 2.615563 1_545
Na8 O5 2.681618 1_555
Na8 O34 2.827196 1_545
Na8 O55 2.833605 1_555
Na8 O24 2.899076 1_545
Na8 O20 3.031397 1_556
Na9 O44 2.577394 1_555
Na9 O37 2.592034 1_565
Na9 O36 2.596301 1_555
Na9 O38 2.628690 1_665
Na9 O42 2.689210 1_565
Na9 O43 2.707380 1_665
Na10 O47 2.548611 1_556
Na10 O39 2.595526 1_455
Na10 O46 2.605377 1_456
Na10 O40 2.661950 1_545
Na10 O45 2.685055 1_446
Na10 O41 2.877712 1_445
Na11 O49 2.456676 1_555
Na11 O48 2.561090 1_555
Na11 O50 2.579674 1_555
Na11 O56 2.806235 1_555
Na11 O54 2.837812 1_555
Na11 O55 2.855967 1_555
Na12 O57 2.605953 1_555
Na12 O59 2.614527 1_555
Na12 O58 2.624583 1_555
Na12 O52 2.752258 1_555
Na12 O53 2.752933 1_555
Na12 O51 2.769688 1_555
Na13 O60 2.589582 1_555
Na13 O61 2.659842 1_555
Na13 O68 2.726356 1_555
Na13 O62 2.735990 1_555
Na13 O67 2.742420 1_555
Na13 O66 2.825757 1_555
Na14 O71 2.589249 1_555
Na14 O69 2.592627 1_555
Na14 O70 2.683550 1_555
Na14 O64 2.724796 1_555
Na14 O65 2.923967 1_555
Na14 O63 2.946603 1_555
O0 P0 1.535187 1_545
O0 Y0 2.230041 1_445
O1 P1 1.531384 1_555
O1 Y0 2.218201 1_555
O2 P2 1.532673 1_655
O2 Y0 2.224473 1_545
O3 P3 1.521739 1_555
O3 Y1 2.123703 1_555
O4 P4 1.526141 1_655
O4 Y1 2.229415 1_665
O5 P5 1.529074 1_545
O5 Y1 2.222699 1_655
O6 P5 1.566520 1_555
O6 Y2 2.230906 1_555
O7 P3 1.562851 1_555
O7 Y2 2.287530 1_445
O8 P4 1.560873 1_555
O8 Y2 2.246475 1_455
O9 P1 1.547671 1_555
O9 Y3 2.217514 1_565
O10 P2 1.547333 1_555
O10 Y3 2.227557 1_455
O11 P0 1.555429 1_555
O11 Y3 2.302397 1_465
O12 P6 1.521051 1_555
O12 Y4 2.228047 1_555
O13 P7 1.522195 1_555
O13 Y4 2.237042 1_555
O14 Si0 1.599593 1_555
O14 Y4 2.139318 1_555
O15 P8 1.533636 1_555
O15 Y5 2.156160 1_555
O16 P9 1.536401 1_555
O16 Y5 2.164385 1_555
O17 P10 1.533063 1_555
O17 Y5 2.158276 1_555
O18 P10 1.600246 1_555
O18 Ta0 2.006451 1_554
O19 P8 1.592399 1_555
O19 Ta0 2.060318 1_554
O20 P9 1.608135 1_555
O20 Ta0 2.003946 1_554
O21 P7 1.587047 1_555
O21 Ta1 2.014994 1_555
O22 Si0 1.708795 1_555
O22 Ta1 1.906347 1_555
O23 P6 1.588196 1_555
O23 Ta1 2.019053 1_555
O24 P11 1.524102 1_555
O24 Y6 2.188252 1_556
O25 Si1 1.585088 1_555
O25 Y6 2.085226 1_556
O26 Si2 1.604220 1_555
O26 Y6 2.171906 1_556
O27 P12 1.536766 1_555
O27 Y7 2.170997 1_555
O28 P13 1.533277 1_555
O28 Y7 2.179508 1_555
O29 P14 1.531353 1_555
O29 Y7 2.202031 1_555
O30 P14 1.552899 1_555
O30 Y8 2.231158 1_555
O31 P12 1.556871 1_555
O31 Y8 2.228627 1_555
O32 P13 1.552636 1_555
O32 Y8 2.243283 1_555
O33 Si1 1.690778 1_555
O33 Ta2 1.958134 1_555
O34 Si2 1.698400 1_555
O34 Ta2 1.977369 1_555
O35 P11 1.567527 1_555
O35 Ta2 2.095985 1_555
O36 P14 1.527745 1_655
O36 Y0 2.240544 1_555
O37 P12 1.529702 1_545
O37 Y0 2.234795 1_545
O38 P13 1.526368 1_555
O38 Y0 2.232635 1_445
O39 Si1 1.610989 1_655
O39 Y1 2.221400 1_655
O40 Si2 1.609490 1_555
O40 Y1 2.210646 1_565
O41 P11 1.536000 1_555
O41 Y1 2.337085 1_665
O42 P6 1.556114 1_555
O42 Y2 2.425423 1_545
O43 P7 1.556084 1_555
O43 Y2 2.427308 1_445
O44 Si0 1.646806 1_555
O44 Y2 2.303187 1_555
O45 P8 1.552326 1_555
O45 Y3 2.307126 1_565
O46 P9 1.532975 1_555
O46 Y3 2.274991 1_555
O47 P10 1.551073 1_555
O47 Y3 2.345907 1_455
O48 P5 1.533368 1_545
O48 Y4 2.277901 1_555
O49 P3 1.532916 1_555
O49 Y4 2.235800 1_555
O50 P4 1.530756 1_655
O50 Y4 2.250133 1_555
O51 P1 1.559603 1_555
O51 Y5 2.276336 1_555
O52 P2 1.560891 1_655
O52 Y5 2.277582 1_555
O53 P0 1.561592 1_545
O53 Y5 2.301136 1_555
O54 P11 1.592234 1_555
O54 Ta0 2.067318 1_555
O55 Si1 1.717328 1_655
O55 Ta0 1.988475 1_555
O56 Si2 1.698818 1_545
O56 Ta0 1.984768 1_555
O57 P12 1.575061 1_545
O57 Ta1 2.049342 1_555
O58 P13 1.585846 1_555
O58 Ta1 2.003177 1_555
O59 P14 1.586069 1_655
O59 Ta1 2.001329 1_555
O60 P10 1.527313 1_555
O60 Y6 2.239344 1_555
O61 P8 1.543752 1_455
O61 Y6 2.280689 1_555
O62 P9 1.536382 1_565
O62 Y6 2.316175 1_555
O63 P7 1.548964 1_565
O63 Y7 2.286633 1_555
O64 Si0 1.639369 1_555
O64 Y7 2.213274 1_555
O65 P6 1.548672 1_455
O65 Y7 2.287834 1_555
O66 P0 1.566847 1_555
O66 Y8 2.336179 1_555
O67 P1 1.564493 1_555
O67 Y8 2.317656 1_555
O68 P2 1.564126 1_555
O68 Y8 2.320584 1_555
O69 P3 1.586677 1_555
O69 Ta2 2.036299 1_555
O70 P4 1.598168 1_555
O70 Ta2 1.998809 1_555
O71 P5 1.587353 1_555
O71 Ta2 2.043469 1_555
