# generated using pymatgen
data_LiFe(PO3)4
_symmetry_space_group_name_H-M   'P 1'
_cell_length_a   7.00978397
_cell_length_b   7.00978397
_cell_length_c   9.61674460
_cell_angle_alpha   88.83306369
_cell_angle_beta   88.83306369
_cell_angle_gamma   109.49071347
_symmetry_Int_Tables_number   1
_chemical_formula_structural   LiFe(PO3)4
_chemical_formula_sum   'Li2 Fe2 P8 O24'
_cell_volume   445.18275833
_cell_formula_units_Z   2
loop_
 _symmetry_equiv_pos_site_id
 _symmetry_equiv_pos_as_xyz
  1  'x, y, z'
loop_
 _atom_site_type_symbol
 _atom_site_label
 _atom_site_symmetry_multiplicity
 _atom_site_fract_x
 _atom_site_fract_y
 _atom_site_fract_z
 _atom_site_occupancy
  Li  Li0  1  0.83426400  0.16573600  0.25000000  1
  Li  Li1  1  0.16573600  0.83426400  0.75000000  1
  Fe  Fe0  1  0.88513900  0.11486100  0.75000000  1
  Fe  Fe1  1  0.11486100  0.88513900  0.25000000  1
  P  P0  1  0.72992900  0.37678300  0.96692200  1
  P  P1  1  0.62321700  0.27007100  0.53307800  1
  P  P2  1  0.72117200  0.79892500  0.02820100  1
  P  P3  1  0.37678300  0.72992900  0.46692200  1
  P  P4  1  0.27007100  0.62321700  0.03307800  1
  P  P5  1  0.79892500  0.72117200  0.52820100  1
  P  P6  1  0.20107500  0.27882800  0.47179900  1
  P  P7  1  0.27882800  0.20107500  0.97179900  1
  O  O0  1  0.93577100  0.71914800  0.40628800  1
  O  O1  1  0.26964800  0.71500900  0.89421600  1
  O  O2  1  0.73035200  0.28499100  0.10578400  1
  O  O3  1  0.85327500  0.89377700  0.14892800  1
  O  O4  1  0.35231000  0.86912600  0.35130600  1
  O  O5  1  0.28085200  0.06422900  0.09371200  1
  O  O6  1  0.28499100  0.73035200  0.60578400  1
  O  O7  1  0.49842000  0.69104100  0.09341800  1
  O  O8  1  0.30895900  0.50158000  0.40658200  1
  O  O9  1  0.38029200  0.21285700  0.53183700  1
  O  O10  1  0.69104100  0.49842000  0.59341800  1
  O  O11  1  0.13087400  0.64769000  0.14869400  1
  O  O12  1  0.14672500  0.10622300  0.85107200  1
  O  O13  1  0.86912600  0.35231000  0.85130600  1
  O  O14  1  0.89377700  0.85327500  0.64892800  1
  O  O15  1  0.61970800  0.78714300  0.46816300  1
  O  O16  1  0.78714300  0.61970800  0.96816300  1
  O  O17  1  0.10622300  0.14672500  0.35107200  1
  O  O18  1  0.50158000  0.30895900  0.90658200  1
  O  O19  1  0.71500900  0.26964800  0.39421600  1
  O  O20  1  0.21285700  0.38029200  0.03183700  1
  O  O21  1  0.71914800  0.93577100  0.90628800  1
  O  O22  1  0.64769000  0.13087400  0.64869400  1
  O  O23  1  0.06422900  0.28085200  0.59371200  1
loop_
_geom_bond_atom_site_label_1
_geom_bond_atom_site_label_2
_geom_bond_distance
_geom_bond_site_symmetry_2
Li0 O19 1.884966 1_555
Li0 O2 1.884966 1_555
Li0 O17 2.199204 1_655
Li0 O3 2.199204 1_545
Li1 O6 1.884966 1_555
Li1 O1 1.884966 1_555
Li1 O14 2.199204 1_455
Li1 O12 2.199204 1_565
Fe0 O22 1.979507 1_555
Fe0 O13 1.979507 1_555
Fe0 O21 2.016429 1_545
Fe0 O23 2.016429 1_655
Fe0 O12 2.110692 1_655
Fe0 O14 2.110692 1_545
Fe1 O11 1.979507 1_555
Fe1 O4 1.979507 1_555
Fe1 O0 2.016429 1_455
Fe1 O5 2.016429 1_565
Fe1 O17 2.110692 1_565
Fe1 O3 2.110692 1_455
O0 P5 1.502954 1_555
O1 P4 1.470971 1_556
O2 P0 1.470971 1_554
O3 P2 1.520485 1_555
O4 P3 1.514262 1_555
O5 P7 1.502954 1_554
O6 P3 1.470971 1_555
O7 P2 1.598804 1_555
O7 P4 1.632838 1_555
O8 P6 1.598804 1_555
O8 P3 1.632838 1_555
O9 P6 1.591155 1_555
O9 P1 1.614306 1_555
O10 P5 1.598804 1_555
O10 P1 1.632838 1_555
O11 P4 1.514262 1_555
O12 P7 1.520485 1_555
O13 P0 1.514262 1_555
O14 P5 1.520485 1_555
O15 P5 1.591155 1_555
O15 P3 1.614306 1_555
O16 P2 1.591155 1_556
O16 P0 1.614306 1_555
O17 P6 1.520485 1_555
O18 P7 1.598804 1_555
O18 P0 1.632838 1_555
O19 P1 1.470971 1_555
O20 P7 1.591155 1_554
O20 P4 1.614306 1_555
O21 P2 1.502954 1_556
O22 P1 1.514262 1_555
O23 P6 1.502954 1_555
