# generated using pymatgen
data_Nb3Pb
_symmetry_space_group_name_H-M   'P 1'
_cell_length_a   5.38707100
_cell_length_b   5.38707100
_cell_length_c   5.38707100
_cell_angle_alpha   90.00000000
_cell_angle_beta   90.00000000
_cell_angle_gamma   90.00000000
_symmetry_Int_Tables_number   1
_chemical_formula_structural   Nb3Pb
_chemical_formula_sum   'Nb6 Pb2'
_cell_volume   156.33567690
_cell_formula_units_Z   2
loop_
 _symmetry_equiv_pos_site_id
 _symmetry_equiv_pos_as_xyz
  1  'x, y, z'
loop_
 _atom_site_type_symbol
 _atom_site_label
 _atom_site_symmetry_multiplicity
 _atom_site_fract_x
 _atom_site_fract_y
 _atom_site_fract_z
 _atom_site_occupancy
  Nb  Nb0  1  0.25000000  0.00000000  0.50000000  1
  Nb  Nb1  1  0.75000000  0.00000000  0.50000000  1
  Nb  Nb2  1  0.00000000  0.50000000  0.25000000  1
  Nb  Nb3  1  0.00000000  0.50000000  0.75000000  1
  Nb  Nb4  1  0.50000000  0.75000000  0.00000000  1
  Nb  Nb5  1  0.50000000  0.25000000  0.00000000  1
  Pb  Pb0  1  0.00000000  0.00000000  0.00000000  1
  Pb  Pb1  1  0.50000000  0.50000000  0.50000000  1
loop_
_geom_bond_atom_site_label_1
_geom_bond_atom_site_label_2
_geom_bond_distance
_geom_bond_site_symmetry_2
Nb0 Nb1 2.693535 1_455
Nb0 Nb1 2.693535 1_555
Nb0 Pb0 3.011464 1_555
Nb0 Pb1 3.011464 1_555
Nb0 Pb1 3.011464 1_545
Nb0 Pb0 3.011464 1_556
Nb1 Pb0 3.011464 1_656
Nb1 Pb0 3.011464 1_655
Nb1 Pb1 3.011464 1_555
Nb1 Pb1 3.011464 1_545
Nb2 Nb3 2.693535 1_554
Nb2 Nb3 2.693535 1_555
Nb2 Pb0 3.011464 1_555
Nb2 Pb1 3.011464 1_555
Nb2 Pb1 3.011464 1_455
Nb2 Pb0 3.011464 1_565
Nb3 Pb0 3.011464 1_566
Nb3 Pb1 3.011464 1_555
Nb3 Pb1 3.011464 1_455
Nb3 Pb0 3.011464 1_556
Nb4 Nb5 2.693535 1_555
Nb4 Nb5 2.693535 1_565
Nb4 Pb0 3.011464 1_665
Nb4 Pb1 3.011464 1_555
Nb4 Pb1 3.011464 1_554
Nb4 Pb0 3.011464 1_565
Nb5 Pb0 3.011464 1_655
Nb5 Pb0 3.011464 1_555
Nb5 Pb1 3.011464 1_555
Nb5 Pb1 3.011464 1_554
