# generated using pymatgen
data_BaBiSe3
_symmetry_space_group_name_H-M   'P 1'
_cell_length_a   4.47920984
_cell_length_b   16.37637289
_cell_length_c   17.09756824
_cell_angle_alpha   90.00000000
_cell_angle_beta   90.00000000
_cell_angle_gamma   90.00000000
_symmetry_Int_Tables_number   1
_chemical_formula_structural   BaBiSe3
_chemical_formula_sum   'Ba8 Bi8 Se24'
_cell_volume   1254.16152373
_cell_formula_units_Z   8
loop_
 _symmetry_equiv_pos_site_id
 _symmetry_equiv_pos_as_xyz
  1  'x, y, z'
loop_
 _atom_site_type_symbol
 _atom_site_label
 _atom_site_symmetry_multiplicity
 _atom_site_fract_x
 _atom_site_fract_y
 _atom_site_fract_z
 _atom_site_occupancy
  Ba  Ba0  1  0.21523697  0.60784927  0.40969281  1
  Ba  Ba1  1  0.71523697  0.89215073  0.59030719  1
  Ba  Ba2  1  0.78476303  0.10784927  0.09030719  1
  Ba  Ba3  1  0.28476303  0.39215073  0.90969281  1
  Ba  Ba4  1  0.24098563  0.46398556  0.16919221  1
  Ba  Ba5  1  0.74098563  0.03601444  0.83080779  1
  Ba  Ba6  1  0.75901437  0.96398556  0.33080779  1
  Ba  Ba7  1  0.25901437  0.53601444  0.66919221  1
  Bi  Bi0  1  0.75952866  0.37189530  0.46930825  1
  Bi  Bi1  1  0.25952866  0.12810470  0.53069175  1
  Bi  Bi2  1  0.24047134  0.87189530  0.03069175  1
  Bi  Bi3  1  0.74047134  0.62810470  0.96930825  1
  Bi  Bi4  1  0.73792414  0.71666096  0.20277527  1
  Bi  Bi5  1  0.23792414  0.78333904  0.79722473  1
  Bi  Bi6  1  0.26207586  0.21666096  0.29722473  1
  Bi  Bi7  1  0.76207586  0.28333904  0.70277527  1
  Se  Se0  1  0.85053300  0.70850435  0.68614801  1
  Se  Se1  1  0.35053300  0.79149565  0.31385199  1
  Se  Se2  1  0.14946700  0.20850435  0.81385199  1
  Se  Se3  1  0.64946700  0.29149565  0.18614801  1
  Se  Se4  1  0.73519451  0.52530603  0.52794152  1
  Se  Se5  1  0.23519451  0.97469397  0.47205848  1
  Se  Se6  1  0.26480549  0.02530603  0.97205848  1
  Se  Se7  1  0.76480549  0.47469397  0.02794152  1
  Se  Se8  1  0.76902203  0.43276314  0.77152477  1
  Se  Se9  1  0.26902203  0.06723686  0.22847523  1
  Se  Se10  1  0.23097797  0.93276314  0.72847523  1
  Se  Se11  1  0.73097797  0.56723686  0.27152477  1
  Se  Se12  1  0.27518818  0.60026666  0.86759748  1
  Se  Se13  1  0.77518818  0.89973334  0.13240252  1
  Se  Se14  1  0.72481182  0.10026666  0.63240252  1
  Se  Se15  1  0.22481182  0.39973334  0.36759748  1
  Se  Se16  1  0.30377223  0.67831589  0.09462451  1
  Se  Se17  1  0.80377223  0.82168411  0.90537549  1
  Se  Se18  1  0.69622777  0.17831589  0.40537549  1
  Se  Se19  1  0.19622777  0.32168411  0.59462451  1
  Se  Se20  1  0.15824208  0.73457520  0.56945733  1
  Se  Se21  1  0.65824208  0.76542480  0.43054267  1
  Se  Se22  1  0.84175792  0.23457520  0.93054267  1
  Se  Se23  1  0.34175792  0.26542480  0.06945733  1
loop_
_geom_bond_atom_site_label_1
_geom_bond_atom_site_label_2
_geom_bond_distance
_geom_bond_site_symmetry_2
Ba0 Se4 3.246259 1_455
Ba0 Se21 3.274697 1_555
Ba0 Se11 3.275356 1_455
Ba0 Se4 3.367347 1_555
Ba0 Se11 3.370400 1_555
Ba0 Se20 3.440007 1_555
Ba0 Se1 3.478109 1_555
Ba0 Se15 3.483614 1_555
Ba0 Se21 3.607028 1_455
Ba1 Se5 3.246259 1_555
Ba1 Se20 3.274697 1_655
Ba1 Se10 3.275356 1_555
Ba1 Se5 3.367347 1_655
Ba1 Se10 3.370400 1_655
Ba1 Se21 3.440007 1_555
Ba1 Se0 3.478109 1_555
Ba1 Se14 3.483614 1_565
Ba1 Se20 3.607028 1_555
Ba2 Se6 3.246259 1_654
Ba2 Se23 3.274697 1_555
Ba2 Se9 3.275356 1_655
Ba2 Se6 3.367347 1_554
Ba2 Se9 3.370400 1_555
Ba2 Se22 3.440007 1_554
Ba2 Se3 3.478109 1_555
Ba2 Se13 3.483614 1_545
Ba2 Se23 3.607028 1_655
Ba3 Se7 3.246259 1_556
Ba3 Se22 3.274697 1_455
Ba3 Se8 3.275356 1_555
Ba3 Se7 3.367347 1_456
Ba3 Se8 3.370400 1_455
Ba3 Se23 3.440007 1_556
Ba3 Se2 3.478109 1_555
Ba3 Se12 3.483614 1_555
Ba3 Se22 3.607028 1_555
Ba4 Se7 3.226840 1_455
Ba4 Se11 3.276792 1_555
Ba4 Se11 3.337505 1_455
Ba4 Se7 3.371692 1_555
Ba4 Se3 3.378019 1_555
Ba4 Se15 3.552430 1_555
Ba4 Se23 3.699340 1_555
Ba4 Se16 3.744904 1_555
Ba4 Se3 3.883729 1_455
Ba5 Se6 3.226840 1_555
Ba5 Se10 3.276792 1_645
Ba5 Se10 3.337505 1_545
Ba5 Se6 3.371692 1_655
Ba5 Se2 3.378019 1_655
Ba5 Se14 3.552430 1_555
Ba5 Se22 3.699340 1_555
Ba5 Se17 3.744904 1_545
Ba5 Se2 3.883729 1_555
Ba6 Se5 3.226840 1_655
Ba6 Se9 3.276792 1_565
Ba6 Se9 3.337505 1_665
Ba6 Se5 3.371692 1_555
Ba6 Se1 3.378019 1_555
Ba6 Se13 3.552430 1_555
Ba6 Se21 3.699340 1_555
Ba6 Se18 3.744904 1_565
Ba6 Se1 3.883729 1_655
Ba7 Se4 3.226840 1_555
Ba7 Se8 3.276792 1_455
Ba7 Se8 3.337505 1_555
Ba7 Se4 3.371692 1_455
Ba7 Se0 3.378019 1_455
Ba7 Se12 3.552430 1_555
Ba7 Se20 3.699340 1_555
Ba7 Se19 3.744904 1_555
Ba7 Se0 3.883729 1_555
Bi0 Se4 2.707133 1_555
Bi0 Se15 2.752354 1_655
Bi0 Se15 2.994749 1_555
Bi0 Se19 3.015475 1_655
Bi0 Se18 3.365259 1_555
Bi0 Se19 3.410739 1_555
Bi1 Se5 2.707133 1_545
Bi1 Se14 2.752354 1_555
Bi1 Se14 2.994749 1_455
Bi1 Se18 3.015475 1_555
Bi1 Se19 3.365259 1_555
Bi1 Se18 3.410739 1_455
Bi2 Se6 2.707133 1_564
Bi2 Se13 2.752354 1_455
Bi2 Se13 2.994749 1_555
Bi2 Se17 3.015475 1_454
Bi2 Se16 3.365259 1_555
Bi2 Se17 3.410739 1_554
Bi3 Se7 2.707133 1_556
Bi3 Se12 2.752354 1_555
Bi3 Se12 2.994749 1_655
Bi3 Se16 3.015475 1_556
Bi3 Se17 3.365259 1_555
Bi3 Se16 3.410739 1_656
Bi4 Se11 2.714881 1_555
Bi4 Se16 2.755947 1_555
Bi4 Se1 2.849488 1_555
Bi4 Se16 3.199610 1_655
Bi4 Se13 3.234800 1_555
Bi5 Se10 2.714881 1_555
Bi5 Se17 2.755947 1_455
Bi5 Se0 2.849488 1_455
Bi5 Se17 3.199610 1_555
Bi5 Se12 3.234800 1_555
Bi6 Se9 2.714881 1_555
Bi6 Se18 2.755947 1_555
Bi6 Se3 2.849488 1_555
Bi6 Se18 3.199610 1_455
Bi6 Se15 3.234800 1_555
Bi7 Se8 2.714881 1_555
Bi7 Se19 2.755947 1_655
Bi7 Se2 2.849488 1_655
Bi7 Se19 3.199610 1_555
Bi7 Se14 3.234800 1_555
Se0 Se20 2.462216 1_655
Se1 Se21 2.462216 1_555
Se2 Se22 2.462216 1_455
Se23 Se3 2.462216 1_555
