# generated using pymatgen
data_Yb2MgV2O8
_symmetry_space_group_name_H-M   'P 1'
_cell_length_a   6.02999000
_cell_length_b   6.26059936
_cell_length_c   6.23711205
_cell_angle_alpha   108.36124422
_cell_angle_beta   104.99674505
_cell_angle_gamma   117.57159679
_symmetry_Int_Tables_number   1
_chemical_formula_structural   Yb2MgV2O8
_chemical_formula_sum   'Yb2 Mg1 V2 O8'
_cell_volume   173.68512361
_cell_formula_units_Z   1
loop_
 _symmetry_equiv_pos_site_id
 _symmetry_equiv_pos_as_xyz
  1  'x, y, z'
loop_
 _atom_site_type_symbol
 _atom_site_label
 _atom_site_symmetry_multiplicity
 _atom_site_fract_x
 _atom_site_fract_y
 _atom_site_fract_z
 _atom_site_occupancy
  Yb  Yb0  1  0.13849700  0.85030700  0.25962400  1
  Yb  Yb1  1  0.85813700  0.11663500  0.70347700  1
  Mg  Mg0  1  0.01573200  0.26771500  0.25537500  1
  V  V0  1  0.39488600  0.63520000  0.77640300  1
  V  V1  1  0.60847600  0.37759700  0.23823700  1
  O  O0  1  0.81340600  0.72964300  0.44172600  1
  O  O1  1  0.34494900  0.73560600  0.54384900  1
  O  O2  1  0.75699400  0.84540300  0.99682800  1
  O  O3  1  0.78200700  0.34942800  0.04986100  1
  O  O4  1  0.64879200  0.20051800  0.39591600  1
  O  O5  1  0.21948500  0.27171900  0.57150200  1
  O  O6  1  0.19117500  0.63261800  0.92137400  1
  O  O7  1  0.24830000  0.23761000  0.08020200  1
loop_
_geom_bond_atom_site_label_1
_geom_bond_atom_site_label_2
_geom_bond_distance
_geom_bond_site_symmetry_2
Mg0 O3 2.009146 1_455
Mg0 O5 2.021006 1_555
Mg0 O7 2.025789 1_555
Mg0 O2 2.053827 1_444
Mg0 O1 2.281826 1_555
Mg0 O4 2.493101 1_455
O0 V1 1.703024 1_555
O0 Yb1 2.298523 1_565
O0 Yb0 2.454674 1_655
O1 V0 1.764447 1_555
O1 Yb0 2.386524 1_555
O1 Yb1 2.516641 1_565
O2 V0 1.742472 1_555
O2 Yb0 2.435397 1_656
O2 Yb1 2.859945 1_565
O3 V1 1.784104 1_555
O3 Yb0 2.426024 1_655
O3 Yb1 2.480165 1_554
O4 V1 1.751568 1_555
O4 Yb1 2.354634 1_555
O4 Yb0 2.494967 1_545
O5 V0 1.780597 1_555
O5 Yb1 2.416876 1_455
O5 Yb0 2.462790 1_545
O6 V0 1.700703 1_555
O6 Yb0 2.311985 1_556
O6 Yb1 2.476180 1_455
O7 V1 1.744262 1_555
O7 Yb1 2.449106 1_454
O7 Yb0 2.859533 1_545
