# generated using pymatgen
data_Na6NbAl3Si4(SO12)2
_symmetry_space_group_name_H-M   'P 1'
_cell_length_a   8.80267869
_cell_length_b   8.86464299
_cell_length_c   21.82977914
_cell_angle_alpha   89.49347477
_cell_angle_beta   89.67237457
_cell_angle_gamma   119.99555757
_symmetry_Int_Tables_number   1
_chemical_formula_structural   Na6NbAl3Si4(SO12)2
_chemical_formula_sum   'Na18 Nb3 Al9 Si12 S6 O72'
_cell_volume   1475.12486415
_cell_formula_units_Z   3
loop_
 _symmetry_equiv_pos_site_id
 _symmetry_equiv_pos_as_xyz
  1  'x, y, z'
loop_
 _atom_site_type_symbol
 _atom_site_label
 _atom_site_symmetry_multiplicity
 _atom_site_fract_x
 _atom_site_fract_y
 _atom_site_fract_z
 _atom_site_occupancy
  Na  Na0  1  0.62305201  0.99807536  0.25261900  1
  Na  Na1  1  0.63571898  0.62500657  0.75098265  1
  Na  Na2  1  0.00206445  0.36565505  0.74429033  1
  Na  Na3  1  0.29901402  0.33981760  0.58522674  1
  Na  Na4  1  0.02505226  0.69522617  0.58773857  1
  Na  Na5  1  0.67387321  0.96639574  0.57756974  1
  Na  Na6  1  0.29822354  0.95551000  0.08793574  1
  Na  Na7  1  0.66893577  0.70489620  0.07879725  1
  Na  Na8  1  0.02768121  0.33424600  0.08395392  1
  Na  Na9  1  0.97017532  0.67772208  0.91327261  1
  Na  Na10  1  0.33149969  0.29791054  0.91080182  1
  Na  Na11  1  0.68830993  0.66866439  0.41376397  1
  Na  Na12  1  0.00156659  0.01980813  0.49510897  1
  Na  Na13  1  0.98466296  0.99395539  0.99609828  1
  Na  Na14  1  0.65325635  0.32080557  0.82871285  1
  Na  Na15  1  0.64220114  0.31795157  0.32816578  1
  Na  Na16  1  0.31906374  0.67081329  0.17061305  1
  Na  Na17  1  0.32758838  0.66223047  0.66388780  1
  Nb  Nb0  1  0.68132231  0.33447940  0.97796977  1
  Nb  Nb1  1  0.67230080  0.33301411  0.47498620  1
  Nb  Nb2  1  0.32653094  0.66481016  0.81238257  1
  Al  Al0  1  0.02235157  0.03057485  0.35440808  1
  Al  Al1  1  0.01085958  0.99736857  0.85629953  1
  Al  Al2  1  0.00175957  0.00451689  0.64775540  1
  Al  Al3  1  0.99765758  0.97944846  0.14904108  1
  Al  Al4  1  0.67733774  0.36194169  0.68797725  1
  Al  Al5  1  0.66009469  0.31496119  0.18577965  1
  Al  Al6  1  0.33160830  0.67656382  0.01815096  1
  Al  Al7  1  0.34520731  0.64893446  0.51741398  1
  Al  Al8  1  0.34190085  0.68389514  0.31621428  1
  Si  Si0  1  0.28593690  0.99871341  0.25029065  1
  Si  Si1  1  0.29054339  0.27420285  0.74818504  1
  Si  Si2  1  0.00038541  0.72180735  0.74844539  1
  Si  Si3  1  0.96117728  0.33624758  0.58748022  1
  Si  Si4  1  0.67003646  0.63323442  0.58496562  1
  Si  Si5  1  0.95822162  0.62199911  0.08901591  1
  Si  Si6  1  0.66776467  0.03250539  0.08909407  1
  Si  Si7  1  0.62612259  0.68037124  0.91954876  1
  Si  Si8  1  0.04995677  0.36834985  0.92039696  1
  Si  Si9  1  0.33215445  0.95535849  0.91908395  1
  Si  Si10  1  0.62568931  0.94855596  0.41420892  1
  Si  Si11  1  0.32190208  0.38055464  0.41408617  1
  S  S0  1  0.70901694  0.70313590  0.24990498  1
  S  S1  1  0.00392637  0.29111163  0.24937625  1
  S  S2  1  0.71612125  0.00517953  0.74837752  1
  S  S3  1  0.37805715  0.04513235  0.58542600  1
  S  S4  1  0.37448069  0.33196893  0.08673300  1
  S  S5  1  0.05713981  0.67398966  0.41610624  1
  O  O0  1  0.18252662  0.02215378  0.30776350  1
  O  O1  1  0.81220837  0.78464003  0.30520233  1
  O  O2  1  0.96654804  0.17290884  0.30346891  1
  O  O3  1  0.19567341  0.16999067  0.81080979  1
  O  O4  1  0.96494384  0.80322298  0.80946709  1
  O  O5  1  0.82185250  0.02994028  0.80314908  1
  O  O6  1  0.79336239  0.97531552  0.69213193  1
  O  O7  1  0.16416527  0.19840783  0.68868014  1
  O  O8  1  0.02426759  0.83405598  0.68676786  1
  O  O9  1  0.79360609  0.82069755  0.19450338  1
  O  O10  1  0.02622989  0.20929595  0.19315325  1
  O  O11  1  0.17504724  0.97575485  0.18702394  1
  O  O12  1  0.86154703  0.36333038  0.64595650  1
  O  O13  1  0.49112553  0.12555766  0.63808209  1
  O  O14  1  0.62770139  0.50232023  0.64312204  1
  O  O15  1  0.84719581  0.48394690  0.14285424  1
  O  O16  1  0.62581548  0.12323798  0.14534056  1
  O  O17  1  0.49047148  0.35860312  0.13878976  1
  O  O18  1  0.44930332  0.30058792  0.02942577  1
  O  O19  1  0.83488736  0.53864993  0.02569372  1
  O  O20  1  0.70490430  0.16878964  0.02893441  1
  O  O21  1  0.45714696  0.15536276  0.52862005  1
  O  O22  1  0.70358756  0.53796778  0.52476098  1
  O  O23  1  0.82721685  0.29806878  0.52842761  1
  O  O24  1  0.52653428  0.69260074  0.97969329  1
  O  O25  1  0.16886316  0.46378936  0.97904822  1
  O  O26  1  0.29516678  0.83395950  0.97875391  1
  O  O27  1  0.53252626  0.83198335  0.47655652  1
  O  O28  1  0.30282515  0.45794072  0.47934634  1
  O  O29  1  0.15336384  0.69141342  0.47336617  1
  O  O30  1  0.13626190  0.64569507  0.36200163  1
  O  O31  1  0.50907441  0.87258340  0.35383969  1
  O  O32  1  0.36422967  0.51559562  0.35763712  1
  O  O33  1  0.12961333  0.49678083  0.85815635  1
  O  O34  1  0.36819644  0.86534100  0.85877283  1
  O  O35  1  0.50311638  0.63486263  0.85721760  1
  O  O36  1  0.02270221  0.82030255  0.41122408  1
  O  O37  1  0.81915401  0.96428748  0.40517336  1
  O  O38  1  0.15928133  0.18457602  0.40983812  1
  O  O39  1  0.02637671  0.18067149  0.90946965  1
  O  O40  1  0.16088883  0.97525138  0.91115893  1
  O  O41  1  0.82070793  0.84260021  0.90996984  1
  O  O42  1  0.98171328  0.16270482  0.59087889  1
  O  O43  1  0.20242321  0.03053335  0.58876948  1
  O  O44  1  0.84502155  0.82612995  0.59004334  1
  O  O45  1  0.97674165  0.81549811  0.09141607  1
  O  O46  1  0.84927865  0.02443354  0.09586513  1
  O  O47  1  0.19650468  0.17668618  0.09183511  1
  O  O48  1  0.69165159  0.15699371  0.74230613  1
  O  O49  1  0.48937268  0.30401862  0.74176707  1
  O  O50  1  0.83190852  0.51861806  0.74538855  1
  O  O51  1  0.69223932  0.53083691  0.24203082  1
  O  O52  1  0.84023755  0.30462319  0.24513575  1
  O  O53  1  0.48941368  0.17399856  0.24358759  1
  O  O54  1  0.63946208  0.49790372  0.92441630  1
  O  O55  1  0.85998515  0.36532008  0.92054806  1
  O  O56  1  0.50050942  0.15381480  0.92373436  1
  O  O57  1  0.64918608  0.14733610  0.42355175  1
  O  O58  1  0.50894348  0.36632848  0.42192076  1
  O  O59  1  0.87410657  0.51053843  0.41913925  1
  O  O60  1  0.35857576  0.48955336  0.08178429  1
  O  O61  1  0.14942844  0.63543982  0.07982593  1
  O  O62  1  0.49583609  0.84160634  0.07874934  1
  O  O63  1  0.35480259  0.86889046  0.57781243  1
  O  O64  1  0.49479188  0.65318340  0.57881676  1
  O  O65  1  0.15018168  0.51676697  0.57661142  1
  O  O66  1  0.31364506  0.82434535  0.25697289  1
  O  O67  1  0.53262323  0.68992291  0.25234462  1
  O  O68  1  0.15874709  0.46380683  0.25630893  1
  O  O69  1  0.31758728  0.48034244  0.75346911  1
  O  O70  1  0.17454304  0.69227192  0.75112585  1
  O  O71  1  0.54021886  0.84159335  0.75184690  1
loop_
_geom_bond_atom_site_label_1
_geom_bond_atom_site_label_2
_geom_bond_distance
_geom_bond_site_symmetry_2
Na0 O66 2.366297 1_555
Na0 O53 2.384592 1_565
Na0 O52 2.420790 1_565
Na0 O67 2.433483 1_555
Na0 O31 2.437583 1_555
Na0 O16 2.577282 1_565
Na0 O2 2.856584 1_565
Na0 O9 2.951227 1_555
Na1 O50 2.348399 1_555
Na1 O69 2.428182 1_555
Na1 O71 2.451040 1_555
Na1 O49 2.478819 1_555
Na1 O14 2.588868 1_555
Na1 O35 2.612064 1_555
Na1 O4 2.832796 1_555
Na1 O6 2.969813 1_555
Na2 O48 2.416371 1_455
Na2 O69 2.444295 1_555
Na2 O50 2.472567 1_455
Na2 O12 2.478709 1_455
Na2 O70 2.515020 1_555
Na2 O33 2.751071 1_555
Na2 O7 2.799129 1_555
Na2 O5 2.865778 1_455
Na3 O42 2.426847 1_455
Na3 O64 2.431025 1_555
Na3 O43 2.431146 1_555
Na3 O65 2.502929 1_555
Na3 O28 2.522122 1_555
Na3 O7 2.551886 1_555
Na3 O14 2.819648 1_555
Na3 O21 2.903463 1_555
Na4 O65 2.349661 1_555
Na4 O44 2.387337 1_455
Na4 O8 2.498661 1_555
Na4 O63 2.522185 1_555
Na4 O43 2.575779 1_565
Na4 O29 2.741883 1_555
Na4 O22 2.824003 1_455
Na4 O12 2.832283 1_455
Na5 O42 2.399745 1_565
Na5 O44 2.400346 1_555
Na5 O64 2.411779 1_555
Na5 O63 2.491623 1_555
Na5 O27 2.534913 1_555
Na5 O6 2.705059 1_555
Na5 O23 2.752617 1_565
Na5 O13 2.932831 1_565
Na6 O62 2.416908 1_555
Na6 O45 2.457352 1_455
Na6 O11 2.461984 1_555
Na6 O61 2.468392 1_555
Na6 O47 2.531902 1_565
Na6 O26 2.619075 1_554
Na6 O16 2.807838 1_565
Na6 O18 2.932805 1_565
Na7 O62 2.374196 1_555
Na7 O45 2.394946 1_555
Na7 O60 2.427625 1_555
Na7 O24 2.482364 1_554
Na7 O46 2.492351 1_565
Na7 O9 2.754840 1_555
Na7 O19 2.795181 1_555
Na7 O17 2.947888 1_555
Na8 O61 2.327884 1_555
Na8 O46 2.397234 1_455
Na8 O47 2.502587 1_555
Na8 O60 2.523790 1_555
Na8 O25 2.569363 1_554
Na8 O10 2.616932 1_555
Na8 O20 2.751391 1_455
Na8 O15 2.837833 1_455
Na9 O40 2.312269 1_655
Na9 O41 2.407182 1_555
Na9 O55 2.437195 1_555
Na9 O4 2.526392 1_555
Na9 O54 2.533804 1_555
Na9 O19 2.721387 1_556
Na9 O33 2.873292 1_655
Na9 O26 2.875027 1_655
Na10 O39 2.346360 1_555
Na10 O54 2.406959 1_555
Na10 O56 2.413142 1_555
Na10 O40 2.478116 1_545
Na10 O3 2.489586 1_555
Na10 O18 2.790839 1_556
Na10 O35 2.824648 1_555
Na10 O25 2.924134 1_555
Na11 O37 2.280389 1_555
Na11 O58 2.337707 1_555
Na11 O36 2.552459 1_655
Na11 O1 2.582442 1_555
Na11 O59 2.635341 1_555
Na11 O22 2.709501 1_555
Na11 O32 2.771220 1_555
Na11 O27 2.802523 1_555
Na12 O38 2.328224 1_555
Na12 O37 2.436795 1_445
Na12 O42 2.503976 1_455
Na12 O44 2.584629 1_445
Na12 O36 2.626400 1_545
Na12 O43 2.681823 1_555
Na13 O41 2.357464 1_555
Na13 O39 2.404091 1_665
Na13 O40 2.470161 1_655
Na13 O46 2.557168 1_566
Na13 O45 2.582033 1_556
Na13 O47 2.748309 1_666
Na14 O49 2.351037 1_555
Na14 O50 2.451575 1_555
Na14 O56 2.495119 1_555
Na14 O48 2.512507 1_555
Na14 O55 2.612273 1_555
Na14 O54 2.662659 1_555
Na15 O53 2.280395 1_555
Na15 O58 2.497941 1_555
Na15 O51 2.527366 1_555
Na15 O52 2.551809 1_555
Na15 O57 2.581825 1_555
Na15 O59 2.765404 1_555
Na16 O66 2.349021 1_555
Na16 O61 2.415066 1_555
Na16 O68 2.485623 1_555
Na16 O62 2.508012 1_555
Na16 O67 2.543875 1_555
Na16 O60 2.658781 1_555
Na17 O64 2.389748 1_555
Na17 O65 2.407367 1_555
Na17 O70 2.418870 1_555
Na17 O69 2.496395 1_555
Na17 O63 2.537586 1_555
Na17 O71 2.614909 1_555
Nb0 O55 1.913354 1_555
Nb0 O20 1.927893 1_556
Nb0 O19 1.947200 1_556
Nb0 O56 2.001574 1_555
Nb0 O54 2.027298 1_555
Nb0 O18 2.208535 1_556
Nb1 O57 1.926584 1_555
Nb1 O23 1.936685 1_555
Nb1 O58 1.983563 1_555
Nb1 O22 2.023715 1_555
Nb1 O59 2.065094 1_555
Nb1 O21 2.097063 1_555
Nb2 O33 1.895812 1_555
Nb2 O34 1.924637 1_555
Nb2 O35 1.967245 1_555
Nb2 O70 1.994432 1_555
Nb2 O69 2.060048 1_555
Nb2 O71 2.174395 1_555
Al0 O0 1.766512 1_555
Al0 O38 1.783623 1_555
Al0 O2 1.915975 1_455
Al0 O37 1.920332 1_445
Al0 O36 2.231072 1_545
Al0 O1 2.315257 1_445
Al1 O3 1.854699 1_565
Al1 O40 1.868042 1_555
Al1 O4 1.873716 1_455
Al1 O41 1.926063 1_455
Al1 O39 1.954341 1_565
Al1 O5 2.166606 1_465
Al2 O8 1.823845 1_545
Al2 O7 1.838749 1_555
Al2 O42 1.938617 1_455
Al2 O44 1.965971 1_445
Al2 O6 1.967513 1_445
Al2 O43 2.095886 1_555
Al3 O11 1.786706 1_655
Al3 O45 1.869758 1_555
Al3 O9 1.902416 1_555
Al3 O46 1.934540 1_565
Al3 O47 2.134654 1_665
Al3 O10 2.160344 1_665
Al4 O14 1.795897 1_555
Al4 O12 1.853053 1_555
Al4 O49 1.870236 1_555
Al4 O50 1.873977 1_555
Al4 O13 2.211471 1_555
Al4 O48 2.217131 1_555
Al5 O16 1.809875 1_555
Al5 O15 1.823545 1_555
Al5 O53 1.866694 1_555
Al5 O17 2.004851 1_555
Al5 O52 2.090116 1_555
Al5 O51 2.180398 1_555
Al6 O26 1.794086 1_554
Al6 O24 1.845735 1_554
Al6 O25 1.918150 1_554
Al6 O61 1.974692 1_555
Al6 O62 1.980315 1_555
Al6 O60 2.256264 1_555
Al7 O28 1.758742 1_555
Al7 O27 1.851963 1_555
Al7 O64 1.871743 1_555
Al7 O65 1.981571 1_555
Al7 O29 2.136869 1_555
Al7 O63 2.330115 1_555
Al8 O31 1.793024 1_555
Al8 O32 1.831255 1_555
Al8 O66 1.889251 1_555
Al8 O30 1.936719 1_555
Al8 O67 2.155837 1_555
Al8 O68 2.245001 1_555
O0 Si0 1.620661 1_545
O1 S0 1.475143 1_555
O2 S1 1.493158 1_655
O3 Si1 1.616472 1_555
O4 Si2 1.621744 1_655
O5 S2 1.468708 1_555
O6 S2 1.488666 1_565
O7 Si1 1.631247 1_555
O8 Si2 1.615871 1_555
O9 S0 1.514825 1_555
O10 S1 1.492068 1_555
O11 Si0 1.650281 1_555
O12 Si3 1.630780 1_555
O13 S3 1.462284 1_555
O14 Si4 1.622810 1_555
O15 Si5 1.612343 1_555
O16 Si6 1.612491 1_555
O17 S4 1.471938 1_555
O18 S4 1.502042 1_555
O19 Si5 1.693678 1_555
O20 Si6 1.692106 1_555
O21 S3 1.505249 1_555
O22 Si4 1.671001 1_555
O23 Si3 1.671207 1_555
O24 Si7 1.608867 1_555
O25 Si8 1.612354 1_555
O26 Si9 1.606509 1_555
O27 Si10 1.645553 1_555
O28 Si11 1.630353 1_555
O29 S5 1.479343 1_555
O30 S5 1.453782 1_555
O31 Si10 1.607469 1_555
O32 Si11 1.616490 1_555
O33 Si8 1.672561 1_555
O34 Si9 1.654609 1_555
O35 Si7 1.666254 1_555
O36 S5 1.475312 1_555
O37 Si10 1.648272 1_555
O38 Si11 1.610502 1_555
O39 Si8 1.590656 1_555
O40 Si9 1.613113 1_555
O41 Si7 1.604190 1_555
O42 Si3 1.637387 1_555
O43 S3 1.486886 1_555
O44 Si4 1.637258 1_555
O45 Si5 1.641238 1_555
O46 Si6 1.642191 1_555
O47 S4 1.483475 1_555
O48 S2 1.470406 1_555
O49 Si1 1.639146 1_555
O50 Si2 1.667500 1_655
O51 S0 1.470919 1_555
O52 S1 1.507647 1_655
O53 Si0 1.689445 1_545
O54 Si7 1.681793 1_555
O55 Si8 1.658979 1_655
O56 Si9 1.643036 1_545
O57 Si10 1.682809 1_545
O58 Si11 1.722338 1_555
O59 S5 1.537077 1_655
O60 S4 1.475040 1_555
O61 Si5 1.637858 1_455
O62 Si6 1.629445 1_565
O63 S3 1.481751 1_565
O64 Si4 1.644288 1_555
O65 Si3 1.646769 1_455
O66 Si0 1.686229 1_555
O67 S0 1.498215 1_555
O68 S1 1.464315 1_555
O69 Si1 1.725770 1_555
O70 Si2 1.680570 1_555
O71 S2 1.502603 1_565
