# generated using pymatgen
data_Nd2MgTi2S2O5
_symmetry_space_group_name_H-M   'P 1'
_cell_length_a   3.85466389
_cell_length_b   3.85466424
_cell_length_c   14.38785308
_cell_angle_alpha   90.49361636
_cell_angle_beta   90.49362240
_cell_angle_gamma   89.99334848
_symmetry_Int_Tables_number   1
_chemical_formula_structural   Nd2MgTi2S2O5
_chemical_formula_sum   'Nd2 Mg1 Ti2 S2 O5'
_cell_volume   213.76511323
_cell_formula_units_Z   1
loop_
 _symmetry_equiv_pos_site_id
 _symmetry_equiv_pos_as_xyz
  1  'x, y, z'
loop_
 _atom_site_type_symbol
 _atom_site_label
 _atom_site_symmetry_multiplicity
 _atom_site_fract_x
 _atom_site_fract_y
 _atom_site_fract_z
 _atom_site_occupancy
  Nd  Nd0  1  0.39984528  0.39984528  0.71776608  1
  Nd  Nd1  1  0.90811837  0.90811837  0.43583449  1
  Mg  Mg0  1  0.40228827  0.40228827  0.20339655  1
  Ti  Ti0  1  0.89998630  0.89998630  0.11301073  1
  Ti  Ti1  1  0.90473006  0.90473006  0.86053268  1
  S  S0  1  0.40621252  0.40621252  0.38132947  1
  S  S1  1  0.89579929  0.89579929  0.62491384  1
  O  O0  1  0.90380919  0.40328626  0.81473012  1
  O  O1  1  0.90140483  0.40203295  0.15951182  1
  O  O2  1  0.40328626  0.90380919  0.81472912  1
  O  O3  1  0.40203295  0.90140483  0.15951082  1
  O  O4  1  0.90581967  0.90581967  0.98695729  1
loop_
_geom_bond_atom_site_label_1
_geom_bond_atom_site_label_2
_geom_bond_distance
_geom_bond_site_symmetry_2
Nd0 O2 2.376559 1_545
Nd0 O0 2.376568 1_455
Nd0 O2 2.381844 1_555
Nd0 O0 2.381853 1_555
Nd0 S1 3.030359 1_555
Nd0 S1 3.035271 1_455
Nd0 S1 3.035271 1_545
Nd0 S1 3.040742 1_445
Nd1 S1 2.722093 1_555
Nd1 S0 2.835563 1_665
Nd1 S0 2.836062 1_565
Nd1 S0 2.836062 1_655
Nd1 S0 2.837170 1_555
Mg0 O1 2.026180 1_455
Mg0 O3 2.026185 1_545
Mg0 O1 2.030047 1_555
Mg0 O3 2.030051 1_555
Mg0 S0 2.559901 1_555
O0 Ti1 2.036762 1_555
O0 Ti1 2.036973 1_545
O1 Ti0 2.038132 1_555
O1 Ti0 2.042149 1_545
O2 Ti1 2.036767 1_555
O2 Ti1 2.036978 1_455
O3 Ti0 2.038127 1_555
O3 Ti0 2.042144 1_455
O4 Ti0 1.814305 1_556
O4 Ti1 1.818916 1_555
