# generated using pymatgen
data_MgFe8(OF)8
_symmetry_space_group_name_H-M   'P 1'
_cell_length_a   9.86034274
_cell_length_b   9.87807647
_cell_length_c   3.15347300
_cell_angle_alpha   90.00000000
_cell_angle_beta   90.00000000
_cell_angle_gamma   82.76524387
_symmetry_Int_Tables_number   1
_chemical_formula_structural   MgFe8(OF)8
_chemical_formula_sum   'Mg1 Fe8 O8 F8'
_cell_volume   304.70672153
_cell_formula_units_Z   1
loop_
 _symmetry_equiv_pos_site_id
 _symmetry_equiv_pos_as_xyz
  1  'x, y, z'
loop_
 _atom_site_type_symbol
 _atom_site_label
 _atom_site_symmetry_multiplicity
 _atom_site_fract_x
 _atom_site_fract_y
 _atom_site_fract_z
 _atom_site_occupancy
  Mg  Mg0  1  0.48896100  0.25916000  0.50000000  1
  Fe  Fe0  1  0.99157100  0.97825300  0.00000000  1
  Fe  Fe1  1  0.03500600  0.51721600  0.00000000  1
  Fe  Fe2  1  0.13153200  0.22174000  0.50000000  1
  Fe  Fe3  1  0.22028600  0.73970000  0.50000000  1
  Fe  Fe4  1  0.55116500  0.52174500  0.00000000  1
  Fe  Fe5  1  0.47632200  0.97385000  0.00000000  1
  Fe  Fe6  1  0.81571300  0.31349500  0.50000000  1
  Fe  Fe7  1  0.76207600  0.72818300  0.50000000  1
  O  O0  1  0.12114500  0.41390600  0.50000000  1
  O  O1  1  0.06633500  0.88474400  0.50000000  1
  O  O2  1  0.10194000  0.11819600  0.00000000  1
  O  O3  1  0.17218500  0.64712200  0.00000000  1
  O  O4  1  0.62726500  0.39990800  0.50000000  1
  O  O5  1  0.67033600  0.65302700  0.00000000  1
  O  O6  1  0.88874000  0.37105400  0.00000000  1
  O  O7  1  0.92391300  0.61312000  0.50000000  1
  F  F0  1  0.41133600  0.37066300  0.00000000  1
  F  F1  1  0.32815800  0.83902600  0.00000000  1
  F  F2  1  0.37969000  0.09858400  0.50000000  1
  F  F3  1  0.43162500  0.60817200  0.50000000  1
  F  F4  1  0.58817600  0.88302000  0.50000000  1
  F  F5  1  0.58155500  0.15300000  0.00000000  1
  F  F6  1  0.82409300  0.85974700  0.00000000  1
  F  F7  1  0.85532200  0.11114500  0.50000000  1
loop_
_geom_bond_atom_site_label_1
_geom_bond_atom_site_label_2
_geom_bond_distance
_geom_bond_site_symmetry_2
Mg0 O4 2.066466 1_555
Fe0 O2 1.863920 1_665
Fe0 O1 1.926461 1_655
Fe0 O1 1.926461 1_654
Fe1 O3 1.978244 1_555
Fe1 O0 2.007641 1_555
Fe1 O0 2.007641 1_554
Fe1 O7 2.078972 1_455
Fe1 O7 2.078972 1_454
Fe1 O6 2.165424 1_455
Fe2 O0 1.888068 1_555
Fe2 O2 1.921603 1_555
Fe2 O2 1.921603 1_556
Fe3 O3 1.912222 1_555
Fe3 O3 1.912222 1_556
Fe3 O1 1.951753 1_555
Fe4 O5 1.856426 1_555
Fe4 O4 2.066433 1_554
Fe4 O4 2.066433 1_555
Fe6 O6 1.852294 1_556
Fe6 O6 1.852294 1_555
Fe6 O4 1.944709 1_555
Fe7 O7 1.838888 1_555
Fe7 O5 2.006160 1_556
Fe7 O5 2.006160 1_555
F0 Mg0 2.018110 1_554
F0 Mg0 2.018110 1_555
F0 Fe4 2.155575 1_555
F1 Fe5 2.097171 1_555
F1 Fe3 2.200674 1_555
F1 Fe3 2.200674 1_554
F2 Mg0 2.026654 1_555
F2 Fe5 2.148587 1_546
F2 Fe5 2.148587 1_545
F2 Fe2 2.591843 1_555
F3 Fe4 2.085868 1_555
F3 Fe4 2.085868 1_556
F3 Fe3 2.312713 1_555
F4 Fe5 2.063565 1_556
F4 Fe5 2.063565 1_555
F4 Fe7 2.149191 1_555
F5 Mg0 2.044068 1_555
F5 Mg0 2.044068 1_554
F5 Fe5 2.161219 1_545
F6 Fe0 2.141103 1_555
F6 Fe7 2.179258 1_555
F6 Fe7 2.179258 1_554
F7 Fe6 1.987769 1_555
F7 Fe0 2.360089 1_546
F7 Fe0 2.360089 1_545
