# generated using pymatgen
data_Na2Y4Zr4Si3(S3O16)3
_symmetry_space_group_name_H-M   'P 1'
_cell_length_a   18.24095442
_cell_length_b   9.10975900
_cell_length_c   23.96189032
_cell_angle_alpha   89.97771462
_cell_angle_beta   89.96083345
_cell_angle_gamma   119.99730381
_symmetry_Int_Tables_number   1
_chemical_formula_structural   Na2Y4Zr4Si3(S3O16)3
_chemical_formula_sum   'Na6 Y12 Zr12 Si9 S27 O144'
_cell_volume   3448.40047542
_cell_formula_units_Z   3
loop_
 _symmetry_equiv_pos_site_id
 _symmetry_equiv_pos_as_xyz
  1  'x, y, z'
loop_
 _atom_site_type_symbol
 _atom_site_label
 _atom_site_symmetry_multiplicity
 _atom_site_fract_x
 _atom_site_fract_y
 _atom_site_fract_z
 _atom_site_occupancy
  Na  Na0  1  0.99206367  0.02115379  0.50061999  1
  Na  Na1  1  0.49369459  0.96691152  0.00776753  1
  Na  Na2  1  0.32003375  0.30932868  0.84360295  1
  Na  Na3  1  0.82174073  0.32755109  0.82774171  1
  Na  Na4  1  0.32595016  0.31792750  0.32517200  1
  Na  Na5  1  0.80845818  0.31582735  0.33586751  1
  Y  Y0  1  0.00568501  0.00232111  0.35031151  1
  Y  Y1  1  0.50670639  0.00991267  0.85195684  1
  Y  Y2  1  0.99909384  0.00731450  0.64664295  1
  Y  Y3  1  0.50312070  0.98943460  0.14928072  1
  Y  Y4  1  0.32751252  0.33109740  0.98263316  1
  Y  Y5  1  0.83940642  0.34410252  0.98274183  1
  Y  Y6  1  0.33916735  0.33207142  0.48035599  1
  Y  Y7  1  0.82905560  0.32475229  0.48061193  1
  Y  Y8  1  0.16373116  0.67334474  0.30521113  1
  Y  Y9  1  0.67009143  0.66633078  0.30824535  1
  Y  Y10  1  0.17046883  0.67705882  0.81113206  1
  Y  Y11  1  0.66317276  0.65430383  0.80578561  1
  Zr  Zr0  1  0.51173013  0.01581100  0.35496345  1
  Zr  Zr1  1  0.00389119  0.99643194  0.85811083  1
  Zr  Zr2  1  0.50693300  0.01790724  0.64588424  1
  Zr  Zr3  1  0.00615846  0.99519042  0.14652652  1
  Zr  Zr4  1  0.33644811  0.33396065  0.68106333  1
  Zr  Zr5  1  0.83657714  0.33617468  0.68226866  1
  Zr  Zr6  1  0.33803519  0.34022560  0.18347250  1
  Zr  Zr7  1  0.83114017  0.32909013  0.18455855  1
  Zr  Zr8  1  0.16101937  0.67784128  0.02214519  1
  Zr  Zr9  1  0.66392848  0.66905379  0.02533168  1
  Zr  Zr10  1  0.16546846  0.66232328  0.52299433  1
  Zr  Zr11  1  0.66069886  0.64641765  0.51865405  1
  Si  Si0  1  0.15204600  0.01868834  0.24904347  1
  Si  Si1  1  0.65246617  0.01565548  0.25103546  1
  Si  Si2  1  0.65233605  0.28630463  0.74913828  1
  Si  Si3  1  0.48091461  0.33551246  0.58295251  1
  Si  Si4  1  0.98046245  0.33353217  0.58063973  1
  Si  Si5  1  0.47840337  0.63032144  0.07945592  1
  Si  Si6  1  0.97812486  0.62322589  0.08473367  1
  Si  Si7  1  0.17007694  0.96122879  0.91425292  1
  Si  Si8  1  0.66926312  0.37690942  0.41369391  1
  S  S0  1  0.35755855  0.70080191  0.25279252  1
  S  S1  1  0.85890327  0.70688261  0.24622581  1
  S  S2  1  0.99316342  0.28206912  0.24757452  1
  S  S3  1  0.49216357  0.28155513  0.25067738  1
  S  S4  1  0.14881497  0.28214404  0.75255712  1
  S  S5  1  0.99407361  0.70475934  0.75145625  1
  S  S6  1  0.49045692  0.70118686  0.74770666  1
  S  S7  1  0.35728025  0.00978382  0.74625897  1
  S  S8  1  0.85908808  0.01562453  0.75293405  1
  S  S9  1  0.18891006  0.03943569  0.58247048  1
  S  S10  1  0.68740956  0.03618898  0.58547098  1
  S  S11  1  0.33263706  0.62449585  0.58509288  1
  S  S12  1  0.83123228  0.62426207  0.58276140  1
  S  S13  1  0.33175373  0.03910544  0.08290810  1
  S  S14  1  0.83309923  0.03990096  0.08497905  1
  S  S15  1  0.18675753  0.33927639  0.08531224  1
  S  S16  1  0.68777779  0.33801683  0.08118378  1
  S  S17  1  0.31217670  0.67081727  0.91775792  1
  S  S18  1  0.81159109  0.66918065  0.91440537  1
  S  S19  1  0.02228700  0.37257254  0.91455061  1
  S  S20  1  0.52425151  0.37945920  0.91927465  1
  S  S21  1  0.66615006  0.95192512  0.91859463  1
  S  S22  1  0.31052539  0.95016157  0.41533812  1
  S  S23  1  0.81347893  0.95226458  0.41902790  1
  S  S24  1  0.16497725  0.37845052  0.41924666  1
  S  S25  1  0.02500876  0.67118800  0.41945492  1
  S  S26  1  0.52244795  0.67155532  0.41544837  1
  O  O0  1  0.11246401  0.05289162  0.30555622  1
  O  O1  1  0.60205682  0.04202945  0.30594174  1
  O  O2  1  0.41148726  0.78587067  0.30183647  1
  O  O3  1  0.90887552  0.77947232  0.29805195  1
  O  O4  1  0.47844903  0.17073086  0.30027762  1
  O  O5  1  0.97763647  0.17858945  0.29887627  1
  O  O6  1  0.10433268  0.17132159  0.80200894  1
  O  O7  1  0.61176947  0.17094343  0.80520787  1
  O  O8  1  0.47451977  0.77264624  0.79884439  1
  O  O9  1  0.98288509  0.79298058  0.80102973  1
  O  O10  1  0.40749256  0.04175946  0.79794219  1
  O  O11  1  0.91383140  0.03839499  0.80189742  1
  O  O12  1  0.40191962  0.99203659  0.69761734  1
  O  O13  1  0.89561278  0.98735776  0.70188610  1
  O  O14  1  0.09909740  0.20540667  0.70163734  1
  O  O15  1  0.59075496  0.17993637  0.69596865  1
  O  O16  1  0.00566532  0.80458836  0.70089513  1
  O  O17  1  0.49901567  0.80429484  0.69829962  1
  O  O18  1  0.39160337  0.80049014  0.20142408  1
  O  O19  1  0.90370985  0.81695804  0.19783655  1
  O  O20  1  0.00135545  0.19493643  0.19828758  1
  O  O21  1  0.50004598  0.20343445  0.19931967  1
  O  O22  1  0.09079975  0.00193198  0.19594512  1
  O  O23  1  0.59855431  0.99530010  0.19563437  1
  O  O24  1  0.42985835  0.36254396  0.63734618  1
  O  O25  1  0.93359855  0.35702268  0.63728979  1
  O  O26  1  0.24169949  0.12474613  0.63310109  1
  O  O27  1  0.74397257  0.12545099  0.63456786  1
  O  O28  1  0.31248838  0.50471859  0.63401902  1
  O  O29  1  0.81904245  0.51633161  0.63335475  1
  O  O30  1  0.43102592  0.51369106  0.13564145  1
  O  O31  1  0.92718800  0.49403651  0.13663779  1
  O  O32  1  0.31911309  0.12318238  0.13267989  1
  O  O33  1  0.81219327  0.11620816  0.13316794  1
  O  O34  1  0.24370001  0.36575216  0.13360962  1
  O  O35  1  0.73917067  0.35840295  0.13157110  1
  O  O36  1  0.21745277  0.29081366  0.03563171  1
  O  O37  1  0.72490252  0.30347218  0.03136801  1
  O  O38  1  0.42433489  0.53761564  0.02487570  1
  O  O39  1  0.92375809  0.54718489  0.02831441  1
  O  O40  1  0.34221558  0.13918009  0.03230085  1
  O  O41  1  0.84960255  0.14502513  0.03458866  1
  O  O42  1  0.22411778  0.14866910  0.53308892  1
  O  O43  1  0.71825788  0.14652525  0.53637393  1
  O  O44  1  0.34945059  0.55198943  0.53543034  1
  O  O45  1  0.84473845  0.54750624  0.53309449  1
  O  O46  1  0.42110976  0.29908714  0.53005684  1
  O  O47  1  0.92258250  0.30471659  0.52726360  1
  O  O48  1  0.26559242  0.67649704  0.96773692  1
  O  O49  1  0.77418602  0.69156316  0.96593948  1
  O  O50  1  0.07234104  0.44975932  0.96576918  1
  O  O51  1  0.57785197  0.47255208  0.96870254  1
  O  O52  1  0.15920162  0.84488559  0.97065364  1
  O  O53  1  0.66393479  0.85191104  0.96902765  1
  O  O54  1  0.26930565  0.85274769  0.46739855  1
  O  O55  1  0.76644897  0.85489162  0.46984145  1
  O  O56  1  0.16249809  0.47431092  0.47000877  1
  O  O57  1  0.65991595  0.47467850  0.47130988  1
  O  O58  1  0.07867989  0.68491530  0.46931298  1
  O  O59  1  0.57253824  0.69116582  0.46738480  1
  O  O60  1  0.06519786  0.65659652  0.36819343  1
  O  O61  1  0.56173703  0.64491481  0.36650209  1
  O  O62  1  0.25623324  0.86653507  0.36673417  1
  O  O63  1  0.76764248  0.87152888  0.36776141  1
  O  O64  1  0.17053944  0.47199469  0.36840202  1
  O  O65  1  0.68085293  0.49038980  0.36029841  1
  O  O66  1  0.06238392  0.47680752  0.86490421  1
  O  O67  1  0.56472251  0.47439421  0.86770977  1
  O  O68  1  0.17925243  0.86961503  0.85958376  1
  O  O69  1  0.67172056  0.86944593  0.86753943  1
  O  O70  1  0.26523116  0.65708341  0.86578444  1
  O  O71  1  0.75892113  0.64790165  0.86523911  1
  O  O72  1  0.01943051  0.82901972  0.41899319  1
  O  O73  1  0.51438132  0.82551147  0.40975610  1
  O  O74  1  0.39393275  0.96322089  0.40874062  1
  O  O75  1  0.89851775  0.96455928  0.41938786  1
  O  O76  1  0.08552720  0.21020683  0.42064507  1
  O  O77  1  0.57877475  0.19331770  0.40790134  1
  O  O78  1  0.01494535  0.20181317  0.90658262  1
  O  O79  1  0.51819042  0.20971795  0.91810424  1
  O  O80  1  0.08100535  0.97000428  0.90485820  1
  O  O81  1  0.58650230  0.96084853  0.91941714  1
  O  O82  1  0.39678023  0.82872957  0.91624463  1
  O  O83  1  0.89701019  0.82503574  0.90601908  1
  O  O84  1  0.49224538  0.17409453  0.59848038  1
  O  O85  1  0.99841561  0.17610926  0.58774569  1
  O  O86  1  0.10182490  0.00522843  0.59137390  1
  O  O87  1  0.60017198  0.00324852  0.59769049  1
  O  O88  1  0.40609229  0.78998774  0.59867212  1
  O  O89  1  0.90736204  0.79367187  0.59078000  1
  O  O90  1  0.49377704  0.82087182  0.08323607  1
  O  O91  1  0.99228482  0.81135192  0.09810495  1
  O  O92  1  0.40693289  0.02138774  0.08960264  1
  O  O93  1  0.90635406  0.02027460  0.09743559  1
  O  O94  1  0.09969640  0.19843838  0.09698446  1
  O  O95  1  0.59977164  0.20056185  0.08710594  1
  O  O96  1  0.34509273  0.16089574  0.73810091  1
  O  O97  1  0.85374236  0.17438081  0.74681152  1
  O  O98  1  0.23350973  0.29458896  0.74780816  1
  O  O99  1  0.74654499  0.30795828  0.73777091  1
  O  O100  1  0.41331174  0.52640276  0.74010557  1
  O  O101  1  0.91471912  0.53564096  0.74720365  1
  O  O102  1  0.35260929  0.53087383  0.24630306  1
  O  O103  1  0.85087524  0.53652664  0.23855141  1
  O  O104  1  0.41352361  0.29771378  0.24654518  1
  O  O105  1  0.91790900  0.30500047  0.24025749  1
  O  O106  1  0.24574374  0.18556571  0.23684998  1
  O  O107  1  0.74617621  0.19331474  0.24477625  1
  O  O108  1  0.32262807  0.51938681  0.91926446  1
  O  O109  1  0.82352223  0.51875806  0.91761115  1
  O  O110  1  0.43927208  0.35991577  0.92318288  1
  O  O111  1  0.93489204  0.34498167  0.91931299  1
  O  O112  1  0.24872051  0.15178353  0.91757304  1
  O  O113  1  0.74114337  0.12442029  0.92245865  1
  O  O114  1  0.31986675  0.12333094  0.41932266  1
  O  O115  1  0.82425569  0.12490838  0.42107831  1
  O  O116  1  0.24005167  0.35712085  0.42402149  1
  O  O117  1  0.74814312  0.34359493  0.41925244  1
  O  O118  1  0.43516383  0.52223199  0.42133635  1
  O  O119  1  0.94042941  0.52061032  0.42424155  1
  O  O120  1  0.18338482  0.49559915  0.07517292  1
  O  O121  1  0.68825968  0.50166787  0.07244831  1
  O  O122  1  0.07118733  0.63793104  0.07355566  1
  O  O123  1  0.57355905  0.64324850  0.07172807  1
  O  O124  1  0.25501356  0.86727432  0.07680756  1
  O  O125  1  0.75750786  0.86855443  0.07497492  1
  O  O126  1  0.18843702  0.87722938  0.57495525  1
  O  O127  1  0.68399924  0.87325188  0.57703259  1
  O  O128  1  0.25689358  0.64316869  0.57650214  1
  O  O129  1  0.75594715  0.64444807  0.57661036  1
  O  O130  1  0.07469315  0.50947559  0.57118786  1
  O  O131  1  0.57220422  0.50633404  0.57341903  1
  O  O132  1  0.15928309  0.85011681  0.25411732  1
  O  O133  1  0.66655645  0.85975286  0.26279135  1
  O  O134  1  0.27076396  0.66841618  0.26152159  1
  O  O135  1  0.77496644  0.68879001  0.24921492  1
  O  O136  1  0.06977100  0.44859030  0.25377714  1
  O  O137  1  0.56550427  0.45040549  0.25782692  1
  O  O138  1  0.15906767  0.45082820  0.76033180  1
  O  O139  1  0.65953084  0.46937971  0.75445407  1
  O  O140  1  0.06674932  0.67966960  0.75920107  1
  O  O141  1  0.56563760  0.68306720  0.75367987  1
  O  O142  1  0.27348713  0.85701677  0.74990070  1
  O  O143  1  0.77346613  0.87112218  0.76112258  1
loop_
_geom_bond_atom_site_label_1
_geom_bond_atom_site_label_2
_geom_bond_distance
_geom_bond_site_symmetry_2
Na0 O75 2.468180 1_545
Na0 O85 2.490706 1_555
Na0 O76 2.569449 1_655
Na0 O72 2.830795 1_645
Na0 O89 2.852957 1_545
Na0 O86 3.009125 1_655
Na1 O90 2.245053 1_555
Na1 O82 2.702141 1_554
Na1 O92 2.716252 1_565
Na1 O81 2.727548 1_554
Na1 O95 2.789028 1_565
Na1 O79 2.952115 1_564
Na2 O112 2.240902 1_555
Na2 O108 2.619777 1_555
Na2 O98 2.751592 1_555
Na2 O110 2.753798 1_555
Na3 O99 2.514076 1_555
Na3 O97 2.619809 1_555
Na3 O101 2.640481 1_555
Na3 O109 2.760221 1_555
Na3 O113 2.829948 1_555
Na3 O111 2.962873 1_555
Na4 O106 2.513095 1_555
Na4 O104 2.534874 1_555
Na4 O102 2.573675 1_555
Na4 O114 2.836263 1_555
Na4 O116 2.957685 1_555
Na4 O118 3.007411 1_555
Na5 O117 2.354220 1_555
Na5 O107 2.457232 1_555
Na5 O115 2.788569 1_555
Na5 O103 2.918374 1_555
Na5 O119 3.046148 1_555
Na5 O105 3.071673 1_555
O0 Si0 1.635866 1_555
O0 Y0 2.062907 1_555
O1 Si1 1.689286 1_555
O1 Zr0 1.937841 1_555
O2 S0 1.479636 1_555
O2 Zr0 2.351004 1_565
O3 S1 1.486555 1_555
O3 Y0 2.286513 1_665
O4 S3 1.496839 1_555
O4 Zr0 2.221191 1_555
O5 S2 1.487163 1_555
O5 Y0 2.275978 1_655
O6 S4 1.503456 1_555
O6 Zr1 2.185966 1_545
O7 Si2 1.636160 1_555
O7 Y1 2.065004 1_555
O8 S6 1.482952 1_555
O8 Y1 2.317429 1_565
O9 S5 1.504330 1_555
O9 Zr1 2.178362 1_655
O10 S7 1.480715 1_555
O10 Y1 2.358492 1_555
O11 S8 1.487067 1_555
O11 Zr1 2.299949 1_645
O12 S7 1.475854 1_565
O12 Zr2 2.192404 1_565
O13 S8 1.475500 1_565
O13 Y2 2.236421 1_565
O14 S4 1.472456 1_555
O14 Y2 2.243687 1_455
O15 Si2 1.654832 1_555
O15 Zr2 1.924583 1_555
O16 S5 1.464956 1_455
O16 Y2 2.309686 1_465
O17 S6 1.469856 1_555
O17 Zr2 2.258741 1_565
O18 S0 1.469562 1_555
O18 Y3 2.270577 1_555
O19 S1 1.481980 1_555
O19 Zr3 2.145107 1_655
O20 S2 1.471819 1_455
O20 Zr3 2.240112 1_545
O21 S3 1.464355 1_555
O21 Y3 2.313519 1_545
O22 Si0 1.649797 1_555
O22 Zr3 1.922889 1_545
O23 Si1 1.607296 1_565
O23 Y3 2.043679 1_555
O24 Si3 1.689580 1_555
O24 Zr4 1.903185 1_555
O25 Si4 1.673545 1_555
O25 Zr5 1.997720 1_555
O26 S9 1.502371 1_555
O26 Zr4 2.156619 1_555
O27 S10 1.507743 1_555
O27 Zr5 2.146350 1_555
O28 S11 1.515759 1_555
O28 Zr4 2.135565 1_555
O29 S12 1.505312 1_555
O29 Zr5 2.166437 1_555
O30 Si5 1.663561 1_555
O30 Zr6 2.000913 1_555
O31 Si6 1.642887 1_555
O31 Zr7 2.002359 1_555
O32 S13 1.496356 1_555
O32 Zr6 2.197693 1_555
O33 S14 1.492333 1_555
O33 Zr7 2.174622 1_555
O34 S15 1.492560 1_555
O34 Zr6 2.201223 1_555
O35 S16 1.482803 1_555
O35 Zr7 2.224491 1_555
O36 S15 1.473846 1_555
O36 Y4 2.244403 1_554
O37 S16 1.481475 1_555
O37 Y5 2.253986 1_554
O38 Si5 1.601925 1_555
O38 Y4 2.089191 1_554
O39 Si6 1.614510 1_555
O39 Y5 2.034721 1_554
O40 S13 1.470682 1_555
O40 Y4 2.238893 1_554
O41 S14 1.475127 1_555
O41 Y5 2.280966 1_554
O42 S9 1.470314 1_555
O42 Y6 2.298039 1_555
O43 S10 1.464109 1_555
O43 Y7 2.284641 1_555
O44 S11 1.465993 1_555
O44 Y6 2.327445 1_555
O45 S12 1.462355 1_555
O45 Y7 2.281044 1_555
O46 Si3 1.595911 1_555
O46 Y6 2.047924 1_555
O47 Si4 1.595117 1_555
O47 Y7 2.123026 1_555
O48 S17 1.483773 1_555
O48 Zr8 2.314826 1_556
O49 S18 1.473137 1_555
O49 Zr9 2.386593 1_556
O50 S19 1.481404 1_555
O50 Zr8 2.324445 1_556
O51 S20 1.500393 1_555
O51 Zr9 2.169181 1_556
O52 Si7 1.666555 1_555
O52 Zr8 1.971844 1_556
O53 S21 1.501469 1_555
O53 Zr9 2.143154 1_556
O54 S22 1.496559 1_555
O54 Zr10 2.254071 1_555
O55 S23 1.497377 1_555
O55 Zr11 2.242290 1_555
O56 S24 1.511423 1_555
O56 Zr10 2.111256 1_555
O57 Si8 1.697302 1_555
O57 Zr11 1.927154 1_555
O58 S25 1.510197 1_555
O58 Zr10 2.128740 1_555
O59 S26 1.501344 1_555
O59 Zr11 2.217951 1_555
O60 S25 1.469760 1_555
O60 Y8 2.291993 1_555
O61 S26 1.456388 1_555
O61 Y9 2.345989 1_555
O62 S22 1.471531 1_555
O62 Y8 2.270193 1_555
O63 S23 1.461605 1_555
O63 Y9 2.318187 1_555
O64 S24 1.460612 1_555
O64 Y8 2.428681 1_555
O65 Si8 1.590746 1_555
O65 Y9 2.115786 1_555
O66 S19 1.468090 1_555
O66 Y10 2.296412 1_555
O67 S20 1.476190 1_555
O67 Y11 2.272506 1_555
O68 Si7 1.606486 1_555
O68 Y10 2.042400 1_555
O69 S21 1.465748 1_555
O69 Y11 2.398359 1_555
O70 S17 1.481346 1_555
O70 Y10 2.247984 1_555
O71 S18 1.471081 1_555
O71 Y11 2.277836 1_555
O72 S25 1.491324 1_555
O72 Y0 2.378673 1_565
O73 S26 1.487784 1_555
O73 Zr0 2.193990 1_565
O74 S22 1.473962 1_555
O74 Zr0 2.339547 1_565
O75 S23 1.498367 1_555
O75 Y0 2.449922 1_665
O76 S24 1.493102 1_555
O76 Y0 2.407448 1_555
O77 Si8 1.667646 1_555
O77 Zr0 1.935414 1_555
O78 S19 1.505380 1_555
O78 Zr1 2.124855 1_545
O79 S20 1.494374 1_555
O79 Y1 2.343213 1_555
O80 Si7 1.681441 1_555
O80 Zr1 1.905754 1_555
O81 S21 1.495269 1_555
O81 Y1 2.363173 1_565
O82 S17 1.494113 1_555
O82 Y1 2.408821 1_565
O83 S18 1.507075 1_555
O83 Zr1 2.123309 1_655
O84 Si3 1.626974 1_555
O84 Zr2 1.940820 1_555
O85 Si4 1.631663 1_555
O85 Y2 2.091341 1_555
O86 S9 1.473268 1_555
O86 Y2 2.301749 1_455
O87 S10 1.493260 1_555
O87 Zr2 2.113899 1_555
O88 S11 1.468043 1_555
O88 Zr2 2.271586 1_565
O89 S12 1.484828 1_555
O89 Y2 2.264563 1_565
O90 Si5 1.616629 1_555
O90 Y3 2.152221 1_555
O91 Si6 1.632282 1_555
O91 Zr3 1.947590 1_655
O92 S13 1.467637 1_555
O92 Y3 2.392048 1_545
O93 S14 1.464917 1_555
O93 Zr3 2.273531 1_645
O94 S15 1.485962 1_555
O94 Zr3 2.141329 1_545
O95 S16 1.467891 1_555
O95 Y3 2.372879 1_545
O96 S7 1.512780 1_555
O96 Zr4 2.150725 1_555
O97 S8 1.504488 1_555
O97 Zr5 2.263327 1_555
O98 S4 1.495719 1_555
O98 Zr4 2.352505 1_555
O99 Si2 1.651235 1_555
O99 Zr5 2.026453 1_555
O100 S6 1.519466 1_555
O100 Zr4 2.141865 1_555
O101 S5 1.499874 1_555
O101 Zr5 2.273753 1_555
O102 S0 1.512981 1_555
O102 Zr6 2.212366 1_555
O103 S1 1.495553 1_555
O103 Zr7 2.167191 1_555
O104 S3 1.516737 1_555
O104 Zr6 2.205860 1_555
O105 S2 1.498584 1_555
O105 Zr7 2.164372 1_555
O106 Si0 1.648786 1_555
O106 Zr6 2.019660 1_555
O107 Si1 1.672404 1_555
O107 Zr7 2.023027 1_555
O108 S17 1.484451 1_555
O108 Y4 2.325233 1_555
O109 S18 1.493041 1_555
O109 Y5 2.347498 1_555
O110 S20 1.472118 1_555
O110 Y4 2.390549 1_555
O111 S19 1.488839 1_655
O111 Y5 2.307855 1_555
O112 Si7 1.608677 1_545
O112 Y4 2.195875 1_555
O113 S21 1.483241 1_545
O113 Y5 2.392350 1_555
O114 S22 1.502702 1_545
O114 Y6 2.283028 1_555
O115 S23 1.485096 1_545
O115 Y7 2.280310 1_555
O116 S24 1.480692 1_555
O116 Y6 2.357672 1_555
O117 Si8 1.617711 1_555
O117 Y7 2.150733 1_555
O118 S26 1.496387 1_555
O118 Y6 2.242484 1_555
O119 S25 1.469198 1_655
O119 Y7 2.346296 1_555
O120 S15 1.475846 1_555
O120 Zr8 2.283307 1_555
O121 S16 1.501030 1_555
O121 Zr9 2.114908 1_555
O122 Si6 1.656298 1_455
O122 Zr8 1.932876 1_555
O123 Si5 1.689992 1_555
O123 Zr9 1.902197 1_555
O124 S13 1.496860 1_565
O124 Zr8 2.163233 1_555
O125 S14 1.497941 1_565
O125 Zr9 2.129364 1_555
O126 S9 1.484400 1_565
O126 Zr10 2.177375 1_555
O127 S10 1.468290 1_565
O127 Zr11 2.352095 1_555
O128 S11 1.488485 1_555
O128 Zr10 2.179275 1_555
O129 S12 1.481277 1_555
O129 Zr11 2.232041 1_555
O130 Si4 1.679036 1_455
O130 Zr10 1.924807 1_555
O131 Si3 1.629356 1_555
O131 Zr11 1.972891 1_555
O132 Si0 1.610280 1_565
O132 Y8 2.056206 1_555
O133 Si1 1.589738 1_565
O133 Y9 2.099379 1_555
O134 S0 1.473028 1_555
O134 Y8 2.234875 1_555
O135 S1 1.457407 1_555
O135 Y9 2.303686 1_555
O136 S2 1.468613 1_455
O136 Y8 2.268153 1_555
O137 S3 1.458760 1_555
O137 Y9 2.284953 1_555
O138 S4 1.464223 1_555
O138 Y10 2.312155 1_555
O139 Si2 1.611283 1_555
O139 Y11 2.060354 1_555
O140 S5 1.465391 1_455
O140 Y10 2.275224 1_555
O141 S6 1.467984 1_555
O141 Y11 2.293858 1_555
O142 S7 1.467429 1_565
O142 Y10 2.299015 1_555
O143 S8 1.467736 1_565
O143 Y11 2.261897 1_555
