# generated using pymatgen
data_Na3Mg2Ta2P5SO24
_symmetry_space_group_name_H-M   'P 1'
_cell_length_a   8.76432186
_cell_length_b   8.72266763
_cell_length_c   22.59416883
_cell_angle_alpha   90.14779301
_cell_angle_beta   89.87595483
_cell_angle_gamma   119.87938945
_symmetry_Int_Tables_number   1
_chemical_formula_structural   Na3Mg2Ta2P5SO24
_chemical_formula_sum   'Na9 Mg6 Ta6 P15 S3 O72'
_cell_volume   1497.68166797
_cell_formula_units_Z   3
loop_
 _symmetry_equiv_pos_site_id
 _symmetry_equiv_pos_as_xyz
  1  'x, y, z'
loop_
 _atom_site_type_symbol
 _atom_site_label
 _atom_site_symmetry_multiplicity
 _atom_site_fract_x
 _atom_site_fract_y
 _atom_site_fract_z
 _atom_site_occupancy
  Na  Na0  1  0.01074479  0.36943018  0.75199278  1
  Na  Na1  1  0.67807424  0.97759745  0.58516464  1
  Na  Na2  1  0.67937445  0.70331103  0.08534117  1
  Na  Na3  1  0.00917701  0.00357621  0.50552301  1
  Na  Na4  1  0.00589308  0.00748954  0.00509119  1
  Na  Na5  1  0.66412448  0.33907359  0.83996120  1
  Na  Na6  1  0.65794719  0.32774597  0.33906313  1
  Na  Na7  1  0.33111338  0.67357103  0.17343909  1
  Na  Na8  1  0.33309433  0.66834183  0.67294889  1
  Mg  Mg0  1  0.00642974  0.00007393  0.64777565  1
  Mg  Mg1  1  0.00432246  0.99871801  0.14767169  1
  Mg  Mg2  1  0.67262934  0.33760456  0.98085555  1
  Mg  Mg3  1  0.66047132  0.32753993  0.48069178  1
  Mg  Mg4  1  0.34582062  0.67370941  0.31358486  1
  Mg  Mg5  1  0.33806585  0.66620797  0.81426082  1
  Ta  Ta0  1  0.00089755  0.99847500  0.35403876  1
  Ta  Ta1  1  0.99418371  0.99840430  0.85345046  1
  Ta  Ta2  1  0.66186170  0.33390440  0.68687510  1
  Ta  Ta3  1  0.66102484  0.33250591  0.18683773  1
  Ta  Ta4  1  0.33102626  0.66073834  0.02066159  1
  Ta  Ta5  1  0.33602190  0.65978393  0.52057782  1
  P  P0  1  0.28619056  0.99252823  0.24813207  1
  P  P1  1  0.70781916  0.71288243  0.24720925  1
  P  P2  1  0.28716201  0.28940246  0.74882065  1
  P  P3  1  0.00518618  0.71332581  0.74825694  1
  P  P4  1  0.70368400  0.99231320  0.74708208  1
  P  P5  1  0.95478742  0.33183873  0.58167749  1
  P  P6  1  0.37052833  0.04483253  0.58090652  1
  P  P7  1  0.67439244  0.62472213  0.58064973  1
  P  P8  1  0.95527569  0.62354247  0.08204567  1
  P  P9  1  0.67146579  0.04764513  0.08101857  1
  P  P10  1  0.37127854  0.32251829  0.08067953  1
  P  P11  1  0.62037450  0.65962689  0.91488735  1
  P  P12  1  0.03886953  0.37832271  0.91348702  1
  P  P13  1  0.62219855  0.96140861  0.41488055  1
  P  P14  1  0.33931070  0.37858659  0.41308540  1
  S  S0  1  0.00247181  0.29134606  0.24897405  1
  S  S1  1  0.33581923  0.95760942  0.91546400  1
  S  S2  1  0.04338124  0.66191144  0.41525198  1
  O  O0  1  0.19939765  0.03018076  0.30517751  1
  O  O1  1  0.83177393  0.80406147  0.30346256  1
  O  O2  1  0.96963138  0.17636504  0.30371885  1
  O  O3  1  0.20064914  0.16834665  0.80554984  1
  O  O4  1  0.97034513  0.79952368  0.80527265  1
  O  O5  1  0.83239904  0.03396274  0.80330781  1
  O  O6  1  0.78961513  0.97497472  0.69182154  1
  O  O7  1  0.17373450  0.20625034  0.69532347  1
  O  O8  1  0.02603229  0.82076924  0.69427660  1
  O  O9  1  0.79173897  0.81725732  0.19206457  1
  O  O10  1  0.02483579  0.20929936  0.19662809  1
  O  O11  1  0.18043308  0.97751563  0.19456280  1
  O  O12  1  0.87162382  0.36618112  0.64014381  1
  O  O13  1  0.49819253  0.12993564  0.63777955  1
  O  O14  1  0.63529542  0.50407232  0.63781784  1
  O  O15  1  0.86851298  0.50181451  0.13882887  1
  O  O16  1  0.63650639  0.13333398  0.13831076  1
  O  O17  1  0.49832092  0.36904436  0.13770042  1
  O  O18  1  0.46144319  0.30655324  0.02701353  1
  O  O19  1  0.84135744  0.54018368  0.02874725  1
  O  O20  1  0.69181291  0.15491189  0.02704985  1
  O  O21  1  0.46149298  0.15277653  0.52773795  1
  O  O22  1  0.69470073  0.53783863  0.52662064  1
  O  O23  1  0.84081761  0.30426543  0.52868615  1
  O  O24  1  0.53713820  0.69773013  0.97312816  1
  O  O25  1  0.16407305  0.47023663  0.96997270  1
  O  O26  1  0.30306777  0.84315697  0.97008110  1
  O  O27  1  0.53590335  0.83922413  0.47284793  1
  O  O28  1  0.30184794  0.46498155  0.47099799  1
  O  O29  1  0.15675763  0.69768308  0.46986556  1
  O  O30  1  0.12512158  0.64166984  0.36254384  1
  O  O31  1  0.51081116  0.87115943  0.36210291  1
  O  O32  1  0.35273949  0.48668561  0.36031098  1
  O  O33  1  0.12447104  0.48348762  0.85865901  1
  O  O34  1  0.35671425  0.87465746  0.86298665  1
  O  O35  1  0.51259906  0.64485255  0.86182041  1
  O  O36  1  0.03039223  0.83139180  0.41062186  1
  O  O37  1  0.80895959  0.97008243  0.40836227  1
  O  O38  1  0.16221556  0.19076826  0.40847190  1
  O  O39  1  0.03157666  0.19175727  0.90962050  1
  O  O40  1  0.16869470  0.96978242  0.91118808  1
  O  O41  1  0.80859546  0.83677226  0.90929002  1
  O  O42  1  0.97686273  0.17214583  0.59090253  1
  O  O43  1  0.18947057  0.01663221  0.59034935  1
  O  O44  1  0.82001471  0.81240763  0.58996122  1
  O  O45  1  0.97745952  0.80547791  0.09102106  1
  O  O46  1  0.82085354  0.01074569  0.09090547  1
  O  O47  1  0.18855480  0.17452708  0.09127261  1
  O  O48  1  0.70060773  0.17414488  0.74366500  1
  O  O49  1  0.47365432  0.30332191  0.74312649  1
  O  O50  1  0.83083175  0.52263955  0.74320814  1
  O  O51  1  0.69896173  0.52524193  0.24300323  1
  O  O52  1  0.83531754  0.30273364  0.24478362  1
  O  O53  1  0.47504461  0.16911088  0.24262873  1
  O  O54  1  0.64745422  0.50457049  0.92386704  1
  O  O55  1  0.85632616  0.34790662  0.92340937  1
  O  O56  1  0.48635653  0.13285965  0.92399421  1
  O  O57  1  0.65475507  0.14546567  0.42406420  1
  O  O58  1  0.49381431  0.35253438  0.42330238  1
  O  O59  1  0.86761284  0.51371071  0.42388710  1
  O  O60  1  0.36667035  0.50560848  0.07638153  1
  O  O61  1  0.14228287  0.63898732  0.07554792  1
  O  O62  1  0.49676664  0.85643060  0.07550195  1
  O  O63  1  0.36478117  0.85818942  0.57582554  1
  O  O64  1  0.49766470  0.63995313  0.57617082  1
  O  O65  1  0.14078642  0.50533135  0.57553382  1
  O  O66  1  0.31133484  0.83624895  0.25809877  1
  O  O67  1  0.52405368  0.68075586  0.25626480  1
  O  O68  1  0.15228206  0.46686075  0.25829553  1
  O  O69  1  0.31028533  0.47191828  0.75751509  1
  O  O70  1  0.15531895  0.67733872  0.75768330  1
  O  O71  1  0.52231870  0.84050312  0.75770468  1
loop_
_geom_bond_atom_site_label_1
_geom_bond_atom_site_label_2
_geom_bond_distance
_geom_bond_site_symmetry_2
Na0 O69 2.317172 1_555
Na0 O70 2.333172 1_555
Na0 O48 2.390114 1_455
Na0 O50 2.532583 1_455
Na0 O33 2.607979 1_555
Na0 O7 2.777499 1_555
Na0 O5 2.793287 1_455
Na0 O12 2.802222 1_455
Na1 O42 2.307971 1_565
Na1 O44 2.328698 1_555
Na1 O63 2.412611 1_555
Na1 O64 2.563952 1_555
Na1 O6 2.606953 1_555
Na1 O13 2.781258 1_565
Na1 O23 2.782711 1_565
Na1 O27 2.819358 1_555
Na2 O45 2.305872 1_555
Na2 O46 2.330339 1_565
Na2 O60 2.411968 1_555
Na2 O62 2.554897 1_555
Na2 O9 2.606698 1_555
Na2 O19 2.769589 1_555
Na2 O17 2.796188 1_555
Na2 O24 2.817273 1_554
Na3 O43 2.452717 1_555
Na3 O42 2.522197 1_455
Na3 O44 2.533210 1_445
Na3 O38 2.664039 1_555
Na3 O36 2.673546 1_545
Na3 O37 2.736118 1_445
Na4 O47 2.480362 1_555
Na4 O46 2.534207 1_455
Na4 O45 2.552361 1_445
Na4 O39 2.634844 1_554
Na4 O40 2.663907 1_544
Na4 O41 2.706808 1_444
Na5 O54 2.427770 1_555
Na5 O55 2.506415 1_555
Na5 O56 2.545650 1_555
Na5 O50 2.674076 1_555
Na5 O49 2.676652 1_555
Na5 O48 2.710136 1_555
Na6 O58 2.456544 1_555
Na6 O57 2.487653 1_555
Na6 O59 2.590432 1_555
Na6 O53 2.649772 1_555
Na6 O51 2.684476 1_555
Na6 O52 2.706097 1_555
Na7 O66 2.435584 1_555
Na7 O67 2.504584 1_555
Na7 O68 2.563708 1_555
Na7 O61 2.690138 1_555
Na7 O62 2.691744 1_555
Na7 O60 2.736405 1_555
Na8 O71 2.488011 1_555
Na8 O70 2.491432 1_555
Na8 O69 2.510030 1_555
Na8 O63 2.681934 1_555
Na8 O64 2.694884 1_555
Na8 O65 2.705383 1_555
Mg0 O8 1.963799 1_545
Mg0 O7 1.976846 1_555
Mg0 O43 2.009729 1_555
Mg0 O6 2.056121 1_445
Mg0 O42 2.090472 1_455
Mg0 O44 2.094939 1_445
Mg1 O11 1.957431 1_555
Mg1 O9 2.011100 1_455
Mg1 O47 2.028976 1_565
Mg1 O45 2.032163 1_455
Mg1 O10 2.071507 1_565
Mg1 O46 2.102223 1_465
Mg2 O19 1.968153 1_556
Mg2 O20 1.983273 1_556
Mg2 O18 2.020014 1_556
Mg2 O55 2.032777 1_555
Mg2 O54 2.039303 1_555
Mg2 O56 2.144193 1_555
Mg3 O21 1.961260 1_555
Mg3 O22 1.993740 1_555
Mg3 O23 2.010904 1_555
Mg3 O57 2.018000 1_555
Mg3 O58 2.046771 1_555
Mg3 O59 2.154877 1_555
Mg4 O31 1.942865 1_555
Mg4 O32 1.971618 1_555
Mg4 O67 2.004290 1_555
Mg4 O66 2.027530 1_555
Mg4 O30 2.120592 1_555
Mg4 O68 2.154390 1_555
Mg5 O35 1.954821 1_555
Mg5 O33 2.019486 1_555
Mg5 O71 2.026559 1_555
Mg5 O69 2.038193 1_555
Mg5 O34 2.058903 1_555
Mg5 O70 2.091236 1_555
O0 P0 1.609423 1_545
O0 Ta0 1.958509 1_545
O1 P1 1.602525 1_555
O1 Ta0 1.967625 1_655
O2 S0 1.528375 1_655
O2 Ta0 2.051710 1_645
O3 P2 1.593059 1_555
O3 Ta1 1.992562 1_445
O4 P3 1.593779 1_655
O4 Ta1 1.966752 1_555
O5 P4 1.616765 1_545
O5 Ta1 1.958884 1_545
O6 P4 1.502475 1_555
O7 P2 1.502539 1_555
O8 P3 1.494512 1_555
O9 P1 1.502309 1_555
O10 S0 1.443537 1_555
O11 P0 1.491422 1_555
O12 P5 1.605415 1_555
O12 Ta2 2.012789 1_555
O13 P6 1.621092 1_555
O13 Ta2 1.976722 1_555
O14 P7 1.593467 1_555
O14 Ta2 1.959573 1_555
O15 P8 1.596869 1_555
O15 Ta3 1.997115 1_555
O16 P9 1.596764 1_555
O16 Ta3 1.971244 1_555
O17 P10 1.617888 1_555
O17 Ta3 1.956811 1_555
O18 P10 1.489541 1_555
O19 P8 1.501027 1_555
O20 P9 1.494265 1_555
O21 P6 1.489640 1_555
O22 P7 1.491617 1_555
O23 P5 1.501142 1_555
O24 P11 1.615368 1_555
O24 Ta4 1.983274 1_556
O25 P12 1.612432 1_555
O25 Ta4 1.946476 1_556
O26 S1 1.523544 1_555
O26 Ta4 2.072922 1_556
O27 P13 1.619586 1_555
O27 Ta5 1.987535 1_555
O28 P14 1.620935 1_555
O28 Ta5 1.927801 1_555
O29 S2 1.517158 1_555
O29 Ta5 2.101865 1_555
O30 S2 1.443566 1_555
O31 P13 1.493055 1_555
O32 P14 1.489752 1_555
O33 P12 1.501693 1_555
O34 S1 1.445537 1_555
O35 P11 1.493073 1_555
O36 S2 1.542032 1_555
O36 Ta0 2.052245 1_555
O37 P13 1.606942 1_555
O37 Ta0 1.993786 1_655
O38 P14 1.603180 1_555
O38 Ta0 1.989721 1_545
O39 P12 1.598635 1_555
O39 Ta1 2.000643 1_445
O40 S1 1.523705 1_555
O40 Ta1 2.119951 1_455
O41 P11 1.607881 1_555
O41 Ta1 1.985092 1_555
O42 P5 1.513728 1_555
O43 P6 1.494660 1_555
O44 P7 1.506949 1_555
O45 P8 1.512767 1_555
O46 P9 1.513018 1_555
O47 P10 1.492813 1_555
O48 P4 1.601722 1_545
O48 Ta2 2.046031 1_555
O49 P2 1.582485 1_555
O49 Ta2 1.990382 1_555
O50 P3 1.606865 1_655
O50 Ta2 2.022767 1_555
O51 P1 1.602050 1_555
O51 Ta3 1.995287 1_555
O52 S0 1.520090 1_655
O52 Ta3 2.126180 1_555
O53 P0 1.608566 1_545
O53 Ta3 1.990700 1_555
O54 P11 1.499404 1_555
O55 P12 1.502022 1_655
O56 S1 1.450766 1_545
O57 P13 1.498036 1_545
O58 P14 1.498928 1_555
O59 S2 1.448492 1_655
O60 P10 1.620699 1_555
O60 Ta4 1.986255 1_555
O61 P8 1.582737 1_455
O61 Ta4 1.997474 1_555
O62 P9 1.611543 1_565
O62 Ta4 2.021251 1_555
O63 P6 1.607340 1_565
O63 Ta5 2.042642 1_555
O64 P7 1.622577 1_555
O64 Ta5 1.966634 1_555
O65 P5 1.583972 1_455
O65 Ta5 1.996820 1_555
O66 P0 1.502871 1_555
O67 P1 1.504507 1_555
O68 S0 1.452191 1_555
O69 P2 1.513704 1_555
O70 P3 1.512728 1_555
O71 P4 1.496844 1_555
