# generated using pymatgen
data_MgMn6O11F
_symmetry_space_group_name_H-M   'P 1'
_cell_length_a   10.45587092
_cell_length_b   7.78080444
_cell_length_c   2.94614900
_cell_angle_alpha   90.00000000
_cell_angle_beta   90.00000000
_cell_angle_gamma   113.64106134
_symmetry_Int_Tables_number   1
_chemical_formula_structural   MgMn6O11F
_chemical_formula_sum   'Mg1 Mn6 O11 F1'
_cell_volume   219.56885024
_cell_formula_units_Z   1
loop_
 _symmetry_equiv_pos_site_id
 _symmetry_equiv_pos_as_xyz
  1  'x, y, z'
loop_
 _atom_site_type_symbol
 _atom_site_label
 _atom_site_symmetry_multiplicity
 _atom_site_fract_x
 _atom_site_fract_y
 _atom_site_fract_z
 _atom_site_occupancy
  Mg  Mg0  1  0.84115500  0.17344800  0.50000000  1
  Mn  Mn0  1  0.00413400  0.95173500  0.00000000  1
  Mn  Mn1  1  0.33110700  0.14375800  0.50000000  1
  Mn  Mn2  1  0.00149700  0.53240500  0.50000000  1
  Mn  Mn3  1  0.65342300  0.36558400  0.00000000  1
  Mn  Mn4  1  0.32884300  0.72169100  0.00000000  1
  Mn  Mn5  1  0.65120200  0.77680600  0.50000000  1
  O  O0  1  0.12852900  0.05236100  0.50000000  1
  O  O1  1  0.97577800  0.34267600  0.00000000  1
  O  O2  1  0.33608600  0.29795400  0.00000000  1
  O  O3  1  0.00194300  0.68829800  0.00000000  1
  O  O4  1  0.53318800  0.24409100  0.50000000  1
  O  O5  1  0.20045500  0.61190000  0.50000000  1
  O  O6  1  0.45996700  0.75652000  0.50000000  1
  O  O7  1  0.78768400  0.40358300  0.50000000  1
  O  O8  1  0.64691000  0.62370300  0.00000000  1
  O  O9  1  0.32378300  0.97274900  0.00000000  1
  O  O10  1  0.86845600  0.92781200  0.50000000  1
  F  F0  1  0.70086100  0.03792200  0.00000000  1
loop_
_geom_bond_atom_site_label_1
_geom_bond_atom_site_label_2
_geom_bond_distance
_geom_bond_site_symmetry_2
Mg0 O10 2.042524 1_545
Mg0 O7 2.078909 1_555
Mg0 O1 2.097283 1_555
Mg0 O1 2.097283 1_556
Mn0 O0 1.912575 1_565
Mn0 O0 1.912575 1_564
Mn0 O10 2.001332 1_454
Mn0 O10 2.001332 1_455
Mn0 O3 2.040673 1_555
Mn1 O2 1.887329 1_555
Mn1 O2 1.887329 1_556
Mn1 O4 1.936753 1_555
Mn1 O0 1.945285 1_555
Mn1 O9 1.965847 1_546
Mn1 O9 1.965847 1_545
Mn2 O3 1.907023 1_556
Mn2 O3 1.907023 1_555
Mn2 O5 1.917858 1_555
Mn2 O1 2.025630 1_456
Mn2 O1 2.025630 1_455
Mn2 O7 2.050713 1_455
Mn3 O4 1.921172 1_555
Mn3 O4 1.921172 1_554
Mn3 O7 1.973622 1_555
Mn3 O7 1.973622 1_554
Mn3 O8 2.036637 1_555
Mn4 O5 1.944750 1_555
Mn4 O5 1.944750 1_554
Mn4 O6 1.955784 1_554
Mn4 O6 1.955784 1_555
Mn4 O9 1.975244 1_555
Mn5 O8 1.883666 1_555
Mn5 O8 1.883666 1_556
Mn5 O6 1.941625 1_555
Mn5 O10 2.097622 1_555
F0 Mg0 2.047711 1_554
F0 Mg0 2.047711 1_555
F0 Mn5 2.391918 1_544
F0 Mn5 2.391918 1_545
