# generated using pymatgen
data_Na3InGa(PO4)3
_symmetry_space_group_name_H-M   'P 1'
_cell_length_a   8.93893801
_cell_length_b   8.92004998
_cell_length_c   22.08930200
_cell_angle_alpha   90.00376803
_cell_angle_beta   89.94642059
_cell_angle_gamma   119.79164436
_symmetry_Int_Tables_number   1
_chemical_formula_structural   Na3InGa(PO4)3
_chemical_formula_sum   'Na18 In6 Ga6 P18 O72'
_cell_volume   1528.52868149
_cell_formula_units_Z   6
loop_
 _symmetry_equiv_pos_site_id
 _symmetry_equiv_pos_as_xyz
  1  'x, y, z'
loop_
 _atom_site_type_symbol
 _atom_site_label
 _atom_site_symmetry_multiplicity
 _atom_site_fract_x
 _atom_site_fract_y
 _atom_site_fract_z
 _atom_site_occupancy
  Na  Na0  1  0.00047026  0.00068930  0.50058616  1
  Na  Na1  1  0.99823230  0.99818355  0.00178840  1
  Na  Na2  1  0.62922060  0.31251903  0.83176073  1
  Na  Na3  1  0.68796630  0.37086067  0.33352084  1
  Na  Na4  1  0.33182294  0.66669300  0.17020849  1
  Na  Na5  1  0.33323398  0.66616845  0.66548084  1
  Na  Na6  1  0.63897127  0.00155165  0.24973275  1
  Na  Na7  1  0.36130390  0.35931700  0.24956149  1
  Na  Na8  1  0.63804465  0.63449125  0.74687868  1
  Na  Na9  1  0.99663582  0.36150597  0.74664103  1
  Na  Na10  1  0.03608997  0.70326646  0.58418133  1
  Na  Na11  1  0.66470769  0.96625896  0.58378486  1
  Na  Na12  1  0.30117296  0.96972107  0.08632403  1
  Na  Na13  1  0.02721715  0.33285878  0.08631536  1
  Na  Na14  1  0.97024501  0.66501688  0.91751599  1
  Na  Na15  1  0.69498048  0.02780970  0.91674498  1
  Na  Na16  1  0.97227218  0.30231409  0.41686680  1
  Na  Na17  1  0.33443152  0.03327487  0.41775199  1
  In  In0  1  0.99103349  0.98805914  0.34683141  1
  In  In1  1  0.01243004  0.00945441  0.84617215  1
  In  In2  1  0.66293964  0.33969384  0.98748378  1
  In  In3  1  0.34115580  0.66391478  0.02013034  1
  In  In4  1  0.33597863  0.65937957  0.51842236  1
  In  In5  1  0.33445016  0.67037176  0.81300069  1
  Ga  Ga0  1  0.00927558  0.00720923  0.64691933  1
  Ga  Ga1  1  0.99447062  0.99186780  0.15358625  1
  Ga  Ga2  1  0.65989759  0.32945876  0.68132225  1
  Ga  Ga3  1  0.67076275  0.34013866  0.18371541  1
  Ga  Ga4  1  0.66244698  0.33805490  0.48269193  1
  Ga  Ga5  1  0.32898565  0.66414429  0.31692516  1
  P  P0  1  0.30191221  0.99767914  0.24932944  1
  P  P1  1  0.69869091  0.69749405  0.24896497  1
  P  P2  1  0.99937766  0.30344772  0.24929197  1
  P  P3  1  0.30177401  0.29351804  0.74485590  1
  P  P4  1  0.99470063  0.69882000  0.74464465  1
  P  P5  1  0.70625572  0.00645401  0.74451281  1
  P  P6  1  0.95149129  0.32687567  0.58370373  1
  P  P7  1  0.37291206  0.04881043  0.58164875  1
  P  P8  1  0.67385682  0.62735313  0.58559231  1
  P  P9  1  0.96076790  0.63660212  0.08547424  1
  P  P10  1  0.67436700  0.03929487  0.08797319  1
  P  P11  1  0.36120289  0.32342420  0.09096711  1
  P  P12  1  0.63549269  0.66721938  0.91200071  1
  P  P13  1  0.03179589  0.36469321  0.91768855  1
  P  P14  1  0.33427488  0.96656784  0.92018364  1
  P  P15  1  0.62809560  0.96650285  0.41718130  1
  P  P16  1  0.34058909  0.37347331  0.41299894  1
  P  P17  1  0.03604668  0.66021585  0.41924231  1
  O  O0  1  0.22848257  0.03771472  0.30658950  1
  O  O1  1  0.80004369  0.76112537  0.30824787  1
  O  O2  1  0.95818333  0.19090557  0.30720848  1
  O  O3  1  0.23573250  0.20007937  0.80579861  1
  O  O4  1  0.96867484  0.77530264  0.80404112  1
  O  O5  1  0.81040864  0.03804827  0.80408926  1
  O  O6  1  0.80204216  0.98053926  0.69016186  1
  O  O7  1  0.17565234  0.20013132  0.69260128  1
  O  O8  1  0.01462384  0.81186220  0.68891155  1
  O  O9  1  0.79050293  0.82735229  0.19690994  1
  O  O10  1  0.03352196  0.21161458  0.19530955  1
  O  O11  1  0.18758066  0.97292412  0.19346595  1
  O  O12  1  0.86605585  0.35381571  0.64062074  1
  O  O13  1  0.49322603  0.13954786  0.63506223  1
  O  O14  1  0.65569162  0.52803713  0.64455754  1
  O  O15  1  0.85786427  0.50473370  0.13498207  1
  O  O16  1  0.64679921  0.13424447  0.14195938  1
  O  O17  1  0.47002259  0.34287439  0.14727074  1
  O  O18  1  0.43769747  0.28946994  0.03357849  1
  O  O19  1  0.87460669  0.57293291  0.02273466  1
  O  O20  1  0.70650711  0.14365361  0.02825623  1
  O  O21  1  0.45080842  0.14596793  0.52119311  1
  O  O22  1  0.69759254  0.53581116  0.53027195  1
  O  O23  1  0.83988912  0.29929517  0.52599588  1
  O  O24  1  0.54688587  0.69701733  0.96667245  1
  O  O25  1  0.13073068  0.44996706  0.97672860  1
  O  O26  1  0.31015547  0.86468652  0.97996857  1
  O  O27  1  0.55373025  0.86929556  0.47709688  1
  O  O28  1  0.29583819  0.44758686  0.46836068  1
  O  O29  1  0.13757122  0.69389316  0.47927853  1
  O  O30  1  0.13066452  0.62741781  0.36615211  1
  O  O31  1  0.51257714  0.87143567  0.36146950  1
  O  O32  1  0.36071844  0.47824245  0.35433776  1
  O  O33  1  0.11746378  0.47094785  0.85985489  1
  O  O34  1  0.36430179  0.87791682  0.86525228  1
  O  O35  1  0.54234710  0.64966394  0.85135426  1
  O  O36  1  0.02389245  0.82549902  0.41141323  1
  O  O37  1  0.81457986  0.99859630  0.41253254  1
  O  O38  1  0.18072250  0.18723509  0.40863781  1
  O  O39  1  0.00501999  0.18030982  0.91540121  1
  O  O40  1  0.16631304  0.97367557  0.91459272  1
  O  O41  1  0.81795073  0.83219141  0.91120076  1
  O  O42  1  0.96627299  0.16039037  0.58781791  1
  O  O43  1  0.18774090  0.02317298  0.58733074  1
  O  O44  1  0.83976072  0.81191930  0.58688896  1
  O  O45  1  0.98600848  0.81974389  0.09415549  1
  O  O46  1  0.83891631  0.02507916  0.09520862  1
  O  O47  1  0.17744553  0.16003274  0.09523324  1
  O  O48  1  0.68770546  0.16913502  0.73875905  1
  O  O49  1  0.48581223  0.32099749  0.73829691  1
  O  O50  1  0.83060664  0.51560074  0.74131143  1
  O  O51  1  0.66862697  0.51209392  0.23976016  1
  O  O52  1  0.83797911  0.32275619  0.24051866  1
  O  O53  1  0.48674359  0.15878259  0.24298222  1
  O  O54  1  0.65777726  0.50769836  0.91783452  1
  O  O55  1  0.85057795  0.35041401  0.91926594  1
  O  O56  1  0.49859432  0.14558562  0.92229624  1
  O  O57  1  0.63896247  0.14779089  0.41913522  1
  O  O58  1  0.50511818  0.35852767  0.42040298  1
  O  O59  1  0.85683731  0.49290064  0.42328741  1
  O  O60  1  0.33662215  0.48328438  0.08710435  1
  O  O61  1  0.14356562  0.65242206  0.08616488  1
  O  O62  1  0.50717681  0.86139840  0.08584337  1
  O  O63  1  0.35288832  0.86357434  0.58152643  1
  O  O64  1  0.51648561  0.65665291  0.58288767  1
  O  O65  1  0.13075181  0.49255849  0.58156384  1
  O  O66  1  0.32365490  0.83574128  0.25622987  1
  O  O67  1  0.51719038  0.68445351  0.25380054  1
  O  O68  1  0.16774621  0.48072470  0.25544672  1
  O  O69  1  0.31669299  0.47613542  0.74659947  1
  O  O70  1  0.15301943  0.67131777  0.74665842  1
  O  O71  1  0.52929612  0.83815970  0.74646564  1
loop_
_geom_bond_atom_site_label_1
_geom_bond_atom_site_label_2
_geom_bond_distance
_geom_bond_site_symmetry_2
Na0 O44 2.474851 1_445
Na0 O43 2.487243 1_555
Na0 O42 2.503381 1_455
Na0 O37 2.553405 1_445
Na0 O36 2.586468 1_545
Na0 O38 2.611592 1_555
Na1 O39 2.487272 1_664
Na1 O40 2.517128 1_654
Na1 O41 2.535351 1_554
Na1 O45 2.556468 1_555
Na1 O47 2.572711 1_665
Na1 O46 2.584183 1_565
Na2 O56 2.418358 1_555
Na2 O49 2.452083 1_555
Na2 O54 2.504018 1_555
Na2 O48 2.606057 1_555
Na2 O55 2.666114 1_555
Na2 O50 2.695795 1_555
Na3 O59 2.401655 1_555
Na3 O51 2.474655 1_555
Na3 O58 2.486417 1_555
Na3 O52 2.601759 1_555
Na3 O57 2.619252 1_555
Na3 O53 2.727416 1_555
Na4 O67 2.434146 1_555
Na4 O66 2.449183 1_555
Na4 O68 2.454717 1_555
Na4 O61 2.467285 1_555
Na4 O60 2.473342 1_555
Na4 O62 2.497206 1_555
Na5 O69 2.420089 1_555
Na5 O70 2.425019 1_555
Na5 O71 2.441124 1_555
Na5 O64 2.480237 1_555
Na5 O63 2.502616 1_555
Na5 O65 2.516131 1_555
Na6 O53 2.395361 1_555
Na6 O66 2.451401 1_545
Na6 O67 2.476660 1_545
Na6 O52 2.519875 1_555
Na6 O16 2.644063 1_555
Na6 O31 2.721700 1_545
Na6 O9 2.774711 1_545
Na6 O2 2.797155 1_555
Na7 O51 2.393661 1_555
Na7 O68 2.458615 1_555
Na7 O17 2.491773 1_555
Na7 O67 2.519164 1_555
Na7 O53 2.543800 1_555
Na7 O32 2.546988 1_555
Na7 O0 2.799854 1_555
Na7 O10 2.815557 1_555
Na8 O50 2.432325 1_555
Na8 O49 2.434450 1_555
Na8 O71 2.449591 1_555
Na8 O14 2.486562 1_555
Na8 O35 2.487429 1_555
Na8 O69 2.492959 1_555
Na8 O4 2.867899 1_555
Na8 O6 2.957581 1_555
Na9 O70 2.398431 1_655
Na9 O48 2.427522 1_555
Na9 O50 2.476548 1_555
Na9 O69 2.514709 1_655
Na9 O12 2.603317 1_555
Na9 O33 2.707515 1_655
Na9 O5 2.816025 1_555
Na9 O7 2.888396 1_655
Na10 O44 2.390150 1_455
Na10 O65 2.415005 1_555
Na10 O63 2.458325 1_555
Na10 O43 2.478235 1_565
Na10 O29 2.504166 1_555
Na10 O8 2.551595 1_555
Na11 O42 2.373839 1_565
Na11 O64 2.397265 1_555
Na11 O63 2.464544 1_555
Na11 O27 2.537232 1_555
Na11 O44 2.547453 1_555
Na11 O6 2.625792 1_555
Na11 O23 2.877651 1_565
Na11 O13 2.893608 1_565
Na12 O47 2.451324 1_565
Na12 O45 2.451619 1_455
Na12 O61 2.456267 1_555
Na12 O62 2.468347 1_555
Na12 O26 2.545125 1_554
Na12 O11 2.580192 1_555
Na12 O18 2.742390 1_565
Na12 O16 2.951377 1_565
Na13 O60 2.400524 1_555
Na13 O46 2.411752 1_455
Na13 O61 2.502239 1_555
Na13 O47 2.505277 1_555
Na13 O25 2.615878 1_554
Na13 O10 2.651520 1_555
Na13 O20 2.812558 1_455
Na13 O15 2.846201 1_455
Na14 O40 2.420968 1_655
Na14 O54 2.424037 1_555
Na14 O55 2.457218 1_555
Na14 O19 2.471080 1_556
Na14 O41 2.472662 1_555
Na14 O4 2.695371 1_555
Na14 O33 2.934473 1_655
Na15 O39 2.405357 1_655
Na15 O56 2.456147 1_555
Na15 O41 2.484702 1_545
Na15 O55 2.498279 1_555
Na15 O20 2.653322 1_556
Na15 O5 2.677147 1_555
Na15 O24 2.791326 1_545
Na15 O34 2.810286 1_545
Na16 O37 2.353980 1_545
Na16 O59 2.391202 1_555
Na16 O38 2.541407 1_655
Na16 O57 2.588109 1_555
Na16 O2 2.597450 1_555
Na16 O23 2.678620 1_555
Na16 O30 2.754401 1_655
Na16 O28 2.760475 1_655
Na17 O38 2.385382 1_555
Na17 O57 2.385720 1_555
Na17 O36 2.459376 1_545
Na17 O21 2.505724 1_555
Na17 O58 2.519952 1_555
Na17 O0 2.640007 1_555
Na17 O31 2.906189 1_545
Na17 O29 2.968286 1_545
In0 O1 2.075351 1_555
In0 O0 2.133977 1_665
In0 O36 2.155987 1_655
In0 O2 2.157514 1_565
In0 O37 2.178533 1_555
In0 O38 2.214959 1_665
In1 O3 2.072480 1_555
In1 O4 2.137796 1_445
In1 O5 2.156655 1_455
In1 O40 2.172188 1_545
In1 O39 2.182984 1_555
In1 O41 2.202237 1_445
In2 O18 2.095523 1_556
In2 O19 2.146082 1_556
In2 O54 2.164280 1_555
In2 O20 2.167560 1_556
In2 O56 2.169238 1_555
In2 O55 2.220147 1_555
In3 O24 2.078445 1_554
In3 O25 2.129637 1_554
In3 O26 2.136570 1_554
In3 O60 2.172943 1_555
In3 O62 2.195097 1_555
In3 O61 2.252352 1_555
In4 O28 2.060960 1_555
In4 O27 2.122108 1_555
In4 O29 2.129172 1_555
In4 O64 2.162212 1_555
In4 O65 2.192695 1_555
In4 O63 2.238292 1_555
In5 O34 2.083301 1_555
In5 O35 2.132959 1_555
In5 O33 2.136729 1_555
In5 O70 2.189955 1_555
In5 O71 2.199733 1_555
In5 O69 2.214788 1_555
Ga0 O7 1.910730 1_555
Ga0 O6 1.989815 1_445
Ga0 O8 1.995517 1_545
Ga0 O43 2.016968 1_555
Ga0 O42 2.059664 1_455
Ga0 O44 2.114111 1_445
Ga1 O9 1.931785 1_555
Ga1 O45 1.992724 1_555
Ga1 O11 2.019168 1_655
Ga1 O46 2.024062 1_565
Ga1 O10 2.033200 1_665
Ga1 O47 2.035949 1_665
Ga2 O13 1.904796 1_555
Ga2 O12 1.962304 1_555
Ga2 O14 1.965950 1_555
Ga2 O49 1.972512 1_555
Ga2 O48 2.017605 1_555
Ga2 O50 2.080186 1_555
Ga3 O15 1.915312 1_555
Ga3 O16 1.969492 1_555
Ga3 O51 1.978505 1_555
Ga3 O17 1.978581 1_555
Ga3 O52 2.016556 1_555
Ga3 O53 2.094922 1_555
Ga4 O22 1.940280 1_555
Ga4 O21 2.003556 1_555
Ga4 O23 2.024401 1_555
Ga4 O58 2.040389 1_555
Ga4 O59 2.064002 1_555
Ga4 O57 2.131113 1_555
Ga5 O30 1.962607 1_555
Ga5 O32 1.995310 1_555
Ga5 O31 2.016882 1_555
Ga5 O66 2.053183 1_555
Ga5 O68 2.063622 1_555
Ga5 O67 2.121369 1_555
O0 P0 1.545800 1_545
O1 P1 1.532626 1_555
O2 P2 1.553071 1_555
O3 P3 1.537895 1_555
O4 P4 1.548547 1_555
O5 P5 1.555504 1_555
O6 P5 1.556490 1_565
O7 P3 1.538297 1_555
O8 P4 1.544473 1_455
O9 P1 1.546362 1_555
O10 P2 1.560033 1_455
O11 P0 1.547269 1_555
O12 P6 1.549907 1_555
O13 P7 1.530066 1_555
O14 P8 1.537697 1_555
O15 P9 1.532581 1_555
O16 P10 1.551409 1_555
O17 P11 1.535465 1_555
O18 P11 1.539613 1_555
O19 P9 1.550361 1_555
O20 P10 1.556543 1_555
O21 P7 1.555007 1_555
O22 P8 1.541617 1_555
O23 P6 1.561769 1_555
O24 P12 1.537467 1_555
O25 P13 1.547607 1_555
O26 P14 1.556054 1_555
O27 P15 1.539843 1_555
O28 P16 1.534381 1_555
O29 P17 1.550428 1_555
O30 P17 1.555702 1_555
O31 P15 1.559475 1_555
O32 P16 1.554811 1_555
O33 P13 1.547210 1_555
O34 P14 1.542682 1_555
O35 P12 1.544315 1_555
O36 P17 1.540978 1_555
O37 P15 1.548151 1_555
O38 P16 1.566015 1_555
O39 P13 1.540696 1_555
O40 P14 1.538965 1_555
O41 P12 1.562336 1_555
O42 P6 1.557607 1_555
O43 P7 1.559269 1_555
O44 P8 1.576228 1_555
O45 P9 1.546032 1_555
O46 P10 1.546267 1_555
O47 P11 1.565885 1_555
O48 P5 1.545503 1_555
O49 P3 1.544767 1_555
O50 P4 1.563985 1_555
O51 P1 1.551441 1_555
O52 P2 1.547948 1_555
O53 P0 1.566780 1_545
O54 P12 1.537129 1_555
O55 P13 1.560887 1_655
O56 P14 1.542396 1_545
O57 P15 1.571691 1_545
O58 P16 1.550100 1_555
O59 P17 1.557443 1_655
O60 P11 1.549297 1_555
O61 P9 1.568782 1_455
O62 P10 1.548341 1_565
O63 P7 1.571084 1_565
O64 P8 1.554435 1_555
O65 P6 1.549425 1_455
O66 P0 1.557765 1_555
O67 P1 1.571412 1_555
O68 P2 1.555508 1_455
O69 P3 1.567450 1_555
O70 P4 1.552439 1_455
O71 P5 1.548500 1_565
