# generated using pymatgen
data_Rb(WO3)3
_symmetry_space_group_name_H-M   'P 1'
_cell_length_a   7.39640793
_cell_length_b   7.39640774
_cell_length_c   7.62553512
_cell_angle_alpha   89.99999908
_cell_angle_beta   89.99999985
_cell_angle_gamma   119.99999381
_symmetry_Int_Tables_number   1
_chemical_formula_structural   Rb(WO3)3
_chemical_formula_sum   'Rb2 W6 O18'
_cell_volume   361.27897218
_cell_formula_units_Z   2
loop_
 _symmetry_equiv_pos_site_id
 _symmetry_equiv_pos_as_xyz
  1  'x, y, z'
loop_
 _atom_site_type_symbol
 _atom_site_label
 _atom_site_symmetry_multiplicity
 _atom_site_fract_x
 _atom_site_fract_y
 _atom_site_fract_z
 _atom_site_occupancy
  Rb  Rb0  1  0.99999999  0.00000000  0.49997153  1
  Rb  Rb1  1  0.99999998  0.99999997  -0.00002849  1
  W  W0  1  0.50001183  0.00002348  0.24989549  1
  W  W1  1  -0.00002348  0.49998823  0.24989550  1
  W  W2  1  0.50001176  0.49998833  0.24989549  1
  W  W3  1  0.49998820  -0.00002355  0.74989554  1
  W  W4  1  0.00002348  0.50001179  0.74989555  1
  W  W5  1  0.49998826  0.50001167  0.74989559  1
  O  O0  1  0.78911874  0.21088120  0.23663824  1
  O  O1  1  0.78911884  0.57823752  0.23663826  1
  O  O2  1  0.42176252  0.21088123  0.23663825  1
  O  O3  1  0.21088127  0.78911880  0.73663830  1
  O  O4  1  0.21088118  0.42176250  0.73663830  1
  O  O5  1  0.57823750  0.78911887  0.73663828  1
  O  O6  1  0.21053703  0.42107336  0.26294864  1
  O  O7  1  0.57892659  0.78946289  0.26294862  1
  O  O8  1  0.21053710  0.78946280  0.26294865  1
  O  O9  1  0.78946290  0.57892660  0.76294867  1
  O  O10  1  0.42107340  0.21053711  0.76294867  1
  O  O11  1  0.78946287  0.21053715  0.76294869  1
  O  O12  1  0.51114492  0.02228892  0.49986105  1
  O  O13  1  0.97771111  0.48885510  0.49986105  1
  O  O14  1  0.51114489  0.48885514  0.49986101  1
  O  O15  1  0.48885512  0.97771111  0.99986102  1
  O  O16  1  0.02228888  0.51114486  0.99986106  1
  O  O17  1  0.48885512  0.51114491  0.99986102  1
loop_
_geom_bond_atom_site_label_1
_geom_bond_atom_site_label_2
_geom_bond_distance
_geom_bond_site_symmetry_2
O0 W0 1.918369 1_555
O0 W1 1.918370 1_655
O0 Rb1 3.248933 1_545
O0 Rb0 3.366137 1_555
O1 W1 1.918369 1_655
O1 W2 1.918370 1_555
O1 Rb1 3.248933 1_555
O1 Rb0 3.366138 1_565
O2 W0 1.918370 1_555
O2 W2 1.918370 1_555
O2 Rb1 3.248934 1_445
O2 Rb0 3.366138 1_455
O3 W3 1.918369 1_565
O3 W4 1.918370 1_555
O3 Rb0 3.248933 1_465
O3 Rb1 3.366137 1_456
O4 W4 1.918369 1_555
O4 W5 1.918370 1_555
O4 Rb0 3.248934 1_455
O4 Rb1 3.366138 1_446
O5 W3 1.918368 1_565
O5 W5 1.918371 1_555
O5 Rb0 3.248934 1_565
O5 Rb1 3.366137 1_556
O6 W2 1.919655 1_555
O6 W1 1.919660 1_555
O6 Rb0 3.246775 1_455
O6 Rb1 3.360975 1_445
O7 W2 1.919654 1_555
O7 W0 1.919660 1_565
O7 Rb0 3.246775 1_565
O7 Rb1 3.360975 1_555
O8 W1 1.919656 1_555
O8 W0 1.919657 1_565
O8 Rb0 3.246780 1_465
O8 Rb1 3.360979 1_455
O9 W5 1.919655 1_555
O9 W4 1.919660 1_655
O9 Rb1 3.246775 1_556
O9 Rb0 3.360975 1_565
O10 W5 1.919654 1_555
O10 W3 1.919661 1_555
O10 Rb1 3.246775 1_446
O10 Rb0 3.360975 1_455
O11 W4 1.919656 1_655
O11 W3 1.919657 1_555
O11 Rb1 3.246779 1_546
O11 Rb0 3.360979 1_555
O12 W0 1.911449 1_555
O12 W3 1.911996 1_555
O13 W1 1.911449 1_655
O13 W4 1.911996 1_655
O14 W2 1.911449 1_555
O14 W5 1.911997 1_555
O15 W3 1.911449 1_565
O15 W0 1.911996 1_566
O16 W4 1.911449 1_555
O16 W1 1.911996 1_556
O17 W5 1.911449 1_555
O17 W2 1.911996 1_556
