# generated using pymatgen
data_Ni4(PO4)3
_symmetry_space_group_name_H-M   'P 1'
_cell_length_a   10.30501708
_cell_length_b   10.30501708
_cell_length_c   10.30501708
_cell_angle_alpha   142.59886528
_cell_angle_beta   142.59886528
_cell_angle_gamma   53.92773387
_symmetry_Int_Tables_number   1
_chemical_formula_structural   Ni4(PO4)3
_chemical_formula_sum   'Ni8 P6 O24'
_cell_volume   401.06439207
_cell_formula_units_Z   2
loop_
 _symmetry_equiv_pos_site_id
 _symmetry_equiv_pos_as_xyz
  1  'x, y, z'
loop_
 _atom_site_type_symbol
 _atom_site_label
 _atom_site_symmetry_multiplicity
 _atom_site_fract_x
 _atom_site_fract_y
 _atom_site_fract_z
 _atom_site_occupancy
  Ni  Ni0  1  0.87500000  0.37821000  0.00321000  1
  Ni  Ni1  1  0.62179000  0.62500000  0.49679000  1
  Ni  Ni2  1  0.22699800  0.22699800  0.00000000  1
  Ni  Ni3  1  0.12821000  0.12500000  0.50321000  1
  Ni  Ni4  1  0.77300200  0.77300200  0.00000000  1
  Ni  Ni5  1  0.37500000  0.87179000  0.99679000  1
  Ni  Ni6  1  0.52300200  0.02300200  0.50000000  1
  Ni  Ni7  1  0.97699800  0.47699800  0.50000000  1
  P  P0  1  0.52506100  0.12500000  0.90006100  1
  P  P1  1  0.37500000  0.47493900  0.59993900  1
  P  P2  1  0.00000000  0.00000000  0.00000000  1
  P  P3  1  0.22493900  0.62500000  0.09993900  1
  P  P4  1  0.75000000  0.25000000  0.50000000  1
  P  P5  1  0.87500000  0.77506100  0.40006100  1
  O  O0  1  0.90017100  0.76251400  0.74850600  1
  O  O1  1  0.26627100  0.56274300  0.70659700  1
  O  O2  1  0.84982900  0.09833400  0.36234300  1
  O  O3  1  0.89385500  0.68725700  0.20352900  1
  O  O4  1  0.48372900  0.69032600  0.79647100  1
  O  O5  1  0.08517200  0.92144000  0.71476100  1
  O  O6  1  0.85614500  0.55967400  0.29340300  1
  O  O7  1  0.84833400  0.09982900  0.86234300  1
  O  O8  1  0.30967400  0.10614500  0.79340300  1
  O  O9  1  0.44032600  0.73372900  0.29647100  1
  O  O10  1  0.73599100  0.48748600  0.63765700  1
  O  O11  1  0.07856000  0.79332100  0.16373200  1
  O  O12  1  0.20667900  0.37041100  0.28523900  1
  O  O13  1  0.43725700  0.14385500  0.70352900  1
  O  O14  1  0.23748600  0.98599100  0.13765700  1
  O  O15  1  0.67144000  0.33517200  0.21476100  1
  O  O16  1  0.01400900  0.15166600  0.25149400  1
  O  O17  1  0.54332100  0.32856000  0.66373200  1
  O  O18  1  0.51251400  0.15017100  0.24850600  1
  O  O19  1  0.12041100  0.45667900  0.78523900  1
  O  O20  1  0.66482800  0.87958900  0.33626800  1
  O  O21  1  0.31274300  0.51627100  0.20659700  1
  O  O22  1  0.62958900  0.91482800  0.83626800  1
  O  O23  1  0.90166600  0.26400900  0.75149400  1
loop_
_geom_bond_atom_site_label_1
_geom_bond_atom_site_label_2
_geom_bond_distance
_geom_bond_site_symmetry_2
Ni0 O3 2.021849 1_555
Ni0 O6 2.021858 1_555
Ni0 O7 2.022508 1_554
Ni0 O23 2.022517 1_554
Ni0 O17 2.097744 1_554
Ni0 O12 2.097744 1_655
Ni1 O21 2.021850 1_555
Ni1 O9 2.021858 1_555
Ni1 O0 2.022503 1_555
Ni1 O10 2.022508 1_555
Ni1 O22 2.097744 1_555
Ni1 O15 2.097744 1_555
Ni2 O8 2.056503 1_554
Ni2 O21 2.056508 1_555
Ni2 O23 2.085319 1_454
Ni2 O18 2.085323 1_555
Ni2 O5 2.139997 1_544
Ni2 O12 2.139997 1_555
Ni3 O13 2.021849 1_555
Ni3 O8 2.021858 1_555
Ni3 O2 2.022508 1_455
Ni3 O16 2.022517 1_555
Ni3 O19 2.097744 1_555
Ni3 O11 2.097744 1_545
Ni4 O4 2.056503 1_554
Ni4 O3 2.056512 1_555
Ni4 O2 2.085318 1_565
Ni4 O10 2.085318 1_554
Ni4 O11 2.139997 1_655
Ni4 O22 2.139997 1_554
Ni5 O1 2.021850 1_555
Ni5 O4 2.021858 1_555
Ni5 O18 2.022503 1_566
Ni5 O14 2.022508 1_556
Ni5 O20 2.097744 1_556
Ni5 O5 2.097744 1_555
Ni6 O9 2.056503 1_545
Ni6 O13 2.056512 1_555
Ni6 O14 2.085318 1_545
Ni6 O7 2.085318 1_555
Ni6 O20 2.139997 1_545
Ni6 O17 2.139997 1_555
Ni7 O6 2.056503 1_555
Ni7 O1 2.056508 1_655
Ni7 O16 2.085319 1_655
Ni7 O0 2.085323 1_555
Ni7 O19 2.139997 1_655
Ni7 O15 2.139997 1_555
O0 P2 1.554344 1_666
O1 P1 1.569983 1_555
O2 P4 1.554343 1_555
O3 P5 1.569982 1_555
O4 P1 1.569987 1_555
O5 P5 1.548829 1_455
O6 P5 1.569987 1_555
O7 P2 1.554343 1_656
O8 P0 1.569987 1_555
O9 P3 1.569987 1_555
O10 P4 1.554343 1_555
O11 P3 1.548829 1_555
O12 P1 1.548829 1_555
O13 P0 1.569982 1_555
O14 P2 1.554343 1_565
O15 P0 1.548829 1_554
O16 P2 1.554335 1_555
O17 P1 1.548829 1_555
O18 P4 1.554344 1_555
O19 P3 1.548829 1_556
O20 P5 1.548829 1_555
O21 P3 1.569983 1_555
O22 P0 1.548829 1_565
O23 P4 1.554335 1_555
