# generated using pymatgen
data_Na2CaTi3P4(SO12)2
_symmetry_space_group_name_H-M   'P 1'
_cell_length_a   8.72914760
_cell_length_b   8.73647549
_cell_length_c   22.70514793
_cell_angle_alpha   89.68676914
_cell_angle_beta   90.16827077
_cell_angle_gamma   119.94515700
_symmetry_Int_Tables_number   1
_chemical_formula_structural   Na2CaTi3P4(SO12)2
_chemical_formula_sum   'Na6 Ca3 Ti9 P12 S6 O72'
_cell_volume   1500.36286183
_cell_formula_units_Z   3
loop_
 _symmetry_equiv_pos_site_id
 _symmetry_equiv_pos_as_xyz
  1  'x, y, z'
loop_
 _atom_site_type_symbol
 _atom_site_label
 _atom_site_symmetry_multiplicity
 _atom_site_fract_x
 _atom_site_fract_y
 _atom_site_fract_z
 _atom_site_occupancy
  Na  Na0  1  -0.00002001  0.99503641  0.50552095  1
  Na  Na1  1  0.00503373  0.99753616  0.00021352  1
  Na  Na2  1  0.66685388  0.33044845  0.83205850  1
  Na  Na3  1  0.66750721  0.33153057  0.33624881  1
  Na  Na4  1  0.33100331  0.66502692  0.16784983  1
  Na  Na5  1  0.33803022  0.66585006  0.66492979  1
  Ca  Ca0  1  0.99776204  0.99912014  0.64731390  1
  Ca  Ca1  1  0.00344412  0.00019972  0.14059432  1
  Ca  Ca2  1  0.33260772  0.66744538  0.32043147  1
  Ti  Ti0  1  0.00325149  0.00224269  0.36130133  1
  Ti  Ti1  1  0.00305563  0.01287901  0.85290711  1
  Ti  Ti2  1  0.64609158  0.32133433  0.68531226  1
  Ti  Ti3  1  0.66971926  0.34484154  0.18411256  1
  Ti  Ti4  1  0.66367189  0.33863244  0.97552040  1
  Ti  Ti5  1  0.66238907  0.33531683  0.48040013  1
  Ti  Ti6  1  0.32652149  0.65978502  0.01754358  1
  Ti  Ti7  1  0.34226526  0.67302223  0.51702664  1
  Ti  Ti8  1  0.34069959  0.67002967  0.81720390  1
  P  P0  1  0.29588383  0.30055291  0.75189307  1
  P  P1  1  0.70237211  0.00114790  0.75182450  1
  P  P2  1  0.38455474  0.03980373  0.57992503  1
  P  P3  1  0.65472583  0.61163674  0.58101861  1
  P  P4  1  0.95413254  0.60867771  0.07840736  1
  P  P5  1  0.39100133  0.34740576  0.07889238  1
  P  P6  1  0.62413363  0.67236413  0.91761145  1
  P  P7  1  0.04508993  0.37943324  0.91630966  1
  P  P8  1  0.33027658  0.95249170  0.91732135  1
  P  P9  1  0.63285479  0.96921360  0.41797203  1
  P  P10  1  0.33485536  0.37110471  0.41847581  1
  P  P11  1  0.03532486  0.66403514  0.41889046  1
  S  S0  1  0.30073193  0.01177651  0.24976625  1
  S  S1  1  0.71149121  0.70244019  0.24951527  1
  S  S2  1  0.98840964  0.28774666  0.24944085  1
  S  S3  1  0.00121895  0.70139818  0.75359280  1
  S  S4  1  0.95538327  0.34637327  0.58167560  1
  S  S5  1  0.65262712  0.04663307  0.07994540  1
  O  O0  1  0.21015459  0.02915504  0.30368653  1
  O  O1  1  0.81843095  0.78854546  0.30330476  1
  O  O2  1  0.97108418  0.17958739  0.30354933  1
  O  O3  1  0.19943829  0.17308718  0.80595541  1
  O  O4  1  0.97529696  0.79330627  0.80490172  1
  O  O5  1  0.83110597  0.02733231  0.80544738  1
  O  O6  1  0.75808931  0.95220683  0.69608333  1
  O  O7  1  0.19384207  0.23937916  0.69572269  1
  O  O8  1  0.03930851  0.80081742  0.69922228  1
  O  O9  1  0.78995963  0.79928502  0.19598580  1
  O  O10  1  0.00745994  0.20860832  0.19625964  1
  O  O11  1  0.20139159  0.99175704  0.19660459  1
  O  O12  1  0.86846647  0.36072876  0.63659880  1
  O  O13  1  0.49419791  0.13115842  0.63890090  1
  O  O14  1  0.63694543  0.49802321  0.63836853  1
  O  O15  1  0.86384566  0.49960490  0.13690321  1
  O  O16  1  0.63667210  0.13142331  0.13520250  1
  O  O17  1  0.50162921  0.36324810  0.13659407  1
  O  O18  1  0.49153379  0.33239336  0.02527643  1
  O  O19  1  0.84101410  0.50439590  0.02513453  1
  O  O20  1  0.66777334  0.15152168  0.02706058  1
  O  O21  1  0.49244608  0.15418827  0.52820123  1
  O  O22  1  0.66577276  0.50980279  0.52794719  1
  O  O23  1  0.85149291  0.33386264  0.52907927  1
  O  O24  1  0.53273393  0.69678709  0.97229978  1
  O  O25  1  0.16257076  0.46491492  0.97216434  1
  O  O26  1  0.30279542  0.83385834  0.97258899  1
  O  O27  1  0.53730259  0.83817100  0.47106097  1
  O  O28  1  0.30220406  0.46511164  0.47102226  1
  O  O29  1  0.16506118  0.69874361  0.47142457  1
  O  O30  1  0.08885381  0.62005126  0.36180527  1
  O  O31  1  0.53072670  0.91241330  0.36176306  1
  O  O32  1  0.37878433  0.46885774  0.36129169  1
  O  O33  1  0.13334766  0.49627408  0.86275872  1
  O  O34  1  0.36054408  0.86491276  0.86372048  1
  O  O35  1  0.50620545  0.63990619  0.86331239  1
  O  O36  1  0.02144122  0.83772867  0.41112182  1
  O  O37  1  0.81761604  0.97860445  0.41095169  1
  O  O38  1  0.16179818  0.18359583  0.41157863  1
  O  O39  1  0.02878088  0.19409943  0.90902426  1
  O  O40  1  0.16427074  0.97117251  0.90878798  1
  O  O41  1  0.80881775  0.83587268  0.90902118  1
  O  O42  1  0.97413603  0.18918719  0.58216766  1
  O  O43  1  0.20556511  0.02528447  0.58050650  1
  O  O44  1  0.81691193  0.79247988  0.58099718  1
  O  O45  1  0.96840341  0.78772066  0.07780108  1
  O  O46  1  0.80978103  0.02772934  0.08099646  1
  O  O47  1  0.21008667  0.18530262  0.07818833  1
  O  O48  1  0.68947350  0.17246063  0.74621693  1
  O  O49  1  0.48277987  0.31450167  0.74613711  1
  O  O50  1  0.83956752  0.52367352  0.74871344  1
  O  O51  1  0.70321023  0.52252327  0.24515783  1
  O  O52  1  0.81818325  0.29556734  0.24543617  1
  O  O53  1  0.47818560  0.18074190  0.24547904  1
  O  O54  1  0.64270199  0.50427226  0.92396259  1
  O  O55  1  0.85878736  0.35498936  0.92402027  1
  O  O56  1  0.49652003  0.13765918  0.92518216  1
  O  O57  1  0.67204051  0.15663444  0.43230617  1
  O  O58  1  0.48530571  0.33065799  0.43119287  1
  O  O59  1  0.84719833  0.51381078  0.43285733  1
  O  O60  1  0.38464495  0.52154951  0.07505378  1
  O  O61  1  0.13752391  0.61962886  0.07479121  1
  O  O62  1  0.48832948  0.87051006  0.07697443  1
  O  O63  1  0.37693923  0.85820548  0.57561471  1
  O  O64  1  0.47944979  0.61798142  0.57553949  1
  O  O65  1  0.13130651  0.51133338  0.57757683  1
  O  O66  1  0.33178282  0.86168515  0.25402923  1
  O  O67  1  0.52919473  0.66787356  0.25365880  1
  O  O68  1  0.13796631  0.46905894  0.25373481  1
  O  O69  1  0.32662990  0.48688410  0.76671440  1
  O  O70  1  0.15639570  0.67593406  0.76461774  1
  O  O71  1  0.51483685  0.84515196  0.76771982  1
loop_
_geom_bond_atom_site_label_1
_geom_bond_atom_site_label_2
_geom_bond_distance
_geom_bond_site_symmetry_2
Na0 O43 2.388009 1_565
Na0 O44 2.404526 1_455
Na0 O42 2.524504 1_465
Na0 O36 2.609477 1_555
Na0 O38 2.629598 1_565
Na0 O37 2.630656 1_455
Na1 O45 2.438960 1_455
Na1 O47 2.472050 1_565
Na1 O40 2.576049 1_554
Na1 O46 2.609840 1_465
Na1 O41 2.609911 1_454
Na1 O39 2.624323 1_564
Na2 O48 2.458989 1_555
Na2 O50 2.478853 1_555
Na2 O49 2.483579 1_555
Na2 O55 2.615050 1_555
Na2 O56 2.645302 1_555
Na2 O54 2.657401 1_555
Na3 O52 2.552592 1_555
Na3 O53 2.559347 1_555
Na3 O51 2.570183 1_555
Na3 O57 2.667666 1_555
Na3 O58 2.680413 1_555
Na3 O59 2.707782 1_555
Na4 O68 2.583767 1_555
Na4 O67 2.593711 1_555
Na4 O61 2.606448 1_555
Na4 O66 2.608766 1_555
Na4 O60 2.617318 1_555
Na4 O62 2.623160 1_555
Na5 O64 2.521423 1_555
Na5 O63 2.539459 1_555
Na5 O65 2.566836 1_555
Na5 O69 2.757158 1_555
Na5 O70 2.794180 1_555
Na5 O71 2.808543 1_555
Ca0 O6 2.218956 1_555
Ca0 O7 2.229574 1_665
Ca0 O8 2.263728 1_655
Ca0 O44 2.277950 1_555
Ca0 O43 2.289533 1_665
Ca0 O42 2.302387 1_565
Ca1 O11 2.172948 1_545
Ca1 O9 2.204439 1_445
Ca1 O10 2.207936 1_555
Ca1 O47 2.225844 1_555
Ca1 O45 2.243145 1_445
Ca1 O46 2.266207 1_455
Ca2 O30 2.170075 1_555
Ca2 O32 2.170627 1_555
Ca2 O31 2.183839 1_555
Ca2 O66 2.266495 1_555
Ca2 O67 2.291750 1_555
Ca2 O68 2.292970 1_555
O0 S0 1.508176 1_555
O0 Ti0 2.148271 1_555
O1 S1 1.493705 1_555
O1 Ti0 2.197671 1_665
O2 S2 1.506920 1_555
O2 Ti0 2.146803 1_655
O3 P0 1.584542 1_555
O3 Ti1 1.906092 1_555
O4 S3 1.498756 1_655
O4 Ti1 2.117511 1_665
O5 P1 1.592429 1_555
O5 Ti1 1.899546 1_655
O6 P1 1.496089 1_565
O7 P0 1.493686 1_555
O8 S3 1.446137 1_555
O9 S1 1.441279 1_555
O10 S2 1.445264 1_455
O11 S0 1.443693 1_565
O12 S4 1.499580 1_555
O12 Ti2 2.109811 1_555
O13 P2 1.608614 1_555
O13 Ti2 1.854881 1_555
O14 P3 1.593150 1_555
O14 Ti2 1.905205 1_555
O15 P4 1.592397 1_555
O15 Ti3 1.885751 1_555
O16 S5 1.502130 1_555
O16 Ti3 2.068014 1_555
O17 P5 1.590362 1_555
O17 Ti3 1.888703 1_555
O18 P5 1.546676 1_555
O18 Ti4 1.861351 1_554
O19 P4 1.541108 1_555
O19 Ti4 1.879399 1_554
O20 S5 1.472059 1_555
O20 Ti4 2.019947 1_554
O21 P2 1.522793 1_555
O21 Ti5 1.878768 1_555
O22 P3 1.533257 1_555
O22 Ti5 1.860902 1_555
O23 S4 1.468540 1_555
O23 Ti5 1.989147 1_555
O24 P6 1.550027 1_555
O24 Ti6 1.956090 1_556
O25 P7 1.567106 1_555
O25 Ti6 1.893749 1_556
O26 P8 1.563891 1_555
O26 Ti6 1.921913 1_556
O27 P9 1.580143 1_555
O27 Ti7 1.900294 1_555
O28 P10 1.557429 1_555
O28 Ti7 1.974115 1_555
O29 P11 1.565382 1_555
O29 Ti7 1.962228 1_555
O30 P11 1.494723 1_555
O31 P9 1.492770 1_555
O32 P10 1.491986 1_555
O33 P7 1.523387 1_555
O33 Ti8 1.975118 1_555
O34 P8 1.533052 1_555
O34 Ti8 1.941251 1_555
O35 P6 1.537858 1_555
O35 Ti8 1.902676 1_555
O36 P11 1.590302 1_555
O36 Ti0 1.891967 1_565
O37 P9 1.581947 1_555
O37 Ti0 1.900898 1_665
O38 P10 1.587762 1_555
O38 Ti0 1.884197 1_555
O39 P7 1.562685 1_555
O39 Ti1 1.961104 1_555
O40 P8 1.548595 1_555
O40 Ti1 2.054107 1_565
O41 P6 1.541851 1_555
O41 Ti1 2.064702 1_665
O42 S4 1.461844 1_555
O43 P2 1.503225 1_555
O44 P3 1.505804 1_555
O45 P4 1.505883 1_555
O46 S5 1.461397 1_555
O47 P5 1.505710 1_555
O48 P1 1.560441 1_555
O48 Ti2 2.053362 1_555
O49 P0 1.579915 1_555
O49 Ti2 1.966924 1_555
O50 S3 1.492611 1_655
O50 Ti2 2.254430 1_555
O51 S1 1.540753 1_555
O51 Ti3 1.996080 1_555
O52 S2 1.523622 1_555
O52 Ti3 2.084064 1_555
O53 S0 1.518056 1_555
O53 Ti3 2.095456 1_555
O54 P6 1.561675 1_555
O54 Ti4 1.934598 1_555
O55 P7 1.541276 1_655
O55 Ti4 2.013821 1_555
O56 P8 1.553282 1_545
O56 Ti4 1.993140 1_555
O57 P9 1.532976 1_545
O57 Ti5 1.945993 1_555
O58 P10 1.546920 1_555
O58 Ti5 1.888629 1_555
O59 P11 1.538388 1_655
O59 Ti5 1.918285 1_555
O60 P5 1.551818 1_555
O60 Ti6 2.002895 1_555
O61 P4 1.557689 1_455
O61 Ti6 1.991026 1_555
O62 S5 1.492133 1_565
O62 Ti6 2.150600 1_555
O63 P2 1.558023 1_565
O63 Ti7 2.002726 1_555
O64 P3 1.562996 1_555
O64 Ti7 1.997203 1_555
O65 S4 1.494583 1_455
O65 Ti7 2.161771 1_555
O66 S0 1.468179 1_565
O67 S1 1.467335 1_555
O68 S2 1.469493 1_455
O69 P0 1.550660 1_555
O69 Ti8 1.926770 1_555
O70 S3 1.498410 1_555
O70 Ti8 2.021738 1_555
O71 P1 1.561486 1_565
O71 Ti8 1.892927 1_555
