# generated using pymatgen
data_CrH
_symmetry_space_group_name_H-M   'P 1'
_cell_length_a   2.75801024
_cell_length_b   2.75801024
_cell_length_c   4.50109600
_cell_angle_alpha   90.00000000
_cell_angle_beta   90.00000000
_cell_angle_gamma   120.00000574
_symmetry_Int_Tables_number   1
_chemical_formula_structural   CrH
_chemical_formula_sum   'Cr2 H2'
_cell_volume   29.65108779
_cell_formula_units_Z   2
loop_
 _symmetry_equiv_pos_site_id
 _symmetry_equiv_pos_as_xyz
  1  'x, y, z'
loop_
 _atom_site_type_symbol
 _atom_site_label
 _atom_site_symmetry_multiplicity
 _atom_site_fract_x
 _atom_site_fract_y
 _atom_site_fract_z
 _atom_site_occupancy
  Cr  Cr0  1  0.66666700  0.33333300  0.49913400  1
  Cr  Cr1  1  0.33333300  0.66666700  0.99913400  1
  H  H0  1  0.66666700  0.33333300  0.12586600  1
  H  H1  1  0.33333300  0.66666700  0.62586600  1
loop_
_geom_bond_atom_site_label_1
_geom_bond_atom_site_label_2
_geom_bond_distance
_geom_bond_site_symmetry_2
Cr0 H0 1.680115 1_555
Cr0 H1 1.691428 1_545
Cr0 H1 1.691428 1_655
Cr0 H1 1.691433 1_555
Cr1 H1 1.680115 1_555
Cr1 H0 1.691428 1_456
Cr1 H0 1.691428 1_566
Cr1 H0 1.691433 1_556
