# generated using pymatgen
data_Ge5F12
_symmetry_space_group_name_H-M   'P 1'
_cell_length_a   7.61663737
_cell_length_b   7.79163311
_cell_length_c   8.36674372
_cell_angle_alpha   93.66350282
_cell_angle_beta   90.00000000
_cell_angle_gamma   90.00000000
_symmetry_Int_Tables_number   1
_chemical_formula_structural   Ge5F12
_chemical_formula_sum   'Ge10 F24'
_cell_volume   495.51848651
_cell_formula_units_Z   2
loop_
 _symmetry_equiv_pos_site_id
 _symmetry_equiv_pos_as_xyz
  1  'x, y, z'
loop_
 _atom_site_type_symbol
 _atom_site_label
 _atom_site_symmetry_multiplicity
 _atom_site_fract_x
 _atom_site_fract_y
 _atom_site_fract_z
 _atom_site_occupancy
  Ge  Ge0  1  0.55519774  0.87758101  0.29811447  1
  Ge  Ge1  1  0.05519774  0.62241899  0.70188553  1
  Ge  Ge2  1  0.44480226  0.12241899  0.70188553  1
  Ge  Ge3  1  0.94480226  0.37758101  0.29811447  1
  Ge  Ge4  1  -0.00000000  -0.00000000  0.50000000  1
  Ge  Ge5  1  0.50000000  0.50000000  0.50000000  1
  Ge  Ge6  1  0.13100060  0.82124500  0.10158668  1
  Ge  Ge7  1  0.63100060  0.67875500  0.89841332  1
  Ge  Ge8  1  0.86899940  0.17875500  0.89841332  1
  Ge  Ge9  1  0.36899940  0.32124500  0.10158668  1
  F  F0  1  0.05902697  0.61272017  0.16651679  1
  F  F1  1  0.55902697  0.88727983  0.83348321  1
  F  F2  1  0.94097303  0.38727983  0.83348321  1
  F  F3  1  0.44097303  0.11272017  0.16651679  1
  F  F4  1  0.85765080  0.82392082  0.45591029  1
  F  F5  1  0.35765080  0.67607918  0.54408971  1
  F  F6  1  0.14234920  0.17607918  0.54408971  1
  F  F7  1  0.64234920  0.32392082  0.45591029  1
  F  F8  1  0.15978768  0.90414065  0.35943278  1
  F  F9  1  0.65978768  0.59585935  0.64056722  1
  F  F10  1  0.79577661  0.33781839  0.12431278  1
  F  F11  1  0.29577661  0.16218161  0.87568722  1
  F  F12  1  0.20422339  0.66218161  0.87568722  1
  F  F13  1  0.70422339  0.83781839  0.12431278  1
  F  F14  1  0.12610447  0.26413994  0.15158490  1
  F  F15  1  0.62610447  0.23586006  0.84841510  1
  F  F16  1  0.87389553  0.73586006  0.84841510  1
  F  F17  1  0.37389553  0.76413994  0.15158490  1
  F  F18  1  0.90005931  0.11247899  0.33515355  1
  F  F19  1  0.40005931  0.38752101  0.66484645  1
  F  F20  1  0.09994069  0.88752101  0.66484645  1
  F  F21  1  0.59994069  0.61247899  0.33515355  1
  F  F22  1  0.34021232  0.40414065  0.35943278  1
  F  F23  1  0.84021232  0.09585935  0.64056722  1
loop_
_geom_bond_atom_site_label_1
_geom_bond_atom_site_label_2
_geom_bond_distance
_geom_bond_site_symmetry_2
F0 Ge6 1.829823 1_555
F0 Ge3 2.362977 1_455
F1 Ge7 1.829823 1_555
F1 Ge2 2.362977 1_565
F2 Ge8 1.829823 1_555
F2 Ge1 2.362977 1_655
F3 Ge9 1.829823 1_555
F3 Ge0 2.362977 1_545
F4 Ge4 1.768947 1_665
F5 Ge5 1.768947 1_555
F6 Ge4 1.768947 1_555
F7 Ge5 1.768947 1_555
F8 Ge4 1.819338 1_565
F8 Ge6 2.222896 1_555
F9 Ge5 1.819338 1_555
F9 Ge7 2.222896 1_555
F10 Ge3 1.855093 1_555
F10 Ge8 2.262737 1_554
F11 Ge2 1.855093 1_555
F11 Ge9 2.262737 1_556
F12 Ge1 1.855093 1_555
F12 Ge6 2.262737 1_556
F13 Ge0 1.855093 1_555
F13 Ge7 2.262737 1_554
F14 Ge9 1.954331 1_555
F14 Ge3 2.013137 1_455
F15 Ge8 1.954331 1_555
F15 Ge2 2.013137 1_555
F16 Ge7 1.954331 1_555
F16 Ge1 2.013137 1_655
F17 Ge6 1.954331 1_555
F17 Ge0 2.013137 1_555
F18 Ge4 1.845061 1_655
F18 Ge3 2.135553 1_555
F19 Ge5 1.845061 1_555
F19 Ge2 2.135553 1_555
F20 Ge4 1.845061 1_565
F20 Ge1 2.135553 1_555
F21 Ge5 1.845061 1_555
F21 Ge0 2.135553 1_555
F22 Ge5 1.819338 1_555
F22 Ge9 2.222896 1_555
F23 Ge4 1.819338 1_655
F23 Ge8 2.222896 1_555
