# generated using pymatgen
data_Be3P2(H2O5)2
_symmetry_space_group_name_H-M   'P 1'
_cell_length_a   8.40993268
_cell_length_b   8.40993268
_cell_length_c   9.64631995
_cell_angle_alpha   85.36159719
_cell_angle_beta   85.36159719
_cell_angle_gamma   31.91254212
_symmetry_Int_Tables_number   1
_chemical_formula_structural   Be3P2(H2O5)2
_chemical_formula_sum   'Be6 P4 H8 O20'
_cell_volume   359.37853785
_cell_formula_units_Z   2
loop_
 _symmetry_equiv_pos_site_id
 _symmetry_equiv_pos_as_xyz
  1  'x, y, z'
loop_
 _atom_site_type_symbol
 _atom_site_label
 _atom_site_symmetry_multiplicity
 _atom_site_fract_x
 _atom_site_fract_y
 _atom_site_fract_z
 _atom_site_occupancy
  Be  Be0  1  0.29312800  0.20223200  0.34244100  1
  Be  Be1  1  0.79776800  0.70687200  0.15755900  1
  Be  Be2  1  0.70687200  0.79776800  0.65755900  1
  Be  Be3  1  0.20223200  0.29312800  0.84244100  1
  Be  Be4  1  0.18842100  0.81157900  0.25000000  1
  Be  Be5  1  0.81157900  0.18842100  0.75000000  1
  P  P0  1  0.19771700  0.11347500  0.10530300  1
  P  P1  1  0.11347500  0.19771700  0.60530300  1
  P  P2  1  0.80228300  0.88652500  0.89469700  1
  P  P3  1  0.88652500  0.80228300  0.39469700  1
  H  H0  1  0.66353700  0.46884200  0.31139300  1
  H  H1  1  0.76527700  0.41751300  0.90422600  1
  H  H2  1  0.58248700  0.23472300  0.59577400  1
  H  H3  1  0.23472300  0.58248700  0.09577400  1
  H  H4  1  0.41751300  0.76527700  0.40422600  1
  H  H5  1  0.46884200  0.66353700  0.81139300  1
  H  H6  1  0.33646300  0.53115800  0.68860700  1
  H  H7  1  0.53115800  0.33646300  0.18860700  1
  O  O0  1  0.54092600  0.81267000  0.10843200  1
  O  O1  1  0.81267000  0.54092600  0.60843200  1
  O  O2  1  0.45907400  0.18733000  0.89156800  1
  O  O3  1  0.18733000  0.45907400  0.39156800  1
  O  O4  1  0.91372400  0.75130000  0.04379400  1
  O  O5  1  0.63072400  0.46154900  0.85432800  1
  O  O6  1  0.08627600  0.24870000  0.95620600  1
  O  O7  1  0.75130000  0.91372400  0.54379400  1
  O  O8  1  0.90049500  0.66279100  0.80092900  1
  O  O9  1  0.33720900  0.09950500  0.69907100  1
  O  O10  1  0.09950500  0.33720900  0.19907100  1
  O  O11  1  0.66279100  0.90049500  0.30092900  1
  O  O12  1  0.24870000  0.08627600  0.45620600  1
  O  O13  1  0.53845100  0.36927600  0.64567200  1
  O  O14  1  0.36927600  0.53845100  0.14567200  1
  O  O15  1  0.46154900  0.63072400  0.35432800  1
  O  O16  1  0.04756100  0.08631200  0.16781000  1
  O  O17  1  0.08631200  0.04756100  0.66781000  1
  O  O18  1  0.95243900  0.91368800  0.83219000  1
  O  O19  1  0.91368800  0.95243900  0.33219000  1
loop_
_geom_bond_atom_site_label_1
_geom_bond_atom_site_label_2
_geom_bond_distance
_geom_bond_site_symmetry_2
Be0 O3 1.586344 1_555
Be0 O12 1.635263 1_555
Be0 O10 1.680774 1_555
Be0 O11 1.683574 1_545
Be1 O0 1.586344 1_555
Be1 O4 1.635263 1_555
Be1 O11 1.680774 1_555
Be1 O10 1.683574 1_655
Be2 O1 1.586344 1_555
Be2 O7 1.635263 1_555
Be2 O8 1.680774 1_555
Be2 O9 1.683574 1_565
Be3 O2 1.586344 1_555
Be3 O6 1.635263 1_555
Be3 O9 1.680774 1_555
Be3 O8 1.683574 1_455
Be4 O19 1.605976 1_455
Be4 O16 1.605976 1_565
Be4 O14 1.672542 1_555
Be4 O15 1.672542 1_555
Be5 O18 1.605976 1_545
Be5 O17 1.605976 1_655
Be5 O13 1.672542 1_555
Be5 O5 1.672542 1_555
H0 O15 0.980708 1_555
H1 O5 0.998554 1_555
H2 O13 0.998554 1_555
H3 O14 0.998554 1_555
H4 O15 0.998554 1_555
H5 O5 0.980708 1_555
H6 O13 0.980708 1_555
H7 O14 0.980708 1_555
O0 P0 1.528747 1_565
O1 P1 1.528747 1_655
O2 P2 1.528747 1_545
O3 P3 1.528747 1_455
O4 P2 1.544084 1_554
O6 P0 1.544084 1_556
O7 P3 1.544084 1_555
O8 P2 1.598976 1_555
O9 P1 1.598976 1_555
O10 P0 1.598976 1_555
O11 P3 1.598976 1_555
O12 P1 1.544084 1_555
O16 P0 1.534515 1_555
O17 P1 1.534515 1_555
O18 P2 1.534515 1_555
O19 P3 1.534515 1_555
