# generated using pymatgen
data_Li2CrPCO7
_symmetry_space_group_name_H-M   'P 1'
_cell_length_a   8.12669471
_cell_length_b   8.12668510
_cell_length_c   9.57588332
_cell_angle_alpha   73.17313545
_cell_angle_beta   73.17305854
_cell_angle_gamma   103.66166994
_symmetry_Int_Tables_number   1
_chemical_formula_structural   Li2CrPCO7
_chemical_formula_sum   'Li8 Cr4 P4 C4 O28'
_cell_volume   542.93675993
_cell_formula_units_Z   4
loop_
 _symmetry_equiv_pos_site_id
 _symmetry_equiv_pos_as_xyz
  1  'x, y, z'
loop_
 _atom_site_type_symbol
 _atom_site_label
 _atom_site_symmetry_multiplicity
 _atom_site_fract_x
 _atom_site_fract_y
 _atom_site_fract_z
 _atom_site_occupancy
  Li  Li0  1  0.72626400  0.72480800  0.77414700  1
  Li  Li1  1  0.22626500  0.22480800  0.77414700  1
  Li  Li2  1  0.77373500  0.77519100  0.22585400  1
  Li  Li3  1  0.27373400  0.27519100  0.22585400  1
  Li  Li4  1  0.52519200  0.02373500  0.22585300  1
  Li  Li5  1  0.02519100  0.52373400  0.22585400  1
  Li  Li6  1  0.97480700  0.47626300  0.77414800  1
  Li  Li7  1  0.47480900  0.97626500  0.77414600  1
  Cr  Cr0  1  0.30785000  0.55784900  0.34361000  1
  Cr  Cr1  1  0.19215000  0.94215000  0.65639100  1
  Cr  Cr2  1  0.80785400  0.05785600  0.34362400  1
  Cr  Cr3  1  0.69214300  0.44214200  0.65637700  1
  P  P0  1  0.05412300  0.80412300  0.41930000  1
  P  P1  1  0.55412300  0.30412400  0.41930000  1
  P  P2  1  0.44587700  0.69587800  0.58070000  1
  P  P3  1  0.94587700  0.19587700  0.58070000  1
  C  C0  1  0.48223700  0.73223700  0.05851500  1
  C  C1  1  0.98223700  0.23223700  0.05851500  1
  C  C2  1  0.01776400  0.76776400  0.94148500  1
  C  C3  1  0.51776400  0.26776400  0.94148500  1
  O  O0  1  0.33431200  0.58431200  0.11958800  1
  O  O1  1  0.83431300  0.08431500  0.11958400  1
  O  O2  1  0.16568800  0.91568900  0.88041200  1
  O  O3  1  0.66568800  0.41568600  0.88041600  1
  O  O4  1  0.97199200  0.72199200  0.83212700  1
  O  O5  1  0.47199100  0.22199100  0.83212900  1
  O  O6  1  0.52800800  0.77800800  0.16787200  1
  O  O7  1  0.02800900  0.27800900  0.16787100  1
  O  O8  1  0.58492600  0.83492600  0.41284700  1
  O  O9  1  0.08492800  0.33492900  0.41284600  1
  O  O10  1  0.91507400  0.66507400  0.58715300  1
  O  O11  1  0.41507200  0.16507200  0.58715400  1
  O  O12  1  0.19816500  0.94816300  0.44182800  1
  O  O13  1  0.69816400  0.44816300  0.44182700  1
  O  O14  1  0.30183500  0.55183800  0.55817200  1
  O  O15  1  0.80183600  0.05183800  0.55817300  1
  O  O16  1  0.07078200  0.32078200  0.91235400  1
  O  O17  1  0.57078300  0.82078300  0.91235300  1
  O  O18  1  0.42921900  0.17921900  0.08764600  1
  O  O19  1  0.92921800  0.67921800  0.08764700  1
  O  O20  1  0.54547300  0.60354000  0.67623600  1
  O  O21  1  0.04547400  0.10354000  0.67623500  1
  O  O22  1  0.35353900  0.79547400  0.67623500  1
  O  O23  1  0.85353900  0.29547200  0.67623700  1
  O  O24  1  0.14646200  0.70452600  0.32376500  1
  O  O25  1  0.64646200  0.20452800  0.32376300  1
  O  O26  1  0.95452700  0.89646200  0.32376400  1
  O  O27  1  0.45452600  0.39646100  0.32376500  1
loop_
_geom_bond_atom_site_label_1
_geom_bond_atom_site_label_2
_geom_bond_distance
_geom_bond_site_symmetry_2
Li0 O17 2.012805 1_555
Li0 O20 2.158115 1_555
Li0 O4 2.225480 1_555
Li0 O10 2.249619 1_555
Li0 O3 2.287893 1_555
Li1 O16 2.012813 1_555
Li1 O21 2.158122 1_555
Li1 O5 2.225475 1_555
Li1 O11 2.249610 1_555
Li1 O2 2.287867 1_545
Li2 O19 2.012807 1_555
Li2 O26 2.158124 1_555
Li2 O6 2.225483 1_555
Li2 O8 2.249613 1_555
Li2 O1 2.287906 1_565
Li3 O18 2.012816 1_555
Li3 O27 2.158127 1_555
Li3 O7 2.225474 1_555
Li3 O9 2.249610 1_555
Li3 O0 2.287881 1_555
Li4 O18 2.012813 1_555
Li4 O25 2.158125 1_555
Li4 O6 2.225474 1_545
Li4 O8 2.249616 1_545
Li4 O1 2.287881 1_555
Li5 O19 2.012813 1_455
Li5 O24 2.158130 1_555
Li5 O7 2.225471 1_555
Li5 O9 2.249602 1_555
Li5 O0 2.287882 1_555
Li6 O16 2.012807 1_655
Li6 O23 2.158114 1_555
Li6 O4 2.225479 1_555
Li6 O10 2.249626 1_555
Li6 O3 2.287870 1_555
Li7 O17 2.012811 1_555
Li7 O22 2.158121 1_555
Li7 O5 2.225478 1_565
Li7 O11 2.249610 1_565
Li7 O2 2.287885 1_555
Cr0 O27 1.982111 1_555
Cr0 O24 1.982117 1_555
Cr0 O9 2.015526 1_555
Cr0 O14 2.027032 1_555
Cr0 O0 2.034301 1_555
Cr0 O6 2.058073 1_555
Cr1 O22 1.982117 1_555
Cr1 O21 1.982123 1_565
Cr1 O11 2.015534 1_565
Cr1 O12 2.027037 1_555
Cr1 O2 2.034295 1_555
Cr1 O4 2.058063 1_455
Cr2 O25 1.982132 1_555
Cr2 O26 1.982150 1_545
Cr2 O8 2.015627 1_545
Cr2 O15 2.026885 1_555
Cr2 O1 2.034485 1_555
Cr2 O7 2.058087 1_655
Cr3 O23 1.982146 1_555
Cr3 O20 1.982158 1_555
Cr3 O10 2.015649 1_555
Cr3 O13 2.026881 1_555
Cr3 O3 2.034488 1_555
Cr3 O5 2.058066 1_555
C0 O17 1.258477 1_554
C0 O0 1.317415 1_555
C0 O6 1.326274 1_555
C1 O16 1.258468 1_654
C1 O1 1.317400 1_555
C1 O7 1.326272 1_655
C2 O19 1.258477 1_456
C2 O2 1.317411 1_555
C2 O4 1.326290 1_455
C3 O18 1.258468 1_556
C3 O3 1.317400 1_555
C3 O5 1.326279 1_555
O8 P2 1.559179 1_555
O9 P3 1.559198 1_455
O10 P0 1.559181 1_655
O11 P1 1.559198 1_555
O12 P0 1.559540 1_555
O13 P1 1.559525 1_555
O14 P2 1.559540 1_555
O15 P3 1.559525 1_555
O20 P2 1.540549 1_555
O21 P3 1.540547 1_455
O22 P2 1.540542 1_555
O23 P3 1.540547 1_555
O24 P0 1.540552 1_555
O25 P1 1.540557 1_555
O26 P0 1.540553 1_655
O27 P1 1.540547 1_555
