# generated using pymatgen
data_MgCu6OF11
_symmetry_space_group_name_H-M   'P 1'
_cell_length_a   5.69544340
_cell_length_b   4.97281526
_cell_length_c   8.78350891
_cell_angle_alpha   91.08450271
_cell_angle_beta   91.07929054
_cell_angle_gamma   78.44279928
_symmetry_Int_Tables_number   1
_chemical_formula_structural   MgCu6OF11
_chemical_formula_sum   'Mg1 Cu6 O1 F11'
_cell_volume   243.65378008
_cell_formula_units_Z   1
loop_
 _symmetry_equiv_pos_site_id
 _symmetry_equiv_pos_as_xyz
  1  'x, y, z'
loop_
 _atom_site_type_symbol
 _atom_site_label
 _atom_site_symmetry_multiplicity
 _atom_site_fract_x
 _atom_site_fract_y
 _atom_site_fract_z
 _atom_site_occupancy
  Mg  Mg0  1  0.78651800  0.28248900  0.56898800  1
  Cu  Cu0  1  0.01794500  0.03880500  0.97850900  1
  Cu  Cu1  1  0.43351400  0.51831000  0.10106600  1
  Cu  Cu2  1  0.34479500  0.99537600  0.33316100  1
  Cu  Cu3  1  0.87404700  0.56824500  0.27519100  1
  Cu  Cu4  1  0.19107000  0.50778600  0.66963600  1
  Cu  Cu5  1  0.55174500  0.84201500  0.75685300  1
  O  O0  1  0.56876800  0.72727100  0.23833600  1
  F  F0  1  0.25358700  0.23082000  0.06745300  1
  F  F1  1  0.11949400  0.77023300  0.22643400  1
  F  F2  1  0.76956300  0.29645800  0.07471700  1
  F  F3  1  0.05462300  0.26826200  0.40952600  1
  F  F4  1  0.57658500  0.21224300  0.40710800  1
  F  F5  1  0.34393700  0.78342400  0.58427400  1
  F  F6  1  0.84246800  0.67886500  0.59904400  1
  F  F7  1  0.52415600  0.27892700  0.71252700  1
  F  F8  1  0.28899000  0.74895200  0.90214400  1
  F  F9  1  0.03106800  0.21750400  0.73058100  1
  F  F10  1  0.78962700  0.82568100  0.91132600  1
loop_
_geom_bond_atom_site_label_1
_geom_bond_atom_site_label_2
_geom_bond_distance
_geom_bond_site_symmetry_2
Cu0 F2 1.906498 1_456
Cu0 F10 1.913651 1_445
Cu0 F0 1.941398 1_556
Cu0 F8 2.005345 1_545
Cu0 F9 2.375614 1_555
Cu0 F1 2.571678 1_546
Cu1 O0 1.834464 1_555
Cu1 F0 1.934119 1_555
Cu1 F2 2.023567 1_555
Cu1 F8 2.165463 1_554
Cu1 F1 2.259397 1_555
Cu2 O0 1.847968 1_555
Cu2 F4 1.959422 1_565
Cu2 F3 2.032572 1_565
Cu2 F1 2.066268 1_555
Cu2 F5 2.462989 1_555
Cu3 O0 1.786278 1_555
Cu3 F1 1.935975 1_655
Cu3 F3 2.020269 1_655
Cu3 F2 2.339691 1_555
Cu4 F5 1.934083 1_555
Cu4 F9 1.943054 1_555
Cu4 F7 2.039665 1_555
Cu4 F6 2.084943 1_455
Cu4 F8 2.460161 1_555
Cu5 F10 1.890495 1_555
Cu5 F5 1.958921 1_555
Cu5 F8 2.110475 1_555
Cu5 F7 2.188549 1_565
Cu5 F6 2.197004 1_555
F3 Mg0 2.081340 1_455
F4 Mg0 1.912555 1_555
F6 Mg0 2.070098 1_555
F7 Mg0 1.976140 1_555
F9 Mg0 1.954861 1_455
