# generated using pymatgen
data_MgMn6(OF)6
_symmetry_space_group_name_H-M   'P 1'
_cell_length_a   5.27917510
_cell_length_b   14.50578230
_cell_length_c   3.04332667
_cell_angle_alpha   89.69492514
_cell_angle_beta   89.85069042
_cell_angle_gamma   91.52724777
_symmetry_Int_Tables_number   1
_chemical_formula_structural   MgMn6(OF)6
_chemical_formula_sum   'Mg1 Mn6 O6 F6'
_cell_volume   232.96661683
_cell_formula_units_Z   1
loop_
 _symmetry_equiv_pos_site_id
 _symmetry_equiv_pos_as_xyz
  1  'x, y, z'
loop_
 _atom_site_type_symbol
 _atom_site_label
 _atom_site_symmetry_multiplicity
 _atom_site_fract_x
 _atom_site_fract_y
 _atom_site_fract_z
 _atom_site_occupancy
  Mg  Mg0  1  0.48094700  0.67036300  0.46691200  1
  Mn  Mn0  1  0.91072900  0.01007600  0.99575500  1
  Mn  Mn1  1  0.11034100  0.32249200  0.99117500  1
  Mn  Mn2  1  0.98977200  0.65950700  0.96905800  1
  Mn  Mn3  1  0.52621200  0.17025900  0.49424200  1
  Mn  Mn4  1  0.56017300  0.47883500  0.48017700  1
  Mn  Mn5  1  0.34400400  0.85900900  0.49075000  1
  O  O0  1  0.25045100  0.25751100  0.49286900  1
  O  O1  1  0.05898500  0.94532900  0.49592900  1
  O  O2  1  0.32095800  0.74446200  0.96830900  1
  O  O3  1  0.41017200  0.41588900  0.98286900  1
  O  O4  1  0.65244600  0.57498500  0.97448800  1
  O  O5  1  0.79038000  0.08318800  0.49467900  1
  F  F0  1  0.18227700  0.58312400  0.47087400  1
  F  F1  1  0.34292900  0.10378900  0.99240200  1
  F  F2  1  0.72262900  0.24153500  0.99798600  1
  F  F3  1  0.57330000  0.91637400  0.99328500  1
  F  F4  1  0.92278200  0.39450800  0.48900800  1
  F  F5  1  0.80884600  0.73543000  0.46756200  1
loop_
_geom_bond_atom_site_label_1
_geom_bond_atom_site_label_2
_geom_bond_distance
_geom_bond_site_symmetry_2
Mg0 O2 2.051570 1_554
Mg0 O2 2.063070 1_555
Mg0 O4 2.249770 1_554
Mg0 O4 2.274054 1_555
Mn0 O1 1.960081 1_646
Mn0 O1 1.963853 1_645
Mn0 O5 1.969163 1_555
Mn0 O5 1.970270 1_556
Mn1 O0 1.944720 1_555
Mn1 O0 1.947948 1_556
Mn1 O3 2.055888 1_555
Mn2 O2 2.112019 1_655
Mn2 O4 2.134947 1_555
Mn3 O5 1.906310 1_555
Mn3 O0 1.954335 1_555
Mn4 O3 1.932306 1_554
Mn4 O3 1.934301 1_555
Mn4 O4 2.106082 1_555
Mn4 O4 2.118498 1_554
Mn5 O1 1.983087 1_555
Mn5 O2 2.202399 1_555
Mn5 O2 2.306953 1_554
F0 Mg0 1.995249 1_555
F0 Mn2 2.151512 1_455
F0 Mn2 2.154728 1_454
F0 Mn4 2.535744 1_555
F1 Mn3 2.022722 1_555
F1 Mn3 2.042568 1_556
F1 Mn0 2.624574 1_455
F2 Mn3 2.084024 1_556
F2 Mn3 2.112454 1_555
F2 Mn1 2.332444 1_655
F3 Mn5 2.091197 1_556
F3 Mn5 2.113346 1_555
F3 Mn0 2.211752 1_565
F4 Mn1 2.105067 1_654
F4 Mn1 2.110283 1_655
F4 Mn4 2.299174 1_555
F5 Mg0 1.949432 1_555
F5 Mn2 2.119703 1_554
F5 Mn2 2.121393 1_555
