# generated using pymatgen
data_MgBi4(WO6)2
_symmetry_space_group_name_H-M   'P 1'
_cell_length_a   5.60042271
_cell_length_b   5.77813985
_cell_length_c   9.27860404
_cell_angle_alpha   108.14176608
_cell_angle_beta   90.74038273
_cell_angle_gamma   90.00000037
_symmetry_Int_Tables_number   1
_chemical_formula_structural   MgBi4(WO6)2
_chemical_formula_sum   'Mg1 Bi4 W2 O12'
_cell_volume   285.30346821
_cell_formula_units_Z   1
loop_
 _symmetry_equiv_pos_site_id
 _symmetry_equiv_pos_as_xyz
  1  'x, y, z'
loop_
 _atom_site_type_symbol
 _atom_site_label
 _atom_site_symmetry_multiplicity
 _atom_site_fract_x
 _atom_site_fract_y
 _atom_site_fract_z
 _atom_site_occupancy
  Mg  Mg0  1  0.50000000  0.07409800  0.00000000  1
  Bi  Bi0  1  0.04075300  0.23961700  0.65014700  1
  Bi  Bi1  1  0.95924700  0.58947000  0.34985300  1
  Bi  Bi2  1  0.52829400  0.08881900  0.36344200  1
  Bi  Bi3  1  0.47170500  0.72537700  0.63655800  1
  W  W0  1  0.50000100  0.56574800  0.00000000  1
  W  W1  1  0.00000000  0.06224500  0.00000000  1
  O  O0  1  0.62135000  0.67600300  0.20555900  1
  O  O1  1  0.37865000  0.47044400  0.79444100  1
  O  O2  1  0.86425700  0.17821900  0.19920900  1
  O  O3  1  0.13574300  0.97901000  0.80079200  1
  O  O4  1  0.73102200  0.80251100  0.93886700  1
  O  O5  1  0.26897800  0.86364200  0.06113200  1
  O  O6  1  0.22842400  0.44327400  0.49755600  1
  O  O7  1  0.77157600  0.94571800  0.50244500  1
  O  O8  1  0.26981800  0.95182300  0.50446500  1
  O  O9  1  0.73718300  0.27506300  0.93778900  1
  O  O10  1  0.26281700  0.33727500  0.06221200  1
  O  O11  1  0.73018100  0.44735900  0.49553500  1
loop_
_geom_bond_atom_site_label_1
_geom_bond_atom_site_label_2
_geom_bond_distance
_geom_bond_site_symmetry_2
Mg0 O9 1.970600 1_554
Mg0 O10 1.970604 1_555
Mg0 O4 1.980648 1_544
Mg0 O5 1.980652 1_545
Mg0 O3 2.673959 1_544
Mg0 O2 2.673964 1_555
Bi0 O8 2.209796 1_545
Bi0 O7 2.351999 1_445
Bi0 O6 2.360088 1_555
Bi0 O3 2.407449 1_545
Bi0 O1 2.444373 1_555
Bi0 O11 2.744461 1_455
Bi1 O11 2.209796 1_555
Bi1 O6 2.352003 1_655
Bi1 O7 2.360091 1_555
Bi1 O2 2.407442 1_555
Bi1 O0 2.444373 1_555
Bi1 O8 2.744454 1_655
Bi2 O7 2.195955 1_545
Bi2 O8 2.264555 1_545
Bi2 O11 2.335689 1_555
Bi2 O0 2.439470 1_545
Bi2 O2 2.587168 1_555
Bi2 O6 2.651499 1_555
Bi3 O6 2.195944 1_555
Bi3 O11 2.264552 1_555
Bi3 O8 2.335685 1_555
Bi3 O1 2.439469 1_555
Bi3 O3 2.587168 1_555
Bi3 O7 2.651497 1_555
O0 W0 1.927522 1_555
O1 W0 1.927525 1_556
O2 W1 1.925740 1_655
O3 W1 1.925731 1_566
O4 W1 2.071494 1_666
O4 W0 2.090329 1_556
O5 W1 2.071498 1_565
O5 W0 2.090327 1_555
O9 W0 2.082018 1_556
O9 W1 2.105199 1_656
O10 W0 2.082026 1_555
O10 W1 2.105203 1_555
