# generated using pymatgen
data_GdSnAu
_symmetry_space_group_name_H-M   'P 1'
_cell_length_a   4.69776044
_cell_length_b   4.69776007
_cell_length_c   7.51578536
_cell_angle_alpha   90.00000000
_cell_angle_beta   90.00000000
_cell_angle_gamma   120.00000263
_symmetry_Int_Tables_number   1
_chemical_formula_structural   GdSnAu
_chemical_formula_sum   'Gd2 Sn2 Au2'
_cell_volume   143.64373436
_cell_formula_units_Z   2
loop_
 _symmetry_equiv_pos_site_id
 _symmetry_equiv_pos_as_xyz
  1  'x, y, z'
loop_
 _atom_site_type_symbol
 _atom_site_label
 _atom_site_symmetry_multiplicity
 _atom_site_fract_x
 _atom_site_fract_y
 _atom_site_fract_z
 _atom_site_occupancy
  Gd  Gd0  1  0.00000000  0.00000000  0.89947589  1
  Gd  Gd1  1  0.00000000  -0.00000000  0.39946879  1
  Sn  Sn0  1  0.66666700  0.33333300  0.12343887  1
  Sn  Sn1  1  0.33333300  0.66666700  0.62346047  1
  Au  Au0  1  0.33333300  0.66666700  0.22217718  1
  Au  Au1  1  0.66666700  0.33333300  0.72217880  1
loop_
_geom_bond_atom_site_label_1
_geom_bond_atom_site_label_2
_geom_bond_distance
_geom_bond_site_symmetry_2
Gd0 Sn0 3.192125 1_456
Gd0 Sn0 3.192128 1_446
Gd0 Sn0 3.192128 1_556
Gd0 Sn1 3.414636 1_545
Gd0 Sn1 3.414639 1_555
Gd0 Sn1 3.414639 1_445
Gd0 Gd1 3.757839 1_556
Gd0 Gd1 3.757946 1_555
Gd1 Sn1 3.192238 1_545
Gd1 Sn1 3.192242 1_555
Gd1 Sn1 3.192242 1_445
Gd1 Sn0 3.414702 1_455
Gd1 Sn0 3.414705 1_445
Gd1 Sn0 3.414705 1_555
Au0 Sn0 2.811940 1_565
Au0 Sn0 2.811940 1_455
Au0 Sn0 2.811948 1_555
Au0 Sn1 3.015959 1_555
Au0 Gd1 3.021890 1_565
Au0 Gd1 3.021894 1_555
Au0 Gd1 3.021894 1_665
Au0 Gd0 3.638495 1_564
Au0 Gd0 3.638497 1_554
Au0 Gd0 3.638498 1_664
Au1 Sn1 2.811901 1_545
Au1 Sn1 2.811901 1_655
Au1 Sn1 2.811909 1_555
Au1 Sn0 3.015785 1_556
Au1 Gd0 3.021908 1_655
Au1 Gd0 3.021912 1_665
Au1 Gd0 3.021912 1_555
Au1 Gd1 3.638538 1_655
Au1 Gd1 3.638541 1_665
Au1 Gd1 3.638541 1_555
