# generated using pymatgen
data_Na3Mg4Nb2P3(SO6)6
_symmetry_space_group_name_H-M   'P 1'
_cell_length_a   8.69418159
_cell_length_b   8.69418132
_cell_length_c   22.80164588
_cell_angle_alpha   90.00000000
_cell_angle_beta   90.00000000
_cell_angle_gamma   120.00000106
_symmetry_Int_Tables_number   1
_chemical_formula_structural   Na3Mg4Nb2P3(SO6)6
_chemical_formula_sum   'Na6 Mg8 Nb4 P6 S12 O72'
_cell_volume   1492.63707223
_cell_formula_units_Z   2
loop_
 _symmetry_equiv_pos_site_id
 _symmetry_equiv_pos_as_xyz
  1  'x, y, z'
loop_
 _atom_site_type_symbol
 _atom_site_label
 _atom_site_symmetry_multiplicity
 _atom_site_fract_x
 _atom_site_fract_y
 _atom_site_fract_z
 _atom_site_occupancy
  Na  Na0  1  0.00000000  0.00000000  0.49571076  1
  Na  Na1  1  0.00000000  0.00000000  0.99571076  1
  Na  Na2  1  0.66666700  0.33333300  0.82856046  1
  Na  Na3  1  0.66666700  0.33333300  0.32856046  1
  Na  Na4  1  0.33333300  0.66666700  0.16189767  1
  Na  Na5  1  0.33333300  0.66666700  0.66189767  1
  Mg  Mg0  1  0.00000000  0.00000000  0.35318547  1
  Mg  Mg1  1  0.00000000  0.00000000  0.85318547  1
  Mg  Mg2  1  0.00000000  0.00000000  0.64751073  1
  Mg  Mg3  1  0.00000000  0.00000000  0.14751073  1
  Mg  Mg4  1  0.66666700  0.33333300  0.68460629  1
  Mg  Mg5  1  0.66666700  0.33333300  0.18460629  1
  Mg  Mg6  1  0.33333300  0.66666700  0.01815853  1
  Mg  Mg7  1  0.33333300  0.66666700  0.51815853  1
  Nb  Nb0  1  0.66666700  0.33333300  0.97721617  1
  Nb  Nb1  1  0.66666700  0.33333300  0.47721617  1
  Nb  Nb2  1  0.33333300  0.66666700  0.31664145  1
  Nb  Nb3  1  0.33333300  0.66666700  0.81664145  1
  P  P0  1  0.62705435  0.67446083  0.91975842  1
  P  P1  1  0.04740548  0.37294565  0.91975842  1
  P  P2  1  0.32553917  0.95259452  0.91975842  1
  P  P3  1  0.62705435  0.95259452  0.41975842  1
  P  P4  1  0.32553917  0.37294565  0.41975842  1
  P  P5  1  0.04740548  0.67446083  0.41975842  1
  S  S0  1  0.29198199  0.00272868  0.24984683  1
  S  S1  1  0.71074669  0.70801801  0.24984683  1
  S  S2  1  0.99727132  0.28925331  0.24984683  1
  S  S3  1  0.29198199  0.28925331  0.74984683  1
  S  S4  1  0.99727132  0.70801801  0.74984683  1
  S  S5  1  0.71074669  0.00272868  0.74984683  1
  S  S6  1  0.95897715  0.33420983  0.58477725  1
  S  S7  1  0.37523368  0.04102285  0.58477725  1
  S  S8  1  0.66579017  0.62476632  0.58477725  1
  S  S9  1  0.95897715  0.62476632  0.08477725  1
  S  S10  1  0.66579017  0.04102285  0.08477725  1
  S  S11  1  0.37523368  0.33420983  0.08477725  1
  O  O0  1  0.21024217  0.02384430  0.30284455  1
  O  O1  1  0.81360212  0.78975783  0.30284455  1
  O  O2  1  0.97615570  0.18639788  0.30284455  1
  O  O3  1  0.21024217  0.18639788  0.80284455  1
  O  O4  1  0.97615570  0.78975783  0.80284455  1
  O  O5  1  0.81360212  0.02384430  0.80284455  1
  O  O6  1  0.78457844  0.96962180  0.69669732  1
  O  O7  1  0.18504337  0.21542156  0.69669732  1
  O  O8  1  0.03037820  0.81495663  0.69669732  1
  O  O9  1  0.78457844  0.81495663  0.19669732  1
  O  O10  1  0.03037820  0.21542156  0.19669732  1
  O  O11  1  0.18504337  0.96962180  0.19669732  1
  O  O12  1  0.87324730  0.35682523  0.63659677  1
  O  O13  1  0.48357892  0.12675270  0.63659677  1
  O  O14  1  0.64317477  0.51642108  0.63659677  1
  O  O15  1  0.87324730  0.51642108  0.13659677  1
  O  O16  1  0.64317477  0.12675270  0.13659677  1
  O  O17  1  0.48357892  0.35682523  0.13659677  1
  O  O18  1  0.46842435  0.31314138  0.03024059  1
  O  O19  1  0.84471803  0.53157565  0.03024059  1
  O  O20  1  0.68685862  0.15528197  0.03024059  1
  O  O21  1  0.46842435  0.15528197  0.53024059  1
  O  O22  1  0.68685862  0.53157565  0.53024059  1
  O  O23  1  0.84471803  0.31314138  0.53024059  1
  O  O24  1  0.54060067  0.69475916  0.97333813  1
  O  O25  1  0.15415749  0.45939933  0.97333813  1
  O  O26  1  0.30524084  0.84584251  0.97333813  1
  O  O27  1  0.54060067  0.84584251  0.47333813  1
  O  O28  1  0.30524084  0.45939933  0.47333813  1
  O  O29  1  0.15415749  0.69475916  0.47333813  1
  O  O30  1  0.13279968  0.63611022  0.36288668  1
  O  O31  1  0.50330955  0.86720032  0.36288668  1
  O  O32  1  0.36388978  0.49669045  0.36288668  1
  O  O33  1  0.13279968  0.49669045  0.86288668  1
  O  O34  1  0.36388978  0.86720032  0.86288668  1
  O  O35  1  0.50330955  0.63611022  0.86288668  1
  O  O36  1  0.01583445  0.82557594  0.40792099  1
  O  O37  1  0.80974149  0.98416555  0.40792099  1
  O  O38  1  0.17442406  0.19025851  0.40792099  1
  O  O39  1  0.01583445  0.19025851  0.90792099  1
  O  O40  1  0.17442406  0.98416555  0.90792099  1
  O  O41  1  0.80974149  0.82557594  0.90792099  1
  O  O42  1  0.96948525  0.17007821  0.58704844  1
  O  O43  1  0.20059296  0.03051475  0.58704844  1
  O  O44  1  0.82992179  0.79940704  0.58704844  1
  O  O45  1  0.96948525  0.79940704  0.08704844  1
  O  O46  1  0.82992179  0.03051475  0.08704844  1
  O  O47  1  0.20059296  0.17007821  0.08704844  1
  O  O48  1  0.68281833  0.15639053  0.74396681  1
  O  O49  1  0.47357320  0.31718167  0.74396681  1
  O  O50  1  0.84360947  0.52642680  0.74396681  1
  O  O51  1  0.68281833  0.52642680  0.24396681  1
  O  O52  1  0.84360947  0.31718167  0.24396681  1
  O  O53  1  0.47357320  0.15639053  0.24396681  1
  O  O54  1  0.63608342  0.49559500  0.92475174  1
  O  O55  1  0.85951258  0.36391658  0.92475174  1
  O  O56  1  0.50440500  0.14048742  0.92475174  1
  O  O57  1  0.63608342  0.14048742  0.42475174  1
  O  O58  1  0.50440500  0.36391658  0.42475174  1
  O  O59  1  0.85951258  0.49559500  0.42475174  1
  O  O60  1  0.35875410  0.49305342  0.07765719  1
  O  O61  1  0.13429832  0.64124590  0.07765719  1
  O  O62  1  0.50694658  0.86570168  0.07765719  1
  O  O63  1  0.35875410  0.86570168  0.57765719  1
  O  O64  1  0.50694658  0.64124590  0.57765719  1
  O  O65  1  0.13429832  0.49305342  0.57765719  1
  O  O66  1  0.31118260  0.83601379  0.25717244  1
  O  O67  1  0.52483019  0.68881740  0.25717244  1
  O  O68  1  0.16398621  0.47516981  0.25717244  1
  O  O69  1  0.31118260  0.47516981  0.75717244  1
  O  O70  1  0.16398621  0.68881740  0.75717244  1
  O  O71  1  0.52483019  0.83601379  0.75717244  1
loop_
_geom_bond_atom_site_label_1
_geom_bond_atom_site_label_2
_geom_bond_distance
_geom_bond_site_symmetry_2
Na0 O38 2.556252 1_555
Na0 O36 2.556252 1_545
Na0 O37 2.556252 1_445
Na0 O44 2.643225 1_445
Na0 O42 2.643225 1_455
Na0 O43 2.643225 1_555
Na1 O39 2.556252 1_555
Na1 O41 2.556252 1_445
Na1 O40 2.556252 1_545
Na1 O45 2.643225 1_446
Na1 O47 2.643225 1_556
Na1 O46 2.643225 1_456
Na2 O50 2.514534 1_555
Na2 O48 2.514534 1_555
Na2 O49 2.514534 1_555
Na2 O56 2.691958 1_555
Na2 O54 2.691958 1_555
Na2 O55 2.691958 1_555
Na3 O51 2.514534 1_555
Na3 O53 2.514534 1_555
Na3 O52 2.514534 1_555
Na3 O57 2.691958 1_555
Na3 O59 2.691958 1_555
Na3 O58 2.691958 1_555
Na4 O62 2.519997 1_555
Na4 O60 2.519997 1_555
Na4 O61 2.519997 1_555
Na4 O68 2.684735 1_555
Na4 O66 2.684735 1_555
Na4 O67 2.684735 1_555
Na5 O63 2.519997 1_555
Na5 O65 2.519997 1_555
Na5 O64 2.519997 1_555
Na5 O69 2.684735 1_555
Na5 O71 2.684735 1_555
Na5 O70 2.684735 1_555
Mg0 O38 2.021156 1_555
Mg0 O36 2.021156 1_545
Mg0 O37 2.021156 1_445
Mg0 O1 2.079128 1_445
Mg0 O0 2.079128 1_555
Mg0 O2 2.079128 1_455
Mg1 O39 2.021156 1_555
Mg1 O41 2.021156 1_445
Mg1 O40 2.021156 1_545
Mg1 O4 2.079128 1_445
Mg1 O3 2.079128 1_555
Mg1 O5 2.079129 1_455
Mg2 O7 2.083445 1_555
Mg2 O6 2.083445 1_445
Mg2 O8 2.083445 1_545
Mg2 O44 2.133039 1_445
Mg2 O42 2.133039 1_455
Mg2 O43 2.133039 1_555
Mg3 O10 2.083445 1_555
Mg3 O9 2.083445 1_445
Mg3 O11 2.083445 1_545
Mg3 O45 2.133039 1_445
Mg3 O47 2.133039 1_555
Mg3 O46 2.133039 1_455
Mg4 O13 2.024605 1_555
Mg4 O12 2.024605 1_555
Mg4 O14 2.024605 1_555
Mg4 O50 2.105785 1_555
Mg4 O48 2.105785 1_555
Mg4 O49 2.105785 1_555
Mg5 O16 2.024605 1_555
Mg5 O15 2.024605 1_555
Mg5 O17 2.024605 1_555
Mg5 O51 2.105785 1_555
Mg5 O53 2.105785 1_555
Mg5 O52 2.105785 1_555
Mg6 O25 1.977690 1_554
Mg6 O26 1.977690 1_554
Mg6 O24 1.977690 1_554
Mg6 O62 2.121644 1_555
Mg6 O60 2.121644 1_555
Mg6 O61 2.121644 1_555
Mg7 O28 1.977690 1_555
Mg7 O27 1.977690 1_555
Mg7 O29 1.977690 1_555
Mg7 O63 2.121644 1_555
Mg7 O65 2.121644 1_555
Mg7 O64 2.121644 1_555
Nb0 O56 1.966485 1_555
Nb0 O54 1.966485 1_555
Nb0 O55 1.966485 1_555
Nb0 O19 2.039776 1_556
Nb0 O20 2.039776 1_556
Nb0 O18 2.039776 1_556
Nb1 O57 1.966485 1_555
Nb1 O59 1.966485 1_555
Nb1 O58 1.966485 1_555
Nb1 O22 2.039776 1_555
Nb1 O21 2.039776 1_555
Nb1 O23 2.039776 1_555
Nb2 O31 1.938813 1_555
Nb2 O30 1.938813 1_555
Nb2 O32 1.938813 1_555
Nb2 O68 2.080168 1_555
Nb2 O66 2.080169 1_555
Nb2 O67 2.080169 1_555
Nb3 O34 1.938813 1_555
Nb3 O33 1.938813 1_555
Nb3 O35 1.938813 1_555
Nb3 O69 2.080168 1_555
Nb3 O71 2.080169 1_555
Nb3 O70 2.080169 1_555
O0 S0 1.459288 1_555
O1 S1 1.459288 1_555
O2 S2 1.459288 1_555
O3 S3 1.459288 1_555
O4 S4 1.459288 1_555
O5 S5 1.459288 1_555
O6 S5 1.465726 1_565
O7 S3 1.465726 1_555
O8 S4 1.465726 1_455
O9 S1 1.465726 1_555
O10 S2 1.465726 1_455
O11 S0 1.465726 1_565
O12 S6 1.461803 1_555
O13 S7 1.461803 1_555
O14 S8 1.461803 1_555
O15 S9 1.461803 1_555
O16 S10 1.461803 1_555
O17 S11 1.461803 1_555
O18 S11 1.544270 1_555
O19 S9 1.544270 1_555
O20 S10 1.544270 1_555
O21 S7 1.544270 1_555
O22 S8 1.544270 1_555
O23 S6 1.544270 1_555
O24 P0 1.490411 1_555
O25 P1 1.490411 1_555
O26 P2 1.490411 1_555
O27 P3 1.490411 1_555
O28 P4 1.490411 1_555
O29 P5 1.490411 1_555
O30 P5 1.609825 1_555
O31 P3 1.609825 1_555
O32 P4 1.609825 1_555
O33 P1 1.609825 1_555
O34 P2 1.609825 1_555
O35 P0 1.609825 1_555
O36 P5 1.494974 1_555
O37 P3 1.494982 1_555
O38 P4 1.494979 1_555
O39 P1 1.494982 1_555
O40 P2 1.494974 1_555
O41 P0 1.494979 1_555
O42 S6 1.475703 1_555
O43 S7 1.475711 1_555
O44 S8 1.475707 1_555
O45 S9 1.475711 1_555
O46 S10 1.475703 1_555
O47 S11 1.475707 1_555
O48 S5 1.478555 1_555
O49 S3 1.478564 1_555
O50 S4 1.478561 1_555
O51 S1 1.478564 1_555
O52 S2 1.478555 1_555
O53 S0 1.478561 1_555
O54 P0 1.599847 1_555
O55 P1 1.599830 1_655
O56 P2 1.599838 1_545
O57 P3 1.599830 1_545
O58 P4 1.599847 1_555
O59 P5 1.599838 1_655
O60 S11 1.466954 1_555
O61 S9 1.466937 1_455
O62 S10 1.466944 1_565
O63 S7 1.466937 1_565
O64 S8 1.466954 1_555
O65 S6 1.466944 1_455
O66 S0 1.548752 1_565
O67 S1 1.548761 1_555
O68 S2 1.548757 1_455
O69 S3 1.548761 1_555
O70 S4 1.548752 1_455
O71 S5 1.548757 1_565
