# generated using pymatgen
data_Na6Ti7ZnSi6(SO8)6
_symmetry_space_group_name_H-M   'P 1'
_cell_length_a   17.57221381
_cell_length_b   8.75718122
_cell_length_c   22.45963096
_cell_angle_alpha   89.93068861
_cell_angle_beta   90.10886115
_cell_angle_gamma   119.91504810
_symmetry_Int_Tables_number   1
_chemical_formula_structural   Na6Ti7ZnSi6(SO8)6
_chemical_formula_sum   'Na18 Ti21 Zn3 Si18 S18 O144'
_cell_volume   2995.67292014
_cell_formula_units_Z   3
loop_
 _symmetry_equiv_pos_site_id
 _symmetry_equiv_pos_as_xyz
  1  'x, y, z'
loop_
 _atom_site_type_symbol
 _atom_site_label
 _atom_site_symmetry_multiplicity
 _atom_site_fract_x
 _atom_site_fract_y
 _atom_site_fract_z
 _atom_site_occupancy
  Na  Na0  1  0.68681544  0.37605088  0.25057961  1
  Na  Na1  1  0.99696390  0.64058061  0.25041268  1
  Na  Na2  1  0.99726630  0.36396291  0.75151531  1
  Na  Na3  1  0.49401897  0.36099317  0.74875015  1
  Na  Na4  1  0.19034604  0.01040308  0.75069943  1
  Na  Na5  1  0.68585647  0.00776676  0.74848514  1
  Na  Na6  1  0.99849065  0.99872507  0.49515175  1
  Na  Na7  1  0.50327156  0.00018987  0.50042310  1
  Na  Na8  1  0.00477259  0.00644213  0.99951865  1
  Na  Na9  1  0.50092246  0.99567252  0.99794388  1
  Na  Na10  1  0.33227072  0.33716098  0.82912662  1
  Na  Na11  1  0.82983260  0.33603911  0.82955897  1
  Na  Na12  1  0.33341122  0.33061145  0.32943489  1
  Na  Na13  1  0.83324045  0.32994540  0.33371424  1
  Na  Na14  1  0.17268967  0.66880423  0.16502390  1
  Na  Na15  1  0.66510153  0.66913974  0.17006169  1
  Na  Na16  1  0.17511087  0.66756953  0.66704774  1
  Na  Na17  1  0.67014922  0.66298701  0.66390485  1
  Ti  Ti0  1  0.00134633  0.98581243  0.35787649  1
  Ti  Ti1  1  0.50245852  0.01263941  0.35748834  1
  Ti  Ti2  1  0.00892956  0.02356171  0.85697478  1
  Ti  Ti3  1  0.50500829  0.00029943  0.84914523  1
  Ti  Ti4  1  0.99694555  0.00765959  0.64965687  1
  Ti  Ti5  1  0.50033724  0.00422380  0.65390053  1
  Ti  Ti6  1  0.00545773  0.99384235  0.14998202  1
  Ti  Ti7  1  0.49973070  0.00243415  0.14588217  1
  Ti  Ti8  1  0.33413659  0.33960243  0.18732073  1
  Ti  Ti9  1  0.32440449  0.33202341  0.98319455  1
  Ti  Ti10  1  0.83257940  0.32294074  0.97371914  1
  Ti  Ti11  1  0.33566583  0.34956119  0.47584754  1
  Ti  Ti12  1  0.83064838  0.32911680  0.47151657  1
  Ti  Ti13  1  0.16025230  0.65458474  0.01795749  1
  Ti  Ti14  1  0.65738994  0.67177125  0.02047422  1
  Ti  Ti15  1  0.16112028  0.65599565  0.51638591  1
  Ti  Ti16  1  0.66629704  0.67019226  0.51219431  1
  Ti  Ti17  1  0.16248728  0.66062552  0.31536212  1
  Ti  Ti18  1  0.66762814  0.66228602  0.31589125  1
  Ti  Ti19  1  0.17102750  0.67242370  0.81569969  1
  Ti  Ti20  1  0.67018127  0.68074059  0.80787680  1
  Zn  Zn0  1  0.33296216  0.33744760  0.68949392  1
  Zn  Zn1  1  0.82722367  0.32939168  0.68519641  1
  Zn  Zn2  1  0.83400206  0.33804239  0.18418616  1
  Si  Si0  1  0.14888082  0.00519690  0.25260933  1
  Si  Si1  1  0.85436240  0.71531393  0.24958391  1
  Si  Si2  1  0.49757050  0.28988609  0.24988880  1
  Si  Si3  1  0.14610704  0.29630133  0.75016512  1
  Si  Si4  1  0.64784458  0.29582146  0.75093579  1
  Si  Si5  1  0.49699639  0.70943812  0.75030856  1
  Si  Si6  1  0.35458140  0.99164246  0.75221253  1
  Si  Si7  1  0.85820349  0.99964326  0.75211918  1
  Si  Si8  1  0.47417321  0.62006136  0.08356757  1
  Si  Si9  1  0.18568999  0.33459283  0.08579077  1
  Si  Si10  1  0.02265572  0.38104173  0.91530657  1
  Si  Si11  1  0.16820381  0.95801189  0.91763322  1
  Si  Si12  1  0.66198921  0.95370441  0.91553092  1
  Si  Si13  1  0.81158505  0.95110827  0.41495652  1
  Si  Si14  1  0.16543227  0.37520651  0.41523559  1
  Si  Si15  1  0.66569377  0.38042187  0.41697788  1
  Si  Si16  1  0.02176974  0.66388371  0.41746147  1
  Si  Si17  1  0.52381106  0.66998751  0.41442243  1
  S  S0  1  0.64188576  0.99576211  0.24968557  1
  S  S1  1  0.35664564  0.71542275  0.25050756  1
  S  S2  1  0.00050146  0.28542587  0.25042209  1
  S  S3  1  0.99927026  0.71556271  0.75043810  1
  S  S4  1  0.47963809  0.33375450  0.58277830  1
  S  S5  1  0.97936451  0.33451331  0.58353424  1
  S  S6  1  0.18722418  0.03932636  0.58282632  1
  S  S7  1  0.68639604  0.03872739  0.58265187  1
  S  S8  1  0.33354014  0.62715066  0.58258615  1
  S  S9  1  0.83357184  0.62476278  0.58301893  1
  S  S10  1  0.97829829  0.62336449  0.08258576  1
  S  S11  1  0.33320400  0.04500452  0.08371665  1
  S  S12  1  0.83281595  0.04315775  0.08269750  1
  S  S13  1  0.68802063  0.33482966  0.08246842  1
  S  S14  1  0.31162823  0.66839024  0.91793713  1
  S  S15  1  0.80939951  0.66550473  0.91819999  1
  S  S16  1  0.52169032  0.37878045  0.91697791  1
  S  S17  1  0.30945124  0.95419022  0.41736285  1
  O  O0  1  0.09924887  0.03057250  0.30907210  1
  O  O1  1  0.60062402  0.02512782  0.30296278  1
  O  O2  1  0.40957821  0.79514074  0.30428558  1
  O  O3  1  0.92095582  0.80959332  0.30596953  1
  O  O4  1  0.48712390  0.16000051  0.30689439  1
  O  O5  1  0.98885530  0.18391476  0.30434629  1
  O  O6  1  0.09749325  0.16577887  0.80787314  1
  O  O7  1  0.59964402  0.16336582  0.80768091  1
  O  O8  1  0.48658643  0.80609285  0.80909527  1
  O  O9  1  0.98744166  0.79473469  0.80431670  1
  O  O10  1  0.41873690  0.02713171  0.80946968  1
  O  O11  1  0.92089552  0.02470156  0.80832505  1
  O  O12  1  0.40143289  0.96016026  0.69259431  1
  O  O13  1  0.90179400  0.96529992  0.69114720  1
  O  O14  1  0.07779067  0.19146497  0.69277085  1
  O  O15  1  0.58114245  0.20462747  0.69271027  1
  O  O16  1  0.01454339  0.82622065  0.69608056  1
  O  O17  1  0.52194472  0.84408483  0.69271434  1
  O  O18  1  0.39912456  0.82254790  0.19596198  1
  O  O19  1  0.90453038  0.83766769  0.19007050  1
  O  O20  1  0.01501173  0.20851975  0.19580281  1
  O  O21  1  0.51288497  0.18342934  0.19287507  1
  O  O22  1  0.08181321  0.96101753  0.19379630  1
  O  O23  1  0.58831441  0.97414265  0.19482465  1
  O  O24  1  0.44197685  0.35799314  0.63824000  1
  O  O25  1  0.94449794  0.36262405  0.63938040  1
  O  O26  1  0.23749869  0.11206852  0.63834076  1
  O  O27  1  0.73625317  0.11024811  0.63867073  1
  O  O28  1  0.31738359  0.52012093  0.63597270  1
  O  O29  1  0.82140820  0.52251631  0.63789355  1
  O  O30  1  0.43174818  0.49762559  0.14201996  1
  O  O31  1  0.94387646  0.52408667  0.13856303  1
  O  O32  1  0.31970758  0.12416929  0.13758574  1
  O  O33  1  0.81644499  0.11767795  0.13655389  1
  O  O34  1  0.25117583  0.36090826  0.14123996  1
  O  O35  1  0.73685413  0.36131748  0.13860419  1
  O  O36  1  0.23244684  0.30118103  0.02618857  1
  O  O37  1  0.73184823  0.30756373  0.03081018  1
  O  O38  1  0.41474822  0.52495874  0.02454090  1
  O  O39  1  0.92220308  0.53311493  0.03064938  1
  O  O40  1  0.34916084  0.15421726  0.02974783  1
  O  O41  1  0.84363075  0.15599310  0.02924871  1
  O  O42  1  0.23088233  0.15170782  0.53029514  1
  O  O43  1  0.73265388  0.15252390  0.53090824  1
  O  O44  1  0.34435243  0.53695396  0.52874799  1
  O  O45  1  0.84561491  0.53860952  0.52997970  1
  O  O46  1  0.42288914  0.31222528  0.53028462  1
  O  O47  1  0.92486214  0.31162260  0.53118056  1
  O  O48  1  0.26886265  0.68992923  0.97130079  1
  O  O49  1  0.76735857  0.68899390  0.97158276  1
  O  O50  1  0.08374013  0.46955788  0.97426117  1
  O  O51  1  0.57890846  0.46658689  0.97057538  1
  O  O52  1  0.15682294  0.83037252  0.97454891  1
  O  O53  1  0.65312305  0.83103923  0.97385840  1
  O  O54  1  0.26951374  0.84549901  0.47101073  1
  O  O55  1  0.76452595  0.82979985  0.47419893  1
  O  O56  1  0.15646330  0.48025140  0.47371360  1
  O  O57  1  0.64859683  0.46803160  0.47506921  1
  O  O58  1  0.08572597  0.69438323  0.47469846  1
  O  O59  1  0.58348280  0.70279933  0.47422071  1
  O  O60  1  0.06778975  0.63401656  0.35780961  1
  O  O61  1  0.56653022  0.62897372  0.35718161  1
  O  O62  1  0.25594989  0.87672026  0.36304014  1
  O  O63  1  0.74689712  0.86388319  0.35775317  1
  O  O64  1  0.18586218  0.50882650  0.35831635  1
  O  O65  1  0.68440549  0.49350672  0.35597138  1
  O  O66  1  0.06574923  0.49815994  0.85582662  1
  O  O67  1  0.56326756  0.48457815  0.86270809  1
  O  O68  1  0.18265804  0.86529421  0.85719571  1
  O  O69  1  0.68233263  0.86745483  0.85766104  1
  O  O70  1  0.25662533  0.63868474  0.86335780  1
  O  O71  1  0.75550913  0.63292943  0.86384970  1
  O  O72  1  0.01422028  0.83847441  0.41296982  1
  O  O73  1  0.50669087  0.83507030  0.40523874  1
  O  O74  1  0.39741070  0.97005168  0.41127024  1
  O  O75  1  0.90841278  0.97790603  0.40753580  1
  O  O76  1  0.07910725  0.18787820  0.40961822  1
  O  O77  1  0.57923441  0.18259981  0.40919228  1
  O  O78  1  0.00953558  0.18390038  0.91196423  1
  O  O79  1  0.51387991  0.20259029  0.91404320  1
  O  O80  1  0.07839917  0.96803767  0.90991874  1
  O  O81  1  0.57659876  0.97621859  0.91314100  1
  O  O82  1  0.39832507  0.82688088  0.91267164  1
  O  O83  1  0.89814044  0.81926015  0.91197429  1
  O  O84  1  0.48728932  0.17035215  0.58534190  1
  O  O85  1  0.98920315  0.17288319  0.58730627  1
  O  O86  1  0.09720897  0.01784365  0.58774736  1
  O  O87  1  0.59815793  0.02423832  0.58584817  1
  O  O88  1  0.41424271  0.80225753  0.58537397  1
  O  O89  1  0.91550572  0.80396433  0.58788099  1
  O  O90  1  0.48900458  0.81982663  0.09348344  1
  O  O91  1  0.98613116  0.80128147  0.08606198  1
  O  O92  1  0.41371922  0.02560332  0.09018396  1
  O  O93  1  0.91260709  0.02843249  0.08635056  1
  O  O94  1  0.08803225  0.16020649  0.09270258  1
  O  O95  1  0.59852582  0.17249214  0.08727920  1
  O  O96  1  0.34445750  0.16246201  0.74553210  1
  O  O97  1  0.84970814  0.17382599  0.74545440  1
  O  O98  1  0.23677491  0.30093830  0.74498024  1
  O  O99  1  0.74085060  0.30708423  0.74635034  1
  O  O100  1  0.41797464  0.51450254  0.74631156  1
  O  O101  1  0.92431560  0.53610733  0.74389524  1
  O  O102  1  0.34747491  0.53788908  0.24479751  1
  O  O103  1  0.84475783  0.51794622  0.24520855  1
  O  O104  1  0.41051446  0.30528899  0.24264846  1
  O  O105  1  0.92429631  0.31400336  0.24416773  1
  O  O106  1  0.24340739  0.17625151  0.24151990  1
  O  O107  1  0.72934861  0.15716608  0.24440632  1
  O  O108  1  0.31971688  0.50695541  0.92214039  1
  O  O109  1  0.81853405  0.50343794  0.92597895  1
  O  O110  1  0.43464306  0.36335523  0.92385102  1
  O  O111  1  0.92548270  0.36298723  0.92696398  1
  O  O112  1  0.25658051  0.15253182  0.92546458  1
  O  O113  1  0.75116552  0.14860137  0.92737073  1
  O  O114  1  0.31993575  0.13250675  0.42461576  1
  O  O115  1  0.81975061  0.14493319  0.42773335  1
  O  O116  1  0.25359326  0.35686822  0.42769374  1
  O  O117  1  0.75084763  0.35426288  0.42644293  1
  O  O118  1  0.42607990  0.49166286  0.42779371  1
  O  O119  1  0.92642193  0.48983338  0.42640011  1
  O  O120  1  0.18020976  0.51460923  0.07618845  1
  O  O121  1  0.67752923  0.49158891  0.07388733  1
  O  O122  1  0.06827046  0.64686781  0.07609661  1
  O  O123  1  0.57393770  0.64179407  0.07457943  1
  O  O124  1  0.25602050  0.86695772  0.07727080  1
  O  O125  1  0.75417057  0.86267030  0.07412411  1
  O  O126  1  0.17824786  0.86006770  0.57525724  1
  O  O127  1  0.67636169  0.85925960  0.57660316  1
  O  O128  1  0.25525200  0.65076566  0.57404585  1
  O  O129  1  0.75522378  0.64757827  0.57742109  1
  O  O130  1  0.07046371  0.49257353  0.57692622  1
  O  O131  1  0.56883929  0.49195078  0.57659473  1
  O  O132  1  0.15366127  0.82053078  0.25845283  1
  O  O133  1  0.64896904  0.83662781  0.25374648  1
  O  O134  1  0.26859857  0.69934225  0.25451868  1
  O  O135  1  0.75679236  0.69302546  0.25419000  1
  O  O136  1  0.08168114  0.46959410  0.25449303  1
  O  O137  1  0.58828392  0.47722367  0.25443760  1
  O  O138  1  0.14571410  0.48067111  0.75577543  1
  O  O139  1  0.64801389  0.48002586  0.76041173  1
  O  O140  1  0.08203994  0.70249952  0.75361323  1
  O  O141  1  0.58864341  0.69907039  0.75848043  1
  O  O142  1  0.25564185  0.81738973  0.75725434  1
  O  O143  1  0.75999000  0.82546771  0.75613647  1
loop_
_geom_bond_atom_site_label_1
_geom_bond_atom_site_label_2
_geom_bond_distance
_geom_bond_site_symmetry_2
Na0 O137 2.306755 1_555
Na0 O107 2.383694 1_555
Na0 O135 2.412337 1_555
Na0 O103 2.412985 1_555
Na0 O65 2.590843 1_555
Na0 O35 2.690167 1_555
Na0 O1 2.911628 1_555
Na0 O21 2.951991 1_555
Na1 O103 2.335514 1_555
Na1 O132 2.401791 1_655
Na1 O105 2.487371 1_555
Na1 O136 2.586333 1_655
Na1 O31 2.696235 1_555
Na1 O60 2.725815 1_655
Na1 O3 2.741178 1_555
Na1 O22 2.745856 1_655
Na2 O138 2.279995 1_655
Na2 O97 2.281915 1_555
Na2 O101 2.423051 1_555
Na2 O140 2.570107 1_655
Na2 O66 2.627409 1_655
Na2 O25 2.680146 1_555
Na2 O14 2.858105 1_655
Na2 O11 2.876832 1_555
Na3 O96 2.318844 1_555
Na3 O100 2.321005 1_555
Na3 O139 2.379550 1_555
Na3 O141 2.582201 1_555
Na3 O24 2.639123 1_555
Na3 O67 2.807866 1_555
Na3 O15 2.811671 1_555
Na3 O10 2.880485 1_555
Na4 O98 2.254908 1_555
Na4 O96 2.350389 1_555
Na4 O140 2.403816 1_545
Na4 O142 2.475539 1_545
Na4 O26 2.667232 1_555
Na4 O68 2.678939 1_545
Na4 O6 2.896390 1_555
Na4 O16 2.944530 1_545
Na5 O99 2.297846 1_555
Na5 O141 2.381244 1_545
Na5 O97 2.496720 1_555
Na5 O143 2.519504 1_545
Na5 O27 2.623543 1_555
Na5 O69 2.728292 1_545
Na5 O17 2.791476 1_545
Na5 O7 2.826726 1_555
Na6 O72 2.418215 1_655
Na6 O76 2.470461 1_665
Na6 O75 2.472291 1_555
Na6 O85 2.625595 1_565
Na6 O89 2.625850 1_555
Na6 O86 2.657002 1_665
Na7 O87 2.478734 1_555
Na7 O84 2.522561 1_555
Na7 O88 2.528012 1_545
Na7 O77 2.531323 1_555
Na7 O73 2.599868 1_545
Na7 O74 2.652703 1_545
Na8 O78 2.480406 1_555
Na8 O80 2.506429 1_545
Na8 O94 2.522701 1_556
Na8 O91 2.553474 1_446
Na8 O93 2.605255 1_456
Na8 O83 2.644647 1_445
Na9 O81 2.379375 1_555
Na9 O82 2.537485 1_555
Na9 O79 2.543222 1_565
Na9 O90 2.586818 1_556
Na9 O95 2.590478 1_566
Na9 O92 2.668829 1_566
Na10 O100 2.410458 1_555
Na10 O98 2.438591 1_555
Na10 O96 2.499326 1_555
Na10 O112 2.631038 1_555
Na10 O108 2.638216 1_555
Na10 O110 2.718435 1_555
Na11 O99 2.365651 1_555
Na11 O97 2.492368 1_555
Na11 O101 2.574960 1_555
Na11 O113 2.677834 1_555
Na11 O109 2.679115 1_555
Na11 O111 2.694127 1_555
Na12 O104 2.448461 1_555
Na12 O106 2.467710 1_555
Na12 O102 2.552534 1_555
Na12 O114 2.686786 1_555
Na12 O118 2.687761 1_555
Na12 O116 2.687932 1_555
Na13 O103 2.522715 1_555
Na13 O119 2.585024 1_555
Na13 O115 2.598219 1_555
Na13 O117 2.607497 1_555
Na13 O105 2.619203 1_555
Na13 O107 2.623699 1_555
Na14 O120 2.450954 1_555
Na14 O134 2.547729 1_555
Na14 O124 2.551089 1_555
Na14 O132 2.594799 1_555
Na14 O136 2.619112 1_555
Na14 O122 2.651076 1_555
Na15 O135 2.421397 1_555
Na15 O137 2.444813 1_555
Na15 O133 2.487507 1_555
Na15 O123 2.613046 1_555
Na15 O125 2.706105 1_555
Na15 O121 2.734887 1_555
Na16 O142 2.443822 1_555
Na16 O138 2.463652 1_555
Na16 O128 2.566417 1_555
Na16 O126 2.644658 1_555
Na16 O130 2.647544 1_555
Na16 O140 2.657223 1_555
Na17 O129 2.497768 1_555
Na17 O143 2.561662 1_555
Na17 O131 2.567535 1_555
Na17 O127 2.572212 1_555
Na17 O139 2.605706 1_555
Na17 O141 2.669772 1_555
O0 Si0 1.617520 1_555
O0 Ti0 1.910057 1_545
O1 S0 1.487845 1_545
O1 Ti1 2.075277 1_555
O2 S1 1.470198 1_555
O2 Ti1 2.148683 1_565
O3 Si1 1.639517 1_555
O3 Ti0 1.886747 1_655
O4 Si2 1.660056 1_555
O4 Ti1 1.836103 1_555
O5 S2 1.454580 1_655
O5 Ti0 2.208388 1_645
O6 Si3 1.656142 1_555
O6 Ti2 1.805319 1_555
O7 Si4 1.645517 1_555
O7 Ti3 1.818228 1_555
O8 Si5 1.628255 1_555
O8 Ti3 1.805481 1_565
O9 S3 1.461148 1_555
O9 Ti2 2.192300 1_665
O10 Si6 1.633168 1_545
O10 Ti3 1.870060 1_555
O11 Si7 1.615421 1_545
O11 Ti2 1.896315 1_655
O12 Si6 1.666796 1_555
O12 Ti5 1.805739 1_565
O13 Si7 1.669496 1_555
O13 Ti4 1.785515 1_565
O14 Si3 1.686221 1_555
O14 Ti4 1.806780 1_455
O15 Si4 1.668771 1_555
O15 Ti5 1.835583 1_555
O16 S3 1.496843 1_455
O16 Ti4 2.047483 1_465
O17 Si5 1.654888 1_555
O17 Ti5 1.843262 1_565
O18 S1 1.496759 1_555
O18 Ti7 2.024241 1_565
O19 Si1 1.664544 1_555
O19 Ti6 1.846691 1_655
O20 S2 1.482539 1_555
O20 Ti6 2.076239 1_545
O21 Si2 1.683943 1_555
O21 Ti7 1.821353 1_555
O22 Si0 1.680467 1_565
O22 Ti6 1.797285 1_555
O23 S0 1.502869 1_555
O23 Ti7 2.017482 1_565
O24 S4 1.475991 1_555
O24 Zn0 2.165928 1_555
O25 S5 1.470821 1_555
O25 Zn1 2.190769 1_555
O26 S6 1.475554 1_555
O26 Zn0 2.173749 1_555
O27 S7 1.480949 1_555
O27 Zn1 2.066106 1_555
O28 S8 1.459437 1_555
O28 Zn0 2.123640 1_555
O29 S9 1.474387 1_555
O29 Zn1 2.041328 1_555
O30 Si8 1.622316 1_555
O30 Ti8 1.878289 1_555
O31 S10 1.475826 1_555
O31 Zn2 2.073171 1_555
O32 S11 1.472337 1_555
O32 Ti8 2.097179 1_555
O33 S12 1.470451 1_555
O33 Zn2 2.091311 1_555
O34 Si9 1.630637 1_555
O34 Ti8 1.869823 1_555
O35 S13 1.475741 1_555
O35 Zn2 2.084162 1_555
O36 Si9 1.672587 1_555
O36 Ti9 1.785077 1_554
O37 S13 1.477750 1_555
O37 Ti10 2.136795 1_554
O38 Si8 1.634480 1_555
O38 Ti9 1.886822 1_554
O39 S10 1.475716 1_555
O39 Ti10 2.146995 1_554
O40 S11 1.481065 1_555
O40 Ti9 2.092109 1_554
O41 S12 1.504742 1_555
O41 Ti10 2.002105 1_554
O42 S6 1.482112 1_555
O42 Ti11 2.170050 1_555
O43 S7 1.482303 1_555
O43 Ti12 2.117471 1_555
O44 S8 1.508307 1_555
O44 Ti11 1.970306 1_555
O45 S9 1.481700 1_555
O45 Ti12 2.163839 1_555
O46 S4 1.492823 1_555
O46 Ti11 2.107768 1_555
O47 S5 1.464526 1_555
O47 Ti12 2.191810 1_555
O48 S14 1.477203 1_555
O48 Ti13 2.062512 1_556
O49 S15 1.476854 1_555
O49 Ti14 2.163248 1_556
O50 Si10 1.635066 1_555
O50 Ti13 1.795036 1_556
O51 S16 1.509230 1_555
O51 Ti14 1.978350 1_556
O52 Si11 1.642559 1_555
O52 Ti13 1.847318 1_556
O53 Si12 1.650685 1_555
O53 Ti14 1.774133 1_556
O54 S17 1.477995 1_555
O54 Ti15 2.066643 1_555
O55 Si13 1.645384 1_555
O55 Ti16 1.804873 1_555
O56 Si14 1.656615 1_555
O56 Ti15 1.780865 1_555
O57 Si15 1.617083 1_555
O57 Ti16 1.838347 1_555
O58 Si16 1.637953 1_555
O58 Ti15 1.784265 1_555
O59 Si17 1.637342 1_555
O59 Ti16 1.826413 1_555
O60 Si16 1.653254 1_555
O60 Ti17 1.830563 1_555
O61 Si17 1.618332 1_555
O61 Ti18 1.894677 1_555
O62 S17 1.481267 1_555
O62 Ti17 2.079265 1_555
O63 Si13 1.630024 1_555
O63 Ti18 1.867405 1_555
O64 Si14 1.646660 1_555
O64 Ti17 1.845688 1_555
O65 Si15 1.624767 1_555
O65 Ti18 1.874093 1_555
O66 Si10 1.623523 1_555
O66 Ti19 1.936640 1_555
O67 S16 1.484361 1_555
O67 Ti20 2.186715 1_555
O68 Si11 1.666130 1_555
O68 Ti19 1.849831 1_555
O69 Si12 1.631269 1_555
O69 Ti20 1.903843 1_555
O70 S14 1.499996 1_555
O70 Ti19 1.982889 1_555
O71 S15 1.481626 1_555
O71 Ti20 2.149794 1_555
O72 Si16 1.602268 1_555
O72 Ti0 1.879701 1_555
O73 Si17 1.629668 1_555
O73 Ti1 1.919570 1_565
O74 S17 1.487833 1_555
O74 Ti1 2.079979 1_565
O75 Si13 1.606423 1_555
O75 Ti0 1.951809 1_655
O76 Si14 1.589280 1_555
O76 Ti0 1.983949 1_545
O77 Si15 1.647548 1_555
O77 Ti1 1.838282 1_555
O78 Si10 1.625578 1_555
O78 Ti2 1.867141 1_555
O79 S16 1.480813 1_555
O79 Ti3 2.239863 1_555
O80 Si11 1.632526 1_555
O80 Ti2 1.930208 1_565
O81 Si12 1.608726 1_555
O81 Ti3 1.987445 1_565
O82 S14 1.467148 1_555
O82 Ti3 2.240902 1_565
O83 S15 1.473191 1_555
O83 Ti2 2.246452 1_665
O84 S4 1.503549 1_555
O84 Ti5 2.205899 1_555
O85 S5 1.511366 1_555
O85 Ti4 2.064890 1_555
O86 S6 1.501132 1_555
O86 Ti4 2.213085 1_455
O87 S7 1.493182 1_555
O87 Ti5 2.242846 1_555
O88 S8 1.482333 1_555
O88 Ti5 2.261539 1_565
O89 S9 1.514511 1_555
O89 Ti4 2.146443 1_565
O90 Si8 1.650401 1_555
O90 Ti7 1.918542 1_565
O91 S10 1.496301 1_555
O91 Ti6 2.110145 1_655
O92 S11 1.513483 1_555
O92 Ti7 2.046585 1_555
O93 S12 1.472800 1_555
O93 Ti6 2.297680 1_645
O94 Si9 1.639396 1_555
O94 Ti6 1.943451 1_545
O95 S13 1.508696 1_555
O95 Ti7 2.095057 1_555
O96 Si6 1.598956 1_545
O96 Zn0 2.067890 1_555
O97 Si7 1.611791 1_545
O97 Zn1 2.091413 1_555
O98 Si3 1.577901 1_555
O98 Zn0 1.995025 1_555
O99 Si4 1.590967 1_555
O99 Zn1 1.984893 1_555
O100 Si5 1.576682 1_555
O100 Zn0 1.987806 1_555
O101 S3 1.470150 1_555
O101 Zn1 2.200582 1_555
O102 S1 1.486607 1_555
O102 Ti8 2.082043 1_555
O103 Si1 1.653737 1_555
O103 Zn2 2.025682 1_555
O104 Si2 1.609236 1_555
O104 Ti8 1.957237 1_555
O105 S2 1.486267 1_655
O105 Zn2 2.168188 1_555
O106 Si0 1.607439 1_555
O106 Ti8 1.948927 1_555
O107 S0 1.485771 1_545
O107 Zn2 2.195225 1_555
O108 S14 1.492565 1_555
O108 Ti9 2.086678 1_555
O109 S15 1.515610 1_555
O109 Ti10 2.023125 1_555
O110 S16 1.475313 1_555
O110 Ti9 2.254553 1_555
O111 Si10 1.655771 1_655
O111 Ti10 1.823566 1_555
O112 Si11 1.644831 1_545
O112 Ti9 1.924264 1_555
O113 Si12 1.664673 1_545
O113 Ti10 1.811300 1_555
O114 S17 1.487435 1_545
O114 Ti11 2.119766 1_555
O115 Si13 1.655918 1_545
O115 Ti12 1.816657 1_555
O116 Si14 1.658446 1_555
O116 Ti11 1.827473 1_555
O117 Si15 1.636240 1_555
O117 Ti12 1.828049 1_555
O118 Si17 1.674518 1_555
O118 Ti11 1.807996 1_555
O119 Si16 1.619885 1_655
O119 Ti12 1.865593 1_555
O120 Si9 1.640565 1_555
O120 Ti13 1.938857 1_555
O121 S13 1.485692 1_555
O121 Ti14 2.145899 1_555
O122 S10 1.496472 1_455
O122 Ti13 2.054507 1_555
O123 Si8 1.678910 1_555
O123 Ti14 1.821554 1_555
O124 S11 1.477181 1_565
O124 Ti13 2.222886 1_555
O125 S12 1.505372 1_565
O125 Ti14 2.073689 1_555
O126 S6 1.507190 1_565
O126 Ti15 2.121393 1_555
O127 S7 1.497862 1_565
O127 Ti16 2.139629 1_555
O128 S8 1.501587 1_555
O128 Ti15 2.117194 1_555
O129 S9 1.491581 1_555
O129 Ti16 2.219562 1_555
O130 S5 1.513556 1_455
O130 Ti15 2.040647 1_555
O131 S4 1.493279 1_555
O131 Ti16 2.190667 1_555
O132 Si0 1.665657 1_565
O132 Ti17 1.957085 1_555
O133 S0 1.462362 1_555
O133 Ti18 2.208840 1_555
O134 S1 1.484892 1_555
O134 Ti17 2.199340 1_555
O135 Si1 1.629485 1_555
O135 Ti18 2.008590 1_555
O136 S2 1.532807 1_555
O136 Ti17 2.076684 1_555
O137 Si2 1.623022 1_555
O137 Ti18 2.054199 1_555
O138 Si3 1.623066 1_555
O138 Ti19 2.021676 1_555
O139 Si4 1.625876 1_555
O139 Ti20 1.922947 1_555
O140 S3 1.516288 1_455
O140 Ti19 2.204683 1_555
O141 Si5 1.667371 1_555
O141 Ti20 1.879477 1_555
O142 Si6 1.648695 1_555
O142 Ti19 1.914712 1_555
O143 Si7 1.639440 1_555
O143 Ti20 1.858935 1_555
