# generated using pymatgen
data_Ba3NaIr2O9
_symmetry_space_group_name_H-M   'P 1'
_cell_length_a   5.96074893
_cell_length_b   5.96074893
_cell_length_c   14.87373521
_cell_angle_alpha   88.89565700
_cell_angle_beta   88.89565700
_cell_angle_gamma   119.77794665
_symmetry_Int_Tables_number   1
_chemical_formula_structural   Ba3NaIr2O9
_chemical_formula_sum   'Ba6 Na2 Ir4 O18'
_cell_volume   458.35188974
_cell_formula_units_Z   2
loop_
 _symmetry_equiv_pos_site_id
 _symmetry_equiv_pos_as_xyz
  1  'x, y, z'
loop_
 _atom_site_type_symbol
 _atom_site_label
 _atom_site_symmetry_multiplicity
 _atom_site_fract_x
 _atom_site_fract_y
 _atom_site_fract_z
 _atom_site_occupancy
  Ba  Ba0  1  0.32804400  0.66001000  0.58474800  1
  Ba  Ba1  1  0.99857500  0.00142500  0.75000000  1
  Ba  Ba2  1  0.33999000  0.67195600  0.91525200  1
  Ba  Ba3  1  0.67195600  0.33999000  0.41525200  1
  Ba  Ba4  1  0.00142500  0.99857500  0.25000000  1
  Ba  Ba5  1  0.66001000  0.32804400  0.08474800  1
  Na  Na0  1  0.00000000  0.00000000  0.00000000  1
  Na  Na1  1  0.00000000  0.00000000  0.50000000  1
  Ir  Ir0  1  0.68415000  0.34771200  0.84255000  1
  Ir  Ir1  1  0.34771200  0.68415000  0.34255000  1
  Ir  Ir2  1  0.31585000  0.65228800  0.15745000  1
  Ir  Ir3  1  0.65228800  0.31585000  0.65745000  1
  O  O0  1  0.14616800  0.32996000  0.09794400  1
  O  O1  1  0.67004000  0.85383200  0.40205600  1
  O  O2  1  0.85383200  0.67004000  0.90205600  1
  O  O3  1  0.32996000  0.14616800  0.59794400  1
  O  O4  1  0.79412500  0.14277700  0.59073700  1
  O  O5  1  0.85722300  0.20587500  0.90926300  1
  O  O6  1  0.20587500  0.85722300  0.40926300  1
  O  O7  1  0.14277700  0.79412500  0.09073700  1
  O  O8  1  0.79442500  0.61055800  0.57690300  1
  O  O9  1  0.38944200  0.20557500  0.92309700  1
  O  O10  1  0.20557500  0.38944200  0.42309700  1
  O  O11  1  0.61055800  0.79442500  0.07690300  1
  O  O12  1  0.03584900  0.51920700  0.26039200  1
  O  O13  1  0.48079300  0.96415100  0.23960800  1
  O  O14  1  0.96415100  0.48079300  0.73960800  1
  O  O15  1  0.51920700  0.03584900  0.76039200  1
  O  O16  1  0.48128200  0.51871800  0.25000000  1
  O  O17  1  0.51871800  0.48128200  0.75000000  1
loop_
_geom_bond_atom_site_label_1
_geom_bond_atom_site_label_2
_geom_bond_distance
_geom_bond_site_symmetry_2
Ba0 O10 2.821809 1_555
Ba0 O4 2.843527 1_565
Ba0 O3 2.902657 1_565
Ba0 O14 2.926171 1_455
Ba0 O8 2.937953 1_555
Ba0 O8 3.049939 1_455
Ba0 O3 3.071086 1_555
Ba0 O6 3.087101 1_555
Ba0 O17 3.110874 1_555
Ba0 O4 3.142353 1_455
Ba0 O1 3.193800 1_555
Ba0 O15 3.308638 1_565
Ba1 O2 2.796607 1_545
Ba1 O3 2.796607 1_655
Ba1 O15 2.966018 1_555
Ba1 O14 2.966018 1_555
Ba1 O5 2.976696 1_555
Ba1 O4 2.976696 1_555
Ba1 O17 2.997578 1_545
Ba1 O17 2.997578 1_655
Ba1 O15 3.013971 1_655
Ba1 O14 3.013971 1_545
Ba1 O8 3.327684 1_545
Ba1 O9 3.327684 1_655
Ba2 O11 2.821809 1_556
Ba2 O5 2.843527 1_455
Ba2 O2 2.902657 1_455
Ba2 O15 2.926171 1_565
Ba2 O9 2.937953 1_555
Ba2 O9 3.049939 1_565
Ba2 O2 3.071086 1_555
Ba2 O7 3.087101 1_556
Ba2 O17 3.110874 1_555
Ba2 O5 3.142353 1_565
Ba2 O0 3.193800 1_556
Ba2 O14 3.308638 1_455
Ba3 O8 2.821809 1_555
Ba3 O6 2.843527 1_545
Ba3 O1 2.902657 1_545
Ba3 O12 2.926171 1_655
Ba3 O10 2.937953 1_555
Ba3 O10 3.049939 1_655
Ba3 O1 3.071086 1_555
Ba3 O4 3.087101 1_555
Ba3 O16 3.110874 1_555
Ba3 O6 3.142353 1_655
Ba3 O3 3.193800 1_555
Ba3 O13 3.308638 1_545
Ba4 O0 2.796607 1_565
Ba4 O1 2.796607 1_455
Ba4 O12 2.966018 1_555
Ba4 O13 2.966018 1_555
Ba4 O6 2.976696 1_555
Ba4 O7 2.976696 1_555
Ba4 O16 2.997578 1_565
Ba4 O16 2.997578 1_455
Ba4 O13 3.013971 1_455
Ba4 O12 3.013971 1_565
Ba4 O11 3.327684 1_455
Ba4 O10 3.327684 1_565
Ba5 O9 2.821809 1_554
Ba5 O7 2.843527 1_655
Ba5 O0 2.902657 1_655
Ba5 O13 2.926171 1_545
Ba5 O11 2.937953 1_555
Ba5 O11 3.049939 1_545
Ba5 O0 3.071086 1_555
Ba5 O5 3.087101 1_554
Ba5 O16 3.110874 1_555
Ba5 O7 3.142353 1_545
Ba5 O2 3.193800 1_554
Ba5 O12 3.308638 1_655
Na0 O5 2.251547 1_454
Na0 O7 2.251547 1_545
Na0 O0 2.281876 1_555
Na0 O2 2.281876 1_444
Na0 O11 2.284039 1_445
Na0 O9 2.284039 1_554
Na1 O4 2.251547 1_455
Na1 O6 2.251547 1_545
Na1 O1 2.281876 1_445
Na1 O3 2.281876 1_555
Na1 O10 2.284039 1_555
Na1 O8 2.284039 1_445
Ir0 O5 1.907133 1_555
Ir0 O9 1.907997 1_555
Ir0 O2 1.915110 1_555
Ir0 O15 2.057681 1_555
Ir0 O17 2.071504 1_555
Ir0 O14 2.073367 1_555
Ir1 O6 1.907133 1_555
Ir1 O10 1.907997 1_555
Ir1 O1 1.915110 1_555
Ir1 O12 2.057681 1_555
Ir1 O16 2.071504 1_555
Ir1 O13 2.073367 1_555
Ir2 O7 1.907133 1_555
Ir2 O11 1.907997 1_555
Ir2 O0 1.915110 1_555
Ir2 O13 2.057681 1_555
Ir2 O16 2.071504 1_555
Ir2 O12 2.073367 1_555
Ir3 O4 1.907133 1_555
Ir3 O8 1.907997 1_555
Ir3 O3 1.915110 1_555
Ir3 O14 2.057681 1_555
Ir3 O17 2.071504 1_555
Ir3 O15 2.073367 1_555
