# generated using pymatgen
data_TiSe2
_symmetry_space_group_name_H-M   'P 1'
_cell_length_a   3.55656645
_cell_length_b   3.55656742
_cell_length_c   6.34762586
_cell_angle_alpha   90.00000000
_cell_angle_beta   90.00000000
_cell_angle_gamma   120.00000093
_symmetry_Int_Tables_number   1
_chemical_formula_structural   TiSe2
_chemical_formula_sum   'Ti1 Se2'
_cell_volume   69.53507402
_cell_formula_units_Z   1
loop_
 _symmetry_equiv_pos_site_id
 _symmetry_equiv_pos_as_xyz
  1  'x, y, z'
loop_
 _atom_site_type_symbol
 _atom_site_label
 _atom_site_symmetry_multiplicity
 _atom_site_fract_x
 _atom_site_fract_y
 _atom_site_fract_z
 _atom_site_occupancy
  Ti  Ti0  1  -0.00000000  -0.00000000  -0.00000000  1
  Se  Se0  1  0.33333300  0.66666700  0.23992784  1
  Se  Se1  1  0.66666700  0.33333300  0.76007216  1
loop_
_geom_bond_atom_site_label_1
_geom_bond_atom_site_label_2
_geom_bond_distance
_geom_bond_site_symmetry_2
Se0 Ti0 2.556526 1_565
Se0 Ti0 2.556528 1_665
Se0 Ti0 2.556529 1_555
Se1 Ti0 2.556526 1_656
Se1 Ti0 2.556528 1_556
Se1 Ti0 2.556529 1_666
