# generated using pymatgen
data_Na6CaNb5Si6(PO12)3
_symmetry_space_group_name_H-M   'P 1'
_cell_length_a   9.02994431
_cell_length_b   9.02994400
_cell_length_c   22.80873211
_cell_angle_alpha   89.96376267
_cell_angle_beta   90.03623732
_cell_angle_gamma   120.03663857
_symmetry_Int_Tables_number   1
_chemical_formula_structural   Na6CaNb5Si6(PO12)3
_chemical_formula_sum   'Na12 Ca2 Nb10 Si12 P6 O72'
_cell_volume   1610.05729750
_cell_formula_units_Z   2
loop_
 _symmetry_equiv_pos_site_id
 _symmetry_equiv_pos_as_xyz
  1  'x, y, z'
loop_
 _atom_site_type_symbol
 _atom_site_label
 _atom_site_symmetry_multiplicity
 _atom_site_fract_x
 _atom_site_fract_y
 _atom_site_fract_z
 _atom_site_occupancy
  Na  Na0  1  0.37791385  0.37058462  0.24222296  1
  Na  Na1  1  0.98625268  0.61807791  0.24350984  1
  Na  Na2  1  0.62941538  0.62208615  0.74222296  1
  Na  Na3  1  0.38192209  0.01374732  0.74350984  1
  Na  Na4  1  0.65836855  0.97551626  0.58529580  1
  Na  Na5  1  0.02448374  0.34163145  0.08529580  1
  Na  Na6  1  0.01080715  0.99933069  0.49919235  1
  Na  Na7  1  0.00066931  0.98919285  0.99919235  1
  Na  Na8  1  0.67921920  0.32828745  0.83248726  1
  Na  Na9  1  0.67171255  0.32078080  0.33248726  1
  Na  Na10  1  0.35163193  0.68450577  0.16342026  1
  Na  Na11  1  0.31549423  0.64836807  0.66342026  1
  Ca  Ca0  1  0.67372354  0.33360085  0.68413892  1
  Ca  Ca1  1  0.66639915  0.32627646  0.18413892  1
  Nb  Nb0  1  0.99671560  0.00376154  0.35882459  1
  Nb  Nb1  1  0.99623846  0.00328440  0.85882459  1
  Nb  Nb2  1  0.99856411  0.99766766  0.64349822  1
  Nb  Nb3  1  0.00233234  0.00143589  0.14349822  1
  Nb  Nb4  1  0.66333819  0.33829486  0.97894996  1
  Nb  Nb5  1  0.66170514  0.33666181  0.47894996  1
  Nb  Nb6  1  0.33310670  0.66721572  0.01741897  1
  Nb  Nb7  1  0.33278428  0.66689330  0.51741897  1
  Nb  Nb8  1  0.33298769  0.66618877  0.31505851  1
  Nb  Nb9  1  0.33381123  0.66701231  0.81505851  1
  Si  Si0  1  0.00245599  0.29063080  0.25172711  1
  Si  Si1  1  0.70936920  0.99754401  0.75172711  1
  Si  Si2  1  0.37149435  0.03767739  0.58439647  1
  Si  Si3  1  0.66211180  0.62458462  0.58545357  1
  Si  Si4  1  0.96232261  0.62850565  0.08439647  1
  Si  Si5  1  0.37541538  0.33788820  0.08545357  1
  Si  Si6  1  0.62208159  0.66433997  0.91604999  1
  Si  Si7  1  0.04005933  0.37871351  0.91683656  1
  Si  Si8  1  0.33643554  0.95911265  0.91571247  1
  Si  Si9  1  0.62128649  0.95994067  0.41683656  1
  Si  Si10  1  0.33566003  0.37791841  0.41604999  1
  Si  Si11  1  0.04088735  0.66356446  0.41571247  1
  P  P0  1  0.27909965  0.99294221  0.25257698  1
  P  P1  1  0.71179513  0.72238039  0.25195713  1
  P  P2  1  0.27761961  0.28820487  0.75195713  1
  P  P3  1  0.00705779  0.72090035  0.75257698  1
  P  P4  1  0.96423723  0.33640184  0.58196724  1
  P  P5  1  0.66359816  0.03576277  0.08196724  1
  O  O0  1  0.17929394  0.00121681  0.30602336  1
  O  O1  1  0.82278100  0.81504313  0.30598117  1
  O  O2  1  0.99700042  0.17021466  0.30698980  1
  O  O3  1  0.18495687  0.17721900  0.80598117  1
  O  O4  1  0.99878319  0.82070606  0.80602336  1
  O  O5  1  0.82978534  0.00299958  0.80698980  1
  O  O6  1  0.80426255  0.97402638  0.69221552  1
  O  O7  1  0.17069249  0.19600446  0.69602463  1
  O  O8  1  0.03016051  0.83287374  0.69600884  1
  O  O9  1  0.80399554  0.82930751  0.19602463  1
  O  O10  1  0.02597362  0.19573745  0.19221552  1
  O  O11  1  0.16712626  0.96983949  0.19600884  1
  O  O12  1  0.90375905  0.37226720  0.63857709  1
  O  O13  1  0.47838128  0.08684193  0.64396311  1
  O  O14  1  0.62653481  0.53423237  0.64728167  1
  O  O15  1  0.91315807  0.52161872  0.14396311  1
  O  O16  1  0.62773280  0.09624095  0.13857709  1
  O  O17  1  0.46576763  0.37346519  0.14728167  1
  O  O18  1  0.47505015  0.30693102  0.02956613  1
  O  O19  1  0.83282502  0.52253780  0.02885292  1
  O  O20  1  0.70059119  0.15928357  0.02928865  1
  O  O21  1  0.47746220  0.16717498  0.52885292  1
  O  O22  1  0.69306898  0.52494985  0.52956613  1
  O  O23  1  0.84071643  0.29940881  0.52928865  1
  O  O24  1  0.52693741  0.69194731  0.97119826  1
  O  O25  1  0.15944427  0.46643369  0.97411978  1
  O  O26  1  0.30681025  0.83281227  0.97054622  1
  O  O27  1  0.53356631  0.84055573  0.47411978  1
  O  O28  1  0.30805269  0.47306259  0.47119826  1
  O  O29  1  0.16718773  0.69318975  0.47054622  1
  O  O30  1  0.13481760  0.63737684  0.35688212  1
  O  O31  1  0.49867906  0.85972896  0.35972144  1
  O  O32  1  0.36145973  0.49563982  0.35710012  1
  O  O33  1  0.14027104  0.50132094  0.85972144  1
  O  O34  1  0.36262316  0.86518240  0.85688212  1
  O  O35  1  0.50436018  0.63854027  0.85710012  1
  O  O36  1  0.02116781  0.83224875  0.40770976  1
  O  O37  1  0.80945548  0.97592906  0.40894315  1
  O  O38  1  0.16848878  0.18713681  0.40944598  1
  O  O39  1  0.02407094  0.19054452  0.90894315  1
  O  O40  1  0.16775125  0.97883219  0.90770976  1
  O  O41  1  0.81286319  0.83151122  0.90944598  1
  O  O42  1  0.97400509  0.16589383  0.58816754  1
  O  O43  1  0.18282780  0.02493111  0.59042953  1
  O  O44  1  0.83695473  0.82253913  0.58933272  1
  O  O45  1  0.97506889  0.81717220  0.09042953  1
  O  O46  1  0.83410617  0.02599491  0.08816754  1
  O  O47  1  0.17746087  0.16304527  0.08933272  1
  O  O48  1  0.67642010  0.15440756  0.75573365  1
  O  O49  1  0.45581305  0.30859769  0.75093581  1
  O  O50  1  0.84537642  0.54933170  0.75147744  1
  O  O51  1  0.69140231  0.54418695  0.25093581  1
  O  O52  1  0.84559244  0.32357990  0.25573365  1
  O  O53  1  0.45066830  0.15462358  0.25147744  1
  O  O54  1  0.63945845  0.49357653  0.92371039  1
  O  O55  1  0.85163964  0.35709882  0.92454431  1
  O  O56  1  0.50669024  0.14513507  0.92506696  1
  O  O57  1  0.64290118  0.14836036  0.42454431  1
  O  O58  1  0.50642347  0.36054155  0.42371039  1
  O  O59  1  0.85486493  0.49330976  0.42506696  1
  O  O60  1  0.33585874  0.49427160  0.07145841  1
  O  O61  1  0.15436529  0.65801261  0.06938959  1
  O  O62  1  0.51386095  0.85281003  0.07017395  1
  O  O63  1  0.34198739  0.84563471  0.56938959  1
  O  O64  1  0.50572840  0.66414126  0.57145841  1
  O  O65  1  0.14718997  0.48613905  0.57017395  1
  O  O66  1  0.28920871  0.82529837  0.25506745  1
  O  O67  1  0.53182470  0.70623744  0.25539934  1
  O  O68  1  0.18618094  0.47885993  0.25531104  1
  O  O69  1  0.29376256  0.46817530  0.75539934  1
  O  O70  1  0.17470163  0.71079129  0.75506745  1
  O  O71  1  0.52114007  0.81381906  0.75531104  1
loop_
_geom_bond_atom_site_label_1
_geom_bond_atom_site_label_2
_geom_bond_distance
_geom_bond_site_symmetry_2
Na0 O17 2.302350 1_555
Na0 O53 2.358178 1_555
Na0 O68 2.395463 1_555
Na0 O51 2.463217 1_555
Na0 O67 2.644231 1_555
Na0 O32 2.887027 1_555
Na0 O10 2.977917 1_555
Na1 O52 2.319688 1_555
Na1 O15 2.403065 1_555
Na1 O51 2.405134 1_555
Na1 O66 2.435126 1_655
Na1 O68 2.680132 1_655
Na1 O30 2.877322 1_655
Na1 O11 2.955518 1_655
Na2 O14 2.302350 1_555
Na2 O50 2.358178 1_555
Na2 O71 2.395463 1_555
Na2 O49 2.463216 1_555
Na2 O69 2.644231 1_555
Na2 O35 2.887027 1_555
Na2 O6 2.977917 1_555
Na3 O48 2.319688 1_555
Na3 O13 2.403065 1_555
Na3 O49 2.405133 1_555
Na3 O70 2.435126 1_545
Na3 O71 2.680132 1_545
Na3 O34 2.877322 1_545
Na3 O8 2.955518 1_545
Na4 O64 2.454768 1_555
Na4 O42 2.485530 1_565
Na4 O63 2.512750 1_555
Na4 O44 2.597496 1_555
Na4 O13 2.661344 1_565
Na4 O6 2.774288 1_555
Na4 O27 2.794780 1_555
Na4 O23 2.841472 1_565
Na5 O60 2.454768 1_555
Na5 O46 2.485530 1_455
Na5 O61 2.512750 1_555
Na5 O47 2.597496 1_555
Na5 O15 2.661344 1_455
Na5 O10 2.774288 1_555
Na5 O25 2.794780 1_554
Na5 O20 2.841473 1_455
Na6 O43 2.536516 1_565
Na6 O38 2.583702 1_565
Na6 O44 2.594441 1_455
Na6 O36 2.604706 1_555
Na6 O42 2.645038 1_465
Na6 O37 2.683088 1_455
Na7 O45 2.536516 1_456
Na7 O41 2.583702 1_455
Na7 O47 2.594441 1_566
Na7 O40 2.604706 1_555
Na7 O46 2.645038 1_466
Na7 O39 2.683088 1_565
Na8 O48 2.344016 1_555
Na8 O55 2.547857 1_555
Na8 O50 2.578776 1_555
Na8 O56 2.653609 1_555
Na8 O49 2.682873 1_555
Na8 O54 2.688347 1_555
Na9 O52 2.344016 1_555
Na9 O57 2.547857 1_555
Na9 O53 2.578776 1_555
Na9 O59 2.653609 1_555
Na9 O51 2.682873 1_555
Na9 O58 2.688347 1_555
Na10 O62 2.598106 1_555
Na10 O67 2.600751 1_555
Na10 O66 2.650647 1_555
Na10 O60 2.670210 1_555
Na10 O68 2.700905 1_555
Na10 O61 2.720167 1_555
Na11 O65 2.598106 1_555
Na11 O69 2.600751 1_555
Na11 O70 2.650647 1_555
Na11 O64 2.670210 1_555
Na11 O71 2.700905 1_555
Na11 O63 2.720167 1_555
Ca0 O12 2.189259 1_555
Ca0 O14 2.222831 1_555
Ca0 O13 2.232014 1_555
Ca0 O48 2.306848 1_555
Ca0 O50 2.352519 1_555
Ca0 O49 2.408881 1_555
Ca1 O16 2.189259 1_555
Ca1 O17 2.222831 1_555
Ca1 O15 2.232014 1_555
Ca1 O52 2.306848 1_555
Ca1 O53 2.352520 1_555
Ca1 O51 2.408881 1_555
Nb0 O2 1.910730 1_555
Nb0 O37 1.950865 1_545
Nb0 O38 1.977329 1_655
Nb0 O36 2.007605 1_645
Nb0 O1 2.035757 1_545
Nb0 O0 2.051714 1_655
Nb1 O5 1.910730 1_555
Nb1 O39 1.950865 1_655
Nb1 O41 1.977329 1_545
Nb1 O40 2.007605 1_645
Nb1 O3 2.035757 1_655
Nb1 O4 2.051714 1_545
Nb2 O44 1.961286 1_555
Nb2 O43 1.971388 1_665
Nb2 O6 1.996465 1_555
Nb2 O8 2.037799 1_655
Nb2 O7 2.066968 1_665
Nb2 O42 2.069768 1_565
Nb3 O47 1.961286 1_555
Nb3 O45 1.971387 1_445
Nb3 O10 1.996465 1_555
Nb3 O11 2.037799 1_545
Nb3 O9 2.066968 1_445
Nb3 O46 2.069768 1_455
Nb4 O18 1.955467 1_556
Nb4 O19 1.963900 1_556
Nb4 O54 1.974891 1_555
Nb4 O56 2.020933 1_555
Nb4 O55 2.042862 1_555
Nb4 O20 2.141475 1_556
Nb5 O22 1.955467 1_555
Nb5 O21 1.963900 1_555
Nb5 O58 1.974891 1_555
Nb5 O59 2.020933 1_555
Nb5 O57 2.042862 1_555
Nb5 O23 2.141475 1_555
Nb6 O26 1.946408 1_554
Nb6 O24 1.958441 1_554
Nb6 O25 1.968664 1_554
Nb6 O61 1.971074 1_555
Nb6 O60 1.998764 1_555
Nb6 O62 2.045051 1_555
Nb7 O29 1.946408 1_555
Nb7 O28 1.958441 1_555
Nb7 O27 1.968664 1_555
Nb7 O63 1.971074 1_555
Nb7 O64 1.998764 1_555
Nb7 O65 2.045051 1_555
Nb8 O31 1.926978 1_555
Nb8 O30 1.927601 1_555
Nb8 O32 1.936898 1_555
Nb8 O68 2.057087 1_555
Nb8 O67 2.135095 1_555
Nb8 O66 2.158302 1_555
Nb9 O33 1.926978 1_555
Nb9 O34 1.927601 1_555
Nb9 O35 1.936898 1_555
Nb9 O71 2.057087 1_555
Nb9 O69 2.135095 1_555
Nb9 O70 2.158302 1_555
O0 P0 1.540391 1_545
O1 P1 1.543740 1_555
O2 Si0 1.648717 1_655
O3 P2 1.543740 1_555
O4 P3 1.540391 1_655
O5 Si1 1.648717 1_545
O6 Si1 1.675065 1_555
O7 P2 1.564607 1_555
O8 P3 1.586862 1_555
O9 P1 1.564607 1_555
O10 Si0 1.675065 1_555
O11 P0 1.586862 1_555
O12 P4 1.499602 1_555
O13 Si2 1.595214 1_555
O14 Si3 1.579336 1_555
O15 Si4 1.595214 1_555
O16 P5 1.499602 1_555
O17 Si5 1.579336 1_555
O18 Si5 1.663188 1_555
O19 Si4 1.663575 1_555
O20 P5 1.557293 1_555
O21 Si2 1.663575 1_555
O22 Si3 1.663188 1_555
O23 P4 1.557293 1_555
O24 Si6 1.612041 1_555
O25 Si7 1.625225 1_555
O26 Si8 1.621628 1_555
O27 Si9 1.625225 1_555
O28 Si10 1.612041 1_555
O29 Si11 1.621628 1_555
O30 Si11 1.666890 1_555
O31 Si9 1.654811 1_555
O32 Si10 1.656145 1_555
O33 Si7 1.654811 1_555
O34 Si8 1.666890 1_555
O35 Si6 1.656146 1_555
O36 Si11 1.629826 1_555
O37 Si9 1.641693 1_555
O38 Si10 1.632750 1_555
O39 Si7 1.641693 1_555
O40 Si8 1.629826 1_555
O41 Si6 1.632750 1_555
O42 P4 1.591870 1_555
O43 Si2 1.654864 1_555
O44 Si3 1.694241 1_555
O45 Si4 1.654864 1_555
O46 P5 1.591870 1_555
O47 Si5 1.694241 1_555
O48 Si1 1.589139 1_545
O49 P2 1.525447 1_555
O50 P3 1.505978 1_655
O51 P1 1.525447 1_555
O52 Si0 1.589139 1_655
O53 P0 1.505978 1_545
O54 Si6 1.635455 1_555
O55 Si7 1.622256 1_655
O56 Si8 1.626481 1_545
O57 Si9 1.622256 1_545
O58 Si10 1.635455 1_555
O59 Si11 1.626481 1_655
O60 Si5 1.651622 1_555
O61 Si4 1.653314 1_455
O62 P5 1.547164 1_565
O63 Si2 1.653314 1_565
O64 Si3 1.651622 1_555
O65 P4 1.547164 1_455
O66 P0 1.562504 1_555
O67 P1 1.559304 1_555
O68 Si0 1.680792 1_555
O69 P2 1.559304 1_555
O70 P3 1.562504 1_555
O71 Si1 1.680792 1_555
