# generated using pymatgen
data_K2Mg(CoO2)2
_symmetry_space_group_name_H-M   'P 1'
_cell_length_a   3.78402800
_cell_length_b   3.78402800
_cell_length_c   9.80355200
_cell_angle_alpha   90.00000000
_cell_angle_beta   90.00000000
_cell_angle_gamma   90.00000000
_symmetry_Int_Tables_number   1
_chemical_formula_structural   K2Mg(CoO2)2
_chemical_formula_sum   'K2 Mg1 Co2 O4'
_cell_volume   140.37576609
_cell_formula_units_Z   1
loop_
 _symmetry_equiv_pos_site_id
 _symmetry_equiv_pos_as_xyz
  1  'x, y, z'
loop_
 _atom_site_type_symbol
 _atom_site_label
 _atom_site_symmetry_multiplicity
 _atom_site_fract_x
 _atom_site_fract_y
 _atom_site_fract_z
 _atom_site_occupancy
  K  K0  1  0.75000100  0.75000100  0.41326400  1
  K  K1  1  0.24999900  0.24999900  0.67700400  1
  Mg  Mg0  1  0.75000000  0.75000000  0.11178800  1
  Co  Co0  1  0.75000100  0.75000100  0.86693400  1
  Co  Co1  1  0.24999900  0.24999900  0.08715200  1
  O  O0  1  0.24999900  0.75000100  0.00543100  1
  O  O1  1  0.75000100  0.24999900  0.00543100  1
  O  O2  1  0.75000100  0.75000100  0.68218400  1
  O  O3  1  0.24999900  0.24999900  0.28247900  1
loop_
_geom_bond_atom_site_label_1
_geom_bond_atom_site_label_2
_geom_bond_distance
_geom_bond_site_symmetry_2
K0 O2 2.636371 1_555
K0 Mg0 2.955536 1_555
K0 O3 2.967036 1_665
K0 O3 2.967046 1_655
K0 O3 2.967046 1_565
K0 O3 2.967056 1_555
K1 O2 2.676183 1_445
K1 O2 2.676194 1_455
K1 O2 2.676194 1_545
K1 O2 2.676204 1_555
Mg0 O0 2.160296 1_655
Mg0 O1 2.160296 1_565
Mg0 O0 2.160302 1_555
Mg0 O1 2.160302 1_555
Co0 O2 1.811206 1_555
Co0 O1 2.328778 1_566
Co0 O0 2.328778 1_656
Co0 O0 2.328790 1_556
Co0 O1 2.328790 1_556
Co1 O3 1.914898 1_555
Co1 O0 2.054639 1_545
Co1 O1 2.054639 1_455
Co1 O1 2.054652 1_555
Co1 O0 2.054652 1_555
