# generated using pymatgen
data_MgTi2O4
_symmetry_space_group_name_H-M   'P 1'
_cell_length_a   2.91667388
_cell_length_b   5.39009928
_cell_length_c   5.39009928
_cell_angle_alpha   106.25728061
_cell_angle_beta   90.00000000
_cell_angle_gamma   90.00000000
_symmetry_Int_Tables_number   1
_chemical_formula_structural   MgTi2O4
_chemical_formula_sum   'Mg1 Ti2 O4'
_cell_volume   81.35028860
_cell_formula_units_Z   1
loop_
 _symmetry_equiv_pos_site_id
 _symmetry_equiv_pos_as_xyz
  1  'x, y, z'
loop_
 _atom_site_type_symbol
 _atom_site_label
 _atom_site_symmetry_multiplicity
 _atom_site_fract_x
 _atom_site_fract_y
 _atom_site_fract_z
 _atom_site_occupancy
  Mg  Mg0  1  0.00000000  0.69955544  0.30044456  1
  Ti  Ti0  1  0.50000000  0.41076438  0.58923562  1
  Ti  Ti1  1  0.00000000  0.02537905  0.97462095  1
  O  O0  1  0.50000000  0.19331347  0.80668653  1
  O  O1  1  0.50000000  0.84695040  0.15304960  1
  O  O2  1  0.00000000  0.32154790  0.30306665  1
  O  O3  1  0.00000000  0.69693335  0.67845210  1
loop_
_geom_bond_atom_site_label_1
_geom_bond_atom_site_label_2
_geom_bond_distance
_geom_bond_site_symmetry_2
Mg0 O1 1.934561 1_455
Mg0 O1 1.934561 1_555
Mg0 O2 2.041500 1_555
Mg0 O3 2.041500 1_555
O0 Ti0 1.875295 1_555
O0 Ti1 2.055291 1_555
O0 Ti1 2.055291 1_655
O1 Ti1 2.120036 1_664
O1 Ti1 2.120036 1_564
O2 Ti1 2.024898 1_554
O2 Ti0 2.078925 1_555
O2 Ti0 2.078925 1_455
O3 Ti1 2.024898 1_565
O3 Ti0 2.078925 1_555
O3 Ti0 2.078925 1_455
