# generated using pymatgen
data_Sm3PO7
_symmetry_space_group_name_H-M   'P 1'
_cell_length_a   9.14792182
_cell_length_b   9.14792182
_cell_length_c   12.18322912
_cell_angle_alpha   102.83019951
_cell_angle_beta   102.83019951
_cell_angle_gamma   90.62251009
_symmetry_Int_Tables_number   1
_chemical_formula_structural   Sm3PO7
_chemical_formula_sum   'Sm18 P6 O42'
_cell_volume   967.32779387
_cell_formula_units_Z   6
loop_
 _symmetry_equiv_pos_site_id
 _symmetry_equiv_pos_as_xyz
  1  'x, y, z'
loop_
 _atom_site_type_symbol
 _atom_site_label
 _atom_site_symmetry_multiplicity
 _atom_site_fract_x
 _atom_site_fract_y
 _atom_site_fract_z
 _atom_site_occupancy
  Sm  Sm0  1  0.32284982  0.01370028  0.91399719  1
  Sm  Sm1  1  0.01370028  0.32284982  0.91399719  1
  Sm  Sm2  1  0.68309872  0.29618747  0.68563652  1
  Sm  Sm3  1  0.29618747  0.68309872  0.68563652  1
  Sm  Sm4  1  0.67052937  0.32230351  0.99717514  1
  Sm  Sm5  1  0.32230351  0.67052937  0.99717514  1
  Sm  Sm6  1  0.65122121  0.96589744  0.79844140  1
  Sm  Sm7  1  0.96589744  0.65122121  0.79844140  1
  Sm  Sm8  1  0.66508585  0.01358415  0.13203165  1
  Sm  Sm9  1  0.01358415  0.66508585  0.13203165  1
  Sm  Sm10  1  0.31412897  0.96566612  0.23922345  1
  Sm  Sm11  1  0.96566612  0.31412897  0.23922345  1
  Sm  Sm12  1  0.32810048  0.01338075  0.57288794  1
  Sm  Sm13  1  0.01338075  0.32810048  0.57288794  1
  Sm  Sm14  1  0.65694761  0.30872122  0.37407365  1
  Sm  Sm15  1  0.30872122  0.65694761  0.37407365  1
  Sm  Sm16  1  0.65642708  0.96555558  0.45724399  1
  Sm  Sm17  1  0.96555558  0.65642708  0.45724399  1
  P  P0  1  0.65775857  0.65775857  0.95226685  1
  P  P1  1  0.98552583  0.98552583  0.36590275  1
  P  P2  1  0.32119752  0.32119752  0.41864891  1
  P  P3  1  0.32816084  0.32816084  0.79624443  1
  P  P4  1  0.99375294  0.99375294  0.00523842  1
  P  P5  1  0.65088496  0.65088496  0.57507707  1
  O  O0  1  0.38434693  0.93423662  0.74110990  1
  O  O1  1  0.93423662  0.38434693  0.74110990  1
  O  O2  1  0.41751892  0.41751892  0.36601144  1
  O  O3  1  0.69242688  0.69242688  0.46846072  1
  O  O4  1  0.49294023  0.29923554  0.79805044  1
  O  O5  1  0.29923554  0.49294023  0.79805044  1
  O  O6  1  0.70103327  0.27822513  0.18563677  1
  O  O7  1  0.27822513  0.70103327  0.18563677  1
  O  O8  1  0.56148142  0.56148142  0.00497794  1
  O  O9  1  0.42674328  0.23102523  0.49130960  1
  O  O10  1  0.23102523  0.42674328  0.49130960  1
  O  O11  1  0.08416646  0.08416646  0.47676427  1
  O  O12  1  0.59507001  0.04492774  0.63018183  1
  O  O13  1  0.04492774  0.59507001  0.63018183  1
  O  O14  1  0.21456148  0.21456148  0.31272861  1
  O  O15  1  0.89528654  0.89528654  0.89420562  1
  O  O16  1  0.77971040  0.20353023  0.84926971  1
  O  O17  1  0.20353023  0.77971040  0.84926971  1
  O  O18  1  0.41125750  0.91673101  0.07413374  1
  O  O19  1  0.91673101  0.41125750  0.07413374  1
  O  O20  1  0.28723743  0.28723743  0.90327804  1
  O  O21  1  0.56796042  0.06251261  0.29711572  1
  O  O22  1  0.06251261  0.56796042  0.29711572  1
  O  O23  1  0.87726446  0.87726446  0.39704075  1
  O  O24  1  0.75117237  0.75117237  0.68509014  1
  O  O25  1  0.22741761  0.22741761  0.68662570  1
  O  O26  1  0.10212466  0.10212466  0.97431472  1
  O  O27  1  0.76446376  0.76446376  0.05808159  1
  O  O28  1  0.55209101  0.74788059  0.87964918  1
  O  O29  1  0.74788059  0.55209101  0.87964918  1
  O  O30  1  0.48597797  0.67964757  0.57284942  1
  O  O31  1  0.67964757  0.48597797  0.57284942  1
  O  O32  1  0.57213173  0.08479575  0.96338278  1
  O  O33  1  0.08479575  0.57213173  0.96338278  1
  O  O34  1  0.40715149  0.89443499  0.40789332  1
  O  O35  1  0.89443499  0.40715149  0.40789332  1
  O  O36  1  0.77578183  0.19954478  0.52196397  1
  O  O37  1  0.19954478  0.77578183  0.52196397  1
  O  O38  1  0.88891655  0.08375674  0.29610388  1
  O  O39  1  0.08375674  0.88891655  0.29610388  1
  O  O40  1  0.89536887  0.09024568  0.07495986  1
  O  O41  1  0.09024568  0.89536887  0.07495986  1
loop_
_geom_bond_atom_site_label_1
_geom_bond_atom_site_label_2
_geom_bond_distance
_geom_bond_site_symmetry_2
O0 Sm0 2.266418 1_565
O0 Sm12 2.277737 1_565
O0 Sm3 2.326640 1_555
O0 Sm6 2.381046 1_555
O1 Sm1 2.266418 1_655
O1 Sm13 2.277737 1_655
O1 Sm2 2.326640 1_555
O1 Sm7 2.381046 1_555
O2 P2 1.564969 1_555
O2 Sm14 2.406815 1_555
O2 Sm15 2.406815 1_555
O3 P5 1.552862 1_555
O3 Sm17 2.553325 1_555
O3 Sm16 2.553325 1_555
O4 P3 1.529459 1_555
O4 Sm2 2.438181 1_555
O4 Sm4 2.565923 1_555
O5 P3 1.529459 1_555
O5 Sm3 2.438181 1_555
O5 Sm5 2.565923 1_555
O6 Sm11 2.362231 1_555
O6 Sm8 2.362333 1_555
O6 Sm14 2.374917 1_555
O6 Sm4 2.375179 1_554
O7 Sm10 2.362231 1_555
O7 Sm9 2.362333 1_555
O7 Sm15 2.374917 1_555
O7 Sm5 2.375179 1_554
O8 P0 1.565037 1_554
O8 Sm4 2.405950 1_554
O8 Sm5 2.405950 1_554
O9 P2 1.535691 1_555
O9 Sm12 2.646560 1_555
O9 Sm2 2.887405 1_555
O10 P2 1.535691 1_555
O10 Sm13 2.646560 1_555
O10 Sm3 2.887405 1_555
O11 P1 1.533783 1_445
O11 Sm13 2.444972 1_555
O11 Sm12 2.444972 1_555
O12 Sm16 2.266296 1_545
O12 Sm6 2.277591 1_545
O12 Sm2 2.327342 1_555
O12 Sm12 2.381817 1_555
O13 Sm17 2.266296 1_455
O13 Sm7 2.277591 1_455
O13 Sm3 2.327342 1_555
O13 Sm13 2.381817 1_555
O14 P2 1.558725 1_555
O14 Sm10 2.513466 1_545
O14 Sm11 2.513466 1_455
O15 P4 1.533848 1_556
O15 Sm7 2.443873 1_555
O15 Sm6 2.443873 1_555
O16 Sm1 2.283068 1_655
O16 Sm4 2.319168 1_555
O16 Sm2 2.336273 1_555
O16 Sm6 2.348194 1_545
O17 Sm0 2.283068 1_565
O17 Sm5 2.319168 1_555
O17 Sm3 2.336273 1_555
O17 Sm7 2.348194 1_455
O18 Sm5 2.301586 1_554
O18 Sm0 2.308839 1_564
O18 Sm10 2.331901 1_555
O18 Sm8 2.371616 1_565
O19 Sm4 2.301586 1_554
O19 Sm1 2.308839 1_654
O19 Sm11 2.331901 1_555
O19 Sm9 2.371616 1_655
O20 P3 1.552846 1_555
O20 Sm1 2.555118 1_555
O20 Sm0 2.555118 1_555
O21 Sm14 2.301718 1_555
O21 Sm16 2.308778 1_545
O21 Sm8 2.331823 1_555
O21 Sm10 2.371624 1_545
O22 Sm15 2.301718 1_555
O22 Sm17 2.308778 1_455
O22 Sm9 2.331823 1_555
O22 Sm11 2.371624 1_455
O23 P1 1.554984 1_555
O23 Sm16 2.387883 1_555
O23 Sm17 2.387883 1_555
O24 P5 1.539239 1_555
O24 Sm6 2.448804 1_555
O24 Sm7 2.448804 1_555
O25 P3 1.539656 1_555
O25 Sm13 2.450146 1_555
O25 Sm12 2.450146 1_555
O26 P4 1.554992 1_446
O26 Sm0 2.387866 1_555
O26 Sm1 2.387866 1_555
O27 P0 1.558569 1_554
O27 Sm8 2.515674 1_565
O27 Sm9 2.515674 1_655
O28 P0 1.535656 1_555
O28 Sm6 2.648464 1_555
O28 Sm3 2.882484 1_555
O29 P0 1.535656 1_555
O29 Sm7 2.648464 1_555
O29 Sm2 2.882484 1_555
O30 P5 1.529484 1_555
O30 Sm3 2.438239 1_555
O30 Sm15 2.561750 1_555
O31 P5 1.529484 1_555
O31 Sm2 2.438239 1_555
O31 Sm14 2.561750 1_555
O32 Sm4 2.257437 1_555
O32 Sm0 2.273739 1_555
O32 Sm8 2.280290 1_556
O32 Sm6 2.331682 1_545
O33 Sm5 2.257437 1_555
O33 Sm1 2.273739 1_555
O33 Sm9 2.280290 1_556
O33 Sm7 2.331682 1_455
O34 Sm15 2.257330 1_555
O34 Sm16 2.273744 1_555
O34 Sm10 2.280713 1_555
O34 Sm12 2.332162 1_565
O35 Sm14 2.257330 1_555
O35 Sm17 2.273744 1_555
O35 Sm11 2.280713 1_555
O35 Sm13 2.332162 1_655
O36 Sm16 2.283185 1_545
O36 Sm14 2.319169 1_555
O36 Sm2 2.336867 1_555
O36 Sm13 2.348128 1_655
O37 Sm17 2.283185 1_455
O37 Sm15 2.319169 1_555
O37 Sm3 2.336867 1_555
O37 Sm12 2.348128 1_565
O38 P1 1.527924 1_545
O38 Sm8 2.486797 1_555
O38 Sm11 2.499394 1_555
O39 P1 1.527924 1_455
O39 Sm9 2.486797 1_555
O39 Sm10 2.499394 1_555
O40 P4 1.527912 1_545
O40 Sm11 2.488501 1_555
O40 Sm8 2.499619 1_555
O41 P4 1.527912 1_455
O41 Sm10 2.488501 1_555
O41 Sm9 2.499619 1_555
