# generated using pymatgen
data_Cs4MgTi2(AgS2)4
_symmetry_space_group_name_H-M   'P 1'
_cell_length_a   6.33906844
_cell_length_b   6.33906844
_cell_length_c   13.70134139
_cell_angle_alpha   90.00000000
_cell_angle_beta   90.00000000
_cell_angle_gamma   84.22111217
_symmetry_Int_Tables_number   1
_chemical_formula_structural   Cs4MgTi2(AgS2)4
_chemical_formula_sum   'Cs4 Mg1 Ti2 Ag4 S8'
_cell_volume   547.77373458
_cell_formula_units_Z   1
loop_
 _symmetry_equiv_pos_site_id
 _symmetry_equiv_pos_as_xyz
  1  'x, y, z'
loop_
 _atom_site_type_symbol
 _atom_site_label
 _atom_site_symmetry_multiplicity
 _atom_site_fract_x
 _atom_site_fract_y
 _atom_site_fract_z
 _atom_site_occupancy
  Cs  Cs0  1  0.82124803  0.82124803  0.00000000  1
  Cs  Cs1  1  0.23183464  0.76816536  0.50000000  1
  Cs  Cs2  1  0.76816536  0.23183464  0.50000000  1
  Cs  Cs3  1  0.17875197  0.17875197  0.00000000  1
  Mg  Mg0  1  0.50000000  0.50000000  0.00000000  1
  Ti  Ti0  1  0.50000000  0.50000000  0.74523935  1
  Ti  Ti1  1  0.50000000  0.50000000  0.25476065  1
  Ag  Ag0  1  0.00000000  0.50000000  0.75009960  1
  Ag  Ag1  1  0.50000000  0.00000000  0.75009960  1
  Ag  Ag2  1  0.00000000  0.50000000  0.24990040  1
  Ag  Ag3  1  0.50000000  0.00000000  0.24990040  1
  S  S0  1  0.70477386  0.70477386  0.65192699  1
  S  S1  1  0.29522614  0.29522614  0.65192699  1
  S  S2  1  0.70477386  0.70477386  0.34807301  1
  S  S3  1  0.70428879  0.29571121  0.13717855  1
  S  S4  1  0.29571121  0.70428879  0.86282145  1
  S  S5  1  0.29522614  0.29522614  0.34807301  1
  S  S6  1  0.29571121  0.70428879  0.13717855  1
  S  S7  1  0.70428879  0.29571121  0.86282145  1
loop_
_geom_bond_atom_site_label_1
_geom_bond_atom_site_label_2
_geom_bond_distance
_geom_bond_site_symmetry_2
Cs0 Mg0 3.021436 1_555
Cs0 S4 3.560794 1_654
Cs0 S6 3.560794 1_655
Cs0 S3 3.560794 1_565
Cs0 S7 3.560794 1_564
Cs1 S0 3.638669 1_555
Cs1 S2 3.638669 1_555
Cs1 S1 3.638669 1_555
Cs1 S5 3.638669 1_555
Cs1 S0 3.990952 1_455
Cs1 S1 3.990952 1_565
Cs1 S5 3.990952 1_565
Cs1 S2 3.990952 1_455
Cs2 S1 3.638669 1_555
Cs2 S5 3.638669 1_555
Cs2 S2 3.638669 1_555
Cs2 S0 3.638669 1_555
Cs2 S1 3.990952 1_655
Cs2 S5 3.990952 1_655
Cs2 S2 3.990952 1_545
Cs2 S0 3.990952 1_545
Cs3 Mg0 3.021436 1_555
Cs3 S6 3.560794 1_545
Cs3 S4 3.560794 1_544
Cs3 S3 3.560794 1_455
Cs3 S7 3.560794 1_454
Mg0 S4 2.559095 1_554
Mg0 S3 2.559095 1_555
Mg0 S6 2.559095 1_555
Mg0 S7 2.559095 1_554
Ag0 S1 2.550967 1_555
Ag0 S0 2.550967 1_455
Ag0 S7 2.839904 1_455
Ag0 S4 2.839904 1_555
Ag1 S0 2.550967 1_545
Ag1 S1 2.550967 1_555
Ag1 S4 2.839904 1_545
Ag1 S7 2.839904 1_555
Ag2 S2 2.550967 1_455
Ag2 S5 2.550967 1_555
Ag2 S3 2.839904 1_455
Ag2 S6 2.839904 1_555
Ag3 S2 2.550967 1_545
Ag3 S5 2.550967 1_555
Ag3 S6 2.839904 1_545
Ag3 S3 2.839904 1_555
S0 Ti0 2.311687 1_555
S1 Ti0 2.311687 1_555
S2 Ti1 2.311687 1_555
S3 Ti1 2.368915 1_555
S4 Ti0 2.368915 1_555
S5 Ti1 2.311687 1_555
S6 Ti1 2.368915 1_555
S7 Ti0 2.368915 1_555
