# generated using pymatgen
data_Ba2MgCrMoO6
_symmetry_space_group_name_H-M   'P 1'
_cell_length_a   6.06599690
_cell_length_b   6.58944749
_cell_length_c   6.06513916
_cell_angle_alpha   63.05497204
_cell_angle_beta   60.07936122
_cell_angle_gamma   63.09936206
_symmetry_Int_Tables_number   1
_chemical_formula_structural   Ba2MgCrMoO6
_chemical_formula_sum   'Ba2 Mg1 Cr1 Mo1 O6'
_cell_volume   179.08693455
_cell_formula_units_Z   1
loop_
 _symmetry_equiv_pos_site_id
 _symmetry_equiv_pos_as_xyz
  1  'x, y, z'
loop_
 _atom_site_type_symbol
 _atom_site_label
 _atom_site_symmetry_multiplicity
 _atom_site_fract_x
 _atom_site_fract_y
 _atom_site_fract_z
 _atom_site_occupancy
  Ba  Ba0  1  0.19079621  0.42573497  0.19097101  1
  Ba  Ba1  1  0.77764163  0.67120899  0.77729504  1
  Mg  Mg0  1  0.39872845  0.80536296  0.39859399  1
  Cr  Cr0  1  0.99478294  0.01553157  0.99483389  1
  Mo  Mo0  1  0.58058250  0.25673467  0.58066375  1
  O  O0  1  0.75996300  0.26999820  0.20949360  1
  O  O1  1  0.76087068  0.26690589  0.76089731  1
  O  O2  1  0.76206440  0.79597122  0.22071037  1
  O  O3  1  0.22055513  0.79640930  0.76186539  1
  O  O4  1  0.21971390  0.80082267  0.21977062  1
  O  O5  1  0.20930115  0.27031956  0.75990501  1
loop_
_geom_bond_atom_site_label_1
_geom_bond_atom_site_label_2
_geom_bond_distance
_geom_bond_site_symmetry_2
Ba0 O2 2.633918 1_455
Ba0 O3 2.634624 1_554
Ba0 O4 2.642790 1_555
Ba0 O0 3.150440 1_455
Ba0 O5 3.150651 1_554
Ba0 O1 3.169124 1_455
Ba0 O5 3.169897 1_555
Ba0 O1 3.171470 1_554
Ba0 O0 3.172113 1_555
Ba1 O5 2.750187 1_655
Ba1 O0 2.750977 1_556
Ba1 O1 2.759225 1_555
Ba1 O3 3.097214 1_655
Ba1 O2 3.097979 1_556
Ba1 O4 3.124725 1_655
Ba1 O4 3.128334 1_556
Ba1 O2 3.132628 1_555
Ba1 O3 3.135556 1_555
Ba1 Mo0 3.288807 1_565
Mg0 O4 1.894768 1_555
Mg0 O2 1.894822 1_555
Mg0 O3 1.894833 1_555
Cr0 O2 2.021227 1_546
Cr0 O4 2.021264 1_646
Cr0 O3 2.021408 1_645
Cr0 O5 2.121679 1_655
Cr0 O0 2.121975 1_556
Cr0 O1 2.126471 1_555
Mo0 O1 1.928942 1_555
Mo0 O0 1.929660 1_555
Mo0 O5 1.930141 1_555
