# generated using pymatgen
data_Sr4MgMn2Cu2(SO3)2
_symmetry_space_group_name_H-M   'P 1'
_cell_length_a   3.90542595
_cell_length_b   3.91746393
_cell_length_c   19.59133388
_cell_angle_alpha   90.00000000
_cell_angle_beta   90.00000000
_cell_angle_gamma   90.00000000
_symmetry_Int_Tables_number   1
_chemical_formula_structural   Sr4MgMn2Cu2(SO3)2
_chemical_formula_sum   'Sr4 Mg1 Mn2 Cu2 S2 O6'
_cell_volume   299.73497356
_cell_formula_units_Z   1
loop_
 _symmetry_equiv_pos_site_id
 _symmetry_equiv_pos_as_xyz
  1  'x, y, z'
loop_
 _atom_site_type_symbol
 _atom_site_label
 _atom_site_symmetry_multiplicity
 _atom_site_fract_x
 _atom_site_fract_y
 _atom_site_fract_z
 _atom_site_occupancy
  Sr  Sr0  1  0.75000000  0.75000000  0.26160699  1
  Sr  Sr1  1  0.25000000  0.25000000  0.79639055  1
  Sr  Sr2  1  0.75000000  0.75000000  0.47426802  1
  Sr  Sr3  1  0.25000000  0.25000000  0.61081283  1
  Mg  Mg0  1  0.75000000  0.25000000  0.10097294  1
  Mn  Mn0  1  0.25000000  0.25000000  0.37360708  1
  Mn  Mn1  1  0.75000000  0.75000000  0.70011929  1
  Cu  Cu0  1  0.75000000  0.25000000  0.94180395  1
  Cu  Cu1  1  0.25000000  0.75000000  0.95329910  1
  S  S0  1  0.25000000  0.25000000  0.02692744  1
  S  S1  1  0.75000000  0.75000000  0.88106706  1
  O  O0  1  0.75000000  0.25000000  0.19572547  1
  O  O1  1  0.25000000  0.75000000  0.34400650  1
  O  O2  1  0.25000000  0.75000000  0.71591879  1
  O  O3  1  0.75000000  0.25000000  0.71600492  1
  O  O4  1  0.25000000  0.25000000  0.47727883  1
  O  O5  1  0.75000000  0.75000000  0.59269024  1
loop_
_geom_bond_atom_site_label_1
_geom_bond_atom_site_label_2
_geom_bond_distance
_geom_bond_site_symmetry_2
Mg0 O0 1.856328 1_555
Mg0 S0 2.432586 1_655
Mg0 S0 2.432586 1_555
Mn0 O4 2.031068 1_555
Mn0 O1 2.042776 1_545
Mn0 O1 2.042776 1_555
Mn1 O2 1.977094 1_655
Mn1 O2 1.977094 1_555
Mn1 O3 1.983303 1_555
Mn1 O3 1.983303 1_565
Mn1 O5 2.104678 1_555
Cu0 S1 2.291840 1_555
Cu0 S1 2.291840 1_545
Cu0 S0 2.567928 1_556
Cu0 S0 2.567928 1_656
Cu1 S1 2.411568 1_555
Cu1 S1 2.411568 1_455
Cu1 S0 2.432565 1_556
Cu1 S0 2.432565 1_566
S1 Sr1 3.225175 1_565
S1 Sr1 3.225175 1_665
S1 Sr1 3.225175 1_555
S1 Sr1 3.225175 1_655
O0 Sr0 2.345753 1_555
O0 Sr0 2.345753 1_545
O1 Sr0 2.533595 1_555
O1 Sr0 2.533595 1_455
O2 Sr1 2.514386 1_555
O2 Sr1 2.514386 1_565
O2 Sr3 2.841970 1_555
O2 Sr3 2.841970 1_565
O3 Sr1 2.508641 1_555
O3 Sr1 2.508641 1_655
O3 Sr3 2.839050 1_555
O3 Sr3 2.839050 1_655
O4 Sr3 2.616109 1_555
O4 Sr2 2.766441 1_455
O4 Sr2 2.766441 1_545
O4 Sr2 2.766441 1_555
O4 Sr2 2.766441 1_445
O5 Sr2 2.320049 1_555
O5 Sr3 2.788508 1_665
O5 Sr3 2.788508 1_565
O5 Sr3 2.788508 1_555
O5 Sr3 2.788508 1_655
