# generated using pymatgen
data_SmCuPb
_symmetry_space_group_name_H-M   'P 1'
_cell_length_a   4.62760928
_cell_length_b   4.62760928
_cell_length_c   7.54423362
_cell_angle_alpha   90.00000000
_cell_angle_beta   90.00000000
_cell_angle_gamma   120.00000405
_symmetry_Int_Tables_number   1
_chemical_formula_structural   SmCuPb
_chemical_formula_sum   'Sm2 Cu2 Pb2'
_cell_volume   139.91333539
_cell_formula_units_Z   2
loop_
 _symmetry_equiv_pos_site_id
 _symmetry_equiv_pos_as_xyz
  1  'x, y, z'
loop_
 _atom_site_type_symbol
 _atom_site_label
 _atom_site_symmetry_multiplicity
 _atom_site_fract_x
 _atom_site_fract_y
 _atom_site_fract_z
 _atom_site_occupancy
  Sm  Sm0  1  0.00000000  -0.00000000  0.99238816  1
  Sm  Sm1  1  0.00000000  0.00000000  0.49238816  1
  Cu  Cu0  1  0.66666700  0.33333300  0.31580988  1
  Cu  Cu1  1  0.33333300  0.66666700  0.81580988  1
  Pb  Pb0  1  0.33333300  0.66666700  0.22280197  1
  Pb  Pb1  1  0.66666700  0.33333300  0.72280197  1
loop_
_geom_bond_atom_site_label_1
_geom_bond_atom_site_label_2
_geom_bond_distance
_geom_bond_site_symmetry_2
Cu0 Pb0 2.762352 1_545
Cu0 Pb0 2.762352 1_655
Cu0 Pb0 2.762360 1_555
Cu0 Sm1 2.985441 1_655
Cu0 Sm1 2.985445 1_665
Cu0 Sm1 2.985445 1_555
Cu0 Pb1 3.070443 1_555
Cu0 Sm0 3.618244 1_654
Cu0 Sm0 3.618247 1_664
Cu0 Sm0 3.618247 1_554
Cu1 Pb1 2.762352 1_455
Cu1 Pb1 2.762352 1_565
Cu1 Pb1 2.762360 1_555
Cu1 Sm0 2.985441 1_565
Cu1 Sm0 2.985445 1_555
Cu1 Sm0 2.985445 1_665
Cu1 Pb0 3.070443 1_556
Cu1 Sm1 3.618244 1_565
Cu1 Sm1 3.618247 1_665
Cu1 Sm1 3.618247 1_555
Pb0 Sm0 3.187462 1_564
Pb0 Sm0 3.187465 1_664
Pb0 Sm0 3.187465 1_554
Pb0 Sm1 3.357778 1_565
Pb0 Sm1 3.357781 1_665
Pb0 Sm1 3.357781 1_555
Pb1 Sm1 3.187462 1_655
Pb1 Sm1 3.187465 1_665
Pb1 Sm1 3.187465 1_555
Pb1 Sm0 3.357778 1_655
Pb1 Sm0 3.357781 1_555
Pb1 Sm0 3.357781 1_665
