# generated using pymatgen
data_Na6Mg7Ti(SO4)12
_symmetry_space_group_name_H-M   'P 1'
_cell_length_a   17.37179551
_cell_length_b   8.67657326
_cell_length_c   22.56747534
_cell_angle_alpha   89.96765890
_cell_angle_beta   90.01638323
_cell_angle_gamma   119.91535310
_symmetry_Int_Tables_number   1
_chemical_formula_structural   Na6Mg7Ti(SO4)12
_chemical_formula_sum   'Na18 Mg21 Ti3 S36 O144'
_cell_volume   2948.33134234
_cell_formula_units_Z   3
loop_
 _symmetry_equiv_pos_site_id
 _symmetry_equiv_pos_as_xyz
  1  'x, y, z'
loop_
 _atom_site_type_symbol
 _atom_site_label
 _atom_site_symmetry_multiplicity
 _atom_site_fract_x
 _atom_site_fract_y
 _atom_site_fract_z
 _atom_site_occupancy
  Na  Na0  1  0.32121303  0.64172308  0.74975911  1
  Na  Na1  1  0.64937405  0.33122324  0.58432913  1
  Na  Na2  1  0.98709613  0.66705883  0.91725950  1
  Na  Na3  1  0.66527529  0.30182871  0.91555368  1
  Na  Na4  1  0.16711490  0.02938484  0.41696555  1
  Na  Na5  1  0.66633932  0.02779003  0.41698342  1
  Na  Na6  1  0.99582013  0.00139462  0.49730754  1
  Na  Na7  1  0.48778300  0.98487218  0.50097526  1
  Na  Na8  1  0.00249864  0.01329518  0.99898554  1
  Na  Na9  1  0.49302353  0.98803179  0.99704057  1
  Na  Na10  1  0.33698770  0.32723177  0.83609841  1
  Na  Na11  1  0.83118841  0.32001497  0.83009674  1
  Na  Na12  1  0.33872649  0.34277204  0.33333376  1
  Na  Na13  1  0.83901560  0.34325155  0.33269065  1
  Na  Na14  1  0.16725466  0.66679856  0.16620458  1
  Na  Na15  1  0.66613164  0.66637984  0.16647302  1
  Na  Na16  1  0.16630239  0.67177382  0.66396289  1
  Na  Na17  1  0.66289244  0.67226337  0.66922868  1
  Mg  Mg0  1  0.99630874  0.99904435  0.35155483  1
  Mg  Mg1  1  0.49564049  0.99885826  0.35162334  1
  Mg  Mg2  1  0.00119150  0.00837413  0.85153426  1
  Mg  Mg3  1  0.49608535  0.99412793  0.85016505  1
  Mg  Mg4  1  0.49623353  0.99204153  0.64990470  1
  Mg  Mg5  1  0.33770439  0.33231090  0.68235551  1
  Mg  Mg6  1  0.83114214  0.32949426  0.68558669  1
  Mg  Mg7  1  0.33351907  0.33332633  0.18416429  1
  Mg  Mg8  1  0.83294371  0.33316337  0.18453567  1
  Mg  Mg9  1  0.33357458  0.33685158  0.98162582  1
  Mg  Mg10  1  0.83338364  0.32199734  0.98491308  1
  Mg  Mg11  1  0.33759598  0.34351028  0.48364514  1
  Mg  Mg12  1  0.83916627  0.33883676  0.48260188  1
  Mg  Mg13  1  0.16950610  0.66742348  0.01697022  1
  Mg  Mg14  1  0.66443607  0.66768642  0.01762988  1
  Mg  Mg15  1  0.16899449  0.66347875  0.51769576  1
  Mg  Mg16  1  0.66502941  0.67187559  0.51631158  1
  Mg  Mg17  1  0.16698024  0.66459928  0.31556042  1
  Mg  Mg18  1  0.66644847  0.66461941  0.31465813  1
  Mg  Mg19  1  0.16698512  0.67290192  0.81748146  1
  Mg  Mg20  1  0.66389098  0.66427750  0.81456510  1
  Ti  Ti0  1  0.00032964  0.00260856  0.64825887  1
  Ti  Ti1  1  0.00036064  0.00173954  0.14862746  1
  Ti  Ti2  1  0.49850028  0.99902458  0.14810804  1
  S  S0  1  0.14571755  0.00084996  0.25059102  1
  S  S1  1  0.64551426  0.00114807  0.25049596  1
  S  S2  1  0.35484429  0.70845221  0.24993819  1
  S  S3  1  0.85523483  0.70931369  0.24981986  1
  S  S4  1  0.99941002  0.29042433  0.25001884  1
  S  S5  1  0.49951699  0.28987793  0.24982656  1
  S  S6  1  0.14528589  0.28951363  0.74997047  1
  S  S7  1  0.64791351  0.29546429  0.75003045  1
  S  S8  1  0.99929789  0.70891530  0.75053716  1
  S  S9  1  0.50096243  0.70667350  0.74972242  1
  S  S10  1  0.35247057  0.00175929  0.75023708  1
  S  S11  1  0.85568119  0.00105773  0.75010794  1
  S  S12  1  0.48086424  0.33303927  0.58290513  1
  S  S13  1  0.97965060  0.33404281  0.58521908  1
  S  S14  1  0.18564314  0.03848301  0.58411396  1
  S  S15  1  0.68713598  0.03941704  0.58276449  1
  S  S16  1  0.33277999  0.62738891  0.58458274  1
  S  S17  1  0.83483565  0.62835755  0.58424861  1
  S  S18  1  0.47978301  0.62639864  0.08494364  1
  S  S19  1  0.98050010  0.62772257  0.08404485  1
  S  S20  1  0.33298345  0.04097350  0.08461599  1
  S  S21  1  0.83310878  0.03838392  0.08542617  1
  S  S22  1  0.18684824  0.33317559  0.08482244  1
  S  S23  1  0.68605729  0.33329695  0.08420332  1
  S  S24  1  0.31381282  0.66559026  0.91587091  1
  S  S25  1  0.81364855  0.66943083  0.91712863  1
  S  S26  1  0.02040496  0.37310292  0.91701235  1
  S  S27  1  0.51959076  0.37380933  0.91679650  1
  S  S28  1  0.16722763  0.96194050  0.91702770  1
  S  S29  1  0.66688354  0.95974003  0.91644096  1
  S  S30  1  0.31330964  0.95994945  0.41675445  1
  S  S31  1  0.81338657  0.95870412  0.41660740  1
  S  S32  1  0.16669060  0.37261151  0.41623433  1
  S  S33  1  0.66714987  0.37313400  0.41706806  1
  S  S34  1  0.02010670  0.66496526  0.41637455  1
  S  S35  1  0.51948655  0.66546831  0.41529692  1
  O  O0  1  0.10589798  0.02561941  0.30457434  1
  O  O1  1  0.60597260  0.02591841  0.30477089  1
  O  O2  1  0.40871341  0.79023825  0.30256482  1
  O  O3  1  0.90892160  0.79087986  0.30259729  1
  O  O4  1  0.48709080  0.18270656  0.30263114  1
  O  O5  1  0.98675466  0.18268944  0.30259953  1
  O  O6  1  0.10458612  0.18266748  0.80210634  1
  O  O7  1  0.60679194  0.18854256  0.80424064  1
  O  O8  1  0.48460193  0.78674826  0.80265758  1
  O  O9  1  0.98705240  0.78819294  0.80466160  1
  O  O10  1  0.40594994  0.02683507  0.80364934  1
  O  O11  1  0.90935027  0.02600723  0.80270496  1
  O  O12  1  0.39250043  0.96861429  0.69728980  1
  O  O13  1  0.90315722  0.98007752  0.69594113  1
  O  O14  1  0.08823115  0.19883624  0.69592590  1
  O  O15  1  0.59496210  0.21324771  0.69556429  1
  O  O16  1  0.01039163  0.82692228  0.69711813  1
  O  O17  1  0.51339713  0.81365318  0.69612362  1
  O  O18  1  0.40166630  0.82494039  0.19581420  1
  O  O19  1  0.90199275  0.82558518  0.19584510  1
  O  O20  1  0.01036773  0.19634395  0.19578021  1
  O  O21  1  0.51023618  0.19570314  0.19574920  1
  O  O22  1  0.08706715  0.97950163  0.19715042  1
  O  O23  1  0.58710371  0.97937764  0.19718800  1
  O  O24  1  0.44109377  0.36002307  0.63640266  1
  O  O25  1  0.93836443  0.35776095  0.63799115  1
  O  O26  1  0.23980288  0.12410613  0.63641738  1
  O  O27  1  0.74218865  0.12475964  0.63522263  1
  O  O28  1  0.32010003  0.52306955  0.63962962  1
  O  O29  1  0.82000138  0.51750940  0.63700447  1
  O  O30  1  0.43903888  0.52039615  0.13798810  1
  O  O31  1  0.93757615  0.51848999  0.13584204  1
  O  O32  1  0.32111171  0.12206037  0.13790632  1
  O  O33  1  0.82111661  0.12173936  0.13777320  1
  O  O34  1  0.23970223  0.35719606  0.13794057  1
  O  O35  1  0.74066338  0.35645431  0.13595641  1
  O  O36  1  0.22258566  0.29655326  0.03122321  1
  O  O37  1  0.72163497  0.29981970  0.02885809  1
  O  O38  1  0.42603856  0.55471570  0.03120153  1
  O  O39  1  0.92809051  0.55734995  0.02878805  1
  O  O40  1  0.35108192  0.14907382  0.03106763  1
  O  O41  1  0.85181148  0.14662146  0.03122654  1
  O  O42  1  0.21964840  0.14164637  0.52899363  1
  O  O43  1  0.72635515  0.14936487  0.52832411  1
  O  O44  1  0.34496726  0.54175446  0.53188075  1
  O  O45  1  0.85170857  0.55416782  0.53058402  1
  O  O46  1  0.42675250  0.30690232  0.52983040  1
  O  O47  1  0.92628970  0.29625857  0.53127855  1
  O  O48  1  0.27097557  0.69151493  0.96831794  1
  O  O49  1  0.77308518  0.69416573  0.97054022  1
  O  O50  1  0.07351299  0.45482079  0.97048032  1
  O  O51  1  0.57636302  0.45411925  0.96980959  1
  O  O52  1  0.15016075  0.84726146  0.96963980  1
  O  O53  1  0.65475824  0.85434767  0.97024885  1
  O  O54  1  0.27234003  0.85221206  0.47030838  1
  O  O55  1  0.77264911  0.85123346  0.47041721  1
  O  O56  1  0.15288546  0.45335381  0.46974689  1
  O  O57  1  0.65469855  0.45179479  0.47238136  1
  O  O58  1  0.07615738  0.69671255  0.46967739  1
  O  O59  1  0.57548114  0.69862342  0.46878754  1
  O  O60  1  0.06058635  0.63955913  0.36263647  1
  O  O61  1  0.56090353  0.64011596  0.36227534  1
  O  O62  1  0.25741321  0.88001393  0.36345861  1
  O  O63  1  0.75723417  0.87880625  0.36363799  1
  O  O64  1  0.17964636  0.47969693  0.36278174  1
  O  O65  1  0.67948624  0.48263585  0.36476322  1
  O  O66  1  0.06005871  0.48497136  0.86344961  1
  O  O67  1  0.56068645  0.48133311  0.86340313  1
  O  O68  1  0.17920176  0.88016578  0.86303012  1
  O  O69  1  0.68097923  0.87927869  0.86313669  1
  O  O70  1  0.26168385  0.63944089  0.86043840  1
  O  O71  1  0.75809430  0.63793246  0.86394624  1
  O  O72  1  0.01296565  0.82955453  0.41057392  1
  O  O73  1  0.51277913  0.83033710  0.40978037  1
  O  O74  1  0.40236646  0.97931521  0.41045437  1
  O  O75  1  0.90260601  0.97898799  0.41058725  1
  O  O76  1  0.08738345  0.19011642  0.41079260  1
  O  O77  1  0.58777197  0.19143192  0.41126942  1
  O  O78  1  0.00982980  0.19451592  0.91055336  1
  O  O79  1  0.51296257  0.19567351  0.91090643  1
  O  O80  1  0.08453924  0.97475572  0.91081213  1
  O  O81  1  0.58792949  0.98402394  0.91086831  1
  O  O82  1  0.40270247  0.82673783  0.91077665  1
  O  O83  1  0.90466796  0.82429061  0.91078367  1
  O  O84  1  0.49282173  0.17478126  0.58867489  1
  O  O85  1  0.98926194  0.16773165  0.59404963  1
  O  O86  1  0.09389634  0.02134435  0.59390520  1
  O  O87  1  0.59845878  0.02596168  0.58895164  1
  O  O88  1  0.41334128  0.80559712  0.58928236  1
  O  O89  1  0.91558603  0.81051485  0.59264133  1
  O  O90  1  0.48929763  0.81106480  0.09374587  1
  O  O91  1  0.98919448  0.81076097  0.09271841  1
  O  O92  1  0.41582755  0.02115889  0.09344265  1
  O  O93  1  0.91617033  0.02100059  0.09348000  1
  O  O94  1  0.09449160  0.16738575  0.09378154  1
  O  O95  1  0.59493781  0.16790598  0.09280562  1
  O  O96  1  0.34175861  0.15884006  0.74353559  1
  O  O97  1  0.84786019  0.16072908  0.74184869  1
  O  O98  1  0.23492235  0.31204403  0.74188258  1
  O  O99  1  0.73710947  0.31181978  0.74468149  1
  O  O100  1  0.41833757  0.52839735  0.74410749  1
  O  O101  1  0.92007163  0.53392080  0.74169413  1
  O  O102  1  0.34661583  0.53282993  0.24154099  1
  O  O103  1  0.84688401  0.53352757  0.24144461  1
  O  O104  1  0.42004249  0.30708451  0.24170510  1
  O  O105  1  0.92004584  0.30734028  0.24161015  1
  O  O106  1  0.23338393  0.16006643  0.24200990  1
  O  O107  1  0.73336496  0.16026608  0.24213833  1
  O  O108  1  0.32213370  0.50460195  0.92240140  1
  O  O109  1  0.82325093  0.50599512  0.92293526  1
  O  O110  1  0.43060550  0.35417249  0.92369704  1
  O  O111  1  0.93113729  0.35990243  0.92280699  1
  O  O112  1  0.24624929  0.13919415  0.92360584  1
  O  O113  1  0.74625261  0.14318923  0.92228708  1
  O  O114  1  0.32020385  0.13813575  0.42300584  1
  O  O115  1  0.82032193  0.13702918  0.42271998  1
  O  O116  1  0.24573924  0.34841464  0.42219197  1
  O  O117  1  0.74641909  0.34929395  0.42249611  1
  O  O118  1  0.43053262  0.50736264  0.42214001  1
  O  O119  1  0.93077243  0.50711125  0.42290146  1
  O  O120  1  0.17310812  0.48701024  0.07827270  1
  O  O121  1  0.67388007  0.48904075  0.07797286  1
  O  O122  1  0.07054570  0.65224190  0.07771118  1
  O  O123  1  0.57013826  0.65294457  0.07848060  1
  O  O124  1  0.25613407  0.85982544  0.07819896  1
  O  O125  1  0.75594629  0.85900388  0.07821742  1
  O  O126  1  0.17210390  0.85735005  0.57825292  1
  O  O127  1  0.67771126  0.86094845  0.57689899  1
  O  O128  1  0.25240498  0.64532635  0.57847937  1
  O  O129  1  0.75472209  0.64694715  0.57760606  1
  O  O130  1  0.06979424  0.48762851  0.57835556  1
  O  O131  1  0.57220276  0.49220015  0.57721955  1
  O  O132  1  0.15153710  0.83709299  0.25265217  1
  O  O133  1  0.65185275  0.83775577  0.25279011  1
  O  O134  1  0.26737181  0.69745842  0.25248391  1
  O  O135  1  0.76754310  0.69745135  0.25253201  1
  O  O136  1  0.08130814  0.46531802  0.25236987  1
  O  O137  1  0.58128208  0.46473590  0.25225339  1
  O  O138  1  0.15348417  0.46855947  0.75271417  1
  O  O139  1  0.65701215  0.47406989  0.75549330  1
  O  O140  1  0.08101285  0.69655130  0.75283338  1
  O  O141  1  0.58009973  0.68716441  0.75583013  1
  O  O142  1  0.26349051  0.83525967  0.75597012  1
  O  O143  1  0.76831001  0.83831024  0.75236968  1
loop_
_geom_bond_atom_site_label_1
_geom_bond_atom_site_label_2
_geom_bond_distance
_geom_bond_site_symmetry_2
Na0 O100 2.341981 1_555
Na0 O142 2.350499 1_555
Na0 O98 2.486866 1_555
Na0 O138 2.526894 1_555
Na0 O28 2.687043 1_555
Na0 O70 2.699922 1_555
Na0 O12 2.733839 1_555
Na0 O8 2.738998 1_555
Na1 O87 2.339118 1_555
Na1 O84 2.359285 1_555
Na1 O131 2.375100 1_555
Na1 O129 2.423992 1_555
Na1 O15 2.697449 1_555
Na1 O57 2.717757 1_555
Na1 O43 2.825515 1_555
Na1 O29 2.834255 1_555
Na2 O111 2.340691 1_555
Na2 O80 2.346533 1_655
Na2 O83 2.425084 1_555
Na2 O109 2.470477 1_555
Na2 O39 2.705036 1_556
Na2 O52 2.729242 1_655
Na2 O9 2.749433 1_555
Na2 O66 2.752759 1_655
Na3 O79 2.330127 1_555
Na3 O81 2.392659 1_545
Na3 O113 2.414027 1_555
Na3 O109 2.418302 1_555
Na3 O7 2.704444 1_555
Na3 O37 2.740920 1_556
Na3 O51 2.769384 1_555
Na3 O71 2.787076 1_555
Na4 O114 2.340612 1_555
Na4 O72 2.359422 1_545
Na4 O116 2.402274 1_555
Na4 O76 2.410210 1_555
Na4 O42 2.699662 1_555
Na4 O0 2.743927 1_555
Na4 O62 2.762079 1_545
Na4 O58 2.773339 1_545
Na5 O73 2.349313 1_545
Na5 O115 2.354051 1_555
Na5 O77 2.414138 1_555
Na5 O117 2.421140 1_555
Na5 O43 2.723561 1_555
Na5 O1 2.737580 1_555
Na5 O59 2.741517 1_545
Na5 O63 2.766281 1_545
Na6 O75 2.484875 1_545
Na6 O76 2.534474 1_655
Na6 O72 2.567017 1_645
Na6 O89 2.647556 1_545
Na6 O85 2.651430 1_555
Na6 O86 2.718300 1_655
Na7 O88 2.460690 1_555
Na7 O74 2.510830 1_555
Na7 O84 2.549425 1_565
Na7 O73 2.608884 1_555
Na7 O87 2.660900 1_565
Na7 O77 2.687072 1_565
Na8 O78 2.503643 1_555
Na8 O80 2.565194 1_545
Na8 O83 2.600293 1_445
Na8 O94 2.605408 1_556
Na8 O93 2.627368 1_456
Na8 O91 2.684597 1_446
Na9 O82 2.453856 1_555
Na9 O79 2.553091 1_565
Na9 O81 2.561307 1_555
Na9 O92 2.645912 1_566
Na9 O90 2.649880 1_556
Na9 O95 2.736141 1_566
Na10 O110 2.495411 1_555
Na10 O112 2.545476 1_555
Na10 O108 2.574505 1_555
Na10 O96 2.574770 1_555
Na10 O100 2.625014 1_555
Na10 O98 2.728918 1_555
Na11 O99 2.504828 1_555
Na11 O97 2.522470 1_555
Na11 O113 2.568978 1_555
Na11 O111 2.628937 1_555
Na11 O101 2.635916 1_555
Na11 O109 2.690435 1_555
Na12 O118 2.515780 1_555
Na12 O116 2.591113 1_555
Na12 O114 2.603420 1_555
Na12 O102 2.607733 1_555
Na12 O104 2.608817 1_555
Na12 O106 2.686516 1_555
Na13 O119 2.539235 1_555
Na13 O105 2.596786 1_555
Na13 O103 2.599194 1_555
Na13 O117 2.604569 1_555
Na13 O115 2.617577 1_555
Na13 O107 2.675874 1_555
Na14 O134 2.534565 1_555
Na14 O136 2.541826 1_555
Na14 O132 2.543573 1_555
Na14 O120 2.558016 1_555
Na14 O124 2.559704 1_555
Na14 O122 2.571653 1_555
Na15 O137 2.531150 1_555
Na15 O133 2.537430 1_555
Na15 O135 2.544220 1_555
Na15 O123 2.557762 1_555
Na15 O121 2.566090 1_555
Na15 O125 2.567408 1_555
Na16 O126 2.485735 1_555
Na16 O128 2.521123 1_555
Na16 O130 2.534907 1_555
Na16 O140 2.565874 1_555
Na16 O138 2.602826 1_555
Na16 O142 2.605086 1_555
Na17 O141 2.468250 1_555
Na17 O143 2.513802 1_555
Na17 O139 2.564888 1_555
Na17 O127 2.581506 1_555
Na17 O131 2.604059 1_555
Na17 O129 2.687065 1_555
Mg0 O5 2.012156 1_565
Mg0 O3 2.013421 1_555
Mg0 O75 2.042839 1_555
Mg0 O0 2.089162 1_665
Mg0 O76 2.103292 1_665
Mg0 O72 2.107692 1_655
Mg1 O4 2.005813 1_565
Mg1 O2 2.014313 1_555
Mg1 O74 2.035650 1_555
Mg1 O73 2.093085 1_555
Mg1 O1 2.097314 1_565
Mg1 O77 2.121135 1_565
Mg2 O11 2.006349 1_455
Mg2 O6 2.011791 1_555
Mg2 O78 2.040966 1_555
Mg2 O9 2.088793 1_445
Mg2 O80 2.095421 1_545
Mg2 O83 2.116154 1_445
Mg3 O8 2.017651 1_555
Mg3 O10 2.018962 1_565
Mg3 O82 2.064220 1_555
Mg3 O7 2.093215 1_565
Mg3 O79 2.124646 1_565
Mg3 O81 2.137313 1_555
Mg4 O17 2.007695 1_555
Mg4 O12 2.016845 1_555
Mg4 O88 2.059141 1_555
Mg4 O15 2.098790 1_565
Mg4 O84 2.125579 1_565
Mg4 O87 2.147557 1_565
Mg5 O24 1.982203 1_555
Mg5 O26 2.041394 1_555
Mg5 O28 2.065333 1_555
Mg5 O96 2.068814 1_555
Mg5 O100 2.103159 1_555
Mg5 O98 2.170611 1_555
Mg6 O27 2.024496 1_555
Mg6 O29 2.052681 1_555
Mg6 O99 2.054650 1_555
Mg6 O25 2.056331 1_555
Mg6 O97 2.064586 1_555
Mg6 O101 2.098628 1_555
Mg7 O32 2.025910 1_555
Mg7 O30 2.027833 1_555
Mg7 O34 2.030433 1_555
Mg7 O102 2.081903 1_555
Mg7 O104 2.082593 1_555
Mg7 O106 2.093027 1_555
Mg8 O35 2.033337 1_555
Mg8 O33 2.036462 1_555
Mg8 O31 2.044733 1_555
Mg8 O103 2.076719 1_555
Mg8 O105 2.082177 1_555
Mg8 O107 2.084086 1_555
Mg9 O108 2.056823 1_555
Mg9 O110 2.078762 1_555
Mg9 O112 2.088858 1_555
Mg9 O38 2.092337 1_556
Mg9 O36 2.102595 1_556
Mg9 O40 2.117538 1_556
Mg10 O41 1.998554 1_556
Mg10 O113 2.086729 1_555
Mg10 O111 2.097639 1_555
Mg10 O37 2.101759 1_556
Mg10 O39 2.123078 1_556
Mg10 O109 2.194003 1_555
Mg11 O44 1.985539 1_555
Mg11 O46 2.018775 1_555
Mg11 O118 2.064934 1_555
Mg11 O116 2.130223 1_555
Mg11 O114 2.145893 1_555
Mg11 O42 2.175530 1_555
Mg12 O119 2.039815 1_555
Mg12 O47 2.046986 1_555
Mg12 O45 2.075283 1_555
Mg12 O43 2.096095 1_555
Mg12 O115 2.104774 1_555
Mg12 O117 2.142076 1_555
Mg13 O48 1.997417 1_554
Mg13 O52 2.051724 1_554
Mg13 O50 2.053598 1_554
Mg13 O124 2.111032 1_555
Mg13 O120 2.112679 1_555
Mg13 O122 2.151048 1_555
Mg14 O53 2.015980 1_554
Mg14 O51 2.027974 1_554
Mg14 O49 2.076738 1_554
Mg14 O123 2.092297 1_555
Mg14 O125 2.126361 1_555
Mg14 O121 2.129582 1_555
Mg15 O56 2.016509 1_555
Mg15 O54 2.028566 1_555
Mg15 O128 2.057251 1_555
Mg15 O58 2.078680 1_555
Mg15 O130 2.132622 1_555
Mg15 O126 2.147577 1_555
Mg16 O59 1.995724 1_555
Mg16 O55 2.021644 1_555
Mg16 O127 2.061840 1_555
Mg16 O57 2.078859 1_555
Mg16 O131 2.100346 1_555
Mg16 O129 2.173136 1_555
Mg17 O64 2.026804 1_555
Mg17 O60 2.047497 1_555
Mg17 O62 2.049969 1_555
Mg17 O134 2.157328 1_555
Mg17 O136 2.161739 1_555
Mg17 O132 2.173778 1_555
Mg18 O61 2.042978 1_555
Mg18 O65 2.043930 1_555
Mg18 O63 2.059289 1_555
Mg18 O137 2.149956 1_555
Mg18 O135 2.152443 1_555
Mg18 O133 2.155858 1_555
Mg19 O68 1.989213 1_555
Mg19 O66 2.040450 1_555
Mg19 O70 2.050745 1_555
Mg19 O142 2.089379 1_555
Mg19 O140 2.169155 1_555
Mg19 O138 2.218749 1_555
Mg20 O67 2.027130 1_555
Mg20 O141 2.049898 1_555
Mg20 O69 2.054118 1_555
Mg20 O139 2.078648 1_555
Mg20 O71 2.084229 1_555
Mg20 O143 2.192624 1_555
O0 S0 1.468988 1_555
O1 S1 1.471843 1_555
O2 S2 1.458682 1_555
O3 S3 1.459878 1_555
O4 S5 1.459460 1_555
O5 S4 1.457428 1_555
O6 S6 1.445379 1_555
O7 S7 1.485204 1_555
O8 S9 1.479417 1_555
O9 S8 1.468807 1_555
O10 S10 1.470177 1_555
O11 S11 1.457179 1_555
O12 S10 1.481338 1_565
O13 S11 1.535643 1_565
O13 Ti0 1.928037 1_665
O14 S6 1.520363 1_555
O14 Ti0 1.948243 1_555
O15 S7 1.487179 1_555
O16 S8 1.529946 1_455
O16 Ti0 1.958000 1_565
O17 S9 1.473175 1_555
O18 S2 1.534354 1_555
O18 Ti2 1.932650 1_555
O19 S3 1.530708 1_555
O19 Ti1 1.945688 1_665
O20 S4 1.535275 1_455
O20 Ti1 1.929441 1_555
O21 S5 1.531249 1_555
O21 Ti2 1.940244 1_545
O22 S0 1.529112 1_565
O22 Ti1 1.947775 1_565
O23 S1 1.523463 1_565
O23 Ti2 1.971173 1_555
O24 S12 1.466921 1_555
O25 S13 1.457070 1_555
O26 S14 1.460663 1_555
O27 S15 1.469158 1_555
O28 S16 1.486957 1_555
O29 S17 1.469881 1_555
O30 S18 1.459389 1_555
O31 S19 1.454310 1_555
O32 S20 1.459336 1_555
O33 S21 1.453764 1_555
O34 S22 1.460218 1_555
O35 S23 1.453898 1_555
O36 S22 1.465316 1_555
O37 S23 1.485354 1_555
O38 S18 1.466445 1_555
O39 S19 1.484077 1_555
O40 S20 1.464151 1_555
O41 S21 1.475875 1_555
O42 S14 1.472848 1_555
O43 S15 1.494833 1_555
O44 S16 1.472920 1_555
O45 S17 1.468422 1_555
O46 S12 1.468581 1_555
O47 S13 1.464674 1_555
O48 S24 1.474123 1_555
O49 S25 1.465308 1_555
O50 S26 1.468918 1_555
O51 S27 1.484695 1_555
O52 S28 1.480648 1_555
O53 S29 1.470337 1_555
O54 S30 1.475346 1_555
O55 S31 1.478507 1_555
O56 S32 1.474927 1_555
O57 S33 1.489689 1_555
O58 S34 1.484298 1_555
O59 S35 1.485520 1_555
O60 S34 1.472826 1_555
O61 S35 1.468490 1_555
O62 S30 1.482923 1_555
O63 S31 1.478794 1_555
O64 S32 1.469486 1_555
O65 S33 1.462095 1_555
O66 S26 1.486617 1_555
O67 S27 1.472021 1_555
O68 S28 1.476478 1_555
O69 S29 1.471748 1_555
O70 S24 1.493723 1_555
O71 S25 1.477551 1_555
O72 S34 1.499465 1_555
O73 S35 1.497144 1_555
O74 S30 1.477398 1_555
O75 S31 1.476362 1_555
O76 S32 1.498205 1_555
O77 S33 1.495271 1_555
O78 S26 1.473881 1_555
O79 S27 1.497513 1_555
O80 S28 1.501531 1_555
O81 S29 1.493167 1_555
O82 S24 1.482918 1_555
O83 S25 1.485534 1_555
O84 S12 1.493283 1_555
O85 S13 1.545913 1_555
O85 Ti0 1.964400 1_655
O86 S14 1.541078 1_555
O86 Ti0 1.977471 1_555
O87 S15 1.492290 1_555
O88 S16 1.484039 1_555
O89 S17 1.513411 1_555
O89 Ti0 2.018537 1_665
O90 S18 1.539556 1_555
O90 Ti2 1.983027 1_555
O91 S19 1.531148 1_555
O91 Ti1 2.014194 1_665
O92 S20 1.544985 1_555
O92 Ti2 1.973632 1_545
O93 S21 1.534510 1_555
O93 Ti1 1.989557 1_655
O94 S22 1.543399 1_555
O94 Ti1 1.981555 1_555
O95 S23 1.528643 1_555
O95 Ti2 2.015423 1_545
O96 S10 1.472339 1_555
O97 S11 1.469685 1_555
O98 S6 1.480788 1_555
O99 S7 1.488759 1_555
O100 S9 1.501503 1_555
O101 S8 1.468077 1_555
O102 S2 1.470157 1_555
O103 S3 1.470606 1_555
O104 S5 1.472207 1_555
O105 S4 1.469700 1_555
O106 S0 1.471942 1_555
O107 S1 1.472746 1_555
O108 S24 1.481515 1_555
O109 S25 1.513809 1_555
O110 S27 1.476579 1_555
O111 S26 1.502649 1_655
O112 S28 1.471768 1_545
O113 S29 1.504367 1_545
O114 S30 1.496681 1_545
O115 S31 1.497272 1_545
O116 S32 1.495093 1_555
O117 S33 1.496009 1_555
O118 S35 1.476184 1_555
O119 S34 1.478441 1_655
O120 S22 1.475783 1_555
O121 S23 1.474953 1_555
O122 S19 1.476733 1_455
O123 S18 1.475656 1_555
O124 S20 1.476763 1_565
O125 S21 1.471355 1_565
O126 S14 1.474551 1_565
O127 S15 1.479699 1_565
O128 S16 1.486388 1_555
O129 S17 1.486310 1_555
O130 S13 1.473257 1_455
O131 S12 1.501841 1_555
O132 S0 1.474583 1_565
O133 S1 1.476568 1_565
O134 S2 1.475436 1_555
O135 S3 1.476018 1_555
O136 S4 1.475233 1_455
O137 S5 1.474084 1_555
O138 S6 1.488931 1_555
O139 S7 1.482428 1_555
O140 S8 1.476862 1_455
O141 S9 1.472951 1_555
O142 S10 1.505202 1_565
O143 S11 1.470541 1_565
