# generated using pymatgen
data_MgCd2(NiO2)4
_symmetry_space_group_name_H-M   'P 1'
_cell_length_a   6.29012421
_cell_length_b   6.10231313
_cell_length_c   5.79988493
_cell_angle_alpha   61.63106709
_cell_angle_beta   90.19685113
_cell_angle_gamma   115.87836355
_symmetry_Int_Tables_number   1
_chemical_formula_structural   MgCd2(NiO2)4
_chemical_formula_sum   'Mg1 Cd2 Ni4 O8'
_cell_volume   170.29677043
_cell_formula_units_Z   1
loop_
 _symmetry_equiv_pos_site_id
 _symmetry_equiv_pos_as_xyz
  1  'x, y, z'
loop_
 _atom_site_type_symbol
 _atom_site_label
 _atom_site_symmetry_multiplicity
 _atom_site_fract_x
 _atom_site_fract_y
 _atom_site_fract_z
 _atom_site_occupancy
  Mg  Mg0  1  0.39273828  0.30633466  0.84785865  1
  Cd  Cd0  1  0.89639606  0.87676873  0.05381341  1
  Cd  Cd1  1  0.89483956  0.42847943  0.78724071  1
  Ni  Ni0  1  0.35635096  0.27059692  0.36535942  1
  Ni  Ni1  1  0.84406645  0.20931739  0.39584241  1
  Ni  Ni2  1  0.38366569  0.79593141  0.35516915  1
  Ni  Ni3  1  0.38314924  0.79515828  0.85145532  1
  O  O0  1  0.11558792  0.27994287  0.10983243  1
  O  O1  1  0.60280552  0.25087107  0.13953797  1
  O  O2  1  0.52202990  0.69805183  0.15231323  1
  O  O3  1  0.21162421  0.83992560  0.07953193  1
  O  O4  1  0.60256234  0.24807355  0.61489289  1
  O  O5  1  0.11670291  0.27918550  0.60928984  1
  O  O6  1  0.20992183  0.84917817  0.57615748  1
  O  O7  1  0.57172712  0.75760157  0.62420516  1
loop_
_geom_bond_atom_site_label_1
_geom_bond_atom_site_label_2
_geom_bond_distance
_geom_bond_site_symmetry_2
Mg0 O7 2.107740 1_555
Mg0 O1 2.133848 1_556
Mg0 O4 2.138307 1_555
Mg0 O3 2.179422 1_546
Mg0 O5 2.215164 1_555
Mg0 O0 2.216816 1_556
Cd0 O2 2.058221 1_555
Cd0 O3 2.087973 1_655
Cd0 O5 2.373863 1_664
Cd0 O0 2.419718 1_665
Cd1 O6 2.146145 1_655
Cd1 O4 2.203966 1_555
Cd1 O1 2.215264 1_556
Cd1 O0 2.391535 1_656
Cd1 O5 2.419925 1_655
Ni0 O6 1.977041 1_545
Ni0 O2 1.997482 1_555
Ni0 O5 2.104923 1_555
Ni0 O1 2.111820 1_555
Ni0 O0 2.114901 1_555
Ni0 O4 2.119745 1_555
Ni1 O5 2.122271 1_655
Ni1 O1 2.130559 1_555
Ni1 O0 2.133525 1_655
Ni1 O4 2.142444 1_555
Ni1 O7 2.170547 1_545
Ni2 O2 1.904495 1_555
Ni2 O3 1.905975 1_555
Ni2 O6 1.912612 1_555
Ni2 O7 1.941861 1_555
Ni2 O1 2.131501 1_565
Ni2 O5 2.431829 1_555
Ni3 O3 1.897113 1_556
Ni3 O2 1.902076 1_556
Ni3 O6 1.909657 1_555
Ni3 O7 1.931796 1_555
Ni3 O4 2.122665 1_565
Ni3 O0 2.425700 1_556
