# generated using pymatgen
data_Na10Sc4Al4Si5S7O48
_symmetry_space_group_name_H-M   'P 1'
_cell_length_a   17.66225951
_cell_length_b   8.86395418
_cell_length_c   22.22740459
_cell_angle_alpha   89.63029263
_cell_angle_beta   89.39318816
_cell_angle_gamma   119.99179018
_symmetry_Int_Tables_number   1
_chemical_formula_structural   Na10Sc4Al4Si5S7O48
_chemical_formula_sum   'Na30 Sc12 Al12 Si15 S21 O144'
_cell_volume   3013.45537024
_cell_formula_units_Z   3
loop_
 _symmetry_equiv_pos_site_id
 _symmetry_equiv_pos_as_xyz
  1  'x, y, z'
loop_
 _atom_site_type_symbol
 _atom_site_label
 _atom_site_symmetry_multiplicity
 _atom_site_fract_x
 _atom_site_fract_y
 _atom_site_fract_z
 _atom_site_occupancy
  Na  Na0  1  0.32537701  0.00004714  0.24945424  1
  Na  Na1  1  0.82431636  0.00121154  0.25256258  1
  Na  Na2  1  0.18475805  0.37459017  0.24154056  1
  Na  Na3  1  0.67660621  0.36500919  0.24475844  1
  Na  Na4  1  0.99485689  0.63278698  0.25946394  1
  Na  Na5  1  0.49640738  0.62628876  0.25871716  1
  Na  Na6  1  0.82662197  0.65054635  0.74486726  1
  Na  Na7  1  0.99484103  0.36018377  0.75628387  1
  Na  Na8  1  0.49802520  0.35411314  0.75680334  1
  Na  Na9  1  0.17779033  0.99079863  0.74195882  1
  Na  Na10  1  0.01880212  0.70965486  0.58589075  1
  Na  Na11  1  0.33022553  0.97359112  0.59092844  1
  Na  Na12  1  0.02072152  0.32880255  0.08326124  1
  Na  Na13  1  0.51611002  0.33328970  0.08509088  1
  Na  Na14  1  0.16218632  0.30271975  0.92591181  1
  Na  Na15  1  0.66344365  0.30031353  0.92639026  1
  Na  Na16  1  0.16357133  0.02070279  0.42520310  1
  Na  Na17  1  0.66206144  0.02787643  0.42542882  1
  Na  Na18  1  0.99472550  0.99828664  0.50184690  1
  Na  Na19  1  0.51017791  0.99273975  0.49656898  1
  Na  Na20  1  0.00287354  0.00088297  0.00037975  1
  Na  Na21  1  0.50058305  0.99449306  0.00449710  1
  Na  Na22  1  0.34506232  0.33487284  0.83556627  1
  Na  Na23  1  0.84586893  0.32098234  0.83083075  1
  Na  Na24  1  0.35112842  0.36586120  0.33724517  1
  Na  Na25  1  0.84674608  0.35799465  0.33868176  1
  Na  Na26  1  0.17633309  0.66350821  0.16814080  1
  Na  Na27  1  0.67508366  0.66058880  0.16567478  1
  Na  Na28  1  0.17249105  0.67277893  0.66924971  1
  Na  Na29  1  0.67945726  0.71232399  0.65974175  1
  Sc  Sc0  1  0.98935597  0.98363161  0.35417261  1
  Sc  Sc1  1  0.99000830  0.99209940  0.84895839  1
  Sc  Sc2  1  0.49394727  0.01270842  0.85217150  1
  Sc  Sc3  1  0.50748163  0.00157744  0.64240432  1
  Sc  Sc4  1  0.99842014  0.00580145  0.15183904  1
  Sc  Sc5  1  0.82787118  0.34025997  0.18520116  1
  Sc  Sc6  1  0.33678138  0.33482787  0.98347353  1
  Sc  Sc7  1  0.83178446  0.33133111  0.98260889  1
  Sc  Sc8  1  0.16762079  0.65051761  0.02088869  1
  Sc  Sc9  1  0.16375103  0.67073229  0.52029507  1
  Sc  Sc10  1  0.16170351  0.66664650  0.81156463  1
  Sc  Sc11  1  0.66729270  0.67953588  0.81283682  1
  Al  Al0  1  0.48581925  0.97194340  0.34880083  1
  Al  Al1  1  0.00192980  0.99220293  0.64756744  1
  Al  Al2  1  0.49914261  0.01518836  0.15248247  1
  Al  Al3  1  0.33134823  0.32122595  0.68155833  1
  Al  Al4  1  0.83120162  0.31278581  0.68516332  1
  Al  Al5  1  0.33786610  0.35261730  0.18766377  1
  Al  Al6  1  0.33736299  0.34840826  0.48209513  1
  Al  Al7  1  0.83646031  0.34699574  0.48355036  1
  Al  Al8  1  0.66307140  0.64607574  0.01915643  1
  Al  Al9  1  0.66035149  0.69821955  0.51771210  1
  Al  Al10  1  0.16048739  0.64621112  0.31499688  1
  Al  Al11  1  0.65304043  0.63196511  0.31662897  1
  Si  Si0  1  0.35558806  0.71276502  0.24963078  1
  Si  Si1  1  0.84424214  0.70233099  0.25363957  1
  Si  Si2  1  0.00169566  0.30177919  0.25124878  1
  Si  Si3  1  0.49682548  0.28304838  0.25133447  1
  Si  Si4  1  0.99351212  0.69781709  0.74296080  1
  Si  Si5  1  0.35338513  0.00883010  0.74276101  1
  Si  Si6  1  0.85569644  0.00312357  0.74249141  1
  Si  Si7  1  0.18800891  0.05980138  0.58115495  1
  Si  Si8  1  0.69700582  0.05492803  0.57929766  1
  Si  Si9  1  0.18943543  0.32800690  0.08645399  1
  Si  Si10  1  0.67673130  0.32520367  0.08296067  1
  Si  Si11  1  0.01473579  0.36224690  0.91677325  1
  Si  Si12  1  0.52085148  0.37884965  0.91710845  1
  Si  Si13  1  0.01596844  0.65443366  0.41737348  1
  Si  Si14  1  0.51752654  0.66683374  0.41544732  1
  S  S0  1  0.15125566  0.00110622  0.25201783  1
  S  S1  1  0.63910104  0.99355876  0.25130094  1
  S  S2  1  0.15036083  0.29056324  0.74502154  1
  S  S3  1  0.65120933  0.29240455  0.74931266  1
  S  S4  1  0.49478844  0.69855598  0.74767031  1
  S  S5  1  0.47972999  0.34696384  0.58052061  1
  S  S6  1  0.97411356  0.32417653  0.58399229  1
  S  S7  1  0.33415854  0.61191913  0.58403070  1
  S  S8  1  0.82961228  0.61974847  0.58205551  1
  S  S9  1  0.48224990  0.63573122  0.08614795  1
  S  S10  1  0.98176918  0.63351599  0.08344133  1
  S  S11  1  0.33451084  0.04223351  0.08920537  1
  S  S12  1  0.82580125  0.02168745  0.08231663  1
  S  S13  1  0.31526621  0.66774129  0.91520065  1
  S  S14  1  0.80985571  0.66949274  0.91953987  1
  S  S15  1  0.16732830  0.96138230  0.91662826  1
  S  S16  1  0.66534153  0.95030843  0.92102079  1
  S  S17  1  0.31626134  0.96138577  0.41505243  1
  S  S18  1  0.80630251  0.95155357  0.41801720  1
  S  S19  1  0.17129899  0.37896954  0.41605192  1
  S  S20  1  0.66685755  0.38309991  0.41930007  1
  O  O0  1  0.11401971  0.03489546  0.30650554  1
  O  O1  1  0.60188714  0.02729899  0.30633853  1
  O  O2  1  0.41852038  0.78438073  0.30728838  1
  O  O3  1  0.91434850  0.78068073  0.30769214  1
  O  O4  1  0.47954853  0.14705773  0.30693256  1
  O  O5  1  0.98450870  0.16924597  0.30662394  1
  O  O6  1  0.11575555  0.18644761  0.80174328  1
  O  O7  1  0.61458302  0.19138911  0.80624024  1
  O  O8  1  0.48566051  0.77853900  0.80274370  1
  O  O9  1  0.97501697  0.78363043  0.80201507  1
  O  O10  1  0.41899848  0.05131949  0.80030278  1
  O  O11  1  0.91365860  0.04470124  0.80395751  1
  O  O12  1  0.39903249  0.98513934  0.68257498  1
  O  O13  1  0.91004159  0.97412054  0.68849915  1
  O  O14  1  0.09258502  0.20180554  0.69410966  1
  O  O15  1  0.59227881  0.20595728  0.69894290  1
  O  O16  1  0.01820426  0.82941285  0.68466294  1
  O  O17  1  0.50947800  0.80829241  0.69397729  1
  O  O18  1  0.40246652  0.84673092  0.19273317  1
  O  O19  1  0.88764593  0.82987919  0.19507187  1
  O  O20  1  0.02265534  0.22709384  0.18959612  1
  O  O21  1  0.51949008  0.21054457  0.19032537  1
  O  O22  1  0.09348940  0.96493205  0.19996957  1
  O  O23  1  0.58518950  0.97022848  0.19795479  1
  O  O24  1  0.44139641  0.36961285  0.63809700  1
  O  O25  1  0.93618986  0.35939771  0.63859562  1
  O  O26  1  0.25077069  0.14597048  0.63940577  1
  O  O27  1  0.75314413  0.15280373  0.63796313  1
  O  O28  1  0.32920939  0.51086728  0.63866108  1
  O  O29  1  0.81896370  0.52118085  0.63866599  1
  O  O30  1  0.44244409  0.51647823  0.14020895  1
  O  O31  1  0.94272048  0.52537798  0.13903636  1
  O  O32  1  0.32661058  0.13023871  0.14337002  1
  O  O33  1  0.81388924  0.09469875  0.13924588  1
  O  O34  1  0.25009866  0.34259772  0.14380999  1
  O  O35  1  0.73562657  0.35445044  0.14245886  1
  O  O36  1  0.23240559  0.31698563  0.02243888  1
  O  O37  1  0.72254081  0.30207768  0.02232537  1
  O  O38  1  0.42922592  0.55315741  0.03253605  1
  O  O39  1  0.92914786  0.54225212  0.03095395  1
  O  O40  1  0.35133741  0.15391044  0.03476994  1
  O  O41  1  0.84237004  0.14426329  0.03177638  1
  O  O42  1  0.23959182  0.17107376  0.51968696  1
  O  O43  1  0.74259779  0.17053372  0.51788379  1
  O  O44  1  0.34253435  0.53022877  0.52891694  1
  O  O45  1  0.84900711  0.53542206  0.53042949  1
  O  O46  1  0.42004558  0.31925958  0.53023148  1
  O  O47  1  0.92307707  0.30979069  0.53007970  1
  O  O48  1  0.27641295  0.69227737  0.97074013  1
  O  O49  1  0.76338722  0.68609546  0.97244215  1
  O  O50  1  0.07674726  0.45940093  0.97595358  1
  O  O51  1  0.58203081  0.47827223  0.97470846  1
  O  O52  1  0.16231258  0.85899137  0.97001662  1
  O  O53  1  0.66029661  0.84476636  0.97388363  1
  O  O54  1  0.27784631  0.85968712  0.47185376  1
  O  O55  1  0.76251178  0.84084937  0.47168765  1
  O  O56  1  0.16256441  0.46600500  0.46927164  1
  O  O57  1  0.65745924  0.47447788  0.47101251  1
  O  O58  1  0.07673574  0.68881637  0.47714378  1
  O  O59  1  0.58420324  0.71086594  0.47141199  1
  O  O60  1  0.06976758  0.64008409  0.35816520  1
  O  O61  1  0.56379288  0.63721042  0.35503191  1
  O  O62  1  0.25859639  0.87257676  0.36312207  1
  O  O63  1  0.75589701  0.87019480  0.36262463  1
  O  O64  1  0.18143956  0.48226276  0.36000552  1
  O  O65  1  0.67810660  0.48231150  0.36141949  1
  O  O66  1  0.06373934  0.47404376  0.85556502  1
  O  O67  1  0.56611277  0.48098316  0.85368372  1
  O  O68  1  0.17771366  0.88415324  0.86029110  1
  O  O69  1  0.67802022  0.87709585  0.86448831  1
  O  O70  1  0.26237881  0.65059253  0.86242745  1
  O  O71  1  0.76192760  0.65183068  0.86320144  1
  O  O72  1  0.01393557  0.83781428  0.41427948  1
  O  O73  1  0.51277717  0.85033645  0.40650409  1
  O  O74  1  0.40392934  0.98010309  0.40865208  1
  O  O75  1  0.89498932  0.97260859  0.41698153  1
  O  O76  1  0.09388116  0.20203832  0.41298736  1
  O  O77  1  0.58971715  0.20493079  0.41465376  1
  O  O78  1  0.01354699  0.17629484  0.91469855  1
  O  O79  1  0.51708402  0.18717584  0.91587687  1
  O  O80  1  0.08795616  0.97773656  0.91392161  1
  O  O81  1  0.58526439  0.96390981  0.91772445  1
  O  O82  1  0.40458081  0.81813646  0.91071872  1
  O  O83  1  0.89790562  0.82231371  0.91803507  1
  O  O84  1  0.48550500  0.18513218  0.58373494  1
  O  O85  1  0.98350359  0.16887873  0.58934869  1
  O  O86  1  0.08790345  0.02953650  0.58785981  1
  O  O87  1  0.59713248  0.02919166  0.58384753  1
  O  O88  1  0.41122261  0.79084366  0.58504120  1
  O  O89  1  0.91072558  0.79687288  0.58486409  1
  O  O90  1  0.48966221  0.80613992  0.09444053  1
  O  O91  1  0.98843731  0.80397336  0.08761195  1
  O  O92  1  0.41317073  0.02199481  0.09228501  1
  O  O93  1  0.90631941  0.00806903  0.08455719  1
  O  O94  1  0.08937426  0.15978757  0.08789471  1
  O  O95  1  0.57906412  0.15002609  0.09139759  1
  O  O96  1  0.34579699  0.18911406  0.73864518  1
  O  O97  1  0.84462549  0.17420644  0.73814078  1
  O  O98  1  0.23940715  0.31411099  0.73677759  1
  O  O99  1  0.73948947  0.31819292  0.74116914  1
  O  O100  1  0.41551521  0.52266404  0.74112246  1
  O  O101  1  0.90659161  0.50563356  0.73320873  1
  O  O102  1  0.34200544  0.51531325  0.24025203  1
  O  O103  1  0.83037278  0.50597221  0.24666504  1
  O  O104  1  0.41059538  0.30949489  0.24111986  1
  O  O105  1  0.91358156  0.31718807  0.24446059  1
  O  O106  1  0.23940722  0.15669156  0.24278249  1
  O  O107  1  0.72901695  0.14697890  0.24514279  1
  O  O108  1  0.31949249  0.50483283  0.91886285  1
  O  O109  1  0.81517488  0.50770080  0.92327005  1
  O  O110  1  0.42362459  0.35257156  0.92160003  1
  O  O111  1  0.91913729  0.34608380  0.92169169  1
  O  O112  1  0.24465372  0.14127630  0.91876657  1
  O  O113  1  0.74150650  0.13058410  0.92296808  1
  O  O114  1  0.32209120  0.13499348  0.41963872  1
  O  O115  1  0.81429464  0.12652538  0.42132929  1
  O  O116  1  0.25081202  0.35998270  0.41916675  1
  O  O117  1  0.74687447  0.36417379  0.42218313  1
  O  O118  1  0.42098958  0.49225764  0.42822523  1
  O  O119  1  0.91934783  0.48009928  0.42753377  1
  O  O120  1  0.17690412  0.50266988  0.08584974  1
  O  O121  1  0.66694051  0.50229776  0.07659436  1
  O  O122  1  0.07012833  0.65295215  0.07887882  1
  O  O123  1  0.57041645  0.65214196  0.07865024  1
  O  O124  1  0.25476347  0.87206318  0.08341936  1
  O  O125  1  0.74738558  0.84970269  0.07279328  1
  O  O126  1  0.17918994  0.86103205  0.57913813  1
  O  O127  1  0.68429108  0.85663885  0.57460933  1
  O  O128  1  0.25453799  0.62909851  0.58288783  1
  O  O129  1  0.75117331  0.63438845  0.57274077  1
  O  O130  1  0.06393877  0.48331210  0.57968164  1
  O  O131  1  0.56797016  0.50041383  0.57295776  1
  O  O132  1  0.16251138  0.84600282  0.25896943  1
  O  O133  1  0.64942234  0.83774328  0.25612247  1
  O  O134  1  0.25791839  0.69346474  0.26233093  1
  O  O135  1  0.74888536  0.68980961  0.26556310  1
  O  O136  1  0.08898731  0.49638066  0.25802950  1
  O  O137  1  0.58263927  0.47866222  0.25946128  1
  O  O138  1  0.15750160  0.46364564  0.74991166  1
  O  O139  1  0.65862988  0.46739384  0.75342465  1
  O  O140  1  0.07907818  0.67196911  0.74963669  1
  O  O141  1  0.57195667  0.67122178  0.75031054  1
  O  O142  1  0.25600121  0.84303056  0.75210660  1
  O  O143  1  0.76104220  0.82113296  0.74958011  1
loop_
_geom_bond_atom_site_label_1
_geom_bond_atom_site_label_2
_geom_bond_distance
_geom_bond_site_symmetry_2
Na0 O134 2.373223 1_545
Na0 O104 2.384010 1_555
Na0 O132 2.498082 1_545
Na0 O106 2.522973 1_555
Na0 O32 2.613605 1_555
Na0 O18 2.669440 1_545
Na0 O4 2.700524 1_555
Na0 O62 2.760243 1_545
Na1 O135 2.404683 1_545
Na1 O105 2.436273 1_555
Na1 O107 2.589835 1_555
Na1 O19 2.623651 1_545
Na1 O133 2.677012 1_545
Na1 O33 2.683300 1_555
Na1 O63 2.700282 1_545
Na1 O5 2.747662 1_555
Na2 O102 2.409301 1_555
Na2 O136 2.445120 1_555
Na2 O134 2.500080 1_555
Na2 O34 2.532427 1_555
Na2 O106 2.554720 1_555
Na2 O20 2.754438 1_555
Na2 O64 2.816556 1_555
Na2 O0 2.976091 1_555
Na3 O137 2.353828 1_555
Na3 O103 2.355730 1_555
Na3 O35 2.513149 1_555
Na3 O107 2.525960 1_555
Na3 O135 2.547063 1_555
Na3 O21 2.707992 1_555
Na3 O65 2.795449 1_555
Na3 O1 2.921514 1_555
Na4 O105 2.450521 1_555
Na4 O136 2.497219 1_655
Na4 O103 2.557588 1_555
Na4 O60 2.558435 1_655
Na4 O3 2.595980 1_555
Na4 O132 2.597011 1_655
Na4 O31 2.851003 1_555
Na4 O22 2.867886 1_655
Na5 O133 2.398216 1_555
Na5 O102 2.433123 1_555
Na5 O61 2.439363 1_555
Na5 O137 2.454593 1_555
Na5 O104 2.471251 1_555
Na5 O2 2.633824 1_555
Na5 O30 2.820153 1_555
Na5 O23 2.949571 1_555
Na6 O143 2.321512 1_555
Na6 O101 2.349994 1_555
Na6 O99 2.554814 1_555
Na6 O139 2.577568 1_555
Na6 O29 2.606176 1_555
Na6 O9 2.621730 1_555
Na6 O13 2.767059 1_555
Na6 O71 2.858983 1_555
Na7 O97 2.361774 1_555
Na7 O140 2.398434 1_655
Na7 O66 2.495396 1_655
Na7 O101 2.524323 1_555
Na7 O138 2.543735 1_655
Na7 O11 2.630534 1_555
Na7 O25 2.822505 1_555
Na8 O96 2.372816 1_555
Na8 O141 2.438860 1_555
Na8 O67 2.466179 1_555
Na8 O139 2.491451 1_555
Na8 O10 2.505852 1_555
Na8 O100 2.580335 1_555
Na8 O24 2.858273 1_555
Na8 O15 2.883067 1_555
Na9 O142 2.342301 1_555
Na9 O140 2.473277 1_555
Na9 O98 2.507111 1_565
Na9 O96 2.584489 1_565
Na9 O26 2.621872 1_565
Na9 O16 2.771550 1_555
Na9 O68 2.788944 1_555
Na9 O6 2.805790 1_565
Na10 O89 2.391251 1_455
Na10 O16 2.446987 1_555
Na10 O126 2.456837 1_555
Na10 O86 2.464567 1_565
Na10 O130 2.506013 1_555
Na10 O58 2.658222 1_555
Na10 O45 2.893281 1_455
Na10 O25 2.920319 1_455
Na11 O126 2.353225 1_555
Na11 O12 2.359617 1_555
Na11 O84 2.430809 1_565
Na11 O88 2.646363 1_555
Na11 O128 2.659765 1_555
Na11 O26 2.756462 1_565
Na11 O54 2.834239 1_555
Na11 O46 2.960858 1_565
Na12 O94 2.354174 1_555
Na12 O120 2.396294 1_555
Na12 O20 2.530870 1_555
Na12 O93 2.533920 1_455
Na12 O122 2.552341 1_555
Na12 O50 2.603355 1_554
Na13 O121 2.317894 1_555
Na13 O95 2.387667 1_555
Na13 O92 2.432602 1_555
Na13 O123 2.492002 1_555
Na13 O21 2.587222 1_555
Na13 O51 2.725762 1_554
Na13 O40 2.777496 1_555
Na13 O30 2.816835 1_555
Na14 O78 2.299210 1_555
Na14 O108 2.442205 1_555
Na14 O36 2.461830 1_556
Na14 O112 2.505300 1_555
Na14 O80 2.515855 1_545
Na14 O50 2.742788 1_555
Na14 O6 2.931156 1_555
Na15 O79 2.273063 1_555
Na15 O109 2.373864 1_555
Na15 O37 2.380773 1_556
Na15 O113 2.498656 1_555
Na15 O81 2.594599 1_545
Na15 O51 2.822440 1_555
Na15 O7 2.838706 1_555
Na16 O72 2.325338 1_545
Na16 O114 2.456814 1_555
Na16 O76 2.480282 1_555
Na16 O42 2.509302 1_555
Na16 O116 2.606553 1_555
Na16 O58 2.783409 1_545
Na16 O0 2.810217 1_555
Na16 O62 2.936386 1_545
Na17 O73 2.342936 1_545
Na17 O115 2.376069 1_555
Na17 O43 2.478450 1_555
Na17 O77 2.481838 1_555
Na17 O117 2.581809 1_555
Na17 O59 2.627091 1_545
Na17 O1 2.861974 1_555
Na18 O89 2.458638 1_555
Na18 O86 2.461309 1_665
Na18 O75 2.527502 1_555
Na18 O72 2.535960 1_655
Na18 O85 2.537321 1_565
Na18 O76 2.636004 1_665
Na19 O73 2.385715 1_555
Na19 O87 2.408675 1_565
Na19 O77 2.467052 1_565
Na19 O88 2.622837 1_555
Na19 O74 2.687610 1_555
Na19 O84 2.760377 1_565
Na20 O78 2.396085 1_554
Na20 O94 2.459457 1_555
Na20 O80 2.499120 1_544
Na20 O91 2.524255 1_445
Na20 O93 2.540805 1_455
Na20 O83 2.543238 1_444
Na21 O95 2.394490 1_565
Na21 O79 2.515721 1_564
Na21 O81 2.526164 1_554
Na21 O90 2.539341 1_555
Na21 O92 2.563047 1_565
Na21 O82 2.670328 1_554
Na22 O110 2.334389 1_555
Na22 O112 2.521294 1_555
Na22 O96 2.522409 1_555
Na22 O100 2.560235 1_555
Na22 O108 2.569042 1_555
Na22 O98 2.843679 1_555
Na23 O111 2.361409 1_555
Na23 O97 2.438189 1_555
Na23 O101 2.586016 1_555
Na23 O113 2.684302 1_555
Na23 O99 2.745217 1_555
Na23 O109 2.858705 1_555
Na24 O118 2.359503 1_555
Na24 O116 2.509157 1_555
Na24 O104 2.531563 1_555
Na24 O102 2.571522 1_555
Na24 O114 2.585975 1_555
Na24 O106 2.867093 1_555
Na25 O119 2.325913 1_555
Na25 O105 2.508920 1_555
Na25 O103 2.518820 1_555
Na25 O117 2.566693 1_555
Na25 O115 2.581900 1_555
Na25 O107 2.898010 1_555
Na26 O120 2.329361 1_555
Na26 O136 2.485603 1_555
Na26 O134 2.493721 1_555
Na26 O124 2.494431 1_555
Na26 O132 2.679311 1_555
Na26 O122 2.714719 1_555
Na27 O121 2.397910 1_555
Na27 O135 2.535141 1_555
Na27 O125 2.542111 1_555
Na27 O137 2.619974 1_555
Na27 O123 2.665335 1_555
Na27 O133 2.728734 1_555
Na28 O142 2.390157 1_555
Na28 O140 2.416681 1_555
Na28 O138 2.485435 1_555
Na28 O128 2.538971 1_555
Na28 O126 2.562169 1_555
Na28 O130 2.713825 1_555
Na29 O127 2.253995 1_555
Na29 O143 2.385474 1_555
Na29 O129 2.580980 1_555
Na29 O141 2.647341 1_555
Na29 O131 2.748827 1_555
Na29 O139 2.883029 1_555
Al0 O2 1.759456 1_555
Al0 O4 1.855554 1_565
Al0 O73 1.881985 1_555
Al0 O74 1.982942 1_555
Al0 O1 2.069193 1_565
Al0 O77 2.466192 1_565
Al1 O13 1.787230 1_455
Al1 O16 1.802488 1_555
Al1 O86 1.904180 1_565
Al1 O14 2.042448 1_565
Al1 O85 2.173775 1_465
Al1 O89 2.196694 1_455
Al2 O21 1.799517 1_555
Al2 O18 1.829498 1_545
Al2 O95 1.875193 1_555
Al2 O23 2.030515 1_545
Al2 O92 2.057491 1_555
Al2 O90 2.202561 1_545
Al3 O26 1.775742 1_555
Al3 O96 1.825647 1_555
Al3 O28 1.944173 1_555
Al3 O98 2.000462 1_555
Al3 O24 2.004140 1_555
Al3 O100 2.137623 1_555
Al4 O27 1.762845 1_555
Al4 O97 1.797255 1_555
Al4 O101 1.900953 1_555
Al4 O25 1.966851 1_555
Al4 O99 2.052207 1_555
Al4 O29 2.215018 1_555
Al5 O34 1.804591 1_555
Al5 O102 1.835638 1_555
Al5 O104 1.930118 1_555
Al5 O30 1.972502 1_555
Al5 O106 2.109323 1_555
Al5 O32 2.128780 1_555
Al6 O118 1.816909 1_555
Al6 O42 1.841135 1_555
Al6 O44 1.888216 1_555
Al6 O46 1.936737 1_555
Al6 O116 2.122286 1_555
Al6 O114 2.260574 1_555
Al7 O43 1.772764 1_555
Al7 O119 1.816901 1_555
Al7 O45 1.892556 1_555
Al7 O47 2.013038 1_555
Al7 O117 2.161322 1_555
Al7 O115 2.272995 1_555
Al8 O51 1.776982 1_554
Al8 O121 1.823937 1_555
Al8 O49 1.916034 1_554
Al8 O53 2.044816 1_554
Al8 O125 2.067604 1_555
Al8 O123 2.114896 1_555
Al9 O59 1.749035 1_555
Al9 O127 1.786247 1_555
Al9 O55 1.887924 1_555
Al9 O131 2.077031 1_555
Al9 O57 2.222545 1_555
Al9 O129 2.308552 1_555
Al10 O136 1.827781 1_555
Al10 O60 1.835976 1_555
Al10 O134 1.933270 1_555
Al10 O64 1.943299 1_555
Al10 O132 2.143761 1_555
Al10 O62 2.182631 1_555
Al11 O61 1.805779 1_555
Al11 O137 1.836797 1_555
Al11 O135 1.871094 1_555
Al11 O65 1.877838 1_555
Al11 O63 2.244237 1_555
Al11 O133 2.286164 1_555
O0 S0 1.474376 1_555
O0 Sc0 2.263022 1_445
O1 S1 1.483997 1_545
O2 Si0 1.617454 1_555
O3 Si1 1.625292 1_555
O3 Sc0 1.931064 1_555
O4 Si3 1.636580 1_555
O5 Si2 1.613726 1_655
O5 Sc0 1.987855 1_545
O6 S2 1.489821 1_555
O6 Sc1 2.259202 1_445
O7 S3 1.486702 1_555
O7 Sc2 2.156367 1_555
O8 S4 1.465752 1_555
O8 Sc2 2.294768 1_565
O9 Si4 1.631101 1_555
O9 Sc1 2.028550 1_555
O10 Si5 1.649836 1_555
O10 Sc2 1.918035 1_555
O11 Si6 1.646022 1_555
O11 Sc1 1.920294 1_545
O12 Si5 1.622901 1_565
O12 Sc3 2.042187 1_565
O13 Si6 1.629098 1_565
O14 S2 1.474520 1_555
O15 S3 1.470507 1_555
O15 Sc3 2.112117 1_555
O16 Si4 1.640087 1_455
O17 S4 1.471037 1_555
O17 Sc3 2.070392 1_565
O18 Si0 1.634180 1_555
O19 Si1 1.629103 1_555
O19 Sc4 2.018340 1_565
O20 Si2 1.642927 1_555
O20 Sc4 1.981053 1_455
O21 Si3 1.633756 1_555
O22 S0 1.478149 1_565
O22 Sc4 2.176336 1_465
O23 S1 1.478398 1_555
O24 S5 1.502460 1_555
O25 S6 1.488591 1_555
O26 Si7 1.638689 1_555
O27 Si8 1.618070 1_555
O28 S7 1.479829 1_555
O29 S8 1.482757 1_555
O30 S9 1.509407 1_555
O31 S10 1.492389 1_555
O31 Sc5 2.113458 1_555
O32 S11 1.481499 1_555
O33 S12 1.485045 1_555
O33 Sc5 2.310584 1_555
O34 Si9 1.637852 1_555
O35 Si10 1.631629 1_555
O35 Sc5 1.951664 1_555
O36 Si9 1.631934 1_555
O36 Sc6 1.961276 1_554
O37 Si10 1.630771 1_555
O37 Sc7 2.007552 1_554
O38 S9 1.477305 1_555
O38 Sc6 2.122817 1_554
O39 S10 1.470642 1_555
O39 Sc7 2.111431 1_554
O40 S11 1.488298 1_555
O40 Sc6 2.081487 1_554
O41 S12 1.479027 1_555
O41 Sc7 2.066323 1_554
O42 Si7 1.651494 1_555
O43 Si8 1.641834 1_555
O44 S7 1.470245 1_555
O45 S8 1.500521 1_555
O46 S5 1.480110 1_555
O47 S6 1.474708 1_555
O48 S13 1.475445 1_555
O48 Sc8 2.076043 1_556
O49 S14 1.476655 1_555
O50 Si11 1.665449 1_555
O50 Sc8 1.944473 1_556
O51 Si12 1.635622 1_555
O52 S15 1.463994 1_555
O52 Sc8 2.202413 1_556
O53 S16 1.471064 1_555
O54 S17 1.490867 1_555
O54 Sc9 2.140547 1_555
O55 S18 1.480147 1_555
O56 S19 1.464656 1_555
O56 Sc9 2.137479 1_555
O57 S20 1.465331 1_555
O58 Si13 1.648712 1_555
O58 Sc9 1.892935 1_555
O59 Si14 1.632298 1_555
O60 Si13 1.657579 1_555
O61 Si14 1.654043 1_555
O62 S17 1.491454 1_555
O63 S18 1.490437 1_555
O64 S19 1.496302 1_555
O65 S20 1.507750 1_555
O66 Si11 1.637761 1_555
O66 Sc10 1.963247 1_555
O67 Si12 1.637746 1_555
O67 Sc11 1.978893 1_555
O68 S15 1.483938 1_555
O68 Sc10 2.111502 1_555
O69 S16 1.483275 1_555
O69 Sc11 2.029629 1_555
O70 S13 1.468053 1_555
O70 Sc10 2.180297 1_555
O71 S14 1.483826 1_555
O71 Sc11 2.133961 1_555
O72 Si13 1.644735 1_555
O72 Sc0 2.048171 1_455
O73 Si14 1.680725 1_555
O74 S17 1.477684 1_555
O75 S18 1.481861 1_555
O75 Sc0 2.126666 1_555
O76 S19 1.481002 1_555
O76 Sc0 2.318580 1_445
O77 S20 1.488295 1_555
O78 Si11 1.638830 1_555
O78 Sc1 2.082977 1_445
O79 Si12 1.667138 1_555
O79 Sc2 1.993075 1_555
O80 S15 1.481479 1_555
O80 Sc1 2.316204 1_455
O81 S16 1.480819 1_555
O81 Sc2 2.377101 1_565
O82 S13 1.472444 1_555
O82 Sc2 2.089346 1_565
O83 S14 1.465195 1_555
O83 Sc1 2.176775 1_555
O84 S5 1.489402 1_555
O84 Sc3 2.261234 1_555
O85 S6 1.470756 1_555
O86 Si7 1.655299 1_555
O87 Si8 1.663592 1_555
O87 Sc3 1.956019 1_555
O88 S7 1.487085 1_555
O88 Sc3 2.215191 1_565
O89 S8 1.508566 1_555
O90 S9 1.462570 1_555
O91 S10 1.459280 1_555
O91 Sc4 2.234406 1_565
O92 S11 1.489323 1_555
O93 S12 1.487469 1_555
O93 Sc4 2.228661 1_555
O94 Si9 1.646624 1_555
O94 Sc4 2.048979 1_455
O95 Si10 1.653316 1_555
O96 Si5 1.671084 1_555
O97 Si6 1.625494 1_555
O98 S2 1.488598 1_555
O99 S3 1.467434 1_555
O100 S4 1.495726 1_555
O101 Si4 1.644085 1_555
O102 Si0 1.658379 1_555
O103 Si1 1.640568 1_555
O103 Sc5 1.997064 1_555
O104 Si3 1.670228 1_555
O105 Si2 1.637282 1_655
O105 Sc5 2.101613 1_555
O106 S0 1.486970 1_555
O107 S1 1.491322 1_545
O107 Sc5 2.165530 1_555
O108 S13 1.484502 1_555
O108 Sc6 2.206333 1_555
O109 S14 1.485167 1_555
O109 Sc7 2.170205 1_555
O110 Si12 1.615343 1_555
O110 Sc6 1.995040 1_555
O111 Si11 1.624039 1_655
O111 Sc7 1.995656 1_555
O112 S15 1.495088 1_545
O112 Sc6 2.224903 1_555
O113 S16 1.489308 1_545
O113 Sc7 2.169050 1_555
O114 S17 1.494286 1_545
O115 S18 1.487812 1_545
O116 S19 1.497867 1_555
O117 S20 1.506128 1_555
O118 Si14 1.651880 1_555
O119 Si13 1.643804 1_655
O120 Si9 1.669875 1_555
O120 Sc8 2.006152 1_555
O121 Si10 1.668261 1_555
O122 S10 1.484295 1_455
O122 Sc8 2.148831 1_555
O123 S9 1.497196 1_555
O124 S11 1.469001 1_565
O124 Sc8 2.283838 1_555
O125 S12 1.478695 1_565
O126 Si7 1.690355 1_565
O126 Sc9 2.050982 1_555
O127 Si8 1.660960 1_565
O128 S7 1.488708 1_555
O128 Sc9 2.296801 1_555
O129 S8 1.471235 1_555
O130 S6 1.507853 1_455
O130 Sc9 2.145829 1_555
O131 S5 1.476308 1_555
O132 S0 1.491547 1_565
O133 S1 1.484078 1_555
O134 Si0 1.666982 1_555
O135 Si1 1.649978 1_555
O136 Si2 1.650654 1_555
O137 Si3 1.648874 1_555
O138 S2 1.480023 1_555
O138 Sc10 2.240923 1_555
O139 S3 1.493410 1_555
O139 Sc11 2.247664 1_555
O140 Si4 1.645903 1_455
O140 Sc10 2.034015 1_555
O141 S4 1.500494 1_555
O141 Sc11 2.167751 1_555
O142 Si5 1.619497 1_565
O142 Sc10 2.070834 1_555
O143 Si6 1.648321 1_565
O143 Sc11 2.035725 1_555
