# generated using pymatgen
data_NaNbCl6
_symmetry_space_group_name_H-M   'P 1'
_cell_length_a   6.89697222
_cell_length_b   6.45110154
_cell_length_c   19.25484287
_cell_angle_alpha   88.46585036
_cell_angle_beta   89.99973613
_cell_angle_gamma   89.99942989
_symmetry_Int_Tables_number   1
_chemical_formula_structural   NaNbCl6
_chemical_formula_sum   'Na4 Nb4 Cl24'
_cell_volume   856.39994484
_cell_formula_units_Z   4
loop_
 _symmetry_equiv_pos_site_id
 _symmetry_equiv_pos_as_xyz
  1  'x, y, z'
loop_
 _atom_site_type_symbol
 _atom_site_label
 _atom_site_symmetry_multiplicity
 _atom_site_fract_x
 _atom_site_fract_y
 _atom_site_fract_z
 _atom_site_occupancy
  Na  Na0  1  0.80940909  0.20629156  0.74651711  1
  Na  Na1  1  0.30939673  0.79371037  0.75348861  1
  Na  Na2  1  0.19062902  0.79376006  0.25348737  1
  Na  Na3  1  0.69063562  0.20624490  0.24650809  1
  Nb  Nb0  1  0.71498152  0.74155970  0.61531237  1
  Nb  Nb1  1  0.21498050  0.25842138  0.88470400  1
  Nb  Nb2  1  0.28501499  0.25843699  0.38475074  1
  Nb  Nb3  1  0.78499561  0.74156782  0.11523654  1
  Cl  Cl0  1  0.82126104  0.61496982  0.23819528  1
  Cl  Cl1  1  0.32126945  0.38503416  0.26179344  1
  Cl  Cl2  1  0.17882682  0.38483595  0.76170053  1
  Cl  Cl3  1  0.67882569  0.61517681  0.73832052  1
  Cl  Cl4  1  0.60265128  0.44832804  0.09380407  1
  Cl  Cl5  1  0.10267440  0.55167708  0.40618310  1
  Cl  Cl6  1  0.39726180  0.55171966  0.90608535  1
  Cl  Cl7  1  0.89727487  0.44825534  0.59393747  1
  Cl  Cl8  1  0.49534838  0.91869220  0.15669977  1
  Cl  Cl9  1  0.99537381  0.08132375  0.34328507  1
  Cl  Cl10  1  0.50463347  0.08127846  0.84329463  1
  Cl  Cl11  1  0.00464664  0.91870854  0.65671054  1
  Cl  Cl12  1  0.74591015  0.89252316  0.00708864  1
  Cl  Cl13  1  0.24592648  0.10748735  0.49290385  1
  Cl  Cl14  1  0.25405683  0.10765239  0.99286331  1
  Cl  Cl15  1  0.75409153  0.89231000  0.50715213  1
  Cl  Cl16  1  0.96501101  0.04320592  0.15514371  1
  Cl  Cl17  1  0.46502916  0.95680571  0.34484714  1
  Cl  Cl18  1  0.03498429  0.95671113  0.84482556  1
  Cl  Cl19  1  0.53500298  0.04329706  0.65518114  1
  Cl  Cl20  1  0.07858541  0.58541124  0.09041392  1
  Cl  Cl21  1  0.57861379  0.41461508  0.40955914  1
  Cl  Cl22  1  0.92134309  0.41459490  0.90946397  1
  Cl  Cl23  1  0.42135455  0.58539047  0.59054487  1
loop_
_geom_bond_atom_site_label_1
_geom_bond_atom_site_label_2
_geom_bond_distance
_geom_bond_site_symmetry_2
Cl0 Nb3 2.496261 1_555
Cl0 Na3 2.786942 1_555
Cl0 Na2 2.815160 1_655
Cl1 Nb2 2.496225 1_555
Cl1 Na2 2.786961 1_555
Cl1 Na3 2.815108 1_555
Cl2 Nb1 2.496637 1_555
Cl2 Na1 2.787668 1_555
Cl2 Na0 2.814576 1_455
Cl3 Nb0 2.496661 1_555
Cl3 Na0 2.787738 1_555
Cl3 Na1 2.814560 1_555
Cl4 Nb3 2.317839 1_555
Cl5 Nb2 2.317804 1_555
Cl6 Nb1 2.317717 1_555
Cl7 Nb0 2.317747 1_555
Cl8 Nb3 2.445932 1_555
Cl8 Na3 2.901272 1_565
Cl8 Na2 2.908460 1_555
Cl9 Nb2 2.445904 1_655
Cl9 Na2 2.901066 1_645
Cl9 Na3 2.908407 1_555
Cl10 Nb1 2.445670 1_555
Cl10 Na1 2.901148 1_545
Cl10 Na0 2.908753 1_555
Cl11 Nb0 2.445708 1_455
Cl11 Na0 2.901196 1_465
Cl11 Na1 2.908609 1_555
Cl12 Nb3 2.291003 1_555
Cl13 Nb2 2.291081 1_555
Cl14 Nb1 2.290711 1_555
Cl15 Nb0 2.290707 1_555
Cl16 Nb3 2.449196 1_545
Cl16 Na3 2.807326 1_555
Cl16 Na2 2.904035 1_645
Cl17 Nb2 2.449110 1_565
Cl17 Na2 2.807427 1_555
Cl17 Na3 2.903921 1_565
Cl18 Nb1 2.449318 1_565
Cl18 Na1 2.807066 1_555
Cl18 Na0 2.903911 1_465
Cl19 Nb0 2.449311 1_545
Cl19 Na0 2.807034 1_555
Cl19 Na1 2.904043 1_545
Cl20 Nb3 2.317139 1_455
Cl21 Nb2 2.317216 1_555
Cl22 Nb1 2.317212 1_655
Cl23 Nb0 2.317189 1_555
