# generated using pymatgen
data_NdAl3(PbO4)2
_symmetry_space_group_name_H-M   'P 1'
_cell_length_a   9.54068990
_cell_length_b   9.54068990
_cell_length_c   9.54068990
_cell_angle_alpha   90.00000000
_cell_angle_beta   90.00000000
_cell_angle_gamma   90.00000000
_symmetry_Int_Tables_number   1
_chemical_formula_structural   NdAl3(PbO4)2
_chemical_formula_sum   'Nd4 Al12 Pb8 O32'
_cell_volume   868.43904433
_cell_formula_units_Z   4
loop_
 _symmetry_equiv_pos_site_id
 _symmetry_equiv_pos_as_xyz
  1  'x, y, z'
loop_
 _atom_site_type_symbol
 _atom_site_label
 _atom_site_symmetry_multiplicity
 _atom_site_fract_x
 _atom_site_fract_y
 _atom_site_fract_z
 _atom_site_occupancy
  Nd  Nd0  1  0.75000000  0.75000000  0.75000000  1
  Nd  Nd1  1  0.25000000  0.25000000  0.75000000  1
  Nd  Nd2  1  0.75000000  0.25000000  0.25000000  1
  Nd  Nd3  1  0.25000000  0.75000000  0.25000000  1
  Al  Al0  1  0.50000000  0.00000000  0.25000000  1
  Al  Al1  1  0.50000000  0.25000000  -0.00000000  1
  Al  Al2  1  0.50000000  0.75000000  -0.00000000  1
  Al  Al3  1  0.50000000  0.00000000  0.75000000  1
  Al  Al4  1  0.00000000  0.50000000  0.25000000  1
  Al  Al5  1  0.25000000  0.50000000  -0.00000000  1
  Al  Al6  1  0.25000000  0.00000000  0.50000000  1
  Al  Al7  1  0.00000000  0.50000000  0.75000000  1
  Al  Al8  1  0.75000000  0.00000000  0.50000000  1
  Al  Al9  1  0.00000000  0.75000000  0.50000000  1
  Al  Al10  1  0.75000000  0.50000000  -0.00000000  1
  Al  Al11  1  0.00000000  0.25000000  0.50000000  1
  Pb  Pb0  1  0.86677807  0.13322193  0.86677807  1
  Pb  Pb1  1  0.86677807  0.86677807  0.13322193  1
  Pb  Pb2  1  0.13322193  0.13322193  0.13322193  1
  Pb  Pb3  1  0.36677807  0.63322193  0.63322193  1
  Pb  Pb4  1  0.13322193  0.86677807  0.86677807  1
  Pb  Pb5  1  0.63322193  0.36677807  0.63322193  1
  Pb  Pb6  1  0.36677807  0.36677807  0.36677807  1
  Pb  Pb7  1  0.63322193  0.63322193  0.36677807  1
  O  O0  1  0.84380676  0.51323432  0.84380676  1
  O  O1  1  0.98676568  0.34380676  0.34380676  1
  O  O2  1  0.15619324  0.48676568  0.84380676  1
  O  O3  1  0.84380676  0.15619324  0.48676568  1
  O  O4  1  0.34380676  0.34380676  0.98676568  1
  O  O5  1  0.34380676  0.65619324  0.01323432  1
  O  O6  1  0.60846784  0.39153216  0.39153216  1
  O  O7  1  0.39153216  0.60846784  0.39153216  1
  O  O8  1  0.10846784  0.89153216  0.10846784  1
  O  O9  1  0.89153216  0.89153216  0.89153216  1
  O  O10  1  0.84380676  0.48676568  0.15619324  1
  O  O11  1  0.65619324  0.01323432  0.34380676  1
  O  O12  1  0.10846784  0.10846784  0.89153216  1
  O  O13  1  0.89153216  0.10846784  0.10846784  1
  O  O14  1  0.60846784  0.60846784  0.60846784  1
  O  O15  1  0.15619324  0.15619324  0.51323432  1
  O  O16  1  0.65619324  0.34380676  0.01323432  1
  O  O17  1  0.98676568  0.65619324  0.65619324  1
  O  O18  1  0.65619324  0.98676568  0.65619324  1
  O  O19  1  0.48676568  0.84380676  0.15619324  1
  O  O20  1  0.51323432  0.84380676  0.84380676  1
  O  O21  1  0.15619324  0.51323432  0.15619324  1
  O  O22  1  0.34380676  0.01323432  0.65619324  1
  O  O23  1  0.84380676  0.84380676  0.51323432  1
  O  O24  1  0.34380676  0.98676568  0.34380676  1
  O  O25  1  0.15619324  0.84380676  0.48676568  1
  O  O26  1  0.65619324  0.65619324  0.98676568  1
  O  O27  1  0.39153216  0.39153216  0.60846784  1
  O  O28  1  0.51323432  0.15619324  0.15619324  1
  O  O29  1  0.01323432  0.65619324  0.34380676  1
  O  O30  1  0.01323432  0.34380676  0.65619324  1
  O  O31  1  0.48676568  0.15619324  0.84380676  1
loop_
_geom_bond_atom_site_label_1
_geom_bond_atom_site_label_2
_geom_bond_distance
_geom_bond_site_symmetry_2
Nd0 O14 2.338813 1_555
Nd0 O9 2.338813 1_555
Nd0 O23 2.589333 1_555
Nd0 O17 2.589333 1_555
Nd0 O26 2.589333 1_555
Nd0 O18 2.589333 1_555
Nd0 O20 2.589333 1_555
Nd0 O0 2.589333 1_555
Nd1 O27 2.338813 1_555
Nd1 O12 2.338813 1_555
Nd1 O4 2.589333 1_555
Nd1 O15 2.589333 1_555
Nd1 O22 2.589333 1_555
Nd1 O30 2.589333 1_555
Nd1 O2 2.589333 1_555
Nd1 O31 2.589333 1_555
Nd2 O6 2.338813 1_555
Nd2 O13 2.338813 1_555
Nd2 O1 2.589333 1_555
Nd2 O28 2.589333 1_555
Nd2 O16 2.589333 1_555
Nd2 O11 2.589333 1_555
Nd2 O3 2.589333 1_555
Nd2 O10 2.589333 1_555
Nd3 O7 2.338813 1_555
Nd3 O8 2.338813 1_555
Nd3 O24 2.589333 1_555
Nd3 O21 2.589333 1_555
Nd3 O29 2.589333 1_555
Nd3 O5 2.589333 1_555
Nd3 O25 2.589333 1_555
Nd3 O19 2.589333 1_555
Al0 O24 1.742872 1_545
Al0 O19 1.742872 1_545
Al0 O11 1.742872 1_555
Al0 O28 1.742872 1_555
Al1 O28 1.742872 1_555
Al1 O16 1.742872 1_555
Al1 O31 1.742872 1_554
Al1 O4 1.742872 1_554
Al2 O19 1.742872 1_555
Al2 O5 1.742872 1_555
Al2 O26 1.742872 1_554
Al2 O20 1.742872 1_554
Al3 O31 1.742872 1_555
Al3 O20 1.742872 1_545
Al3 O22 1.742872 1_555
Al3 O18 1.742872 1_545
Al4 O29 1.742872 1_555
Al4 O1 1.742872 1_455
Al4 O21 1.742872 1_555
Al4 O10 1.742872 1_455
Al5 O2 1.742872 1_554
Al5 O4 1.742872 1_554
Al5 O21 1.742872 1_555
Al5 O5 1.742872 1_555
Al6 O24 1.742872 1_545
Al6 O25 1.742872 1_545
Al6 O15 1.742872 1_555
Al6 O22 1.742872 1_555
Al7 O17 1.742872 1_455
Al7 O2 1.742872 1_555
Al7 O0 1.742872 1_455
Al7 O30 1.742872 1_555
Al8 O23 1.742872 1_545
Al8 O3 1.742872 1_555
Al8 O11 1.742872 1_555
Al8 O18 1.742872 1_545
Al9 O25 1.742872 1_555
Al9 O29 1.742872 1_555
Al9 O23 1.742872 1_455
Al9 O17 1.742872 1_455
Al10 O0 1.742872 1_554
Al10 O16 1.742872 1_555
Al10 O10 1.742872 1_555
Al10 O26 1.742872 1_554
Al11 O3 1.742872 1_455
Al11 O1 1.742872 1_455
Al11 O15 1.742872 1_555
Al11 O30 1.742872 1_555
O6 Pb6 2.329950 1_555
O6 Pb7 2.329950 1_555
O6 Pb5 2.329950 1_555
O7 Pb6 2.329950 1_555
O7 Pb7 2.329950 1_555
O7 Pb3 2.329950 1_555
O8 Pb4 2.329950 1_554
O8 Pb1 2.329950 1_455
O8 Pb2 2.329950 1_565
O9 Pb1 2.329950 1_556
O9 Pb0 2.329950 1_565
O9 Pb4 2.329950 1_655
O12 Pb2 2.329950 1_556
O12 Pb4 2.329950 1_545
O12 Pb0 2.329950 1_455
O13 Pb2 2.329950 1_655
O13 Pb1 2.329950 1_545
O13 Pb0 2.329950 1_554
O14 Pb7 2.329950 1_555
O14 Pb5 2.329950 1_555
O14 Pb3 2.329950 1_555
O27 Pb6 2.329950 1_555
O27 Pb5 2.329950 1_555
O27 Pb3 2.329950 1_555
