# generated using pymatgen
data_RbMg6B
_symmetry_space_group_name_H-M   'P 1'
_cell_length_a   8.50874341
_cell_length_b   8.50874341
_cell_length_c   3.65477778
_cell_angle_alpha   90.00000000
_cell_angle_beta   90.00000000
_cell_angle_gamma   126.18028246
_symmetry_Int_Tables_number   1
_chemical_formula_structural   RbMg6B
_chemical_formula_sum   'Rb1 Mg6 B1'
_cell_volume   213.57644450
_cell_formula_units_Z   1
loop_
 _symmetry_equiv_pos_site_id
 _symmetry_equiv_pos_as_xyz
  1  'x, y, z'
loop_
 _atom_site_type_symbol
 _atom_site_label
 _atom_site_symmetry_multiplicity
 _atom_site_fract_x
 _atom_site_fract_y
 _atom_site_fract_z
 _atom_site_occupancy
  Rb  Rb0  1  0.78160816  0.21839184  0.50000000  1
  Mg  Mg0  1  0.25673088  0.13282369  0.50000000  1
  Mg  Mg1  1  0.86717631  0.74326912  0.50000000  1
  Mg  Mg2  1  0.23657715  0.41496885  0.00000000  1
  Mg  Mg3  1  0.58503115  0.76342285  0.00000000  1
  Mg  Mg4  1  0.57990745  0.42009255  0.00000000  1
  Mg  Mg5  1  0.21006879  0.78993121  0.00000000  1
  B  B0  1  0.48290310  0.51709690  0.50000000  1
loop_
_geom_bond_atom_site_label_1
_geom_bond_atom_site_label_2
_geom_bond_distance
_geom_bond_site_symmetry_2
Mg0 Mg5 3.262151 1_545
Mg0 Mg5 3.262151 1_546
Mg1 Mg5 3.262151 1_656
Mg1 Mg5 3.262151 1_655
Mg2 Mg5 3.328591 1_555
Mg2 Rb0 3.671304 1_455
Mg2 Rb0 3.671304 1_454
Mg3 Mg5 3.328591 1_555
Mg3 Rb0 3.671304 1_564
Mg3 Rb0 3.671304 1_565
Mg4 Rb0 3.564784 1_554
Mg4 Rb0 3.564784 1_555
B0 Mg4 2.346531 1_556
B0 Mg4 2.346531 1_555
B0 Mg2 2.517345 1_556
B0 Mg2 2.517345 1_555
B0 Mg3 2.517345 1_555
B0 Mg3 2.517345 1_556
B0 Mg0 2.639174 1_555
B0 Mg1 2.639174 1_555
