# generated using pymatgen
data_Dy2InPd2
_symmetry_space_group_name_H-M   'P 1'
_cell_length_a   7.74039436
_cell_length_b   7.74039436
_cell_length_c   3.63498619
_cell_angle_alpha   90.00000000
_cell_angle_beta   90.00000000
_cell_angle_gamma   90.00000000
_symmetry_Int_Tables_number   1
_chemical_formula_structural   Dy2InPd2
_chemical_formula_sum   'Dy4 In2 Pd4'
_cell_volume   217.78548972
_cell_formula_units_Z   2
loop_
 _symmetry_equiv_pos_site_id
 _symmetry_equiv_pos_as_xyz
  1  'x, y, z'
loop_
 _atom_site_type_symbol
 _atom_site_label
 _atom_site_symmetry_multiplicity
 _atom_site_fract_x
 _atom_site_fract_y
 _atom_site_fract_z
 _atom_site_occupancy
  Dy  Dy0  1  0.32719724  0.82719724  0.50000000  1
  Dy  Dy1  1  0.82719724  0.67280276  0.50000000  1
  Dy  Dy2  1  0.17280276  0.32719724  0.50000000  1
  Dy  Dy3  1  0.67280276  0.17280276  0.50000000  1
  In  In0  1  -0.00000000  0.00000000  0.00000000  1
  In  In1  1  0.50000000  0.50000000  0.00000000  1
  Pd  Pd0  1  0.37189737  0.12810263  0.00000000  1
  Pd  Pd1  1  0.87189737  0.37189737  0.00000000  1
  Pd  Pd2  1  0.12810263  0.62810263  -0.00000000  1
  Pd  Pd3  1  0.62810263  0.87189737  -0.00000000  1
loop_
_geom_bond_atom_site_label_1
_geom_bond_atom_site_label_2
_geom_bond_distance
_geom_bond_site_symmetry_2
Dy0 Pd2 2.837795 1_556
Dy0 Pd2 2.837795 1_555
Dy0 Pd0 2.974529 1_566
Dy0 Pd0 2.974529 1_565
Dy0 Pd3 2.974529 1_555
Dy0 Pd3 2.974529 1_556
Dy0 In0 3.392137 1_565
Dy0 In0 3.392137 1_566
Dy0 In1 3.392137 1_556
Dy0 In1 3.392137 1_555
Dy1 Pd3 2.837795 1_555
Dy1 Pd3 2.837795 1_556
Dy1 Pd2 2.974529 1_656
Dy1 Pd2 2.974529 1_655
Dy1 Pd1 2.974529 1_555
Dy1 Pd1 2.974529 1_556
Dy1 In0 3.392137 1_666
Dy1 In0 3.392137 1_665
Dy1 In1 3.392137 1_555
Dy1 In1 3.392137 1_556
Dy2 Pd0 2.837795 1_555
Dy2 Pd0 2.837795 1_556
Dy2 Pd2 2.974529 1_556
Dy2 Pd2 2.974529 1_555
Dy2 Pd1 2.974529 1_456
Dy2 Pd1 2.974529 1_455
Dy2 In0 3.392137 1_555
Dy2 In0 3.392137 1_556
Dy2 In1 3.392137 1_556
Dy2 In1 3.392137 1_555
Dy3 Pd1 2.837795 1_556
Dy3 Pd1 2.837795 1_555
Dy3 Pd3 2.974529 1_546
Dy3 Pd3 2.974529 1_545
Dy3 Pd0 2.974529 1_556
Dy3 Pd0 2.974529 1_555
Dy3 In0 3.392137 1_656
Dy3 In0 3.392137 1_655
Dy3 In1 3.392137 1_556
Dy3 In1 3.392137 1_555
In0 Pd2 3.044622 1_545
In0 Pd3 3.044622 1_445
In0 Pd0 3.044622 1_555
In0 Pd1 3.044622 1_455
In1 Pd1 3.044622 1_555
In1 Pd0 3.044622 1_555
In1 Pd3 3.044622 1_555
In1 Pd2 3.044622 1_555
Pd0 Pd3 2.804569 1_545
Pd1 Pd2 2.804569 1_655
