# generated using pymatgen
data_Li21Si5
_symmetry_space_group_name_H-M   'P 1'
_cell_length_a   13.10445359
_cell_length_b   13.10445359
_cell_length_c   13.10445359
_cell_angle_alpha   60.00000000
_cell_angle_beta   60.00000000
_cell_angle_gamma   60.00000000
_symmetry_Int_Tables_number   1
_chemical_formula_structural   Li21Si5
_chemical_formula_sum   'Li84 Si20'
_cell_volume   1591.26222744
_cell_formula_units_Z   4
loop_
 _symmetry_equiv_pos_site_id
 _symmetry_equiv_pos_as_xyz
  1  'x, y, z'
loop_
 _atom_site_type_symbol
 _atom_site_label
 _atom_site_symmetry_multiplicity
 _atom_site_fract_x
 _atom_site_fract_y
 _atom_site_fract_z
 _atom_site_occupancy
  Li  Li0  1  0.24340700  0.24340700  0.93464900  1
  Li  Li1  1  0.93464900  0.24340700  0.57853800  1
  Li  Li2  1  0.24340700  0.93464900  0.57853800  1
  Li  Li3  1  0.57853800  0.24340700  0.24340700  1
  Li  Li4  1  0.24340700  0.57853800  0.24340700  1
  Li  Li5  1  0.57853800  0.93464900  0.24340700  1
  Li  Li6  1  0.93464900  0.57853800  0.24340700  1
  Li  Li7  1  0.24340700  0.57853800  0.93464900  1
  Li  Li8  1  0.93464900  0.24340700  0.24340700  1
  Li  Li9  1  0.24340700  0.93464900  0.24340700  1
  Li  Li10  1  0.57853800  0.24340700  0.93464900  1
  Li  Li11  1  0.24340700  0.24340700  0.57853800  1
  Li  Li12  1  0.73004700  0.73004700  0.46031300  1
  Li  Li13  1  0.46031300  0.73004700  0.07959400  1
  Li  Li14  1  0.73004700  0.46031300  0.07959400  1
  Li  Li15  1  0.07959400  0.73004700  0.73004700  1
  Li  Li16  1  0.73004700  0.07959400  0.73004700  1
  Li  Li17  1  0.07959400  0.46031300  0.73004700  1
  Li  Li18  1  0.46031300  0.07959400  0.73004700  1
  Li  Li19  1  0.73004700  0.07959400  0.46031300  1
  Li  Li20  1  0.94722000  0.94722000  0.94722000  1
  Li  Li21  1  0.94722000  0.94722000  0.15834100  1
  Li  Li22  1  0.94722000  0.15834100  0.94722000  1
  Li  Li23  1  0.15834100  0.94722000  0.94722000  1
  Li  Li24  1  0.83156700  0.83156700  0.83156700  1
  Li  Li25  1  0.83156700  0.83156700  0.50530000  1
  Li  Li26  1  0.83156700  0.50530000  0.83156700  1
  Li  Li27  1  0.50530000  0.83156700  0.83156700  1
  Li  Li28  1  0.69300000  0.69300000  0.69300000  1
  Li  Li29  1  0.69300000  0.69300000  0.92099900  1
  Li  Li30  1  0.69300000  0.92099900  0.69300000  1
  Li  Li31  1  0.92099900  0.69300000  0.69300000  1
  Li  Li32  1  0.56376100  0.56376100  0.56376100  1
  Li  Li33  1  0.56376100  0.56376100  0.30871700  1
  Li  Li34  1  0.56376100  0.30871700  0.56376100  1
  Li  Li35  1  0.30871700  0.56376100  0.56376100  1
  Li  Li36  1  0.41988900  0.41988900  0.41988900  1
  Li  Li37  1  0.41988900  0.41988900  0.74033300  1
  Li  Li38  1  0.41988900  0.74033300  0.41988900  1
  Li  Li39  1  0.74033300  0.41988900  0.41988900  1
  Li  Li40  1  0.19391600  0.19391600  0.19391600  1
  Li  Li41  1  0.19391600  0.19391600  0.41825300  1
  Li  Li42  1  0.19391600  0.41825300  0.19391600  1
  Li  Li43  1  0.41825300  0.19391600  0.19391600  1
  Li  Li44  1  0.82467500  0.17532500  0.82467500  1
  Li  Li45  1  0.82467500  0.82467500  0.17532500  1
  Li  Li46  1  0.17532500  0.17532500  0.82467500  1
  Li  Li47  1  0.17532500  0.82467500  0.17532500  1
  Li  Li48  1  0.17532500  0.82467500  0.82467500  1
  Li  Li49  1  0.82467500  0.17532500  0.17532500  1
  Li  Li50  1  0.42276000  0.07724000  0.42276000  1
  Li  Li51  1  0.42276000  0.42276000  0.07724000  1
  Li  Li52  1  0.07724000  0.07724000  0.42276000  1
  Li  Li53  1  0.07724000  0.42276000  0.07724000  1
  Li  Li54  1  0.07724000  0.42276000  0.42276000  1
  Li  Li55  1  0.42276000  0.07724000  0.07724000  1
  Li  Li56  1  0.98724900  0.98724900  0.33082700  1
  Li  Li57  1  0.33082700  0.98724900  0.69467500  1
  Li  Li58  1  0.98724900  0.69467500  0.98724900  1
  Li  Li59  1  0.69467500  0.98724900  0.98724900  1
  Li  Li60  1  0.98724900  0.33082700  0.69467500  1
  Li  Li61  1  0.69467500  0.33082700  0.98724900  1
  Li  Li62  1  0.33082700  0.69467500  0.98724900  1
  Li  Li63  1  0.98724900  0.33082700  0.98724900  1
  Li  Li64  1  0.33082700  0.98724900  0.98724900  1
  Li  Li65  1  0.98724900  0.69467500  0.33082700  1
  Li  Li66  1  0.69467500  0.98724900  0.33082700  1
  Li  Li67  1  0.98724900  0.98724900  0.69467500  1
  Li  Li68  1  0.48877600  0.48877600  0.19223300  1
  Li  Li69  1  0.19223300  0.48877600  0.83021500  1
  Li  Li70  1  0.48877600  0.83021500  0.48877600  1
  Li  Li71  1  0.83021500  0.48877600  0.48877600  1
  Li  Li72  1  0.48877600  0.19223300  0.83021500  1
  Li  Li73  1  0.83021500  0.19223300  0.48877600  1
  Li  Li74  1  0.19223300  0.83021500  0.48877600  1
  Li  Li75  1  0.48877600  0.19223300  0.48877600  1
  Li  Li76  1  0.19223300  0.48877600  0.48877600  1
  Li  Li77  1  0.48877600  0.83021500  0.19223300  1
  Li  Li78  1  0.83021500  0.48877600  0.19223300  1
  Li  Li79  1  0.48877600  0.48877600  0.83021500  1
  Li  Li80  1  0.73004700  0.73004700  0.07959400  1
  Li  Li81  1  0.07959400  0.73004700  0.46031300  1
  Li  Li82  1  0.73004700  0.46031300  0.73004700  1
  Li  Li83  1  0.46031300  0.73004700  0.73004700  1
  Si  Si0  1  0.92809200  0.57190800  0.57190800  1
  Si  Si1  1  0.57190800  0.92809200  0.92809200  1
  Si  Si2  1  0.57190800  0.92809200  0.57190800  1
  Si  Si3  1  0.57190800  0.57190800  0.92809200  1
  Si  Si4  1  0.92809200  0.92809200  0.57190800  1
  Si  Si5  1  0.92809200  0.57190800  0.92809200  1
  Si  Si6  1  0.67981500  0.32018500  0.32018500  1
  Si  Si7  1  0.32018500  0.67981500  0.67981500  1
  Si  Si8  1  0.32018500  0.67981500  0.32018500  1
  Si  Si9  1  0.32018500  0.32018500  0.67981500  1
  Si  Si10  1  0.67981500  0.67981500  0.32018500  1
  Si  Si11  1  0.67981500  0.32018500  0.67981500  1
  Si  Si12  1  0.99471200  0.33509600  0.33509600  1
  Si  Si13  1  0.33509600  0.99471200  0.33509600  1
  Si  Si14  1  0.33509600  0.33509600  0.99471200  1
  Si  Si15  1  0.33509600  0.33509600  0.33509600  1
  Si  Si16  1  0.73049800  0.08983400  0.08983400  1
  Si  Si17  1  0.08983400  0.73049800  0.08983400  1
  Si  Si18  1  0.08983400  0.08983400  0.73049800  1
  Si  Si19  1  0.08983400  0.08983400  0.08983400  1
loop_
_geom_bond_atom_site_label_1
_geom_bond_atom_site_label_2
_geom_bond_distance
_geom_bond_site_symmetry_2
Li0 Si14 2.615723 1_555
Li0 Li69 2.650021 1_555
Li0 Li72 2.650021 1_555
Li0 Si9 2.732951 1_555
Li0 Si19 2.846169 1_556
Li1 Si12 2.615734 1_555
Li1 Li71 2.650022 1_555
Li1 Li73 2.650032 1_555
Li1 Si11 2.732951 1_555
Li1 Si18 2.846160 1_655
Li2 Si13 2.615734 1_555
Li2 Li70 2.650022 1_555
Li2 Li74 2.650032 1_555
Li2 Si7 2.732951 1_555
Li2 Si18 2.846160 1_565
Li3 Si15 2.615733 1_555
Li3 Li68 2.650020 1_555
Li3 Li75 2.650020 1_555
Li3 Si6 2.732940 1_555
Li3 Si16 2.846169 1_555
Li4 Si15 2.615733 1_555
Li4 Li76 2.650020 1_555
Li4 Li68 2.650020 1_555
Li4 Si8 2.732940 1_555
Li4 Si17 2.846169 1_555
Li5 Si13 2.615734 1_555
Li5 Li70 2.650022 1_555
Li5 Li77 2.650032 1_555
Li5 Si10 2.732951 1_555
Li5 Si16 2.846160 1_565
Li6 Si12 2.615734 1_555
Li6 Li71 2.650022 1_555
Li6 Li78 2.650032 1_555
Li6 Si10 2.732951 1_555
Li6 Si17 2.846160 1_655
Li7 Si14 2.615734 1_555
Li7 Li79 2.650022 1_555
Li7 Si7 2.732951 1_555
Li7 Si17 2.846160 1_556
Li8 Si12 2.615723 1_555
Li8 Si6 2.732951 1_555
Li8 Si19 2.846169 1_655
Li9 Si13 2.615723 1_555
Li9 Si8 2.732951 1_555
Li9 Si19 2.846169 1_565
Li10 Si14 2.615734 1_555
Li10 Li79 2.650022 1_555
Li10 Li72 2.650032 1_555
Li10 Si11 2.732951 1_555
Li10 Si16 2.846160 1_556
Li11 Si15 2.615733 1_555
Li11 Li76 2.650020 1_555
Li11 Li75 2.650020 1_555
Li11 Si9 2.732940 1_555
Li11 Si18 2.846169 1_555
Li12 Li71 2.649292 1_555
Li12 Li70 2.649292 1_555
Li12 Si10 2.662606 1_555
Li12 Li25 2.688072 1_555
Li12 Si2 2.924904 1_555
Li12 Si0 2.924904 1_555
Li13 Li77 2.649281 1_555
Li13 Li68 2.649292 1_555
Li13 Si8 2.662596 1_555
Li13 Li27 2.688072 1_554
Li13 Si1 2.924903 1_554
Li13 Si3 2.924914 1_554
Li14 Li78 2.649281 1_555
Li14 Li68 2.649292 1_555
Li14 Si6 2.662596 1_555
Li14 Li26 2.688072 1_554
Li14 Si5 2.924903 1_554
Li14 Si3 2.924914 1_554
Li15 Li69 2.649289 1_555
Li15 Li74 2.649289 1_555
Li15 Si7 2.662593 1_555
Li15 Li24 2.688072 1_455
Li15 Si4 2.924911 1_455
Li15 Si5 2.924911 1_455
Li16 Li72 2.649289 1_555
Li16 Li73 2.649289 1_555
Li16 Si11 2.662593 1_555
Li16 Li24 2.688072 1_545
Li16 Si4 2.924911 1_545
Li16 Si1 2.924911 1_545
Li17 Li69 2.649281 1_555
Li17 Li76 2.649292 1_555
Li17 Si9 2.662596 1_555
Li17 Li26 2.688072 1_455
Li17 Si5 2.924903 1_455
Li17 Si0 2.924914 1_455
Li18 Li72 2.649281 1_555
Li18 Li75 2.649292 1_555
Li18 Si9 2.662596 1_555
Li18 Li27 2.688072 1_545
Li18 Si1 2.924903 1_545
Li18 Si2 2.924914 1_545
Li19 Li73 2.649281 1_555
Li19 Li75 2.649292 1_555
Li19 Si6 2.662596 1_555
Li19 Li25 2.688072 1_545
Li19 Si4 2.924903 1_545
Li19 Si2 2.924914 1_545
Li20 Li48 2.659186 1_655
Li20 Li45 2.659186 1_556
Li20 Li44 2.659186 1_565
Li20 Li21 2.766625 1_556
Li20 Li22 2.766625 1_565
Li20 Li23 2.766625 1_655
Li20 Si18 2.815766 1_665
Li20 Si16 2.815766 1_566
Li20 Si17 2.815766 1_656
Li20 Li59 2.882017 1_555
Li20 Li58 2.882017 1_555
Li20 Li67 2.882017 1_555
Li21 Li49 2.659182 1_565
Li21 Li47 2.659182 1_655
Li21 Li45 2.659193 1_555
Li21 Li23 2.766625 1_654
Li21 Li22 2.766625 1_564
Li21 Si19 2.815761 1_665
Li21 Si16 2.815772 1_565
Li21 Si17 2.815772 1_655
Li21 Li56 2.882005 1_555
Li21 Li65 2.882013 1_555
Li21 Li66 2.882013 1_555
Li22 Li46 2.659182 1_655
Li22 Li49 2.659182 1_556
Li22 Li44 2.659193 1_555
Li22 Li23 2.766625 1_645
Li22 Si19 2.815761 1_656
Li22 Si16 2.815772 1_556
Li22 Si18 2.815772 1_655
Li22 Li63 2.882005 1_555
Li22 Li61 2.882013 1_555
Li22 Li60 2.882013 1_555
Li23 Li46 2.659182 1_565
Li23 Li47 2.659182 1_556
Li23 Li48 2.659193 1_555
Li23 Si19 2.815761 1_566
Li23 Si17 2.815772 1_556
Li23 Si18 2.815772 1_565
Li23 Li64 2.882005 1_555
Li23 Li62 2.882013 1_555
Li23 Li57 2.882013 1_555
Li24 Li29 2.647485 1_555
Li24 Li30 2.647485 1_555
Li24 Li31 2.647485 1_555
Li24 Li80 2.688072 1_556
Li24 Si4 2.787489 1_555
Li24 Si1 2.787489 1_555
Li24 Si5 2.787489 1_555
Li24 Li58 2.895664 1_555
Li24 Li59 2.895664 1_555
Li24 Li67 2.895664 1_555
Li25 Li30 2.647464 1_555
Li25 Li31 2.647464 1_555
Li25 Li28 2.647478 1_555
Li25 Li81 2.688072 1_655
Li25 Si4 2.787479 1_555
Li25 Si0 2.787490 1_555
Li25 Si2 2.787490 1_555
Li25 Li56 2.895665 1_555
Li25 Li65 2.895674 1_555
Li25 Li66 2.895674 1_555
Li26 Li29 2.647464 1_555
Li26 Li31 2.647464 1_555
Li26 Li28 2.647478 1_555
Li26 Li82 2.688072 1_555
Li26 Si5 2.787479 1_555
Li26 Si0 2.787490 1_555
Li26 Si3 2.787490 1_555
Li26 Li63 2.895665 1_555
Li26 Li60 2.895674 1_555
Li26 Li61 2.895674 1_555
Li27 Li29 2.647464 1_555
Li27 Li30 2.647464 1_555
Li27 Li28 2.647478 1_555
Li27 Li83 2.688072 1_555
Li27 Si1 2.787479 1_555
Li27 Si2 2.787490 1_555
Li27 Si3 2.787490 1_555
Li27 Li64 2.895665 1_555
Li27 Li62 2.895674 1_555
Li27 Li57 2.895674 1_555
Li28 Si3 2.695906 1_555
Li28 Si0 2.695906 1_555
Li28 Si2 2.695906 1_555
Li29 Si3 2.695899 1_555
Li29 Si1 2.695910 1_555
Li29 Si5 2.695910 1_555
Li30 Si2 2.695899 1_555
Li30 Si1 2.695910 1_555
Li30 Si4 2.695910 1_555
Li31 Si0 2.695899 1_555
Li31 Si4 2.695910 1_555
Li31 Si5 2.695910 1_555
Li32 Li37 2.700522 1_555
Li32 Li39 2.700522 1_555
Li32 Li38 2.700522 1_555
Li32 Si7 2.723676 1_555
Li32 Si11 2.723676 1_555
Li32 Si10 2.723676 1_555
Li32 Li70 2.868226 1_555
Li32 Li71 2.868226 1_555
Li32 Li79 2.868226 1_555
Li33 Li36 2.700522 1_555
Li33 Li38 2.700522 1_555
Li33 Li39 2.700522 1_555
Li33 Si8 2.723676 1_555
Li33 Si10 2.723676 1_555
Li33 Si6 2.723676 1_555
Li33 Li68 2.868226 1_555
Li33 Li77 2.868226 1_555
Li33 Li78 2.868226 1_555
Li34 Li36 2.700522 1_555
Li34 Li37 2.700522 1_555
Li34 Li39 2.700522 1_555
Li34 Si11 2.723676 1_555
Li34 Si6 2.723676 1_555
Li34 Si9 2.723676 1_555
Li34 Li75 2.868226 1_555
Li34 Li73 2.868226 1_555
Li34 Li72 2.868226 1_555
Li35 Li36 2.700522 1_555
Li35 Li38 2.700522 1_555
Li35 Li37 2.700522 1_555
Li35 Si7 2.723676 1_555
Li35 Si8 2.723676 1_555
Li35 Si9 2.723676 1_555
Li35 Li76 2.868226 1_555
Li35 Li74 2.868226 1_555
Li35 Li69 2.868226 1_555
Li36 Li76 2.441034 1_555
Li36 Li75 2.441034 1_555
Li36 Li68 2.441034 1_555
Li36 Si15 2.721790 1_555
Li36 Si8 2.796899 1_555
Li36 Si6 2.796899 1_555
Li36 Si9 2.796899 1_555
Li37 Li79 2.441034 1_555
Li37 Li72 2.441034 1_555
Li37 Li69 2.441034 1_555
Li37 Si14 2.721790 1_555
Li37 Si7 2.796899 1_555
Li37 Si11 2.796899 1_555
Li37 Si9 2.796899 1_555
Li38 Li70 2.441034 1_555
Li38 Li77 2.441034 1_555
Li38 Li74 2.441034 1_555
Li38 Si13 2.721790 1_555
Li38 Si10 2.796899 1_555
Li38 Si7 2.796899 1_555
Li38 Si8 2.796899 1_555
Li39 Li71 2.441034 1_555
Li39 Li73 2.441034 1_555
Li39 Li78 2.441034 1_555
Li39 Si12 2.721790 1_555
Li39 Si10 2.796899 1_555
Li39 Si11 2.796899 1_555
Li39 Si6 2.796899 1_555
Li40 Si12 2.724667 1_455
Li40 Si13 2.724667 1_545
Li40 Si14 2.724667 1_554
Li41 Si15 2.724663 1_555
Li41 Si13 2.724674 1_545
Li41 Si12 2.724674 1_455
Li42 Si15 2.724663 1_555
Li42 Si12 2.724674 1_455
Li42 Si14 2.724674 1_554
Li43 Si15 2.724663 1_555
Li43 Si14 2.724674 1_554
Li43 Si13 2.724674 1_545
Li44 Si11 2.684617 1_555
Li44 Si16 2.837894 1_556
Li44 Si18 2.837894 1_655
Li45 Si10 2.684617 1_555
Li45 Si17 2.837894 1_655
Li45 Si16 2.837894 1_565
Li46 Si9 2.684617 1_555
Li46 Si19 2.837894 1_556
Li46 Si18 2.837894 1_555
Li47 Si8 2.684617 1_555
Li47 Si19 2.837894 1_565
Li47 Si17 2.837894 1_555
Li48 Si7 2.684617 1_555
Li48 Si17 2.837894 1_556
Li48 Si18 2.837894 1_565
Li49 Si6 2.684617 1_555
Li49 Si19 2.837894 1_655
Li49 Si16 2.837894 1_555
Li50 Li75 2.668952 1_555
Li50 Li70 2.668952 1_545
Li50 Si15 2.759266 1_555
Li50 Si13 2.759266 1_545
Li50 Si2 2.764085 1_545
Li51 Li68 2.668952 1_555
Li51 Li79 2.668952 1_554
Li51 Si15 2.759266 1_555
Li51 Si14 2.759266 1_554
Li51 Si3 2.764085 1_554
Li52 Li74 2.668952 1_545
Li52 Li73 2.668952 1_455
Li52 Si13 2.759266 1_545
Li52 Si12 2.759266 1_455
Li52 Si4 2.764085 1_445
Li53 Li78 2.668952 1_455
Li53 Li69 2.668952 1_554
Li53 Si14 2.759266 1_554
Li53 Si12 2.759266 1_455
Li53 Si5 2.764085 1_454
Li54 Li76 2.668952 1_555
Li54 Li71 2.668952 1_455
Li54 Si15 2.759266 1_555
Li54 Si12 2.759266 1_455
Li54 Si0 2.764085 1_455
Li55 Li72 2.668952 1_554
Li55 Li77 2.668952 1_545
Li55 Si14 2.759266 1_554
Li55 Si13 2.759266 1_545
Li55 Si1 2.764085 1_544
Li56 Si4 2.624016 1_555
Li56 Si19 2.627570 1_665
Li57 Si2 2.624016 1_555
Li57 Si18 2.627570 1_565
Li58 Si5 2.624016 1_555
Li58 Si17 2.627570 1_656
Li59 Si1 2.624016 1_555
Li59 Si16 2.627570 1_566
Li60 Si0 2.624016 1_555
Li60 Si18 2.627570 1_655
Li61 Si3 2.624016 1_555
Li61 Si16 2.627570 1_556
Li62 Si3 2.624016 1_555
Li62 Si17 2.627570 1_556
Li63 Si5 2.624016 1_555
Li63 Si19 2.627570 1_656
Li64 Si1 2.624016 1_555
Li64 Si19 2.627570 1_566
Li65 Si0 2.624016 1_555
Li65 Si17 2.627570 1_655
Li66 Si2 2.624016 1_555
Li66 Si16 2.627570 1_565
Li67 Si4 2.624016 1_555
Li67 Si18 2.627570 1_665
Li68 Si3 2.828441 1_554
Li68 Si15 2.851599 1_555
Li68 Si8 2.986992 1_555
Li68 Si6 2.986992 1_555
Li69 Li7 2.650032 1_555
Li69 Si5 2.828441 1_455
Li69 Si14 2.851599 1_555
Li69 Si7 2.986992 1_555
Li69 Si9 2.986992 1_555
Li70 Li83 2.649292 1_555
Li70 Si2 2.828441 1_555
Li70 Si13 2.851599 1_555
Li70 Si7 2.986992 1_555
Li70 Si10 2.986992 1_555
Li71 Li82 2.649292 1_555
Li71 Si0 2.828441 1_555
Li71 Si12 2.851599 1_555
Li71 Si11 2.986992 1_555
Li71 Si10 2.986992 1_555
Li72 Si1 2.828441 1_545
Li72 Si14 2.851599 1_555
Li72 Si11 2.986992 1_555
Li72 Si9 2.986992 1_555
Li73 Li8 2.650021 1_555
Li73 Si4 2.828441 1_545
Li73 Si12 2.851599 1_555
Li73 Si11 2.986992 1_555
Li73 Si6 2.986992 1_555
Li74 Li81 2.649281 1_555
Li74 Li9 2.650021 1_555
Li74 Si4 2.828441 1_455
Li74 Si13 2.851599 1_555
Li74 Si7 2.986992 1_555
Li74 Si8 2.986992 1_555
Li75 Si2 2.828441 1_545
Li75 Si15 2.851599 1_555
Li75 Si9 2.986992 1_555
Li75 Si6 2.986992 1_555
Li76 Li81 2.649292 1_555
Li76 Si0 2.828441 1_455
Li76 Si15 2.851599 1_555
Li76 Si9 2.986992 1_555
Li76 Si8 2.986992 1_555
Li77 Li80 2.649289 1_555
Li77 Li9 2.650021 1_555
Li77 Si1 2.828441 1_554
Li77 Si13 2.851599 1_555
Li77 Si10 2.986992 1_555
Li77 Si8 2.986992 1_555
Li78 Li80 2.649289 1_555
Li78 Li8 2.650021 1_555
Li78 Si5 2.828441 1_554
Li78 Si12 2.851599 1_555
Li78 Si10 2.986992 1_555
Li78 Si6 2.986992 1_555
Li79 Li82 2.649292 1_555
Li79 Li83 2.649292 1_555
Li79 Si3 2.828441 1_555
Li79 Si14 2.851599 1_555
Li79 Si7 2.986992 1_555
Li79 Si11 2.986992 1_555
Li80 Si10 2.662593 1_555
Li80 Si5 2.924911 1_554
Li80 Si1 2.924911 1_554
Li81 Si8 2.662596 1_555
Li81 Si4 2.924903 1_455
Li81 Si0 2.924914 1_455
Li82 Si11 2.662606 1_555
Li82 Si3 2.924904 1_555
Li82 Si0 2.924904 1_555
Li83 Si7 2.662606 1_555
Li83 Si2 2.924904 1_555
Li83 Si3 2.924904 1_555
