# generated using pymatgen
data_Na6Hf6Mg2Si5S7O48
_symmetry_space_group_name_H-M   'P 1'
_cell_length_a   17.87161521
_cell_length_b   8.96656242
_cell_length_c   23.23846872
_cell_angle_alpha   89.99236090
_cell_angle_beta   90.03283753
_cell_angle_gamma   120.13837032
_symmetry_Int_Tables_number   1
_chemical_formula_structural   Na6Hf6Mg2Si5S7O48
_chemical_formula_sum   'Na18 Hf18 Mg6 Si15 S21 O144'
_cell_volume   3220.48002760
_cell_formula_units_Z   3
loop_
 _symmetry_equiv_pos_site_id
 _symmetry_equiv_pos_as_xyz
  1  'x, y, z'
loop_
 _atom_site_type_symbol
 _atom_site_label
 _atom_site_symmetry_multiplicity
 _atom_site_fract_x
 _atom_site_fract_y
 _atom_site_fract_z
 _atom_site_occupancy
  Na  Na0  1  0.65516196  0.34583442  0.58202939  1
  Na  Na1  1  0.52201161  0.69069620  0.58380261  1
  Na  Na2  1  0.82285741  0.95389842  0.58250978  1
  Na  Na3  1  0.15366935  0.96169620  0.08447138  1
  Na  Na4  1  0.32264968  0.69287817  0.08485972  1
  Na  Na5  1  0.02190031  0.35386083  0.08628727  1
  Na  Na6  1  0.00452532  0.99456626  0.49530633  1
  Na  Na7  1  0.49601733  0.00576452  0.50024812  1
  Na  Na8  1  0.99696952  0.98694707  0.00230067  1
  Na  Na9  1  0.50286769  0.00656258  0.99981066  1
  Na  Na10  1  0.32844411  0.32283721  0.82116091  1
  Na  Na11  1  0.82914810  0.33051995  0.83384876  1
  Na  Na12  1  0.32708825  0.32590415  0.33489560  1
  Na  Na13  1  0.83455557  0.34223562  0.32486789  1
  Na  Na14  1  0.16423591  0.66497659  0.16117092  1
  Na  Na15  1  0.67193556  0.67531151  0.17134916  1
  Na  Na16  1  0.17149520  0.66747304  0.66690936  1
  Na  Na17  1  0.66514834  0.66449234  0.65641484  1
  Hf  Hf0  1  0.00004477  0.99084492  0.35523621  1
  Hf  Hf1  1  0.50228572  0.99874625  0.35285233  1
  Hf  Hf2  1  0.00291647  0.00532839  0.85225668  1
  Hf  Hf3  1  0.49950982  0.99736538  0.85051311  1
  Hf  Hf4  1  0.00586431  0.00512513  0.64624435  1
  Hf  Hf5  1  0.49315539  0.00394584  0.64432390  1
  Hf  Hf6  1  0.99509020  0.98413530  0.14816638  1
  Hf  Hf7  1  0.50356646  0.00629127  0.14979775  1
  Hf  Hf8  1  0.32812896  0.31807623  0.98548197  1
  Hf  Hf9  1  0.83303734  0.34677071  0.97822175  1
  Hf  Hf10  1  0.33226176  0.31866887  0.47737533  1
  Hf  Hf11  1  0.83274045  0.34797417  0.48275399  1
  Hf  Hf12  1  0.67217025  0.67904798  0.01579163  1
  Hf  Hf13  1  0.16735382  0.66757418  0.51165351  1
  Hf  Hf14  1  0.16465638  0.66235079  0.31961416  1
  Hf  Hf15  1  0.67271782  0.68038098  0.30943494  1
  Hf  Hf16  1  0.17119241  0.66447422  0.80833534  1
  Hf  Hf17  1  0.67233475  0.67790979  0.81585430  1
  Mg  Mg0  1  0.33473848  0.32291168  0.68946247  1
  Mg  Mg1  1  0.82681804  0.33106246  0.67839205  1
  Mg  Mg2  1  0.32498781  0.31936545  0.18168503  1
  Mg  Mg3  1  0.83727345  0.34741668  0.19185294  1
  Mg  Mg4  1  0.16587300  0.66875513  0.02510795  1
  Mg  Mg5  1  0.66660193  0.66482268  0.52441260  1
  Si  Si0  1  0.64998698  0.00813800  0.24929289  1
  Si  Si1  1  0.85517256  0.70219155  0.25085518  1
  Si  Si2  1  0.14998808  0.29104542  0.74909812  1
  Si  Si3  1  0.35580210  0.01026362  0.75054005  1
  Si  Si4  1  0.47610003  0.33841106  0.58541704  1
  Si  Si5  1  0.68860322  0.04051503  0.58486525  1
  Si  Si6  1  0.83489294  0.62843136  0.58641117  1
  Si  Si7  1  0.97608589  0.61700729  0.08573527  1
  Si  Si8  1  0.33611568  0.04229501  0.08583968  1
  Si  Si9  1  0.18679322  0.33606914  0.08623777  1
  Si  Si10  1  0.81502368  0.67094775  0.91543232  1
  Si  Si11  1  0.66580958  0.96144615  0.91692773  1
  Si  Si12  1  0.31465849  0.95743483  0.41505921  1
  Si  Si13  1  0.16661027  0.37304225  0.41663278  1
  Si  Si14  1  0.01721549  0.66058379  0.41683614  1
  S  S0  1  0.14795993  0.00243137  0.25020168  1
  S  S1  1  0.35436439  0.70555704  0.24928771  1
  S  S2  1  0.00056138  0.29125732  0.24949986  1
  S  S3  1  0.49734783  0.29059230  0.25106123  1
  S  S4  1  0.64715485  0.29223353  0.75008470  1
  S  S5  1  0.99730180  0.70523283  0.75059050  1
  S  S6  1  0.50054046  0.70823496  0.74928946  1
  S  S7  1  0.85557866  0.00478232  0.74934734  1
  S  S8  1  0.97977812  0.33811115  0.58541165  1
  S  S9  1  0.18992805  0.04195987  0.58466532  1
  S  S10  1  0.32983118  0.61693098  0.58480066  1
  S  S11  1  0.47941818  0.62119110  0.08464867  1
  S  S12  1  0.83135294  0.04464749  0.08434916  1
  S  S13  1  0.68850485  0.33533734  0.08403252  1
  S  S14  1  0.31165318  0.66615114  0.91768612  1
  S  S15  1  0.02272154  0.37840553  0.91740679  1
  S  S16  1  0.52155093  0.37755141  0.91624719  1
  S  S17  1  0.16694077  0.95496171  0.91689601  1
  S  S18  1  0.81090733  0.95660528  0.41827389  1
  S  S19  1  0.66608049  0.37842653  0.41711396  1
  S  S20  1  0.52277960  0.66668407  0.41760259  1
  O  O0  1  0.10444645  0.02385707  0.30098736  1
  O  O1  1  0.59613077  0.02304002  0.30461568  1
  O  O2  1  0.40887053  0.79744989  0.30044761  1
  O  O3  1  0.91414977  0.81080967  0.30571126  1
  O  O4  1  0.48580845  0.18079455  0.30202120  1
  O  O5  1  0.99240217  0.18581188  0.30046602  1
  O  O6  1  0.09659522  0.17007132  0.80527373  1
  O  O7  1  0.60282948  0.18324881  0.80216542  1
  O  O8  1  0.49252614  0.79978504  0.80155038  1
  O  O9  1  0.98599710  0.79177679  0.80243053  1
  O  O10  1  0.41452677  0.02048180  0.80700362  1
  O  O11  1  0.90817424  0.01886641  0.80144473  1
  O  O12  1  0.39927856  0.96431483  0.69625436  1
  O  O13  1  0.89429553  0.97391702  0.69713260  1
  O  O14  1  0.08328375  0.19703936  0.69499164  1
  O  O15  1  0.59377586  0.21063795  0.69799988  1
  O  O16  1  0.01233962  0.81582259  0.69907257  1
  O  O17  1  0.51629756  0.81595465  0.69771080  1
  O  O18  1  0.39626389  0.81572242  0.19622505  1
  O  O19  1  0.89704371  0.83071661  0.19450789  1
  O  O20  1  0.01433013  0.21187630  0.19584398  1
  O  O21  1  0.51227327  0.20939477  0.19879567  1
  O  O22  1  0.09442287  0.97877183  0.19690344  1
  O  O23  1  0.58386019  0.96946147  0.19396048  1
  O  O24  1  0.43403031  0.37814095  0.63954628  1
  O  O25  1  0.94055874  0.35998830  0.63733977  1
  O  O26  1  0.24038637  0.12304412  0.63611927  1
  O  O27  1  0.74992262  0.12084480  0.63984127  1
  O  O28  1  0.31836576  0.51674554  0.63658567  1
  O  O29  1  0.81763986  0.51044476  0.64152421  1
  O  O30  1  0.44099472  0.52030270  0.13621743  1
  O  O31  1  0.93263482  0.48723066  0.13796728  1
  O  O32  1  0.31885809  0.12952786  0.13958056  1
  O  O33  1  0.81638850  0.11620050  0.13580111  1
  O  O34  1  0.25179868  0.37948543  0.13865920  1
  O  O35  1  0.74002018  0.36163118  0.13509230  1
  O  O36  1  0.23173625  0.29654059  0.02803115  1
  O  O37  1  0.72535321  0.30450989  0.03077872  1
  O  O38  1  0.42523836  0.54427898  0.03128181  1
  O  O39  1  0.91703436  0.53103677  0.02666828  1
  O  O40  1  0.35319608  0.16529301  0.02679914  1
  O  O41  1  0.84421745  0.14615462  0.03118272  1
  O  O42  1  0.22538290  0.14589559  0.53152941  1
  O  O43  1  0.73205699  0.16751595  0.52770624  1
  O  O44  1  0.34530837  0.54350130  0.53207108  1
  O  O45  1  0.85293617  0.54300680  0.52820115  1
  O  O46  1  0.41667192  0.30457126  0.52730726  1
  O  O47  1  0.92569777  0.30388975  0.53279601  1
  O  O48  1  0.27382323  0.69306785  0.96903006  1
  O  O49  1  0.76674257  0.69317527  0.97206664  1
  O  O50  1  0.07424490  0.45230487  0.96915441  1
  O  O51  1  0.57413424  0.45717818  0.96870314  1
  O  O52  1  0.15472250  0.85654467  0.96922213  1
  O  O53  1  0.64973473  0.83489030  0.97249247  1
  O  O54  1  0.27114902  0.84332875  0.47302304  1
  O  O55  1  0.77227539  0.85075880  0.46923743  1
  O  O56  1  0.15121405  0.46233293  0.47354108  1
  O  O57  1  0.65349829  0.45270819  0.46916452  1
  O  O58  1  0.07848542  0.69517587  0.47361465  1
  O  O59  1  0.57410266  0.69594928  0.46923641  1
  O  O60  1  0.06480052  0.63745264  0.36014415  1
  O  O61  1  0.56258692  0.63989799  0.36535376  1
  O  O62  1  0.25419362  0.86935093  0.35861989  1
  O  O63  1  0.75616190  0.87092573  0.36571369  1
  O  O64  1  0.18305901  0.49477319  0.36002664  1
  O  O65  1  0.67647766  0.48298880  0.36488059  1
  O  O66  1  0.06252672  0.48523223  0.86548069  1
  O  O67  1  0.56322256  0.48256027  0.86437906  1
  O  O68  1  0.17780197  0.87297194  0.86500974  1
  O  O69  1  0.67782337  0.86243974  0.86103363  1
  O  O70  1  0.25737396  0.64095579  0.86561215  1
  O  O71  1  0.75219774  0.63849651  0.85992386  1
  O  O72  1  0.00959758  0.83446081  0.41072952  1
  O  O73  1  0.51195582  0.82180081  0.40858556  1
  O  O74  1  0.41084074  0.97965309  0.40772069  1
  O  O75  1  0.89790298  0.97730018  0.40902264  1
  O  O76  1  0.08011226  0.18613883  0.40830921  1
  O  O77  1  0.58800567  0.20144988  0.40890689  1
  O  O78  1  0.01165943  0.20150177  0.90840019  1
  O  O79  1  0.51273454  0.20427397  0.90995922  1
  O  O80  1  0.08949146  0.97745713  0.90915635  1
  O  O81  1  0.57962203  0.97897795  0.90921118  1
  O  O82  1  0.39959810  0.82188567  0.90856641  1
  O  O83  1  0.90979547  0.84227815  0.90818630  1
  O  O84  1  0.48984393  0.16639380  0.59019960  1
  O  O85  1  0.98563432  0.17439007  0.59094573  1
  O  O86  1  0.10039690  0.02151473  0.59039162  1
  O  O87  1  0.59041831  0.01869090  0.59249626  1
  O  O88  1  0.41262733  0.79305265  0.58992527  1
  O  O89  1  0.91985139  0.82803133  0.59236313  1
  O  O90  1  0.48628210  0.79609509  0.08921205  1
  O  O91  1  0.99038848  0.81648378  0.09048449  1
  O  O92  1  0.42102161  0.01194549  0.09021668  1
  O  O93  1  0.91169407  0.02985277  0.08894480  1
  O  O94  1  0.08965236  0.16139884  0.09072089  1
  O  O95  1  0.59939945  0.17784139  0.08971886  1
  O  O96  1  0.34606615  0.17520789  0.74750322  1
  O  O97  1  0.84745736  0.15746055  0.74536780  1
  O  O98  1  0.24423016  0.32020237  0.74322386  1
  O  O99  1  0.73269642  0.31016408  0.74678073  1
  O  O100  1  0.42256003  0.54055587  0.74611243  1
  O  O101  1  0.92226821  0.53372062  0.74457176  1
  O  O102  1  0.34927996  0.53859438  0.24404323  1
  O  O103  1  0.84471722  0.51781465  0.24655746  1
  O  O104  1  0.42229956  0.31077848  0.24365565  1
  O  O105  1  0.92345583  0.30503133  0.24402647  1
  O  O106  1  0.23335524  0.15753875  0.24527493  1
  O  O107  1  0.74359509  0.16726334  0.24188227  1
  O  O108  1  0.32362024  0.51302276  0.92256793  1
  O  O109  1  0.82198490  0.49733460  0.92128898  1
  O  O110  1  0.43512244  0.36192026  0.92242905  1
  O  O111  1  0.93387219  0.35247015  0.92304729  1
  O  O112  1  0.24546946  0.13345210  0.92139789  1
  O  O113  1  0.75310784  0.14537665  0.92519255  1
  O  O114  1  0.32353565  0.14765780  0.42146020  1
  O  O115  1  0.81983514  0.12916606  0.42284397  1
  O  O116  1  0.25332415  0.35955424  0.42580334  1
  O  O117  1  0.74318705  0.35630111  0.42123505  1
  O  O118  1  0.43407706  0.51528384  0.42298343  1
  O  O119  1  0.92310922  0.48586389  0.42299903  1
  O  O120  1  0.17574954  0.50004711  0.07381545  1
  O  O121  1  0.67503450  0.48593778  0.07477927  1
  O  O122  1  0.07305831  0.65101455  0.07491094  1
  O  O123  1  0.56658501  0.64225787  0.07579125  1
  O  O124  1  0.25276943  0.85546657  0.07401166  1
  O  O125  1  0.75468984  0.86373180  0.07639771  1
  O  O126  1  0.17733076  0.86606342  0.57813948  1
  O  O127  1  0.67484831  0.85044577  0.57468035  1
  O  O128  1  0.25534284  0.64640147  0.57819023  1
  O  O129  1  0.75193284  0.65085640  0.57530033  1
  O  O130  1  0.06760706  0.48857665  0.57845814  1
  O  O131  1  0.57362988  0.49643522  0.57528825  1
  O  O132  1  0.15408857  0.84361565  0.25458536  1
  O  O133  1  0.64888968  0.82277403  0.25881300  1
  O  O134  1  0.26901867  0.69279991  0.25397260  1
  O  O135  1  0.75854443  0.68756487  0.25830123  1
  O  O136  1  0.08041569  0.46605811  0.25446164  1
  O  O137  1  0.57785283  0.46092173  0.25828441  1
  O  O138  1  0.14942600  0.47454326  0.75923921  1
  O  O139  1  0.65206848  0.46271036  0.75752785  1
  O  O140  1  0.07765681  0.69528047  0.75887204  1
  O  O141  1  0.57880682  0.69027545  0.75833670  1
  O  O142  1  0.25988825  0.83174186  0.75952367  1
  O  O143  1  0.76819142  0.84410076  0.75614651  1
loop_
_geom_bond_atom_site_label_1
_geom_bond_atom_site_label_2
_geom_bond_distance
_geom_bond_site_symmetry_2
Na0 O129 2.397092 1_555
Na0 O131 2.438598 1_555
Na0 O84 2.565325 1_555
Na0 O87 2.567953 1_555
Na0 O57 2.797530 1_555
Na0 O29 2.865989 1_555
Na0 O43 2.871869 1_555
Na0 O15 2.933094 1_555
Na1 O131 2.353315 1_555
Na1 O127 2.372590 1_555
Na1 O88 2.546785 1_555
Na1 O87 2.564018 1_565
Na1 O24 2.753357 1_555
Na1 O59 2.813491 1_555
Na1 O17 2.897417 1_555
Na2 O127 2.329377 1_555
Na2 O129 2.357841 1_555
Na2 O89 2.508978 1_555
Na2 O85 2.575644 1_565
Na2 O27 2.770689 1_565
Na2 O55 2.785632 1_555
Na2 O13 2.919487 1_555
Na2 O47 2.961518 1_565
Na3 O124 2.407835 1_555
Na3 O122 2.419701 1_555
Na3 O91 2.532816 1_455
Na3 O94 2.567863 1_565
Na3 O52 2.842659 1_554
Na3 O22 2.852559 1_555
Na3 O32 2.855710 1_565
Na3 O36 2.911331 1_565
Na4 O120 2.321404 1_555
Na4 O124 2.361444 1_555
Na4 O92 2.498071 1_565
Na4 O90 2.588555 1_555
Na4 O34 2.736901 1_555
Na4 O48 2.829402 1_554
Na4 O18 2.860648 1_555
Na5 O122 2.357740 1_555
Na5 O120 2.396621 1_555
Na5 O94 2.559879 1_555
Na5 O93 2.564669 1_455
Na5 O31 2.708469 1_455
Na5 O20 2.819122 1_555
Na5 O50 2.869945 1_554
Na6 O72 2.462463 1_555
Na6 O76 2.556313 1_565
Na6 O89 2.709373 1_455
Na6 O75 2.715666 1_455
Na6 O86 2.730680 1_565
Na6 O85 2.863886 1_465
Na7 O84 2.572305 1_555
Na7 O74 2.575631 1_545
Na7 O87 2.693467 1_555
Na7 O88 2.711060 1_545
Na7 O77 2.719066 1_555
Na7 O73 2.795145 1_545
Na8 O91 2.523574 1_555
Na8 O94 2.609138 1_665
Na8 O83 2.619279 1_554
Na8 O93 2.667806 1_565
Na8 O80 2.751726 1_654
Na8 O78 2.832655 1_664
Na9 O92 2.574898 1_556
Na9 O81 2.592225 1_545
Na9 O95 2.652605 1_556
Na9 O79 2.686855 1_555
Na9 O90 2.720925 1_546
Na9 O82 2.751691 1_545
Na10 O96 2.280609 1_555
Na10 O98 2.346722 1_555
Na10 O100 2.527230 1_555
Na10 O112 2.825375 1_555
Na10 O108 2.935600 1_555
Na10 O110 2.935961 1_555
Na11 O109 2.564369 1_555
Na11 O99 2.603582 1_555
Na11 O113 2.616380 1_555
Na11 O97 2.693380 1_555
Na11 O101 2.711383 1_555
Na11 O111 2.732031 1_555
Na12 O114 2.549999 1_555
Na12 O116 2.587391 1_555
Na12 O106 2.622975 1_555
Na12 O118 2.732365 1_555
Na12 O102 2.737179 1_555
Na12 O104 2.765013 1_555
Na13 O103 2.352820 1_555
Na13 O107 2.501828 1_555
Na13 O105 2.588554 1_555
Na13 O119 2.704340 1_555
Na13 O117 2.812183 1_555
Na13 O115 2.897917 1_555
Na14 O122 2.545703 1_555
Na14 O120 2.580139 1_555
Na14 O124 2.610028 1_555
Na14 O136 2.728533 1_555
Na14 O132 2.757547 1_555
Na14 O134 2.783195 1_555
Na15 O135 2.513273 1_555
Na15 O133 2.568585 1_555
Na15 O137 2.713119 1_555
Na15 O125 2.721038 1_555
Na15 O123 2.828233 1_555
Na15 O121 2.831628 1_555
Na16 O128 2.611460 1_555
Na16 O142 2.637703 1_555
Na16 O138 2.658311 1_555
Na16 O126 2.692566 1_555
Na16 O130 2.692773 1_555
Na16 O140 2.804615 1_555
Na17 O131 2.454043 1_555
Na17 O127 2.475296 1_555
Na17 O129 2.483438 1_555
Na17 O143 2.893818 1_555
Na17 O141 2.899462 1_555
Na17 O139 2.902432 1_555
Hf0 O3 1.948589 1_455
Hf0 O72 1.974352 1_555
Hf0 O76 2.029148 1_565
Hf0 O0 2.146203 1_565
Hf0 O75 2.165459 1_455
Hf0 O5 2.221202 1_465
Hf1 O1 1.937026 1_565
Hf1 O74 2.011788 1_555
Hf1 O73 2.121109 1_555
Hf1 O2 2.121406 1_555
Hf1 O77 2.132957 1_565
Hf1 O4 2.151367 1_565
Hf2 O6 1.922309 1_555
Hf2 O83 2.038396 1_445
Hf2 O11 2.116598 1_455
Hf2 O9 2.125429 1_445
Hf2 O78 2.131923 1_555
Hf2 O80 2.142572 1_545
Hf3 O10 1.919970 1_565
Hf3 O81 2.042652 1_555
Hf3 O8 2.056008 1_555
Hf3 O7 2.088360 1_565
Hf3 O82 2.159854 1_555
Hf3 O79 2.228498 1_565
Hf4 O14 1.940791 1_555
Hf4 O89 1.999858 1_445
Hf4 O86 2.076924 1_555
Hf4 O16 2.144338 1_545
Hf4 O85 2.153028 1_455
Hf4 O13 2.212416 1_445
Hf5 O84 1.947601 1_555
Hf5 O12 1.949593 1_545
Hf5 O87 2.064249 1_555
Hf5 O88 2.123868 1_545
Hf5 O15 2.208111 1_555
Hf5 O17 2.291399 1_545
Hf6 O19 1.924504 1_555
Hf6 O91 1.984234 1_555
Hf6 O94 2.114026 1_665
Hf6 O22 2.126008 1_655
Hf6 O20 2.193366 1_665
Hf6 O93 2.212329 1_565
Hf7 O23 1.922380 1_545
Hf7 O92 2.041715 1_555
Hf7 O21 2.086395 1_555
Hf7 O18 2.114869 1_545
Hf7 O95 2.145995 1_555
Hf7 O90 2.246212 1_545
Hf8 O40 1.901251 1_556
Hf8 O36 1.910628 1_556
Hf8 O112 2.164012 1_555
Hf8 O38 2.173080 1_556
Hf8 O110 2.281669 1_555
Hf8 O108 2.310874 1_555
Hf9 O39 1.938753 1_556
Hf9 O109 1.969528 1_555
Hf9 O113 2.056291 1_555
Hf9 O37 2.146904 1_556
Hf9 O111 2.191853 1_555
Hf9 O41 2.269468 1_556
Hf10 O114 1.955541 1_555
Hf10 O46 1.956406 1_555
Hf10 O116 2.019448 1_555
Hf10 O42 2.159382 1_555
Hf10 O118 2.190294 1_555
Hf10 O44 2.293992 1_555
Hf11 O45 1.915751 1_555
Hf11 O43 2.006286 1_555
Hf11 O119 2.015492 1_555
Hf11 O117 2.174437 1_555
Hf11 O47 2.219367 1_555
Hf11 O115 2.320927 1_555
Hf12 O53 1.920327 1_554
Hf12 O49 1.921482 1_554
Hf12 O125 2.108699 1_555
Hf12 O51 2.173276 1_554
Hf12 O121 2.228939 1_555
Hf12 O123 2.234143 1_555
Hf13 O56 1.929106 1_555
Hf13 O58 1.938593 1_555
Hf13 O54 1.948431 1_555
Hf13 O128 2.279584 1_555
Hf13 O126 2.295264 1_555
Hf13 O130 2.300714 1_555
Hf14 O60 1.929630 1_555
Hf14 O64 1.934794 1_555
Hf14 O62 1.960493 1_555
Hf14 O136 2.234719 1_555
Hf14 O132 2.295265 1_555
Hf14 O134 2.317735 1_555
Hf15 O135 1.916171 1_555
Hf15 O133 1.934005 1_555
Hf15 O63 2.072012 1_555
Hf15 O137 2.192639 1_555
Hf15 O65 2.217215 1_555
Hf15 O61 2.231508 1_555
Hf16 O142 1.913902 1_555
Hf16 O138 1.920438 1_555
Hf16 O70 2.124160 1_555
Hf16 O140 2.157147 1_555
Hf16 O66 2.232974 1_555
Hf16 O68 2.241047 1_555
Hf17 O69 1.920149 1_555
Hf17 O71 1.927579 1_555
Hf17 O143 2.125848 1_555
Hf17 O67 2.171248 1_555
Hf17 O141 2.185464 1_555
Hf17 O139 2.233836 1_555
Mg0 O24 1.964541 1_555
Mg0 O96 1.970446 1_555
Mg0 O98 2.034864 1_555
Mg0 O26 2.134326 1_555
Mg0 O100 2.219784 1_555
Mg0 O28 2.264053 1_555
Mg1 O29 1.900637 1_555
Mg1 O27 1.908385 1_555
Mg1 O25 2.140583 1_555
Mg1 O99 2.253168 1_555
Mg1 O101 2.337120 1_555
Mg1 O97 2.357284 1_555
Mg2 O32 1.918300 1_555
Mg2 O34 1.925513 1_555
Mg2 O106 2.141732 1_555
Mg2 O30 2.216277 1_555
Mg2 O104 2.288213 1_555
Mg2 O102 2.301208 1_555
Mg3 O103 1.940211 1_555
Mg3 O31 1.975032 1_555
Mg3 O107 2.012446 1_555
Mg3 O105 2.138282 1_555
Mg3 O35 2.235344 1_555
Mg3 O33 2.314583 1_555
Mg4 O122 1.963004 1_555
Mg4 O120 1.966754 1_555
Mg4 O124 1.973259 1_555
Mg4 O52 2.213070 1_554
Mg4 O50 2.223916 1_554
Mg4 O48 2.246824 1_554
Mg5 O127 1.977503 1_555
Mg5 O131 1.980098 1_555
Mg5 O129 1.982274 1_555
Mg5 O55 2.197875 1_555
Mg5 O57 2.207624 1_555
Mg5 O59 2.217097 1_555
O0 S0 1.478385 1_555
O1 Si0 1.651568 1_555
O2 S1 1.494720 1_555
O3 Si1 1.628649 1_555
O4 S3 1.486701 1_555
O5 S2 1.476279 1_655
O6 Si2 1.659209 1_555
O7 S4 1.506877 1_555
O8 S6 1.512557 1_555
O9 S5 1.500739 1_555
O10 Si3 1.653308 1_555
O11 S7 1.498242 1_555
O12 Si3 1.639394 1_565
O13 S7 1.490312 1_565
O14 Si2 1.643802 1_555
O15 S4 1.486063 1_555
O16 S5 1.490383 1_455
O17 S6 1.475068 1_555
O18 S1 1.521500 1_555
O19 Si1 1.654507 1_555
O20 S2 1.516032 1_555
O21 S3 1.507327 1_555
O22 S0 1.513076 1_565
O23 Si0 1.660455 1_565
O24 Si4 1.595186 1_555
O25 S8 1.457758 1_555
O26 S9 1.453320 1_555
O27 Si5 1.599346 1_555
O28 S10 1.453375 1_555
O29 Si6 1.589693 1_555
O30 S11 1.450124 1_555
O31 Si7 1.588614 1_555
O32 Si8 1.584146 1_555
O33 S12 1.444175 1_555
O34 Si9 1.590461 1_555
O35 S13 1.446362 1_555
O36 Si9 1.699301 1_555
O37 S13 1.491776 1_555
O38 S11 1.509792 1_555
O39 Si7 1.665467 1_555
O40 Si8 1.689358 1_555
O41 S12 1.482444 1_555
O42 S9 1.484031 1_555
O43 Si5 1.666418 1_555
O44 S10 1.481551 1_555
O45 Si6 1.664126 1_555
O46 Si4 1.648776 1_555
O47 S8 1.491386 1_555
O48 S14 1.450452 1_555
O49 Si10 1.640250 1_555
O50 S15 1.455778 1_555
O51 S16 1.484587 1_555
O52 S17 1.453115 1_555
O53 Si11 1.646271 1_555
O54 Si12 1.633330 1_555
O55 S18 1.456937 1_555
O56 Si13 1.639373 1_555
O57 S19 1.451959 1_555
O58 Si14 1.641204 1_555
O59 S20 1.451561 1_555
O60 Si14 1.637176 1_555
O61 S20 1.486841 1_555
O62 Si12 1.628900 1_555
O63 S18 1.511095 1_555
O64 Si13 1.638915 1_555
O65 S19 1.487258 1_555
O66 S15 1.481917 1_555
O67 S16 1.480066 1_555
O68 S17 1.475059 1_555
O69 Si11 1.647224 1_555
O70 S14 1.495024 1_555
O71 Si10 1.636960 1_555
O72 Si14 1.637824 1_555
O73 S20 1.511911 1_555
O74 Si12 1.637054 1_555
O75 S18 1.486126 1_555
O76 Si13 1.622933 1_555
O77 S19 1.509233 1_555
O78 S15 1.511330 1_555
O79 S16 1.488078 1_555
O80 S17 1.506304 1_555
O81 Si11 1.634702 1_555
O82 S14 1.503838 1_555
O83 Si10 1.626195 1_555
O84 Si4 1.682870 1_555
O85 S8 1.528653 1_555
O86 S9 1.522239 1_555
O87 Si5 1.674613 1_555
O88 S10 1.533270 1_555
O89 Si6 1.672921 1_555
O90 S11 1.514154 1_555
O91 Si7 1.678569 1_555
O92 Si8 1.673737 1_555
O93 S12 1.510526 1_555
O94 Si9 1.657564 1_555
O95 S13 1.513146 1_555
O96 Si3 1.575125 1_555
O97 S7 1.450260 1_555
O98 Si2 1.575371 1_555
O99 S4 1.456772 1_555
O100 S6 1.450522 1_555
O101 S5 1.453204 1_555
O102 S1 1.458696 1_555
O103 Si1 1.570945 1_555
O104 S3 1.450790 1_555
O105 S2 1.449488 1_655
O106 S0 1.464671 1_555
O107 Si0 1.570817 1_555
O108 S14 1.496211 1_555
O109 Si10 1.628422 1_555
O110 S16 1.486263 1_555
O111 S15 1.490655 1_655
O112 S17 1.512073 1_545
O113 Si11 1.614578 1_545
O114 Si12 1.638547 1_545
O115 S18 1.477471 1_545
O116 Si13 1.627725 1_555
O117 S19 1.490582 1_555
O118 S20 1.486852 1_555
O119 Si14 1.630277 1_655
O120 Si9 1.604791 1_555
O121 S13 1.501330 1_555
O122 Si7 1.621586 1_455
O123 S11 1.486502 1_555
O124 Si8 1.610754 1_565
O125 S12 1.520115 1_565
O126 S9 1.484811 1_565
O127 Si5 1.612550 1_565
O128 S10 1.489494 1_555
O129 Si6 1.613756 1_555
O130 S8 1.477770 1_455
O131 Si4 1.619113 1_555
O132 S0 1.485534 1_565
O133 Si0 1.667035 1_565
O134 S1 1.475249 1_555
O135 Si1 1.673987 1_555
O136 S2 1.503427 1_555
O137 S3 1.491302 1_555
O138 Si2 1.667184 1_555
O139 S4 1.496489 1_555
O140 S5 1.495218 1_455
O141 S6 1.500823 1_555
O142 Si3 1.670077 1_565
O143 S7 1.510143 1_565
