# generated using pymatgen
data_Na7Zn2SiSn2P5O24
_symmetry_space_group_name_H-M   'P 1'
_cell_length_a   9.04718611
_cell_length_b   9.04970746
_cell_length_c   22.10204443
_cell_angle_alpha   90.20601891
_cell_angle_beta   89.59692920
_cell_angle_gamma   119.98901926
_symmetry_Int_Tables_number   1
_chemical_formula_structural   Na7Zn2SiSn2P5O24
_chemical_formula_sum   'Na21 Zn6 Si3 Sn6 P15 O72'
_cell_volume   1567.28666727
_cell_formula_units_Z   3
loop_
 _symmetry_equiv_pos_site_id
 _symmetry_equiv_pos_as_xyz
  1  'x, y, z'
loop_
 _atom_site_type_symbol
 _atom_site_label
 _atom_site_symmetry_multiplicity
 _atom_site_fract_x
 _atom_site_fract_y
 _atom_site_fract_z
 _atom_site_occupancy
  Na  Na0  1  0.35897624  0.37210571  0.25378568  1
  Na  Na1  1  0.00932871  0.63638494  0.25157020  1
  Na  Na2  1  0.62728952  0.64487512  0.75158240  1
  Na  Na3  1  0.00780745  0.36784075  0.75450718  1
  Na  Na4  1  0.36527002  0.98688515  0.75165863  1
  Na  Na5  1  0.29250436  0.31340987  0.58427116  1
  Na  Na6  1  0.02984703  0.71091807  0.58578250  1
  Na  Na7  1  0.67671446  0.97187667  0.58988878  1
  Na  Na8  1  0.29001980  0.97093793  0.08610874  1
  Na  Na9  1  0.68554622  0.70714239  0.08517201  1
  Na  Na10  1  0.02705050  0.32537314  0.08734830  1
  Na  Na11  1  0.95796666  0.65209473  0.92294280  1
  Na  Na12  1  0.69610327  0.04056794  0.91772163  1
  Na  Na13  1  0.96058754  0.30543622  0.41888354  1
  Na  Na14  1  0.34829122  0.04164359  0.42232193  1
  Na  Na15  1  0.99564998  0.99006401  0.50548169  1
  Na  Na16  1  0.00994412  0.00451693  0.00524756  1
  Na  Na17  1  0.65397571  0.32933951  0.84046336  1
  Na  Na18  1  0.66711172  0.33613783  0.33989908  1
  Na  Na19  1  0.34276487  0.67912542  0.17368254  1
  Na  Na20  1  0.33990889  0.67486014  0.67221547  1
  Zn  Zn0  1  0.00105290  0.99921736  0.65176623  1
  Zn  Zn1  1  0.99688188  0.99260245  0.15165130  1
  Zn  Zn2  1  0.66449976  0.33901709  0.98524863  1
  Zn  Zn3  1  0.65927350  0.33418259  0.48435209  1
  Zn  Zn4  1  0.34162912  0.67416028  0.31773663  1
  Zn  Zn5  1  0.34079928  0.67218775  0.81796751  1
  Si  Si0  1  0.70460104  0.00140574  0.74778923  1
  Si  Si1  1  0.36652781  0.03360109  0.58031349  1
  Si  Si2  1  0.96512124  0.63115738  0.08074495  1
  Sn  Sn0  1  0.99447778  0.99471050  0.34948112  1
  Sn  Sn1  1  0.00267499  0.00463093  0.85005645  1
  Sn  Sn2  1  0.66531893  0.32825544  0.68250831  1
  Sn  Sn3  1  0.66911385  0.32990146  0.18340333  1
  Sn  Sn4  1  0.33153143  0.66439937  0.01558648  1
  Sn  Sn5  1  0.33777203  0.66964051  0.51495330  1
  P  P0  1  0.29912531  0.00259877  0.24843251  1
  P  P1  1  0.70143397  0.70065432  0.24696363  1
  P  P2  1  0.99564562  0.29252892  0.24842221  1
  P  P3  1  0.29738620  0.29546224  0.74746109  1
  P  P4  1  0.99643746  0.70159189  0.74842250  1
  P  P5  1  0.96465191  0.33763643  0.57963658  1
  P  P6  1  0.66402051  0.62421156  0.58168505  1
  P  P7  1  0.66404073  0.03739598  0.07956346  1
  P  P8  1  0.37397704  0.33533862  0.08279902  1
  P  P9  1  0.63139965  0.66701299  0.91391284  1
  P  P10  1  0.04007956  0.36832703  0.91439315  1
  P  P11  1  0.33129037  0.96537054  0.91469472  1
  P  P12  1  0.63228854  0.96204292  0.41526218  1
  P  P13  1  0.33075709  0.36903824  0.41268221  1
  P  P14  1  0.03625666  0.66721895  0.41387350  1
  O  O0  1  0.21815126  0.03933037  0.30679549  1
  O  O1  1  0.82369121  0.78310472  0.30285227  1
  O  O2  1  0.97084206  0.18609124  0.30789528  1
  O  O3  1  0.21849312  0.17199608  0.80337851  1
  O  O4  1  0.96330827  0.78202401  0.80712727  1
  O  O5  1  0.82652790  0.04267733  0.80930093  1
  O  O6  1  0.79006481  0.96966307  0.68866767  1
  O  O7  1  0.19370336  0.21750844  0.69018818  1
  O  O8  1  0.02923085  0.81221579  0.69254191  1
  O  O9  1  0.78079764  0.80054503  0.18900254  1
  O  O10  1  0.01932931  0.20657858  0.19247637  1
  O  O11  1  0.19149247  0.97861848  0.19211055  1
  O  O12  1  0.89062345  0.37883547  0.63879991  1
  O  O13  1  0.48966365  0.11305913  0.64174235  1
  O  O14  1  0.62981384  0.51682817  0.64229884  1
  O  O15  1  0.88487939  0.50630190  0.14208949  1
  O  O16  1  0.61818660  0.11352995  0.13636317  1
  O  O17  1  0.48341240  0.37088159  0.14258043  1
  O  O18  1  0.45613881  0.29821557  0.02953350  1
  O  O19  1  0.84922478  0.54743202  0.02183437  1
  O  O20  1  0.69006415  0.14249439  0.02261502  1
  O  O21  1  0.45022008  0.14975740  0.52111032  1
  O  O22  1  0.69711219  0.53841424  0.52885873  1
  O  O23  1  0.85577788  0.31364719  0.52428956  1
  O  O24  1  0.55112949  0.70208928  0.97279877  1
  O  O25  1  0.14547552  0.44827379  0.97418081  1
  O  O26  1  0.29505170  0.84872771  0.97308222  1
  O  O27  1  0.56040854  0.85806980  0.47631443  1
  O  O28  1  0.29627860  0.44825918  0.47206310  1
  O  O29  1  0.15263832  0.70441383  0.47224861  1
  O  O30  1  0.12112554  0.64254829  0.35742014  1
  O  O31  1  0.51407790  0.87246976  0.36297005  1
  O  O32  1  0.34455425  0.47184146  0.35656205  1
  O  O33  1  0.12779329  0.47871389  0.85899415  1
  O  O34  1  0.35506003  0.88087501  0.85806886  1
  O  O35  1  0.52959439  0.65184690  0.85750613  1
  O  O36  1  0.03017154  0.83900781  0.41096865  1
  O  O37  1  0.81583557  0.98208426  0.41121594  1
  O  O38  1  0.15975960  0.18647580  0.41207318  1
  O  O39  1  0.02178609  0.18570295  0.91348714  1
  O  O40  1  0.15946472  0.97057445  0.91189659  1
  O  O41  1  0.81356930  0.83728457  0.91325345  1
  O  O42  1  0.98515234  0.18009258  0.58648689  1
  O  O43  1  0.17590470  0.00824264  0.58750683  1
  O  O44  1  0.81626793  0.80630154  0.58673361  1
  O  O45  1  0.99159756  0.82234082  0.08726807  1
  O  O46  1  0.82268040  0.01933565  0.08812236  1
  O  O47  1  0.19036929  0.18523585  0.08968652  1
  O  O48  1  0.69454956  0.18169254  0.74665643  1
  O  O49  1  0.48129177  0.31673619  0.74515241  1
  O  O50  1  0.82560414  0.52457400  0.74479551  1
  O  O51  1  0.68893450  0.51815087  0.24590566  1
  O  O52  1  0.83155927  0.31168452  0.24728926  1
  O  O53  1  0.47656029  0.17342162  0.24549278  1
  O  O54  1  0.65864245  0.51396249  0.91902892  1
  O  O55  1  0.85935263  0.34550912  0.91899396  1
  O  O56  1  0.49122360  0.13981609  0.92203759  1
  O  O57  1  0.65748023  0.14357132  0.41993478  1
  O  O58  1  0.48345468  0.34105271  0.41750099  1
  O  O59  1  0.86103910  0.50835050  0.42170971  1
  O  O60  1  0.36763475  0.50658150  0.07757969  1
  O  O61  1  0.15701984  0.64407304  0.07879319  1
  O  O62  1  0.50071841  0.85317114  0.07681433  1
  O  O63  1  0.35451465  0.84241382  0.57820605  1
  O  O64  1  0.49282984  0.63107371  0.57752284  1
  O  O65  1  0.14758429  0.50193796  0.57651003  1
  O  O66  1  0.31346121  0.84212689  0.25572142  1
  O  O67  1  0.52015765  0.67085031  0.25488353  1
  O  O68  1  0.15400347  0.47325074  0.25314028  1
  O  O69  1  0.31467727  0.47191293  0.75609727  1
  O  O70  1  0.14865947  0.67191441  0.75552562  1
  O  O71  1  0.51316039  0.83654421  0.75371368  1
loop_
_geom_bond_atom_site_label_1
_geom_bond_atom_site_label_2
_geom_bond_distance
_geom_bond_site_symmetry_2
Na0 O67 2.344174 1_555
Na0 O68 2.444229 1_555
Na0 O32 2.467896 1_555
Na0 O53 2.511017 1_555
Na0 O51 2.595908 1_555
Na0 O17 2.698513 1_555
Na0 O0 2.869489 1_555
Na0 O10 2.994159 1_555
Na1 O68 2.413845 1_555
Na1 O66 2.434545 1_555
Na1 O51 2.542922 1_455
Na1 O30 2.544672 1_555
Na1 O52 2.550656 1_455
Na1 O15 2.683569 1_455
Na1 O1 2.839016 1_455
Na1 O11 2.988569 1_555
Na2 O71 2.422018 1_555
Na2 O69 2.455751 1_555
Na2 O35 2.508319 1_555
Na2 O50 2.524791 1_555
Na2 O49 2.581026 1_555
Na2 O14 2.680106 1_555
Na2 O6 2.900857 1_555
Na2 O4 2.925579 1_555
Na3 O70 2.385614 1_555
Na3 O69 2.446092 1_555
Na3 O48 2.476325 1_455
Na3 O33 2.539316 1_555
Na3 O50 2.668281 1_455
Na3 O12 2.796328 1_455
Na3 O5 2.826435 1_455
Na4 O71 2.337616 1_555
Na4 O34 2.526825 1_555
Na4 O70 2.527414 1_555
Na4 O48 2.596452 1_565
Na4 O49 2.627113 1_565
Na4 O13 2.677513 1_565
Na4 O3 2.839900 1_565
Na4 O8 2.947145 1_555
Na5 O43 2.415121 1_555
Na5 O42 2.415558 1_455
Na5 O7 2.498414 1_555
Na5 O64 2.522317 1_555
Na5 O65 2.626933 1_555
Na5 O28 2.760410 1_555
Na5 O21 2.871894 1_555
Na5 O14 2.961206 1_555
Na6 O43 2.330896 1_565
Na6 O44 2.479107 1_455
Na6 O8 2.529325 1_555
Na6 O63 2.563648 1_555
Na6 O65 2.600245 1_555
Na6 O29 2.749441 1_555
Na6 O12 2.865594 1_455
Na6 O22 2.902282 1_455
Na7 O44 2.394447 1_555
Na7 O6 2.422981 1_555
Na7 O42 2.466734 1_565
Na7 O63 2.555560 1_555
Na7 O64 2.688044 1_555
Na7 O27 2.721100 1_555
Na7 O13 2.816619 1_565
Na8 O45 2.338415 1_455
Na8 O11 2.513917 1_555
Na8 O47 2.515115 1_565
Na8 O61 2.581689 1_555
Na8 O62 2.614490 1_555
Na8 O26 2.737643 1_554
Na8 O16 2.814231 1_565
Na8 O18 2.853905 1_565
Na9 O45 2.423139 1_555
Na9 O9 2.451371 1_555
Na9 O46 2.453845 1_565
Na9 O60 2.526058 1_555
Na9 O62 2.606120 1_555
Na9 O24 2.763280 1_554
Na9 O19 2.887456 1_555
Na9 O17 2.940490 1_555
Na10 O47 2.380971 1_555
Na10 O46 2.443394 1_455
Na10 O61 2.519374 1_555
Na10 O10 2.549528 1_555
Na10 O60 2.678108 1_555
Na10 O25 2.726200 1_554
Na10 O15 2.805066 1_455
Na11 O54 2.349905 1_555
Na11 O19 2.386509 1_556
Na11 O55 2.454857 1_555
Na11 O40 2.536946 1_655
Na11 O41 2.599306 1_555
Na11 O4 2.810759 1_555
Na11 O26 2.881571 1_655
Na12 O55 2.392335 1_555
Na12 O56 2.431615 1_555
Na12 O20 2.502363 1_556
Na12 O41 2.544628 1_545
Na12 O39 2.558134 1_655
Na12 O5 2.659526 1_555
Na12 O24 2.927971 1_545
Na12 O34 2.988810 1_545
Na13 O57 2.376979 1_555
Na13 O59 2.416356 1_555
Na13 O38 2.522482 1_655
Na13 O23 2.523931 1_555
Na13 O37 2.544657 1_545
Na13 O2 2.696394 1_555
Na13 O28 2.896722 1_655
Na13 O30 2.972314 1_655
Na14 O58 2.352958 1_555
Na14 O21 2.384538 1_555
Na14 O57 2.469278 1_555
Na14 O36 2.537704 1_545
Na14 O38 2.630781 1_555
Na14 O0 2.814904 1_555
Na14 O29 2.874210 1_545
Na14 O31 2.927085 1_545
Na15 O43 2.396772 1_665
Na15 O44 2.430406 1_555
Na15 O42 2.512091 1_565
Na15 O36 2.593646 1_655
Na15 O37 2.630919 1_555
Na15 O38 2.640291 1_665
Na16 O45 2.403245 1_445
Na16 O47 2.484834 1_555
Na16 O46 2.534790 1_455
Na16 O40 2.559845 1_544
Na16 O39 2.580395 1_554
Na16 O41 2.630930 1_444
Na17 O54 2.391285 1_555
Na17 O56 2.412616 1_555
Na17 O55 2.501647 1_555
Na17 O48 2.584267 1_555
Na17 O49 2.599591 1_555
Na17 O50 2.691051 1_555
Na18 O58 2.395378 1_555
Na18 O57 2.458025 1_555
Na18 O59 2.463243 1_555
Na18 O52 2.595221 1_555
Na18 O51 2.600318 1_555
Na18 O53 2.642903 1_555
Na19 O66 2.428784 1_555
Na19 O67 2.442119 1_555
Na19 O68 2.504480 1_555
Na19 O61 2.614377 1_555
Na19 O62 2.614941 1_555
Na19 O60 2.705760 1_555
Na20 O71 2.360183 1_555
Na20 O70 2.508871 1_555
Na20 O63 2.540160 1_555
Na20 O69 2.542015 1_555
Na20 O64 2.636791 1_555
Na20 O65 2.693862 1_555
O0 P0 1.593169 1_555
O0 Sn0 2.075372 1_445
O1 P1 1.579107 1_555
O1 Sn0 2.041320 1_555
O2 P2 1.579523 1_555
O2 Sn0 2.067508 1_545
O3 P3 1.576574 1_555
O3 Sn1 2.048748 1_555
O4 P4 1.583976 1_555
O4 Sn1 2.087868 1_665
O5 Si0 1.676376 1_555
O5 Sn1 2.010118 1_655
O6 Si0 1.610272 1_565
O6 Zn0 1.962074 1_655
O7 P3 1.526013 1_555
O7 Zn0 2.056272 1_545
O8 P4 1.523969 1_455
O8 Zn0 2.046116 1_555
O9 P1 1.523276 1_555
O9 Zn1 2.028578 1_555
O10 P2 1.528354 1_455
O10 Zn1 2.049886 1_445
O11 P0 1.532578 1_565
O11 Zn1 2.039942 1_455
O12 P5 1.590996 1_555
O12 Sn2 2.083381 1_555
O13 Si1 1.677781 1_555
O13 Sn2 2.010876 1_555
O14 P6 1.593047 1_555
O14 Sn2 2.090010 1_555
O15 Si2 1.679042 1_555
O15 Sn3 2.015684 1_555
O16 P7 1.579556 1_555
O16 Sn3 2.053677 1_555
O17 P8 1.589505 1_555
O17 Sn3 2.102588 1_555
O18 P8 1.511911 1_555
O18 Zn2 1.982097 1_554
O19 Si2 1.608339 1_555
O19 Zn2 1.965003 1_554
O20 P7 1.524761 1_555
O20 Zn2 2.079177 1_554
O21 Si1 1.609592 1_555
O21 Zn3 1.963494 1_555
O22 P6 1.508858 1_555
O22 Zn3 1.964681 1_555
O23 P5 1.521531 1_555
O23 Zn3 2.080348 1_555
O24 P9 1.592556 1_555
O24 Sn4 2.063080 1_556
O25 P10 1.581157 1_555
O25 Sn4 2.052800 1_556
O26 P11 1.595296 1_555
O26 Sn4 2.083282 1_556
O27 P12 1.585612 1_555
O27 Sn5 2.060810 1_555
O28 P13 1.595247 1_555
O28 Sn5 2.071913 1_555
O29 P14 1.596335 1_555
O29 Sn5 2.084853 1_555
O30 P14 1.533665 1_555
O30 Zn4 2.058534 1_555
O31 P12 1.510188 1_555
O31 Zn4 1.965810 1_555
O32 P13 1.519756 1_555
O32 Zn4 2.037012 1_555
O33 P10 1.526288 1_555
O33 Zn5 2.053138 1_555
O34 P11 1.533309 1_555
O34 Zn5 2.028511 1_555
O35 P9 1.519867 1_555
O35 Zn5 2.012838 1_555
O36 P14 1.584419 1_555
O36 Sn0 2.100344 1_455
O37 P12 1.579678 1_555
O37 Sn0 2.066987 1_555
O38 P13 1.602541 1_555
O38 Sn0 2.139908 1_445
O39 P10 1.576567 1_555
O39 Sn1 2.093844 1_555
O40 P11 1.580250 1_555
O40 Sn1 2.107752 1_565
O41 P9 1.597492 1_555
O41 Sn1 2.136130 1_665
O42 P5 1.535027 1_555
O42 Zn0 2.244331 1_645
O43 Si1 1.628791 1_555
O43 Zn0 2.089580 1_545
O44 P6 1.535242 1_555
O44 Zn0 2.237600 1_655
O45 Si2 1.629722 1_555
O45 Zn1 2.076749 1_555
O46 P7 1.536542 1_555
O46 Zn1 2.220067 1_545
O47 P8 1.539470 1_555
O47 Zn1 2.216258 1_445
O48 Si0 1.679129 1_555
O48 Sn2 2.051525 1_555
O49 P3 1.576911 1_555
O49 Sn2 2.120134 1_555
O50 P4 1.577078 1_555
O50 Sn2 2.142318 1_555
O51 P1 1.598179 1_555
O51 Sn3 2.126954 1_555
O52 P2 1.578699 1_555
O52 Sn3 2.110443 1_555
O53 P0 1.577795 1_555
O53 Sn3 2.106554 1_555
O54 P9 1.527977 1_555
O54 Zn2 2.180153 1_555
O55 P10 1.544903 1_655
O55 Zn2 2.261921 1_555
O56 P11 1.526492 1_545
O56 Zn2 2.201545 1_555
O57 P12 1.544719 1_545
O57 Zn3 2.226560 1_555
O58 P13 1.528399 1_555
O58 Zn3 2.202230 1_555
O59 P14 1.526283 1_655
O59 Zn3 2.199381 1_555
O60 P8 1.583804 1_555
O60 Sn4 2.123808 1_555
O61 Si2 1.681023 1_455
O61 Sn4 2.039279 1_555
O62 P7 1.582536 1_565
O62 Sn4 2.119233 1_555
O63 Si1 1.679001 1_565
O63 Sn5 2.042688 1_555
O64 P6 1.584070 1_555
O64 Sn5 2.126602 1_555
O65 P5 1.579182 1_455
O65 Sn5 2.118115 1_555
O66 P0 1.530358 1_565
O66 Zn4 2.159015 1_555
O67 P1 1.532064 1_555
O67 Zn4 2.134486 1_555
O68 P2 1.548157 1_455
O68 Zn4 2.270617 1_555
O69 P3 1.535993 1_555
O69 Zn5 2.183856 1_555
O70 P4 1.538343 1_455
O70 Zn5 2.226178 1_555
O71 Si0 1.630305 1_565
O71 Zn5 2.079947 1_555
