# generated using pymatgen
data_Ba4Mg(Fe2O5)2
_symmetry_space_group_name_H-M   'P 1'
_cell_length_a   6.18068077
_cell_length_b   6.41539886
_cell_length_c   9.67320146
_cell_angle_alpha   111.83879425
_cell_angle_beta   111.60007404
_cell_angle_gamma   90.47126131
_symmetry_Int_Tables_number   1
_chemical_formula_structural   Ba4Mg(Fe2O5)2
_chemical_formula_sum   'Ba4 Mg1 Fe4 O10'
_cell_volume   326.31273800
_cell_formula_units_Z   1
loop_
 _symmetry_equiv_pos_site_id
 _symmetry_equiv_pos_as_xyz
  1  'x, y, z'
loop_
 _atom_site_type_symbol
 _atom_site_label
 _atom_site_symmetry_multiplicity
 _atom_site_fract_x
 _atom_site_fract_y
 _atom_site_fract_z
 _atom_site_occupancy
  Ba  Ba0  1  0.57823297  0.08050522  0.25033328  1
  Ba  Ba1  1  0.36928531  0.94881615  0.77552931  1
  Ba  Ba2  1  0.04857062  0.56217077  0.24699990  1
  Ba  Ba3  1  0.95436025  0.40071639  0.76332580  1
  Mg  Mg0  1  0.43681694  0.47389742  0.10068574  1
  Fe  Fe0  1  0.01455872  0.96358461  0.01679143  1
  Fe  Fe1  1  0.55792542  0.55274509  0.87780752  1
  Fe  Fe2  1  0.23246942  0.16685727  0.48793893  1
  Fe  Fe3  1  0.74362419  0.81260401  0.52416563  1
  O  O0  1  0.21835501  0.19239162  0.00700541  1
  O  O1  1  0.22954138  0.70105527  0.06316376  1
  O  O2  1  0.65505444  0.36063314  0.98653872  1
  O  O3  1  0.70037621  0.86001635  0.00626184  1
  O  O4  1  0.12996644  0.18523417  0.28985213  1
  O  O5  1  0.87988533  0.77623530  0.71736792  1
  O  O6  1  0.64471230  0.54950914  0.32846461  1
  O  O7  1  0.30558418  0.45847601  0.66698227  1
  O  O8  1  0.98463975  0.00092551  0.50772060  1
  O  O9  1  0.49820910  0.00571055  0.52592120  1
loop_
_geom_bond_atom_site_label_1
_geom_bond_atom_site_label_2
_geom_bond_distance
_geom_bond_site_symmetry_2
Ba0 O3 2.643872 1_545
Ba0 O1 2.758697 1_545
Ba0 O6 2.802206 1_555
Ba0 O0 2.903710 1_555
Ba0 O4 2.982122 1_555
Ba0 O8 3.021813 1_555
Ba0 O9 3.082207 1_555
Ba0 O4 3.322305 1_655
Ba1 O3 2.663849 1_556
Ba1 O0 2.698951 1_566
Ba1 O2 2.742762 1_565
Ba1 O7 2.893260 1_555
Ba1 O8 2.932185 1_465
Ba1 O9 2.943714 1_565
Ba1 O5 2.986714 1_455
Ba2 O4 2.623899 1_555
Ba2 O2 2.635929 1_454
Ba2 O1 2.798952 1_555
Ba2 O6 2.889756 1_455
Ba2 O8 3.148035 1_465
Ba3 O5 2.622534 1_555
Ba3 O1 2.678421 1_656
Ba3 O7 2.729728 1_655
Ba3 O8 2.890878 1_555
Ba3 Fe1 3.068347 1_555
Ba3 O0 3.090749 1_656
Ba3 O9 3.229559 1_555
Ba3 O2 3.390643 1_555
Mg0 O0 1.935798 1_555
Mg0 O6 1.962456 1_555
Mg0 O1 1.994644 1_555
Mg0 O2 2.020480 1_554
Fe0 O0 1.977625 1_565
Fe0 O3 2.001368 1_455
Fe0 O1 2.227882 1_555
Fe0 O4 2.304211 1_565
Fe0 O5 2.478917 1_454
Fe1 O2 1.870120 1_555
Fe1 O3 1.883792 1_556
Fe1 O7 1.918936 1_555
Fe2 O4 1.833676 1_555
Fe2 O7 1.924331 1_555
Fe2 O9 1.941046 1_555
Fe2 O8 1.963827 1_455
Fe3 O5 1.850749 1_555
Fe3 O6 1.886799 1_555
Fe3 O9 1.967246 1_565
Fe3 O8 1.997956 1_565
