# generated using pymatgen
data_Na2Mg(BiO3)2
_symmetry_space_group_name_H-M   'P 1'
_cell_length_a   6.19639842
_cell_length_b   6.19639854
_cell_length_c   6.19639815
_cell_angle_alpha   55.09442338
_cell_angle_beta   55.09442700
_cell_angle_gamma   55.09443400
_symmetry_Int_Tables_number   1
_chemical_formula_structural   Na2Mg(BiO3)2
_chemical_formula_sum   'Na2 Mg1 Bi2 O6'
_cell_volume   149.03588268
_cell_formula_units_Z   1
loop_
 _symmetry_equiv_pos_site_id
 _symmetry_equiv_pos_as_xyz
  1  'x, y, z'
loop_
 _atom_site_type_symbol
 _atom_site_label
 _atom_site_symmetry_multiplicity
 _atom_site_fract_x
 _atom_site_fract_y
 _atom_site_fract_z
 _atom_site_occupancy
  Na  Na0  1  0.00652647  0.00652647  0.00652647  1
  Na  Na1  1  0.85837091  0.85837091  0.85837091  1
  Mg  Mg0  1  0.18307656  0.18307656  0.18307656  1
  Bi  Bi0  1  0.38839222  0.38839222  0.38839222  1
  Bi  Bi1  1  0.67259251  0.67259251  0.67259251  1
  O  O0  1  0.02460804  0.82568826  0.43447694  1
  O  O1  1  0.82568826  0.43447694  0.02460804  1
  O  O2  1  0.43447694  0.02460804  0.82568826  1
  O  O3  1  0.96989818  0.31428350  0.54083642  1
  O  O4  1  0.54083642  0.96989818  0.31428350  1
  O  O5  1  0.31428350  0.54083642  0.96989818  1
loop_
_geom_bond_atom_site_label_1
_geom_bond_atom_site_label_2
_geom_bond_distance
_geom_bond_site_symmetry_2
Na0 O0 2.257359 1_545
Na0 O2 2.257359 1_554
Na0 O1 2.257359 1_455
Na0 O3 2.443626 1_454
Na0 O4 2.443626 1_445
Na0 O5 2.443626 1_544
Na1 O0 2.296686 1_655
Na1 O1 2.296687 1_556
Na1 O2 2.296687 1_565
Na1 O3 2.578067 1_565
Na1 O4 2.578068 1_556
Na1 O5 2.578068 1_655
Mg0 O5 2.191452 1_554
Mg0 O3 2.191452 1_455
Mg0 O4 2.191452 1_545
Mg0 O0 2.254983 1_545
Mg0 O2 2.254983 1_554
Mg0 O1 2.254983 1_455
Bi0 O2 2.379827 1_555
Bi0 O1 2.379827 1_555
Bi0 O0 2.379827 1_555
Bi0 O5 2.427065 1_554
Bi0 O3 2.427065 1_455
Bi0 O4 2.427065 1_545
Bi1 O5 2.159149 1_555
Bi1 O4 2.159149 1_555
Bi1 O3 2.159149 1_555
Bi1 O0 2.217587 1_655
Bi1 O1 2.217587 1_556
Bi1 O2 2.217587 1_565
