# generated using pymatgen
data_K5SnBi3
_symmetry_space_group_name_H-M   'P 1'
_cell_length_a   8.95811900
_cell_length_b   10.25989000
_cell_length_c   19.50411020
_cell_angle_alpha   58.37423172
_cell_angle_beta   90.00000000
_cell_angle_gamma   90.00000000
_symmetry_Int_Tables_number   1
_chemical_formula_structural   K5SnBi3
_chemical_formula_sum   'K20 Sn4 Bi12'
_cell_volume   1526.39112687
_cell_formula_units_Z   4
loop_
 _symmetry_equiv_pos_site_id
 _symmetry_equiv_pos_as_xyz
  1  'x, y, z'
loop_
 _atom_site_type_symbol
 _atom_site_label
 _atom_site_symmetry_multiplicity
 _atom_site_fract_x
 _atom_site_fract_y
 _atom_site_fract_z
 _atom_site_occupancy
  K  K0  1  0.31681900  0.15591100  0.92176300  1
  K  K1  1  0.81681900  0.84408900  0.57823700  1
  K  K2  1  0.68318100  0.84408900  0.07823700  1
  K  K3  1  0.18318100  0.15591100  0.42176300  1
  K  K4  1  0.01808700  0.74058100  0.42385500  1
  K  K5  1  0.51808700  0.25941900  0.07614500  1
  K  K6  1  0.98191300  0.25941900  0.57614500  1
  K  K7  1  0.48191300  0.74058100  0.92385500  1
  K  K8  1  0.00328200  0.45039200  0.74351900  1
  K  K9  1  0.50328200  0.54960800  0.75648100  1
  K  K10  1  0.99671800  0.54960800  0.25648100  1
  K  K11  1  0.49671800  0.45039200  0.24351900  1
  K  K12  1  0.83914900  0.16391600  0.26067700  1
  K  K13  1  0.33914900  0.83608400  0.23932300  1
  K  K14  1  0.16085100  0.83608400  0.73932300  1
  K  K15  1  0.66085100  0.16391600  0.76067700  1
  K  K16  1  0.00173300  0.12354400  0.08667600  1
  K  K17  1  0.50173300  0.87645600  0.41332400  1
  K  K18  1  0.99826700  0.87645600  0.91332400  1
  K  K19  1  0.49826700  0.12354400  0.58667600  1
  Sn  Sn0  1  0.14646400  0.48482000  0.08809700  1
  Sn  Sn1  1  0.64646400  0.51518000  0.41190300  1
  Sn  Sn2  1  0.85353600  0.51518000  0.91190300  1
  Sn  Sn3  1  0.35353600  0.48482000  0.58809700  1
  Bi  Bi0  1  0.19154600  0.48573600  0.93312400  1
  Bi  Bi1  1  0.69154600  0.51426400  0.56687600  1
  Bi  Bi2  1  0.80845400  0.51426400  0.06687600  1
  Bi  Bi3  1  0.30845400  0.48573600  0.43312400  1
  Bi  Bi4  1  0.26471700  0.76274000  0.08110700  1
  Bi  Bi5  1  0.76471700  0.23726000  0.41889300  1
  Bi  Bi6  1  0.73528300  0.23726000  0.91889300  1
  Bi  Bi7  1  0.23528300  0.76274000  0.58110700  1
  Bi  Bi8  1  0.23946100  0.18818400  0.23003200  1
  Bi  Bi9  1  0.73946100  0.81181600  0.26996800  1
  Bi  Bi10  1  0.76053900  0.81181600  0.76996800  1
  Bi  Bi11  1  0.26053900  0.18818400  0.73003200  1
loop_
_geom_bond_atom_site_label_1
_geom_bond_atom_site_label_2
_geom_bond_distance
_geom_bond_site_symmetry_2
K8 Sn2 3.913644 1_455
K9 Sn3 3.913644 1_555
K10 Sn0 3.913644 1_655
K11 Sn1 3.913644 1_555
K16 Sn2 3.893994 1_454
K16 Sn0 3.940651 1_555
K17 Sn3 3.893994 1_555
K17 Sn1 3.940651 1_555
K18 Sn0 3.893994 1_656
K18 Sn2 3.940651 1_555
K19 Sn1 3.893994 1_555
K19 Sn3 3.940651 1_555
Bi0 Sn0 3.044596 1_556
Bi0 Sn2 3.049561 1_455
Bi0 K14 3.610374 1_555
Bi0 K7 3.624838 1_555
Bi0 K0 3.680500 1_555
Bi0 K16 3.741401 1_556
Bi0 K5 3.864818 1_556
Bi1 Sn1 3.044596 1_555
Bi1 Sn3 3.049561 1_555
Bi1 K15 3.610374 1_555
Bi1 K6 3.624838 1_555
Bi1 K1 3.680500 1_555
Bi1 K17 3.741401 1_555
Bi1 K4 3.864818 1_655
Bi2 Sn2 3.044596 1_554
Bi2 Sn0 3.049561 1_655
Bi2 K12 3.610374 1_555
Bi2 K5 3.624838 1_555
Bi2 K2 3.680500 1_555
Bi2 K18 3.741401 1_554
Bi2 K7 3.864818 1_554
Bi3 Sn3 3.044596 1_555
Bi3 Sn1 3.049561 1_555
Bi3 K13 3.610374 1_555
Bi3 K4 3.624838 1_555
Bi3 K3 3.680500 1_555
Bi3 K19 3.741401 1_555
Bi3 K6 3.864818 1_455
Bi4 Sn0 2.977198 1_555
Bi4 K13 3.601205 1_555
Bi4 K0 3.605709 1_564
Bi4 K18 3.709899 1_454
Bi4 K7 3.738375 1_554
Bi4 K11 3.738623 1_555
Bi4 K10 3.794876 1_455
Bi4 K2 3.834466 1_555
Bi5 Sn1 2.977198 1_555
Bi5 K12 3.601205 1_555
Bi5 K1 3.605709 1_545
Bi5 K19 3.709899 1_555
Bi5 K6 3.738375 1_555
Bi5 K10 3.738623 1_555
Bi5 K11 3.794876 1_555
Bi5 K3 3.834466 1_655
Bi6 Sn2 2.977198 1_555
Bi6 K15 3.601205 1_555
Bi6 K2 3.605709 1_546
Bi6 K16 3.709899 1_656
Bi6 K5 3.738375 1_556
Bi6 K9 3.738623 1_555
Bi6 K8 3.794876 1_655
Bi6 K0 3.834466 1_555
Bi7 Sn3 2.977198 1_555
Bi7 K14 3.601205 1_555
Bi7 K3 3.605709 1_565
Bi7 K17 3.709899 1_555
Bi7 K4 3.738375 1_555
Bi7 K8 3.738623 1_555
Bi7 K9 3.794876 1_555
Bi7 K1 3.834466 1_455
Bi8 Sn0 2.963837 1_555
Bi8 K3 3.612398 1_555
Bi8 K12 3.622550 1_455
Bi8 K13 3.632353 1_545
Bi8 K11 3.655074 1_555
Bi8 K5 3.670426 1_555
Bi8 K16 3.838946 1_555
Bi8 K17 4.066734 1_545
Bi9 Sn1 2.963837 1_555
Bi9 K2 3.612398 1_555
Bi9 K13 3.622550 1_555
Bi9 K12 3.632353 1_565
Bi9 K10 3.655074 1_555
Bi9 K4 3.670426 1_655
Bi9 K17 3.838946 1_555
Bi9 K16 4.066734 1_665
Bi10 Sn2 2.963837 1_555
Bi10 K1 3.612398 1_555
Bi10 K14 3.622550 1_655
Bi10 K15 3.632353 1_565
Bi10 K9 3.655074 1_555
Bi10 K7 3.670426 1_555
Bi10 K18 3.838946 1_555
Bi10 K19 4.066734 1_565
Bi11 Sn3 2.963837 1_555
Bi11 K0 3.612398 1_555
Bi11 K15 3.622550 1_555
Bi11 K14 3.632353 1_545
Bi11 K8 3.655074 1_555
Bi11 K6 3.670426 1_455
Bi11 K19 3.838946 1_555
Bi11 K18 4.066734 1_445
