# generated using pymatgen
data_Na3GaSiGe(PO6)2
_symmetry_space_group_name_H-M   'P 1'
_cell_length_a   8.72064309
_cell_length_b   8.72064281
_cell_length_c   21.76660574
_cell_angle_alpha   90.18849228
_cell_angle_beta   89.81150772
_cell_angle_gamma   120.04756900
_symmetry_Int_Tables_number   1
_chemical_formula_structural   Na3GaSiGe(PO6)2
_chemical_formula_sum   'Na18 Ga6 Si6 Ge6 P12 O72'
_cell_volume   1432.87019329
_cell_formula_units_Z   6
loop_
 _symmetry_equiv_pos_site_id
 _symmetry_equiv_pos_as_xyz
  1  'x, y, z'
loop_
 _atom_site_type_symbol
 _atom_site_label
 _atom_site_symmetry_multiplicity
 _atom_site_fract_x
 _atom_site_fract_y
 _atom_site_fract_z
 _atom_site_occupancy
  Na  Na0  1  0.00003477  0.99702482  0.49831315  1
  Na  Na1  1  0.00297518  0.99996523  0.99831315  1
  Na  Na2  1  0.66707177  0.33010907  0.83179891  1
  Na  Na3  1  0.66989093  0.33292823  0.33179891  1
  Na  Na4  1  0.34594162  0.67407160  0.16496244  1
  Na  Na5  1  0.32592840  0.65405838  0.66496244  1
  Na  Na6  1  0.36487272  0.36400124  0.24876433  1
  Na  Na7  1  0.99447808  0.62799605  0.24869148  1
  Na  Na8  1  0.63599876  0.63512728  0.74876433  1
  Na  Na9  1  0.37200395  0.00552192  0.74869148  1
  Na  Na10  1  0.03635472  0.70003250  0.58164246  1
  Na  Na11  1  0.65864214  0.96393933  0.58407103  1
  Na  Na12  1  0.29996750  0.96364528  0.08164246  1
  Na  Na13  1  0.03606067  0.34135786  0.08407103  1
  Na  Na14  1  0.97033190  0.67114856  0.91775895  1
  Na  Na15  1  0.70105356  0.03076179  0.91396356  1
  Na  Na16  1  0.96923821  0.29894644  0.41396356  1
  Na  Na17  1  0.32885144  0.02966810  0.41775895  1
  Ga  Ga0  1  0.99215350  0.99217196  0.35204253  1
  Ga  Ga1  1  0.00782804  0.00784650  0.85204253  1
  Ga  Ga2  1  0.67070516  0.32679630  0.68546586  1
  Ga  Ga3  1  0.67320370  0.32929484  0.18546586  1
  Ga  Ga4  1  0.33000624  0.66920399  0.01843360  1
  Ga  Ga5  1  0.33079601  0.66999376  0.51843360  1
  Si  Si0  1  0.99544526  0.28405836  0.25154217  1
  Si  Si1  1  0.71594164  0.00455474  0.75154217  1
  Si  Si2  1  0.37468386  0.04818575  0.58393662  1
  Si  Si3  1  0.95181425  0.62531614  0.08393662  1
  Si  Si4  1  0.33379268  0.96377593  0.91770777  1
  Si  Si5  1  0.03622407  0.66620732  0.41770777  1
  Ge  Ge0  1  0.00640355  0.00787515  0.64821427  1
  Ge  Ge1  1  0.99212485  0.99359645  0.14821427  1
  Ge  Ge2  1  0.66087175  0.33526475  0.98127867  1
  Ge  Ge3  1  0.66473525  0.33912825  0.48127867  1
  Ge  Ge4  1  0.32716574  0.66127395  0.31467786  1
  Ge  Ge5  1  0.33872605  0.67283426  0.81467786  1
  P  P0  1  0.29282814  -0.00048961  0.25054757  1
  P  P1  1  0.70671162  0.71360000  0.25069022  1
  P  P2  1  0.28640000  0.29328838  0.75069022  1
  P  P3  1  0.00048961  0.70717186  0.75054757  1
  P  P4  1  0.95807233  0.33226823  0.58313818  1
  P  P5  1  0.66332821  0.61978102  0.58496840  1
  P  P6  1  0.66773177  0.04192767  0.08313818  1
  P  P7  1  0.38021898  0.33667179  0.08496840  1
  P  P8  1  0.61671127  0.66022927  0.91730490  1
  P  P9  1  0.04858701  0.37911629  0.91731809  1
  P  P10  1  0.62088371  0.95141299  0.41731809  1
  P  P11  1  0.33977073  0.38328873  0.41730490  1
  O  O0  1  0.21285051  0.03524266  0.30793341  1
  O  O1  1  0.82892478  0.78899355  0.30601068  1
  O  O2  1  0.97257098  0.17278977  0.31283210  1
  O  O3  1  0.21100645  0.17107522  0.80601068  1
  O  O4  1  0.96475734  0.78714949  0.80793341  1
  O  O5  1  0.82721023  0.02742902  0.81283210  1
  O  O6  1  0.80036172  0.95816964  0.68969014  1
  O  O7  1  0.17061787  0.21088777  0.69207180  1
  O  O8  1  0.04378059  0.83060519  0.69244812  1
  O  O9  1  0.78911223  0.82938213  0.19207180  1
  O  O10  1  0.04183036  0.19963828  0.18969014  1
  O  O11  1  0.16939481  0.95621941  0.19244812  1
  O  O12  1  0.87826641  0.37503133  0.63866720  1
  O  O13  1  0.49779587  0.12717539  0.64383051  1
  O  O14  1  0.63850555  0.51311043  0.64337004  1
  O  O15  1  0.87282461  0.50220413  0.14383051  1
  O  O16  1  0.62496867  0.12173359  0.13866720  1
  O  O17  1  0.48688957  0.36149445  0.14337004  1
  O  O18  1  0.46051397  0.29054253  0.02783692  1
  O  O19  1  0.83127824  0.53580455  0.02113579  1
  O  O20  1  0.70924261  0.16307925  0.02444148  1
  O  O21  1  0.46419545  0.16872176  0.52113579  1
  O  O22  1  0.70945747  0.53948603  0.52783692  1
  O  O23  1  0.83692075  0.29075739  0.52444148  1
  O  O24  1  0.53273482  0.69728751  0.97245588  1
  O  O25  1  0.15447846  0.45584504  0.97637438  1
  O  O26  1  0.29358807  0.83985950  0.97742085  1
  O  O27  1  0.54415496  0.84552154  0.47637438  1
  O  O28  1  0.30271249  0.46726518  0.47245588  1
  O  O29  1  0.16014050  0.70641193  0.47742085  1
  O  O30  1  0.12343364  0.62043318  0.35637421  1
  O  O31  1  0.49493100  0.86604442  0.36064223  1
  O  O32  1  0.37313416  0.49416673  0.35683590  1
  O  O33  1  0.13395558  0.50506900  0.86064223  1
  O  O34  1  0.37956682  0.87656636  0.85637421  1
  O  O35  1  0.50583327  0.62686584  0.85683590  1
  O  O36  1  0.02493463  0.84475138  0.40962180  1
  O  O37  1  0.80893456  0.98127682  0.41166877  1
  O  O38  1  0.17508940  0.19626734  0.41204316  1
  O  O39  1  0.01872318  0.19106544  0.91166877  1
  O  O40  1  0.15524862  0.97506537  0.90962180  1
  O  O41  1  0.80373266  0.82491060  0.91204316  1
  O  O42  1  0.96519644  0.15703646  0.58945426  1
  O  O43  1  0.17193739  0.02042872  0.59053541  1
  O  O44  1  0.83595874  0.80921414  0.58836232  1
  O  O45  1  0.97957128  0.82806261  0.09053541  1
  O  O46  1  0.84296354  0.03480356  0.08945426  1
  O  O47  1  0.19078586  0.16404126  0.08836232  1
  O  O48  1  0.68349233  0.17134505  0.74630818  1
  O  O49  1  0.47518076  0.32062809  0.74383523  1
  O  O50  1  0.83230056  0.52658418  0.74264083  1
  O  O51  1  0.67937191  0.52481924  0.24383523  1
  O  O52  1  0.82865495  0.31650767  0.24630818  1
  O  O53  1  0.47341582  0.16769944  0.24264083  1
  O  O54  1  0.63966949  0.49359709  0.92176077  1
  O  O55  1  0.86002918  0.36441853  0.92089705  1
  O  O56  1  0.52092478  0.15669857  0.92462215  1
  O  O57  1  0.63558147  0.13997082  0.42089705  1
  O  O58  1  0.50640291  0.36033051  0.42176077  1
  O  O59  1  0.84330143  0.47907522  0.42462215  1
  O  O60  1  0.35519469  0.49711693  0.07723727  1
  O  O61  1  0.15015486  0.64699323  0.07858529  1
  O  O62  1  0.50498885  0.85739132  0.07638163  1
  O  O63  1  0.35300677  0.84984514  0.57858529  1
  O  O64  1  0.50288307  0.64480531  0.57723727  1
  O  O65  1  0.14260868  0.49501115  0.57638163  1
  O  O66  1  0.30676409  0.82798086  0.25622135  1
  O  O67  1  0.51996161  0.69609491  0.25727830  1
  O  O68  1  0.18197362  0.48555444  0.25494159  1
  O  O69  1  0.30390509  0.48003839  0.75727830  1
  O  O70  1  0.17201914  0.69323591  0.75622135  1
  O  O71  1  0.51444556  0.81802638  0.75494159  1
loop_
_geom_bond_atom_site_label_1
_geom_bond_atom_site_label_2
_geom_bond_distance
_geom_bond_site_symmetry_2
Na0 O36 2.409675 1_555
Na0 O43 2.455439 1_565
Na0 O37 2.478455 1_455
Na0 O38 2.494378 1_565
Na0 O44 2.495492 1_455
Na0 O42 2.525355 1_465
Na1 O40 2.409675 1_555
Na1 O45 2.455439 1_456
Na1 O39 2.478455 1_565
Na1 O41 2.494378 1_455
Na1 O47 2.495492 1_566
Na1 O46 2.525355 1_466
Na2 O48 2.362200 1_555
Na2 O56 2.463023 1_555
Na2 O55 2.489104 1_555
Na2 O54 2.498786 1_555
Na2 O50 2.511812 1_555
Na2 O49 2.520832 1_555
Na3 O52 2.362200 1_555
Na3 O59 2.463023 1_555
Na3 O57 2.489104 1_555
Na3 O58 2.498786 1_555
Na3 O53 2.511812 1_555
Na3 O51 2.520832 1_555
Na4 O62 2.445246 1_555
Na4 O67 2.470473 1_555
Na4 O61 2.473921 1_555
Na4 O60 2.477551 1_555
Na4 O68 2.496367 1_555
Na4 O66 2.510215 1_555
Na5 O65 2.445246 1_555
Na5 O69 2.470473 1_555
Na5 O63 2.473921 1_555
Na5 O64 2.477551 1_555
Na5 O71 2.496367 1_555
Na5 O70 2.510215 1_555
Na6 O68 2.318741 1_555
Na6 O53 2.337666 1_555
Na6 O51 2.376455 1_555
Na6 O67 2.515229 1_555
Na6 O17 2.530297 1_555
Na6 O32 2.594014 1_555
Na6 O10 2.759005 1_555
Na6 O0 2.800469 1_555
Na7 O52 2.353374 1_555
Na7 O66 2.393675 1_655
Na7 O51 2.428394 1_555
Na7 O68 2.504313 1_655
Na7 O15 2.524388 1_555
Na7 O30 2.618294 1_655
Na7 O1 2.760206 1_555
Na7 O11 2.767084 1_655
Na8 O71 2.318741 1_555
Na8 O50 2.337666 1_555
Na8 O49 2.376455 1_555
Na8 O69 2.515230 1_555
Na8 O14 2.530297 1_555
Na8 O35 2.594014 1_555
Na8 O6 2.759005 1_555
Na8 O4 2.800469 1_555
Na9 O48 2.353375 1_555
Na9 O70 2.393675 1_545
Na9 O49 2.428394 1_555
Na9 O71 2.504313 1_545
Na9 O13 2.524388 1_555
Na9 O34 2.618294 1_545
Na9 O3 2.760206 1_555
Na9 O8 2.767084 1_545
Na10 O44 2.376073 1_455
Na10 O63 2.392311 1_555
Na10 O65 2.392777 1_555
Na10 O43 2.435535 1_565
Na10 O29 2.497858 1_555
Na10 O8 2.650845 1_555
Na10 O22 2.733643 1_455
Na10 O12 2.751911 1_455
Na11 O63 2.335339 1_555
Na11 O42 2.342800 1_565
Na11 O64 2.413595 1_555
Na11 O44 2.512302 1_555
Na11 O27 2.554491 1_555
Na11 O6 2.626202 1_555
Na11 O13 2.767915 1_565
Na11 O23 2.792541 1_565
Na12 O47 2.376073 1_565
Na12 O61 2.392311 1_555
Na12 O62 2.392777 1_555
Na12 O45 2.435535 1_455
Na12 O26 2.497858 1_554
Na12 O11 2.650845 1_555
Na12 O18 2.733643 1_565
Na12 O16 2.751911 1_565
Na13 O61 2.335339 1_555
Na13 O46 2.342800 1_455
Na13 O60 2.413595 1_555
Na13 O47 2.512302 1_555
Na13 O25 2.554491 1_554
Na13 O10 2.626202 1_555
Na13 O15 2.767915 1_455
Na13 O20 2.792541 1_455
Na14 O40 2.318903 1_655
Na14 O55 2.347128 1_555
Na14 O41 2.424357 1_555
Na14 O54 2.499615 1_555
Na14 O19 2.548137 1_556
Na14 O4 2.608881 1_555
Na14 O26 2.766930 1_655
Na14 O33 2.779459 1_655
Na15 O56 2.334757 1_555
Na15 O41 2.373841 1_545
Na15 O39 2.398435 1_655
Na15 O5 2.464254 1_555
Na15 O55 2.523871 1_555
Na15 O20 2.649461 1_556
Na15 O34 2.734265 1_545
Na15 O24 2.823107 1_545
Na16 O59 2.334757 1_555
Na16 O38 2.373841 1_655
Na16 O37 2.398435 1_545
Na16 O2 2.464254 1_555
Na16 O57 2.523871 1_555
Na16 O23 2.649461 1_555
Na16 O30 2.734265 1_655
Na16 O28 2.823107 1_655
Na17 O36 2.318903 1_545
Na17 O57 2.347128 1_555
Na17 O38 2.424357 1_555
Na17 O58 2.499615 1_555
Na17 O21 2.548137 1_555
Na17 O0 2.608881 1_555
Na17 O29 2.766930 1_545
Na17 O31 2.779459 1_545
Ga0 O2 1.875557 1_565
Ga0 O1 1.908277 1_555
Ga0 O36 1.919968 1_655
Ga0 O0 2.008314 1_665
Ga0 O37 2.020280 1_555
Ga0 O38 2.138565 1_665
Ga1 O5 1.875557 1_455
Ga1 O3 1.908277 1_555
Ga1 O40 1.919968 1_545
Ga1 O4 2.008314 1_445
Ga1 O39 2.020280 1_555
Ga1 O41 2.138565 1_445
Ga2 O13 1.869588 1_555
Ga2 O12 1.928505 1_555
Ga2 O48 1.941186 1_555
Ga2 O14 2.006668 1_555
Ga2 O50 2.026996 1_555
Ga2 O49 2.102089 1_555
Ga3 O15 1.869588 1_555
Ga3 O16 1.928505 1_555
Ga3 O52 1.941186 1_555
Ga3 O17 2.006668 1_555
Ga3 O53 2.026996 1_555
Ga3 O51 2.102089 1_555
Ga4 O26 1.896454 1_554
Ga4 O24 1.934803 1_554
Ga4 O25 1.946527 1_554
Ga4 O61 1.973740 1_555
Ga4 O62 2.025818 1_555
Ga4 O60 2.069608 1_555
Ga5 O29 1.896454 1_555
Ga5 O28 1.934803 1_555
Ga5 O27 1.946527 1_555
Ga5 O63 1.973740 1_555
Ga5 O65 2.025818 1_555
Ga5 O64 2.069608 1_555
Ge0 O6 1.855639 1_445
Ge0 O43 1.871573 1_555
Ge0 O7 1.885560 1_555
Ge0 O42 1.984719 1_455
Ge0 O8 1.984836 1_545
Ge0 O44 2.080157 1_445
Ge1 O10 1.855639 1_665
Ge1 O45 1.871573 1_555
Ge1 O9 1.885560 1_555
Ge1 O46 1.984719 1_565
Ge1 O11 1.984836 1_655
Ge1 O47 2.080157 1_665
Ge2 O19 1.848062 1_556
Ge2 O56 1.878631 1_555
Ge2 O18 1.881628 1_556
Ge2 O54 1.971807 1_555
Ge2 O20 1.990356 1_556
Ge2 O55 2.086486 1_555
Ge3 O21 1.848062 1_555
Ge3 O59 1.878631 1_555
Ge3 O22 1.881628 1_555
Ge3 O58 1.971807 1_555
Ge3 O23 1.990356 1_555
Ge3 O57 2.086486 1_555
Ge4 O30 1.861443 1_555
Ge4 O68 1.922688 1_555
Ge4 O31 1.926603 1_555
Ge4 O32 1.929424 1_555
Ge4 O67 1.989314 1_555
Ge4 O66 2.009191 1_555
Ge5 O34 1.861443 1_555
Ge5 O71 1.922688 1_555
Ge5 O33 1.926603 1_555
Ge5 O35 1.929424 1_555
Ge5 O69 1.989314 1_555
Ge5 O70 2.009191 1_555
O0 P0 1.533993 1_555
O1 P1 1.523027 1_555
O2 Si0 1.604375 1_555
O3 P2 1.523027 1_555
O4 P3 1.533993 1_655
O5 Si1 1.604375 1_555
O6 Si1 1.675196 1_565
O7 P2 1.561947 1_555
O8 P3 1.580930 1_555
O9 P1 1.561947 1_555
O10 Si0 1.675196 1_455
O11 P0 1.580930 1_565
O12 P4 1.528314 1_555
O13 Si2 1.609173 1_555
O14 P5 1.527244 1_555
O15 Si3 1.609173 1_555
O16 P6 1.528314 1_555
O17 P7 1.527244 1_555
O18 P7 1.572147 1_555
O19 Si3 1.662397 1_555
O20 P6 1.581910 1_555
O21 Si2 1.662396 1_555
O22 P5 1.572147 1_555
O23 P4 1.581910 1_555
O24 P8 1.520032 1_555
O25 P9 1.528474 1_555
O26 Si4 1.614578 1_555
O27 P10 1.528474 1_555
O28 P11 1.520031 1_555
O29 Si5 1.614578 1_555
O30 Si5 1.677457 1_555
O31 P10 1.570523 1_555
O32 P11 1.573568 1_555
O33 P9 1.570523 1_555
O34 Si4 1.677457 1_555
O35 P8 1.573568 1_555
O36 Si5 1.618767 1_555
O37 P10 1.530843 1_555
O38 P11 1.545899 1_555
O39 P9 1.530842 1_555
O40 Si4 1.618767 1_555
O41 P8 1.545899 1_555
O42 P4 1.566674 1_555
O43 Si2 1.665921 1_555
O44 P5 1.584377 1_555
O45 Si3 1.665921 1_555
O46 P6 1.566674 1_555
O47 P7 1.584377 1_555
O48 Si1 1.619313 1_555
O49 P2 1.547554 1_555
O50 P3 1.532225 1_655
O51 P1 1.547554 1_555
O52 Si0 1.619313 1_555
O53 P0 1.532225 1_555
O54 P8 1.566369 1_555
O55 P9 1.585726 1_655
O56 Si4 1.663355 1_545
O57 P10 1.585726 1_545
O58 P11 1.566369 1_555
O59 Si5 1.663355 1_655
O60 P7 1.530108 1_555
O61 Si3 1.646936 1_455
O62 P6 1.529118 1_565
O63 Si2 1.646935 1_565
O64 P5 1.530108 1_555
O65 P4 1.529118 1_455
O66 P0 1.565551 1_565
O67 P1 1.563899 1_555
O68 Si0 1.696067 1_455
O69 P2 1.563899 1_555
O70 P3 1.565551 1_555
O71 Si1 1.696067 1_565
