# generated using pymatgen
data_CuAgF3
_symmetry_space_group_name_H-M   'P 1'
_cell_length_a   5.71554475
_cell_length_b   5.68574190
_cell_length_c   7.59587148
_cell_angle_alpha   90.01611014
_cell_angle_beta   89.33262023
_cell_angle_gamma   89.81831487
_symmetry_Int_Tables_number   1
_chemical_formula_structural   CuAgF3
_chemical_formula_sum   'Cu4 Ag4 F12'
_cell_volume   246.82588964
_cell_formula_units_Z   4
loop_
 _symmetry_equiv_pos_site_id
 _symmetry_equiv_pos_as_xyz
  1  'x, y, z'
loop_
 _atom_site_type_symbol
 _atom_site_label
 _atom_site_symmetry_multiplicity
 _atom_site_fract_x
 _atom_site_fract_y
 _atom_site_fract_z
 _atom_site_occupancy
  Cu  Cu0  1  0.00000000  0.50000000  0.00000000  1
  Cu  Cu1  1  0.50000000  -0.00000000  0.00000000  1
  Cu  Cu2  1  0.00000000  0.50000000  0.50000000  1
  Cu  Cu3  1  0.50000000  -0.00000000  0.50000000  1
  Ag  Ag0  1  0.46437480  0.50664826  0.74978086  1
  Ag  Ag1  1  0.53562520  0.49335174  0.25021914  1
  Ag  Ag2  1  0.96427793  0.99270531  0.74977438  1
  Ag  Ag3  1  0.03572207  0.00729469  0.25022562  1
  F  F0  1  0.69091948  0.73245488  0.95772613  1
  F  F1  1  0.30908052  0.26754512  0.04227387  1
  F  F2  1  0.81006249  0.23149759  0.03617142  1
  F  F3  1  0.18993751  0.76850241  0.96382858  1
  F  F4  1  0.73336374  0.69067867  0.54416843  1
  F  F5  1  0.26663626  0.30932133  0.45583157  1
  F  F6  1  0.76799684  0.18988095  0.46239565  1
  F  F7  1  0.23200316  0.81011905  0.53760435  1
  F  F8  1  0.02033995  0.42215303  0.74982326  1
  F  F9  1  0.97966005  0.57784697  0.25017674  1
  F  F10  1  0.50705306  0.07796889  0.74980566  1
  F  F11  1  0.49294694  0.92203111  0.25019434  1
loop_
_geom_bond_atom_site_label_1
_geom_bond_atom_site_label_2
_geom_bond_distance
_geom_bond_site_symmetry_2
Cu0 F3 1.894313 1_554
Cu0 F2 1.894313 1_455
Cu0 F9 1.953115 1_455
Cu0 F8 1.953115 1_554
Cu0 F0 2.229201 1_454
Cu0 F1 2.229201 1_555
Cu1 F0 1.894441 1_544
Cu1 F1 1.894441 1_555
Cu1 F10 1.951574 1_554
Cu1 F11 1.951574 1_545
Cu1 F2 2.230360 1_555
Cu1 F3 2.230360 1_544
Cu2 F4 1.894158 1_455
Cu2 F5 1.894158 1_555
Cu2 F9 1.953380 1_455
Cu2 F8 1.953380 1_555
Cu2 F6 2.229882 1_455
Cu2 F7 2.229882 1_555
Cu3 F7 1.895752 1_545
Cu3 F6 1.895752 1_555
Cu3 F11 1.949371 1_545
Cu3 F10 1.949371 1_555
Cu3 F4 2.231718 1_545
Cu3 F5 2.231718 1_555
Ag0 F4 2.419282 1_555
Ag0 F0 2.424225 1_555
Ag0 F10 2.448767 1_555
Ag0 F8 2.584465 1_555
Ag0 F3 2.691636 1_555
Ag0 F7 2.715786 1_555
Ag0 F1 2.745094 1_556
Ag0 F5 2.754434 1_555
Ag1 F5 2.419282 1_555
Ag1 F1 2.424225 1_555
Ag1 F11 2.448767 1_555
Ag1 F9 2.584465 1_555
Ag1 F2 2.691636 1_555
Ag1 F6 2.715786 1_555
Ag1 F0 2.745094 1_554
Ag1 F4 2.754434 1_555
Ag2 F7 2.438867 1_655
Ag2 F3 2.443716 1_655
Ag2 F8 2.463671 1_665
Ag2 F10 2.656360 1_565
Ag2 F0 2.661611 1_555
Ag2 F4 2.681561 1_555
Ag2 F2 2.701646 1_566
Ag2 F6 2.707556 1_565
Ag3 F6 2.438867 1_455
Ag3 F2 2.443716 1_455
Ag3 F9 2.463671 1_445
Ag3 F11 2.656360 1_545
Ag3 F1 2.661611 1_555
Ag3 F5 2.681561 1_555
Ag3 F3 2.701646 1_544
Ag3 F7 2.707556 1_545
