# generated using pymatgen
data_Tb2MgCr2O8
_symmetry_space_group_name_H-M   'P 1'
_cell_length_a   6.22715584
_cell_length_b   6.21173708
_cell_length_c   6.08630245
_cell_angle_alpha   105.63641223
_cell_angle_beta   105.74727612
_cell_angle_gamma   118.07671961
_symmetry_Int_Tables_number   1
_chemical_formula_structural   Tb2MgCr2O8
_chemical_formula_sum   'Tb2 Mg1 Cr2 O8'
_cell_volume   176.69998102
_cell_formula_units_Z   1
loop_
 _symmetry_equiv_pos_site_id
 _symmetry_equiv_pos_as_xyz
  1  'x, y, z'
loop_
 _atom_site_type_symbol
 _atom_site_label
 _atom_site_symmetry_multiplicity
 _atom_site_fract_x
 _atom_site_fract_y
 _atom_site_fract_z
 _atom_site_occupancy
  Tb  Tb0  1  0.12536500  0.87536500  0.25073100  1
  Tb  Tb1  1  0.90359400  0.15359300  0.80718500  1
  Mg  Mg0  1  0.61515000  0.86515000  0.23030200  1
  Cr  Cr0  1  0.35121300  0.60121400  0.70242800  1
  Cr  Cr1  1  0.62653100  0.37653100  0.25306200  1
  O  O0  1  0.79563100  0.74423100  0.43229900  1
  O  O1  1  0.38515900  0.79976300  0.53673400  1
  O  O2  1  0.72040100  0.81258300  0.94925900  1
  O  O3  1  0.81305200  0.38899000  0.07443600  1
  O  O4  1  0.63666700  0.18806900  0.43230000  1
  O  O5  1  0.15157800  0.23697400  0.53673500  1
  O  O6  1  0.26138300  0.18544600  0.07443600  1
  O  O7  1  0.22885800  0.63667700  0.94926000  1
loop_
_geom_bond_atom_site_label_1
_geom_bond_atom_site_label_2
_geom_bond_distance
_geom_bond_site_symmetry_2
Mg0 O0 1.970071 1_555
Mg0 O4 1.970085 1_565
Mg0 O7 1.992711 1_554
Mg0 O2 1.992719 1_554
Mg0 O1 2.646720 1_555
Mg0 O5 2.646744 1_665
Cr0 O5 1.767349 1_555
Cr0 O1 1.767363 1_555
Cr0 O7 1.867306 1_555
Cr0 O2 1.867309 1_555
Cr1 O3 1.784138 1_555
Cr1 O6 1.784143 1_555
Cr1 O4 1.812494 1_555
Cr1 O0 1.812495 1_555
O0 Tb0 2.498651 1_655
O0 Tb1 2.560200 1_565
O1 Tb0 2.344157 1_555
O1 Tb1 2.539448 1_565
O2 Tb1 2.405059 1_565
O2 Tb0 2.460713 1_656
O3 Tb1 2.256865 1_554
O3 Tb0 2.377059 1_655
O4 Tb0 2.498651 1_545
O4 Tb1 2.560207 1_555
O5 Tb0 2.344163 1_545
O5 Tb1 2.539444 1_455
O6 Tb1 2.256849 1_454
O6 Tb0 2.377064 1_545
O7 Tb1 2.405054 1_455
O7 Tb0 2.460708 1_556
