# generated using pymatgen
data_Na6Nb3In5Si6(SO8)6
_symmetry_space_group_name_H-M   'P 1'
_cell_length_a   18.03743967
_cell_length_b   9.01730137
_cell_length_c   23.09193256
_cell_angle_alpha   90.07266800
_cell_angle_beta   90.04742547
_cell_angle_gamma   119.89157421
_symmetry_Int_Tables_number   1
_chemical_formula_structural   Na6Nb3In5Si6(SO8)6
_chemical_formula_sum   'Na18 Nb9 In15 Si18 S18 O144'
_cell_volume   3256.22858552
_cell_formula_units_Z   3
loop_
 _symmetry_equiv_pos_site_id
 _symmetry_equiv_pos_as_xyz
  1  'x, y, z'
loop_
 _atom_site_type_symbol
 _atom_site_label
 _atom_site_symmetry_multiplicity
 _atom_site_fract_x
 _atom_site_fract_y
 _atom_site_fract_z
 _atom_site_occupancy
  Na  Na0  1  0.48311235  0.68251331  0.91034010  1
  Na  Na1  1  0.16288506  0.31481890  0.91106838  1
  Na  Na2  1  0.48619733  0.29293121  0.41413626  1
  Na  Na3  1  0.97670277  0.28771132  0.40657935  1
  Na  Na4  1  0.16303903  0.02363719  0.41078607  1
  Na  Na5  1  0.66483692  0.03229420  0.41807851  1
  Na  Na6  1  0.98153889  0.96504505  0.49112446  1
  Na  Na7  1  0.49266960  0.98595152  0.49121837  1
  Na  Na8  1  0.99325036  0.00000061  0.99740871  1
  Na  Na9  1  0.49973432  0.99662452  0.98853553  1
  Na  Na10  1  0.33295563  0.32697089  0.82039306  1
  Na  Na11  1  0.83118940  0.34287107  0.82858928  1
  Na  Na12  1  0.33743007  0.33051221  0.32941046  1
  Na  Na13  1  0.83945102  0.34066674  0.33387825  1
  Na  Na14  1  0.15194448  0.65680774  0.16271249  1
  Na  Na15  1  0.66765642  0.65045755  0.16632484  1
  Na  Na16  1  0.16933174  0.67185161  0.67246434  1
  Na  Na17  1  0.66313847  0.65809319  0.66309537  1
  Nb  Nb0  1  0.00458073  0.99767265  0.65205814  1
  Nb  Nb1  1  0.50084158  0.00530696  0.65650031  1
  Nb  Nb2  1  0.00328759  0.99621000  0.15002238  1
  Nb  Nb3  1  0.50813135  0.02317261  0.14681296  1
  Nb  Nb4  1  0.83459557  0.33847111  0.97834859  1
  Nb  Nb5  1  0.15979466  0.67428934  0.30986146  1
  Nb  Nb6  1  0.66400253  0.65548680  0.31837632  1
  Nb  Nb7  1  0.16457503  0.64959345  0.80915589  1
  Nb  Nb8  1  0.66422227  0.67295565  0.80947879  1
  In  In0  1  0.99589125  0.99376460  0.34919746  1
  In  In1  1  0.49370790  0.99856933  0.35191718  1
  In  In2  1  0.00110126  0.99921014  0.84904519  1
  In  In3  1  0.49921739  0.99512016  0.85075288  1
  In  In4  1  0.33518212  0.33403774  0.68779326  1
  In  In5  1  0.83338238  0.34207250  0.68589612  1
  In  In6  1  0.33486079  0.32830810  0.18843359  1
  In  In7  1  0.84157587  0.34612312  0.18113533  1
  In  In8  1  0.33221991  0.33534040  0.98075412  1
  In  In9  1  0.33734562  0.33615083  0.47874915  1
  In  In10  1  0.83426871  0.33897625  0.47605303  1
  In  In11  1  0.16019336  0.65511761  0.01418075  1
  In  In12  1  0.66838902  0.66578048  0.01976441  1
  In  In13  1  0.16878046  0.67327471  0.51704590  1
  In  In14  1  0.66698273  0.66965076  0.51189900  1
  Si  Si0  1  0.14806486  0.00750116  0.25355885  1
  Si  Si1  1  0.99677263  0.29145744  0.25238660  1
  Si  Si2  1  0.50497167  0.30681469  0.25249473  1
  Si  Si3  1  0.14783747  0.29260498  0.75286726  1
  Si  Si4  1  0.64844581  0.29353694  0.75501579  1
  Si  Si5  1  0.99940817  0.70107162  0.75486000  1
  Si  Si6  1  0.49954850  0.70774354  0.75293782  1
  Si  Si7  1  0.35183893  0.99747482  0.75489474  1
  Si  Si8  1  0.98442639  0.63397927  0.08245387  1
  Si  Si9  1  0.69252768  0.34229849  0.08411890  1
  Si  Si10  1  0.31233878  0.67224172  0.92000761  1
  Si  Si11  1  0.01774079  0.36606554  0.91556585  1
  Si  Si12  1  0.66752903  0.95832084  0.92001737  1
  Si  Si13  1  0.31000802  0.95355465  0.41834243  1
  Si  Si14  1  0.81515908  0.95630389  0.41757238  1
  Si  Si15  1  0.66606135  0.36996032  0.41916208  1
  Si  Si16  1  0.02084475  0.67153743  0.41868446  1
  Si  Si17  1  0.51851192  0.66734480  0.41754540  1
  S  S0  1  0.64600015  0.99780858  0.24876564  1
  S  S1  1  0.35417315  0.71276990  0.24726311  1
  S  S2  1  0.85023507  0.70665413  0.24830875  1
  S  S3  1  0.85256263  0.99497241  0.74834486  1
  S  S4  1  0.48355069  0.33041163  0.58365530  1
  S  S5  1  0.98201063  0.32949572  0.58364636  1
  S  S6  1  0.18320489  0.03832157  0.58378011  1
  S  S7  1  0.68411230  0.03687361  0.58442662  1
  S  S8  1  0.33401230  0.63095921  0.58347405  1
  S  S9  1  0.83419479  0.63679900  0.58411711  1
  S  S10  1  0.47973654  0.63165813  0.08512887  1
  S  S11  1  0.33587883  0.03955912  0.08365969  1
  S  S12  1  0.83560605  0.04362302  0.08291844  1
  S  S13  1  0.18520578  0.32892839  0.08574072  1
  S  S14  1  0.81253130  0.66431256  0.91578279  1
  S  S15  1  0.52250651  0.37956677  0.91649055  1
  S  S16  1  0.16791613  0.96084690  0.91651878  1
  S  S17  1  0.16796536  0.37973411  0.41675269  1
  O  O0  1  0.10814028  0.02393123  0.31310909  1
  O  O1  1  0.60681055  0.01645600  0.30186277  1
  O  O2  1  0.40428681  0.78127509  0.30061599  1
  O  O3  1  0.89949203  0.77834355  0.30167951  1
  O  O4  1  0.49076674  0.19632053  0.30940692  1
  O  O5  1  0.98720860  0.19434636  0.31251222  1
  O  O6  1  0.11084500  0.19449636  0.81253463  1
  O  O7  1  0.60726099  0.18662388  0.81155507  1
  O  O8  1  0.48810305  0.77162988  0.81456295  1
  O  O9  1  0.97625007  0.78154848  0.80844102  1
  O  O10  1  0.40965041  0.03508949  0.81052054  1
  O  O11  1  0.90026028  0.02333628  0.80186529  1
  O  O12  1  0.40383481  0.96963205  0.69646045  1
  O  O13  1  0.89669806  0.97045923  0.69686306  1
  O  O14  1  0.08002444  0.18346255  0.69648208  1
  O  O15  1  0.58318383  0.20117904  0.69643321  1
  O  O16  1  0.00890534  0.83135056  0.69592681  1
  O  O17  1  0.51679965  0.84055696  0.69737597  1
  O  O18  1  0.40032758  0.82424161  0.19616854  1
  O  O19  1  0.89774995  0.81382231  0.19612682  1
  O  O20  1  0.00594275  0.17828553  0.19631762  1
  O  O21  1  0.51348244  0.19367835  0.19469423  1
  O  O22  1  0.08227731  0.97311324  0.19623823  1
  O  O23  1  0.58773940  0.97933794  0.19678645  1
  O  O24  1  0.43748266  0.34814411  0.63296460  1
  O  O25  1  0.93903335  0.35181338  0.63457750  1
  O  O26  1  0.23618892  0.12980184  0.63330021  1
  O  O27  1  0.73933620  0.12622312  0.63494394  1
  O  O28  1  0.32460204  0.52562114  0.63446867  1
  O  O29  1  0.82500159  0.53451693  0.63607701  1
  O  O30  1  0.43436187  0.51997183  0.13418883  1
  O  O31  1  0.94834572  0.52856935  0.14087951  1
  O  O32  1  0.32614543  0.12441568  0.13493717  1
  O  O33  1  0.82128125  0.11430543  0.13620292  1
  O  O34  1  0.23995649  0.34498592  0.13504155  1
  O  O35  1  0.74116033  0.35581753  0.14297168  1
  O  O36  1  0.21830967  0.29815205  0.03042446  1
  O  O37  1  0.73797767  0.31141817  0.02653451  1
  O  O38  1  0.43238695  0.56119735  0.02949095  1
  O  O39  1  0.91874112  0.52541093  0.02657313  1
  O  O40  1  0.35350149  0.14604433  0.03045220  1
  O  O41  1  0.84626417  0.15095701  0.03097468  1
  O  O42  1  0.21667156  0.13155937  0.52858444  1
  O  O43  1  0.72165793  0.13325585  0.52974402  1
  O  O44  1  0.34402675  0.55219849  0.52913167  1
  O  O45  1  0.85013854  0.56526761  0.53131965  1
  O  O46  1  0.43606578  0.30652659  0.52806630  1
  O  O47  1  0.93356047  0.30667308  0.52931665  1
  O  O48  1  0.27068787  0.69254228  0.97877235  1
  O  O49  1  0.77469502  0.68366631  0.96965509  1
  O  O50  1  0.07854964  0.43289990  0.97188512  1
  O  O51  1  0.57022647  0.45552856  0.97020338  1
  O  O52  1  0.15954602  0.87053039  0.97112940  1
  O  O53  1  0.64775477  0.83031981  0.97394726  1
  O  O54  1  0.27593110  0.85050773  0.47808582  1
  O  O55  1  0.77871000  0.85082469  0.47660359  1
  O  O56  1  0.15472707  0.45115567  0.47111241  1
  O  O57  1  0.64180378  0.44317194  0.47518984  1
  O  O58  1  0.07866816  0.70584392  0.47584642  1
  O  O59  1  0.57451200  0.71030850  0.47598813  1
  O  O60  1  0.07109876  0.64627370  0.35938697  1
  O  O61  1  0.57067892  0.63620103  0.36102520  1
  O  O62  1  0.24738402  0.84498148  0.36116483  1
  O  O63  1  0.75182673  0.85199951  0.35987488  1
  O  O64  1  0.17691780  0.48415995  0.36516228  1
  O  O65  1  0.67699515  0.49574839  0.36112971  1
  O  O66  1  0.06670666  0.49202291  0.85878698  1
  O  O67  1  0.56893040  0.49133585  0.86458662  1
  O  O68  1  0.17501965  0.87398654  0.86482406  1
  O  O69  1  0.67962510  0.85319068  0.86175488  1
  O  O70  1  0.24645637  0.64124347  0.86328855  1
  O  O71  1  0.75978428  0.64492375  0.86382686  1
  O  O72  1  0.01507020  0.84329555  0.41178038  1
  O  O73  1  0.51465393  0.83796297  0.40525616  1
  O  O74  1  0.40796587  0.99875212  0.41303979  1
  O  O75  1  0.91302091  0.99671702  0.41264443  1
  O  O76  1  0.09138571  0.20543363  0.41281321  1
  O  O77  1  0.58440431  0.18103095  0.41031683  1
  O  O78  1  0.00359205  0.17295000  0.90888536  1
  O  O79  1  0.50988454  0.20792249  0.91179291  1
  O  O80  1  0.09289537  0.98941961  0.91429251  1
  O  O81  1  0.58504755  0.98023275  0.91403927  1
  O  O82  1  0.40917738  0.82918139  0.91592570  1
  O  O83  1  0.89943547  0.81316732  0.91183575  1
  O  O84  1  0.49106619  0.17115127  0.59041770  1
  O  O85  1  0.98832628  0.16877500  0.59155172  1
  O  O86  1  0.09393187  0.02155985  0.59121130  1
  O  O87  1  0.59764017  0.02308302  0.59137049  1
  O  O88  1  0.41222722  0.80574361  0.58900471  1
  O  O89  1  0.91307212  0.81438625  0.59191677  1
  O  O90  1  0.48642649  0.80405287  0.09318871  1
  O  O91  1  0.98552613  0.82331566  0.09020071  1
  O  O92  1  0.41624183  0.02307968  0.09200707  1
  O  O93  1  0.91542999  0.03059401  0.08713350  1
  O  O94  1  0.09746294  0.17017768  0.09312973  1
  O  O95  1  0.59330702  0.15908742  0.09310187  1
  O  O96  1  0.33576709  0.15215492  0.74069540  1
  O  O97  1  0.83829941  0.13955018  0.73844886  1
  O  O98  1  0.24028380  0.32162081  0.74047490  1
  O  O99  1  0.74101408  0.31514300  0.74302278  1
  O  O100  1  0.42530544  0.51832561  0.74068433  1
  O  O101  1  0.92295113  0.50991672  0.74279081  1
  O  O102  1  0.34179415  0.53938066  0.23971603  1
  O  O103  1  0.83554918  0.53171502  0.24304666  1
  O  O104  1  0.42531302  0.33675043  0.24333772  1
  O  O105  1  0.91497506  0.31787049  0.24507262  1
  O  O106  1  0.24030794  0.17180668  0.24431520  1
  O  O107  1  0.73041233  0.14933309  0.24096069  1
  O  O108  1  0.31574616  0.48774874  0.91983161  1
  O  O109  1  0.81758752  0.50108112  0.91901046  1
  O  O110  1  0.43882640  0.37966197  0.91786211  1
  O  O111  1  0.92511769  0.36034737  0.92548540  1
  O  O112  1  0.24769211  0.13736590  0.91866217  1
  O  O113  1  0.75705758  0.14461404  0.92711936  1
  O  O114  1  0.30656391  0.13482190  0.41845209  1
  O  O115  1  0.81487713  0.13879448  0.41706460  1
  O  O116  1  0.24557652  0.36098366  0.42018143  1
  O  O117  1  0.75245335  0.35802928  0.41786014  1
  O  O118  1  0.42883307  0.48436788  0.41706236  1
  O  O119  1  0.93319227  0.48859533  0.41818157  1
  O  O120  1  0.17448751  0.48017825  0.08402505  1
  O  O121  1  0.67078813  0.49561455  0.07719713  1
  O  O122  1  0.08229021  0.67542919  0.07495185  1
  O  O123  1  0.56681827  0.65435643  0.08326193  1
  O  O124  1  0.26207289  0.86777589  0.07932274  1
  O  O125  1  0.76106577  0.86826092  0.07710973  1
  O  O126  1  0.16950441  0.86204766  0.58346647  1
  O  O127  1  0.67315647  0.86169246  0.58305476  1
  O  O128  1  0.25531130  0.64790894  0.58137456  1
  O  O129  1  0.75794350  0.65754107  0.58146323  1
  O  O130  1  0.07050642  0.47923850  0.58090761  1
  O  O131  1  0.57051660  0.48381982  0.58239760  1
  O  O132  1  0.15344472  0.82712477  0.25486780  1
  O  O133  1  0.64998582  0.83692486  0.24898960  1
  O  O134  1  0.26927537  0.70255375  0.25154477  1
  O  O135  1  0.76756826  0.70690525  0.24986132  1
  O  O136  1  0.08997220  0.47880031  0.25655520  1
  O  O137  1  0.59580139  0.49158887  0.25355636  1
  O  O138  1  0.14675529  0.47507925  0.75284164  1
  O  O139  1  0.65731816  0.48773422  0.76142765  1
  O  O140  1  0.09179978  0.70894691  0.75831973  1
  O  O141  1  0.59285368  0.70121119  0.75660644  1
  O  O142  1  0.25962472  0.81564630  0.75922864  1
  O  O143  1  0.76739630  0.83101969  0.75190120  1
loop_
_geom_bond_atom_site_label_1
_geom_bond_atom_site_label_2
_geom_bond_distance
_geom_bond_site_symmetry_2
Na0 O82 2.302624 1_555
Na0 O8 2.340539 1_555
Na0 O81 2.382101 1_555
Na0 O110 2.439921 1_555
Na0 O108 2.638853 1_555
Na0 O38 2.935705 1_556
Na0 O53 2.965769 1_555
Na0 O67 3.023584 1_555
Na1 O108 2.405765 1_555
Na1 O6 2.492096 1_555
Na1 O78 2.496111 1_555
Na1 O80 2.552948 1_545
Na1 O50 2.652207 1_555
Na1 O112 2.714995 1_555
Na1 O70 2.782473 1_555
Na1 O36 2.960524 1_556
Na2 O74 2.301627 1_545
Na2 O118 2.415617 1_555
Na2 O77 2.438317 1_555
Na2 O4 2.584754 1_555
Na2 O46 2.804951 1_555
Na2 O57 2.810596 1_555
Na2 O114 2.817368 1_555
Na2 O61 2.952776 1_555
Na3 O75 2.285026 1_545
Na3 O119 2.320582 1_555
Na3 O5 2.370270 1_555
Na3 O76 2.525806 1_655
Na3 O115 2.545024 1_555
Na4 O114 2.269427 1_555
Na4 O72 2.332946 1_545
Na4 O0 2.463130 1_555
Na4 O76 2.543938 1_555
Na4 O116 2.645915 1_555
Na4 O42 2.886681 1_555
Na4 O58 2.907396 1_545
Na4 O62 2.943451 1_545
Na5 O115 2.378394 1_555
Na5 O73 2.400537 1_545
Na5 O77 2.423919 1_555
Na5 O117 2.549190 1_555
Na5 O43 2.754624 1_555
Na5 O1 2.857133 1_555
Na5 O59 2.858528 1_545
Na6 O75 2.289687 1_555
Na6 O72 2.363605 1_655
Na6 O89 2.669925 1_555
Na6 O76 2.762196 1_665
Na6 O85 2.921043 1_565
Na6 O86 2.944611 1_665
Na7 O74 2.403839 1_555
Na7 O73 2.529900 1_555
Na7 O77 2.536665 1_565
Na7 O88 2.740341 1_555
Na7 O84 2.841763 1_565
Na7 O87 2.899067 1_565
Na8 O78 2.522769 1_655
Na8 O93 2.593954 1_556
Na8 O83 2.598278 1_545
Na8 O91 2.633825 1_546
Na8 O80 2.664484 1_645
Na8 O94 2.807747 1_656
Na9 O82 2.299998 1_555
Na9 O81 2.362118 1_555
Na9 O79 2.542775 1_565
Na9 O95 2.888794 1_566
Na9 O92 2.897678 1_566
Na9 O90 2.917068 1_556
Na10 O96 2.438638 1_555
Na10 O98 2.473152 1_555
Na10 O100 2.507649 1_555
Na10 O112 2.798674 1_555
Na10 O108 2.812860 1_555
Na10 O110 2.832694 1_555
Na11 O99 2.490052 1_555
Na11 O101 2.542015 1_555
Na11 O109 2.607175 1_555
Na11 O111 2.761963 1_555
Na11 O113 2.791679 1_555
Na11 O97 2.817029 1_555
Na12 O104 2.526478 1_555
Na12 O118 2.539141 1_555
Na12 O106 2.542948 1_555
Na12 O114 2.585225 1_555
Na12 O116 2.769850 1_555
Na12 O102 2.775940 1_555
Na13 O119 2.483539 1_555
Na13 O105 2.527057 1_555
Na13 O115 2.531040 1_555
Na13 O117 2.548920 1_555
Na13 O103 2.738971 1_555
Na13 O107 2.837281 1_555
Na14 O122 2.433224 1_555
Na14 O120 2.577429 1_555
Na14 O136 2.597383 1_555
Na14 O132 2.614991 1_555
Na14 O124 2.742637 1_555
Na14 O134 2.824444 1_555
Na15 O137 2.439398 1_555
Na15 O121 2.502033 1_555
Na15 O135 2.511058 1_555
Na15 O123 2.654557 1_555
Na15 O133 2.664525 1_555
Na15 O125 2.767321 1_555
Na16 O138 2.459384 1_555
Na16 O142 2.496233 1_555
Na16 O140 2.543102 1_555
Na16 O126 2.677428 1_555
Na16 O128 2.685923 1_555
Na16 O130 2.750028 1_555
Na17 O131 2.470583 1_555
Na17 O129 2.547832 1_555
Na17 O127 2.549103 1_555
Na17 O141 2.629616 1_555
Na17 O143 2.689991 1_555
Na17 O139 2.715762 1_555
Nb0 O16 1.844434 1_555
Nb0 O14 1.852528 1_565
Nb0 O86 2.067993 1_565
Nb0 O13 2.108398 1_455
Nb0 O89 2.157786 1_455
Nb0 O85 2.207782 1_465
Nb1 O12 1.859837 1_545
Nb1 O15 1.885411 1_555
Nb1 O17 1.900034 1_545
Nb1 O84 2.205511 1_555
Nb1 O87 2.249922 1_555
Nb1 O88 2.311756 1_545
Nb2 O22 1.872461 1_555
Nb2 O20 1.938517 1_565
Nb2 O91 1.984307 1_455
Nb2 O19 2.085519 1_455
Nb2 O94 2.103634 1_565
Nb2 O93 2.281121 1_465
Nb3 O21 1.855622 1_555
Nb3 O95 1.879100 1_555
Nb3 O23 2.028283 1_545
Nb3 O92 2.084218 1_555
Nb3 O90 2.193778 1_545
Nb3 O18 2.197736 1_545
Nb4 O39 1.956431 1_556
Nb4 O111 1.969244 1_555
Nb4 O37 1.978617 1_556
Nb4 O113 1.991593 1_555
Nb4 O109 2.138798 1_555
Nb4 O41 2.177074 1_556
Nb5 O60 1.879406 1_555
Nb5 O132 1.920066 1_555
Nb5 O62 1.958863 1_555
Nb5 O136 1.996971 1_555
Nb5 O64 2.279949 1_555
Nb5 O134 2.298190 1_555
Nb6 O65 1.855818 1_555
Nb6 O61 1.882851 1_555
Nb6 O63 1.939867 1_555
Nb6 O137 2.029098 1_555
Nb6 O135 2.313280 1_555
Nb6 O133 2.392954 1_555
Nb7 O138 1.939253 1_555
Nb7 O70 1.964073 1_555
Nb7 O66 1.988988 1_555
Nb7 O142 1.989863 1_555
Nb7 O140 2.021614 1_555
Nb7 O68 2.322767 1_555
Nb8 O141 1.880914 1_555
Nb8 O69 1.928785 1_555
Nb8 O139 1.955511 1_555
Nb8 O67 2.111644 1_555
Nb8 O143 2.151208 1_555
Nb8 O71 2.245338 1_555
In0 O5 2.073544 1_565
In0 O0 2.078998 1_665
In0 O75 2.103518 1_555
In0 O72 2.126293 1_655
In0 O3 2.150739 1_555
In0 O76 2.340899 1_665
In1 O4 2.060296 1_565
In1 O73 2.075172 1_555
In1 O74 2.095276 1_555
In1 O77 2.123645 1_565
In1 O2 2.164515 1_555
In1 O1 2.280429 1_565
In2 O9 2.012481 1_455
In2 O6 2.064544 1_565
In2 O78 2.071267 1_565
In2 O11 2.221365 1_465
In2 O80 2.271838 1_555
In2 O83 2.285563 1_455
In3 O10 2.044940 1_565
In3 O7 2.061997 1_565
In3 O8 2.095875 1_555
In3 O82 2.174658 1_555
In3 O81 2.180462 1_555
In3 O79 2.308826 1_565
In4 O100 2.048127 1_555
In4 O96 2.050527 1_555
In4 O98 2.057965 1_555
In4 O24 2.189618 1_555
In4 O28 2.206984 1_555
In4 O26 2.208214 1_555
In5 O99 2.043578 1_555
In5 O101 2.044792 1_555
In5 O29 2.150332 1_555
In5 O27 2.179524 1_555
In5 O25 2.209254 1_555
In5 O97 2.232142 1_555
In6 O104 2.036574 1_555
In6 O106 2.043219 1_555
In6 O32 2.153348 1_555
In6 O30 2.166723 1_555
In6 O34 2.174088 1_555
In6 O102 2.190287 1_555
In7 O31 2.031873 1_555
In7 O35 2.054322 1_555
In7 O105 2.081218 1_555
In7 O33 2.193487 1_555
In7 O103 2.243205 1_555
In7 O107 2.354194 1_555
In8 O108 2.089834 1_555
In8 O112 2.200992 1_555
In8 O36 2.228843 1_556
In8 O38 2.236513 1_556
In8 O40 2.243962 1_556
In8 O110 2.281793 1_555
In9 O118 2.085420 1_555
In9 O114 2.128487 1_555
In9 O44 2.218887 1_555
In9 O116 2.232867 1_555
In9 O46 2.238428 1_555
In9 O42 2.339387 1_555
In10 O117 2.064728 1_555
In10 O119 2.097379 1_555
In10 O115 2.144729 1_555
In10 O45 2.298924 1_555
In10 O47 2.307045 1_555
In10 O43 2.314855 1_555
In11 O48 2.021794 1_554
In11 O50 2.046771 1_554
In11 O122 2.058277 1_555
In11 O52 2.188382 1_554
In11 O120 2.359519 1_555
In11 O124 2.406806 1_555
In12 O53 2.003249 1_554
In12 O121 2.046097 1_555
In12 O51 2.164378 1_554
In12 O49 2.176604 1_554
In12 O125 2.197651 1_555
In12 O123 2.309505 1_555
In13 O54 2.006686 1_555
In13 O58 2.026627 1_555
In13 O56 2.165435 1_555
In13 O128 2.246749 1_555
In13 O126 2.285038 1_555
In13 O130 2.301693 1_555
In14 O55 2.029565 1_555
In14 O57 2.041087 1_555
In14 O59 2.052330 1_555
In14 O129 2.336430 1_555
In14 O127 2.347617 1_555
In14 O131 2.364579 1_555
O0 Si0 1.593422 1_555
O1 S0 1.466525 1_545
O2 S1 1.468407 1_555
O3 S2 1.466242 1_555
O4 Si2 1.592157 1_555
O5 Si1 1.605362 1_555
O6 Si3 1.594538 1_555
O7 Si4 1.573800 1_555
O8 Si6 1.586345 1_555
O9 Si5 1.591445 1_555
O10 Si7 1.580039 1_545
O11 S3 1.452978 1_545
O12 Si7 1.731862 1_555
O13 S3 1.507379 1_555
O14 Si3 1.718811 1_555
O15 Si4 1.710754 1_555
O16 Si5 1.750792 1_455
O17 Si6 1.676426 1_555
O18 S1 1.505359 1_555
O19 S2 1.516421 1_555
O20 Si1 1.705987 1_455
O21 Si2 1.731709 1_555
O22 Si0 1.698795 1_565
O23 S0 1.547821 1_555
O24 S4 1.464957 1_555
O25 S5 1.476836 1_555
O26 S6 1.453091 1_555
O27 S7 1.482548 1_555
O28 S8 1.469756 1_555
O29 S9 1.472583 1_555
O30 S10 1.466433 1_555
O31 Si8 1.592292 1_555
O32 S11 1.466406 1_555
O33 S12 1.466173 1_555
O34 S13 1.465439 1_555
O35 Si9 1.588182 1_555
O36 S13 1.493564 1_555
O37 Si9 1.657167 1_555
O38 S10 1.496343 1_555
O39 Si8 1.692763 1_555
O40 S11 1.494014 1_555
O41 S12 1.493433 1_555
O42 S6 1.481194 1_555
O43 S7 1.491982 1_555
O44 S8 1.495897 1_555
O45 S9 1.472640 1_555
O46 S4 1.497123 1_555
O47 S5 1.482673 1_555
O48 Si10 1.605454 1_555
O49 S14 1.470838 1_555
O50 Si11 1.610715 1_555
O51 S15 1.468646 1_555
O52 S16 1.468574 1_555
O53 Si12 1.613810 1_555
O54 Si13 1.606201 1_555
O55 Si14 1.605168 1_555
O56 S17 1.482978 1_555
O57 Si15 1.608676 1_555
O58 Si16 1.612749 1_555
O59 Si17 1.611850 1_555
O60 Si16 1.719188 1_555
O61 Si17 1.712368 1_555
O62 Si13 1.694031 1_555
O63 Si14 1.699451 1_555
O64 S17 1.477706 1_555
O65 Si15 1.703703 1_555
O66 Si11 1.671828 1_555
O67 S15 1.522188 1_555
O68 S16 1.467240 1_555
O69 Si12 1.720401 1_555
O70 Si10 1.694454 1_555
O71 S14 1.485592 1_555
O72 Si16 1.611341 1_555
O73 Si17 1.600060 1_555
O74 Si13 1.608040 1_555
O75 Si14 1.618915 1_555
O76 S17 1.490672 1_555
O77 Si15 1.615880 1_555
O78 Si11 1.636348 1_555
O79 S15 1.451722 1_555
O80 S16 1.499183 1_555
O81 Si12 1.601323 1_555
O82 Si10 1.612277 1_555
O83 S14 1.473276 1_555
O84 S4 1.516481 1_555
O85 S5 1.520484 1_555
O86 S6 1.550212 1_555
O87 S7 1.510329 1_555
O88 S8 1.507862 1_555
O89 S9 1.532639 1_555
O90 S10 1.509318 1_555
O91 Si8 1.706676 1_555
O92 S11 1.541012 1_555
O93 S12 1.504912 1_555
O94 S13 1.525134 1_555
O95 Si9 1.740642 1_555
O96 Si7 1.594061 1_545
O97 S3 1.467314 1_545
O98 Si3 1.580192 1_555
O99 Si4 1.605989 1_555
O100 Si6 1.584019 1_555
O101 Si5 1.606086 1_555
O102 S1 1.475145 1_555
O103 S2 1.468447 1_555
O104 Si2 1.602596 1_555
O105 Si1 1.616186 1_555
O106 Si0 1.597925 1_555
O107 S0 1.464636 1_545
O108 Si10 1.695096 1_555
O109 S14 1.521332 1_555
O110 S15 1.510161 1_555
O111 Si11 1.661660 1_655
O112 S16 1.524271 1_545
O113 Si12 1.658804 1_545
O114 Si13 1.666370 1_545
O115 Si14 1.648170 1_545
O116 S17 1.493440 1_555
O117 Si15 1.614905 1_555
O118 Si17 1.636699 1_555
O119 Si16 1.619089 1_655
O120 S13 1.470378 1_555
O121 Si9 1.622159 1_555
O122 Si8 1.621341 1_455
O123 S10 1.480083 1_555
O124 S11 1.457998 1_565
O125 S12 1.485350 1_565
O126 S6 1.481935 1_565
O127 S7 1.491344 1_565
O128 S8 1.502343 1_555
O129 S9 1.478748 1_555
O130 S5 1.492417 1_455
O131 S4 1.487422 1_555
O132 Si0 1.677288 1_565
O133 S0 1.487886 1_555
O134 S1 1.490948 1_555
O135 S2 1.492688 1_555
O136 Si1 1.690522 1_455
O137 Si2 1.655263 1_555
O138 Si3 1.655241 1_555
O139 Si4 1.683446 1_555
O140 Si5 1.634161 1_455
O141 Si6 1.715132 1_555
O142 Si7 1.657522 1_555
O143 S3 1.512996 1_555
