# generated using pymatgen
data_Na2Zr4Ga4Si3(S3O16)3
_symmetry_space_group_name_H-M   'P 1'
_cell_length_a   17.61141063
_cell_length_b   8.80027329
_cell_length_c   22.90463594
_cell_angle_alpha   89.74676915
_cell_angle_beta   90.61918143
_cell_angle_gamma   119.98954352
_symmetry_Int_Tables_number   1
_chemical_formula_structural   Na2Zr4Ga4Si3(S3O16)3
_chemical_formula_sum   'Na6 Zr12 Ga12 Si9 S27 O144'
_cell_volume   3074.42879041
_cell_formula_units_Z   3
loop_
 _symmetry_equiv_pos_site_id
 _symmetry_equiv_pos_as_xyz
  1  'x, y, z'
loop_
 _atom_site_type_symbol
 _atom_site_label
 _atom_site_symmetry_multiplicity
 _atom_site_fract_x
 _atom_site_fract_y
 _atom_site_fract_z
 _atom_site_occupancy
  Na  Na0  1  0.99590462  0.00549912  0.49969054  1
  Na  Na1  1  0.49651805  0.98909833  0.00401969  1
  Na  Na2  1  0.33057426  0.32739967  0.84216666  1
  Na  Na3  1  0.82620706  0.32952461  0.83513968  1
  Na  Na4  1  0.32884272  0.32432737  0.33350666  1
  Na  Na5  1  0.82323320  0.32234214  0.33806933  1
  Zr  Zr0  1  0.51126380  0.01446471  0.35721853  1
  Zr  Zr1  1  0.00385698  0.99833189  0.85991701  1
  Zr  Zr2  1  0.50619276  0.02197424  0.64490979  1
  Zr  Zr3  1  0.00556935  0.98866034  0.14537464  1
  Zr  Zr4  1  0.33805549  0.33521364  0.68725125  1
  Zr  Zr5  1  0.83326410  0.33599208  0.68771571  1
  Zr  Zr6  1  0.33454951  0.33181470  0.18908932  1
  Zr  Zr7  1  0.83421665  0.33365499  0.19088101  1
  Zr  Zr8  1  0.16414575  0.67688195  0.02400374  1
  Zr  Zr9  1  0.65965074  0.66299845  0.02472035  1
  Zr  Zr10  1  0.16022579  0.65838706  0.52306625  1
  Zr  Zr11  1  0.66437963  0.65455710  0.52127912  1
  Ga  Ga0  1  0.00315808  0.00060130  0.34827535  1
  Ga  Ga1  1  0.50439651  0.00697633  0.84978595  1
  Ga  Ga2  1  0.99557662  0.01201308  0.64704096  1
  Ga  Ga3  1  0.50046235  0.96360005  0.15097474  1
  Ga  Ga4  1  0.33198206  0.33125151  0.98335803  1
  Ga  Ga5  1  0.83194191  0.33847747  0.98570064  1
  Ga  Ga6  1  0.33519025  0.32891350  0.47980487  1
  Ga  Ga7  1  0.83303574  0.32647805  0.47853752  1
  Ga  Ga8  1  0.16752383  0.67602462  0.31037889  1
  Ga  Ga9  1  0.66859733  0.66260626  0.31248883  1
  Ga  Ga10  1  0.17159551  0.68661681  0.81919486  1
  Ga  Ga11  1  0.66455524  0.65419297  0.81167657  1
  Si  Si0  1  0.14534635  0.99550678  0.25692815  1
  Si  Si1  1  0.64463284  0.98123412  0.25138956  1
  Si  Si2  1  0.64573750  0.29624308  0.75652168  1
  Si  Si3  1  0.47476463  0.33383690  0.57897467  1
  Si  Si4  1  0.96982769  0.31771151  0.58129247  1
  Si  Si5  1  0.46818878  0.62297808  0.08028255  1
  Si  Si6  1  0.97248139  0.61388164  0.08044408  1
  Si  Si7  1  0.17995479  0.97317252  0.91651731  1
  Si  Si8  1  0.67849631  0.39096688  0.41454833  1
  S  S0  1  0.35177826  0.71355480  0.25143995  1
  S  S1  1  0.85443209  0.71649943  0.25314011  1
  S  S2  1  0.00442390  0.29224700  0.25487276  1
  S  S3  1  0.50400726  0.28784223  0.24818377  1
  S  S4  1  0.14250417  0.29816643  0.75081354  1
  S  S5  1  0.00611300  0.71967702  0.74895117  1
  S  S6  1  0.50234909  0.71414151  0.75508067  1
  S  S7  1  0.35136319  0.98738645  0.75347465  1
  S  S8  1  0.85295740  0.99096443  0.75088042  1
  S  S9  1  0.18549247  0.04888080  0.58208204  1
  S  S10  1  0.69043860  0.04839006  0.58046602  1
  S  S11  1  0.33419118  0.61785442  0.58059400  1
  S  S12  1  0.84011929  0.63292237  0.58298844  1
  S  S13  1  0.34112724  0.04935044  0.08345261  1
  S  S14  1  0.83467136  0.05143400  0.08069636  1
  S  S15  1  0.19008754  0.33116821  0.08063333  1
  S  S16  1  0.68563432  0.32200418  0.08119255  1
  S  S17  1  0.31658379  0.67289561  0.91228833  1
  S  S18  1  0.80700350  0.65421540  0.91592816  1
  S  S19  1  0.01865942  0.38377337  0.91450914  1
  S  S20  1  0.52077830  0.37185354  0.91391787  1
  S  S21  1  0.66768539  0.96082185  0.91435102  1
  S  S22  1  0.30780647  0.95937355  0.41592237  1
  S  S23  1  0.81843932  0.96311743  0.41374110  1
  S  S24  1  0.16794564  0.37435699  0.41504920  1
  S  S25  1  0.02035346  0.66879503  0.41367402  1
  S  S26  1  0.51537825  0.65275589  0.41597265  1
  O  O0  1  0.10097585  0.03672701  0.31177818  1
  O  O1  1  0.60091669  0.02477633  0.30725801  1
  O  O2  1  0.40720415  0.79321131  0.30347879  1
  O  O3  1  0.90932869  0.79373365  0.30589804  1
  O  O4  1  0.48501233  0.17675733  0.30139777  1
  O  O5  1  0.98374152  0.17691242  0.30678858  1
  O  O6  1  0.10241172  0.18300014  0.80250134  1
  O  O7  1  0.60062155  0.16485237  0.81130451  1
  O  O8  1  0.48243938  0.78881598  0.80645686  1
  O  O9  1  0.99030475  0.80011493  0.80133937  1
  O  O10  1  0.40711141  0.02315159  0.80586139  1
  O  O11  1  0.91003878  0.02301601  0.80268743  1
  O  O12  1  0.39228673  0.96724754  0.70029906  1
  O  O13  1  0.89217300  0.96236314  0.69800101  1
  O  O14  1  0.08969463  0.21448233  0.69744223  1
  O  O15  1  0.58729698  0.20340234  0.69682240  1
  O  O16  1  0.01612223  0.82600244  0.69629567  1
  O  O17  1  0.51114269  0.81142852  0.70094741  1
  O  O18  1  0.38887927  0.81889282  0.19786319  1
  O  O19  1  0.89558306  0.82187892  0.20010674  1
  O  O20  1  0.01324824  0.21162869  0.20112217  1
  O  O21  1  0.51074149  0.20105987  0.19564952  1
  O  O22  1  0.08747051  0.97128084  0.19686894  1
  O  O23  1  0.58748918  0.96223246  0.19282517  1
  O  O24  1  0.43013638  0.35908943  0.63896989  1
  O  O25  1  0.93085945  0.35422424  0.64036100  1
  O  O26  1  0.24041055  0.12891213  0.63555339  1
  O  O27  1  0.74230579  0.12942663  0.63476650  1
  O  O28  1  0.31627165  0.50655563  0.63422903  1
  O  O29  1  0.82197894  0.52198298  0.63621777  1
  O  O30  1  0.42925937  0.50679871  0.13876711  1
  O  O31  1  0.92816010  0.49707318  0.13827175  1
  O  O32  1  0.32103669  0.12366393  0.13518876  1
  O  O33  1  0.81600549  0.12455976  0.13286683  1
  O  O34  1  0.24244326  0.35542429  0.13416490  1
  O  O35  1  0.74064041  0.35281633  0.13364478  1
  O  O36  1  0.22650107  0.29356796  0.02878479  1
  O  O37  1  0.72399971  0.28965449  0.02785986  1
  O  O38  1  0.41140413  0.52811892  0.02170210  1
  O  O39  1  0.91503614  0.53119913  0.02150679  1
  O  O40  1  0.35154001  0.15328750  0.03011776  1
  O  O41  1  0.84557187  0.15449379  0.02680567  1
  O  O42  1  0.22343904  0.15909097  0.52984494  1
  O  O43  1  0.72723721  0.16022523  0.52922770  1
  O  O44  1  0.34516799  0.53505463  0.52848765  1
  O  O45  1  0.85233206  0.55185416  0.53117579  1
  O  O46  1  0.41164553  0.29835209  0.52378545  1
  O  O47  1  0.91057599  0.29495049  0.52397886  1
  O  O48  1  0.27722037  0.69920515  0.96501864  1
  O  O49  1  0.76946965  0.68415179  0.96858619  1
  O  O50  1  0.07334371  0.45706382  0.96730105  1
  O  O51  1  0.57670721  0.45361983  0.96712830  1
  O  O52  1  0.15843331  0.84565366  0.97227807  1
  O  O53  1  0.65720689  0.85289755  0.96726748  1
  O  O54  1  0.26799254  0.85535965  0.46938199  1
  O  O55  1  0.77954054  0.86053145  0.46778999  1
  O  O56  1  0.15767756  0.46127015  0.46813814  1
  O  O57  1  0.66166254  0.47603566  0.47285110  1
  O  O58  1  0.07595103  0.69830011  0.46771646  1
  O  O59  1  0.56995035  0.68531265  0.46932893  1
  O  O60  1  0.06282033  0.64081515  0.36317296  1
  O  O61  1  0.55534284  0.62497514  0.36456416  1
  O  O62  1  0.25226548  0.87345257  0.36390358  1
  O  O63  1  0.76333868  0.88181030  0.36193909  1
  O  O64  1  0.18189224  0.48422473  0.36299354  1
  O  O65  1  0.68822371  0.50987854  0.35756542  1
  O  O66  1  0.06064569  0.49172681  0.86175031  1
  O  O67  1  0.56259366  0.48478709  0.86252471  1
  O  O68  1  0.19173176  0.88514346  0.85757818  1
  O  O69  1  0.68139976  0.87890985  0.86206652  1
  O  O70  1  0.25937010  0.64098510  0.85925136  1
  O  O71  1  0.75374750  0.63429601  0.86306365  1
  O  O72  1  0.01125862  0.82827631  0.40951903  1
  O  O73  1  0.50318628  0.80681735  0.41028935  1
  O  O74  1  0.39513240  0.97979861  0.40931120  1
  O  O75  1  0.90830404  0.98028335  0.40808818  1
  O  O76  1  0.08732424  0.20003694  0.41165933  1
  O  O77  1  0.58897064  0.19997320  0.40949421  1
  O  O78  1  0.00849414  0.20604044  0.90661753  1
  O  O79  1  0.51175692  0.19424547  0.90926195  1
  O  O80  1  0.09145944  0.98945535  0.90664138  1
  O  O81  1  0.58626656  0.97225386  0.91061642  1
  O  O82  1  0.40539694  0.83604560  0.90521810  1
  O  O83  1  0.89596282  0.81068669  0.90836507  1
  O  O84  1  0.48200457  0.15876333  0.58954845  1
  O  O85  1  0.98501786  0.14880065  0.58956256  1
  O  O86  1  0.09663713  0.02218608  0.59088061  1
  O  O87  1  0.60076662  0.01921505  0.58944234  1
  O  O88  1  0.41287155  0.78810231  0.59116083  1
  O  O89  1  0.92162898  0.80550094  0.59254740  1
  O  O90  1  0.48044238  0.81891237  0.08643076  1
  O  O91  1  0.98255784  0.80672906  0.08894097  1
  O  O92  1  0.42085989  0.03807434  0.09227268  1
  O  O93  1  0.91325974  0.03777678  0.08983177  1
  O  O94  1  0.10046316  0.18208903  0.08880622  1
  O  O95  1  0.59670865  0.17375587  0.08738473  1
  O  O96  1  0.34011089  0.14669375  0.74664098  1
  O  O97  1  0.84562561  0.15239727  0.74479120  1
  O  O98  1  0.23133487  0.31495914  0.74474708  1
  O  O99  1  0.74294571  0.31501388  0.74786644  1
  O  O100  1  0.42220204  0.53170757  0.74878702  1
  O  O101  1  0.92541949  0.54281812  0.74464850  1
  O  O102  1  0.34391655  0.53644742  0.24495410  1
  O  O103  1  0.84665090  0.53914248  0.24681290  1
  O  O104  1  0.42400404  0.30963786  0.24437408  1
  O  O105  1  0.92611243  0.31664333  0.24853263  1
  O  O106  1  0.24221620  0.17084051  0.24758038  1
  O  O107  1  0.74171103  0.16003824  0.24412842  1
  O  O108  1  0.32644992  0.51639938  0.91726077  1
  O  O109  1  0.81533763  0.49403937  0.92058853  1
  O  O110  1  0.43437955  0.35669974  0.92038731  1
  O  O111  1  0.92938386  0.35979090  0.91995164  1
  O  O112  1  0.26342541  0.16904887  0.92648154  1
  O  O113  1  0.74714143  0.13947785  0.92220048  1
  O  O114  1  0.31422038  0.13633583  0.42059257  1
  O  O115  1  0.82839518  0.14120298  0.41934992  1
  O  O116  1  0.24782498  0.35549641  0.42330647  1
  O  O117  1  0.76306230  0.36239613  0.42485164  1
  O  O118  1  0.42528905  0.49437551  0.42225371  1
  O  O119  1  0.93410844  0.51054858  0.42103957  1
  O  O120  1  0.18542906  0.49184354  0.07262091  1
  O  O121  1  0.68238883  0.48710357  0.07259176  1
  O  O122  1  0.06946899  0.63410383  0.07506503  1
  O  O123  1  0.56678569  0.64616386  0.07049980  1
  O  O124  1  0.26413548  0.86993224  0.07646091  1
  O  O125  1  0.75762073  0.87263745  0.07244992  1
  O  O126  1  0.18071059  0.87661645  0.57494755  1
  O  O127  1  0.68537261  0.87815542  0.57418294  1
  O  O128  1  0.25707485  0.64173267  0.57375618  1
  O  O129  1  0.76465964  0.66167112  0.57706110  1
  O  O130  1  0.06806328  0.49039100  0.57116877  1
  O  O131  1  0.57059926  0.50663839  0.57531987  1
  O  O132  1  0.15321302  0.82162427  0.26228790  1
  O  O133  1  0.65419960  0.81198507  0.26513990  1
  O  O134  1  0.26297921  0.68704880  0.25955998  1
  O  O135  1  0.76718579  0.69566114  0.25740270  1
  O  O136  1  0.08379913  0.46334245  0.26367695  1
  O  O137  1  0.58142775  0.46098073  0.25630734  1
  O  O138  1  0.15166670  0.47186006  0.76031643  1
  O  O139  1  0.65404125  0.48634361  0.76223646  1
  O  O140  1  0.08306805  0.69800012  0.75762053  1
  O  O141  1  0.58086952  0.69854242  0.76353748  1
  O  O142  1  0.26431196  0.82936971  0.75862215  1
  O  O143  1  0.76512057  0.83901392  0.75961621  1
loop_
_geom_bond_atom_site_label_1
_geom_bond_atom_site_label_2
_geom_bond_distance
_geom_bond_site_symmetry_2
Na0 O85 2.477432 1_555
Na0 O75 2.534442 1_545
Na0 O76 2.621607 1_655
Na0 O89 2.656657 1_545
Na0 O86 2.682078 1_655
Na0 O72 2.689478 1_645
Na1 O90 2.334289 1_555
Na1 O95 2.547219 1_565
Na1 O92 2.585975 1_565
Na1 O82 2.701544 1_554
Na1 O81 2.721631 1_554
Na1 O79 2.745088 1_564
Na2 O112 2.334116 1_555
Na2 O108 2.424633 1_555
Na2 O110 2.465884 1_555
Na2 O100 2.747985 1_555
Na2 O96 2.765882 1_555
Na2 O98 2.787859 1_555
Na3 O99 2.431882 1_555
Na3 O109 2.504681 1_555
Na3 O113 2.532770 1_555
Na3 O111 2.567265 1_555
Na3 O97 2.721369 1_555
Na3 O101 2.763586 1_555
Na4 O106 2.433924 1_555
Na4 O114 2.517543 1_555
Na4 O118 2.582187 1_555
Na4 O116 2.607935 1_555
Na4 O102 2.674270 1_555
Na4 O104 2.699300 1_555
Na5 O117 2.371360 1_555
Na5 O115 2.475935 1_555
Na5 O107 2.577112 1_555
Na5 O119 2.623389 1_555
Na5 O103 2.715856 1_555
Na5 O105 2.768243 1_555
Ga0 O0 1.802467 1_555
Ga0 O5 1.984352 1_455
Ga0 O3 1.990120 1_445
Ga0 O75 2.109066 1_445
Ga0 O72 2.116848 1_545
Ga0 O76 2.181853 1_555
Ga1 O7 1.801878 1_555
Ga1 O8 2.021570 1_545
Ga1 O10 2.042849 1_555
Ga1 O82 2.079360 1_545
Ga1 O79 2.095480 1_555
Ga1 O81 2.122931 1_545
Ga2 O85 1.849687 1_555
Ga2 O13 2.028708 1_545
Ga2 O89 2.043433 1_545
Ga2 O14 2.068643 1_655
Ga2 O16 2.156440 1_645
Ga2 O86 2.172463 1_655
Ga3 O23 1.804064 1_555
Ga3 O90 1.867538 1_555
Ga3 O18 2.041727 1_555
Ga3 O92 2.252265 1_565
Ga3 O21 2.254649 1_565
Ga3 O95 2.304480 1_565
Ga4 O38 1.814850 1_556
Ga4 O112 1.857949 1_555
Ga4 O36 2.016528 1_556
Ga4 O40 2.057901 1_556
Ga4 O110 2.243254 1_555
Ga4 O108 2.256098 1_555
Ga5 O39 1.787678 1_556
Ga5 O41 1.983863 1_556
Ga5 O37 1.987563 1_556
Ga5 O109 2.134607 1_555
Ga5 O113 2.184877 1_555
Ga5 O111 2.231510 1_555
Ga6 O46 1.797342 1_555
Ga6 O118 2.023406 1_555
Ga6 O114 2.057111 1_555
Ga6 O44 2.064016 1_555
Ga6 O116 2.100201 1_555
Ga6 O42 2.124570 1_555
Ga7 O47 1.835924 1_555
Ga7 O117 1.866500 1_555
Ga7 O43 2.065636 1_555
Ga7 O115 2.094491 1_555
Ga7 O119 2.162453 1_555
Ga7 O45 2.200305 1_555
Ga8 O132 1.795262 1_555
Ga8 O136 2.011525 1_555
Ga8 O134 2.017088 1_555
Ga8 O62 2.033734 1_555
Ga8 O60 2.105277 1_555
Ga8 O64 2.183514 1_555
Ga9 O133 1.811972 1_555
Ga9 O65 1.853740 1_555
Ga9 O135 2.056804 1_555
Ga9 O137 2.101288 1_555
Ga9 O63 2.132819 1_555
Ga9 O61 2.213206 1_555
Ga10 O68 1.827146 1_555
Ga10 O70 1.994816 1_555
Ga10 O142 2.037699 1_555
Ga10 O66 2.094239 1_555
Ga10 O140 2.130076 1_555
Ga10 O138 2.205190 1_555
Ga11 O139 1.798707 1_555
Ga11 O141 2.018993 1_555
Ga11 O71 2.028938 1_555
Ga11 O67 2.038901 1_555
Ga11 O143 2.086348 1_555
Ga11 O69 2.181097 1_555
O0 Si0 1.621473 1_545
O1 Si1 1.642444 1_545
O1 Zr0 1.924990 1_555
O2 S0 1.470753 1_555
O2 Zr0 2.251679 1_565
O3 S1 1.477164 1_555
O4 S3 1.491480 1_555
O4 Zr0 2.125896 1_555
O5 S2 1.485244 1_655
O6 S4 1.489764 1_555
O6 Zr1 2.143298 1_545
O7 Si2 1.622668 1_555
O8 S6 1.478395 1_555
O9 S5 1.493378 1_655
O9 Zr1 2.120729 1_655
O10 S7 1.473676 1_545
O11 S8 1.480519 1_545
O11 Zr1 2.192013 1_645
O12 S7 1.477452 1_555
O12 Zr2 2.224741 1_565
O13 S8 1.483866 1_555
O14 S4 1.483374 1_555
O15 Si2 1.653906 1_555
O15 Zr2 1.924438 1_555
O16 S5 1.480167 1_555
O17 S6 1.468522 1_555
O17 Zr2 2.286077 1_565
O18 S0 1.481196 1_555
O19 S1 1.482550 1_555
O19 Zr3 2.161460 1_655
O20 S2 1.471485 1_555
O20 Zr3 2.291725 1_545
O21 S3 1.465247 1_555
O22 Si0 1.652815 1_555
O22 Zr3 1.917600 1_555
O23 Si1 1.626247 1_555
O24 Si3 1.660157 1_555
O24 Zr4 1.895520 1_555
O25 Si4 1.627590 1_555
O25 Zr5 1.979773 1_555
O26 S9 1.494164 1_555
O26 Zr4 2.123529 1_555
O27 S10 1.490608 1_555
O27 Zr5 2.099495 1_555
O28 S11 1.502286 1_555
O28 Zr4 2.108970 1_555
O29 S12 1.492567 1_555
O29 Zr5 2.100692 1_555
O30 Si5 1.617656 1_555
O30 Zr6 1.984972 1_555
O31 Si6 1.621264 1_555
O31 Zr7 1.976535 1_555
O32 S13 1.484699 1_555
O32 Zr6 2.124638 1_555
O33 S14 1.475417 1_555
O33 Zr7 2.162622 1_555
O34 S15 1.476566 1_555
O34 Zr6 2.132505 1_555
O35 S16 1.473249 1_555
O35 Zr7 2.166145 1_555
O36 S15 1.470762 1_555
O37 S16 1.497666 1_555
O38 Si5 1.625928 1_555
O39 Si6 1.618195 1_555
O40 S13 1.479826 1_555
O41 S14 1.484655 1_555
O42 S9 1.475768 1_555
O43 S10 1.461008 1_555
O44 S11 1.464990 1_555
O45 S12 1.459454 1_555
O46 Si3 1.599133 1_555
O47 Si4 1.617436 1_555
O48 S17 1.474424 1_555
O48 Zr8 2.343989 1_556
O49 S18 1.468059 1_555
O49 Zr9 2.262759 1_556
O50 S19 1.471861 1_555
O50 Zr8 2.207031 1_556
O51 S20 1.498877 1_555
O51 Zr9 2.134981 1_556
O52 Si7 1.614549 1_555
O52 Zr8 1.936736 1_556
O53 S21 1.491500 1_555
O53 Zr9 2.139526 1_556
O54 S22 1.481851 1_555
O54 Zr10 2.204892 1_555
O55 S23 1.485625 1_555
O55 Zr11 2.293241 1_555
O56 S24 1.499190 1_555
O56 Zr10 2.129371 1_555
O57 Si8 1.634291 1_555
O57 Zr11 1.907861 1_555
O58 S25 1.510248 1_555
O58 Zr10 2.099999 1_555
O59 S26 1.483834 1_555
O59 Zr11 2.158506 1_555
O60 S25 1.470807 1_555
O61 S26 1.460860 1_555
O62 S22 1.480378 1_555
O63 S23 1.466268 1_555
O64 S24 1.474961 1_555
O65 Si8 1.625250 1_555
O66 S19 1.488790 1_555
O67 S20 1.480692 1_555
O68 Si7 1.625273 1_555
O69 S21 1.483252 1_555
O70 S17 1.504512 1_555
O71 S18 1.479703 1_555
O72 S25 1.492543 1_555
O73 S26 1.479882 1_555
O73 Zr0 2.135719 1_565
O74 S22 1.465919 1_555
O74 Zr0 2.263953 1_565
O75 S23 1.519736 1_555
O76 S24 1.482087 1_555
O77 Si8 1.634908 1_555
O77 Zr0 1.928751 1_555
O78 S19 1.494323 1_555
O78 Zr1 2.087628 1_545
O79 S20 1.494135 1_555
O80 Si7 1.648048 1_555
O80 Zr1 1.901509 1_555
O81 S21 1.488285 1_555
O82 S17 1.514115 1_555
O83 S18 1.492570 1_555
O83 Zr1 2.112225 1_655
O84 Si3 1.625138 1_555
O84 Zr2 1.930266 1_555
O85 Si4 1.646501 1_555
O86 S9 1.477669 1_555
O87 S10 1.484396 1_555
O87 Zr2 2.115480 1_555
O88 S11 1.464211 1_555
O88 Zr2 2.247184 1_565
O89 S12 1.493938 1_555
O90 Si5 1.633717 1_555
O91 Si6 1.628081 1_555
O91 Zr3 1.938223 1_655
O92 S13 1.468142 1_555
O93 S14 1.460698 1_555
O93 Zr3 2.258564 1_645
O94 S15 1.477057 1_555
O94 Zr3 2.133713 1_545
O95 S16 1.461329 1_555
O96 S7 1.518009 1_545
O96 Zr4 2.154790 1_555
O97 S8 1.495199 1_545
O97 Zr5 2.166484 1_555
O98 S4 1.503994 1_555
O98 Zr4 2.239440 1_555
O99 Si2 1.649782 1_555
O99 Zr5 2.052778 1_555
O100 S6 1.524103 1_555
O100 Zr4 2.141840 1_555
O101 S5 1.496293 1_655
O101 Zr5 2.160915 1_555
O102 S0 1.502107 1_555
O102 Zr6 2.150880 1_555
O103 S1 1.504525 1_555
O103 Zr7 2.139585 1_555
O104 S3 1.515572 1_555
O104 Zr6 2.094173 1_555
O105 S2 1.503566 1_655
O105 Zr7 2.140010 1_555
O106 Si0 1.646384 1_545
O106 Zr6 2.042880 1_555
O107 Si1 1.655631 1_545
O107 Zr7 2.003526 1_555
O108 S17 1.475560 1_555
O109 S18 1.491660 1_555
O110 S20 1.468627 1_555
O111 S19 1.484718 1_655
O112 Si7 1.627111 1_545
O113 S21 1.503341 1_545
O114 S22 1.508241 1_545
O115 S23 1.493305 1_545
O116 S24 1.506574 1_555
O117 Si8 1.644149 1_555
O118 S26 1.507686 1_555
O119 S25 1.470977 1_655
O120 S15 1.467352 1_555
O120 Zr8 2.148787 1_555
O121 S16 1.494422 1_555
O121 Zr9 2.086592 1_555
O122 Si6 1.632450 1_455
O122 Zr8 1.923665 1_555
O123 Si5 1.661579 1_555
O123 Zr9 1.894653 1_555
O124 S13 1.488124 1_565
O124 Zr8 2.100579 1_555
O125 S14 1.488436 1_565
O125 Zr9 2.090605 1_555
O126 S9 1.485340 1_565
O126 Zr10 2.132787 1_555
O127 S10 1.463222 1_565
O127 Zr11 2.181990 1_555
O128 S11 1.481083 1_555
O128 Zr10 2.117621 1_555
O129 S12 1.476638 1_555
O129 Zr11 2.144008 1_555
O130 Si4 1.653329 1_455
O130 Zr10 1.912975 1_555
O131 Si3 1.613777 1_555
O131 Zr11 1.958336 1_555
O132 Si0 1.608019 1_555
O133 Si1 1.609838 1_555
O134 S0 1.475107 1_555
O135 S1 1.457905 1_555
O136 S2 1.467771 1_555
O137 S3 1.461319 1_555
O138 S4 1.471560 1_555
O139 Si2 1.610647 1_555
O140 S5 1.471369 1_555
O141 S6 1.467107 1_555
O142 S7 1.472836 1_555
O143 S8 1.468865 1_555
