# generated using pymatgen
data_CeGeIr
_symmetry_space_group_name_H-M   'P 1'
_cell_length_a   4.40330992
_cell_length_b   7.09649711
_cell_length_c   7.55140912
_cell_angle_alpha   89.99373416
_cell_angle_beta   89.99993598
_cell_angle_gamma   90.00002405
_symmetry_Int_Tables_number   1
_chemical_formula_structural   CeGeIr
_chemical_formula_sum   'Ce4 Ge4 Ir4'
_cell_volume   235.96700566
_cell_formula_units_Z   4
loop_
 _symmetry_equiv_pos_site_id
 _symmetry_equiv_pos_as_xyz
  1  'x, y, z'
loop_
 _atom_site_type_symbol
 _atom_site_label
 _atom_site_symmetry_multiplicity
 _atom_site_fract_x
 _atom_site_fract_y
 _atom_site_fract_z
 _atom_site_occupancy
  Ce  Ce0  1  0.74999993  0.51603443  0.19953436  1
  Ce  Ce1  1  0.25000096  0.98399074  0.69953892  1
  Ce  Ce2  1  0.74999904  0.01600926  0.30046108  1
  Ce  Ce3  1  0.25000007  0.48396557  0.80046564  1
  Ge  Ge0  1  0.24999995  0.82388982  0.08317735  1
  Ge  Ge1  1  0.24999951  0.32400207  0.41690188  1
  Ge  Ge2  1  0.75000005  0.17611018  0.91682265  1
  Ge  Ge3  1  0.75000049  0.67599793  0.58309812  1
  Ir  Ir0  1  0.24999923  0.21281888  0.08950432  1
  Ir  Ir1  1  0.25000021  0.71279258  0.41054597  1
  Ir  Ir2  1  0.74999979  0.28720742  0.58945403  1
  Ir  Ir3  1  0.75000077  0.78718112  0.91049568  1
loop_
_geom_bond_atom_site_label_1
_geom_bond_atom_site_label_2
_geom_bond_distance
_geom_bond_site_symmetry_2
Ce0 Ir3 2.909562 1_554
Ce0 Ir1 3.055557 1_555
Ce0 Ir1 3.055561 1_655
Ce0 Ge1 3.065648 1_555
Ce0 Ge1 3.065648 1_655
Ce0 Ge3 3.111070 1_555
Ce0 Ir0 3.188751 1_655
Ce0 Ir0 3.188755 1_555
Ce0 Ge2 3.221468 1_554
Ce0 Ge0 3.223630 1_655
Ce0 Ge0 3.223633 1_555
Ce0 Ir2 3.362388 1_555
Ce1 Ir1 2.909861 1_555
Ce1 Ir3 3.055350 1_455
Ce1 Ir3 3.055352 1_555
Ce1 Ge2 3.065742 1_565
Ce1 Ge2 3.065746 1_465
Ce1 Ge0 3.111720 1_556
Ce1 Ir2 3.188739 1_565
Ce1 Ir2 3.188749 1_465
Ce1 Ge1 3.221208 1_565
Ce1 Ge3 3.224594 1_555
Ce1 Ge3 3.224597 1_455
Ce1 Ir0 3.363005 1_566
Ce2 Ir2 2.909861 1_555
Ce2 Ir0 3.055350 1_655
Ce2 Ir0 3.055352 1_555
Ce2 Ge0 3.065742 1_545
Ce2 Ge0 3.065746 1_645
Ce2 Ge2 3.111720 1_554
Ce2 Ir1 3.188739 1_545
Ce2 Ir1 3.188749 1_645
Ce2 Ge3 3.221208 1_545
Ce2 Ge1 3.224594 1_555
Ce2 Ge1 3.224597 1_655
Ce2 Ir3 3.363005 1_544
Ce3 Ir0 2.909562 1_556
Ce3 Ir2 3.055557 1_555
Ce3 Ir2 3.055561 1_455
Ce3 Ge3 3.065648 1_555
Ce3 Ge3 3.065648 1_455
Ce3 Ge1 3.111070 1_555
Ce3 Ir3 3.188751 1_455
Ce3 Ir3 3.188755 1_555
Ce3 Ge0 3.221468 1_556
Ce3 Ge2 3.223630 1_455
Ce3 Ge2 3.223633 1_555
Ce3 Ir1 3.362388 1_555
Ge0 Ir3 2.572081 1_454
Ge0 Ir3 2.572085 1_554
Ge0 Ir1 2.594687 1_555
Ge0 Ir0 2.760453 1_565
Ge1 Ir2 2.571618 1_455
Ge1 Ir2 2.571623 1_555
Ge1 Ir0 2.595245 1_555
Ge1 Ir1 2.759463 1_555
Ge2 Ir0 2.572081 1_656
Ge2 Ir0 2.572085 1_556
Ge2 Ir2 2.594687 1_555
Ge2 Ir3 2.760453 1_545
Ge3 Ir1 2.571618 1_655
Ge3 Ir1 2.571623 1_555
Ge3 Ir3 2.595245 1_555
Ge3 Ir2 2.759463 1_555
