# generated using pymatgen
data_MgV2In2O8
_symmetry_space_group_name_H-M   'P 1'
_cell_length_a   5.24630365
_cell_length_b   5.01494199
_cell_length_c   6.26784199
_cell_angle_alpha   90.00000000
_cell_angle_beta   90.00000000
_cell_angle_gamma   100.59197637
_symmetry_Int_Tables_number   1
_chemical_formula_structural   MgV2In2O8
_chemical_formula_sum   'Mg1 V2 In2 O8'
_cell_volume   162.09652611
_cell_formula_units_Z   1
loop_
 _symmetry_equiv_pos_site_id
 _symmetry_equiv_pos_as_xyz
  1  'x, y, z'
loop_
 _atom_site_type_symbol
 _atom_site_label
 _atom_site_symmetry_multiplicity
 _atom_site_fract_x
 _atom_site_fract_y
 _atom_site_fract_z
 _atom_site_occupancy
  Mg  Mg0  1  0.00000000  0.25000000  0.58346398  1
  V  V0  1  0.00000000  0.25000000  0.12822225  1
  V  V1  1  0.00000000  0.75000000  0.85068796  1
  In  In0  1  0.50000000  0.25000000  0.85052437  1
  In  In1  1  0.50000000  0.75000000  0.42498994  1
  O  O0  1  0.81059388  0.02875323  0.85325259  1
  O  O1  1  0.18940612  0.47124677  0.85325259  1
  O  O2  1  0.21899618  0.99611903  0.06647516  1
  O  O3  1  0.78100382  0.50388097  0.06647516  1
  O  O4  1  0.78714643  0.06506773  0.34339719  1
  O  O5  1  0.21285357  0.43493227  0.34339719  1
  O  O6  1  0.25740722  0.95884553  0.63563930  1
  O  O7  1  0.74259278  0.54115447  0.63563930  1
loop_
_geom_bond_atom_site_label_1
_geom_bond_atom_site_label_2
_geom_bond_distance
_geom_bond_site_symmetry_2
Mg0 O4 1.997627 1_455
Mg0 O5 1.997627 1_555
Mg0 O1 2.161624 1_555
Mg0 O0 2.161624 1_455
Mg0 O6 2.188029 1_545
Mg0 O7 2.188029 1_455
In0 O1 2.133354 1_555
In0 O0 2.133354 1_555
In0 O6 2.209670 1_545
In0 O7 2.209670 1_555
In0 O2 2.221811 1_546
In0 O3 2.221811 1_556
In1 O5 2.037756 1_555
In1 O4 2.037756 1_565
In1 O6 2.224864 1_555
In1 O7 2.224864 1_555
O0 V1 1.858103 1_645
O0 V0 2.187121 1_656
O1 V1 1.858103 1_555
O1 V0 2.187121 1_556
O2 V0 1.904890 1_565
O2 V1 2.037506 1_554
O3 V0 1.904890 1_655
O3 V1 2.037506 1_654
O4 V0 1.882906 1_655
O5 V0 1.882906 1_555
O6 V1 2.053646 1_555
O7 V1 2.053646 1_655
