# generated using pymatgen
data_CeTl3
_symmetry_space_group_name_H-M   'P 1'
_cell_length_a   4.80610781
_cell_length_b   4.80613631
_cell_length_c   4.80612364
_cell_angle_alpha   90.00000000
_cell_angle_beta   90.00000000
_cell_angle_gamma   90.00000000
_symmetry_Int_Tables_number   1
_chemical_formula_structural   CeTl3
_chemical_formula_sum   'Ce1 Tl3'
_cell_volume   111.01573322
_cell_formula_units_Z   1
loop_
 _symmetry_equiv_pos_site_id
 _symmetry_equiv_pos_as_xyz
  1  'x, y, z'
loop_
 _atom_site_type_symbol
 _atom_site_label
 _atom_site_symmetry_multiplicity
 _atom_site_fract_x
 _atom_site_fract_y
 _atom_site_fract_z
 _atom_site_occupancy
  Ce  Ce0  1  -0.00000000  -0.00000000  -0.00000000  1
  Tl  Tl0  1  0.00000000  0.50000000  0.50000000  1
  Tl  Tl1  1  0.50000000  0.50000000  -0.00000000  1
  Tl  Tl2  1  0.50000000  0.00000000  0.50000000  1
loop_
_geom_bond_atom_site_label_1
_geom_bond_atom_site_label_2
_geom_bond_distance
_geom_bond_site_symmetry_2
Ce0 Tl2 3.398437 1_554
Ce0 Tl2 3.398437 1_454
Ce0 Tl2 3.398437 1_455
Ce0 Tl2 3.398437 1_555
Ce0 Tl1 3.398441 1_455
Ce0 Tl1 3.398441 1_545
Ce0 Tl1 3.398441 1_555
Ce0 Tl1 3.398441 1_445
Ce0 Tl0 3.398447 1_544
Ce0 Tl0 3.398447 1_545
Ce0 Tl0 3.398447 1_554
Ce0 Tl0 3.398447 1_555
Tl0 Tl1 3.398437 1_456
Tl0 Tl1 3.398437 1_556
Tl0 Tl1 3.398437 1_455
Tl0 Tl1 3.398437 1_555
Tl0 Tl2 3.398441 1_455
Tl0 Tl2 3.398441 1_555
Tl0 Tl2 3.398441 1_465
Tl0 Tl2 3.398441 1_565
Tl1 Tl2 3.398447 1_555
Tl1 Tl2 3.398447 1_554
Tl1 Tl2 3.398447 1_565
Tl1 Tl2 3.398447 1_564
