# generated using pymatgen
data_Na3NbSi3GeO12
_symmetry_space_group_name_H-M   'P 1'
_cell_length_a   15.53360522
_cell_length_b   8.88085244
_cell_length_c   8.92041858
_cell_angle_alpha   90.00000000
_cell_angle_beta   125.01204654
_cell_angle_gamma   90.00000000
_symmetry_Int_Tables_number   1
_chemical_formula_structural   Na3NbSi3GeO12
_chemical_formula_sum   'Na12 Nb4 Si12 Ge4 O48'
_cell_volume   1007.88903363
_cell_formula_units_Z   4
loop_
 _symmetry_equiv_pos_site_id
 _symmetry_equiv_pos_as_xyz
  1  'x, y, z'
loop_
 _atom_site_type_symbol
 _atom_site_label
 _atom_site_symmetry_multiplicity
 _atom_site_fract_x
 _atom_site_fract_y
 _atom_site_fract_z
 _atom_site_occupancy
  Na  Na0  1  0.24919078  0.72776274  0.99219396  1
  Na  Na1  1  0.74919078  0.77223726  0.49219396  1
  Na  Na2  1  0.74919078  0.22776274  0.99219396  1
  Na  Na3  1  0.24919078  0.27223726  0.49219396  1
  Na  Na4  1  0.49600643  0.11218108  0.74357903  1
  Na  Na5  1  0.49600643  0.88781892  0.24357903  1
  Na  Na6  1  0.99600643  0.61218108  0.74357903  1
  Na  Na7  1  0.99600643  0.38781892  0.24357903  1
  Na  Na8  1  0.19167760  0.94215072  0.28060863  1
  Na  Na9  1  0.19167760  0.05784928  0.78060863  1
  Na  Na10  1  0.69167760  0.44215072  0.28060863  1
  Na  Na11  1  0.69167760  0.55784928  0.78060863  1
  Nb  Nb0  1  0.89215875  0.75450393  0.92916339  1
  Nb  Nb1  1  0.89215875  0.24549607  0.42916339  1
  Nb  Nb2  1  0.39215875  0.25450393  0.92916339  1
  Nb  Nb3  1  0.39215875  0.74549607  0.42916339  1
  Si  Si0  1  0.00556863  0.96066340  0.75866885  1
  Si  Si1  1  0.00556863  0.03933660  0.25866885  1
  Si  Si2  1  0.50556863  0.46066340  0.75866885  1
  Si  Si3  1  0.50556863  0.53933660  0.25866885  1
  Si  Si4  1  0.35380875  0.87862668  0.75924918  1
  Si  Si5  1  0.64074635  0.89945252  0.74931358  1
  Si  Si6  1  0.64074635  0.10054748  0.24931358  1
  Si  Si7  1  0.35380875  0.12137332  0.25924918  1
  Si  Si8  1  0.85380875  0.37862668  0.75924918  1
  Si  Si9  1  0.14074635  0.39945252  0.74931358  1
  Si  Si10  1  0.14074635  0.60054748  0.24931358  1
  Si  Si11  1  0.85380875  0.62137332  0.25924918  1
  Ge  Ge0  1  0.10495702  0.74814046  0.56660558  1
  Ge  Ge1  1  0.10495702  0.25185954  0.06660558  1
  Ge  Ge2  1  0.60495702  0.24814046  0.56660558  1
  Ge  Ge3  1  0.60495702  0.75185954  0.06660558  1
  O  O0  1  0.14346706  0.58197075  0.73590575  1
  O  O1  1  0.84626310  0.56576937  0.76479265  1
  O  O2  1  0.84626310  0.43423063  0.26479265  1
  O  O3  1  0.14346706  0.41802925  0.23590575  1
  O  O4  1  0.64346706  0.08197075  0.73590575  1
  O  O5  1  0.34626310  0.06576937  0.76479265  1
  O  O6  1  0.34626310  0.93423063  0.26479265  1
  O  O7  1  0.64346706  0.91802925  0.23590575  1
  O  O8  1  0.43727044  0.56985599  0.57876032  1
  O  O9  1  0.57939562  0.56431589  0.94132613  1
  O  O10  1  0.57939562  0.43568411  0.44132613  1
  O  O11  1  0.43727044  0.43014401  0.07876032  1
  O  O12  1  0.93727044  0.06985599  0.57876032  1
  O  O13  1  0.07939562  0.06431589  0.94132613  1
  O  O14  1  0.07939562  0.93568411  0.44132613  1
  O  O15  1  0.93727044  0.93014401  0.07876032  1
  O  O16  1  0.25038874  0.81213701  0.74025268  1
  O  O17  1  0.73852048  0.81531382  0.76040781  1
  O  O18  1  0.73852048  0.18468618  0.26040781  1
  O  O19  1  0.25038874  0.18786299  0.24025268  1
  O  O20  1  0.75038874  0.31213701  0.74025268  1
  O  O21  1  0.23852048  0.31531382  0.76040781  1
  O  O22  1  0.23852048  0.68468618  0.26040781  1
  O  O23  1  0.75038874  0.68786299  0.24025268  1
  O  O24  1  0.35374033  0.85447018  0.57618500  1
  O  O25  1  0.63421732  0.86154129  0.92156362  1
  O  O26  1  0.63421732  0.13845871  0.42156362  1
  O  O27  1  0.35374033  0.14552982  0.07618500  1
  O  O28  1  0.85374033  0.35447018  0.57618500  1
  O  O29  1  0.13421732  0.36154129  0.92156362  1
  O  O30  1  0.13421732  0.63845871  0.42156362  1
  O  O31  1  0.85374033  0.64552982  0.07618500  1
  O  O32  1  0.46178588  0.81572594  0.94245137  1
  O  O33  1  0.53506759  0.83184652  0.56088628  1
  O  O34  1  0.53506759  0.16815348  0.06088628  1
  O  O35  1  0.46178588  0.18427406  0.44245137  1
  O  O36  1  0.96178588  0.31572594  0.94245137  1
  O  O37  1  0.03506759  0.33184652  0.56088628  1
  O  O38  1  0.03506759  0.66815348  0.06088628  1
  O  O39  1  0.96178588  0.68427406  0.44245137  1
  O  O40  1  0.08667570  0.85412488  0.74409187  1
  O  O41  1  0.91909341  0.85036559  0.75399430  1
  O  O42  1  0.91909341  0.14963441  0.25399430  1
  O  O43  1  0.08667570  0.14587512  0.24409187  1
  O  O44  1  0.58667570  0.35412488  0.74409187  1
  O  O45  1  0.41909341  0.35036559  0.75399430  1
  O  O46  1  0.41909341  0.64963441  0.25399430  1
  O  O47  1  0.58667570  0.64587512  0.24409187  1
loop_
_geom_bond_atom_site_label_1
_geom_bond_atom_site_label_2
_geom_bond_distance
_geom_bond_site_symmetry_2
Na0 O0 2.300393 1_555
Na0 O16 2.379226 1_555
Na0 O46 2.414154 1_556
Na0 O40 2.473701 1_555
Na0 O22 2.520579 1_556
Na0 O6 2.709509 1_556
Na1 O7 2.300393 1_555
Na1 O23 2.379226 1_555
Na1 O41 2.414154 1_555
Na1 O47 2.473701 1_555
Na1 O17 2.520579 1_555
Na1 O1 2.709509 1_555
Na2 O4 2.300393 1_555
Na2 O20 2.379226 1_555
Na2 O42 2.414154 1_556
Na2 O44 2.473701 1_555
Na2 O18 2.520579 1_556
Na2 O2 2.709509 1_556
Na3 O3 2.300393 1_555
Na3 O19 2.379226 1_555
Na3 O45 2.414154 1_555
Na3 O43 2.473701 1_555
Na3 O21 2.520579 1_555
Na3 O5 2.709509 1_555
Na4 O4 2.345934 1_555
Na4 O45 2.457197 1_555
Na4 O5 2.474130 1_555
Na4 O35 2.503911 1_555
Na4 O44 2.567693 1_555
Na4 O34 2.579979 1_556
Na4 O25 2.858883 1_545
Na4 O24 2.926586 1_545
Na5 O7 2.345934 1_555
Na5 O46 2.457197 1_555
Na5 O6 2.474130 1_555
Na5 O32 2.503911 1_554
Na5 O47 2.567693 1_555
Na5 O33 2.579979 1_555
Na5 O26 2.858883 1_565
Na5 O27 2.926586 1_565
Na6 O0 2.345934 1_655
Na6 O41 2.457197 1_555
Na6 O1 2.474130 1_555
Na6 O39 2.503911 1_555
Na6 O40 2.567693 1_655
Na6 O38 2.579979 1_656
Na6 O29 2.858883 1_655
Na6 O28 2.926586 1_555
Na7 O3 2.345934 1_655
Na7 O42 2.457197 1_555
Na7 O2 2.474130 1_555
Na7 O36 2.503911 1_554
Na7 O43 2.567693 1_655
Na7 O37 2.579979 1_655
Na7 O30 2.858883 1_655
Na7 O31 2.926586 1_555
Na8 O43 2.330270 1_565
Na8 O22 2.437313 1_555
Na8 O19 2.469773 1_565
Na8 O6 2.485901 1_555
Na8 O24 2.505818 1_555
Na8 O13 2.705873 1_564
Na8 O14 2.823133 1_555
Na9 O40 2.330270 1_545
Na9 O21 2.437313 1_555
Na9 O16 2.469773 1_545
Na9 O5 2.485901 1_555
Na9 O27 2.505818 1_556
Na9 O14 2.705873 1_545
Na9 O13 2.823133 1_555
Na10 O47 2.330270 1_555
Na10 O18 2.437313 1_555
Na10 O23 2.469773 1_555
Na10 O2 2.485901 1_555
Na10 O28 2.505818 1_555
Na10 O9 2.705873 1_554
Na10 O10 2.823133 1_555
Na11 O44 2.330270 1_555
Na11 O17 2.437313 1_555
Na11 O20 2.469773 1_555
Na11 O1 2.485901 1_555
Na11 O31 2.505818 1_556
Na11 O10 2.705873 1_555
Na11 O9 2.823133 1_555
Nb0 O15 1.905749 1_556
Nb0 O38 1.975731 1_656
Nb0 O31 1.977593 1_556
Nb0 O41 2.022791 1_555
Nb0 O17 2.032457 1_555
Nb0 O1 2.065925 1_555
Nb1 O12 1.905749 1_555
Nb1 O37 1.975731 1_655
Nb1 O28 1.977593 1_555
Nb1 O42 2.022791 1_555
Nb1 O18 2.032457 1_555
Nb1 O2 2.065925 1_555
Nb2 O11 1.905749 1_556
Nb2 O34 1.975731 1_556
Nb2 O27 1.977593 1_556
Nb2 O45 2.022791 1_555
Nb2 O21 2.032457 1_555
Nb2 O5 2.065925 1_555
Nb3 O8 1.905749 1_555
Nb3 O33 1.975731 1_555
Nb3 O24 1.977593 1_555
Nb3 O46 2.022791 1_555
Nb3 O22 2.032457 1_555
Nb3 O6 2.065925 1_555
Ge0 O30 1.871954 1_555
Ge0 O39 1.915187 1_455
Ge0 O14 1.916098 1_555
Ge0 O0 1.944155 1_555
Ge0 O16 1.952025 1_555
Ge0 O40 1.997289 1_555
Ge1 O29 1.871954 1_554
Ge1 O36 1.915187 1_454
Ge1 O13 1.916098 1_554
Ge1 O3 1.944155 1_555
Ge1 O19 1.952025 1_555
Ge1 O43 1.997289 1_555
Ge2 O26 1.871954 1_555
Ge2 O35 1.915187 1_555
Ge2 O10 1.916098 1_555
Ge2 O4 1.944155 1_555
Ge2 O20 1.952025 1_555
Ge2 O44 1.997289 1_555
Ge3 O25 1.871954 1_554
Ge3 O32 1.915187 1_554
Ge3 O9 1.916098 1_554
Ge3 O7 1.944155 1_555
Ge3 O23 1.952025 1_555
Ge3 O47 1.997289 1_555
O0 Si9 1.627656 1_555
O1 Si8 1.668842 1_555
O2 Si11 1.668842 1_555
O3 Si10 1.627656 1_555
O4 Si5 1.627656 1_545
O5 Si4 1.668842 1_545
O6 Si7 1.668842 1_565
O7 Si6 1.627656 1_565
O8 Si2 1.639429 1_555
O9 Si2 1.634995 1_555
O10 Si3 1.634995 1_555
O11 Si3 1.639429 1_555
O12 Si0 1.639429 1_645
O13 Si0 1.634995 1_545
O14 Si1 1.634995 1_565
O15 Si1 1.639429 1_665
O16 Si4 1.626592 1_555
O17 Si5 1.643888 1_555
O18 Si6 1.643888 1_555
O19 Si7 1.626592 1_555
O20 Si8 1.626592 1_555
O21 Si9 1.643888 1_555
O22 Si10 1.643888 1_555
O23 Si11 1.626592 1_555
O24 Si4 1.646436 1_555
O25 Si5 1.632000 1_555
O26 Si6 1.632000 1_555
O27 Si7 1.646436 1_555
O28 Si8 1.646436 1_555
O29 Si9 1.632000 1_555
O30 Si10 1.632000 1_555
O31 Si11 1.646436 1_555
O32 Si4 1.628087 1_555
O33 Si5 1.647507 1_555
O34 Si6 1.647507 1_555
O35 Si7 1.628087 1_555
O36 Si8 1.628087 1_555
O37 Si9 1.647507 1_555
O38 Si10 1.647507 1_555
O39 Si11 1.628087 1_555
O40 Si0 1.639334 1_555
O41 Si0 1.643575 1_655
O42 Si1 1.643575 1_655
O43 Si1 1.639334 1_555
O44 Si2 1.639334 1_555
O45 Si2 1.643575 1_555
O46 Si3 1.643575 1_555
O47 Si3 1.639334 1_555
