# generated using pymatgen
data_MgFe8(OF)8
_symmetry_space_group_name_H-M   'P 1'
_cell_length_a   5.17032065
_cell_length_b   5.09024618
_cell_length_c   11.84688420
_cell_angle_alpha   91.66905898
_cell_angle_beta   92.19588555
_cell_angle_gamma   85.48246935
_symmetry_Int_Tables_number   1
_chemical_formula_structural   MgFe8(OF)8
_chemical_formula_sum   'Mg1 Fe8 O8 F8'
_cell_volume   310.48514774
_cell_formula_units_Z   1
loop_
 _symmetry_equiv_pos_site_id
 _symmetry_equiv_pos_as_xyz
  1  'x, y, z'
loop_
 _atom_site_type_symbol
 _atom_site_label
 _atom_site_symmetry_multiplicity
 _atom_site_fract_x
 _atom_site_fract_y
 _atom_site_fract_z
 _atom_site_occupancy
  Mg  Mg0  1  0.51802800  0.98810600  0.13923100  1
  Fe  Fe0  1  0.94825800  0.94551100  0.99085100  1
  Fe  Fe1  1  0.05582400  0.07434400  0.26849700  1
  Fe  Fe2  1  0.93351600  0.89060100  0.50195200  1
  Fe  Fe3  1  0.09262900  0.05858500  0.74781900  1
  Fe  Fe4  1  0.57007200  0.47093900  0.12471100  1
  Fe  Fe5  1  0.46483000  0.52665900  0.62646900  1
  Fe  Fe6  1  0.46268400  0.54330400  0.87807400  1
  Fe  Fe7  1  0.44430800  0.51945000  0.37578700  1
  O  O0  1  0.15139700  0.77796700  0.37714300  1
  O  O1  1  0.17910700  0.80723400  0.62728500  1
  O  O2  1  0.17857800  0.81864300  0.87442200  1
  O  O3  1  0.37297800  0.28509100  0.24517100  1
  O  O4  1  0.33163600  0.32708600  0.75151500  1
  O  O5  1  0.66457100  0.72390600  0.00302600  1
  O  O6  1  0.65384500  0.66605900  0.50399700  1
  O  O7  1  0.84555100  0.16412500  0.12090200  1
  F  F0  1  0.21193600  0.78759000  0.11594800  1
  F  F1  1  0.35746100  0.28425700  0.99440800  1
  F  F2  1  0.31018600  0.31297200  0.50085900  1
  F  F3  1  0.64476700  0.73122600  0.25972300  1
  F  F4  1  0.66162800  0.69052000  0.75631600  1
  F  F5  1  0.80285700  0.18566700  0.39865500  1
  F  F6  1  0.81251900  0.17980300  0.63227100  1
  F  F7  1  0.83083400  0.21257600  0.87246800  1
loop_
_geom_bond_atom_site_label_1
_geom_bond_atom_site_label_2
_geom_bond_distance
_geom_bond_site_symmetry_2
Mg0 O7 1.999013 1_565
Mg0 O3 2.050838 1_565
Mg0 O5 2.189328 1_555
Fe0 O2 1.921062 1_655
Fe0 O5 1.931562 1_556
Fe0 O7 1.940052 1_566
Fe1 O0 2.030704 1_545
Fe1 O3 2.060381 1_555
Fe1 O7 2.066595 1_455
Fe2 O6 1.913768 1_555
Fe2 O0 1.939205 1_655
Fe2 O1 1.950492 1_655
Fe3 O4 1.911902 1_555
Fe3 O1 1.930883 1_545
Fe3 O2 1.977093 1_545
Fe4 O7 2.029829 1_555
Fe4 O5 2.058201 1_555
Fe4 O3 2.076504 1_555
Fe5 O6 1.959993 1_555
Fe5 O1 1.972339 1_555
Fe5 O4 1.994207 1_555
Fe6 O2 1.948915 1_555
Fe6 O4 1.965172 1_555
Fe6 O5 2.019761 1_556
Fe7 O0 1.926689 1_555
Fe7 O3 1.967637 1_555
Fe7 O6 1.993209 1_555
F0 Mg0 1.956290 1_555
F0 Fe0 2.107856 1_454
F0 Fe4 2.358463 1_555
F0 Fe1 2.412606 1_565
F1 Fe6 2.051942 1_555
F1 Fe4 2.107938 1_556
F1 Mg0 2.397854 1_546
F2 Fe5 1.997089 1_555
F2 Fe7 2.016252 1_555
F3 Mg0 2.019620 1_555
F3 Fe4 2.091101 1_555
F3 Fe7 2.120953 1_555
F4 Fe6 1.999584 1_555
F4 Fe5 2.009068 1_555
F5 Fe2 2.023286 1_545
F5 Fe1 2.096740 1_655
F5 Fe7 2.426707 1_555
F6 Fe3 2.026951 1_655
F6 Fe2 2.176825 1_545
F6 Fe5 2.418929 1_555
F7 Fe0 2.024686 1_545
F7 Fe3 2.132092 1_655
F7 Fe6 2.441323 1_555
