# generated using pymatgen
data_Hf3MgSiS5O24
_symmetry_space_group_name_H-M   'P 1'
_cell_length_a   8.89090960
_cell_length_b   8.88520692
_cell_length_c   22.91668397
_cell_angle_alpha   89.79549956
_cell_angle_beta   89.89033505
_cell_angle_gamma   120.00554946
_symmetry_Int_Tables_number   1
_chemical_formula_structural   Hf3MgSiS5O24
_chemical_formula_sum   'Hf9 Mg3 Si3 S15 O72'
_cell_volume   1567.70784509
_cell_formula_units_Z   3
loop_
 _symmetry_equiv_pos_site_id
 _symmetry_equiv_pos_as_xyz
  1  'x, y, z'
loop_
 _atom_site_type_symbol
 _atom_site_label
 _atom_site_symmetry_multiplicity
 _atom_site_fract_x
 _atom_site_fract_y
 _atom_site_fract_z
 _atom_site_occupancy
  Hf  Hf0  1  0.00803802  0.00831685  0.85766457  1
  Hf  Hf1  1  0.99218030  0.99230106  0.64466357  1
  Hf  Hf2  1  0.00063892  0.00119165  0.14464743  1
  Hf  Hf3  1  0.66580361  0.32740919  0.97361371  1
  Hf  Hf4  1  0.67011576  0.34558587  0.48042771  1
  Hf  Hf5  1  0.32263271  0.66324531  0.01875012  1
  Hf  Hf6  1  0.34019090  0.66768521  0.52497727  1
  Hf  Hf7  1  0.33354261  0.66735110  0.30938533  1
  Hf  Hf8  1  0.32513231  0.66982363  0.81167563  1
  Mg  Mg0  1  0.99896485  0.99933578  0.35378376  1
  Mg  Mg1  1  0.66280434  0.33967933  0.68965640  1
  Mg  Mg2  1  0.66630072  0.33354348  0.18758015  1
  Si  Si0  1  0.66820539  0.61817946  0.58715803  1
  Si  Si1  1  0.04628555  0.37902783  0.91623299  1
  Si  Si2  1  0.33166674  0.95273758  0.91580996  1
  S  S0  1  0.29071976  0.00604206  0.25095966  1
  S  S1  1  0.71491755  0.70910889  0.25100429  1
  S  S2  1  0.99433557  0.28526095  0.25101689  1
  S  S3  1  0.29328593  0.28937768  0.74901045  1
  S  S4  1  0.99479860  0.70670478  0.74959696  1
  S  S5  1  0.71048251  0.00438192  0.74940735  1
  S  S6  1  0.95276604  0.33279028  0.58454646  1
  S  S7  1  0.38055525  0.04790422  0.58458651  1
  S  S8  1  0.95254634  0.61936881  0.08548838  1
  S  S9  1  0.66529300  0.04556197  0.08537865  1
  S  S10  1  0.38215539  0.33602148  0.08552768  1
  S  S11  1  0.62050902  0.66764207  0.91627650  1
  S  S12  1  0.62490088  0.95538924  0.41580969  1
  S  S13  1  0.32831254  0.37417647  0.41598284  1
  S  S14  1  0.04592434  0.67079677  0.41584323  1
  O  O0  1  0.20728776  0.02751283  0.30250359  1
  O  O1  1  0.81976660  0.79215707  0.30235145  1
  O  O2  1  0.97218363  0.17956514  0.30255913  1
  O  O3  1  0.20362388  0.17819889  0.80125764  1
  O  O4  1  0.97106875  0.79156717  0.80117404  1
  O  O5  1  0.81866154  0.02605138  0.80111096  1
  O  O6  1  0.79774572  0.97610109  0.69710518  1
  O  O7  1  0.17909408  0.20632475  0.69741949  1
  O  O8  1  0.02803547  0.82318448  0.69741721  1
  O  O9  1  0.79419491  0.82437536  0.19801708  1
  O  O10  1  0.03005321  0.20616857  0.19816273  1
  O  O11  1  0.17614499  0.97021505  0.19819452  1
  O  O12  1  0.87674646  0.36189871  0.63579354  1
  O  O13  1  0.48783266  0.11860057  0.63557094  1
  O  O14  1  0.63216404  0.49642248  0.64085136  1
  O  O15  1  0.87327017  0.51369310  0.13734692  1
  O  O16  1  0.63990438  0.12556154  0.13693820  1
  O  O17  1  0.48589140  0.35816947  0.13728566  1
  O  O18  1  0.45568701  0.30356225  0.03259464  1
  O  O19  1  0.84725274  0.54725510  0.03275189  1
  O  O20  1  0.69910870  0.15484925  0.03259448  1
  O  O21  1  0.46157426  0.15417074  0.53039989  1
  O  O22  1  0.69696916  0.53270618  0.52607156  1
  O  O23  1  0.84471817  0.30224384  0.53057136  1
  O  O24  1  0.54302360  0.69673711  0.96956280  1
  O  O25  1  0.16671766  0.46412783  0.97403192  1
  O  O26  1  0.30585254  0.83627572  0.97413618  1
  O  O27  1  0.53677491  0.84399813  0.46789431  1
  O  O28  1  0.30450506  0.46056314  0.46783391  1
  O  O29  1  0.15275236  0.69328472  0.46791403  1
  O  O30  1  0.13138205  0.64030060  0.36372146  1
  O  O31  1  0.50878285  0.86838868  0.36395969  1
  O  O32  1  0.36156833  0.49094117  0.36397485  1
  O  O33  1  0.13792434  0.49955322  0.85932374  1
  O  O34  1  0.37021104  0.86701408  0.85937473  1
  O  O35  1  0.51247489  0.63563691  0.86417095  1
  O  O36  1  0.02397367  0.81950681  0.40610636  1
  O  O37  1  0.79367529  0.97206456  0.40657917  1
  O  O38  1  0.17795300  0.20464213  0.40676677  1
  O  O39  1  0.01773079  0.18705065  0.90653843  1
  O  O40  1  0.16084740  0.96858921  0.90601797  1
  O  O41  1  0.79346051  0.81990667  0.90729954  1
  O  O42  1  0.97892900  0.18150018  0.59150880  1
  O  O43  1  0.20632397  0.02894456  0.59185879  1
  O  O44  1  0.83627089  0.81468978  0.59288274  1
  O  O45  1  0.97627797  0.79899304  0.09468942  1
  O  O46  1  0.82438177  0.02662070  0.09446384  1
  O  O47  1  0.20266064  0.17824352  0.09475777  1
  O  O48  1  0.69210641  0.15537846  0.73924034  1
  O  O49  1  0.46077104  0.30151145  0.74250131  1
  O  O50  1  0.84738011  0.53523922  0.74128936  1
  O  O51  1  0.68931983  0.53749632  0.24006513  1
  O  O52  1  0.84820193  0.31065501  0.23996546  1
  O  O53  1  0.46268122  0.15199841  0.23994753  1
  O  O54  1  0.63984259  0.51401329  0.92661663  1
  O  O55  1  0.86022185  0.36480907  0.92796576  1
  O  O56  1  0.49659409  0.14407051  0.92757452  1
  O  O57  1  0.63834354  0.12639667  0.42477240  1
  O  O58  1  0.48619359  0.35816933  0.42448142  1
  O  O59  1  0.87384648  0.50835206  0.42345372  1
  O  O60  1  0.35867243  0.48762839  0.07717189  1
  O  O61  1  0.12942693  0.64409572  0.07754713  1
  O  O62  1  0.51779494  0.86905852  0.07624024  1
  O  O63  1  0.35365460  0.87042244  0.57219378  1
  O  O64  1  0.50291753  0.64658185  0.57071254  1
  O  O65  1  0.12693045  0.48786217  0.57214507  1
  O  O66  1  0.30574877  0.84380467  0.25956662  1
  O  O67  1  0.53781073  0.69400929  0.25967207  1
  O  O68  1  0.15635470  0.46227034  0.25963772  1
  O  O69  1  0.31035761  0.46228703  0.75763396  1
  O  O70  1  0.15675237  0.69655645  0.75549527  1
  O  O71  1  0.54063659  0.84326431  0.75623636  1
loop_
_geom_bond_atom_site_label_1
_geom_bond_atom_site_label_2
_geom_bond_distance
_geom_bond_site_symmetry_2
Hf0 O39 1.913137 1_555
Hf0 O40 1.918579 1_545
Hf0 O3 2.079779 1_555
Hf0 O41 2.125979 1_445
Hf0 O5 2.193558 1_455
Hf0 O4 2.208898 1_445
Hf1 O44 1.910970 1_555
Hf1 O6 2.048257 1_555
Hf1 O8 2.070912 1_655
Hf1 O42 2.123147 1_565
Hf1 O43 2.136282 1_665
Hf1 O7 2.168630 1_665
Hf2 O47 2.039931 1_555
Hf2 O46 2.046602 1_455
Hf2 O45 2.052261 1_445
Hf2 O9 2.103952 1_445
Hf2 O10 2.104810 1_555
Hf2 O11 2.109721 1_545
Hf3 O56 1.896663 1_555
Hf3 O55 1.899670 1_555
Hf3 O54 2.081640 1_555
Hf3 O20 2.169388 1_556
Hf3 O18 2.225790 1_556
Hf3 O19 2.265041 1_556
Hf4 O22 1.879291 1_555
Hf4 O59 2.105870 1_555
Hf4 O21 2.113258 1_555
Hf4 O23 2.116661 1_555
Hf4 O58 2.126064 1_555
Hf4 O57 2.228973 1_555
Hf5 O26 1.910489 1_554
Hf5 O25 1.915033 1_554
Hf5 O61 2.119541 1_555
Hf5 O24 2.145845 1_554
Hf5 O60 2.194715 1_555
Hf5 O62 2.223290 1_555
Hf6 O64 1.871524 1_555
Hf6 O63 2.056405 1_555
Hf6 O65 2.065480 1_555
Hf6 O27 2.111480 1_555
Hf6 O28 2.153401 1_555
Hf6 O29 2.219093 1_555
Hf7 O66 2.048993 1_555
Hf7 O67 2.052378 1_555
Hf7 O68 2.062149 1_555
Hf7 O30 2.096697 1_555
Hf7 O31 2.102916 1_555
Hf7 O32 2.112299 1_555
Hf8 O33 1.927239 1_555
Hf8 O34 1.933469 1_555
Hf8 O70 2.077498 1_555
Hf8 O71 2.164175 1_555
Hf8 O69 2.173946 1_555
Hf8 O35 2.196587 1_555
Mg0 O2 2.090013 1_565
Mg0 O36 2.093535 1_655
Mg0 O0 2.097632 1_665
Mg0 O37 2.097872 1_555
Mg0 O1 2.098950 1_555
Mg0 O38 2.110486 1_665
Mg1 O14 1.906371 1_555
Mg1 O49 2.046369 1_555
Mg1 O50 2.069423 1_555
Mg1 O48 2.110726 1_555
Mg1 O13 2.187086 1_555
Mg1 O12 2.189620 1_555
Mg2 O17 2.074958 1_555
Mg2 O15 2.075155 1_555
Mg2 O53 2.092067 1_555
Mg2 O16 2.097497 1_555
Mg2 O51 2.101920 1_555
Mg2 O52 2.105410 1_555
O0 S0 1.456607 1_555
O1 S1 1.456210 1_555
O2 S2 1.456753 1_555
O3 S3 1.498406 1_555
O4 S4 1.474667 1_555
O5 S5 1.478802 1_555
O6 S5 1.515020 1_565
O7 S3 1.494870 1_555
O8 S4 1.507406 1_455
O9 S1 1.511977 1_555
O10 S2 1.513150 1_455
O11 S0 1.511401 1_565
O12 S6 1.441153 1_555
O13 S7 1.442123 1_555
O14 Si0 1.558647 1_555
O15 S8 1.455228 1_555
O16 S9 1.455258 1_555
O17 S10 1.456223 1_555
O18 S10 1.473132 1_555
O19 S8 1.468824 1_555
O20 S9 1.481473 1_555
O21 S7 1.503449 1_555
O22 Si0 1.674022 1_555
O23 S6 1.507537 1_555
O24 S11 1.486536 1_555
O25 Si1 1.635700 1_555
O26 Si2 1.631409 1_555
O27 S12 1.493504 1_555
O28 S13 1.487936 1_555
O29 S14 1.477231 1_555
O30 S14 1.510693 1_555
O31 S12 1.512728 1_555
O32 S13 1.505759 1_555
O33 Si1 1.620123 1_555
O34 Si2 1.623769 1_555
O35 S11 1.470692 1_555
O36 S14 1.445593 1_555
O37 S12 1.447262 1_555
O38 S13 1.445715 1_555
O39 Si1 1.610346 1_555
O40 Si2 1.609902 1_555
O41 S11 1.467405 1_555
O42 S6 1.482535 1_555
O43 S7 1.481079 1_555
O44 Si0 1.640602 1_555
O45 S8 1.517221 1_555
O46 S9 1.520292 1_555
O47 S10 1.521783 1_555
O48 S5 1.448486 1_555
O49 S3 1.445595 1_555
O50 S4 1.442590 1_555
O51 S1 1.447604 1_555
O52 S2 1.448166 1_555
O53 S0 1.447803 1_555
O54 S11 1.476994 1_555
O55 Si1 1.616758 1_655
O56 Si2 1.620034 1_545
O57 S12 1.478462 1_545
O58 S13 1.493010 1_555
O59 S14 1.497650 1_655
O60 S10 1.474595 1_555
O61 S8 1.485800 1_455
O62 S9 1.472926 1_565
O63 S7 1.500300 1_565
O64 Si0 1.654597 1_555
O65 S6 1.496200 1_455
O66 S0 1.524939 1_565
O67 S1 1.524555 1_555
O68 S2 1.524800 1_455
O69 S3 1.480362 1_555
O70 S4 1.493411 1_455
O71 S5 1.479720 1_565
