# generated using pymatgen
data_NaZrSn(PO4)3
_symmetry_space_group_name_H-M   'P 1'
_cell_length_a   8.81394840
_cell_length_b   8.81394811
_cell_length_c   23.20087896
_cell_angle_alpha   90.00000000
_cell_angle_beta   90.00000000
_cell_angle_gamma   120.00000108
_symmetry_Int_Tables_number   1
_chemical_formula_structural   NaZrSn(PO4)3
_chemical_formula_sum   'Na6 Zr6 Sn6 P18 O72'
_cell_volume   1560.90351457
_cell_formula_units_Z   6
loop_
 _symmetry_equiv_pos_site_id
 _symmetry_equiv_pos_as_xyz
  1  'x, y, z'
loop_
 _atom_site_type_symbol
 _atom_site_label
 _atom_site_symmetry_multiplicity
 _atom_site_fract_x
 _atom_site_fract_y
 _atom_site_fract_z
 _atom_site_occupancy
  Na  Na0  1  -0.00000000  -0.00000000  0.49957386  1
  Na  Na1  1  -0.00000000  -0.00000000  0.99947746  1
  Na  Na2  1  0.66666700  0.33333300  0.83381159  1
  Na  Na3  1  0.66666700  0.33333300  0.33287469  1
  Na  Na4  1  0.33333300  0.66666700  0.16617366  1
  Na  Na5  1  0.33333300  0.66666700  0.66708264  1
  Zr  Zr0  1  -0.00000000  -0.00000000  0.64745292  1
  Zr  Zr1  1  -0.00000000  -0.00000000  0.14546598  1
  Zr  Zr2  1  0.66666700  0.33333300  0.68746815  1
  Zr  Zr3  1  0.66666700  0.33333300  0.47979228  1
  Zr  Zr4  1  0.33333300  0.66666700  0.51895833  1
  Zr  Zr5  1  0.33333300  0.66666700  0.31293793  1
  Sn  Sn0  1  -0.00000000  -0.00000000  0.35131428  1
  Sn  Sn1  1  -0.00000000  -0.00000000  0.85283363  1
  Sn  Sn2  1  0.66666700  0.33333300  0.18526316  1
  Sn  Sn3  1  0.66666700  0.33333300  0.98035791  1
  Sn  Sn4  1  0.33333300  0.66666700  0.01861456  1
  Sn  Sn5  1  0.33333300  0.66666700  0.81514909  1
  P  P0  1  0.29158348  0.00332216  0.24967117  1
  P  P1  1  0.71173869  0.70841652  0.24967117  1
  P  P2  1  0.99667784  0.28826131  0.24967117  1
  P  P3  1  0.28829051  0.29197302  0.75164985  1
  P  P4  1  0.00368251  0.71170949  0.75164985  1
  P  P5  1  0.70802698  0.99631749  0.75164985  1
  P  P6  1  0.95718844  0.33342044  0.58338153  1
  P  P7  1  0.37623300  0.04281156  0.58338153  1
  P  P8  1  0.66657956  0.62376700  0.58338153  1
  P  P9  1  0.95604917  0.61917009  0.08238881  1
  P  P10  1  0.66312193  0.04395083  0.08238881  1
  P  P11  1  0.38082991  0.33687807  0.08238881  1
  P  P12  1  0.62323719  0.66665984  0.91672114  1
  P  P13  1  0.04342166  0.37676281  0.91672114  1
  P  P14  1  0.33334016  0.95657834  0.91672114  1
  P  P15  1  0.62768840  0.95753955  0.41574161  1
  P  P16  1  0.32985015  0.37231160  0.41574161  1
  P  P17  1  0.04246045  0.67014985  0.41574161  1
  O  O0  1  0.21315679  0.03565287  0.30477290  1
  O  O1  1  0.82249608  0.78684321  0.30477290  1
  O  O2  1  0.96434713  0.17750392  0.30477290  1
  O  O3  1  0.21024302  0.17734453  0.80581114  1
  O  O4  1  0.96710152  0.78975698  0.80581114  1
  O  O5  1  0.82265547  0.03289848  0.80581114  1
  O  O6  1  0.78954431  0.96728920  0.69718757  1
  O  O7  1  0.17774488  0.21045569  0.69718757  1
  O  O8  1  0.03271080  0.82225512  0.69718757  1
  O  O9  1  0.79333282  0.82208981  0.19606041  1
  O  O10  1  0.02875699  0.20666718  0.19606041  1
  O  O11  1  0.17791019  0.97124301  0.19606041  1
  O  O12  1  0.87421435  0.36320836  0.63741807  1
  O  O13  1  0.48899501  0.12578565  0.63741807  1
  O  O14  1  0.63679164  0.51100499  0.63741807  1
  O  O15  1  0.87878018  0.50955327  0.13777235  1
  O  O16  1  0.63077410  0.12121982  0.13777235  1
  O  O17  1  0.49044673  0.36922590  0.13777235  1
  O  O18  1  0.45718317  0.30027308  0.02798264  1
  O  O19  1  0.84309092  0.54281683  0.02798264  1
  O  O20  1  0.69972692  0.15690908  0.02798264  1
  O  O21  1  0.45866261  0.15529321  0.52940455  1
  O  O22  1  0.69663160  0.54133739  0.52940455  1
  O  O23  1  0.84470679  0.30336840  0.52940455  1
  O  O24  1  0.54555993  0.70119037  0.97145551  1
  O  O25  1  0.15562943  0.45444007  0.97145551  1
  O  O26  1  0.29880963  0.84437057  0.97145551  1
  O  O27  1  0.54469436  0.84560763  0.46998859  1
  O  O28  1  0.30091226  0.45530564  0.46998859  1
  O  O29  1  0.15439237  0.69908774  0.46998859  1
  O  O30  1  0.12529912  0.63805835  0.36237327  1
  O  O31  1  0.51275823  0.87470088  0.36237327  1
  O  O32  1  0.36194165  0.48724177  0.36237327  1
  O  O33  1  0.12080640  0.48870214  0.86203588  1
  O  O34  1  0.36789474  0.87919360  0.86203588  1
  O  O35  1  0.51129786  0.63210526  0.86203588  1
  O  O36  1  0.02408245  0.83556671  0.40971597  1
  O  O37  1  0.81148426  0.97591755  0.40971597  1
  O  O38  1  0.16443329  0.18851574  0.40971597  1
  O  O39  1  0.02407860  0.19213049  0.91019074  1
  O  O40  1  0.16805189  0.97592140  0.91019074  1
  O  O41  1  0.80786951  0.83194811  0.91019074  1
  O  O42  1  0.97628658  0.16993372  0.58993203  1
  O  O43  1  0.19364714  0.02371342  0.58993203  1
  O  O44  1  0.83006628  0.80635286  0.58993203  1
  O  O45  1  0.97569570  0.80223056  0.08946410  1
  O  O46  1  0.82653487  0.02430430  0.08946410  1
  O  O47  1  0.19776944  0.17346513  0.08946410  1
  O  O48  1  0.68961805  0.16028449  0.74430858  1
  O  O49  1  0.47066743  0.31038195  0.74430858  1
  O  O50  1  0.83971551  0.52933257  0.74430858  1
  O  O51  1  0.69125139  0.52336951  0.24329441  1
  O  O52  1  0.83211912  0.30874861  0.24329441  1
  O  O53  1  0.47663049  0.16788088  0.24329441  1
  O  O54  1  0.64260391  0.50138491  0.92323090  1
  O  O55  1  0.85878200  0.35739609  0.92323090  1
  O  O56  1  0.49861509  0.14121800  0.92323090  1
  O  O57  1  0.64504394  0.13905820  0.42283682  1
  O  O58  1  0.49401525  0.35495606  0.42283682  1
  O  O59  1  0.86094180  0.50598475  0.42283682  1
  O  O60  1  0.35913207  0.50099752  0.07640917  1
  O  O61  1  0.14186445  0.64086793  0.07640917  1
  O  O62  1  0.49900248  0.85813555  0.07640917  1
  O  O63  1  0.35705357  0.86021905  0.57680519  1
  O  O64  1  0.50316448  0.64294643  0.57680519  1
  O  O65  1  0.13978095  0.49683552  0.57680519  1
  O  O66  1  0.31045391  0.83971002  0.25653727  1
  O  O67  1  0.52925511  0.68954609  0.25653727  1
  O  O68  1  0.16028998  0.47074489  0.25653727  1
  O  O69  1  0.30809306  0.47668539  0.75725712  1
  O  O70  1  0.16859133  0.69190694  0.75725712  1
  O  O71  1  0.52331461  0.83140867  0.75725712  1
loop_
_geom_bond_atom_site_label_1
_geom_bond_atom_site_label_2
_geom_bond_distance
_geom_bond_site_symmetry_2
Na0 O38 2.607584 1_555
Na0 O36 2.607584 1_545
Na0 O37 2.607584 1_445
Na0 O44 2.644796 1_445
Na0 O42 2.644796 1_455
Na0 O43 2.644796 1_555
Na1 O39 2.616216 1_555
Na1 O41 2.616216 1_445
Na1 O40 2.616216 1_545
Na1 O46 2.658902 1_456
Na1 O47 2.658902 1_556
Na1 O45 2.658902 1_446
Na2 O56 2.618603 1_555
Na2 O54 2.618603 1_555
Na2 O55 2.618603 1_555
Na2 O48 2.643459 1_555
Na2 O50 2.643459 1_555
Na2 O49 2.643459 1_555
Na3 O51 2.609414 1_555
Na3 O53 2.609414 1_555
Na3 O52 2.609414 1_555
Na3 O57 2.645459 1_555
Na3 O59 2.645459 1_555
Na3 O58 2.645459 1_555
Na4 O62 2.617866 1_555
Na4 O60 2.617866 1_555
Na4 O61 2.617866 1_555
Na4 O68 2.658912 1_555
Na4 O66 2.658912 1_555
Na4 O67 2.658912 1_555
Na5 O69 2.618756 1_555
Na5 O71 2.618756 1_555
Na5 O70 2.618756 1_555
Na5 O63 2.642789 1_555
Na5 O65 2.642789 1_555
Na5 O64 2.642789 1_555
O0 P0 1.546071 1_555
O0 Sn0 2.050377 1_555
O1 P1 1.546071 1_555
O1 Sn0 2.050377 1_665
O2 P2 1.546071 1_555
O2 Sn0 2.050377 1_655
O3 P3 1.542072 1_555
O3 Sn1 2.042260 1_555
O4 P4 1.542072 1_655
O4 Sn1 2.042260 1_665
O5 P5 1.542072 1_545
O5 Sn1 2.042260 1_655
O6 P5 1.536923 1_555
O6 Zr0 2.078606 1_665
O7 P3 1.536923 1_555
O7 Zr0 2.078606 1_555
O8 P4 1.536923 1_555
O8 Zr0 2.078606 1_565
O9 P1 1.532176 1_555
O9 Zr1 2.073281 1_665
O10 P2 1.532176 1_455
O10 Zr1 2.073281 1_555
O11 P0 1.532176 1_565
O11 Zr1 2.073281 1_565
O12 P6 1.538680 1_555
O12 Zr2 2.069402 1_555
O13 P7 1.538680 1_555
O13 Zr2 2.069402 1_555
O14 P8 1.538680 1_555
O14 Zr2 2.069402 1_555
O15 P9 1.546083 1_555
O15 Sn2 2.053751 1_555
O16 P10 1.546083 1_555
O16 Sn2 2.053751 1_555
O17 P11 1.546083 1_555
O17 Sn2 2.053751 1_555
O18 P11 1.538648 1_555
O18 Sn3 2.043745 1_554
O19 P9 1.538648 1_555
O19 Sn3 2.043745 1_554
O20 P10 1.538648 1_555
O20 Sn3 2.043745 1_554
O21 P7 1.535818 1_555
O21 Zr3 2.066786 1_555
O22 P8 1.535818 1_555
O22 Zr3 2.066786 1_555
O23 P6 1.535818 1_555
O23 Zr3 2.066786 1_555
O24 P12 1.543485 1_555
O24 Sn4 2.054145 1_556
O25 P13 1.543485 1_555
O25 Sn4 2.054145 1_556
O26 P14 1.543485 1_555
O26 Sn4 2.054145 1_556
O27 P15 1.539723 1_555
O27 Zr4 2.076206 1_555
O28 P16 1.539723 1_555
O28 Zr4 2.076206 1_555
O29 P17 1.539723 1_555
O29 Zr4 2.076206 1_555
O30 P17 1.533866 1_555
O30 Zr5 2.068526 1_555
O31 P15 1.533866 1_555
O31 Zr5 2.068526 1_555
O32 P16 1.533866 1_555
O32 Zr5 2.068526 1_555
O33 P13 1.541239 1_555
O33 Sn5 2.052897 1_555
O34 P14 1.541239 1_555
O34 Sn5 2.052897 1_555
O35 P12 1.541239 1_555
O35 Sn5 2.052897 1_555
O36 P17 1.551658 1_555
O36 Sn0 2.071019 1_565
O37 P15 1.551667 1_555
O37 Sn0 2.071019 1_665
O38 P16 1.551663 1_555
O38 Sn0 2.071019 1_555
O39 P13 1.556539 1_555
O39 Sn1 2.079472 1_555
O40 P14 1.556530 1_555
O40 Sn1 2.079472 1_565
O41 P12 1.556535 1_555
O41 Sn1 2.079472 1_665
O42 P6 1.539599 1_555
O42 Zr0 2.093104 1_655
O43 P7 1.539608 1_555
O43 Zr0 2.093104 1_555
O44 P8 1.539604 1_555
O44 Zr0 2.093104 1_665
O45 P9 1.543007 1_555
O45 Zr1 2.097414 1_665
O46 P10 1.542998 1_555
O46 Zr1 2.097414 1_655
O47 P11 1.543003 1_555
O47 Zr1 2.097414 1_555
O48 P5 1.542213 1_545
O48 Zr2 2.101170 1_555
O49 P3 1.542222 1_555
O49 Zr2 2.101170 1_555
O50 P4 1.542218 1_655
O50 Zr2 2.101170 1_555
O51 P1 1.555675 1_555
O51 Sn2 2.074191 1_555
O52 P2 1.555666 1_555
O52 Sn2 2.074191 1_555
O53 P0 1.555671 1_555
O53 Sn2 2.074191 1_555
O54 P12 1.556488 1_555
O54 Sn3 2.075997 1_555
O55 P13 1.556470 1_655
O55 Sn3 2.075997 1_555
O56 P14 1.556478 1_545
O56 Sn3 2.075997 1_555
O57 P15 1.537995 1_545
O57 Zr3 2.094800 1_555
O58 P16 1.538012 1_555
O58 Zr3 2.094800 1_555
O59 P17 1.538002 1_655
O59 Zr3 2.094800 1_555
O60 P11 1.557222 1_555
O60 Sn4 2.076995 1_555
O61 P9 1.557205 1_455
O61 Sn4 2.076995 1_555
O62 P10 1.557212 1_565
O62 Sn4 2.076995 1_555
O63 P7 1.539429 1_565
O63 Zr4 2.097275 1_555
O64 P8 1.539447 1_555
O64 Zr4 2.097275 1_555
O65 P6 1.539436 1_455
O65 Zr4 2.097275 1_555
O66 P0 1.540276 1_565
O66 Zr5 2.094452 1_555
O67 P1 1.540285 1_555
O67 Zr5 2.094452 1_555
O68 P2 1.540282 1_455
O68 Zr5 2.094452 1_555
O69 P3 1.553629 1_555
O69 Sn5 2.070006 1_555
O70 P4 1.553620 1_555
O70 Sn5 2.070006 1_555
O71 P5 1.553625 1_555
O71 Sn5 2.070006 1_555
