# generated using pymatgen
data_Er2MgCr2O8
_symmetry_space_group_name_H-M   'P 1'
_cell_length_a   6.16472133
_cell_length_b   6.16112647
_cell_length_c   6.02761665
_cell_angle_alpha   105.74044952
_cell_angle_beta   105.78846048
_cell_angle_gamma   117.93504097
_symmetry_Int_Tables_number   1
_chemical_formula_structural   Er2MgCr2O8
_chemical_formula_sum   'Er2 Mg1 Cr2 O8'
_cell_volume   171.89540889
_cell_formula_units_Z   1
loop_
 _symmetry_equiv_pos_site_id
 _symmetry_equiv_pos_as_xyz
  1  'x, y, z'
loop_
 _atom_site_type_symbol
 _atom_site_label
 _atom_site_symmetry_multiplicity
 _atom_site_fract_x
 _atom_site_fract_y
 _atom_site_fract_z
 _atom_site_occupancy
  Er  Er0  1  0.15423500  0.90429000  0.30832600  1
  Er  Er1  1  0.87406800  0.12401900  0.74818200  1
  Mg  Mg0  1  0.86592600  0.61594000  0.73205600  1
  Cr  Cr0  1  0.37694200  0.62697900  0.75400100  1
  Cr  Cr1  1  0.59994200  0.34996500  0.19973500  1
  O  O0  1  0.81405500  0.72306900  0.44874100  1
  O  O1  1  0.38970000  0.81561500  0.57368600  1
  O  O2  1  0.74728000  0.80070900  0.93680600  1
  O  O3  1  0.80100700  0.38414900  0.03410600  1
  O  O4  1  0.63474400  0.22571900  0.44874100  1
  O  O5  1  0.18399700  0.25809600  0.57369700  1
  O  O6  1  0.23318400  0.14996200  0.03421200  1
  O  O7  1  0.18949900  0.63606700  0.93687200  1
loop_
_geom_bond_atom_site_label_1
_geom_bond_atom_site_label_2
_geom_bond_distance
_geom_bond_site_symmetry_2
Er0 O1 2.217574 1_555
Er0 O5 2.217598 1_565
Er0 O4 2.375461 1_565
Er0 O0 2.376050 1_455
Er0 O6 2.522322 1_565
Er0 O3 2.524443 1_455
Er0 O2 2.526525 1_454
Er0 O7 2.526898 1_554
Er1 O6 2.311070 1_656
Er1 O3 2.311244 1_556
Er1 O1 2.350221 1_545
Er1 O5 2.350554 1_655
Er1 O4 2.420269 1_555
Er1 O0 2.420377 1_545
Er1 O2 2.474885 1_545
Er1 O7 2.475778 1_655
Mg0 O2 1.965481 1_555
Mg0 O7 1.965596 1_655
Mg0 O4 1.991298 1_555
Mg0 O0 1.991564 1_555
Mg0 O3 2.605004 1_556
Mg0 O6 2.606488 1_666
Cr0 O1 1.784495 1_555
Cr0 O5 1.784611 1_555
Cr0 O2 1.809317 1_555
Cr0 O7 1.809327 1_555
Cr1 O3 1.766443 1_555
Cr1 O6 1.766594 1_555
Cr1 O0 1.867166 1_555
Cr1 O4 1.867289 1_555
