# generated using pymatgen
data_MgFe12(OF)12
_symmetry_space_group_name_H-M   'P 1'
_cell_length_a   9.86543686
_cell_length_b   14.46227218
_cell_length_c   3.11803000
_cell_angle_alpha   90.00000000
_cell_angle_beta   90.00000000
_cell_angle_gamma   90.66205149
_symmetry_Int_Tables_number   1
_chemical_formula_structural   MgFe12(OF)12
_chemical_formula_sum   'Mg1 Fe12 O12 F12'
_cell_volume   444.84032338
_cell_formula_units_Z   1
loop_
 _symmetry_equiv_pos_site_id
 _symmetry_equiv_pos_as_xyz
  1  'x, y, z'
loop_
 _atom_site_type_symbol
 _atom_site_label
 _atom_site_symmetry_multiplicity
 _atom_site_fract_x
 _atom_site_fract_y
 _atom_site_fract_z
 _atom_site_occupancy
  Mg  Mg0  1  0.18153200  0.54714900  0.00000000  1
  Fe  Fe0  1  0.99359400  0.00102200  0.00000000  1
  Fe  Fe1  1  0.00098200  0.32445800  0.00000000  1
  Fe  Fe2  1  0.98134100  0.70243500  0.00000000  1
  Fe  Fe3  1  0.21627300  0.15277200  0.50000000  1
  Fe  Fe4  1  0.25862600  0.35569500  0.50000000  1
  Fe  Fe5  1  0.24565100  0.86973300  0.50000000  1
  Fe  Fe6  1  0.55346400  0.34766000  0.00000000  1
  Fe  Fe7  1  0.50092200  0.00435200  0.00000000  1
  Fe  Fe8  1  0.51516400  0.67318000  0.00000000  1
  Fe  Fe9  1  0.74712200  0.14023000  0.50000000  1
  Fe  Fe10  1  0.73581400  0.51683200  0.50000000  1
  Fe  Fe11  1  0.70535100  0.84551700  0.50000000  1
  O  O0  1  0.09180400  0.26390000  0.50000000  1
  O  O1  1  0.07606500  0.92881000  0.50000000  1
  O  O2  1  0.14855700  0.09362400  0.00000000  1
  O  O3  1  0.15327200  0.41716700  0.00000000  1
  O  O4  1  0.33875900  0.91507700  0.00000000  1
  O  O5  1  0.45226700  0.38494700  0.50000000  1
  O  O6  1  0.58239400  0.94676900  0.50000000  1
  O  O7  1  0.60678100  0.61176800  0.50000000  1
  O  O8  1  0.64119100  0.10656300  0.00000000  1
  O  O9  1  0.68808700  0.44477200  0.00000000  1
  O  O10  1  0.63836800  0.77833500  0.00000000  1
  O  O11  1  0.89907500  0.06195200  0.50000000  1
  F  F0  1  0.09923000  0.60751400  0.50000000  1
  F  F1  1  0.15840700  0.76964600  0.00000000  1
  F  F2  1  0.32521400  0.23757400  0.00000000  1
  F  F3  1  0.36323500  0.58030600  0.00000000  1
  F  F4  1  0.39617500  0.08085400  0.50000000  1
  F  F5  1  0.40473100  0.73462300  0.50000000  1
  F  F6  1  0.63581000  0.26941600  0.50000000  1
  F  F7  1  0.84854400  0.23138000  0.00000000  1
  F  F8  1  0.82484100  0.90263400  0.00000000  1
  F  F9  1  0.86588000  0.58004200  0.00000000  1
  F  F10  1  0.91181200  0.39751800  0.50000000  1
  F  F11  1  0.87794900  0.75247500  0.50000000  1
loop_
_geom_bond_atom_site_label_1
_geom_bond_atom_site_label_2
_geom_bond_distance
_geom_bond_site_symmetry_2
Mg0 O3 1.897207 1_555
Fe0 O2 2.020742 1_655
Fe0 O11 2.023736 1_554
Fe0 O11 2.023736 1_555
Fe0 O1 2.050072 1_645
Fe0 O1 2.050072 1_644
Fe1 O3 2.002093 1_555
Fe1 O0 2.004623 1_554
Fe1 O0 2.004623 1_555
Fe3 O2 1.896139 1_555
Fe3 O2 1.896139 1_556
Fe3 O0 2.033819 1_555
Fe4 O5 1.951857 1_555
Fe4 O3 2.079068 1_555
Fe4 O3 2.079068 1_556
Fe4 O0 2.102499 1_555
Fe5 O1 1.887346 1_555
Fe5 O4 1.921038 1_555
Fe5 O4 1.921038 1_556
Fe6 O9 1.921794 1_555
Fe6 O5 1.931443 1_554
Fe6 O5 1.931443 1_555
Fe7 O6 1.945648 1_544
Fe7 O6 1.945648 1_545
Fe7 O8 2.013146 1_555
Fe7 O4 2.044173 1_545
Fe8 O10 1.935821 1_555
Fe8 O7 2.013661 1_555
Fe8 O7 2.013661 1_554
Fe9 O11 1.888933 1_555
Fe9 O8 1.935971 1_555
Fe9 O8 1.935971 1_556
Fe10 O7 1.883066 1_555
Fe10 O9 1.930535 1_556
Fe10 O9 1.930535 1_555
Fe11 O6 1.912263 1_555
Fe11 O10 1.948431 1_555
Fe11 O10 1.948431 1_556
F0 Mg0 1.966804 1_555
F0 Mg0 1.966804 1_556
F0 Fe2 2.388422 1_456
F0 Fe2 2.388422 1_455
F1 Fe2 1.989226 1_455
F1 Fe5 2.288614 1_555
F1 Fe5 2.288614 1_554
F2 Fe3 2.249286 1_555
F2 Fe3 2.249286 1_554
F2 Fe4 2.409624 1_554
F2 Fe4 2.409624 1_555
F3 Mg0 1.850249 1_555
F3 Fe8 2.001029 1_555
F4 Fe3 2.067467 1_555
F4 Fe7 2.179201 1_556
F4 Fe7 2.179201 1_555
F5 Fe8 2.104629 1_555
F5 Fe8 2.104629 1_556
F5 Fe5 2.520312 1_555
F6 Fe6 2.095762 1_556
F6 Fe6 2.095762 1_555
F6 Fe9 2.178063 1_555
F7 Fe1 2.006707 1_655
F7 Fe9 2.266923 1_554
F7 Fe9 2.266923 1_555
F8 Fe11 2.116598 1_554
F8 Fe11 2.116598 1_555
F8 Fe0 2.177515 1_565
F9 Fe2 2.093819 1_555
F9 Fe10 2.210340 1_554
F9 Fe10 2.210340 1_555
F10 Fe1 2.083822 1_655
F10 Fe1 2.083822 1_656
F10 Fe10 2.462010 1_555
F11 Fe2 2.002931 1_555
F11 Fe2 2.002931 1_556
F11 Fe11 2.182420 1_555
