# generated using pymatgen
data_LiMn(PO3)3
_symmetry_space_group_name_H-M   'P 1'
_cell_length_a   6.48271536
_cell_length_b   6.48271536
_cell_length_c   9.84475100
_cell_angle_alpha   90.00000000
_cell_angle_beta   90.00000000
_cell_angle_gamma   119.99999345
_symmetry_Int_Tables_number   1
_chemical_formula_structural   LiMn(PO3)3
_chemical_formula_sum   'Li2 Mn2 P6 O18'
_cell_volume   358.30205802
_cell_formula_units_Z   2
loop_
 _symmetry_equiv_pos_site_id
 _symmetry_equiv_pos_as_xyz
  1  'x, y, z'
loop_
 _atom_site_type_symbol
 _atom_site_label
 _atom_site_symmetry_multiplicity
 _atom_site_fract_x
 _atom_site_fract_y
 _atom_site_fract_z
 _atom_site_occupancy
  Li  Li0  1  0.00000000  0.00000000  0.50000000  1
  Li  Li1  1  0.00000000  0.00000000  0.00000000  1
  Mn  Mn0  1  0.66666700  0.33333300  0.50000000  1
  Mn  Mn1  1  0.66666700  0.33333300  0.00000000  1
  P  P0  1  0.06048900  0.41049100  0.25000000  1
  P  P1  1  0.06048900  0.64999800  0.75000000  1
  P  P2  1  0.35000200  0.41049100  0.75000000  1
  P  P3  1  0.58950900  0.64999800  0.25000000  1
  P  P4  1  0.58950900  0.93951100  0.75000000  1
  P  P5  1  0.35000200  0.93951100  0.25000000  1
  O  O0  1  0.70501200  0.64461400  0.11815900  1
  O  O1  1  0.11779800  0.68155200  0.25000000  1
  O  O2  1  0.35538600  0.29498800  0.61815900  1
  O  O3  1  0.35538600  0.29498800  0.88184100  1
  O  O4  1  0.35538600  0.06039900  0.38184100  1
  O  O5  1  0.35538600  0.06039900  0.11815900  1
  O  O6  1  0.70501200  0.64461400  0.38184100  1
  O  O7  1  0.31844800  0.88220200  0.75000000  1
  O  O8  1  0.93960100  0.64461400  0.88184100  1
  O  O9  1  0.93960100  0.64461400  0.61815900  1
  O  O10  1  0.56375400  0.88220200  0.25000000  1
  O  O11  1  0.70501200  0.06039900  0.88184100  1
  O  O12  1  0.31844800  0.43624600  0.25000000  1
  O  O13  1  0.56375400  0.68155200  0.75000000  1
  O  O14  1  0.93960100  0.29498800  0.11815900  1
  O  O15  1  0.93960100  0.29498800  0.38184100  1
  O  O16  1  0.11779800  0.43624600  0.75000000  1
  O  O17  1  0.70501200  0.06039900  0.61815900  1
loop_
_geom_bond_atom_site_label_1
_geom_bond_atom_site_label_2
_geom_bond_distance
_geom_bond_site_symmetry_2
Li0 O9 2.431496 1_445
Li0 O4 2.431496 1_555
Li0 O2 2.431498 1_555
Li0 O6 2.431498 1_445
Li0 O15 2.431502 1_455
Li0 O17 2.431502 1_455
Li1 O5 2.431496 1_555
Li1 O8 2.431496 1_444
Li1 O0 2.431498 1_445
Li1 O3 2.431498 1_554
Li1 O14 2.431502 1_455
Li1 O11 2.431502 1_454
Mn0 O17 2.232794 1_555
Mn0 O15 2.232794 1_555
Mn0 O4 2.232801 1_555
Mn0 O9 2.232801 1_555
Mn0 O2 2.232805 1_555
Mn0 O6 2.232805 1_555
Mn1 O11 2.232794 1_554
Mn1 O14 2.232794 1_555
Mn1 O5 2.232801 1_555
Mn1 O8 2.232801 1_554
Mn1 O3 2.232805 1_554
Mn1 O0 2.232805 1_555
O0 P3 1.507537 1_555
O1 P5 1.595360 1_555
O1 P0 1.604052 1_555
O2 P2 1.507537 1_555
O3 P2 1.507537 1_555
O4 P5 1.507540 1_545
O5 P5 1.507540 1_545
O6 P3 1.507537 1_555
O7 P1 1.595360 1_555
O7 P4 1.604052 1_555
O8 P1 1.507540 1_655
O9 P1 1.507540 1_655
O10 P3 1.595360 1_555
O10 P5 1.604052 1_555
O11 P4 1.507538 1_545
O12 P0 1.595360 1_555
O12 P3 1.604052 1_555
O13 P4 1.595360 1_555
O13 P2 1.604052 1_555
O14 P0 1.507538 1_655
O15 P0 1.507538 1_655
O16 P2 1.595360 1_555
O16 P1 1.604052 1_555
O17 P4 1.507538 1_545
