# generated using pymatgen
data_Na4Ti2In2Si3(SO8)3
_symmetry_space_group_name_H-M   'P 1'
_cell_length_a   8.97851304
_cell_length_b   8.96807193
_cell_length_c   22.76280164
_cell_angle_alpha   90.12901600
_cell_angle_beta   89.08800978
_cell_angle_gamma   119.77313519
_symmetry_Int_Tables_number   1
_chemical_formula_structural   Na4Ti2In2Si3(SO8)3
_chemical_formula_sum   'Na12 Ti6 In6 Si9 S9 O72'
_cell_volume   1590.68395671
_cell_formula_units_Z   3
loop_
 _symmetry_equiv_pos_site_id
 _symmetry_equiv_pos_as_xyz
  1  'x, y, z'
loop_
 _atom_site_type_symbol
 _atom_site_label
 _atom_site_symmetry_multiplicity
 _atom_site_fract_x
 _atom_site_fract_y
 _atom_site_fract_z
 _atom_site_occupancy
  Na  Na0  1  0.98788327  0.63786150  0.25281368  1
  Na  Na1  1  0.99081309  0.35727304  0.74436840  1
  Na  Na2  1  0.65927388  0.97260834  0.59025455  1
  Na  Na3  1  0.66630445  0.69948804  0.08066944  1
  Na  Na4  1  0.33304796  0.30237860  0.90722584  1
  Na  Na5  1  0.32079952  0.02271664  0.41959228  1
  Na  Na6  1  0.00722715  0.99098448  0.50318278  1
  Na  Na7  1  0.98954201  0.98772262  0.99742918  1
  Na  Na8  1  0.65527010  0.32021178  0.82341760  1
  Na  Na9  1  0.65856779  0.34169162  0.33370658  1
  Na  Na10  1  0.32887105  0.66970414  0.16945498  1
  Na  Na11  1  0.32154811  0.66997206  0.66064263  1
  Ti  Ti0  1  0.01765911  0.03165722  0.64610150  1
  Ti  Ti1  1  0.99548096  0.97266954  0.15281412  1
  Ti  Ti2  1  0.68301087  0.36093560  0.98002868  1
  Ti  Ti3  1  0.68210852  0.33644867  0.48716201  1
  Ti  Ti4  1  0.32718761  0.67264062  0.31163191  1
  Ti  Ti5  1  0.36386809  0.66799348  0.80694540  1
  In  In0  1  0.99887901  0.99122820  0.35024454  1
  In  In1  1  0.99002410  0.98883621  0.84704986  1
  In  In2  1  0.65333138  0.32255284  0.68415644  1
  In  In3  1  0.66441591  0.33228545  0.18581131  1
  In  In4  1  0.33184070  0.67577160  0.01555948  1
  In  In5  1  0.31262459  0.65768167  0.51884083  1
  Si  Si0  1  0.29736358  0.00089033  0.25247881  1
  Si  Si1  1  0.69495529  0.70314943  0.25166592  1
  Si  Si2  1  0.29531897  0.29157179  0.75398889  1
  Si  Si3  1  0.71419805  0.00264170  0.74828455  1
  Si  Si4  1  0.96320260  0.33570646  0.58790175  1
  Si  Si5  1  0.37062060  0.04161809  0.58091501  1
  Si  Si6  1  0.96642172  0.62904691  0.08515803  1
  Si  Si7  1  0.63097663  0.67311237  0.91876335  1
  Si  Si8  1  0.02952072  0.65957724  0.41624002  1
  S  S0  1  0.00693357  0.29022317  0.24937078  1
  S  S1  1  0.00769226  0.70768742  0.74968118  1
  S  S2  1  0.67235641  0.62813783  0.58159658  1
  S  S3  1  0.67345718  0.04717018  0.08139832  1
  S  S4  1  0.36835579  0.32653398  0.08117761  1
  S  S5  1  0.03452089  0.37380053  0.91760161  1
  S  S6  1  0.33867242  0.96630689  0.91589957  1
  S  S7  1  0.62272390  0.95887814  0.41566338  1
  S  S8  1  0.33616231  0.37878381  0.41417080  1
  O  O0  1  0.22833846  0.03897070  0.31253555  1
  O  O1  1  0.82323361  0.78923619  0.30448708  1
  O  O2  1  0.98200282  0.19506689  0.30420077  1
  O  O3  1  0.21937211  0.19075817  0.81566952  1
  O  O4  1  0.97905567  0.77307154  0.80609717  1
  O  O5  1  0.82136261  0.03684122  0.80733855  1
  O  O6  1  0.80387394  0.96948415  0.68946965  1
  O  O7  1  0.16173956  0.19595861  0.69813847  1
  O  O8  1  0.03162404  0.81877513  0.69899119  1
  O  O9  1  0.79550033  0.82736804  0.19007221  1
  O  O10  1  0.02459627  0.20045440  0.19684636  1
  O  O11  1  0.15594378  0.96265569  0.19673993  1
  O  O12  1  0.88529723  0.36727477  0.64709351  1
  O  O13  1  0.48959145  0.11912341  0.63693024  1
  O  O14  1  0.64213349  0.53079254  0.63631955  1
  O  O15  1  0.88056691  0.51879563  0.14346470  1
  O  O16  1  0.64441205  0.11725538  0.13591840  1
  O  O17  1  0.47699937  0.35682727  0.13278989  1
  O  O18  1  0.45514235  0.30597432  0.02673124  1
  O  O19  1  0.82979934  0.52608243  0.02809668  1
  O  O20  1  0.68350887  0.15135032  0.02917021  1
  O  O21  1  0.46860925  0.16683528  0.52081217  1
  O  O22  1  0.69102769  0.53314549  0.52968451  1
  O  O23  1  0.82970842  0.30681426  0.53138253  1
  O  O24  1  0.54741542  0.68752378  0.98057492  1
  O  O25  1  0.14010053  0.45464323  0.96980496  1
  O  O26  1  0.30648738  0.86745407  0.97120380  1
  O  O27  1  0.55475713  0.85949827  0.47066515  1
  O  O28  1  0.32058648  0.45629481  0.46928608  1
  O  O29  1  0.16403571  0.70991108  0.46821986  1
  O  O30  1  0.13500390  0.63929788  0.35608739  1
  O  O31  1  0.50918560  0.86529747  0.36461612  1
  O  O32  1  0.35312060  0.48717738  0.36204482  1
  O  O33  1  0.10918509  0.47727413  0.86370018  1
  O  O34  1  0.35657833  0.87515246  0.86465590  1
  O  O35  1  0.49524774  0.63358000  0.86361991  1
  O  O36  1  0.01515719  0.83442197  0.41401744  1
  O  O37  1  0.79959993  0.99335542  0.40797318  1
  O  O38  1  0.17877889  0.20509107  0.41152138  1
  O  O39  1  0.01909522  0.20210800  0.91493469  1
  O  O40  1  0.19014672  0.99682226  0.91245721  1
  O  O41  1  0.82461993  0.82815189  0.91390604  1
  O  O42  1  0.95913217  0.14693463  0.58941436  1
  O  O43  1  0.17825025  0.02209868  0.59160883  1
  O  O44  1  0.83015673  0.79842376  0.58332009  1
  O  O45  1  0.96671473  0.81641870  0.08904035  1
  O  O46  1  0.83260233  0.03357716  0.08388100  1
  O  O47  1  0.19762516  0.17317521  0.08718108  1
  O  O48  1  0.69159830  0.17007906  0.74657362  1
  O  O49  1  0.49069059  0.33862964  0.74699466  1
  O  O50  1  0.85737904  0.53268883  0.74479222  1
  O  O51  1  0.68811312  0.52032155  0.24445731  1
  O  O52  1  0.85876959  0.32021024  0.24497318  1
  O  O53  1  0.48861566  0.15212405  0.24114052  1
  O  O54  1  0.63497757  0.48426949  0.92672904  1
  O  O55  1  0.85796921  0.35358784  0.92667231  1
  O  O56  1  0.49733097  0.13939601  0.92130321  1
  O  O57  1  0.62355190  0.12689017  0.41902514  1
  O  O58  1  0.48904844  0.35515317  0.41565258  1
  O  O59  1  0.84109032  0.48190421  0.42518053  1
  O  O60  1  0.35581638  0.48598643  0.07657659  1
  O  O61  1  0.15590581  0.65560576  0.07717529  1
  O  O62  1  0.52460659  0.86675485  0.07834229  1
  O  O63  1  0.36872337  0.85928327  0.57543146  1
  O  O64  1  0.52404669  0.65542254  0.57334906  1
  O  O65  1  0.15861669  0.48437469  0.58134032  1
  O  O66  1  0.29272830  0.81206095  0.25666683  1
  O  O67  1  0.50668763  0.68909291  0.25885299  1
  O  O68  1  0.16577991  0.46493232  0.25185997  1
  O  O69  1  0.29300603  0.47927300  0.75990610  1
  O  O70  1  0.16483041  0.68804910  0.75540696  1
  O  O71  1  0.52006258  0.82316453  0.75782279  1
loop_
_geom_bond_atom_site_label_1
_geom_bond_atom_site_label_2
_geom_bond_distance
_geom_bond_site_symmetry_2
Na0 O51 2.364148 1_555
Na0 O66 2.387509 1_655
Na0 O52 2.493092 1_555
Na0 O15 2.703097 1_555
Na0 O1 2.709681 1_555
Na0 O30 2.711656 1_655
Na0 O68 2.723159 1_655
Na0 O11 2.825024 1_655
Na1 O48 2.356930 1_555
Na1 O69 2.400929 1_655
Na1 O50 2.404470 1_555
Na1 O12 2.441419 1_555
Na1 O70 2.590391 1_655
Na1 O7 2.775270 1_655
Na1 O5 2.869546 1_555
Na1 O33 2.934103 1_655
Na2 O63 2.312041 1_555
Na2 O42 2.347602 1_565
Na2 O64 2.508712 1_555
Na2 O6 2.629930 1_555
Na2 O13 2.665824 1_565
Na2 O44 2.681507 1_555
Na2 O27 2.905754 1_555
Na2 O23 2.918643 1_565
Na3 O45 2.370125 1_555
Na3 O62 2.401958 1_555
Na3 O60 2.480445 1_555
Na3 O24 2.510932 1_554
Na3 O46 2.602151 1_565
Na3 O9 2.760504 1_555
Na3 O19 2.864990 1_555
Na3 O17 2.916300 1_555
Na4 O3 2.330403 1_555
Na4 O40 2.382067 1_545
Na4 O54 2.418718 1_555
Na4 O39 2.500558 1_555
Na4 O56 2.563795 1_555
Na4 O35 2.756768 1_555
Na5 O57 2.395581 1_555
Na5 O36 2.409619 1_545
Na5 O38 2.532739 1_555
Na5 O58 2.588906 1_555
Na5 O0 2.614409 1_555
Na5 O29 2.668122 1_545
Na5 O21 2.668481 1_555
Na5 O31 2.952307 1_545
Na6 O44 2.456115 1_455
Na6 O43 2.481435 1_565
Na6 O36 2.485519 1_555
Na6 O42 2.560426 1_465
Na6 O38 2.718678 1_565
Na6 O37 2.888033 1_455
Na7 O41 2.414135 1_555
Na7 O45 2.537484 1_556
Na7 O46 2.551619 1_566
Na7 O40 2.595323 1_655
Na7 O39 2.605146 1_665
Na7 O47 2.729599 1_666
Na8 O48 2.320820 1_555
Na8 O49 2.358505 1_555
Na8 O50 2.570006 1_555
Na8 O56 2.690173 1_555
Na8 O54 2.822261 1_555
Na8 O55 2.918558 1_555
Na9 O58 2.429335 1_555
Na9 O51 2.517812 1_555
Na9 O59 2.579271 1_555
Na9 O57 2.641465 1_555
Na9 O53 2.677352 1_555
Na9 O52 2.752168 1_555
Na10 O66 2.460827 1_555
Na10 O68 2.508502 1_555
Na10 O67 2.558571 1_555
Na10 O61 2.597621 1_555
Na10 O62 2.707200 1_555
Na10 O60 2.758027 1_555
Na11 O65 2.412740 1_555
Na11 O63 2.469517 1_555
Na11 O70 2.605307 1_555
Na11 O64 2.718534 1_555
Na11 O71 2.763615 1_555
Na11 O69 2.767596 1_555
In0 O1 2.014944 1_555
In0 O0 2.057638 1_665
In0 O36 2.079964 1_655
In0 O2 2.179896 1_565
In0 O37 2.210750 1_555
In0 O38 2.283867 1_665
In1 O5 1.997106 1_565
In1 O3 2.070127 1_665
In1 O41 2.100141 1_555
In1 O4 2.104386 1_555
In1 O40 2.325338 1_655
In1 O39 2.370197 1_665
In2 O13 2.005761 1_555
In2 O12 2.079976 1_555
In2 O49 2.083465 1_555
In2 O48 2.120692 1_555
In2 O14 2.209642 1_555
In2 O50 2.335127 1_555
In3 O53 2.025155 1_555
In3 O15 2.053565 1_555
In3 O51 2.076923 1_555
In3 O16 2.166444 1_555
In3 O17 2.184101 1_555
In3 O52 2.265720 1_555
In4 O24 2.034775 1_554
In4 O61 2.035189 1_555
In4 O26 2.104762 1_554
In4 O25 2.153678 1_554
In4 O62 2.257233 1_555
In4 O60 2.292662 1_555
In5 O29 1.999736 1_555
In5 O65 2.040734 1_555
In5 O63 2.070654 1_555
In5 O28 2.157732 1_555
In5 O27 2.286897 1_555
In5 O64 2.292718 1_555
O0 Si0 1.597086 1_555
O1 Si1 1.589038 1_555
O2 S0 1.463644 1_655
O3 Si2 1.617601 1_555
O4 S1 1.481519 1_655
O5 Si3 1.604076 1_555
O6 Si3 1.652493 1_565
O6 Ti0 1.961900 1_665
O7 Si2 1.676962 1_555
O7 Ti0 1.842694 1_555
O8 S1 1.467896 1_555
O8 Ti0 2.315783 1_565
O9 Si1 1.729066 1_555
O9 Ti1 1.809435 1_555
O10 S0 1.489680 1_555
O10 Ti1 2.171338 1_445
O11 Si0 1.719456 1_565
O11 Ti1 1.805059 1_455
O12 Si4 1.596799 1_555
O13 Si5 1.597474 1_555
O14 S2 1.465016 1_555
O15 Si6 1.596792 1_555
O16 S3 1.467031 1_555
O17 S4 1.475612 1_555
O18 S4 1.512640 1_555
O18 Ti2 2.119080 1_554
O19 Si6 1.721872 1_555
O19 Ti2 1.796591 1_554
O20 S3 1.487374 1_555
O20 Ti2 2.191361 1_554
O21 Si5 1.701237 1_555
O21 Ti3 1.907279 1_555
O22 S2 1.510350 1_555
O22 Ti3 1.977234 1_555
O23 Si4 1.702369 1_555
O23 Ti3 1.798198 1_555
O24 Si7 1.618989 1_555
O25 S5 1.478415 1_555
O26 S6 1.480953 1_555
O27 S7 1.474709 1_555
O28 S8 1.470970 1_555
O29 Si8 1.601262 1_555
O30 Si8 1.712753 1_555
O30 Ti4 1.877287 1_555
O31 S7 1.509095 1_555
O31 Ti4 2.087918 1_555
O32 S8 1.492795 1_555
O32 Ti4 2.130532 1_555
O33 S5 1.475481 1_555
O33 Ti5 2.419704 1_555
O34 S6 1.474782 1_555
O34 Ti5 2.299670 1_555
O35 Si7 1.674506 1_555
O35 Ti5 1.887527 1_555
O36 Si8 1.636848 1_555
O37 S7 1.466967 1_555
O38 S8 1.497690 1_555
O39 S5 1.477077 1_555
O40 S6 1.491717 1_555
O41 Si7 1.600642 1_555
O42 Si4 1.675492 1_555
O42 Ti0 1.891309 1_655
O43 Si5 1.661220 1_555
O43 Ti0 1.921010 1_555
O44 S2 1.481125 1_555
O44 Ti0 2.411940 1_665
O45 Si6 1.681186 1_555
O45 Ti1 1.944466 1_555
O46 S3 1.495113 1_555
O46 Ti1 2.401943 1_545
O47 S4 1.469835 1_555
O47 Ti1 2.333247 1_445
O48 Si3 1.612631 1_555
O49 Si2 1.592699 1_555
O50 S1 1.482324 1_655
O51 Si1 1.618056 1_555
O52 S0 1.487170 1_655
O53 Si0 1.590361 1_555
O54 Si7 1.721717 1_555
O54 Ti2 1.837875 1_555
O55 S5 1.514146 1_655
O55 Ti2 1.997192 1_555
O56 S6 1.504193 1_545
O56 Ti2 2.298487 1_555
O57 S7 1.504846 1_545
O57 Ti3 2.290290 1_555
O58 S8 1.490214 1_555
O58 Ti3 2.462152 1_555
O59 Si8 1.660073 1_655
O59 Ti3 1.955671 1_555
O60 S4 1.493127 1_555
O61 Si6 1.603759 1_455
O62 S3 1.504576 1_565
O63 Si5 1.631321 1_565
O64 S2 1.483253 1_555
O65 Si4 1.596132 1_455
O66 Si0 1.676052 1_565
O66 Ti4 1.904733 1_555
O67 Si1 1.636964 1_555
O67 Ti4 1.940495 1_555
O68 S0 1.508336 1_555
O68 Ti4 2.188964 1_555
O69 Si2 1.698746 1_555
O69 Ti5 1.832983 1_555
O70 S1 1.513697 1_555
O70 Ti5 2.233640 1_555
O71 Si3 1.696848 1_565
O71 Ti5 1.781139 1_555
