# generated using pymatgen
data_Ag2TeS3
_symmetry_space_group_name_H-M   'P 1'
_cell_length_a   6.70829113
_cell_length_b   6.70829192
_cell_length_c   7.99419316
_cell_angle_alpha   102.83216966
_cell_angle_beta   102.83217877
_cell_angle_gamma   118.80392832
_symmetry_Int_Tables_number   1
_chemical_formula_structural   Ag2TeS3
_chemical_formula_sum   'Ag4 Te2 S6'
_cell_volume   283.64708953
_cell_formula_units_Z   2
loop_
 _symmetry_equiv_pos_site_id
 _symmetry_equiv_pos_as_xyz
  1  'x, y, z'
loop_
 _atom_site_type_symbol
 _atom_site_label
 _atom_site_symmetry_multiplicity
 _atom_site_fract_x
 _atom_site_fract_y
 _atom_site_fract_z
 _atom_site_occupancy
  Ag  Ag0  1  0.50724058  0.07000052  0.87236635  1
  Ag  Ag1  1  0.83373450  0.73700493  0.91767536  1
  Ag  Ag2  1  0.07000052  0.50724058  0.37236635  1
  Ag  Ag3  1  0.73700493  0.83373450  0.41767536  1
  Te  Te0  1  0.19400755  0.40442392  0.90161631  1
  Te  Te1  1  0.40442392  0.19400755  0.40161631  1
  S  S0  1  0.93739416  0.19488218  0.05405140  1
  S  S1  1  0.19488218  0.93739416  0.55405140  1
  S  S2  1  0.78708075  0.24261637  0.51696640  1
  S  S3  1  0.24261637  0.78708075  0.01696640  1
  S  S4  1  0.50554328  0.58367125  0.59632517  1
  S  S5  1  0.58367125  0.50554328  0.09632517  1
loop_
_geom_bond_atom_site_label_1
_geom_bond_atom_site_label_2
_geom_bond_distance
_geom_bond_site_symmetry_2
Ag0 S0 2.531091 1_556
Ag0 S1 2.546997 1_545
Ag0 S3 2.594029 1_546
Ag0 S5 2.798222 1_556
Ag1 S3 2.508578 1_656
Ag1 S4 2.576103 1_555
Ag1 S5 2.608409 1_556
Ag1 S0 2.687800 1_566
Ag2 S1 2.531091 1_555
Ag2 S0 2.546997 1_455
Ag2 S2 2.594029 1_455
Ag2 S4 2.798221 1_555
Ag3 S2 2.508578 1_565
Ag3 S5 2.576103 1_555
Ag3 S4 2.608409 1_555
Ag3 S1 2.687799 1_655
S0 Te0 2.405232 1_654
S1 Te1 2.405232 1_565
S2 Te1 2.356778 1_555
S3 Te0 2.356779 1_554
S4 Te1 2.393921 1_555
S5 Te0 2.393920 1_554
