# generated using pymatgen
data_NaHfAlSi(SO6)2
_symmetry_space_group_name_H-M   'P 1'
_cell_length_a   8.68660418
_cell_length_b   8.69710012
_cell_length_c   22.59838346
_cell_angle_alpha   89.15076716
_cell_angle_beta   90.00000000
_cell_angle_gamma   119.96008634
_symmetry_Int_Tables_number   1
_chemical_formula_structural   NaHfAlSi(SO6)2
_chemical_formula_sum   'Na6 Hf6 Al6 Si6 S12 O72'
_cell_volume   1478.91590264
_cell_formula_units_Z   6
loop_
 _symmetry_equiv_pos_site_id
 _symmetry_equiv_pos_as_xyz
  1  'x, y, z'
loop_
 _atom_site_type_symbol
 _atom_site_label
 _atom_site_symmetry_multiplicity
 _atom_site_fract_x
 _atom_site_fract_y
 _atom_site_fract_z
 _atom_site_occupancy
  Na  Na0  1  0.02418800  0.01798573  0.50522089  1
  Na  Na1  1  0.99379773  0.01798573  0.00522089  1
  Na  Na2  1  0.68308106  0.32705706  0.83690736  1
  Na  Na3  1  0.64397700  0.32705706  0.33690736  1
  Na  Na4  1  0.34530506  0.69109684  0.17065475  1
  Na  Na5  1  0.34579078  0.69109684  0.67065475  1
  Hf  Hf0  1  0.01508462  0.00970286  0.35575793  1
  Hf  Hf1  1  0.99461824  0.00970286  0.85575793  1
  Hf  Hf2  1  0.65765812  0.31359792  0.68815043  1
  Hf  Hf3  1  0.65594080  0.31359792  0.18815043  1
  Hf  Hf4  1  0.33517882  0.66602532  0.02153552  1
  Hf  Hf5  1  0.33084550  0.66602532  0.52153552  1
  Al  Al0  1  0.99384486  0.99328526  0.64837408  1
  Al  Al1  1  0.99944040  0.99328526  0.14837408  1
  Al  Al2  1  0.69467191  0.32456401  0.98032816  1
  Al  Al3  1  0.62989310  0.32456401  0.48032816  1
  Al  Al4  1  0.33913383  0.67054290  0.31292908  1
  Al  Al5  1  0.33140807  0.67054290  0.81292908  1
  Si  Si0  1  0.27792513  0.97863484  0.24765139  1
  Si  Si1  1  0.70070971  0.97863484  0.74765139  1
  Si  Si2  1  0.35848981  0.04298632  0.58337772  1
  Si  Si3  1  0.68449751  0.04298632  0.08337772  1
  Si  Si4  1  0.04619325  0.39220620  0.91390638  1
  Si  Si5  1  0.34601195  0.39220620  0.41390638  1
  S  S0  1  0.70871123  0.71652600  0.24931282  1
  S  S1  1  0.01166219  0.29516929  0.24836033  1
  S  S2  1  0.28350710  0.29516929  0.74836033  1
  S  S3  1  0.00781477  0.71652600  0.74931282  1
  S  S4  1  0.94539231  0.32235111  0.58111367  1
  S  S5  1  0.67740388  0.62552018  0.58170917  1
  S  S6  1  0.94811730  0.62552018  0.08170917  1
  S  S7  1  0.37695980  0.32235111  0.08111367  1
  S  S8  1  0.61776625  0.65163855  0.91618773  1
  S  S9  1  0.34536228  0.96314662  0.91509559  1
  S  S10  1  0.61778333  0.96314662  0.41509559  1
  S  S11  1  0.03387130  0.65163855  0.41618773  1
  O  O0  1  0.19383355  0.01547666  0.30670270  1
  O  O1  1  0.81266299  0.79608163  0.30326793  1
  O  O2  1  0.97040047  0.18248052  0.30290790  1
  O  O3  1  0.21208005  0.18248052  0.80290790  1
  O  O4  1  0.98341865  0.79608163  0.80326793  1
  O  O5  1  0.82164311  0.01547666  0.80670270  1
  O  O6  1  0.80413275  0.96186675  0.69024579  1
  O  O7  1  0.17758677  0.20647805  0.69618953  1
  O  O8  1  0.03355823  0.82654661  0.69581549  1
  O  O9  1  0.79298837  0.82654661  0.19581549  1
  O  O10  1  0.02889128  0.20647805  0.19618953  1
  O  O11  1  0.15773401  0.96186675  0.19024579  1
  O  O12  1  0.87134553  0.35685965  0.63546506  1
  O  O13  1  0.48509630  0.12885863  0.64136475  1
  O  O14  1  0.65060934  0.51957354  0.63620186  1
  O  O15  1  0.86896520  0.51957354  0.13620186  1
  O  O16  1  0.64376333  0.12885863  0.14136475  1
  O  O17  1  0.48551513  0.35685965  0.13546506  1
  O  O18  1  0.46777589  0.30845928  0.02837697  1
  O  O19  1  0.84016164  0.53961923  0.02882329  1
  O  O20  1  0.70725758  0.16553597  0.02524851  1
  O  O21  1  0.45827939  0.16553597  0.52524851  1
  O  O22  1  0.69945860  0.53961923  0.52882329  1
  O  O23  1  0.84068439  0.30845928  0.52837697  1
  O  O24  1  0.54532938  0.69398225  0.96945767  1
  O  O25  1  0.16108141  0.47441499  0.97362254  1
  O  O26  1  0.31776108  0.85485182  0.96960985  1
  O  O27  1  0.53708974  0.85485182  0.46960985  1
  O  O28  1  0.31333258  0.47441499  0.47362254  1
  O  O29  1  0.14865187  0.69398225  0.46945767  1
  O  O30  1  0.12232216  0.63682004  0.36304065  1
  O  O31  1  0.50840008  0.88276855  0.36234582  1
  O  O32  1  0.36268675  0.51323123  0.35637825  1
  O  O33  1  0.15054348  0.51323123  0.85637825  1
  O  O34  1  0.37436747  0.88276855  0.86234582  1
  O  O35  1  0.51449688  0.63682004  0.86304065  1
  O  O36  1  0.00238554  0.80613371  0.41101465  1
  O  O37  1  0.79292211  0.97291179  0.40960119  1
  O  O38  1  0.16823697  0.19079936  0.41095973  1
  O  O39  1  0.02256240  0.19079936  0.91095973  1
  O  O40  1  0.17998968  0.97291179  0.90960119  1
  O  O41  1  0.80374817  0.80613371  0.91101465  1
  O  O42  1  0.96101071  0.16272498  0.58888162  1
  O  O43  1  0.16624947  0.02648408  0.59600706  1
  O  O44  1  0.83438610  0.80327769  0.58687547  1
  O  O45  1  0.96889159  0.80327769  0.08687547  1
  O  O46  1  0.86023461  0.02648408  0.09600706  1
  O  O47  1  0.20171427  0.16272498  0.08888162  1
  O  O48  1  0.68452920  0.16035186  0.74508321  1
  O  O49  1  0.46877392  0.32503478  0.74343937  1
  O  O50  1  0.84592656  0.53840987  0.74356770  1
  O  O51  1  0.69248431  0.53840987  0.24356770  1
  O  O52  1  0.85626186  0.32503478  0.24343937  1
  O  O53  1  0.47582366  0.16035186  0.24508321  1
  O  O54  1  0.62582108  0.48862288  0.92615965  1
  O  O55  1  0.84987493  0.37214639  0.92146603  1
  O  O56  1  0.49846919  0.14330299  0.92288056  1
  O  O57  1  0.64483480  0.14330299  0.42288056  1
  O  O58  1  0.52227246  0.37214639  0.42146603  1
  O  O59  1  0.86280279  0.48862288  0.42615965  1
  O  O60  1  0.35316135  0.48135674  0.07714139  1
  O  O61  1  0.12895915  0.64412084  0.07695954  1
  O  O62  1  0.50660817  0.84597960  0.07791150  1
  O  O63  1  0.33937043  0.84597960  0.57791150  1
  O  O64  1  0.51516069  0.64412084  0.57695954  1
  O  O65  1  0.12819439  0.48135674  0.57714139  1
  O  O66  1  0.30357541  0.80781219  0.25999728  1
  O  O67  1  0.52977681  0.69652642  0.25509805  1
  O  O68  1  0.17291661  0.46806145  0.25531843  1
  O  O69  1  0.29514384  0.46806145  0.75531843  1
  O  O70  1  0.16674861  0.69652642  0.75509805  1
  O  O71  1  0.50423578  0.80781219  0.75999728  1
loop_
_geom_bond_atom_site_label_1
_geom_bond_atom_site_label_2
_geom_bond_distance
_geom_bond_site_symmetry_2
Na0 O43 2.377150 1_555
Na0 O42 2.494130 1_455
Na0 O38 2.527631 1_555
Na0 O44 2.536355 1_445
Na0 O36 2.780408 1_545
Na0 O37 2.845563 1_445
Na1 O46 2.377150 1_555
Na1 O47 2.494130 1_655
Na1 O39 2.527631 1_654
Na1 O45 2.536355 1_545
Na1 O41 2.780408 1_544
Na1 O40 2.845563 1_644
Na2 O55 2.315002 1_555
Na2 O56 2.499722 1_555
Na2 O48 2.552562 1_555
Na2 O54 2.659335 1_555
Na2 O50 2.667787 1_555
Na2 O49 2.809940 1_555
Na3 O58 2.315002 1_555
Na3 O57 2.499722 1_555
Na3 O53 2.552562 1_555
Na3 O59 2.659335 1_555
Na3 O51 2.667787 1_555
Na3 O52 2.809940 1_555
Na4 O66 2.380422 1_555
Na4 O67 2.477631 1_555
Na4 O62 2.490287 1_555
Na4 O68 2.579617 1_555
Na4 O61 2.727766 1_555
Na4 O60 2.834880 1_555
Na5 O71 2.380422 1_555
Na5 O70 2.477631 1_555
Na5 O63 2.490287 1_555
Na5 O69 2.579617 1_555
Na5 O64 2.727766 1_555
Na5 O65 2.834880 1_555
Hf0 O0 1.887555 1_555
Hf0 O38 1.942206 1_555
Hf0 O2 2.089124 1_455
Hf0 O36 2.108408 1_545
Hf0 O37 2.163075 1_445
Hf0 O1 2.180148 1_445
Hf1 O5 1.887555 1_555
Hf1 O39 1.942206 1_655
Hf1 O3 2.089124 1_655
Hf1 O41 2.108408 1_545
Hf1 O40 2.163075 1_645
Hf1 O4 2.180148 1_545
Hf2 O13 1.895022 1_555
Hf2 O48 1.935468 1_555
Hf2 O12 2.072150 1_555
Hf2 O49 2.104706 1_555
Hf2 O14 2.153651 1_555
Hf2 O50 2.223657 1_555
Hf3 O16 1.895022 1_555
Hf3 O53 1.935468 1_555
Hf3 O17 2.072150 1_555
Hf3 O52 2.104706 1_555
Hf3 O15 2.153651 1_555
Hf3 O51 2.223657 1_555
Hf4 O25 1.942383 1_554
Hf4 O62 2.005342 1_555
Hf4 O26 2.070714 1_554
Hf4 O24 2.079611 1_554
Hf4 O60 2.091340 1_555
Hf4 O61 2.113300 1_555
Hf5 O28 1.942383 1_555
Hf5 O63 2.005342 1_555
Hf5 O27 2.070714 1_555
Hf5 O29 2.079611 1_555
Hf5 O65 2.091340 1_555
Hf5 O64 2.113300 1_555
Al0 O6 1.796761 1_555
Al0 O43 1.812359 1_665
Al0 O8 1.955733 1_655
Al0 O7 2.063144 1_665
Al0 O44 2.088724 1_555
Al0 O42 2.102741 1_565
Al1 O11 1.796761 1_655
Al1 O46 1.812359 1_565
Al1 O9 1.955733 1_555
Al1 O10 2.063144 1_665
Al1 O45 2.088724 1_555
Al1 O47 2.102741 1_665
Al2 O20 1.750646 1_556
Al2 O55 1.784574 1_555
Al2 O19 1.999077 1_556
Al2 O56 2.110080 1_555
Al2 O54 2.166239 1_555
Al2 O18 2.191590 1_556
Al3 O21 1.750646 1_555
Al3 O58 1.784574 1_555
Al3 O22 1.999077 1_555
Al3 O57 2.110080 1_555
Al3 O59 2.166239 1_555
Al3 O23 2.191590 1_555
Al4 O32 1.765661 1_555
Al4 O66 1.810382 1_555
Al4 O67 2.029521 1_555
Al4 O31 2.041151 1_555
Al4 O30 2.086606 1_555
Al4 O68 2.099813 1_555
Al5 O33 1.765661 1_555
Al5 O71 1.810382 1_555
Al5 O70 2.029521 1_555
Al5 O34 2.041151 1_555
Al5 O35 2.086606 1_555
Al5 O69 2.099813 1_555
O0 Si0 1.632022 1_545
O1 S0 1.477087 1_555
O2 S1 1.490586 1_655
O3 S2 1.490586 1_555
O4 S3 1.477087 1_655
O5 Si1 1.632022 1_545
O6 Si1 1.627196 1_555
O7 S2 1.466163 1_555
O8 S3 1.476194 1_555
O9 S0 1.476194 1_555
O10 S1 1.466163 1_555
O11 Si0 1.627196 1_555
O12 S4 1.488672 1_555
O13 Si2 1.641070 1_555
O14 S5 1.473711 1_555
O15 S6 1.473711 1_555
O16 Si3 1.641070 1_555
O17 S7 1.488672 1_555
O18 S7 1.468571 1_555
O19 S6 1.480749 1_555
O20 Si3 1.627488 1_555
O21 Si2 1.627488 1_555
O22 S5 1.480749 1_555
O23 S4 1.468571 1_555
O24 S8 1.491747 1_555
O25 Si4 1.626105 1_555
O26 S9 1.484011 1_555
O27 S10 1.484011 1_555
O28 Si5 1.626105 1_555
O29 S11 1.491747 1_555
O30 S11 1.467288 1_555
O31 S10 1.474377 1_555
O32 Si5 1.620540 1_555
O33 Si4 1.620540 1_555
O34 S9 1.474377 1_555
O35 S8 1.467288 1_555
O36 S11 1.502095 1_555
O37 S10 1.485869 1_555
O38 Si5 1.661078 1_555
O39 Si4 1.661082 1_555
O40 S9 1.485860 1_555
O41 S8 1.502101 1_555
O42 S4 1.468827 1_555
O43 Si2 1.627906 1_555
O44 S5 1.470689 1_555
O45 S6 1.470693 1_555
O46 Si3 1.627897 1_555
O47 S7 1.468832 1_555
O48 Si1 1.655285 1_545
O49 S2 1.500480 1_555
O50 S3 1.491400 1_655
O51 S0 1.491404 1_555
O52 S1 1.500471 1_655
O53 Si0 1.655290 1_545
O54 S8 1.468108 1_555
O55 Si4 1.633941 1_655
O56 S9 1.477024 1_545
O57 S10 1.477018 1_545
O58 Si5 1.633958 1_555
O59 S11 1.468099 1_655
O60 S7 1.498342 1_555
O61 S6 1.500362 1_455
O62 Si3 1.643355 1_565
O63 Si2 1.643348 1_565
O64 S5 1.500379 1_555
O65 S4 1.498332 1_455
O66 Si0 1.628808 1_555
O67 S0 1.480740 1_555
O68 S1 1.466671 1_555
O69 S2 1.466674 1_555
O70 S3 1.480731 1_555
O71 Si1 1.628813 1_555
