# generated using pymatgen
data_Li2Bi(PO4)2
_symmetry_space_group_name_H-M   'P 1'
_cell_length_a   8.59342358
_cell_length_b   8.59342358
_cell_length_c   7.87490400
_cell_angle_alpha   90.00000000
_cell_angle_beta   90.00000000
_cell_angle_gamma   119.99999674
_symmetry_Int_Tables_number   1
_chemical_formula_structural   Li2Bi(PO4)2
_chemical_formula_sum   'Li6 Bi3 P6 O24'
_cell_volume   503.62624287
_cell_formula_units_Z   3
loop_
 _symmetry_equiv_pos_site_id
 _symmetry_equiv_pos_as_xyz
  1  'x, y, z'
loop_
 _atom_site_type_symbol
 _atom_site_label
 _atom_site_symmetry_multiplicity
 _atom_site_fract_x
 _atom_site_fract_y
 _atom_site_fract_z
 _atom_site_occupancy
  Li  Li0  1  0.64484700  0.64460200  0.36538000  1
  Li  Li1  1  0.00000000  0.00000000  0.50247200  1
  Li  Li2  1  0.33333300  0.66666700  0.61664500  1
  Li  Li3  1  0.99975500  0.35515300  0.36538000  1
  Li  Li4  1  0.35539800  0.00024500  0.36538000  1
  Li  Li5  1  0.66666700  0.33333300  0.53657400  1
  Bi  Bi0  1  0.33333300  0.66666700  0.00056100  1
  Bi  Bi1  1  0.00000000  0.00000000  0.93678700  1
  Bi  Bi2  1  0.66666700  0.33333300  0.06143000  1
  P  P0  1  0.69230700  0.98095400  0.24284600  1
  P  P1  1  0.98227000  0.34703900  0.75253800  1
  P  P2  1  0.28864800  0.30769300  0.24284600  1
  P  P3  1  0.65296100  0.63523100  0.75253800  1
  P  P4  1  0.01904600  0.71135200  0.24284600  1
  P  P5  1  0.36476900  0.01773000  0.75253800  1
  O  O0  1  0.90661700  0.37256700  0.58658000  1
  O  O1  1  0.21767600  0.07545000  0.75598700  1
  O  O2  1  0.27650400  0.81182600  0.76393500  1
  O  O3  1  0.40663600  0.51662800  0.22871300  1
  O  O4  1  0.42029700  0.23064200  0.25294300  1
  O  O5  1  0.60034600  0.51061100  0.91195200  1
  O  O6  1  0.62743300  0.53404900  0.58658000  1
  O  O7  1  0.46595100  0.09338300  0.58658000  1
  O  O8  1  0.48938900  0.08973600  0.91195200  1
  O  O9  1  0.81034400  0.57970300  0.25294300  1
  O  O10  1  0.48337200  0.89000800  0.22871300  1
  O  O11  1  0.08786900  0.84416800  0.38963300  1
  O  O12  1  0.53532200  0.72349600  0.76393500  1
  O  O13  1  0.76935800  0.18965600  0.25294300  1
  O  O14  1  0.91026400  0.39965400  0.91195200  1
  O  O15  1  0.74846800  0.93008200  0.06771600  1
  O  O16  1  0.75629900  0.91213100  0.38963300  1
  O  O17  1  0.10999200  0.59336400  0.22871300  1
  O  O18  1  0.92455000  0.14222500  0.75598700  1
  O  O19  1  0.18817400  0.46467800  0.76393500  1
  O  O20  1  0.85777500  0.78232400  0.75598700  1
  O  O21  1  0.15583200  0.24370100  0.38963300  1
  O  O22  1  0.18161300  0.25153200  0.06771600  1
  O  O23  1  0.06991800  0.81838700  0.06771600  1
loop_
_geom_bond_atom_site_label_1
_geom_bond_atom_site_label_2
_geom_bond_distance
_geom_bond_site_symmetry_2
Li0 O6 1.953739 1_555
Li0 O9 1.977573 1_555
Li0 O16 2.009293 1_555
Li0 O3 2.075308 1_555
Li1 O11 2.040641 1_545
Li1 O16 2.040641 1_445
Li1 O21 2.040641 1_555
Li1 O18 2.586937 1_455
Li1 O20 2.586941 1_445
Li1 O1 2.586942 1_555
Li2 O2 1.936251 1_555
Li2 O19 1.936256 1_555
Li2 O12 1.936257 1_555
Li3 O0 1.953735 1_555
Li3 O13 1.977578 1_555
Li3 O21 2.009293 1_655
Li3 O17 2.075308 1_655
Li4 O7 1.953738 1_555
Li4 O4 1.977580 1_555
Li4 O11 2.009293 1_545
Li4 O10 2.075308 1_545
Li5 O6 1.955849 1_555
Li5 O0 1.955849 1_555
Li5 O7 1.955849 1_555
Bi0 O2 2.424046 1_554
Bi0 O19 2.424050 1_554
Bi0 O12 2.424051 1_554
Bi0 O17 2.469702 1_555
Bi0 O10 2.469703 1_555
Bi0 O3 2.469708 1_555
Bi1 O18 2.175721 1_455
Bi1 O20 2.175726 1_445
Bi1 O1 2.175727 1_555
Bi1 O23 2.190319 1_546
Bi1 O22 2.190324 1_556
Bi1 O15 2.190326 1_446
Bi2 O14 2.213467 1_554
Bi2 O8 2.213471 1_554
Bi2 O5 2.213481 1_554
Bi2 O13 2.380598 1_555
Bi2 O9 2.380608 1_555
Bi2 O4 2.380610 1_555
O0 P1 1.523612 1_555
O1 P5 1.572107 1_555
O2 P5 1.540169 1_565
O3 P2 1.563222 1_555
O4 P2 1.572799 1_555
O5 P3 1.563021 1_555
O6 P3 1.523616 1_555
O7 P5 1.523615 1_555
O8 P5 1.563022 1_555
O9 P4 1.572812 1_655
O10 P0 1.563223 1_555
O11 P4 1.521057 1_555
O12 P3 1.540169 1_555
O13 P0 1.572815 1_545
O14 P1 1.563026 1_555
O15 P0 1.592802 1_555
O16 P0 1.521052 1_555
O17 P4 1.563215 1_555
O18 P1 1.572115 1_555
O19 P1 1.540169 1_455
O20 P3 1.572113 1_555
O21 P2 1.521057 1_555
O22 P2 1.592809 1_555
O23 P4 1.592809 1_555
