# generated using pymatgen
data_Ba(MgPb)2
_symmetry_space_group_name_H-M   'P 1'
_cell_length_a   4.97817386
_cell_length_b   4.97817386
_cell_length_c   12.31707137
_cell_angle_alpha   90.00000000
_cell_angle_beta   90.00000000
_cell_angle_gamma   90.00000000
_symmetry_Int_Tables_number   1
_chemical_formula_structural   Ba(MgPb)2
_chemical_formula_sum   'Ba2 Mg4 Pb4'
_cell_volume   305.24431062
_cell_formula_units_Z   2
loop_
 _symmetry_equiv_pos_site_id
 _symmetry_equiv_pos_as_xyz
  1  'x, y, z'
loop_
 _atom_site_type_symbol
 _atom_site_label
 _atom_site_symmetry_multiplicity
 _atom_site_fract_x
 _atom_site_fract_y
 _atom_site_fract_z
 _atom_site_occupancy
  Ba  Ba0  1  0.25000000  0.25000000  0.24945630  1
  Ba  Ba1  1  0.75000000  0.75000000  0.75054370  1
  Mg  Mg0  1  0.75000000  0.75000000  0.36452166  1
  Mg  Mg1  1  0.25000000  0.25000000  0.63547834  1
  Mg  Mg2  1  0.75000000  0.25000000  -0.00000000  1
  Mg  Mg3  1  0.25000000  0.75000000  -0.00000000  1
  Pb  Pb0  1  0.75000000  0.25000000  0.50000000  1
  Pb  Pb1  1  0.25000000  0.75000000  0.50000000  1
  Pb  Pb2  1  0.25000000  0.25000000  0.86635111  1
  Pb  Pb3  1  0.75000000  0.75000000  0.13364889  1
loop_
_geom_bond_atom_site_label_1
_geom_bond_atom_site_label_2
_geom_bond_distance
_geom_bond_site_symmetry_2
Ba0 Mg0 3.794701 1_455
Ba0 Mg0 3.794701 1_555
Ba0 Mg0 3.794701 1_445
Ba0 Mg0 3.794701 1_545
Ba0 Pb3 3.798124 1_545
Ba0 Pb3 3.798124 1_555
Ba0 Pb3 3.798124 1_455
Ba0 Pb3 3.798124 1_445
Ba0 Mg2 3.954269 1_555
Ba0 Mg3 3.954269 1_545
Ba0 Mg3 3.954269 1_555
Ba0 Mg2 3.954269 1_455
Ba0 Pb1 3.964686 1_555
Ba0 Pb1 3.964686 1_545
Ba0 Pb0 3.964686 1_455
Ba0 Pb0 3.964686 1_555
Ba1 Mg1 3.794701 1_555
Ba1 Mg1 3.794701 1_655
Ba1 Mg1 3.794701 1_565
Ba1 Mg1 3.794701 1_665
Ba1 Pb2 3.798124 1_565
Ba1 Pb2 3.798124 1_655
Ba1 Pb2 3.798124 1_665
Ba1 Pb2 3.798124 1_555
Ba1 Mg3 3.954269 1_656
Ba1 Mg2 3.954269 1_566
Ba1 Mg2 3.954269 1_556
Ba1 Mg3 3.954269 1_556
Ba1 Pb1 3.964686 1_555
Ba1 Pb0 3.964686 1_555
Ba1 Pb0 3.964686 1_565
Ba1 Pb1 3.964686 1_655
Mg0 Pb3 2.843676 1_555
Mg0 Pb0 2.996682 1_565
Mg0 Pb0 2.996682 1_555
Mg0 Pb1 2.996682 1_655
Mg0 Pb1 2.996682 1_555
Mg1 Pb2 2.843676 1_555
Mg1 Pb0 2.996682 1_555
Mg1 Pb0 2.996682 1_455
Mg1 Pb1 2.996682 1_545
Mg1 Pb1 2.996682 1_555
Mg2 Pb2 2.984193 1_654
Mg2 Pb3 2.984193 1_545
Mg2 Pb3 2.984193 1_555
Mg2 Pb2 2.984193 1_554
Mg3 Pb2 2.984193 1_564
Mg3 Pb3 2.984193 1_555
Mg3 Pb2 2.984193 1_554
Mg3 Pb3 2.984193 1_455
