# generated using pymatgen
data_La2InCuSe5
_symmetry_space_group_name_H-M   'P 1'
_cell_length_a   4.13940900
_cell_length_b   12.25927300
_cell_length_c   17.59535400
_cell_angle_alpha   90.00000000
_cell_angle_beta   90.00000000
_cell_angle_gamma   90.00000000
_symmetry_Int_Tables_number   1
_chemical_formula_structural   La2InCuSe5
_chemical_formula_sum   'La8 In4 Cu4 Se20'
_cell_volume   892.89638523
_cell_formula_units_Z   4
loop_
 _symmetry_equiv_pos_site_id
 _symmetry_equiv_pos_as_xyz
  1  'x, y, z'
loop_
 _atom_site_type_symbol
 _atom_site_label
 _atom_site_symmetry_multiplicity
 _atom_site_fract_x
 _atom_site_fract_y
 _atom_site_fract_z
 _atom_site_occupancy
  La  La0  1  0.25000000  0.13726400  0.40668200  1
  La  La1  1  0.75000000  0.86273600  0.59331800  1
  La  La2  1  0.25000000  0.63726400  0.09331800  1
  La  La3  1  0.75000000  0.36273600  0.90668200  1
  La  La4  1  0.25000000  0.47793300  0.32178400  1
  La  La5  1  0.75000000  0.52206700  0.67821600  1
  La  La6  1  0.25000000  0.97793300  0.17821600  1
  La  La7  1  0.75000000  0.02206700  0.82178400  1
  In  In0  1  0.25000000  0.19107400  0.63893600  1
  In  In1  1  0.75000000  0.80892600  0.36106400  1
  In  In2  1  0.25000000  0.69107400  0.86106400  1
  In  In3  1  0.75000000  0.30892600  0.13893600  1
  Cu  Cu0  1  0.75000000  0.92405000  0.99790700  1
  Cu  Cu1  1  0.25000000  0.57595000  0.49790700  1
  Cu  Cu2  1  0.75000000  0.42405000  0.50209300  1
  Cu  Cu3  1  0.25000000  0.07595000  0.00209300  1
  Se  Se0  1  0.25000000  0.48390500  0.80531500  1
  Se  Se1  1  0.75000000  0.51609500  0.19468500  1
  Se  Se2  1  0.25000000  0.98390500  0.69468500  1
  Se  Se3  1  0.75000000  0.01609500  0.30531500  1
  Se  Se4  1  0.25000000  0.39254400  0.03667300  1
  Se  Se5  1  0.75000000  0.60745600  0.96332700  1
  Se  Se6  1  0.25000000  0.89254400  0.46332700  1
  Se  Se7  1  0.75000000  0.10745600  0.53667300  1
  Se  Se8  1  0.25000000  0.18188900  0.88607100  1
  Se  Se9  1  0.75000000  0.31811100  0.38607100  1
  Se  Se10  1  0.25000000  0.68188900  0.61392900  1
  Se  Se11  1  0.75000000  0.81811100  0.11392900  1
  Se  Se12  1  0.75000000  0.10105900  0.07670000  1
  Se  Se13  1  0.25000000  0.89894100  0.92330000  1
  Se  Se14  1  0.75000000  0.60105900  0.42330000  1
  Se  Se15  1  0.25000000  0.39894100  0.57670000  1
  Se  Se16  1  0.75000000  0.26001700  0.72893500  1
  Se  Se17  1  0.25000000  0.73998300  0.27106500  1
  Se  Se18  1  0.75000000  0.76001700  0.77106500  1
  Se  Se19  1  0.25000000  0.23998300  0.22893500  1
loop_
_geom_bond_atom_site_label_1
_geom_bond_atom_site_label_2
_geom_bond_distance
_geom_bond_site_symmetry_2
La0 Se9 3.054590 1_555
La0 Se9 3.054590 1_455
La0 Se7 3.106230 1_555
La0 Se7 3.106230 1_455
La0 Se3 3.109889 1_555
La0 Se3 3.109889 1_455
La0 Se6 3.161317 1_545
La0 Se19 3.371517 1_555
La1 Se10 3.054590 1_555
La1 Se10 3.054590 1_655
La1 Se6 3.106230 1_655
La1 Se6 3.106230 1_555
La1 Se2 3.109889 1_655
La1 Se2 3.109889 1_555
La1 Se7 3.161317 1_565
La1 Se18 3.371517 1_555
La2 Se11 3.054590 1_455
La2 Se11 3.054590 1_555
La2 Se5 3.106230 1_554
La2 Se5 3.106230 1_454
La2 Se1 3.109889 1_455
La2 Se1 3.109889 1_555
La2 Se4 3.161317 1_555
La2 Se17 3.371517 1_555
La3 Se8 3.054590 1_555
La3 Se8 3.054590 1_655
La3 Se4 3.106230 1_656
La3 Se4 3.106230 1_556
La3 Se0 3.109889 1_655
La3 Se0 3.109889 1_555
La3 Se5 3.161317 1_555
La3 Se16 3.371517 1_555
La4 Se9 3.066275 1_455
La4 Se9 3.066275 1_555
La4 Se1 3.082827 1_555
La4 Se1 3.082827 1_455
La4 Se14 3.122918 1_455
La4 Se14 3.122918 1_555
La4 Se17 3.334193 1_555
La4 Se19 3.343419 1_555
La5 Se10 3.066275 1_555
La5 Se10 3.066275 1_655
La5 Se0 3.082827 1_555
La5 Se0 3.082827 1_655
La5 Se15 3.122918 1_555
La5 Se15 3.122918 1_655
La5 Se16 3.334193 1_555
La5 Se18 3.343419 1_555
La6 Se11 3.066275 1_455
La6 Se11 3.066275 1_555
La6 Se3 3.082827 1_465
La6 Se3 3.082827 1_565
La6 Se12 3.122918 1_465
La6 Se12 3.122918 1_565
La6 Se19 3.334193 1_565
La6 Se17 3.343419 1_555
La7 Se8 3.066275 1_555
La7 Se8 3.066275 1_655
La7 Se2 3.082827 1_545
La7 Se2 3.082827 1_645
La7 Se13 3.122918 1_545
La7 Se13 3.122918 1_645
La7 Se18 3.334193 1_545
La7 Se16 3.343419 1_555
In0 Se2 2.722590 1_545
In0 Se16 2.739653 1_455
In0 Se16 2.739653 1_555
In0 Se15 2.773624 1_555
In0 Se7 2.927827 1_455
In0 Se7 2.927827 1_555
In1 Se3 2.722590 1_565
In1 Se17 2.739653 1_555
In1 Se17 2.739653 1_655
In1 Se14 2.773624 1_555
In1 Se6 2.927827 1_655
In1 Se6 2.927827 1_555
In2 Se0 2.722590 1_555
In2 Se18 2.739653 1_455
In2 Se18 2.739653 1_555
In2 Se13 2.773624 1_555
In2 Se5 2.927827 1_555
In2 Se5 2.927827 1_455
In3 Se1 2.722590 1_555
In3 Se19 2.739653 1_555
In3 Se19 2.739653 1_655
In3 Se12 2.773624 1_555
In3 Se4 2.927827 1_555
In3 Se4 2.927827 1_655
Cu0 Se11 2.419550 1_556
Cu0 Se13 2.470163 1_555
Cu0 Se13 2.470163 1_655
Cu0 Se12 2.575070 1_566
Cu0 La7 3.323756 1_565
Cu1 Se10 2.419550 1_555
Cu1 Se14 2.470163 1_455
Cu1 Se14 2.470163 1_555
Cu1 Se15 2.575070 1_555
Cu1 La4 3.323756 1_555
Cu2 Se9 2.419550 1_555
Cu2 Se15 2.470163 1_555
Cu2 Se15 2.470163 1_655
Cu2 Se14 2.575070 1_555
Cu2 La5 3.323756 1_555
Cu3 Se8 2.419550 1_554
Cu3 Se12 2.470163 1_455
Cu3 Se12 2.470163 1_555
Cu3 Se13 2.575070 1_544
Cu3 La6 3.323756 1_545
