# generated using pymatgen
data_Nd4Mg(CuO4)2
_symmetry_space_group_name_H-M   'P 1'
_cell_length_a   6.85834482
_cell_length_b   6.40229481
_cell_length_c   7.04192083
_cell_angle_alpha   103.25911425
_cell_angle_beta   119.14131780
_cell_angle_gamma   61.90149932
_symmetry_Int_Tables_number   1
_chemical_formula_structural   Nd4Mg(CuO4)2
_chemical_formula_sum   'Nd4 Mg1 Cu2 O8'
_cell_volume   238.23579295
_cell_formula_units_Z   1
loop_
 _symmetry_equiv_pos_site_id
 _symmetry_equiv_pos_as_xyz
  1  'x, y, z'
loop_
 _atom_site_type_symbol
 _atom_site_label
 _atom_site_symmetry_multiplicity
 _atom_site_fract_x
 _atom_site_fract_y
 _atom_site_fract_z
 _atom_site_occupancy
  Nd  Nd0  1  0.27640506  0.95144209  0.71867431  1
  Nd  Nd1  1  0.68668804  0.06704890  0.24581732  1
  Nd  Nd2  1  0.05912828  0.43295110  0.24581732  1
  Nd  Nd3  1  0.94227025  0.54855791  0.71867431  1
  Mg  Mg0  1  0.62929900  0.25000000  0.75859800  1
  Cu  Cu0  1  0.11827726  0.84830990  0.12723729  1
  Cu  Cu1  1  0.50896003  0.65169010  0.12723729  1
  O  O0  1  0.25565379  0.25000000  0.01130857  1
  O  O1  1  0.19200265  0.75000000  0.88400430  1
  O  O2  1  0.70224754  0.75000000  0.90449407  1
  O  O3  1  0.78700942  0.25000000  0.07401985  1
  O  O4  1  0.11648741  0.79894391  0.37747065  1
  O  O5  1  0.79753292  0.23444675  0.58958804  1
  O  O6  1  0.76098324  0.70105609  0.37747065  1
  O  O7  1  0.29205511  0.26555325  0.58958804  1
loop_
_geom_bond_atom_site_label_1
_geom_bond_atom_site_label_2
_geom_bond_distance
_geom_bond_site_symmetry_2
Nd0 O4 2.301155 1_555
Nd0 O1 2.324263 1_555
Nd0 O2 2.325792 1_555
Nd0 O7 2.453361 1_565
Nd0 O0 2.478502 1_566
Nd0 O5 2.671723 1_465
Nd1 O5 2.317725 1_555
Nd1 O3 2.351332 1_555
Nd1 O0 2.389373 1_555
Nd1 O4 2.407718 1_645
Nd1 O6 2.453857 1_545
Nd1 O2 2.777872 1_544
Nd2 O7 2.317724 1_555
Nd2 O3 2.351332 1_455
Nd2 O0 2.389373 1_555
Nd2 O6 2.407714 1_455
Nd2 O4 2.453860 1_555
Nd2 O2 2.777870 1_454
Nd3 O6 2.301154 1_555
Nd3 O1 2.324263 1_655
Nd3 O2 2.325792 1_555
Nd3 O5 2.453365 1_555
Nd3 O0 2.478501 1_656
Nd3 O7 2.671718 1_655
Mg0 O3 1.940022 1_556
Mg0 O5 1.983047 1_555
Mg0 O7 1.983047 1_555
Cu0 O4 1.866899 1_555
Cu0 O1 1.906510 1_554
Cu0 O3 2.454599 1_465
Cu1 O6 1.866899 1_555
Cu1 O1 1.906506 1_554
Cu1 O3 2.454596 1_555
