# generated using pymatgen
data_Na6Mg5NbP3(SO6)6
_symmetry_space_group_name_H-M   'P 1'
_cell_length_a   8.82831239
_cell_length_b   8.83651050
_cell_length_c   22.47673536
_cell_angle_alpha   89.82946487
_cell_angle_beta   90.00000000
_cell_angle_gamma   119.96931492
_symmetry_Int_Tables_number   1
_chemical_formula_structural   Na6Mg5NbP3(SO6)6
_chemical_formula_sum   'Na12 Mg10 Nb2 P6 S12 O72'
_cell_volume   1518.98677532
_cell_formula_units_Z   2
loop_
 _symmetry_equiv_pos_site_id
 _symmetry_equiv_pos_as_xyz
  1  'x, y, z'
loop_
 _atom_site_type_symbol
 _atom_site_label
 _atom_site_symmetry_multiplicity
 _atom_site_fract_x
 _atom_site_fract_y
 _atom_site_fract_z
 _atom_site_occupancy
  Na  Na0  1  0.30347760  0.33499792  0.58089380  1
  Na  Na1  1  0.67060677  0.97242856  0.58950331  1
  Na  Na2  1  0.30182279  0.97242856  0.08950331  1
  Na  Na3  1  0.03152132  0.33499792  0.08089380  1
  Na  Na4  1  0.96498924  0.66324853  0.91121245  1
  Na  Na5  1  0.69825829  0.66324853  0.41121245  1
  Na  Na6  1  0.02088447  0.00940695  0.49506420  1
  Na  Na7  1  0.98852248  0.00940695  0.99506420  1
  Na  Na8  1  0.67308261  0.32222731  0.82750122  1
  Na  Na9  1  0.64914570  0.32222731  0.32750122  1
  Na  Na10  1  0.35295554  0.67521346  0.16581066  1
  Na  Na11  1  0.32225692  0.67521346  0.66581066  1
  Mg  Mg0  1  0.01460449  0.00735902  0.34878222  1
  Mg  Mg1  1  0.99275453  0.00735902  0.84878222  1
  Mg  Mg2  1  0.99209280  0.98505684  0.65627098  1
  Mg  Mg3  1  0.99296404  0.98505684  0.15627098  1
  Mg  Mg4  1  0.67741035  0.33582744  0.68885848  1
  Mg  Mg5  1  0.65841809  0.33582744  0.18885848  1
  Mg  Mg6  1  0.66716171  0.32872254  0.97979559  1
  Mg  Mg7  1  0.66156182  0.32872254  0.47979559  1
  Mg  Mg8  1  0.33888423  0.66052256  0.01439990  1
  Mg  Mg9  1  0.32163733  0.66052256  0.51439990  1
  Nb  Nb0  1  0.33760956  0.66454689  0.31077147  1
  Nb  Nb1  1  0.32693632  0.66454689  0.81077147  1
  P  P0  1  0.29694516  0.00479614  0.24911813  1
  P  P1  1  0.71720275  0.70684211  0.25322586  1
  P  P2  1  0.98963936  0.70684211  0.75322586  1
  P  P3  1  0.70785098  0.00479614  0.74911813  1
  P  P4  1  0.03943870  0.36744850  0.92005352  1
  P  P5  1  0.32800880  0.36744850  0.42005352  1
  S  S0  1  0.99557317  0.29016841  0.24921039  1
  S  S1  1  0.29459524  0.29016841  0.74921039  1
  S  S2  1  0.96034028  0.33470838  0.58289673  1
  S  S3  1  0.37283901  0.04046628  0.58312534  1
  S  S4  1  0.66941021  0.62859288  0.58197093  1
  S  S5  1  0.95918368  0.62859288  0.08197093  1
  S  S6  1  0.66762826  0.04046628  0.08312534  1
  S  S7  1  0.37436910  0.33470838  0.08289673  1
  S  S8  1  0.62690954  0.66695977  0.91763217  1
  S  S9  1  0.33401403  0.96105546  0.91820791  1
  S  S10  1  0.62704043  0.96105546  0.41820791  1
  S  S11  1  0.04004923  0.66695977  0.41763217  1
  O  O0  1  0.20751598  0.02569394  0.30257521  1
  O  O1  1  0.80915774  0.78849194  0.31147547  1
  O  O2  1  0.97544934  0.18685777  0.30186848  1
  O  O3  1  0.21140843  0.18685777  0.80186848  1
  O  O4  1  0.97933420  0.78849194  0.81147547  1
  O  O5  1  0.81817796  0.02569394  0.80257521  1
  O  O6  1  0.76851387  0.96405659  0.69005168  1
  O  O7  1  0.19157921  0.22359365  0.69396492  1
  O  O8  1  0.03771289  0.81939853  0.69778865  1
  O  O9  1  0.78168565  0.81939853  0.19778865  1
  O  O10  1  0.03201445  0.22359365  0.19396492  1
  O  O11  1  0.19554272  0.96405659  0.19005168  1
  O  O12  1  0.87720204  0.35497610  0.63644583  1
  O  O13  1  0.48275338  0.12140181  0.63611811  1
  O  O14  1  0.64072056  0.51466559  0.63382141  1
  O  O15  1  0.87394603  0.51466559  0.13382141  1
  O  O16  1  0.63864942  0.12140181  0.13611811  1
  O  O17  1  0.47777505  0.35497610  0.13644583  1
  O  O18  1  0.45547205  0.30726741  0.02969354  1
  O  O19  1  0.86034657  0.54963888  0.02664467  1
  O  O20  1  0.69471569  0.14891724  0.02925293  1
  O  O21  1  0.45420255  0.14891724  0.52925293  1
  O  O22  1  0.68929331  0.54963888  0.52664467  1
  O  O23  1  0.85179636  0.30726741  0.52969354  1
  O  O24  1  0.54645340  0.69246721  0.97059764  1
  O  O25  1  0.14142208  0.45253833  0.97715377  1
  O  O26  1  0.30899998  0.85465094  0.97240066  1
  O  O27  1  0.54564995  0.85465094  0.47240066  1
  O  O28  1  0.31111525  0.45253833  0.47715377  1
  O  O29  1  0.14601281  0.69246721  0.47059764  1
  O  O30  1  0.13088765  0.64895836  0.36393715  1
  O  O31  1  0.51250498  0.86955610  0.36477555  1
  O  O32  1  0.34917268  0.49741354  0.36570698  1
  O  O33  1  0.14823987  0.49741354  0.86570698  1
  O  O34  1  0.35705012  0.86955610  0.86477555  1
  O  O35  1  0.51806971  0.64895836  0.86393715  1
  O  O36  1  0.01409629  0.81963984  0.41200692  1
  O  O37  1  0.79749574  0.97035258  0.41053554  1
  O  O38  1  0.16650045  0.19058899  0.41117143  1
  O  O39  1  0.02408854  0.19058899  0.91117143  1
  O  O40  1  0.17285684  0.97035258  0.91053554  1
  O  O41  1  0.80554354  0.81963984  0.91200692  1
  O  O42  1  0.98271958  0.17604939  0.58778384  1
  O  O43  1  0.19779872  0.02624953  0.58894028  1
  O  O44  1  0.82396426  0.80743802  0.58721350  1
  O  O45  1  0.98347376  0.80743802  0.08721350  1
  O  O46  1  0.82845081  0.02624953  0.08894028  1
  O  O47  1  0.19332981  0.17604939  0.08778384  1
  O  O48  1  0.66873538  0.15404664  0.74426656  1
  O  O49  1  0.47262561  0.31934537  0.74303507  1
  O  O50  1  0.83674238  0.52156993  0.74660828  1
  O  O51  1  0.68482855  0.52156993  0.24660828  1
  O  O52  1  0.84672076  0.31934537  0.24303507  1
  O  O53  1  0.48531226  0.15404664  0.24426656  1
  O  O54  1  0.64049238  0.50620198  0.92105241  1
  O  O55  1  0.86445100  0.36857953  0.91852198  1
  O  O56  1  0.49125839  0.13384516  0.92101056  1
  O  O57  1  0.64258777  0.13384516  0.42101056  1
  O  O58  1  0.50412953  0.36857953  0.41852198  1
  O  O59  1  0.86571060  0.50620198  0.42105241  1
  O  O60  1  0.35017290  0.49050489  0.07821886  1
  O  O61  1  0.14082757  0.64951023  0.07843950  1
  O  O62  1  0.50682359  0.86452506  0.07660882  1
  O  O63  1  0.35770048  0.86452506  0.57660882  1
  O  O64  1  0.50868166  0.64951023  0.57843950  1
  O  O65  1  0.14033099  0.49050489  0.57821886  1
  O  O66  1  0.31114215  0.82960750  0.26156382  1
  O  O67  1  0.52062560  0.68559900  0.26089184  1
  O  O68  1  0.16096566  0.47323950  0.25688587  1
  O  O69  1  0.31227284  0.47323950  0.75688587  1
  O  O70  1  0.16497240  0.68559900  0.76089184  1
  O  O71  1  0.51846435  0.82960750  0.76156382  1
loop_
_geom_bond_atom_site_label_1
_geom_bond_atom_site_label_2
_geom_bond_distance
_geom_bond_site_symmetry_2
Na0 O43 2.408440 1_555
Na0 O65 2.437872 1_555
Na0 O64 2.444959 1_555
Na0 O42 2.457768 1_455
Na0 O28 2.536917 1_555
Na0 O7 2.723523 1_555
Na0 O21 2.831774 1_555
Na0 O14 2.844090 1_555
Na1 O42 2.424398 1_565
Na1 O6 2.433735 1_555
Na1 O44 2.435930 1_555
Na1 O63 2.448330 1_555
Na1 O64 2.485273 1_555
Na1 O13 2.787549 1_565
Na1 O27 2.845566 1_555
Na1 O23 2.892798 1_565
Na2 O47 2.424405 1_565
Na2 O11 2.433738 1_555
Na2 O45 2.435938 1_455
Na2 O62 2.448314 1_555
Na2 O61 2.485273 1_555
Na2 O16 2.787548 1_565
Na2 O26 2.845562 1_554
Na2 O18 2.892798 1_565
Na3 O46 2.408441 1_455
Na3 O60 2.437857 1_555
Na3 O61 2.444962 1_555
Na3 O47 2.457760 1_555
Na3 O25 2.536914 1_554
Na3 O10 2.723521 1_555
Na3 O20 2.831774 1_455
Na3 O15 2.844090 1_455
Na4 O55 2.298538 1_555
Na4 O40 2.399286 1_655
Na4 O41 2.415613 1_555
Na4 O4 2.472156 1_555
Na4 O54 2.491567 1_555
Na4 O19 2.766015 1_556
Na4 O33 2.861512 1_655
Na4 O26 2.976179 1_655
Na5 O58 2.298535 1_555
Na5 O37 2.399285 1_555
Na5 O36 2.415620 1_655
Na5 O1 2.472158 1_555
Na5 O59 2.491582 1_555
Na5 O22 2.766018 1_555
Na5 O32 2.861512 1_555
Na5 O27 2.976179 1_555
Na6 O38 2.386893 1_555
Na6 O36 2.493773 1_545
Na6 O43 2.585226 1_555
Na6 O37 2.634791 1_445
Na6 O42 2.671899 1_455
Na6 O44 2.715805 1_445
Na7 O39 2.386893 1_655
Na7 O41 2.493773 1_545
Na7 O46 2.585226 1_556
Na7 O40 2.634791 1_645
Na7 O47 2.671899 1_656
Na7 O45 2.715805 1_546
Na8 O48 2.381109 1_555
Na8 O50 2.436088 1_555
Na8 O55 2.553660 1_555
Na8 O49 2.586915 1_555
Na8 O56 2.659843 1_555
Na8 O54 2.763109 1_555
Na9 O53 2.381109 1_555
Na9 O51 2.436088 1_555
Na9 O58 2.553660 1_555
Na9 O52 2.586915 1_555
Na9 O57 2.659843 1_555
Na9 O59 2.763109 1_555
Na10 O62 2.524542 1_555
Na10 O60 2.553384 1_555
Na10 O67 2.575316 1_555
Na10 O61 2.644427 1_555
Na10 O66 2.673999 1_555
Na10 O68 2.684153 1_555
Na11 O63 2.524542 1_555
Na11 O65 2.553384 1_555
Na11 O70 2.575316 1_555
Na11 O64 2.644427 1_555
Na11 O71 2.673999 1_555
Na11 O69 2.684153 1_555
Mg0 O0 1.930990 1_555
Mg0 O38 2.056831 1_555
Mg0 O1 2.058723 1_445
Mg0 O2 2.070040 1_455
Mg0 O36 2.179356 1_545
Mg0 O37 2.253524 1_445
Mg1 O5 1.930990 1_555
Mg1 O39 2.056831 1_655
Mg1 O4 2.058723 1_545
Mg1 O3 2.070040 1_655
Mg1 O41 2.179356 1_545
Mg1 O40 2.253524 1_645
Mg2 O8 1.938233 1_655
Mg2 O6 2.034735 1_555
Mg2 O7 2.136411 1_665
Mg2 O44 2.182396 1_555
Mg2 O43 2.248796 1_665
Mg2 O42 2.312773 1_565
Mg3 O9 1.938233 1_555
Mg3 O11 2.034735 1_655
Mg3 O10 2.136411 1_665
Mg3 O45 2.182396 1_555
Mg3 O46 2.248796 1_565
Mg3 O47 2.312773 1_665
Mg4 O48 2.000570 1_555
Mg4 O50 2.015813 1_555
Mg4 O12 2.056254 1_555
Mg4 O49 2.123307 1_555
Mg4 O14 2.152289 1_555
Mg4 O13 2.169993 1_555
Mg5 O53 2.000570 1_555
Mg5 O51 2.015813 1_555
Mg5 O17 2.056254 1_555
Mg5 O52 2.123307 1_555
Mg5 O15 2.152289 1_555
Mg5 O16 2.169993 1_555
Mg6 O20 2.048167 1_556
Mg6 O18 2.105041 1_556
Mg6 O55 2.106819 1_555
Mg6 O56 2.112971 1_555
Mg6 O19 2.124698 1_556
Mg6 O54 2.148235 1_555
Mg7 O21 2.048167 1_555
Mg7 O23 2.105041 1_555
Mg7 O58 2.106819 1_555
Mg7 O57 2.112971 1_555
Mg7 O22 2.124698 1_555
Mg7 O59 2.148235 1_555
Mg8 O24 1.971938 1_554
Mg8 O25 1.981361 1_554
Mg8 O26 2.084688 1_554
Mg8 O60 2.112204 1_555
Mg8 O62 2.178923 1_555
Mg8 O61 2.228855 1_555
Mg9 O29 1.971938 1_555
Mg9 O28 1.981361 1_555
Mg9 O27 2.084688 1_555
Mg9 O65 2.112204 1_555
Mg9 O63 2.178923 1_555
Mg9 O64 2.228855 1_555
Nb0 O67 1.897517 1_555
Nb0 O66 1.932921 1_555
Nb0 O32 1.963673 1_555
Nb0 O68 2.033471 1_555
Nb0 O31 2.087527 1_555
Nb0 O30 2.127319 1_555
Nb1 O70 1.897517 1_555
Nb1 O71 1.932921 1_555
Nb1 O33 1.963672 1_555
Nb1 O69 2.033471 1_555
Nb1 O34 2.087527 1_555
Nb1 O35 2.127319 1_555
O0 P0 1.499368 1_555
O1 P1 1.521251 1_555
O2 S0 1.448226 1_555
O3 S1 1.448226 1_555
O4 P2 1.521251 1_555
O5 P3 1.499368 1_555
O6 P3 1.540925 1_565
O7 S1 1.478151 1_555
O8 P2 1.514230 1_455
O9 P1 1.514230 1_555
O10 S0 1.478151 1_455
O11 P0 1.540925 1_565
O12 S2 1.466995 1_555
O13 S3 1.477682 1_555
O14 S4 1.474494 1_555
O15 S5 1.474494 1_555
O16 S6 1.477682 1_555
O17 S7 1.466995 1_555
O18 S7 1.475350 1_555
O19 S5 1.480375 1_555
O20 S6 1.485238 1_555
O21 S3 1.485238 1_555
O22 S4 1.480375 1_555
O23 S2 1.475350 1_555
O24 S8 1.460867 1_555
O25 P4 1.533805 1_555
O26 S9 1.484006 1_555
O27 S10 1.484006 1_555
O28 P5 1.533805 1_555
O29 S11 1.460867 1_555
O30 S11 1.501199 1_555
O31 S10 1.519050 1_555
O32 P5 1.619640 1_555
O33 P4 1.619640 1_555
O34 S9 1.519050 1_555
O35 S8 1.501199 1_555
O36 S11 1.482070 1_555
O37 S10 1.475606 1_555
O38 P5 1.513567 1_555
O39 P4 1.513571 1_555
O40 S9 1.475597 1_555
O41 S8 1.482075 1_555
O42 S2 1.514101 1_555
O43 S3 1.492246 1_555
O44 S4 1.489949 1_555
O45 S5 1.489952 1_555
O46 S6 1.492238 1_555
O47 S7 1.514106 1_555
O48 P3 1.524687 1_555
O49 S1 1.466610 1_555
O50 P2 1.522518 1_555
O51 P1 1.522521 1_555
O52 S0 1.466601 1_555
O53 P0 1.524693 1_555
O54 S8 1.485850 1_555
O55 P4 1.550244 1_655
O56 S9 1.464691 1_545
O57 S10 1.464684 1_545
O58 P5 1.550262 1_555
O59 S11 1.485840 1_655
O60 S7 1.498307 1_555
O61 S5 1.521778 1_455
O62 S6 1.500072 1_565
O63 S3 1.500064 1_565
O64 S4 1.521796 1_555
O65 S2 1.498297 1_455
O66 P0 1.637593 1_565
O67 P1 1.658624 1_555
O68 S0 1.555803 1_455
O69 S1 1.555806 1_555
O70 P2 1.658616 1_455
O71 P3 1.637597 1_565
