# generated using pymatgen
data_MgMn(CoO3)2
_symmetry_space_group_name_H-M   'P 1'
_cell_length_a   6.44827595
_cell_length_b   2.96840067
_cell_length_c   6.08637122
_cell_angle_alpha   85.60487345
_cell_angle_beta   102.01556295
_cell_angle_gamma   76.75518856
_symmetry_Int_Tables_number   1
_chemical_formula_structural   MgMn(CoO3)2
_chemical_formula_sum   'Mg1 Mn1 Co2 O6'
_cell_volume   109.96644253
_cell_formula_units_Z   1
loop_
 _symmetry_equiv_pos_site_id
 _symmetry_equiv_pos_as_xyz
  1  'x, y, z'
loop_
 _atom_site_type_symbol
 _atom_site_label
 _atom_site_symmetry_multiplicity
 _atom_site_fract_x
 _atom_site_fract_y
 _atom_site_fract_z
 _atom_site_occupancy
  Mg  Mg0  1  0.34678500  0.32447400  0.84164200  1
  Mn  Mn0  1  0.32264900  0.33505600  0.34128100  1
  Co  Co0  1  0.98861600  0.98664700  0.00790000  1
  Co  Co1  1  0.69025200  0.68719400  0.64289500  1
  O  O0  1  0.00502300  0.45789700  0.21062000  1
  O  O1  1  0.34342100  0.86427500  0.59547400  1
  O  O2  1  0.68695300  0.16799900  0.87809500  1
  O  O3  1  0.30348700  0.80543200  0.08069100  1
  O  O4  1  0.63818900  0.19888200  0.42857900  1
  O  O5  1  0.00462700  0.50547500  0.80615500  1
loop_
_geom_bond_atom_site_label_1
_geom_bond_atom_site_label_2
_geom_bond_distance
_geom_bond_site_symmetry_2
Mg0 O2 2.095500 1_555
Mg0 O1 2.101280 1_555
Mg0 O1 2.103600 1_545
Mg0 O5 2.108039 1_555
Mg0 O3 2.130237 1_556
Mg0 O3 2.142733 1_546
Mn0 O4 1.930222 1_555
Mn0 O1 1.964940 1_545
Mn0 O0 1.973689 1_555
Mn0 O3 1.995069 1_555
Mn0 O1 2.293900 1_555
Mn0 O3 2.322072 1_545
Co0 O2 1.874278 1_564
Co0 O0 1.889375 1_655
Co0 O3 1.922641 1_655
Co0 O5 1.930301 1_664
Co0 O0 1.941220 1_665
Co0 O5 1.952556 1_654
Co1 O4 1.844336 1_565
Co1 O5 1.991453 1_655
Co1 O2 2.028417 1_555
Co1 O4 2.060509 1_555
Co1 O2 2.097274 1_565
Co1 O1 2.128539 1_555
