# generated using pymatgen
data_Sb4Cl2O5
_symmetry_space_group_name_H-M   'P 1'
_cell_length_a   5.15880882
_cell_length_b   6.35097226
_cell_length_c   13.44133557
_cell_angle_alpha   81.39762087
_cell_angle_beta   90.00000000
_cell_angle_gamma   90.00000000
_symmetry_Int_Tables_number   1
_chemical_formula_structural   Sb4Cl2O5
_chemical_formula_sum   'Sb8 Cl4 O10'
_cell_volume   435.43029780
_cell_formula_units_Z   2
loop_
 _symmetry_equiv_pos_site_id
 _symmetry_equiv_pos_as_xyz
  1  'x, y, z'
loop_
 _atom_site_type_symbol
 _atom_site_label
 _atom_site_symmetry_multiplicity
 _atom_site_fract_x
 _atom_site_fract_y
 _atom_site_fract_z
 _atom_site_occupancy
  Sb  Sb0  1  0.60632938  0.79360206  0.30024879  1
  Sb  Sb1  1  0.10632938  0.20639794  0.19975121  1
  Sb  Sb2  1  0.39367062  0.20639794  0.69975121  1
  Sb  Sb3  1  0.89367062  0.79360206  0.80024879  1
  Sb  Sb4  1  0.72263567  0.18251278  0.44473990  1
  Sb  Sb5  1  0.22263567  0.81748722  0.05526010  1
  Sb  Sb6  1  0.27736433  0.81748722  0.55526010  1
  Sb  Sb7  1  0.77736433  0.18251278  0.94473990  1
  Cl  Cl0  1  0.71006555  0.48118238  0.11599612  1
  Cl  Cl1  1  0.21006555  0.51881762  0.38400388  1
  Cl  Cl2  1  0.28993445  0.51881762  0.88400388  1
  Cl  Cl3  1  0.78993445  0.48118238  0.61599612  1
  O  O0  1  0.50832538  0.07082878  0.58078799  1
  O  O1  1  0.00832538  0.92917122  0.91921201  1
  O  O2  1  0.49167462  0.92917122  0.41921201  1
  O  O3  1  0.99167462  0.07082878  0.08078799  1
  O  O4  1  0.83185522  0.07048741  0.29074400  1
  O  O5  1  0.33185522  0.92951259  0.20925600  1
  O  O6  1  0.16814478  0.92951259  0.70925600  1
  O  O7  1  0.66814478  0.07048741  0.79074400  1
  O  O8  1  0.50000000  -0.00000000  0.00000000  1
  O  O9  1  0.00000000  -0.00000000  0.50000000  1
loop_
_geom_bond_atom_site_label_1
_geom_bond_atom_site_label_2
_geom_bond_distance
_geom_bond_site_symmetry_2
Cl0 Sb1 2.811432 1_655
Cl1 Sb0 2.811432 1_555
Cl2 Sb3 2.811432 1_455
Cl3 Sb2 2.811432 1_555
O0 Sb2 2.014920 1_555
O0 Sb6 2.071545 1_545
O0 Sb4 2.163662 1_555
O1 Sb3 2.014920 1_455
O1 Sb7 2.071545 1_465
O1 Sb5 2.163662 1_556
O2 Sb0 2.014920 1_555
O2 Sb4 2.071545 1_565
O2 Sb6 2.163662 1_555
O3 Sb1 2.014920 1_655
O3 Sb5 2.071545 1_645
O3 Sb7 2.163662 1_554
O4 Sb1 1.982439 1_655
O4 Sb0 2.096428 1_545
O4 Sb4 2.355577 1_555
O5 Sb0 1.982439 1_555
O5 Sb1 2.096428 1_565
O5 Sb5 2.355577 1_555
O6 Sb3 1.982439 1_455
O6 Sb2 2.096428 1_565
O6 Sb6 2.355577 1_555
O7 Sb2 1.982439 1_555
O7 Sb3 2.096428 1_545
O7 Sb7 2.355577 1_555
O8 Sb5 1.919668 1_545
O8 Sb7 1.919668 1_554
O9 Sb4 1.919668 1_455
O9 Sb6 1.919668 1_545
