# generated using pymatgen
data_Si3Ru2
_symmetry_space_group_name_H-M   'P 1'
_cell_length_a   5.54269615
_cell_length_b   8.95125571
_cell_length_c   11.09096159
_cell_angle_alpha   90.00000000
_cell_angle_beta   90.00000000
_cell_angle_gamma   90.00000000
_symmetry_Int_Tables_number   1
_chemical_formula_structural   Si3Ru2
_chemical_formula_sum   'Si24 Ru16'
_cell_volume   550.26797274
_cell_formula_units_Z   8
loop_
 _symmetry_equiv_pos_site_id
 _symmetry_equiv_pos_as_xyz
  1  'x, y, z'
loop_
 _atom_site_type_symbol
 _atom_site_label
 _atom_site_symmetry_multiplicity
 _atom_site_fract_x
 _atom_site_fract_y
 _atom_site_fract_z
 _atom_site_occupancy
  Si  Si0  1  0.60365644  0.10379003  0.63205432  1
  Si  Si1  1  0.10365644  0.39620997  0.86794568  1
  Si  Si2  1  0.89634356  0.10379003  0.36794568  1
  Si  Si3  1  0.39634356  0.39620997  0.13205432  1
  Si  Si4  1  0.39634356  0.89620997  0.36794568  1
  Si  Si5  1  0.89634356  0.60379003  0.13205432  1
  Si  Si6  1  0.10365644  0.89620997  0.63205432  1
  Si  Si7  1  0.60365644  0.60379003  0.86794568  1
  Si  Si8  1  0.91323221  0.06282845  0.82030257  1
  Si  Si9  1  0.41323221  0.43717155  0.67969743  1
  Si  Si10  1  0.58676779  0.06282845  0.17969743  1
  Si  Si11  1  0.08676779  0.43717155  0.32030257  1
  Si  Si12  1  0.08676779  0.93717155  0.17969743  1
  Si  Si13  1  0.58676779  0.56282845  0.32030257  1
  Si  Si14  1  0.41323221  0.93717155  0.82030257  1
  Si  Si15  1  0.91323221  0.56282845  0.67969743  1
  Si  Si16  1  0.55818244  0.70558619  0.57412081  1
  Si  Si17  1  0.05818244  0.79441381  0.92587919  1
  Si  Si18  1  0.94181756  0.70558619  0.42587919  1
  Si  Si19  1  0.44181756  0.79441381  0.07412081  1
  Si  Si20  1  0.44181756  0.29441381  0.42587919  1
  Si  Si21  1  0.94181756  0.20558619  0.07412081  1
  Si  Si22  1  0.05818244  0.29441381  0.57412081  1
  Si  Si23  1  0.55818244  0.20558619  0.92587919  1
  Ru  Ru0  1  0.75000000  0.92381520  0.50000000  1
  Ru  Ru1  1  0.25000000  0.57618480  0.00000000  1
  Ru  Ru2  1  0.25000000  0.07618480  0.50000000  1
  Ru  Ru3  1  0.75000000  0.42381520  0.00000000  1
  Ru  Ru4  1  0.75000000  0.46011445  0.50000000  1
  Ru  Ru5  1  0.25000000  0.03988555  0.00000000  1
  Ru  Ru6  1  0.25000000  0.53988555  0.50000000  1
  Ru  Ru7  1  0.75000000  0.96011445  0.00000000  1
  Ru  Ru8  1  0.76305257  0.31222967  0.74558036  1
  Ru  Ru9  1  0.26305257  0.18777033  0.75441964  1
  Ru  Ru10  1  0.73694743  0.31222967  0.25441964  1
  Ru  Ru11  1  0.23694643  0.18777033  0.24558036  1
  Ru  Ru12  1  0.23694643  0.68777033  0.25441964  1
  Ru  Ru13  1  0.73694743  0.81222967  0.24558036  1
  Ru  Ru14  1  0.26305257  0.68777033  0.74558036  1
  Ru  Ru15  1  0.76305257  0.81222967  0.75441964  1
loop_
_geom_bond_atom_site_label_1
_geom_bond_atom_site_label_2
_geom_bond_distance
_geom_bond_site_symmetry_2
Ru0 Si0 2.323435 1_565
Ru0 Si2 2.323435 1_565
Ru0 Si18 2.371082 1_555
Ru0 Si16 2.371082 1_555
Ru0 Si6 2.459383 1_655
Ru0 Si4 2.459383 1_555
Ru1 Si1 2.323435 1_554
Ru1 Si3 2.323435 1_555
Ru1 Si19 2.371082 1_555
Ru1 Si17 2.371082 1_554
Ru1 Si7 2.459383 1_554
Ru1 Si5 2.459383 1_455
Ru2 Si6 2.323435 1_545
Ru2 Si4 2.323435 1_545
Ru2 Si20 2.371082 1_555
Ru2 Si22 2.371082 1_555
Ru2 Si0 2.459383 1_555
Ru2 Si2 2.459383 1_455
Ru3 Si7 2.323435 1_554
Ru3 Si5 2.323435 1_555
Ru3 Si21 2.371082 1_555
Ru3 Si23 2.371082 1_554
Ru3 Si1 2.459383 1_654
Ru3 Si3 2.459383 1_555
Ru4 Si13 2.374029 1_555
Ru4 Si15 2.374029 1_555
Ru4 Si20 2.406987 1_555
Ru4 Si22 2.406987 1_655
Ru4 Si16 2.575695 1_555
Ru4 Si18 2.575695 1_555
Ru4 Si11 2.738338 1_655
Ru4 Si9 2.738338 1_555
Ru5 Si12 2.374029 1_545
Ru5 Si14 2.374029 1_544
Ru5 Si21 2.406987 1_455
Ru5 Si23 2.406987 1_554
Ru5 Si19 2.575695 1_545
Ru5 Si17 2.575695 1_544
Ru5 Si10 2.738338 1_555
Ru5 Si8 2.738338 1_454
Ru6 Si11 2.374029 1_555
Ru6 Si9 2.374029 1_555
Ru6 Si18 2.406987 1_455
Ru6 Si16 2.406987 1_555
Ru6 Si20 2.575695 1_555
Ru6 Si22 2.575695 1_555
Ru6 Si13 2.738338 1_555
Ru6 Si15 2.738338 1_455
Ru7 Si10 2.374029 1_565
Ru7 Si8 2.374029 1_564
Ru7 Si17 2.406987 1_654
Ru7 Si19 2.406987 1_555
Ru7 Si23 2.575695 1_564
Ru7 Si21 2.575695 1_565
Ru7 Si12 2.738338 1_655
Ru7 Si14 2.738338 1_554
Ru8 Si9 2.354621 1_555
Ru8 Si0 2.418079 1_555
Ru8 Si1 2.443559 1_655
Ru8 Si23 2.489866 1_555
Ru8 Si15 2.501729 1_555
Ru8 Si22 2.513484 1_655
Ru8 Si8 2.522608 1_555
Ru9 Si8 2.354621 1_455
Ru9 Si1 2.418079 1_555
Ru9 Si0 2.443559 1_555
Ru9 Si22 2.489866 1_555
Ru9 Si14 2.501729 1_545
Ru9 Si23 2.513484 1_555
Ru9 Si9 2.522608 1_555
Ru10 Si11 2.354621 1_655
Ru10 Si2 2.418079 1_555
Ru10 Si3 2.443559 1_555
Ru10 Si21 2.489866 1_555
Ru10 Si13 2.501729 1_555
Ru10 Si20 2.513484 1_555
Ru10 Si10 2.522608 1_555
Ru11 Si10 2.354625 1_555
Ru11 Si3 2.418081 1_555
Ru11 Si2 2.443555 1_455
Ru11 Si20 2.489868 1_555
Ru11 Si12 2.501727 1_545
Ru11 Si21 2.513480 1_455
Ru11 Si11 2.522607 1_555
Ru12 Si13 2.354625 1_555
Ru12 Si4 2.418081 1_555
Ru12 Si5 2.443555 1_455
Ru12 Si19 2.489868 1_555
Ru12 Si11 2.501727 1_555
Ru12 Si18 2.513480 1_455
Ru12 Si12 2.522607 1_555
Ru13 Si12 2.354621 1_655
Ru13 Si5 2.418079 1_555
Ru13 Si4 2.443559 1_555
Ru13 Si18 2.489866 1_555
Ru13 Si10 2.501729 1_565
Ru13 Si19 2.513484 1_555
Ru13 Si13 2.522608 1_555
Ru14 Si15 2.354621 1_455
Ru14 Si6 2.418079 1_555
Ru14 Si7 2.443559 1_555
Ru14 Si17 2.489866 1_555
Ru14 Si9 2.501729 1_555
Ru14 Si16 2.513484 1_555
Ru14 Si14 2.522608 1_555
Ru15 Si14 2.354621 1_555
Ru15 Si7 2.418079 1_555
Ru15 Si6 2.443559 1_655
Ru15 Si16 2.489866 1_555
Ru15 Si8 2.501729 1_565
Ru15 Si17 2.513484 1_655
Ru15 Si15 2.522608 1_555
