# generated using pymatgen
data_La3RuI3
_symmetry_space_group_name_H-M   'P 1'
_cell_length_a   4.41069967
_cell_length_b   9.54338891
_cell_length_c   12.52364080
_cell_angle_alpha   93.24146029
_cell_angle_beta   90.00000000
_cell_angle_gamma   90.00000000
_symmetry_Int_Tables_number   1
_chemical_formula_structural   La3RuI3
_chemical_formula_sum   'La6 Ru2 I6'
_cell_volume   526.31449659
_cell_formula_units_Z   2
loop_
 _symmetry_equiv_pos_site_id
 _symmetry_equiv_pos_as_xyz
  1  'x, y, z'
loop_
 _atom_site_type_symbol
 _atom_site_label
 _atom_site_symmetry_multiplicity
 _atom_site_fract_x
 _atom_site_fract_y
 _atom_site_fract_z
 _atom_site_occupancy
  La  La0  1  0.75000000  0.31633530  0.12140683  1
  La  La1  1  0.25000000  0.68366470  0.87859317  1
  La  La2  1  0.25000000  0.11685017  0.33036554  1
  La  La3  1  0.75000000  0.88314983  0.66963446  1
  La  La4  1  0.25000000  0.09535699  0.89675784  1
  La  La5  1  0.75000000  0.90464301  0.10324216  1
  Ru  Ru0  1  0.25000000  0.11383452  0.13014970  1
  Ru  Ru1  1  0.75000000  0.88616548  0.86985030  1
  I  I0  1  0.25000000  0.13208750  0.61958057  1
  I  I1  1  0.75000000  0.86791250  0.38041843  1
  I  I2  1  0.75000000  0.36847303  0.38152808  1
  I  I3  1  0.25000000  0.63152697  0.61847192  1
  I  I4  1  0.25000000  0.60644127  0.13692804  1
  I  I5  1  0.75000000  0.39355873  0.86307196  1
loop_
_geom_bond_atom_site_label_1
_geom_bond_atom_site_label_2
_geom_bond_distance
_geom_bond_site_symmetry_2
La0 Ru0 2.938403 1_555
La0 Ru0 2.938403 1_655
La1 Ru1 2.938403 1_555
La1 Ru1 2.938403 1_455
La2 Ru0 2.505969 1_555
La3 Ru1 2.505969 1_555
La4 Ru0 2.918260 1_556
La4 Ru1 2.981047 1_545
La4 Ru1 2.981047 1_445
La5 Ru1 2.918260 1_554
La5 Ru0 2.981047 1_565
La5 Ru0 2.981047 1_665
I0 La3 3.326999 1_545
I0 La3 3.326999 1_445
I0 La4 3.508587 1_555
I0 La2 3.616718 1_555
I1 La2 3.326996 1_565
I1 La2 3.326996 1_665
I1 La5 3.508575 1_555
I1 La3 3.616730 1_555
I2 La0 3.267515 1_555
I2 La2 3.296441 1_655
I2 La2 3.296441 1_555
I3 La1 3.267515 1_555
I3 La3 3.296441 1_555
I3 La3 3.296441 1_455
I4 La1 3.358555 1_554
I4 La0 3.536327 1_455
I4 La0 3.536327 1_555
I4 La5 3.643653 1_455
I4 La5 3.643653 1_555
I5 La0 3.358555 1_556
I5 La1 3.536327 1_655
I5 La1 3.536327 1_555
I5 La4 3.643653 1_555
I5 La4 3.643653 1_655
