# generated using pymatgen
data_Sb2S2O
_symmetry_space_group_name_H-M   'P 1'
_cell_length_a   6.06055100
_cell_length_b   8.23775994
_cell_length_c   11.07382990
_cell_angle_alpha   100.75981783
_cell_angle_beta   104.23120649
_cell_angle_gamma   109.85931444
_symmetry_Int_Tables_number   1
_chemical_formula_structural   Sb2S2O
_chemical_formula_sum   'Sb8 S8 O4'
_cell_volume   481.38139250
_cell_formula_units_Z   4
loop_
 _symmetry_equiv_pos_site_id
 _symmetry_equiv_pos_as_xyz
  1  'x, y, z'
loop_
 _atom_site_type_symbol
 _atom_site_label
 _atom_site_symmetry_multiplicity
 _atom_site_fract_x
 _atom_site_fract_y
 _atom_site_fract_z
 _atom_site_occupancy
  Sb  Sb0  1  0.34125400  0.35394600  0.08970500  1
  Sb  Sb1  1  0.65874600  0.64605400  0.91029500  1
  Sb  Sb2  1  0.37541200  0.87357000  0.13702900  1
  Sb  Sb3  1  0.62458800  0.12643000  0.86297100  1
  Sb  Sb4  1  0.98100700  0.33852600  0.37152700  1
  Sb  Sb5  1  0.01899300  0.66147400  0.62847300  1
  Sb  Sb6  1  0.95585700  0.83079900  0.36867900  1
  Sb  Sb7  1  0.04414300  0.16920100  0.63132100  1
  S  S0  1  0.76902100  0.47764400  0.08570500  1
  S  S1  1  0.23097900  0.52235600  0.91429500  1
  S  S2  1  0.76820300  0.94938800  0.08727600  1
  S  S3  1  0.23179700  0.05061200  0.91272400  1
  S  S4  1  0.48910500  0.80955200  0.70895800  1
  S  S5  1  0.51089500  0.19044800  0.29104200  1
  S  S6  1  0.51083200  0.29035400  0.69950300  1
  S  S7  1  0.48916800  0.70964600  0.30049700  1
  O  O0  1  0.92838400  0.58702100  0.42971900  1
  O  O1  1  0.07161600  0.41297900  0.57028100  1
  O  O2  1  0.97201100  0.10305200  0.43349100  1
  O  O3  1  0.02798900  0.89694800  0.56650900  1
loop_
_geom_bond_atom_site_label_1
_geom_bond_atom_site_label_2
_geom_bond_distance
_geom_bond_site_symmetry_2
S0 Sb0 2.457608 1_555
S0 Sb1 2.672516 1_554
S0 Sb3 3.126321 1_554
S1 Sb1 2.457608 1_555
S1 Sb0 2.672516 1_556
S1 Sb2 3.126321 1_556
S2 Sb2 2.474618 1_555
S2 Sb1 2.632687 1_554
S3 Sb3 2.474618 1_555
S3 Sb0 2.632687 1_556
S4 Sb5 2.526688 1_555
S4 Sb3 2.567076 1_565
S4 Sb1 2.962611 1_555
S5 Sb4 2.526688 1_555
S5 Sb2 2.567076 1_545
S5 Sb0 2.962611 1_555
S6 Sb7 2.513307 1_555
S6 Sb3 2.550945 1_555
S6 Sb1 3.077493 1_555
S7 Sb6 2.513307 1_555
S7 Sb2 2.550945 1_555
S7 Sb0 3.077493 1_555
O0 Sb5 2.048137 1_655
O0 Sb4 2.181610 1_555
O0 Sb6 2.202824 1_555
O1 Sb4 2.048137 1_455
O1 Sb5 2.181610 1_555
O1 Sb7 2.202824 1_555
O2 Sb7 2.051562 1_655
O2 Sb4 2.163349 1_555
O2 Sb6 2.184010 1_545
O3 Sb6 2.051562 1_455
O3 Sb5 2.163349 1_555
O3 Sb7 2.184010 1_565
