# generated using pymatgen
data_Na4MgV4O10
_symmetry_space_group_name_H-M   'P 1'
_cell_length_a   5.52965976
_cell_length_b   5.73882021
_cell_length_c   8.05502673
_cell_angle_alpha   110.92233158
_cell_angle_beta   109.97687415
_cell_angle_gamma   90.17494630
_symmetry_Int_Tables_number   1
_chemical_formula_structural   Na4MgV4O10
_chemical_formula_sum   'Na4 Mg1 V4 O10'
_cell_volume   222.10739124
_cell_formula_units_Z   1
loop_
 _symmetry_equiv_pos_site_id
 _symmetry_equiv_pos_as_xyz
  1  'x, y, z'
loop_
 _atom_site_type_symbol
 _atom_site_label
 _atom_site_symmetry_multiplicity
 _atom_site_fract_x
 _atom_site_fract_y
 _atom_site_fract_z
 _atom_site_occupancy
  Na  Na0  1  0.60166100  0.10433400  0.17345000  1
  Na  Na1  1  0.39114900  0.84174200  0.78334900  1
  Na  Na2  1  0.10892900  0.56042700  0.21545700  1
  Na  Na3  1  0.93116600  0.43357200  0.82669600  1
  Mg  Mg0  1  0.57934200  0.44753700  0.50122300  1
  V  V0  1  0.01586600  0.99500000  0.99558100  1
  V  V1  1  0.51959300  0.48795400  0.00232800  1
  V  V2  1  0.17631300  0.15474600  0.49736100  1
  V  V3  1  0.66904400  0.89043500  0.49891600  1
  O  O0  1  0.24132200  0.20630500  0.95432100  1
  O  O1  1  0.29818400  0.72847100  0.00909900  1
  O  O2  1  0.75903400  0.24980300  0.98981600  1
  O  O3  1  0.82177000  0.78783400  0.04955100  1
  O  O4  1  0.23883000  0.21114800  0.29703400  1
  O  O5  1  0.83803500  0.78226800  0.70495200  1
  O  O6  1  0.63564700  0.57507800  0.29679800  1
  O  O7  1  0.43928700  0.41078800  0.70358200  1
  O  O8  1  0.82780800  0.19130800  0.50061700  1
  O  O9  1  0.32252400  0.85791700  0.49987000  1
loop_
_geom_bond_atom_site_label_1
_geom_bond_atom_site_label_2
_geom_bond_distance
_geom_bond_site_symmetry_2
Na0 O3 2.307669 1_545
Na0 O2 2.323616 1_554
Na0 O8 2.358579 1_555
Na0 O1 2.375258 1_545
Na0 O0 2.402076 1_554
Na0 O6 2.504590 1_555
Na0 O4 2.515644 1_555
Na1 O9 2.219506 1_555
Na1 O1 2.339740 1_556
Na1 O7 2.363517 1_555
Na1 O0 2.385905 1_565
Na1 O2 2.695520 1_565
Na1 O3 2.711668 1_556
Na1 O5 2.745763 1_555
Na1 O5 2.896527 1_455
Na2 O9 2.214402 1_555
Na2 O2 2.342381 1_454
Na2 O4 2.364858 1_555
Na2 O3 2.412212 1_455
Na2 O0 2.664347 1_554
Na2 O1 2.667487 1_555
Na2 O6 2.752211 1_555
Na2 O6 2.901578 1_455
Na3 O1 2.303769 1_656
Na3 O0 2.337918 1_655
Na3 O8 2.349432 1_555
Na3 O2 2.362777 1_555
Na3 O3 2.421689 1_556
Na3 O5 2.508798 1_555
Na3 O7 2.541794 1_555
Mg0 O8 2.015375 1_555
Mg0 O4 2.089419 1_555
Mg0 O7 2.099585 1_555
Mg0 O6 2.133968 1_555
Mg0 O5 2.134755 1_555
O0 V0 1.922738 1_545
O0 V1 2.064374 1_556
O1 V1 1.846426 1_555
O1 V0 2.192237 1_554
O2 V1 1.906553 1_556
O2 V0 2.042903 1_645
O3 V0 1.853251 1_654
O3 V1 2.231373 1_555
O4 V2 1.892515 1_555
O4 V0 2.179180 1_544
O5 V3 1.921604 1_555
O5 V0 2.077578 1_655
O6 V3 1.910016 1_555
O6 V1 2.097374 1_555
O7 V2 1.904255 1_555
O7 V1 2.166020 1_556
O8 V3 1.928181 1_545
O8 V2 1.947192 1_655
O9 V2 1.891466 1_565
O9 V3 1.927529 1_555
