# generated using pymatgen
data_InAgS2
_symmetry_space_group_name_H-M   'P 1'
_cell_length_a   3.82202284
_cell_length_b   3.82202284
_cell_length_c   6.83251018
_cell_angle_alpha   73.75805544
_cell_angle_beta   73.75805544
_cell_angle_gamma   59.99998547
_symmetry_Int_Tables_number   1
_chemical_formula_structural   InAgS2
_chemical_formula_sum   'In1 Ag1 S2'
_cell_volume   81.80455550
_cell_formula_units_Z   1
loop_
 _symmetry_equiv_pos_site_id
 _symmetry_equiv_pos_as_xyz
  1  'x, y, z'
loop_
 _atom_site_type_symbol
 _atom_site_label
 _atom_site_symmetry_multiplicity
 _atom_site_fract_x
 _atom_site_fract_y
 _atom_site_fract_z
 _atom_site_occupancy
  In  In0  1  0.00000000  0.00000000  0.00000000  1
  Ag  Ag0  1  0.50000000  0.50000000  0.50000000  1
  S  S0  1  0.74456700  0.74456700  0.76629900  1
  S  S1  1  0.25543300  0.25543300  0.23370100  1
loop_
_geom_bond_atom_site_label_1
_geom_bond_atom_site_label_2
_geom_bond_distance
_geom_bond_site_symmetry_2
In0 S1 2.674509 1_545
In0 S0 2.674509 1_544
In0 S1 2.674509 1_455
In0 S0 2.674509 1_454
In0 S1 2.674510 1_555
In0 S0 2.674510 1_444
Ag0 S0 2.799022 1_545
Ag0 S1 2.799022 1_565
Ag0 S1 2.799022 1_655
Ag0 S0 2.799022 1_455
Ag0 S0 2.799023 1_555
Ag0 S1 2.799023 1_555
