# generated using pymatgen
data_GaGeP(SO6)2
_symmetry_space_group_name_H-M   'P 1'
_cell_length_a   8.38711812
_cell_length_b   8.39730754
_cell_length_c   21.77986424
_cell_angle_alpha   89.84944524
_cell_angle_beta   90.00000000
_cell_angle_gamma   119.95986867
_symmetry_Int_Tables_number   1
_chemical_formula_structural   GaGeP(SO6)2
_chemical_formula_sum   'Ga6 Ge6 P6 S12 O72'
_cell_volume   1328.96059264
_cell_formula_units_Z   6
loop_
 _symmetry_equiv_pos_site_id
 _symmetry_equiv_pos_as_xyz
  1  'x, y, z'
loop_
 _atom_site_type_symbol
 _atom_site_label
 _atom_site_symmetry_multiplicity
 _atom_site_fract_x
 _atom_site_fract_y
 _atom_site_fract_z
 _atom_site_occupancy
  Ga  Ga0  1  0.00076045  0.00014767  0.35444887  1
  Ga  Ga1  1  0.99938723  0.00014767  0.85444887  1
  Ga  Ga2  1  0.67982607  0.34208208  0.68816760  1
  Ga  Ga3  1  0.66225700  0.34208208  0.18816760  1
  Ga  Ga4  1  0.32860760  0.65277864  0.02102649  1
  Ga  Ga5  1  0.32417004  0.65277864  0.52102649  1
  Ge  Ge0  1  0.00114953  0.00081071  0.64637537  1
  Ge  Ge1  1  0.99966118  0.00081071  0.14637537  1
  Ge  Ge2  1  0.66491118  0.33157903  0.97995999  1
  Ge  Ge3  1  0.66666886  0.33157903  0.47995999  1
  Ge  Ge4  1  0.34474196  0.66132898  0.31307163  1
  Ge  Ge5  1  0.31658602  0.66132898  0.81307163  1
  P  P0  1  0.71493619  0.71493040  0.25078648  1
  P  P1  1  -0.00000580  0.71493040  0.75078648  1
  P  P2  1  0.95427081  0.33011369  0.58377947  1
  P  P3  1  0.37584389  0.33011369  0.08377947  1
  P  P4  1  0.03926040  0.37353080  0.91760203  1
  P  P5  1  0.33426939  0.37353080  0.41760203  1
  S  S0  1  0.29071612  0.99647473  0.25097066  1
  S  S1  1  -0.00027822  0.29191550  0.25025743  1
  S  S2  1  0.29219372  0.29191550  0.75025743  1
  S  S3  1  0.70575861  0.99647473  0.75097066  1
  S  S4  1  0.37672031  0.04276583  0.58419497  1
  S  S5  1  0.66773070  0.62481180  0.58381248  1
  S  S6  1  0.95708210  0.62481180  0.08381248  1
  S  S7  1  0.66604653  0.04276583  0.08419497  1
  S  S8  1  0.62144009  0.66589084  0.91660955  1
  S  S9  1  0.33489537  0.95653294  0.91778996  1
  S  S10  1  0.62163656  0.95653294  0.41778996  1
  S  S11  1  0.04444975  0.66589084  0.41660955  1
  O  O0  1  0.21213948  0.03449500  0.30500089  1
  O  O1  1  0.83244620  0.80028186  0.30731422  1
  O  O2  1  0.96587215  0.17856420  0.30495893  1
  O  O3  1  0.21269204  0.17856420  0.80495893  1
  O  O4  1  0.96783566  0.80028186  0.80731422  1
  O  O5  1  0.82235552  0.03449500  0.80500089  1
  O  O6  1  0.78447937  0.95817191  0.69448398  1
  O  O7  1  0.17252321  0.21569861  0.69423669  1
  O  O8  1  0.04126703  0.83874477  0.69163767  1
  O  O9  1  0.79747774  0.83874477  0.19163767  1
  O  O10  1  0.04317540  0.21569861  0.19423669  1
  O  O11  1  0.17369254  0.95817191  0.19448398  1
  O  O12  1  0.86965884  0.36438471  0.63990855  1
  O  O13  1  0.48934328  0.12468177  0.63899176  1
  O  O14  1  0.62887696  0.50811930  0.63823272  1
  O  O15  1  0.87924335  0.50811930  0.13823272  1
  O  O16  1  0.63533949  0.12468177  0.13899176  1
  O  O17  1  0.49472687  0.36438471  0.13990855  1
  O  O18  1  0.45990600  0.28983726  0.02491639  1
  O  O19  1  0.83919653  0.54691219  0.02768238  1
  O  O20  1  0.70848707  0.16172759  0.02771169  1
  O  O21  1  0.45324151  0.16172759  0.52771169  1
  O  O22  1  0.70771666  0.54691219  0.52768238  1
  O  O23  1  0.82993226  0.28983726  0.52491639  1
  O  O24  1  0.54363134  0.70284796  0.97145785  1
  O  O25  1  0.15985227  0.45899397  0.97327887  1
  O  O26  1  0.30338202  0.84284927  0.97255625  1
  O  O27  1  0.53946625  0.84284927  0.47255625  1
  O  O28  1  0.29914070  0.45899397  0.47327887  1
  O  O29  1  0.15921562  0.70284796  0.47145785  1
  O  O30  1  0.12395798  0.62798844  0.36031052  1
  O  O31  1  0.50335477  0.88034934  0.36122778  1
  O  O32  1  0.37750564  0.49916199  0.35897017  1
  O  O33  1  0.12165536  0.49916199  0.85897017  1
  O  O34  1  0.37699357  0.88034934  0.86122778  1
  O  O35  1  0.50402946  0.62798844  0.86031052  1
  O  O36  1  0.02371188  0.82666610  0.40909921  1
  O  O37  1  0.80217563  0.97520822  0.40969024  1
  O  O38  1  0.16683536  0.18717761  0.40670628  1
  O  O39  1  0.02034226  0.18717761  0.90670628  1
  O  O40  1  0.17303260  0.97520822  0.90969024  1
  O  O41  1  0.80295421  0.82666610  0.90909921  1
  O  O42  1  0.97280945  0.15520817  0.59285001  1
  O  O43  1  0.19207458  0.02708265  0.59027192  1
  O  O44  1  0.83657764  0.80760163  0.59075159  1
  O  O45  1  0.97102399  0.80760163  0.09075159  1
  O  O46  1  0.83500807  0.02708265  0.09027192  1
  O  O47  1  0.18239872  0.15520817  0.09285001  1
  O  O48  1  0.68318968  0.15628260  0.74246784  1
  O  O49  1  0.47163194  0.30798469  0.74076546  1
  O  O50  1  0.83248838  0.52707987  0.74241630  1
  O  O51  1  0.69459249  0.52707987  0.24241630  1
  O  O52  1  0.83635376  0.30798469  0.24076546  1
  O  O53  1  0.47309393  0.15628260  0.24246784  1
  O  O54  1  0.63722550  0.49754875  0.92371805  1
  O  O55  1  0.84731339  0.35812043  0.92676057  1
  O  O56  1  0.50303508  0.14082100  0.92359193  1
  O  O57  1  0.63778692  0.14082100  0.42359193  1
  O  O58  1  0.51080803  0.35812043  0.42676057  1
  O  O59  1  0.86032424  0.49754875  0.42371805  1
  O  O60  1  0.35807688  0.49911375  0.07532475  1
  O  O61  1  0.13984442  0.64832287  0.07556000  1
  O  O62  1  0.50378144  0.86340686  0.07484914  1
  O  O63  1  0.35962442  0.86340686  0.57484914  1
  O  O64  1  0.50847745  0.64832287  0.57556000  1
  O  O65  1  0.14103587  0.49911375  0.57532475  1
  O  O66  1  0.30360887  0.82694114  0.25876071  1
  O  O67  1  0.52167141  0.69860120  0.25739150  1
  O  O68  1  0.16622735  0.47732869  0.25729420  1
  O  O69  1  0.31110034  0.47732869  0.75729420  1
  O  O70  1  0.17692879  0.69860120  0.75739150  1
  O  O71  1  0.52333127  0.82694114  0.75876071  1
loop_
_geom_bond_atom_site_label_1
_geom_bond_atom_site_label_2
_geom_bond_distance
_geom_bond_site_symmetry_2
Ga0 O1 1.872478 1_445
Ga0 O38 1.877929 1_555
Ga0 O36 1.961374 1_545
Ga0 O0 1.968182 1_555
Ga0 O37 1.978836 1_445
Ga0 O2 1.980276 1_455
Ga1 O4 1.872478 1_545
Ga1 O39 1.877929 1_655
Ga1 O41 1.961374 1_545
Ga1 O5 1.968182 1_555
Ga1 O40 1.978836 1_645
Ga1 O3 1.980276 1_655
Ga2 O12 1.837368 1_555
Ga2 O50 1.863256 1_555
Ga2 O48 1.966723 1_555
Ga2 O14 1.973954 1_555
Ga2 O49 1.985516 1_555
Ga2 O13 2.032109 1_555
Ga3 O17 1.837368 1_555
Ga3 O51 1.863256 1_555
Ga3 O53 1.966723 1_555
Ga3 O15 1.973954 1_555
Ga3 O52 1.985516 1_555
Ga3 O16 2.032109 1_555
Ga4 O60 1.853439 1_555
Ga4 O25 1.855060 1_554
Ga4 O24 1.958304 1_554
Ga4 O61 1.964476 1_555
Ga4 O26 2.008757 1_554
Ga4 O62 2.019039 1_555
Ga5 O65 1.853439 1_555
Ga5 O28 1.855060 1_555
Ga5 O29 1.958304 1_555
Ga5 O64 1.964476 1_555
Ga5 O27 2.008757 1_555
Ga5 O63 2.019039 1_555
Ge0 O8 1.840496 1_545
Ge0 O42 1.842921 1_455
Ge0 O43 1.936933 1_555
Ge0 O44 1.943910 1_445
Ge0 O7 1.956551 1_555
Ge0 O6 1.968906 1_445
Ge1 O9 1.840496 1_545
Ge1 O47 1.842921 1_655
Ge1 O46 1.936933 1_555
Ge1 O45 1.943910 1_545
Ge1 O10 1.956551 1_655
Ge1 O11 1.968906 1_645
Ge2 O55 1.841378 1_555
Ge2 O18 1.853153 1_556
Ge2 O56 1.937682 1_555
Ge2 O20 1.939688 1_556
Ge2 O54 1.952192 1_555
Ge2 O19 1.963827 1_556
Ge3 O58 1.841379 1_555
Ge3 O23 1.853153 1_555
Ge3 O57 1.937682 1_555
Ge3 O21 1.939689 1_555
Ge3 O59 1.952192 1_555
Ge3 O22 1.963827 1_555
Ge4 O32 1.815445 1_555
Ge4 O67 1.817905 1_555
Ge4 O68 1.950419 1_555
Ge4 O31 1.954172 1_555
Ge4 O66 1.980610 1_555
Ge4 O30 2.011606 1_555
Ge5 O33 1.815445 1_555
Ge5 O70 1.817905 1_555
Ge5 O69 1.950419 1_555
Ge5 O34 1.954172 1_555
Ge5 O71 1.980610 1_555
Ge5 O35 2.011606 1_555
O0 S0 1.460538 1_545
O1 P0 1.516550 1_555
O2 S1 1.459507 1_655
O3 S2 1.459507 1_555
O4 P1 1.516550 1_655
O5 S3 1.460538 1_545
O6 S3 1.505696 1_555
O7 S2 1.506062 1_555
O8 P1 1.579211 1_555
O9 P0 1.579211 1_555
O10 S1 1.506062 1_555
O11 S0 1.505696 1_555
O12 P2 1.512190 1_555
O13 S4 1.464622 1_555
O14 S5 1.464997 1_555
O15 S6 1.464997 1_555
O16 S7 1.464622 1_555
O17 P3 1.512190 1_555
O18 P3 1.579719 1_555
O19 S6 1.502736 1_555
O20 S7 1.508774 1_555
O21 S4 1.508774 1_555
O22 S5 1.502736 1_555
O23 P2 1.579719 1_555
O24 S8 1.467466 1_555
O25 P4 1.512641 1_555
O26 S9 1.464914 1_555
O27 S10 1.464914 1_555
O28 P5 1.512641 1_555
O29 S11 1.467466 1_555
O30 S11 1.504510 1_555
O31 S10 1.510396 1_555
O32 P5 1.576701 1_555
O33 P4 1.576701 1_555
O34 S9 1.510396 1_555
O35 S8 1.504510 1_555
O36 S11 1.453650 1_555
O37 S10 1.452999 1_555
O38 P5 1.511370 1_555
O39 P4 1.511374 1_555
O40 S9 1.452990 1_555
O41 S8 1.453655 1_555
O42 P2 1.564274 1_555
O43 S4 1.493107 1_555
O44 S5 1.488121 1_555
O45 S6 1.488125 1_555
O46 S7 1.493099 1_555
O47 P3 1.564279 1_555
O48 S3 1.457180 1_545
O49 S2 1.457018 1_555
O50 P1 1.511071 1_655
O51 P0 1.511075 1_555
O52 S1 1.457010 1_655
O53 S0 1.457185 1_545
O54 S8 1.491844 1_555
O55 P4 1.562064 1_655
O56 S9 1.490245 1_545
O57 S10 1.490237 1_545
O58 P5 1.562081 1_555
O59 S11 1.491835 1_655
O60 P3 1.509944 1_555
O61 S6 1.455494 1_455
O62 S7 1.454773 1_565
O63 S4 1.454766 1_565
O64 S5 1.455510 1_555
O65 P2 1.509934 1_455
O66 S0 1.489857 1_555
O67 P0 1.563594 1_555
O68 S1 1.492463 1_555
O69 S2 1.492466 1_555
O70 P1 1.563586 1_555
O71 S3 1.489862 1_555
