# generated using pymatgen
data_NaTa2Zn2P3(SO8)3
_symmetry_space_group_name_H-M   'P 1'
_cell_length_a   8.74029493
_cell_length_b   8.73611382
_cell_length_c   22.56121571
_cell_angle_alpha   89.87221705
_cell_angle_beta   90.25167412
_cell_angle_gamma   119.87702304
_symmetry_Int_Tables_number   1
_chemical_formula_structural   NaTa2Zn2P3(SO8)3
_chemical_formula_sum   'Na3 Ta6 Zn6 P9 S9 O72'
_cell_volume   1493.72329583
_cell_formula_units_Z   3
loop_
 _symmetry_equiv_pos_site_id
 _symmetry_equiv_pos_as_xyz
  1  'x, y, z'
loop_
 _atom_site_type_symbol
 _atom_site_label
 _atom_site_symmetry_multiplicity
 _atom_site_fract_x
 _atom_site_fract_y
 _atom_site_fract_z
 _atom_site_occupancy
  Na  Na0  1  0.98943674  0.00017909  -0.00001992  1
  Na  Na1  1  0.67695326  0.34470185  0.83526801  1
  Na  Na2  1  0.65791826  0.32786584  0.34110842  1
  Ta  Ta0  1  0.99940440  0.99726813  0.35619269  1
  Ta  Ta1  1  0.00087474  0.99896843  0.64479327  1
  Ta  Ta2  1  0.66012059  0.32479045  0.19070375  1
  Ta  Ta3  1  0.33976899  0.66632902  0.02431878  1
  Ta  Ta4  1  0.33311060  0.65897651  0.51763797  1
  Ta  Ta5  1  0.32613585  0.65923896  0.81106602  1
  Zn  Zn0  1  0.98890537  0.99152441  0.85602949  1
  Zn  Zn1  1  0.99080170  0.99183326  0.15076303  1
  Zn  Zn2  1  0.68519448  0.34373244  0.68321604  1
  Zn  Zn3  1  0.67838913  0.33712786  0.97866339  1
  Zn  Zn4  1  0.66593972  0.32170155  0.48110029  1
  Zn  Zn5  1  0.35155240  0.67714400  0.31108834  1
  P  P0  1  0.27940126  0.98983241  0.24863902  1
  P  P1  1  0.70984698  0.71258467  0.24823861  1
  P  P2  1  0.99307951  0.70930271  0.75275687  1
  P  P3  1  0.95490037  0.33626418  0.58316174  1
  P  P4  1  0.67576649  0.05036617  0.08097133  1
  P  P5  1  0.62367679  0.66410806  0.91684252  1
  P  P6  1  0.04233445  0.37310105  0.91757835  1
  P  P7  1  0.62135701  0.96022427  0.41466378  1
  P  P8  1  0.33986797  0.37734445  0.41318145  1
  S  S0  1  0.00593184  0.29324496  0.24969567  1
  S  S1  1  0.29215122  0.28573413  0.75131872  1
  S  S2  1  0.70996507  0.00232158  0.75120321  1
  S  S3  1  0.37844361  0.04181491  0.58404305  1
  S  S4  1  0.66485509  0.62174724  0.58342035  1
  S  S5  1  0.95499665  0.62428523  0.08198955  1
  S  S6  1  0.37585658  0.32723501  0.08188217  1
  S  S7  1  0.33343540  0.95451276  0.91678484  1
  S  S8  1  0.04264955  0.66286455  0.41461553  1
  O  O0  1  0.19772655  0.03390961  0.30470440  1
  O  O1  1  0.83569721  0.80069604  0.30456946  1
  O  O2  1  0.96404100  0.17266505  0.30313801  1
  O  O3  1  0.21130945  0.18283710  0.80394728  1
  O  O4  1  0.97262856  0.79809418  0.80653759  1
  O  O5  1  0.81861828  0.03302927  0.80347436  1
  O  O6  1  0.79524118  0.97225549  0.69710496  1
  O  O7  1  0.17631360  0.20465964  0.69687017  1
  O  O8  1  0.02453826  0.82973947  0.69579643  1
  O  O9  1  0.79033627  0.81737808  0.19351331  1
  O  O10  1  0.02698160  0.21448471  0.19568583  1
  O  O11  1  0.18258645  0.98051881  0.19237518  1
  O  O12  1  0.88871147  0.37385878  0.63966571  1
  O  O13  1  0.48105060  0.11391170  0.63807140  1
  O  O14  1  0.62806219  0.51763883  0.63725048  1
  O  O15  1  0.87370404  0.51067439  0.13572587  1
  O  O16  1  0.64135763  0.13851315  0.13745005  1
  O  O17  1  0.49115979  0.36301211  0.13627967  1
  O  O18  1  0.45718351  0.30644143  0.02901980  1
  O  O19  1  0.84895262  0.54665824  0.02896269  1
  O  O20  1  0.69412928  0.15708589  0.02639548  1
  O  O21  1  0.44266077  0.14981104  0.53135228  1
  O  O22  1  0.70320649  0.55464265  0.53054691  1
  O  O23  1  0.84425652  0.29407758  0.52812305  1
  O  O24  1  0.52249467  0.68544172  0.97211283  1
  O  O25  1  0.16280700  0.47702683  0.97191006  1
  O  O26  1  0.31167446  0.84174304  0.97030615  1
  O  O27  1  0.53016444  0.83782243  0.47166045  1
  O  O28  1  0.30590433  0.46663653  0.47115329  1
  O  O29  1  0.15714053  0.69503040  0.46998302  1
  O  O30  1  0.12163414  0.63682833  0.36284716  1
  O  O31  1  0.50825782  0.87657757  0.36136335  1
  O  O32  1  0.35935415  0.48795801  0.36044676  1
  O  O33  1  0.14320606  0.49568478  0.86102937  1
  O  O34  1  0.35456247  0.86267152  0.86255901  1
  O  O35  1  0.50385264  0.64822971  0.86125339  1
  O  O36  1  0.03434727  0.83228754  0.41054880  1
  O  O37  1  0.80582565  0.96872848  0.40727892  1
  O  O38  1  0.16481908  0.19315434  0.40719286  1
  O  O39  1  0.04013124  0.19953580  0.91217620  1
  O  O40  1  0.17252410  0.96444473  0.91287185  1
  O  O41  1  0.79894847  0.83388789  0.91478716  1
  O  O42  1  0.98528523  0.17306935  0.59719161  1
  O  O43  1  0.19265538  0.01743415  0.59476474  1
  O  O44  1  0.82211203  0.80728955  0.59412198  1
  O  O45  1  0.98687750  0.80350875  0.08887756  1
  O  O46  1  0.82964078  0.01927325  0.08962667  1
  O  O47  1  0.19861732  0.18031865  0.09017641  1
  O  O48  1  0.67947440  0.15036665  0.74197962  1
  O  O49  1  0.46801560  0.31186804  0.74124788  1
  O  O50  1  0.83780864  0.52521250  0.74410727  1
  O  O51  1  0.70185917  0.52429786  0.24052167  1
  O  O52  1  0.83282867  0.30222318  0.24344708  1
  O  O53  1  0.47271700  0.17048964  0.24191109  1
  O  O54  1  0.62648857  0.49274086  0.92061237  1
  O  O55  1  0.86672525  0.36766364  0.91812068  1
  O  O56  1  0.49426062  0.12486213  0.91960222  1
  O  O57  1  0.65281847  0.14457576  0.42359418  1
  O  O58  1  0.49648608  0.35324609  0.42605431  1
  O  O59  1  0.86525823  0.51641410  0.42466838  1
  O  O60  1  0.36407758  0.49625211  0.07647309  1
  O  O61  1  0.13374037  0.63472816  0.07462084  1
  O  O62  1  0.49897728  0.86334765  0.07327413  1
  O  O63  1  0.34791495  0.85943084  0.57408015  1
  O  O64  1  0.51055024  0.65197890  0.57432156  1
  O  O65  1  0.14594356  0.49633115  0.57078927  1
  O  O66  1  0.30984501  0.84022997  0.25992757  1
  O  O67  1  0.52625784  0.67484756  0.25842184  1
  O  O68  1  0.14754121  0.46671371  0.26003176  1
  O  O69  1  0.30427738  0.46587375  0.75637726  1
  O  O70  1  0.16904649  0.69848958  0.75950851  1
  O  O71  1  0.53410925  0.83503542  0.75725701  1
loop_
_geom_bond_atom_site_label_1
_geom_bond_atom_site_label_2
_geom_bond_distance
_geom_bond_site_symmetry_2
Na0 O41 2.480193 1_544
Na0 O46 2.515468 1_555
Na0 O39 2.525318 1_654
Na0 O45 2.630930 1_545
Na0 O40 2.654912 1_644
Na0 O47 2.659948 1_655
Na1 O55 2.434846 1_555
Na1 O54 2.482230 1_555
Na1 O50 2.548632 1_555
Na1 O56 2.610272 1_555
Na1 O49 2.713583 1_555
Na1 O48 2.714068 1_555
Na2 O57 2.438347 1_555
Na2 O58 2.459720 1_555
Na2 O59 2.561494 1_555
Na2 O53 2.698859 1_555
Na2 O51 2.752454 1_555
Na2 O52 2.759546 1_555
O0 P0 1.594307 1_545
O0 Ta0 1.979837 1_445
O1 P1 1.601919 1_555
O1 Ta0 1.974617 1_555
O2 S0 1.520341 1_655
O2 Ta0 2.082453 1_545
O3 S1 1.444632 1_555
O3 Zn0 2.174223 1_445
O4 P2 1.500043 1_555
O4 Zn0 1.972324 1_555
O5 S2 1.449942 1_555
O5 Zn0 2.067081 1_545
O6 S2 1.522714 1_565
O6 Ta1 2.068136 1_655
O7 S1 1.521274 1_555
O7 Ta1 2.051619 1_545
O8 P2 1.594662 1_455
O8 Ta1 1.961506 1_555
O9 P1 1.489422 1_555
O9 Zn1 1.915944 1_555
O10 S0 1.457364 1_555
O10 Zn1 2.074567 1_445
O11 P0 1.502137 1_555
O11 Zn1 1.962605 1_455
O12 P3 1.505089 1_555
O12 Zn2 1.935608 1_555
O13 S3 1.455293 1_555
O13 Zn2 2.162444 1_555
O14 S4 1.453502 1_555
O14 Zn2 2.092182 1_555
O15 S5 1.503116 1_555
O15 Ta2 2.156759 1_555
O16 P4 1.595485 1_555
O16 Ta2 1.964628 1_555
O17 S6 1.515437 1_555
O17 Ta2 2.067250 1_555
O18 S6 1.448348 1_555
O18 Zn3 2.145274 1_554
O19 S5 1.455292 1_555
O19 Zn3 2.033861 1_554
O20 P4 1.502865 1_555
O20 Zn3 1.964500 1_554
O21 S3 1.446241 1_555
O21 Zn4 2.107373 1_555
O22 S4 1.442714 1_555
O22 Zn4 2.199633 1_555
O23 P3 1.499787 1_555
O23 Zn4 1.992945 1_555
O24 P5 1.595834 1_555
O24 Ta3 1.927638 1_556
O25 P6 1.573778 1_555
O25 Ta3 1.992384 1_556
O26 S7 1.508256 1_555
O26 Ta3 2.063386 1_556
O27 P7 1.608118 1_555
O27 Ta4 1.952183 1_555
O28 P8 1.626632 1_555
O28 Ta4 1.894054 1_555
O29 S8 1.533350 1_555
O29 Ta4 2.021706 1_555
O30 S8 1.434277 1_555
O30 Zn5 2.199913 1_555
O31 P7 1.493663 1_555
O31 Zn5 1.953397 1_555
O32 P8 1.486948 1_555
O32 Zn5 2.019830 1_555
O33 P6 1.617090 1_555
O33 Ta5 1.897686 1_555
O34 S7 1.525948 1_555
O34 Ta5 2.033866 1_555
O35 P5 1.591694 1_555
O35 Ta5 1.958816 1_555
O36 S8 1.520103 1_555
O36 Ta0 2.025308 1_455
O37 P7 1.586124 1_555
O37 Ta0 1.961835 1_555
O38 P8 1.579470 1_555
O38 Ta0 1.967724 1_445
O39 P6 1.511973 1_555
O39 Zn0 2.074135 1_445
O40 S7 1.453881 1_555
O40 Zn0 2.152921 1_455
O41 P5 1.511777 1_555
O41 Zn0 2.035590 1_555
O42 P3 1.605544 1_555
O42 Ta1 1.919159 1_645
O43 S3 1.548996 1_555
O43 Ta1 1.963700 1_545
O44 S4 1.534293 1_555
O44 Ta1 1.984543 1_655
O45 S5 1.455784 1_555
O45 Zn1 2.147313 1_555
O46 P4 1.510664 1_555
O46 Zn1 2.064453 1_545
O47 S6 1.450076 1_555
O47 Zn1 2.216086 1_445
O48 S2 1.459024 1_555
O48 Zn2 2.126089 1_555
O49 S1 1.455903 1_555
O49 Zn2 2.211026 1_555
O50 P2 1.513568 1_555
O50 Zn2 2.016636 1_555
O51 P1 1.620995 1_555
O51 Ta2 1.950844 1_555
O52 S0 1.559300 1_655
O52 Ta2 2.003291 1_555
O53 P0 1.647182 1_545
O53 Ta2 1.909097 1_555
O54 P5 1.511676 1_555
O54 Zn3 2.090559 1_555
O55 P6 1.511878 1_655
O55 Zn3 2.056020 1_555
O56 S7 1.452639 1_545
O56 Zn3 2.196174 1_555
O57 P7 1.506557 1_545
O57 Zn4 1.980325 1_555
O58 P8 1.511911 1_555
O58 Zn4 2.049585 1_555
O59 S8 1.455246 1_655
O59 Zn4 2.146363 1_555
O60 S6 1.535003 1_555
O60 Ta3 1.985404 1_555
O61 S5 1.528684 1_455
O61 Ta3 2.031781 1_555
O62 P4 1.603392 1_565
O62 Ta3 1.930680 1_555
O63 S3 1.495968 1_565
O63 Ta4 2.118424 1_555
O64 S4 1.510959 1_555
O64 Ta4 2.030047 1_555
O65 P3 1.580371 1_455
O65 Ta4 1.956250 1_555
O66 P0 1.479242 1_555
O66 Zn5 2.000364 1_555
O67 P1 1.487329 1_555
O67 Zn5 1.946919 1_555
O68 S0 1.418876 1_555
O68 Zn5 2.147440 1_555
O69 S1 1.528194 1_555
O69 Ta5 2.024393 1_555
O70 P2 1.593802 1_455
O70 Ta5 1.951667 1_555
O71 S2 1.509949 1_565
O71 Ta5 2.089595 1_555
