# generated using pymatgen
data_Y2Cr2O7
_symmetry_space_group_name_H-M   'P 1'
_cell_length_a   7.02463587
_cell_length_b   7.02474859
_cell_length_c   7.02302857
_cell_angle_alpha   59.98760622
_cell_angle_beta   59.98889265
_cell_angle_gamma   59.99469259
_symmetry_Int_Tables_number   1
_chemical_formula_structural   Y2Cr2O7
_chemical_formula_sum   'Y4 Cr4 O14'
_cell_volume   245.00190747
_cell_formula_units_Z   2
loop_
 _symmetry_equiv_pos_site_id
 _symmetry_equiv_pos_as_xyz
  1  'x, y, z'
loop_
 _atom_site_type_symbol
 _atom_site_label
 _atom_site_symmetry_multiplicity
 _atom_site_fract_x
 _atom_site_fract_y
 _atom_site_fract_z
 _atom_site_occupancy
  Y  Y0  1  0.49997823  0.99999617  0.50001411  1
  Y  Y1  1  -0.00000116  0.49999809  0.49999030  1
  Y  Y2  1  0.50001742  0.49998523  0.00000468  1
  Y  Y3  1  0.50002319  0.49996478  0.50000995  1
  Cr  Cr0  1  0.00000223  0.50000792  -0.00000361  1
  Cr  Cr1  1  0.49999880  0.00000160  -0.00000380  1
  Cr  Cr2  1  0.00000311  0.00000182  0.49999426  1
  Cr  Cr3  1  -0.00001202  0.00000546  0.00001022  1
  O  O0  1  0.62502197  0.62505074  0.62486164  1
  O  O1  1  0.37497208  0.37494387  0.37514813  1
  O  O2  1  0.32730339  0.92318847  0.92197876  1
  O  O3  1  0.07766520  0.67218460  0.67287988  1
  O  O4  1  0.92219948  0.32739755  0.92290175  1
  O  O5  1  0.92313464  0.92211749  0.32751787  1
  O  O6  1  0.32775663  0.32712715  0.92295636  1
  O  O7  1  0.32729307  0.92254087  0.32753571  1
  O  O8  1  0.92234067  0.32782339  0.32711976  1
  O  O9  1  0.67224169  0.67287847  0.07703812  1
  O  O10  1  0.07686100  0.07789801  0.67247861  1
  O  O11  1  0.67268690  0.07681990  0.07802121  1
  O  O12  1  0.67270081  0.07745324  0.67246534  1
  O  O13  1  0.07781368  0.67261417  0.07708077  1
loop_
_geom_bond_atom_site_label_1
_geom_bond_atom_site_label_2
_geom_bond_distance
_geom_bond_site_symmetry_2
Cr0 O3 1.914380 1_554
Cr0 O8 1.914425 1_455
Cr0 O13 1.917700 1_555
Cr0 O4 1.917734 1_454
Cr0 O6 1.919149 1_554
Cr0 O9 1.919168 1_455
Cr1 O9 1.915084 1_545
Cr1 O6 1.915096 1_554
Cr1 O12 1.917192 1_554
Cr1 O7 1.917242 1_545
Cr1 O2 1.917920 1_544
Cr1 O11 1.917940 1_555
Cr2 O5 1.915964 1_445
Cr2 O10 1.916022 1_555
Cr2 O7 1.916088 1_545
Cr2 O12 1.916168 1_455
Cr2 O3 1.919350 1_545
Cr2 O8 1.919359 1_455
Cr3 O11 1.916338 1_455
Cr3 O2 1.916403 1_544
Cr3 O13 1.916850 1_545
Cr3 O4 1.916854 1_454
Cr3 O5 1.917180 1_445
Cr3 O10 1.917304 1_554
O0 Y0 2.150341 1_555
O0 Y3 2.150486 1_555
O0 Y1 2.150515 1_655
O0 Y2 2.150821 1_556
O1 Y0 2.150354 1_545
O1 Y3 2.150471 1_555
O1 Y1 2.150494 1_555
O1 Y2 2.150824 1_555
O2 Y0 2.450261 1_555
O2 Y2 2.457293 1_556
O3 Y3 2.452812 1_555
O3 Y1 2.454977 1_555
O4 Y2 2.452043 1_556
O4 Y1 2.454959 1_655
O5 Y1 2.451817 1_655
O5 Y0 2.457042 1_555
O6 Y2 2.452239 1_556
O6 Y3 2.455114 1_555
O7 Y3 2.454008 1_555
O7 Y0 2.454422 1_555
O8 Y3 2.452553 1_555
O8 Y1 2.454751 1_655
O9 Y2 2.452156 1_555
O9 Y3 2.455269 1_555
O10 Y1 2.451703 1_555
O10 Y0 2.456786 1_545
O11 Y0 2.450414 1_545
O11 Y2 2.457075 1_555
O12 Y3 2.453616 1_555
O12 Y0 2.454492 1_545
O13 Y2 2.452199 1_555
O13 Y1 2.454932 1_555
