# generated using pymatgen
data_NaP4N7
_symmetry_space_group_name_H-M   'P 1'
_cell_length_a   7.48826240
_cell_length_b   7.48826240
_cell_length_c   5.13413866
_cell_angle_alpha   79.71414097
_cell_angle_beta   79.71414097
_cell_angle_gamma   69.30074614
_symmetry_Int_Tables_number   1
_chemical_formula_structural   NaP4N7
_chemical_formula_sum   'Na2 P8 N14'
_cell_volume   262.88762552
_cell_formula_units_Z   2
loop_
 _symmetry_equiv_pos_site_id
 _symmetry_equiv_pos_as_xyz
  1  'x, y, z'
loop_
 _atom_site_type_symbol
 _atom_site_label
 _atom_site_symmetry_multiplicity
 _atom_site_fract_x
 _atom_site_fract_y
 _atom_site_fract_z
 _atom_site_occupancy
  Na  Na0  1  0.79340812  0.20659188  0.25000000  1
  Na  Na1  1  0.20659188  0.79340812  0.75000000  1
  P  P0  1  0.29599995  0.45899046  0.28662238  1
  P  P1  1  0.54100954  0.70400005  0.21337762  1
  P  P2  1  0.09573768  0.24994499  0.69755994  1
  P  P3  1  0.75005501  0.90426232  0.80244006  1
  P  P4  1  0.90426232  0.75005501  0.30244006  1
  P  P5  1  0.24994499  0.09573768  0.19755994  1
  P  P6  1  0.45899046  0.29599995  0.78662238  1
  P  P7  1  0.70400005  0.54100954  0.71337762  1
  N  N0  1  0.26760539  0.36391797  0.60788007  1
  N  N1  1  0.63608203  0.73239461  0.89211993  1
  N  N2  1  0.73239461  0.63608203  0.39211993  1
  N  N3  1  0.36391797  0.26760539  0.10788007  1
  N  N4  1  0.89430120  0.39232071  0.81005361  1
  N  N5  1  0.60767929  0.10569880  0.68994639  1
  N  N6  1  0.10569880  0.60767929  0.18994639  1
  N  N7  1  0.39232071  0.89430120  0.31005361  1
  N  N8  1  0.91769852  0.82047381  0.57117274  1
  N  N9  1  0.17952619  0.08230148  0.92882726  1
  N  N10  1  0.47708987  0.52291013  0.25000000  1
  N  N11  1  0.52291013  0.47708987  0.75000000  1
  N  N12  1  0.82047381  0.91769852  0.07117274  1
  N  N13  1  0.08230148  0.17952619  0.42882726  1
loop_
_geom_bond_atom_site_label_1
_geom_bond_atom_site_label_2
_geom_bond_distance
_geom_bond_site_symmetry_2
N0 P0 1.683727 1_555
N0 P6 1.715355 1_555
N0 P2 1.738179 1_555
N1 P1 1.683727 1_556
N1 P7 1.715355 1_555
N1 P3 1.738179 1_555
N2 P7 1.683727 1_555
N2 P1 1.715355 1_555
N2 P4 1.738179 1_555
N3 P6 1.683727 1_554
N3 P0 1.715355 1_555
N3 P5 1.738179 1_555
N4 P7 1.565360 1_555
N4 P2 1.586649 1_655
N4 Na0 2.572651 1_556
N5 P6 1.565360 1_555
N5 P3 1.586649 1_545
N5 Na0 2.572651 1_555
N6 P0 1.565360 1_555
N6 P4 1.586649 1_455
N6 Na1 2.572651 1_554
N7 P1 1.565360 1_555
N7 P5 1.586649 1_565
N7 Na1 2.572651 1_555
N8 P4 1.593325 1_555
N8 P3 1.598857 1_555
N8 Na1 2.428340 1_655
N9 P5 1.593325 1_556
N9 P2 1.598857 1_555
N9 Na1 2.428340 1_545
N10 P1 1.561721 1_555
N10 P0 1.561721 1_555
N10 Na0 2.693501 1_555
N11 P6 1.561721 1_555
N11 P7 1.561721 1_555
N11 Na1 2.693501 1_555
N12 P3 1.593325 1_554
N12 P4 1.598857 1_555
N12 Na0 2.428340 1_565
N13 P2 1.593325 1_555
N13 P5 1.598857 1_555
N13 Na0 2.428340 1_455
