# generated using pymatgen
data_NaZrTaSi(PO6)2
_symmetry_space_group_name_H-M   'P 1'
_cell_length_a   8.89288114
_cell_length_b   8.88097628
_cell_length_c   23.13999203
_cell_angle_alpha   90.05190997
_cell_angle_beta   90.00000000
_cell_angle_gamma   120.04435296
_symmetry_Int_Tables_number   1
_chemical_formula_structural   NaZrTaSi(PO6)2
_chemical_formula_sum   'Na6 Zr6 Ta6 Si6 P12 O72'
_cell_volume   1581.98559299
_cell_formula_units_Z   6
loop_
 _symmetry_equiv_pos_site_id
 _symmetry_equiv_pos_as_xyz
  1  'x, y, z'
loop_
 _atom_site_type_symbol
 _atom_site_label
 _atom_site_symmetry_multiplicity
 _atom_site_fract_x
 _atom_site_fract_y
 _atom_site_fract_z
 _atom_site_occupancy
  Na  Na0  1  0.00317103  0.00494075  0.49832126  1
  Na  Na1  1  0.00176971  0.00494075  0.99832126  1
  Na  Na2  1  0.67039343  0.33724692  0.83177876  1
  Na  Na3  1  0.66685449  0.33724692  0.33177876  1
  Na  Na4  1  0.33504549  0.66523228  0.16495610  1
  Na  Na5  1  0.33018580  0.66523228  0.66495610  1
  Zr  Zr0  1  0.99966388  0.99807426  0.35397136  1
  Zr  Zr1  1  0.99841038  0.99807426  0.85397136  1
  Zr  Zr2  1  0.67468775  0.33743765  0.68740503  1
  Zr  Zr3  1  0.66275090  0.33743765  0.18740503  1
  Zr  Zr4  1  0.33076120  0.65914555  0.02074741  1
  Zr  Zr5  1  0.32838335  0.65914555  0.52074741  1
  Ta  Ta0  1  0.00173752  0.00006775  0.64585390  1
  Ta  Ta1  1  0.99833023  0.00006775  0.14585390  1
  Ta  Ta2  1  0.66461696  0.33188511  0.97926477  1
  Ta  Ta3  1  0.66726916  0.33188511  0.47926477  1
  Ta  Ta4  1  0.33754663  0.66364078  0.31248945  1
  Ta  Ta5  1  0.32609314  0.66364078  0.81248945  1
  Si  Si0  1  0.70974158  0.71194802  0.25014416  1
  Si  Si1  1  0.00220644  0.71194802  0.75014416  1
  Si  Si2  1  0.95591342  0.32993574  0.58316618  1
  Si  Si3  1  0.37402332  0.32993574  0.08316618  1
  Si  Si4  1  0.03961504  0.37573062  0.91695961  1
  Si  Si5  1  0.33611458  0.37573062  0.41695961  1
  P  P0  1  0.28577475  0.99479767  0.24973012  1
  P  P1  1  0.00256429  0.28985657  0.24986069  1
  P  P2  1  0.28729228  0.28985657  0.74986069  1
  P  P3  1  0.70902291  0.99479767  0.74973012  1
  P  P4  1  0.37745630  0.04762552  0.58347650  1
  P  P5  1  0.67060136  0.62377167  0.58328064  1
  P  P6  1  0.95317131  0.62377167  0.08328064  1
  P  P7  1  0.67017022  0.04762552  0.08347650  1
  P  P8  1  0.61892732  0.66268901  0.91650910  1
  P  P9  1  0.33741514  0.95611245  0.91687494  1
  P  P10  1  0.61869630  0.95611245  0.41687494  1
  P  P11  1  0.04376069  0.66268901  0.41650910  1
  O  O0  1  0.20600890  0.02683459  0.30368946  1
  O  O1  1  0.82405419  0.80001266  0.30675762  1
  O  O2  1  0.97828380  0.18101551  0.30383197  1
  O  O3  1  0.20273171  0.18101551  0.80383197  1
  O  O4  1  0.97595847  0.80001266  0.80675762  1
  O  O5  1  0.82082569  0.02683459  0.80368946  1
  O  O6  1  0.80185252  0.97181489  0.69555980  1
  O  O7  1  0.16989641  0.20190727  0.69553505  1
  O  O8  1  0.02955993  0.83571362  0.69300897  1
  O  O9  1  0.80615369  0.83571362  0.19300897  1
  O  O10  1  0.03201086  0.20190727  0.19553505  1
  O  O11  1  0.16996237  0.97181489  0.19555980  1
  O  O12  1  0.86647771  0.35795607  0.63933993  1
  O  O13  1  0.48459395  0.13055735  0.63755155  1
  O  O14  1  0.63966074  0.51297983  0.63715683  1
  O  O15  1  0.87332008  0.51297983  0.13715683  1
  O  O16  1  0.64596439  0.13055735  0.13755155  1
  O  O17  1  0.49147936  0.35795607  0.13933993  1
  O  O18  1  0.47243140  0.30360316  0.02624364  1
  O  O19  1  0.83713550  0.53303019  0.02906415  1
  O  O20  1  0.69801261  0.16433331  0.02886298  1
  O  O21  1  0.46632170  0.16433331  0.52886298  1
  O  O22  1  0.69589570  0.53303019  0.52906415  1
  O  O23  1  0.83117277  0.30360316  0.52624364  1
  O  O24  1  0.53912024  0.69249679  0.97050898  1
  O  O25  1  0.15798973  0.46639995  0.97269796  1
  O  O26  1  0.31146987  0.84859900  0.97078867  1
  O  O27  1  0.53712813  0.84859900  0.47078867  1
  O  O28  1  0.30840922  0.46639995  0.47269796  1
  O  O29  1  0.15337555  0.69249679  0.47050898  1
  O  O30  1  0.13208780  0.63734894  0.36217560  1
  O  O31  1  0.50245606  0.86758980  0.36220977  1
  O  O32  1  0.36233443  0.50260435  0.35989073  1
  O  O33  1  0.14026892  0.50260435  0.85989073  1
  O  O34  1  0.36513274  0.86758980  0.86220977  1
  O  O35  1  0.50526014  0.63734894  0.86217560  1
  O  O36  1  0.01828712  0.82036973  0.41017884  1
  O  O37  1  0.80071179  0.98098686  0.40935837  1
  O  O38  1  0.16861880  0.18490691  0.41052030  1
  O  O39  1  0.01628811  0.18490691  0.91052030  1
  O  O40  1  0.18027507  0.98098686  0.90935837  1
  O  O41  1  0.80208261  0.82036973  0.91017884  1
  O  O42  1  0.97220724  0.15426845  0.59179618  1
  O  O43  1  0.19474617  0.03194847  0.59058420  1
  O  O44  1  0.83834963  0.80524835  0.59095326  1
  O  O45  1  0.96689872  0.80524835  0.09095326  1
  O  O46  1  0.83720230  0.03194847  0.09058420  1
  O  O47  1  0.18206121  0.15426845  0.09179618  1
  O  O48  1  0.68181767  0.15066551  0.74271314  1
  O  O49  1  0.46660793  0.31094501  0.74248080  1
  O  O50  1  0.83472367  0.51963218  0.74501550  1
  O  O51  1  0.68490951  0.51963218  0.24501550  1
  O  O52  1  0.84433808  0.31094501  0.24248080  1
  O  O53  1  0.46884884  0.15066551  0.24271314  1
  O  O54  1  0.63511301  0.49625385  0.92459393  1
  O  O55  1  0.84912173  0.36218089  0.92512677  1
  O  O56  1  0.50422102  0.13915623  0.92380416  1
  O  O57  1  0.63493620  0.13915623  0.42380416  1
  O  O58  1  0.51306016  0.36218089  0.42512677  1
  O  O59  1  0.86114183  0.49625385  0.42459393  1
  O  O60  1  0.35287295  0.49985166  0.07840917  1
  O  O61  1  0.13653082  0.65267934  0.07609347  1
  O  O62  1  0.51245268  0.86732529  0.07564383  1
  O  O63  1  0.35487161  0.86732529  0.57564383  1
  O  O64  1  0.51614752  0.65267934  0.57609347  1
  O  O65  1  0.14697771  0.49985166  0.57840917  1
  O  O66  1  0.29784938  0.82736733  0.25743514  1
  O  O67  1  0.51682858  0.69767661  0.25797348  1
  O  O68  1  0.16799299  0.47360174  0.25765579  1
  O  O69  1  0.30560775  0.47360174  0.75765579  1
  O  O70  1  0.18084703  0.69767661  0.75797348  1
  O  O71  1  0.52951695  0.82736733  0.75743514  1
loop_
_geom_bond_atom_site_label_1
_geom_bond_atom_site_label_2
_geom_bond_distance
_geom_bond_site_symmetry_2
Na0 O38 2.549170 1_555
Na0 O42 2.621762 1_455
Na0 O36 2.660745 1_545
Na0 O43 2.666071 1_555
Na0 O37 2.672148 1_445
Na0 O44 2.700396 1_445
Na1 O39 2.549170 1_555
Na1 O47 2.621762 1_556
Na1 O41 2.660745 1_445
Na1 O46 2.666071 1_456
Na1 O40 2.672148 1_545
Na1 O45 2.700396 1_446
Na2 O50 2.534904 1_555
Na2 O55 2.624476 1_555
Na2 O54 2.672735 1_555
Na2 O48 2.676951 1_555
Na2 O49 2.680269 1_555
Na2 O56 2.686426 1_555
Na3 O51 2.534904 1_555
Na3 O58 2.624476 1_555
Na3 O59 2.672735 1_555
Na3 O53 2.676951 1_555
Na3 O52 2.680269 1_555
Na3 O57 2.686426 1_555
Na4 O60 2.533961 1_555
Na4 O67 2.619487 1_555
Na4 O62 2.674475 1_555
Na4 O61 2.675772 1_555
Na4 O68 2.679475 1_555
Na4 O66 2.689531 1_555
Na5 O65 2.533961 1_555
Na5 O70 2.619487 1_555
Na5 O63 2.674475 1_555
Na5 O64 2.675772 1_555
Na5 O69 2.679475 1_555
Na5 O71 2.689531 1_555
O0 P0 1.531217 1_545
O0 Zr0 2.077852 1_445
O1 Si0 1.601032 1_555
O1 Zr0 1.993072 1_555
O2 P1 1.527710 1_655
O2 Zr0 2.081981 1_545
O3 P2 1.527710 1_555
O3 Zr1 2.081981 1_445
O4 Si1 1.601032 1_655
O4 Zr1 1.993072 1_555
O5 P3 1.531217 1_545
O5 Zr1 2.077852 1_545
O6 P3 1.569290 1_555
O6 Ta0 2.024726 1_665
O7 P2 1.569067 1_555
O7 Ta0 2.020684 1_555
O8 Si1 1.658371 1_555
O8 Ta0 1.935687 1_565
O9 Si0 1.658371 1_555
O9 Ta1 1.935687 1_565
O10 P1 1.569067 1_555
O10 Ta1 2.020684 1_455
O11 P0 1.569290 1_555
O11 Ta1 2.024726 1_465
O12 Si2 1.606775 1_555
O12 Zr2 1.966815 1_555
O13 P4 1.520401 1_555
O13 Zr2 2.109570 1_555
O14 P5 1.526178 1_555
O14 Zr2 2.090211 1_555
O15 P6 1.526178 1_555
O15 Zr3 2.090211 1_555
O16 P7 1.520401 1_555
O16 Zr3 2.109570 1_555
O17 Si3 1.606775 1_555
O17 Zr3 1.966815 1_555
O18 Si3 1.661295 1_555
O18 Ta2 1.932994 1_554
O19 P6 1.566415 1_555
O19 Ta2 2.030944 1_554
O20 P7 1.574190 1_555
O20 Ta2 2.016244 1_554
O21 P4 1.574190 1_555
O21 Ta3 2.016244 1_555
O22 P5 1.566415 1_555
O22 Ta3 2.030944 1_555
O23 Si2 1.661295 1_555
O23 Ta3 1.932994 1_555
O24 P8 1.524039 1_555
O24 Zr4 2.079310 1_556
O25 Si4 1.602943 1_555
O25 Zr4 1.972317 1_556
O26 P9 1.517530 1_555
O26 Zr4 2.118807 1_556
O27 P10 1.517530 1_555
O27 Zr5 2.118807 1_555
O28 Si5 1.602943 1_555
O28 Zr5 1.972317 1_555
O29 P11 1.524039 1_555
O29 Zr5 2.079310 1_555
O30 P11 1.557198 1_555
O30 Ta4 2.070767 1_555
O31 P10 1.571992 1_555
O31 Ta4 2.022742 1_555
O32 Si5 1.675558 1_555
O32 Ta4 1.901470 1_555
O33 Si4 1.675558 1_555
O33 Ta5 1.901470 1_555
O34 P9 1.571992 1_555
O34 Ta5 2.022742 1_555
O35 P8 1.557198 1_555
O35 Ta5 2.070767 1_555
O36 P11 1.533559 1_555
O36 Zr0 2.115471 1_455
O37 P10 1.530057 1_555
O37 Zr0 2.127779 1_555
O38 Si5 1.607716 1_555
O38 Zr0 2.054898 1_445
O39 Si4 1.607720 1_555
O39 Zr1 2.054898 1_445
O40 P9 1.530048 1_555
O40 Zr1 2.127779 1_455
O41 P8 1.533565 1_555
O41 Zr1 2.115471 1_555
O42 Si2 1.649758 1_555
O42 Ta0 1.967821 1_655
O43 P4 1.568436 1_555
O43 Ta0 2.043509 1_555
O44 P5 1.564106 1_555
O44 Ta0 2.048742 1_665
O45 P6 1.564109 1_555
O45 Ta1 2.048742 1_565
O46 P7 1.568427 1_555
O46 Ta1 2.043509 1_555
O47 Si3 1.649763 1_555
O47 Ta1 1.967821 1_455
O48 P3 1.528667 1_545
O48 Zr2 2.121907 1_555
O49 P2 1.519242 1_555
O49 Zr2 2.160617 1_555
O50 Si1 1.613041 1_655
O50 Zr2 2.027549 1_555
O51 Si0 1.613045 1_555
O51 Zr3 2.027549 1_555
O52 P1 1.519234 1_655
O52 Zr3 2.160617 1_555
O53 P0 1.528672 1_545
O53 Zr3 2.121907 1_555
O54 P8 1.566544 1_555
O54 Ta2 2.046222 1_555
O55 Si4 1.647988 1_655
O55 Ta2 1.972940 1_555
O56 P9 1.566408 1_545
O56 Ta2 2.040231 1_555
O57 P10 1.566400 1_545
O57 Ta3 2.040231 1_555
O58 Si5 1.648006 1_555
O58 Ta3 1.972941 1_555
O59 P11 1.566534 1_655
O59 Ta3 2.046221 1_555
O60 Si3 1.615284 1_555
O60 Zr4 2.025416 1_555
O61 P6 1.527515 1_455
O61 Zr4 2.127856 1_555
O62 P7 1.521391 1_565
O62 Zr4 2.155694 1_555
O63 P4 1.521384 1_565
O63 Zr5 2.155694 1_555
O64 P5 1.527533 1_555
O64 Zr5 2.127856 1_555
O65 Si2 1.615274 1_455
O65 Zr5 2.025416 1_555
O66 P0 1.553925 1_555
O66 Ta4 2.092657 1_555
O67 Si0 1.665629 1_555
O67 Ta4 1.934624 1_555
O68 P1 1.566929 1_555
O68 Ta4 2.044469 1_555
O69 P2 1.566932 1_555
O69 Ta5 2.044469 1_555
O70 Si1 1.665620 1_555
O70 Ta5 1.934624 1_555
O71 P3 1.553930 1_555
O71 Ta5 2.092657 1_555
