# generated using pymatgen
data_Na3Mg3SnPS5O24
_symmetry_space_group_name_H-M   'P 1'
_cell_length_a   8.77059863
_cell_length_b   8.75080223
_cell_length_c   22.60427111
_cell_angle_alpha   90.29177185
_cell_angle_beta   89.80879959
_cell_angle_gamma   120.24035074
_symmetry_Int_Tables_number   1
_chemical_formula_structural   Na3Mg3SnPS5O24
_chemical_formula_sum   'Na9 Mg9 Sn3 P3 S15 O72'
_cell_volume   1498.77177083
_cell_formula_units_Z   3
loop_
 _symmetry_equiv_pos_site_id
 _symmetry_equiv_pos_as_xyz
  1  'x, y, z'
loop_
 _atom_site_type_symbol
 _atom_site_label
 _atom_site_symmetry_multiplicity
 _atom_site_fract_x
 _atom_site_fract_y
 _atom_site_fract_z
 _atom_site_occupancy
  Na  Na0  1  0.36187350  0.36195854  0.25191568  1
  Na  Na1  1  0.02430261  0.69690308  0.58573801  1
  Na  Na2  1  0.29998549  0.96646777  0.07905469  1
  Na  Na3  1  0.98955666  0.00071165  0.50134066  1
  Na  Na4  1  0.99935802  0.01007897  0.99108691  1
  Na  Na5  1  0.66733162  0.32682108  0.82958936  1
  Na  Na6  1  0.67889454  0.33235636  0.33212257  1
  Na  Na7  1  0.33325187  0.66662655  0.16798074  1
  Na  Na8  1  0.35385412  0.66362442  0.66487153  1
  Mg  Mg0  1  0.99640281  0.99679847  0.35160752  1
  Mg  Mg1  1  0.00630683  0.00553520  0.85248618  1
  Mg  Mg2  1  0.99281654  0.00046704  0.65071302  1
  Mg  Mg3  1  0.99222739  0.99757637  0.15054885  1
  Mg  Mg4  1  0.66224376  0.33653829  0.68600208  1
  Mg  Mg5  1  0.67444280  0.33465379  0.18598130  1
  Mg  Mg6  1  0.32885881  0.66155730  0.01436215  1
  Mg  Mg7  1  0.34441700  0.66567205  0.51852405  1
  Mg  Mg8  1  0.33378547  0.67411560  0.31717570  1
  Sn  Sn0  1  0.67128337  0.33119487  0.97896963  1
  Sn  Sn1  1  0.66577078  0.33665615  0.48382892  1
  Sn  Sn2  1  0.32845373  0.66782635  0.81697237  1
  P  P0  1  0.66605315  0.63015385  0.58581995  1
  P  P1  1  0.04174206  0.37020275  0.91815923  1
  P  P2  1  0.32811772  0.95912512  0.92002539  1
  S  S0  1  0.29242222  0.99780711  0.24868638  1
  S  S1  1  0.70571159  0.70641582  0.25043701  1
  S  S2  1  -0.00025901  0.29297309  0.25083222  1
  S  S3  1  0.29257445  0.29251872  0.75042612  1
  S  S4  1  -0.00044611  0.70734785  0.74961384  1
  S  S5  1  0.70666482  0.00038253  0.75110198  1
  S  S6  1  0.95969408  0.33076552  0.58399008  1
  S  S7  1  0.37194539  0.03902023  0.58468596  1
  S  S8  1  0.95911241  0.62654576  0.08486620  1
  S  S9  1  0.66866184  0.03825731  0.08486557  1
  S  S10  1  0.37468438  0.33683024  0.08565134  1
  S  S11  1  0.62748257  0.66916910  0.91788867  1
  S  S12  1  0.62752670  0.96176891  0.41720170  1
  S  S13  1  0.33127427  0.37091589  0.41543065  1
  S  S14  1  0.04120105  0.66771938  0.41780802  1
  O  O0  1  0.20712578  0.02877569  0.30002063  1
  O  O1  1  0.81192977  0.78801246  0.30338239  1
  O  O2  1  0.97499598  0.18561740  0.30353181  1
  O  O3  1  0.20947258  0.19242154  0.80386502  1
  O  O4  1  0.98208366  0.79454578  0.80203937  1
  O  O5  1  0.80790592  0.01911684  0.80438618  1
  O  O6  1  0.78201428  0.97094067  0.69727382  1
  O  O7  1  0.18686485  0.21452712  0.69690353  1
  O  O8  1  0.02641965  0.80892748  0.69469188  1
  O  O9  1  0.78530993  0.81066900  0.19665029  1
  O  O10  1  0.03197387  0.21357717  0.19743859  1
  O  O11  1  0.19042583  0.97365873  0.19347552  1
  O  O12  1  0.87243753  0.36016394  0.63428461  1
  O  O13  1  0.48714409  0.12443102  0.63465345  1
  O  O14  1  0.64240794  0.50996186  0.63694291  1
  O  O15  1  0.87168110  0.51590109  0.13584112  1
  O  O16  1  0.63661516  0.12485978  0.13552038  1
  O  O17  1  0.48132023  0.35892826  0.13879880  1
  O  O18  1  0.45702447  0.29938825  0.03211053  1
  O  O19  1  0.85110899  0.55027710  0.02942356  1
  O  O20  1  0.69992686  0.14700797  0.02967291  1
  O  O21  1  0.44591951  0.14357105  0.52771193  1
  O  O22  1  0.71342592  0.55515577  0.52668129  1
  O  O23  1  0.84951278  0.29286746  0.52770656  1
  O  O24  1  0.54413063  0.69068555  0.97051900  1
  O  O25  1  0.15004396  0.45694294  0.97270556  1
  O  O26  1  0.31430667  0.86071277  0.97724512  1
  O  O27  1  0.54406829  0.86047217  0.47055990  1
  O  O28  1  0.31278936  0.45729774  0.46797880  1
  O  O29  1  0.13862871  0.68573203  0.47289448  1
  O  O30  1  0.12394472  0.64090510  0.36549365  1
  O  O31  1  0.52163529  0.88500274  0.36359950  1
  O  O32  1  0.36045669  0.47480159  0.36074279  1
  O  O33  1  0.11851136  0.48343312  0.86055142  1
  O  O34  1  0.37181580  0.88051632  0.86432726  1
  O  O35  1  0.51733151  0.63144287  0.86319284  1
  O  O36  1  0.01697599  0.82217183  0.41188643  1
  O  O37  1  0.80638731  0.98678502  0.41144837  1
  O  O38  1  0.17601877  0.19160215  0.41014900  1
  O  O39  1  0.01250847  0.18526510  0.91029736  1
  O  O40  1  0.16508530  0.97390127  0.91131562  1
  O  O41  1  0.80228284  0.82282384  0.91003617  1
  O  O42  1  0.98434920  0.17832836  0.58982954  1
  O  O43  1  0.19539028  0.02106802  0.59031251  1
  O  O44  1  0.83643417  0.81284805  0.58986445  1
  O  O45  1  0.98212295  0.80669091  0.08978428  1
  O  O46  1  0.82541930  0.02084663  0.09088707  1
  O  O47  1  0.19858664  0.17306573  0.08969674  1
  O  O48  1  0.68113711  0.15455665  0.74513602  1
  O  O49  1  0.47119931  0.31568598  0.74528619  1
  O  O50  1  0.84549761  0.52653697  0.74509639  1
  O  O51  1  0.68098633  0.52399235  0.24475789  1
  O  O52  1  0.84315823  0.31372090  0.24413767  1
  O  O53  1  0.47060661  0.16196022  0.24364335  1
  O  O54  1  0.64317538  0.50474619  0.92240601  1
  O  O55  1  0.85557323  0.36066759  0.92094329  1
  O  O56  1  0.49846362  0.15115298  0.92200425  1
  O  O57  1  0.64553624  0.14622522  0.42174687  1
  O  O58  1  0.49630986  0.35295487  0.41998981  1
  O  O59  1  0.85830161  0.49957559  0.42031997  1
  O  O60  1  0.36022006  0.49447241  0.07777988  1
  O  O61  1  0.13675635  0.64610743  0.07883438  1
  O  O62  1  0.50610043  0.86299019  0.07794532  1
  O  O63  1  0.34669568  0.85896322  0.57663076  1
  O  O64  1  0.50174580  0.64527195  0.57670150  1
  O  O65  1  0.13139664  0.49663998  0.57541005  1
  O  O66  1  0.31294223  0.84127786  0.25550472  1
  O  O67  1  0.52375943  0.68170502  0.25602629  1
  O  O68  1  0.16293054  0.47187548  0.25668302  1
  O  O69  1  0.31369293  0.47843011  0.75457868  1
  O  O70  1  0.16632896  0.69168080  0.75323580  1
  O  O71  1  0.52226762  0.83207167  0.75518069  1
loop_
_geom_bond_atom_site_label_1
_geom_bond_atom_site_label_2
_geom_bond_distance
_geom_bond_site_symmetry_2
Na0 O68 2.381063 1_555
Na0 O53 2.384126 1_555
Na0 O67 2.418725 1_555
Na0 O51 2.423230 1_555
Na0 O32 2.648406 1_555
Na0 O0 2.749881 1_555
Na0 O17 2.765047 1_555
Na0 O10 2.792399 1_555
Na1 O44 2.331319 1_455
Na1 O65 2.379126 1_555
Na1 O63 2.451284 1_555
Na1 O43 2.453522 1_565
Na1 O8 2.642767 1_555
Na1 O22 2.712138 1_455
Na1 O29 2.756883 1_555
Na1 O12 2.780529 1_455
Na2 O47 2.393928 1_565
Na2 O62 2.395168 1_555
Na2 O45 2.420445 1_455
Na2 O61 2.421989 1_555
Na2 O26 2.502360 1_554
Na2 O18 2.736878 1_565
Na2 O11 2.767565 1_555
Na2 O16 2.855235 1_565
Na3 O44 2.510377 1_545
Na3 O42 2.541267 1_555
Na3 O37 2.558630 1_545
Na3 O36 2.632590 1_645
Na3 O38 2.640992 1_655
Na3 O43 2.651820 1_655
Na4 O39 2.355297 1_655
Na4 O40 2.429937 1_645
Na4 O41 2.483337 1_545
Na4 O47 2.745774 1_656
Na4 O46 2.746808 1_556
Na4 O45 2.816922 1_546
Na5 O48 2.466653 1_555
Na5 O50 2.531241 1_555
Na5 O49 2.539898 1_555
Na5 O55 2.569369 1_555
Na5 O56 2.576674 1_555
Na5 O54 2.677116 1_555
Na6 O59 2.502753 1_555
Na6 O52 2.504369 1_555
Na6 O57 2.528333 1_555
Na6 O51 2.591322 1_555
Na6 O58 2.609150 1_555
Na6 O53 2.609777 1_555
Na7 O66 2.553967 1_555
Na7 O67 2.562727 1_555
Na7 O68 2.570340 1_555
Na7 O61 2.602051 1_555
Na7 O62 2.604616 1_555
Na7 O60 2.609036 1_555
Na8 O64 2.422745 1_555
Na8 O69 2.513158 1_555
Na8 O71 2.513600 1_555
Na8 O63 2.654817 1_555
Na8 O70 2.671105 1_555
Na8 O65 2.675042 1_555
Mg0 O1 2.039145 1_555
Mg0 O2 2.068448 1_565
Mg0 O0 2.078893 1_665
Mg0 O38 2.103505 1_665
Mg0 O37 2.110408 1_555
Mg0 O36 2.127175 1_655
Mg1 O39 2.019318 1_555
Mg1 O3 2.031637 1_555
Mg1 O40 2.046626 1_545
Mg1 O4 2.083133 1_445
Mg1 O5 2.108662 1_455
Mg1 O41 2.138810 1_445
Mg2 O6 2.025181 1_545
Mg2 O44 2.046943 1_545
Mg2 O7 2.067927 1_655
Mg2 O8 2.097857 1_645
Mg2 O42 2.112087 1_555
Mg2 O43 2.171844 1_655
Mg3 O9 2.017303 1_555
Mg3 O10 2.033733 1_665
Mg3 O46 2.077655 1_565
Mg3 O11 2.094489 1_655
Mg3 O45 2.124391 1_555
Mg3 O47 2.175173 1_665
Mg4 O14 1.961501 1_555
Mg4 O13 2.066304 1_555
Mg4 O49 2.077542 1_555
Mg4 O12 2.100511 1_555
Mg4 O50 2.105226 1_555
Mg4 O48 2.153866 1_555
Mg5 O15 2.008551 1_555
Mg5 O16 2.036961 1_555
Mg5 O52 2.059067 1_555
Mg5 O51 2.096661 1_555
Mg5 O17 2.104361 1_555
Mg5 O53 2.112332 1_555
Mg6 O25 1.927812 1_554
Mg6 O26 1.999279 1_554
Mg6 O24 2.029101 1_554
Mg6 O60 2.167370 1_555
Mg6 O61 2.176476 1_555
Mg6 O62 2.195085 1_555
Mg7 O64 1.981894 1_555
Mg7 O27 2.036438 1_555
Mg7 O28 2.044187 1_555
Mg7 O63 2.128400 1_555
Mg7 O65 2.133477 1_555
Mg7 O29 2.164639 1_555
Mg8 O30 2.028693 1_555
Mg8 O31 2.037289 1_555
Mg8 O66 2.099607 1_555
Mg8 O32 2.120526 1_555
Mg8 O68 2.136614 1_555
Mg8 O67 2.136649 1_555
O0 S0 1.474711 1_545
O1 S1 1.462446 1_555
O2 S2 1.467315 1_655
O3 S3 1.455837 1_555
O4 S4 1.455126 1_655
O5 S5 1.457575 1_555
O6 S5 1.465103 1_565
O7 S3 1.466563 1_555
O8 S4 1.478254 1_555
O9 S1 1.470365 1_555
O10 S2 1.485370 1_555
O11 S0 1.488883 1_555
O12 S6 1.460771 1_555
O13 S7 1.446914 1_555
O14 P0 1.508550 1_555
O15 S8 1.452854 1_555
O16 S9 1.472395 1_555
O17 S10 1.475918 1_555
O18 S10 1.523829 1_555
O18 Sn0 2.124429 1_554
O19 S8 1.508625 1_555
O19 Sn0 2.099460 1_554
O20 S9 1.511384 1_555
O20 Sn0 2.098360 1_554
O21 S7 1.524824 1_555
O21 Sn1 2.068710 1_555
O22 P0 1.628609 1_555
O22 Sn1 1.986899 1_555
O23 S6 1.530864 1_555
O23 Sn1 2.089042 1_555
O24 S11 1.454563 1_555
O25 P1 1.506886 1_555
O26 P2 1.527891 1_555
O27 S12 1.458672 1_555
O28 S13 1.456569 1_555
O29 S14 1.474769 1_555
O30 S14 1.463918 1_555
O31 S12 1.467202 1_555
O32 S13 1.481570 1_555
O33 P1 1.570388 1_555
O33 Sn2 1.993962 1_555
O34 P2 1.568028 1_555
O34 Sn2 2.005988 1_555
O35 S11 1.501155 1_555
O35 Sn2 2.117394 1_555
O36 S14 1.476862 1_555
O37 S12 1.476051 1_555
O38 S13 1.475681 1_555
O39 P1 1.515193 1_555
O40 P2 1.512759 1_555
O41 S11 1.453997 1_555
O42 S6 1.461550 1_555
O43 S7 1.480726 1_555
O44 P0 1.546084 1_555
O45 S8 1.488651 1_555
O46 S9 1.464384 1_555
O47 S10 1.489449 1_555
O48 S5 1.481494 1_555
O49 S3 1.479220 1_555
O50 S4 1.478328 1_655
O51 S1 1.503747 1_555
O52 S2 1.481452 1_655
O53 S0 1.502675 1_545
O54 S11 1.516796 1_555
O54 Sn0 2.097862 1_555
O55 P1 1.593466 1_655
O55 Sn0 1.992199 1_555
O56 P2 1.590210 1_545
O56 Sn0 2.006173 1_555
O57 S12 1.543556 1_545
O57 Sn1 2.111333 1_555
O58 S13 1.536483 1_555
O58 Sn1 2.131112 1_555
O59 S14 1.537620 1_655
O59 Sn1 2.127114 1_555
O60 S10 1.459344 1_555
O61 S8 1.485116 1_455
O62 S9 1.485272 1_565
O63 S7 1.486852 1_565
O64 P0 1.526752 1_555
O65 S6 1.487126 1_455
O66 S0 1.477505 1_555
O67 S1 1.503576 1_555
O68 S2 1.503038 1_555
O69 S3 1.544305 1_555
O69 Sn2 2.124629 1_555
O70 S4 1.538814 1_555
O70 Sn2 2.111124 1_555
O71 S5 1.547407 1_565
O71 Sn2 2.109485 1_555
