# generated using pymatgen
data_Na3LaZn3(SO4)6
_symmetry_space_group_name_H-M   'P 1'
_cell_length_a   8.97210117
_cell_length_b   8.96986390
_cell_length_c   23.32512785
_cell_angle_alpha   89.90215283
_cell_angle_beta   90.11111343
_cell_angle_gamma   119.95298526
_symmetry_Int_Tables_number   1
_chemical_formula_structural   Na3LaZn3(SO4)6
_chemical_formula_sum   'Na9 La3 Zn9 S18 O72'
_cell_volume   1626.44453707
_cell_formula_units_Z   3
loop_
 _symmetry_equiv_pos_site_id
 _symmetry_equiv_pos_as_xyz
  1  'x, y, z'
loop_
 _atom_site_type_symbol
 _atom_site_label
 _atom_site_symmetry_multiplicity
 _atom_site_fract_x
 _atom_site_fract_y
 _atom_site_fract_z
 _atom_site_occupancy
  Na  Na0  1  0.63309722  0.99858420  0.24832824  1
  Na  Na1  1  0.36627988  0.36593663  0.24788140  1
  Na  Na2  1  0.02702331  0.69523172  0.58799839  1
  Na  Na3  1  0.99875439  0.01292852  0.49881435  1
  Na  Na4  1  0.99984647  0.99917479  0.99782540  1
  Na  Na5  1  0.66598888  0.33250607  0.82586266  1
  Na  Na6  1  0.68353262  0.34874741  0.32953606  1
  Na  Na7  1  0.31964639  0.66544612  0.15933896  1
  Na  Na8  1  0.34780395  0.66519490  0.66182606  1
  La  La0  1  0.66658629  0.33338437  0.98636154  1
  La  La1  1  0.66169870  0.32745606  0.48117178  1
  La  La2  1  0.33278057  0.66658971  0.80923071  1
  Zn  Zn0  1  0.99958711  0.99489613  0.34916078  1
  Zn  Zn1  1  0.00019788  0.00129367  0.84669320  1
  Zn  Zn2  1  0.99962600  0.00618729  0.65373252  1
  Zn  Zn3  1  0.00029517  0.99603152  0.15257019  1
  Zn  Zn4  1  0.66181382  0.32849126  0.68498411  1
  Zn  Zn5  1  0.67508501  0.34089751  0.17293195  1
  Zn  Zn6  1  0.33248533  0.66663579  0.01444072  1
  Zn  Zn7  1  0.34267770  0.66499224  0.51269962  1
  Zn  Zn8  1  0.32497079  0.66579024  0.31965049  1
  S  S0  1  0.29372246  0.00024506  0.25093246  1
  S  S1  1  0.70737258  0.70530097  0.25059195  1
  S  S2  1  0.99878214  0.29104847  0.25066372  1
  S  S3  1  0.29607597  0.27705508  0.74665144  1
  S  S4  1  0.98114491  0.70362290  0.74493135  1
  S  S5  1  0.72263664  0.01879068  0.74650813  1
  S  S6  1  0.97399264  0.33512041  0.58728320  1
  S  S7  1  0.35898515  0.02501782  0.58775375  1
  S  S8  1  0.66571637  0.63948623  0.58727035  1
  S  S9  1  0.97872459  0.64495789  0.08856922  1
  S  S10  1  0.66642330  0.02091260  0.09042972  1
  S  S11  1  0.35450254  0.33366753  0.09032211  1
  S  S12  1  0.64232776  0.68602643  0.91839803  1
  S  S13  1  0.04339659  0.35739320  0.91830172  1
  S  S14  1  0.31403740  0.95650409  0.91826805  1
  S  S15  1  0.62871333  0.94593905  0.41174648  1
  S  S16  1  0.31766684  0.37102049  0.41179378  1
  S  S17  1  0.05193252  0.68232942  0.41501964  1
  O  O0  1  0.21406549  0.02924169  0.30228708  1
  O  O1  1  0.81019685  0.78304469  0.30327962  1
  O  O2  1  0.96710485  0.18106955  0.30249076  1
  O  O3  1  0.21318671  0.18514715  0.80066302  1
  O  O4  1  0.97283763  0.79154435  0.79789070  1
  O  O5  1  0.81512636  0.02818691  0.80062550  1
  O  O6  1  0.80516634  0.99932618  0.69465675  1
  O  O7  1  0.19528102  0.19344633  0.69470146  1
  O  O8  1  -0.00131984  0.80135421  0.69151159  1
  O  O9  1  0.78742912  0.81494501  0.19958235  1
  O  O10  1  0.03066752  0.21237889  0.19940923  1
  O  O11  1  0.19037409  0.97553790  0.19855024  1
  O  O12  1  0.88430400  0.36471167  0.63548810  1
  O  O13  1  0.47192083  0.11439242  0.63682372  1
  O  O14  1  0.64059037  0.52639757  0.63679874  1
  O  O15  1  0.89036669  0.53024091  0.13842701  1
  O  O16  1  0.64219388  0.10819694  0.14206700  1
  O  O17  1  0.46567542  0.35708163  0.14213832  1
  O  O18  1  0.43299624  0.30501412  0.03833063  1
  O  O19  1  0.87546877  0.57219188  0.03523899  1
  O  O20  1  0.69525205  0.12825944  0.03834027  1
  O  O21  1  0.42979353  0.12422520  0.53368438  1
  O  O22  1  0.70063702  0.56565657  0.53427449  1
  O  O23  1  0.87215295  0.30550231  0.53299503  1
  O  O24  1  0.55102782  0.69531270  0.97022292  1
  O  O25  1  0.14432594  0.44897867  0.97026774  1
  O  O26  1  0.30498397  0.85596886  0.97022178  1
  O  O27  1  0.54164081  0.84961308  0.46452016  1
  O  O28  1  0.30691076  0.45779254  0.46458055  1
  O  O29  1  0.14285241  0.69214981  0.47019227  1
  O  O30  1  0.13739410  0.66216973  0.36415524  1
  O  O31  1  0.53038499  0.86623327  0.35816881  1
  O  O32  1  0.33812724  0.47040676  0.35825872  1
  O  O33  1  0.12040057  0.45962744  0.86573904  1
  O  O34  1  0.33895940  0.87941992  0.86572753  1
  O  O35  1  0.54017056  0.66112416  0.86570243  1
  O  O36  1  0.03606806  0.83906607  0.41081735  1
  O  O37  1  0.80258176  0.96337566  0.40955711  1
  O  O38  1  0.16123743  0.19787005  0.40927307  1
  O  O39  1  0.03137469  0.18844171  0.91395573  1
  O  O40  1  0.15713880  0.96876979  0.91370227  1
  O  O41  1  0.81156622  0.84255747  0.91387415  1
  O  O42  1  0.99826107  0.18507475  0.59393266  1
  O  O43  1  0.18144047  -0.00035993  0.59336218  1
  O  O44  1  0.82447152  0.81218708  0.59311808  1
  O  O45  1  0.99679082  0.81711282  0.09594906  1
  O  O46  1  0.82039940  0.00286961  0.09677135  1
  O  O47  1  0.18232157  0.17947998  0.09655152  1
  O  O48  1  0.70554170  0.17529143  0.74349725  1
  O  O49  1  0.47030079  0.29489900  0.74404085  1
  O  O50  1  0.82530532  0.52999603  0.74300089  1
  O  O51  1  0.68013992  0.52678634  0.24407786  1
  O  O52  1  0.84067909  0.30662022  0.24340848  1
  O  O53  1  0.47011691  0.15951099  0.24541041  1
  O  O54  1  0.66389209  0.53113313  0.92097051  1
  O  O55  1  0.86690716  0.33553057  0.92087767  1
  O  O56  1  0.46864457  0.13285717  0.92089592  1
  O  O57  1  0.64795212  0.12218029  0.41377162  1
  O  O58  1  0.47471486  0.35229238  0.41424757  1
  O  O59  1  0.87535536  0.52559934  0.41586674  1
  O  O60  1  0.34346172  0.49191528  0.08321329  1
  O  O61  1  0.14880788  0.65709132  0.08173960  1
  O  O62  1  0.50783457  0.85188888  0.08322989  1
  O  O63  1  0.33999022  0.84945848  0.58131373  1
  O  O64  1  0.51111969  0.65620110  0.57882430  1
  O  O65  1  0.14358726  0.49870260  0.58011949  1
  O  O66  1  0.32161126  0.84891649  0.25694151  1
  O  O67  1  0.53040938  0.68785898  0.25550939  1
  O  O68  1  0.15706433  0.46513605  0.25729621  1
  O  O69  1  0.31692515  0.45391598  0.74681899  1
  O  O70  1  0.13746994  0.68402791  0.74603423  1
  O  O71  1  0.54590620  0.86295312  0.74687565  1
loop_
_geom_bond_atom_site_label_1
_geom_bond_atom_site_label_2
_geom_bond_distance
_geom_bond_site_symmetry_2
Na0 O66 2.430566 1_555
Na0 O52 2.444855 1_565
Na0 O67 2.465754 1_555
Na0 O53 2.516667 1_565
Na0 O16 2.651215 1_565
Na0 O31 2.780106 1_555
Na0 O9 2.865935 1_555
Na0 O2 2.889630 1_565
Na1 O51 2.441867 1_555
Na1 O53 2.454155 1_555
Na1 O68 2.456347 1_555
Na1 O67 2.508574 1_555
Na1 O17 2.639129 1_555
Na1 O32 2.795967 1_555
Na1 O10 2.844820 1_555
Na1 O0 2.910590 1_555
Na2 O43 2.369317 1_565
Na2 O63 2.438185 1_555
Na2 O65 2.465355 1_555
Na2 O44 2.514460 1_455
Na2 O8 2.655627 1_555
Na2 O12 2.803500 1_455
Na2 O22 2.844038 1_455
Na2 O29 2.944729 1_555
Na3 O38 2.612338 1_655
Na3 O37 2.614889 1_545
Na3 O36 2.700384 1_645
Na3 O42 2.706531 1_555
Na3 O44 2.777410 1_545
Na3 O43 2.782891 1_655
Na4 O41 2.507675 1_555
Na4 O39 2.510068 1_665
Na4 O40 2.512579 1_655
Na4 O45 2.801572 1_556
Na4 O47 2.820103 1_666
Na4 O46 2.826259 1_566
Na5 O49 2.497311 1_555
Na5 O48 2.513395 1_555
Na5 O50 2.527314 1_555
Na5 O56 2.844468 1_555
Na5 O55 2.845681 1_555
Na5 O54 2.853612 1_555
Na6 O51 2.561652 1_555
Na6 O52 2.590778 1_555
Na6 O59 2.608554 1_555
Na6 O53 2.673812 1_555
Na6 O57 2.726438 1_555
Na6 O58 2.736679 1_555
Na7 O61 2.346526 1_555
Na7 O60 2.442218 1_555
Na7 O62 2.445604 1_555
Na7 O66 2.806278 1_555
Na7 O68 2.821072 1_555
Na7 O67 2.872908 1_555
Na8 O64 2.455880 1_555
Na8 O63 2.523501 1_555
Na8 O65 2.546238 1_555
Na8 O69 2.657727 1_555
Na8 O71 2.662917 1_555
Na8 O70 2.789557 1_555
La0 O20 2.320602 1_556
La0 O19 2.322028 1_556
La0 O18 2.324377 1_556
La0 O54 2.346638 1_555
La0 O56 2.351604 1_555
La0 O55 2.353649 1_555
La1 O21 2.316752 1_555
La1 O23 2.329579 1_555
La1 O22 2.341665 1_555
La1 O57 2.378969 1_555
La1 O58 2.379650 1_555
La1 O59 2.398694 1_555
La2 O35 2.298066 1_555
La2 O33 2.298591 1_555
La2 O34 2.299302 1_555
La2 O71 2.347978 1_555
La2 O69 2.348684 1_555
La2 O70 2.351799 1_555
O0 S0 1.484349 1_555
O0 Zn0 2.099601 1_445
O1 S1 1.484523 1_555
O1 Zn0 2.102191 1_555
O2 S2 1.494191 1_555
O2 Zn0 2.130078 1_545
O3 S3 1.485845 1_555
O3 Zn1 2.092635 1_555
O4 S4 1.488563 1_555
O4 Zn1 2.107328 1_665
O5 S5 1.488477 1_555
O5 Zn1 2.088586 1_655
O6 S5 1.474723 1_565
O6 Zn2 1.964188 1_565
O7 S3 1.473155 1_555
O7 Zn2 1.967403 1_455
O8 S4 1.484965 1_455
O8 Zn2 2.032555 1_465
O9 S1 1.480783 1_555
O9 Zn3 2.095866 1_655
O10 S2 1.488236 1_455
O10 Zn3 2.124110 1_545
O11 S0 1.480907 1_565
O11 Zn3 2.097075 1_555
O12 S6 1.483255 1_555
O12 Zn4 2.187073 1_555
O13 S7 1.472041 1_555
O13 Zn4 2.141352 1_555
O14 S8 1.477525 1_555
O14 Zn4 2.186479 1_555
O15 S9 1.491519 1_555
O15 Zn5 1.997152 1_555
O16 S10 1.511661 1_555
O16 Zn5 2.085999 1_555
O17 S11 1.512213 1_555
O17 Zn5 2.081780 1_555
O18 S11 1.489233 1_555
O19 S9 1.492024 1_555
O20 S10 1.489558 1_555
O21 S7 1.490231 1_555
O22 S8 1.508725 1_555
O23 S6 1.504386 1_555
O24 S12 1.487118 1_555
O24 Zn6 2.116102 1_556
O25 S13 1.490101 1_555
O25 Zn6 2.105263 1_556
O26 S14 1.487228 1_555
O26 Zn6 2.102467 1_556
O27 S15 1.482619 1_555
O27 Zn7 2.059465 1_555
O28 S16 1.486557 1_555
O28 Zn7 2.055992 1_555
O29 S17 1.501296 1_555
O29 Zn7 2.164512 1_555
O30 S17 1.473412 1_555
O30 Zn8 1.965475 1_555
O31 S15 1.490017 1_555
O31 Zn8 2.031415 1_555
O32 S16 1.490432 1_555
O32 Zn8 2.024145 1_555
O33 S13 1.479257 1_555
O34 S14 1.479293 1_555
O35 S12 1.480836 1_555
O36 S17 1.485175 1_555
O36 Zn0 2.139471 1_455
O37 S15 1.489028 1_555
O37 Zn0 2.167492 1_555
O38 S16 1.486192 1_555
O38 Zn0 2.179045 1_445
O39 S13 1.468271 1_555
O39 Zn1 2.212717 1_555
O40 S14 1.469398 1_555
O40 Zn1 2.216053 1_565
O41 S12 1.469463 1_555
O41 Zn1 2.223392 1_665
O42 S6 1.474678 1_555
O42 Zn2 2.128936 1_555
O43 S7 1.498342 1_555
O43 Zn2 2.179950 1_455
O44 S8 1.497919 1_555
O44 Zn2 2.183053 1_565
O45 S9 1.480314 1_555
O45 Zn3 2.068222 1_655
O46 S10 1.476136 1_555
O46 Zn3 2.096015 1_645
O47 S11 1.478873 1_555
O47 Zn3 2.097522 1_545
O48 S5 1.487854 1_555
O48 Zn4 2.105929 1_555
O49 S3 1.491073 1_555
O49 Zn4 2.105121 1_555
O50 S4 1.485950 1_555
O50 Zn4 2.145467 1_555
O51 S1 1.502264 1_555
O51 Zn5 2.338763 1_555
O52 S2 1.502391 1_555
O52 Zn5 2.334351 1_555
O53 S0 1.518100 1_555
O53 Zn5 2.429392 1_555
O54 S12 1.496492 1_555
O55 S13 1.496570 1_655
O56 S14 1.496354 1_545
O57 S15 1.502957 1_545
O58 S16 1.500980 1_555
O59 S17 1.504213 1_655
O60 S11 1.480446 1_555
O60 Zn6 2.276846 1_555
O61 S9 1.483559 1_455
O61 Zn6 2.248547 1_555
O62 S10 1.482280 1_565
O62 Zn6 2.280261 1_555
O63 S7 1.504706 1_565
O63 Zn7 2.312753 1_555
O64 S8 1.480447 1_555
O64 Zn7 2.186006 1_555
O65 S6 1.505617 1_455
O65 Zn7 2.287110 1_555
O66 S0 1.504381 1_565
O66 Zn8 2.208991 1_555
O67 S1 1.520237 1_555
O67 Zn8 2.306572 1_555
O68 S2 1.504872 1_455
O68 Zn8 2.217457 1_555
O69 S3 1.501803 1_555
O70 S4 1.498251 1_455
O71 S5 1.501660 1_565
