# generated using pymatgen
data_KMgCo2(MoO5)2
_symmetry_space_group_name_H-M   'P 1'
_cell_length_a   6.20395368
_cell_length_b   6.11423867
_cell_length_c   8.40500574
_cell_angle_alpha   67.56921915
_cell_angle_beta   68.26087083
_cell_angle_gamma   58.48057908
_symmetry_Int_Tables_number   1
_chemical_formula_structural   KMgCo2(MoO5)2
_chemical_formula_sum   'K1 Mg1 Co2 Mo2 O10'
_cell_volume   245.24138432
_cell_formula_units_Z   1
loop_
 _symmetry_equiv_pos_site_id
 _symmetry_equiv_pos_as_xyz
  1  'x, y, z'
loop_
 _atom_site_type_symbol
 _atom_site_label
 _atom_site_symmetry_multiplicity
 _atom_site_fract_x
 _atom_site_fract_y
 _atom_site_fract_z
 _atom_site_occupancy
  K  K0  1  0.48505500  0.54333000  0.49937900  1
  Mg  Mg0  1  0.48383500  0.51177700  0.00983300  1
  Co  Co0  1  0.98997100  0.50717200  0.99940900  1
  Co  Co1  1  0.51500700  0.01913600  0.98675500  1
  Mo  Mo0  1  0.07623900  0.10349000  0.74445600  1
  Mo  Mo1  1  0.90167400  0.91370900  0.25820300  1
  O  O0  1  0.67499200  0.73291100  0.90116400  1
  O  O1  1  0.29864100  0.28138500  0.09718600  1
  O  O2  1  0.14990600  0.15228300  0.51591500  1
  O  O3  1  0.80724400  0.84424900  0.48800100  1
  O  O4  1  0.77453100  0.27008900  0.16619800  1
  O  O5  1  0.72301900  0.24607200  0.82537200  1
  O  O6  1  0.20789800  0.75021500  0.84156500  1
  O  O7  1  0.25126900  0.75754800  0.19227100  1
  O  O8  1  0.21393300  0.25038400  0.80739500  1
  O  O9  1  0.76970200  0.78291600  0.17404000  1
loop_
_geom_bond_atom_site_label_1
_geom_bond_atom_site_label_2
_geom_bond_distance
_geom_bond_site_symmetry_2
K0 O7 2.947704 1_555
K0 O9 2.968605 1_555
K0 O8 3.020822 1_555
K0 O5 3.062823 1_555
K0 O6 3.109234 1_555
K0 O2 3.208086 1_565
K0 O4 3.250588 1_555
K0 O3 3.310456 1_555
Mg0 O0 2.000119 1_554
Mg0 O1 2.030161 1_555
Mg0 O7 2.131611 1_555
Mg0 O4 2.156524 1_555
Mg0 O6 2.160267 1_554
Mg0 O5 2.223126 1_554
Co0 O1 1.945296 1_656
Co0 O0 1.977613 1_555
Co0 O9 2.204086 1_556
Co0 O4 2.222609 1_556
Co0 O8 2.234264 1_655
Co0 O6 2.250280 1_655
Co1 O0 1.783540 1_545
Co1 O1 1.787957 1_556
Co1 O5 2.137709 1_555
Co1 O9 2.186777 1_546
Co1 O8 2.336349 1_555
Co1 O7 2.598722 1_546
Mo0 O2 1.744308 1_555
Mo0 O6 1.817338 1_545
Mo0 O8 1.820929 1_555
Mo0 O5 1.837285 1_455
Mo1 O3 1.746441 1_555
Mo1 O7 1.808586 1_655
Mo1 O4 1.826757 1_565
Mo1 O9 1.831829 1_555
