# generated using pymatgen
data_Li4Ni(PO4)2
_symmetry_space_group_name_H-M   'P 1'
_cell_length_a   10.28175800
_cell_length_b   8.27525400
_cell_length_c   8.28991284
_cell_angle_alpha   73.78192645
_cell_angle_beta   90.00000000
_cell_angle_gamma   90.00000000
_symmetry_Int_Tables_number   1
_chemical_formula_structural   Li4Ni(PO4)2
_chemical_formula_sum   'Li16 Ni4 P8 O32'
_cell_volume   677.27169254
_cell_formula_units_Z   4
loop_
 _symmetry_equiv_pos_site_id
 _symmetry_equiv_pos_as_xyz
  1  'x, y, z'
loop_
 _atom_site_type_symbol
 _atom_site_label
 _atom_site_symmetry_multiplicity
 _atom_site_fract_x
 _atom_site_fract_y
 _atom_site_fract_z
 _atom_site_occupancy
  Li  Li0  1  0.66378000  0.09917500  0.39939400  1
  Li  Li1  1  0.65318100  0.85154800  0.14867000  1
  Li  Li2  1  0.16378000  0.40082500  0.60060600  1
  Li  Li3  1  0.66312500  0.34052600  0.65293500  1
  Li  Li4  1  0.57422700  0.77105900  0.47861700  1
  Li  Li5  1  0.16312500  0.15947400  0.34706500  1
  Li  Li6  1  0.84681900  0.35154800  0.14867000  1
  Li  Li7  1  0.83622000  0.59917500  0.39939400  1
  Li  Li8  1  0.33622000  0.90082500  0.60060600  1
  Li  Li9  1  0.92577300  0.27105900  0.47861700  1
  Li  Li10  1  0.07422700  0.72894100  0.52138300  1
  Li  Li11  1  0.42577300  0.22894100  0.52138300  1
  Li  Li12  1  0.15318100  0.64845200  0.85133000  1
  Li  Li13  1  0.34681900  0.14845200  0.85133000  1
  Li  Li14  1  0.33687500  0.65947400  0.34706500  1
  Li  Li15  1  0.83687500  0.84052600  0.65293500  1
  Ni  Ni0  1  0.15037900  0.90740800  0.09691200  1
  Ni  Ni1  1  0.65037900  0.59259200  0.90308800  1
  Ni  Ni2  1  0.34962100  0.40740800  0.09691200  1
  Ni  Ni3  1  0.84962100  0.09259200  0.90308800  1
  P  P0  1  0.90867600  0.97647800  0.29132700  1
  P  P1  1  0.09363600  0.53677600  0.23002100  1
  P  P2  1  0.59132400  0.47647800  0.29132700  1
  P  P3  1  0.59363600  0.96322400  0.76997900  1
  P  P4  1  0.40867600  0.52352200  0.70867300  1
  P  P5  1  0.40636400  0.03677600  0.23002100  1
  P  P6  1  0.90636400  0.46322400  0.76997900  1
  P  P7  1  0.09132400  0.02352200  0.70867300  1
  O  O0  1  0.39662900  0.68740300  0.56183500  1
  O  O1  1  0.33564100  0.55195400  0.86325900  1
  O  O2  1  0.16435900  0.05195400  0.86325900  1
  O  O3  1  0.89559300  0.31295600  0.93294300  1
  O  O4  1  0.54859900  0.97929900  0.27252900  1
  O  O5  1  0.89662900  0.81259700  0.43816500  1
  O  O6  1  0.60440700  0.81295600  0.93294300  1
  O  O7  1  0.65055500  0.62888100  0.33887500  1
  O  O8  1  0.84738400  0.40820200  0.62052300  1
  O  O9  1  0.10440700  0.68704400  0.06705700  1
  O  O10  1  0.84944500  0.12888100  0.33887500  1
  O  O11  1  0.95140100  0.47929900  0.27252900  1
  O  O12  1  0.66435900  0.44804600  0.13674100  1
  O  O13  1  0.34738400  0.09179800  0.37947700  1
  O  O14  1  0.65261600  0.90820200  0.62052300  1
  O  O15  1  0.15261600  0.59179800  0.37947700  1
  O  O16  1  0.34944500  0.37111900  0.66112500  1
  O  O17  1  0.44349700  0.50948200  0.25304700  1
  O  O18  1  0.15055500  0.87111900  0.66112500  1
  O  O19  1  0.67271300  0.11131000  0.80347200  1
  O  O20  1  0.55650300  0.49051800  0.74695300  1
  O  O21  1  0.39559300  0.18704400  0.06705700  1
  O  O22  1  0.45140100  0.02070100  0.72747100  1
  O  O23  1  0.94349700  0.99051800  0.74695300  1
  O  O24  1  0.82728700  0.61131000  0.80347200  1
  O  O25  1  0.60337100  0.31259700  0.43816500  1
  O  O26  1  0.32728700  0.88869000  0.19652800  1
  O  O27  1  0.17271300  0.38869000  0.19652800  1
  O  O28  1  0.04859900  0.52070100  0.72747100  1
  O  O29  1  0.10337100  0.18740300  0.56183500  1
  O  O30  1  0.05650300  0.00948200  0.25304700  1
  O  O31  1  0.83564100  0.94804600  0.13674100  1
loop_
_geom_bond_atom_site_label_1
_geom_bond_atom_site_label_2
_geom_bond_distance
_geom_bond_site_symmetry_2
Li0 O10 1.971643 1_555
Li0 O25 1.981249 1_555
Li0 O4 2.018761 1_545
Li0 O14 2.062245 1_545
Li1 O6 1.967416 1_554
Li1 O4 1.983550 1_555
Li1 O31 2.030457 1_555
Li1 O7 2.063810 1_555
Li2 O16 1.971643 1_555
Li2 O29 1.981249 1_555
Li2 O28 2.018761 1_555
Li2 O15 2.062245 1_555
Li3 O25 1.957202 1_555
Li3 O19 1.960295 1_555
Li3 O20 1.972377 1_555
Li3 O8 1.972546 1_555
Li4 O0 2.005678 1_555
Li4 O14 2.016737 1_555
Li4 O7 2.025717 1_555
Li4 O4 2.076841 1_555
Li5 O29 1.957202 1_555
Li5 O27 1.960295 1_555
Li5 O30 1.972377 1_555
Li5 O13 1.972546 1_555
Li6 O3 1.967416 1_554
Li6 O11 1.983550 1_555
Li6 O12 2.030457 1_555
Li6 O10 2.063810 1_555
Li7 O7 1.971643 1_555
Li7 O5 1.981249 1_555
Li7 O11 2.018761 1_555
Li7 O8 2.062245 1_555
Li8 O18 1.971643 1_555
Li8 O0 1.981249 1_555
Li8 O22 2.018761 1_565
Li8 O13 2.062245 1_565
Li9 O29 2.005678 1_655
Li9 O8 2.016737 1_555
Li9 O10 2.025717 1_555
Li9 O11 2.076841 1_555
Li10 O5 2.005678 1_455
Li10 O15 2.016737 1_555
Li10 O18 2.025717 1_555
Li10 O28 2.076841 1_555
Li11 O25 2.005678 1_555
Li11 O13 2.016737 1_555
Li11 O16 2.025717 1_555
Li11 O22 2.076841 1_555
Li12 O9 1.967416 1_556
Li12 O28 1.983550 1_555
Li12 O1 2.030457 1_555
Li12 O18 2.063810 1_555
Li13 O21 1.967416 1_556
Li13 O22 1.983550 1_555
Li13 O2 2.030457 1_555
Li13 O16 2.063810 1_555
Li14 O0 1.957202 1_555
Li14 O26 1.960295 1_555
Li14 O17 1.972377 1_555
Li14 O15 1.972546 1_555
Li15 O5 1.957202 1_555
Li15 O24 1.960295 1_555
Li15 O23 1.972377 1_555
Li15 O14 1.972546 1_555
Ni0 O9 1.965243 1_555
Ni0 O2 1.977138 1_564
Ni0 O30 1.982719 1_565
Ni0 O26 1.985696 1_555
Ni1 O6 1.965243 1_555
Ni1 O12 1.977138 1_556
Ni1 O20 1.982719 1_555
Ni1 O24 1.985696 1_555
Ni2 O21 1.965243 1_555
Ni2 O1 1.977138 1_554
Ni2 O17 1.982719 1_555
Ni2 O27 1.985696 1_555
Ni3 O3 1.965243 1_555
Ni3 O31 1.977138 1_546
Ni3 O23 1.982719 1_545
Ni3 O19 1.985696 1_555
O0 P4 1.553749 1_555
O1 P4 1.558822 1_555
O2 P7 1.558822 1_555
O3 P6 1.563737 1_555
O4 P5 1.547731 1_565
O5 P0 1.553749 1_555
O6 P3 1.563737 1_555
O7 P2 1.547414 1_555
O8 P6 1.557319 1_555
O9 P1 1.563737 1_555
O10 P0 1.547414 1_545
O11 P1 1.547731 1_655
O12 P2 1.558822 1_555
O13 P5 1.557319 1_555
O14 P3 1.557319 1_555
O15 P1 1.557319 1_555
O16 P4 1.547414 1_555
O17 P2 1.561104 1_555
O18 P7 1.547414 1_565
O19 P3 1.558823 1_545
O20 P4 1.561104 1_555
O21 P5 1.563737 1_555
O22 P3 1.547731 1_545
O23 P7 1.561104 1_665
O24 P6 1.558823 1_555
O25 P2 1.553749 1_555
O26 P5 1.558823 1_565
O27 P1 1.558823 1_555
O28 P6 1.547731 1_455
O29 P7 1.553749 1_555
O30 P0 1.561104 1_445
O31 P0 1.558822 1_555
