# generated using pymatgen
data_MgFe2(CoO2)4
_symmetry_space_group_name_H-M   'P 1'
_cell_length_a   6.34364660
_cell_length_b   5.96704640
_cell_length_c   5.96757219
_cell_angle_alpha   59.84890377
_cell_angle_beta   91.13828795
_cell_angle_gamma   119.23407793
_symmetry_Int_Tables_number   1
_chemical_formula_structural   MgFe2(CoO2)4
_chemical_formula_sum   'Mg1 Fe2 Co4 O8'
_cell_volume   162.66405300
_cell_formula_units_Z   1
loop_
 _symmetry_equiv_pos_site_id
 _symmetry_equiv_pos_as_xyz
  1  'x, y, z'
loop_
 _atom_site_type_symbol
 _atom_site_label
 _atom_site_symmetry_multiplicity
 _atom_site_fract_x
 _atom_site_fract_y
 _atom_site_fract_z
 _atom_site_occupancy
  Mg  Mg0  1  0.50000000  0.50000000  0.00000000  1
  Fe  Fe0  1  0.50000000  0.00000000  0.00000000  1
  Fe  Fe1  1  0.50000000  0.50000000  0.50000000  1
  Co  Co0  1  0.50000000  0.00000000  0.50000000  1
  Co  Co1  1  0.04050300  0.18099900  0.14063300  1
  Co  Co2  1  0.95949700  0.81900100  0.85936700  1
  Co  Co3  1  0.00000000  0.50000000  0.50000000  1
  O  O0  1  0.73816000  0.50570100  0.25716400  1
  O  O1  1  0.73827400  0.99552000  0.76745400  1
  O  O2  1  0.72760800  0.48909600  0.76128900  1
  O  O3  1  0.31271900  0.04081100  0.72826700  1
  O  O4  1  0.68728100  0.95918900  0.27173300  1
  O  O5  1  0.27239200  0.51090400  0.23871100  1
  O  O6  1  0.26172600  0.00448000  0.23254600  1
  O  O7  1  0.26184000  0.49429900  0.74283600  1
loop_
_geom_bond_atom_site_label_1
_geom_bond_atom_site_label_2
_geom_bond_distance
_geom_bond_site_symmetry_2
Mg0 O5 2.094001 1_555
Mg0 O2 2.094001 1_554
Mg0 O7 2.132825 1_554
Mg0 O0 2.132825 1_555
Mg0 O1 2.132865 1_554
Mg0 O6 2.132865 1_555
Fe0 O3 1.977283 1_554
Fe0 O4 1.977283 1_545
Fe0 O6 2.090767 1_555
Fe0 O1 2.090767 1_544
Fe0 O5 2.102576 1_545
Fe0 O2 2.102576 1_554
Fe1 O4 1.977346 1_555
Fe1 O3 1.977346 1_555
Fe1 O0 2.090683 1_555
Fe1 O7 2.090683 1_555
Fe1 O5 2.102539 1_555
Fe1 O2 2.102539 1_555
Co0 O3 2.001616 1_555
Co0 O4 2.001616 1_545
Co0 O0 2.174701 1_555
Co0 O7 2.174701 1_545
Co0 O1 2.175675 1_545
Co0 O6 2.175675 1_555
Co1 O4 1.875456 1_445
Co1 O7 2.052334 1_554
Co1 O6 2.052451 1_555
Co1 O5 2.162505 1_555
Co2 O3 1.875456 1_665
Co2 O0 2.052334 1_556
Co2 O1 2.052451 1_555
Co2 O2 2.162505 1_555
Co3 O6 2.182357 1_565
Co3 O1 2.182357 1_445
Co3 O0 2.184077 1_455
Co3 O7 2.184077 1_555
Co3 O2 2.305794 1_455
Co3 O5 2.305794 1_555
