# generated using pymatgen
data_TaFeP
_symmetry_space_group_name_H-M   'P 1'
_cell_length_a   3.56711173
_cell_length_b   6.08489622
_cell_length_c   6.87713690
_cell_angle_alpha   90.00000000
_cell_angle_beta   90.00000000
_cell_angle_gamma   90.00000000
_symmetry_Int_Tables_number   1
_chemical_formula_structural   TaFeP
_chemical_formula_sum   'Ta4 Fe4 P4'
_cell_volume   149.27172718
_cell_formula_units_Z   4
loop_
 _symmetry_equiv_pos_site_id
 _symmetry_equiv_pos_as_xyz
  1  'x, y, z'
loop_
 _atom_site_type_symbol
 _atom_site_label
 _atom_site_symmetry_multiplicity
 _atom_site_fract_x
 _atom_site_fract_y
 _atom_site_fract_z
 _atom_site_occupancy
  Ta  Ta0  1  0.25000000  0.52067806  0.32317614  1
  Ta  Ta1  1  0.25000000  0.02067806  0.17682386  1
  Ta  Ta2  1  0.75000000  0.97932194  0.82317614  1
  Ta  Ta3  1  0.75000000  0.47932194  0.67682386  1
  Fe  Fe0  1  0.75000000  0.35917384  0.06361404  1
  Fe  Fe1  1  0.25000000  0.14082616  0.56361404  1
  Fe  Fe2  1  0.75000000  0.85917384  0.43638596  1
  Fe  Fe3  1  0.25000000  0.64082616  0.93638596  1
  P  P0  1  0.25000000  0.77818970  0.61827069  1
  P  P1  1  0.25000000  0.27819070  0.88172931  1
  P  P2  1  0.75000000  0.22180930  0.38172931  1
  P  P3  1  0.75000000  0.72181030  0.11827069  1
loop_
_geom_bond_atom_site_label_1
_geom_bond_atom_site_label_2
_geom_bond_distance
_geom_bond_site_symmetry_2
Fe0 P1 2.233498 1_554
Fe0 P1 2.233498 1_654
Fe0 P3 2.238391 1_555
Fe0 P2 2.341959 1_555
Fe0 Ta0 2.707993 1_655
Fe0 Ta0 2.707993 1_555
Fe0 Ta3 2.758648 1_554
Fe0 Ta1 2.833662 1_655
Fe0 Ta1 2.833662 1_555
Fe0 Ta2 2.841923 1_544
Fe1 P2 2.233498 1_455
Fe1 P2 2.233498 1_555
Fe1 P0 2.238391 1_545
Fe1 P1 2.341959 1_555
Fe1 Ta2 2.707993 1_545
Fe1 Ta2 2.707993 1_445
Fe1 Ta1 2.758648 1_555
Fe1 Ta3 2.833662 1_455
Fe1 Ta3 2.833662 1_555
Fe1 Ta0 2.841923 1_555
Fe2 P0 2.233499 1_555
Fe2 P0 2.233499 1_655
Fe2 P2 2.238385 1_565
Fe2 P3 2.341957 1_555
Fe2 Ta1 2.707993 1_665
Fe2 Ta1 2.707993 1_565
Fe2 Ta2 2.758648 1_555
Fe2 Ta0 2.833662 1_555
Fe2 Ta0 2.833662 1_655
Fe2 Ta3 2.841923 1_555
Fe3 P3 2.233499 1_456
Fe3 P3 2.233499 1_556
Fe3 P1 2.238385 1_555
Fe3 P0 2.341957 1_555
Fe3 Ta3 2.707993 1_455
Fe3 Ta3 2.707993 1_555
Fe3 Ta0 2.758648 1_556
Fe3 Ta2 2.833662 1_455
Fe3 Ta2 2.833662 1_555
Fe3 Ta1 2.841923 1_566
P0 Ta0 2.563935 1_555
P0 Ta3 2.578847 1_455
P0 Ta3 2.578847 1_555
P0 Ta2 2.581601 1_455
P0 Ta2 2.581601 1_555
P1 Ta1 2.563939 1_556
P1 Ta2 2.578851 1_545
P1 Ta2 2.578851 1_445
P1 Ta3 2.581599 1_555
P1 Ta3 2.581599 1_455
P2 Ta3 2.563939 1_555
P2 Ta0 2.578851 1_555
P2 Ta0 2.578851 1_655
P2 Ta1 2.581599 1_555
P2 Ta1 2.581599 1_655
P3 Ta2 2.563935 1_554
P3 Ta1 2.578847 1_565
P3 Ta1 2.578847 1_665
P3 Ta0 2.581601 1_555
P3 Ta0 2.581601 1_655
