# generated using pymatgen
data_Na2InGaP2SO12
_symmetry_space_group_name_H-M   'P 1'
_cell_length_a   8.82287753
_cell_length_b   8.82860359
_cell_length_c   22.47351775
_cell_angle_alpha   90.53174852
_cell_angle_beta   89.48332967
_cell_angle_gamma   120.07853537
_symmetry_Int_Tables_number   1
_chemical_formula_structural   Na2InGaP2SO12
_chemical_formula_sum   'Na12 In6 Ga6 P12 S6 O72'
_cell_volume   1514.73091981
_cell_formula_units_Z   6
loop_
 _symmetry_equiv_pos_site_id
 _symmetry_equiv_pos_as_xyz
  1  'x, y, z'
loop_
 _atom_site_type_symbol
 _atom_site_label
 _atom_site_symmetry_multiplicity
 _atom_site_fract_x
 _atom_site_fract_y
 _atom_site_fract_z
 _atom_site_occupancy
  Na  Na0  1  0.99686906  0.63456462  0.25416752  1
  Na  Na1  1  0.36937159  0.00692936  0.75063375  1
  Na  Na2  1  0.66299163  0.95985177  0.58660112  1
  Na  Na3  1  0.03745530  0.33646889  0.08736723  1
  Na  Na4  1  0.32722219  0.29919630  0.91959264  1
  Na  Na5  1  0.69894323  0.67107904  0.41927250  1
  Na  Na6  1  0.02554515  0.99955336  0.49942669  1
  Na  Na7  1  0.00419335  0.97763076  0.00110378  1
  Na  Na8  1  0.69081162  0.33025927  0.83159051  1
  Na  Na9  1  0.66586986  0.31029450  0.33461976  1
  Na  Na10  1  0.35577504  0.66469894  0.17101509  1
  Na  Na11  1  0.33471954  0.64517827  0.66510449  1
  In  In0  1  0.99739858  0.00643087  0.84664798  1
  In  In1  1  0.00096534  0.99901880  0.15442380  1
  In  In2  1  0.66754843  0.33050362  0.98329867  1
  In  In3  1  0.32832190  0.67132324  0.02003478  1
  In  In4  1  0.33037122  0.67180905  0.51630954  1
  In  In5  1  0.33564686  0.66497915  0.81182565  1
  Ga  Ga0  1  0.98448905  0.99750219  0.34862347  1
  Ga  Ga1  1  0.00332203  0.99826732  0.64665391  1
  Ga  Ga2  1  0.65547236  0.33229079  0.68156050  1
  Ga  Ga3  1  0.66696354  0.34786623  0.18667579  1
  Ga  Ga4  1  0.66710810  0.33145426  0.48250207  1
  Ga  Ga5  1  0.33319391  0.66660734  0.31932092  1
  P  P0  1  0.69332851  0.70013804  0.25337147  1
  P  P1  1  0.00046606  0.30032484  0.25143544  1
  P  P2  1  0.29737542  0.29404612  0.74549658  1
  P  P3  1  0.70863588  0.00878168  0.74257140  1
  P  P4  1  0.37306994  0.04958878  0.58378694  1
  P  P5  1  0.67368782  0.62408200  0.58223811  1
  P  P6  1  0.95797126  0.62860518  0.08776900  1
  P  P7  1  0.37493328  0.33409368  0.08521494  1
  P  P8  1  0.03429097  0.36868475  0.91731084  1
  P  P9  1  0.33211914  0.96493835  0.91336351  1
  P  P10  1  0.63056793  0.96799804  0.41660186  1
  P  P11  1  0.03418272  0.66878326  0.41387366  1
  S  S0  1  0.30188605  0.00205072  0.25356406  1
  S  S1  1  0.98957331  0.69862244  0.74544106  1
  S  S2  1  0.95428828  0.33148307  0.58394290  1
  S  S3  1  0.66446227  0.04033708  0.08818091  1
  S  S4  1  0.63463715  0.67047138  0.91690204  1
  S  S5  1  0.32765922  0.36429501  0.41535883  1
  O  O0  1  0.21280888  0.02866686  0.30514174  1
  O  O1  1  0.81966482  0.78347684  0.30737030  1
  O  O2  1  0.97577721  0.17610168  0.30291942  1
  O  O3  1  0.23271062  0.19196730  0.80507677  1
  O  O4  1  0.96419494  0.77020251  0.80201994  1
  O  O5  1  0.80698967  0.02889615  0.80055374  1
  O  O6  1  0.79666026  0.98156449  0.68668540  1
  O  O7  1  0.17505863  0.19011839  0.69401030  1
  O  O8  1  0.01728895  0.81490237  0.69454390  1
  O  O9  1  0.77087431  0.81010901  0.19723669  1
  O  O10  1  0.03438528  0.23454305  0.19150550  1
  O  O11  1  0.19458672  0.96179337  0.19875520  1
  O  O12  1  0.87109408  0.35315432  0.63787059  1
  O  O13  1  0.48571713  0.12622218  0.64063497  1
  O  O14  1  0.65377890  0.51294386  0.63672708  1
  O  O15  1  0.87152115  0.51574666  0.14433684  1
  O  O16  1  0.64950430  0.13303176  0.14072296  1
  O  O17  1  0.48757380  0.34428461  0.13858629  1
  O  O18  1  0.44463933  0.31234074  0.02426481  1
  O  O19  1  0.85800161  0.54321963  0.03060531  1
  O  O20  1  0.68771096  0.13512515  0.03189272  1
  O  O21  1  0.46500361  0.16168662  0.52851322  1
  O  O22  1  0.69551161  0.54334620  0.52299406  1
  O  O23  1  0.84836952  0.30550126  0.52968075  1
  O  O24  1  0.55338339  0.69015136  0.97181184  1
  O  O25  1  0.13997019  0.44413188  0.97573570  1
  O  O26  1  0.31952865  0.86143164  0.96919701  1
  O  O27  1  0.56763853  0.85591280  0.47437224  1
  O  O28  1  0.29514156  0.43496445  0.47103052  1
  O  O29  1  0.14268064  0.69976522  0.47014272  1
  O  O30  1  0.12025009  0.63964748  0.35770874  1
  O  O31  1  0.50630260  0.87036993  0.36454705  1
  O  O32  1  0.36194133  0.48427188  0.36459229  1
  O  O33  1  0.12907941  0.47714248  0.86232511  1
  O  O34  1  0.35451581  0.88729736  0.85416293  1
  O  O35  1  0.52964800  0.64752810  0.86324045  1
  O  O36  1  0.01020758  0.83204849  0.40666691  1
  O  O37  1  0.81469385  0.98618903  0.40693356  1
  O  O38  1  0.17527165  0.18796325  0.40629330  1
  O  O39  1  0.01981604  0.18624829  0.91416311  1
  O  O40  1  0.16508030  0.98126153  0.91197102  1
  O  O41  1  0.81070909  0.82501398  0.91305851  1
  O  O42  1  0.96829235  0.16967487  0.58702505  1
  O  O43  1  0.18892201  0.03006190  0.58915428  1
  O  O44  1  0.83679851  0.81383608  0.58734349  1
  O  O45  1  0.97810780  0.81116894  0.09081476  1
  O  O46  1  0.82523608  0.02606529  0.09072752  1
  O  O47  1  0.18567748  0.17493972  0.08917318  1
  O  O48  1  0.68783685  0.17373491  0.73830866  1
  O  O49  1  0.48222185  0.31315952  0.73950999  1
  O  O50  1  0.83695635  0.52168679  0.73902858  1
  O  O51  1  0.68156609  0.51744272  0.24715891  1
  O  O52  1  0.83374072  0.31989367  0.24701235  1
  O  O53  1  0.47678551  0.15946972  0.24690058  1
  O  O54  1  0.64494655  0.50779305  0.91868020  1
  O  O55  1  0.85269385  0.35149636  0.91895026  1
  O  O56  1  0.49164166  0.15426761  0.91633268  1
  O  O57  1  0.64648760  0.14980494  0.42428784  1
  O  O58  1  0.49216382  0.35550409  0.42034181  1
  O  O59  1  0.84597575  0.50420418  0.42034584  1
  O  O60  1  0.35909727  0.50222426  0.08515138  1
  O  O61  1  0.14009881  0.63994640  0.08684703  1
  O  O62  1  0.50688610  0.86452644  0.08651899  1
  O  O63  1  0.35821523  0.86592937  0.58004356  1
  O  O64  1  0.50904235  0.64694019  0.57972992  1
  O  O65  1  0.13165176  0.48729323  0.58015429  1
  O  O66  1  0.31855607  0.84293486  0.26049481  1
  O  O67  1  0.51056467  0.67814208  0.26325691  1
  O  O68  1  0.16087571  0.48863289  0.26037925  1
  O  O69  1  0.31275597  0.47532042  0.74792203  1
  O  O70  1  0.15419658  0.68980698  0.74760618  1
  O  O71  1  0.51891952  0.84683197  0.74540246  1
loop_
_geom_bond_atom_site_label_1
_geom_bond_atom_site_label_2
_geom_bond_distance
_geom_bond_site_symmetry_2
Na0 O68 2.376748 1_655
Na0 O52 2.408977 1_555
Na0 O51 2.440162 1_555
Na0 O66 2.495725 1_655
Na0 O30 2.568350 1_655
Na0 O15 2.693360 1_555
Na0 O1 2.756775 1_555
Na0 O11 2.813544 1_655
Na1 O71 2.369820 1_545
Na1 O49 2.381810 1_555
Na1 O48 2.446667 1_555
Na1 O70 2.473528 1_545
Na1 O34 2.539177 1_545
Na1 O13 2.681956 1_555
Na1 O3 2.744134 1_555
Na2 O42 2.384488 1_565
Na2 O63 2.389539 1_555
Na2 O64 2.394825 1_555
Na2 O44 2.448678 1_555
Na2 O6 2.509966 1_555
Na2 O27 2.670708 1_555
Na2 O13 2.883362 1_565
Na2 O23 2.942021 1_565
Na3 O61 2.359463 1_555
Na3 O47 2.370010 1_555
Na3 O46 2.424760 1_455
Na3 O60 2.456272 1_555
Na3 O10 2.510230 1_555
Na3 O25 2.675253 1_554
Na4 O56 2.367237 1_555
Na4 O39 2.378668 1_555
Na4 O40 2.434161 1_545
Na4 O54 2.464763 1_555
Na4 O18 2.557071 1_556
Na4 O3 2.723422 1_555
Na4 O25 2.830226 1_555
Na4 O35 2.962602 1_555
Na5 O36 2.392309 1_655
Na5 O59 2.402276 1_555
Na5 O58 2.448823 1_555
Na5 O37 2.453698 1_555
Na5 O22 2.592186 1_555
Na5 O27 2.714745 1_555
Na5 O1 2.717008 1_555
Na5 O32 2.860711 1_555
Na6 O43 2.422758 1_565
Na6 O36 2.509632 1_555
Na6 O44 2.574724 1_455
Na6 O38 2.589389 1_565
Na6 O42 2.659735 1_465
Na6 O37 2.764170 1_455
Na7 O40 2.435731 1_554
Na7 O45 2.446447 1_455
Na7 O41 2.520055 1_454
Na7 O47 2.590937 1_565
Na7 O39 2.652598 1_564
Na7 O46 2.708523 1_465
Na8 O55 2.388490 1_555
Na8 O48 2.493181 1_555
Na8 O56 2.527211 1_555
Na8 O50 2.584293 1_555
Na8 O54 2.648704 1_555
Na8 O49 2.734305 1_555
Na9 O57 2.429323 1_555
Na9 O52 2.429382 1_555
Na9 O53 2.495267 1_555
Na9 O59 2.536667 1_555
Na9 O58 2.600978 1_555
Na9 O51 2.652384 1_555
Na10 O60 2.402450 1_555
Na10 O67 2.461816 1_555
Na10 O62 2.480861 1_555
Na10 O68 2.592857 1_555
Na10 O61 2.624331 1_555
Na10 O66 2.659905 1_555
Na11 O69 2.346159 1_555
Na11 O64 2.443442 1_555
Na11 O71 2.481994 1_555
Na11 O65 2.511318 1_555
Na11 O70 2.586882 1_555
Na11 O63 2.674434 1_555
In0 O5 2.074575 1_555
In0 O3 2.109708 1_655
In0 O39 2.123102 1_655
In0 O40 2.183574 1_645
In0 O4 2.189833 1_545
In0 O41 2.204878 1_545
In1 O9 2.104580 1_455
In1 O45 2.112013 1_455
In1 O10 2.112538 1_565
In1 O11 2.149047 1_555
In1 O47 2.163452 1_565
In1 O46 2.219792 1_465
In2 O19 2.076698 1_556
In2 O18 2.096472 1_556
In2 O55 2.110197 1_555
In2 O20 2.132058 1_556
In2 O56 2.161630 1_555
In2 O54 2.226848 1_555
In3 O26 2.072690 1_554
In3 O25 2.104170 1_554
In3 O61 2.142594 1_555
In3 O24 2.186038 1_554
In3 O60 2.213161 1_555
In3 O62 2.219334 1_555
In4 O29 2.079676 1_555
In4 O27 2.120048 1_555
In4 O63 2.141921 1_555
In4 O28 2.195249 1_555
In4 O65 2.218444 1_555
In4 O64 2.226635 1_555
In5 O33 2.080327 1_555
In5 O34 2.103828 1_555
In5 O69 2.128050 1_555
In5 O35 2.142872 1_555
In5 O71 2.195303 1_555
In5 O70 2.256810 1_555
Ga0 O2 1.923570 1_565
Ga0 O1 1.944769 1_555
Ga0 O37 1.946408 1_555
Ga0 O36 2.063909 1_655
Ga0 O38 2.121864 1_665
Ga0 O0 2.121904 1_665
Ga1 O7 1.928862 1_565
Ga1 O6 1.964456 1_455
Ga1 O43 1.984424 1_565
Ga1 O8 2.007213 1_555
Ga1 O44 2.045384 1_455
Ga1 O42 2.166858 1_465
Ga2 O14 1.900828 1_555
Ga2 O13 1.913495 1_555
Ga2 O49 1.941777 1_555
Ga2 O48 2.026794 1_555
Ga2 O12 2.058046 1_555
Ga2 O50 2.083571 1_555
Ga3 O17 1.911569 1_555
Ga3 O15 1.916580 1_555
Ga3 O51 1.969171 1_555
Ga3 O16 2.088378 1_555
Ga3 O52 2.114541 1_555
Ga3 O53 2.148749 1_555
Ga4 O21 1.952392 1_555
Ga4 O22 1.973082 1_555
Ga4 O57 1.997365 1_555
Ga4 O23 2.033878 1_555
Ga4 O59 2.086862 1_555
Ga4 O58 2.179887 1_555
Ga5 O31 1.960081 1_555
Ga5 O67 1.963139 1_555
Ga5 O30 1.963940 1_555
Ga5 O32 2.033498 1_555
Ga5 O68 2.034234 1_555
Ga5 O66 2.104909 1_555
O0 S0 1.476516 1_555
O1 P0 1.562766 1_555
O2 P1 1.538991 1_655
O3 P2 1.556849 1_555
O4 S1 1.479211 1_555
O5 P3 1.531067 1_555
O6 P3 1.549897 1_565
O7 P2 1.534802 1_555
O8 S1 1.478908 1_455
O9 P0 1.530867 1_555
O10 P1 1.547010 1_555
O11 S0 1.488415 1_565
O12 S2 1.471262 1_555
O13 P4 1.552599 1_555
O14 P5 1.529315 1_555
O15 P6 1.560429 1_555
O16 S3 1.472735 1_555
O17 P7 1.537624 1_555
O18 P7 1.545861 1_555
O19 P6 1.527281 1_555
O20 S3 1.478345 1_555
O21 P4 1.542857 1_555
O22 P5 1.559857 1_555
O23 S2 1.487784 1_555
O24 S4 1.473715 1_555
O25 P8 1.555748 1_555
O26 P9 1.529341 1_555
O27 P10 1.559873 1_555
O28 S5 1.481684 1_555
O29 P11 1.530766 1_555
O30 P11 1.551929 1_555
O31 P10 1.539706 1_555
O32 S5 1.486666 1_555
O33 P8 1.530986 1_555
O34 P9 1.546962 1_555
O35 S4 1.476808 1_555
O36 P11 1.568182 1_555
O37 P10 1.563596 1_555
O38 S5 1.474352 1_555
O39 P8 1.551580 1_555
O40 P9 1.551622 1_555
O41 S4 1.468836 1_555
O42 S2 1.496565 1_555
O43 P4 1.549213 1_555
O44 P5 1.572738 1_555
O45 P6 1.531415 1_555
O46 S3 1.487283 1_555
O47 P7 1.555075 1_555
O48 P3 1.560277 1_555
O49 P2 1.557866 1_555
O50 S1 1.471381 1_555
O51 P0 1.568486 1_555
O52 P1 1.568840 1_655
O53 S0 1.478225 1_555
O54 S4 1.484818 1_555
O55 P8 1.531923 1_655
O56 P9 1.555889 1_545
O57 P10 1.547650 1_545
O58 S5 1.497045 1_555
O59 P11 1.571883 1_655
O60 P7 1.559093 1_555
O61 P6 1.559074 1_455
O62 S3 1.476575 1_565
O63 P4 1.561418 1_565
O64 P5 1.565127 1_555
O65 S2 1.479976 1_455
O66 S0 1.493603 1_565
O67 P0 1.538730 1_555
O68 P1 1.564530 1_555
O69 P2 1.537363 1_555
O70 S1 1.494220 1_455
O71 P3 1.565549 1_565
