# generated using pymatgen
data_Na14Zn5Si6Sn3(SO8)6
_symmetry_space_group_name_H-M   'P 1'
_cell_length_a   18.33246325
_cell_length_b   9.10949573
_cell_length_c   22.39862253
_cell_angle_alpha   90.15914379
_cell_angle_beta   89.95645215
_cell_angle_gamma   120.20002114
_symmetry_Int_Tables_number   1
_chemical_formula_structural   Na14Zn5Si6Sn3(SO8)6
_chemical_formula_sum   'Na42 Zn15 Si18 Sn9 S18 O144'
_cell_volume   3232.85655608
_cell_formula_units_Z   3
loop_
 _symmetry_equiv_pos_site_id
 _symmetry_equiv_pos_as_xyz
  1  'x, y, z'
loop_
 _atom_site_type_symbol
 _atom_site_label
 _atom_site_symmetry_multiplicity
 _atom_site_fract_x
 _atom_site_fract_y
 _atom_site_fract_z
 _atom_site_occupancy
  Na  Na0  1  0.19555360  0.36634623  0.24822015  1
  Na  Na1  1  0.68958812  0.36222761  0.24912769  1
  Na  Na2  1  0.99601108  0.64241662  0.24999745  1
  Na  Na3  1  0.49392150  0.63452794  0.24358214  1
  Na  Na4  1  0.31619539  0.63066027  0.74699520  1
  Na  Na5  1  0.81532670  0.62654285  0.73948074  1
  Na  Na6  1  0.19115631  0.02042676  0.74862917  1
  Na  Na7  1  0.69480463  0.02502786  0.74799983  1
  Na  Na8  1  0.15145429  0.32862175  0.57918537  1
  Na  Na9  1  0.66114033  0.34471111  0.58073008  1
  Na  Na10  1  0.01275837  0.69642494  0.57978373  1
  Na  Na11  1  0.52299341  0.70213865  0.58097904  1
  Na  Na12  1  0.32447022  0.96879999  0.58810015  1
  Na  Na13  1  0.82357722  0.95476586  0.58790850  1
  Na  Na14  1  0.15425287  0.97536718  0.08135892  1
  Na  Na15  1  0.64684699  0.96020748  0.07806146  1
  Na  Na16  1  0.82297138  0.68088262  0.08798434  1
  Na  Na17  1  0.02054778  0.34082578  0.08093796  1
  Na  Na18  1  0.52241004  0.35078313  0.08626413  1
  Na  Na19  1  0.49062373  0.68222107  0.92157767  1
  Na  Na20  1  0.98766536  0.67772815  0.91771918  1
  Na  Na21  1  0.84689788  0.03398526  0.90906431  1
  Na  Na22  1  0.16209056  0.28080585  0.91180473  1
  Na  Na23  1  0.66509524  0.27908544  0.91579743  1
  Na  Na24  1  0.49006030  0.30195137  0.41828939  1
  Na  Na25  1  0.98632727  0.29685753  0.42024970  1
  Na  Na26  1  0.16535620  0.05156685  0.41577954  1
  Na  Na27  1  0.66724318  0.05302970  0.41630666  1
  Na  Na28  1  0.34952407  0.66041108  0.40844226  1
  Na  Na29  1  0.84776121  0.65591675  0.41685433  1
  Na  Na30  1  0.00312223  0.00019831  0.49948921  1
  Na  Na31  1  0.51111136  0.01561782  0.49599904  1
  Na  Na32  1  0.00761944  0.00425083  0.99598395  1
  Na  Na33  1  0.50064023  0.99176393  0.99913568  1
  Na  Na34  1  0.33167022  0.30864208  0.82709800  1
  Na  Na35  1  0.82822026  0.31318966  0.82588558  1
  Na  Na36  1  0.32573013  0.32978284  0.32571640  1
  Na  Na37  1  0.82284434  0.32708730  0.32934552  1
  Na  Na38  1  0.18306225  0.67792350  0.16468499  1
  Na  Na39  1  0.66697493  0.66941875  0.16329056  1
  Na  Na40  1  0.16475630  0.66735979  0.66593301  1
  Na  Na41  1  0.67343061  0.66940476  0.66267736  1
  Zn  Zn0  1  0.00821369  0.00342593  0.34450831  1
  Zn  Zn1  1  0.50846098  0.00444820  0.34251777  1
  Zn  Zn2  1  0.00614535  0.01566285  0.84141508  1
  Zn  Zn3  1  0.50559776  0.01727386  0.84612382  1
  Zn  Zn4  1  0.32173755  0.29838250  0.68778071  1
  Zn  Zn5  1  0.81843269  0.31398299  0.68261304  1
  Zn  Zn6  1  0.32820882  0.35359351  0.18378969  1
  Zn  Zn7  1  0.81717057  0.33192710  0.18766017  1
  Zn  Zn8  1  0.81277010  0.29860441  0.98574520  1
  Zn  Zn9  1  0.31592660  0.32708437  0.48469373  1
  Zn  Zn10  1  0.81142863  0.34288803  0.49186215  1
  Zn  Zn11  1  0.17242595  0.67128067  0.01571173  1
  Zn  Zn12  1  0.65554026  0.66222447  0.02026291  1
  Zn  Zn13  1  0.16328065  0.66471506  0.51493688  1
  Zn  Zn14  1  0.67486623  0.66272837  0.51983206  1
  Si  Si0  1  0.15358675  0.00219167  0.25257272  1
  Si  Si1  1  0.65126181  0.99833364  0.25329516  1
  Si  Si2  1  0.35635009  0.71400118  0.25388782  1
  Si  Si3  1  0.85606360  0.71085784  0.25196128  1
  Si  Si4  1  0.14887552  0.30078180  0.75161061  1
  Si  Si5  1  0.64986326  0.30223879  0.75493308  1
  Si  Si6  1  0.35726392  0.00430325  0.75255076  1
  Si  Si7  1  0.85656372  0.00984811  0.75359437  1
  Si  Si8  1  0.18328648  0.02814432  0.58262130  1
  Si  Si9  1  0.68087335  0.02640931  0.58317362  1
  Si  Si10  1  0.83704886  0.63180693  0.58560336  1
  Si  Si11  1  0.47668308  0.61946074  0.08480490  1
  Si  Si12  1  0.18186025  0.34023223  0.08529841  1
  Si  Si13  1  0.68249626  0.33616661  0.08335456  1
  Si  Si14  1  0.16606505  0.95811988  0.92061172  1
  Si  Si15  1  0.66480601  0.95891731  0.91828828  1
  Si  Si16  1  0.16452608  0.37301786  0.41890857  1
  Si  Si17  1  0.66298094  0.36956468  0.41750755  1
  Sn  Sn0  1  -0.00005800  0.00500293  0.65097883  1
  Sn  Sn1  1  0.50512889  0.01739213  0.65501481  1
  Sn  Sn2  1  0.00497085  0.99763441  0.15459861  1
  Sn  Sn3  1  0.50076527  0.98037182  0.14953326  1
  Sn  Sn4  1  0.32558812  0.32279345  0.98739304  1
  Sn  Sn5  1  0.17658912  0.67690518  0.31338973  1
  Sn  Sn6  1  0.67549637  0.67427138  0.31290402  1
  Sn  Sn7  1  0.17194805  0.67651864  0.81429007  1
  Sn  Sn8  1  0.67171916  0.67429710  0.81399493  1
  S  S0  1  0.99825497  0.29602720  0.25113911  1
  S  S1  1  0.49825741  0.29184367  0.25131435  1
  S  S2  1  0.00037494  0.70237938  0.75202253  1
  S  S3  1  0.49868717  0.70149153  0.75087819  1
  S  S4  1  0.47587250  0.33199649  0.58325193  1
  S  S5  1  0.97922241  0.33465386  0.58274695  1
  S  S6  1  0.33639267  0.63052089  0.58451895  1
  S  S7  1  0.97832059  0.62321701  0.08330943  1
  S  S8  1  0.33424982  0.04017027  0.08543876  1
  S  S9  1  0.83791100  0.04579369  0.08430673  1
  S  S10  1  0.31534581  0.66725768  0.91738256  1
  S  S11  1  0.81543792  0.66723369  0.91909787  1
  S  S12  1  0.01971041  0.37669451  0.91848624  1
  S  S13  1  0.51780272  0.37155764  0.91759902  1
  S  S14  1  0.31550878  0.96489741  0.41932708  1
  S  S15  1  0.81583886  0.96584517  0.41797884  1
  S  S16  1  0.01996656  0.66329918  0.41649547  1
  S  S17  1  0.51940170  0.66242132  0.41895412  1
  O  O0  1  0.11178314  0.03914204  0.30984880  1
  O  O1  1  0.61292722  0.03842443  0.31165810  1
  O  O2  1  0.40888755  0.79834553  0.31456566  1
  O  O3  1  0.91188745  0.80036189  0.31070202  1
  O  O4  1  0.48917877  0.19455411  0.30574914  1
  O  O5  1  0.98678001  0.19397152  0.30437295  1
  O  O6  1  0.11324583  0.18308723  0.81028174  1
  O  O7  1  0.61027658  0.18025026  0.81125326  1
  O  O8  1  0.48597049  0.77787530  0.80422876  1
  O  O9  1  0.98861434  0.78184696  0.80601935  1
  O  O10  1  0.41075215  0.00879520  0.80843669  1
  O  O11  1  0.90585550  0.01572811  0.81437904  1
  O  O12  1  0.39262136  0.95498964  0.68904561  1
  O  O13  1  0.89479878  0.95972398  0.69376413  1
  O  O14  1  0.09150414  0.21687945  0.69051518  1
  O  O15  1  0.59471200  0.22992827  0.69140052  1
  O  O16  1  0.01877663  0.81430345  0.69767446  1
  O  O17  1  0.51596078  0.81284010  0.69561349  1
  O  O18  1  0.39687496  0.83582101  0.19442857  1
  O  O19  1  0.89572027  0.82642047  0.18906580  1
  O  O20  1  0.01596813  0.22073583  0.19566954  1
  O  O21  1  0.51470167  0.21529331  0.19678571  1
  O  O22  1  0.08983502  0.94920521  0.19162494  1
  O  O23  1  0.59092338  0.95424964  0.19236668  1
  O  O24  1  0.43552480  0.35639630  0.63531871  1
  O  O25  1  0.93898160  0.35710054  0.63536738  1
  O  O26  1  0.24302025  0.10501491  0.64066504  1
  O  O27  1  0.73803804  0.10180499  0.64214131  1
  O  O28  1  0.32623736  0.52911517  0.63756526  1
  O  O29  1  0.82348937  0.51631102  0.64368866  1
  O  O30  1  0.43521192  0.49722083  0.14142601  1
  O  O31  1  0.93946962  0.52198724  0.13679478  1
  O  O32  1  0.32000687  0.12094306  0.13651205  1
  O  O33  1  0.82825562  0.13113244  0.13608042  1
  O  O34  1  0.23372436  0.35849913  0.14411787  1
  O  O35  1  0.74282602  0.37757231  0.14092371  1
  O  O36  1  0.21717539  0.28553264  0.02482908  1
  O  O37  1  0.71663039  0.28442267  0.02406124  1
  O  O38  1  0.42136080  0.53476659  0.02076051  1
  O  O39  1  0.92830701  0.54573303  0.02833893  1
  O  O40  1  0.35083742  0.14614746  0.02871703  1
  O  O41  1  0.85490811  0.14787617  0.02828668  1
  O  O42  1  0.21954192  0.14561227  0.52295790  1
  O  O43  1  0.71515294  0.14267914  0.52318138  1
  O  O44  1  0.35160249  0.55715491  0.52938467  1
  O  O45  1  0.86227726  0.56763505  0.52421136  1
  O  O46  1  0.42660432  0.30475143  0.52739274  1
  O  O47  1  0.93095902  0.30763746  0.52698418  1
  O  O48  1  0.27255031  0.68504413  0.96989787  1
  O  O49  1  0.77424171  0.69094306  0.97110839  1
  O  O50  1  0.07265957  0.45379133  0.97201386  1
  O  O51  1  0.56948322  0.44878176  0.97152006  1
  O  O52  1  0.15143630  0.83969075  0.97825069  1
  O  O53  1  0.65263991  0.84149819  0.97558938  1
  O  O54  1  0.27513480  0.85921691  0.47231152  1
  O  O55  1  0.77577468  0.86093413  0.47095644  1
  O  O56  1  0.15086061  0.46234154  0.47747642  1
  O  O57  1  0.64593118  0.45710208  0.47492259  1
  O  O58  1  0.07319062  0.69333417  0.46975066  1
  O  O59  1  0.57276702  0.68968121  0.47129428  1
  O  O60  1  0.06265658  0.64216993  0.36169508  1
  O  O61  1  0.55886028  0.63748740  0.36313818  1
  O  O62  1  0.25833632  0.88820348  0.36548394  1
  O  O63  1  0.75879850  0.88787230  0.36394249  1
  O  O64  1  0.18147935  0.49613392  0.35848626  1
  O  O65  1  0.68156146  0.49415186  0.35702607  1
  O  O66  1  0.06192711  0.48571166  0.86439734  1
  O  O67  1  0.55856078  0.48459486  0.86406608  1
  O  O68  1  0.17959733  0.87362461  0.85807562  1
  O  O69  1  0.68126308  0.87096643  0.85697109  1
  O  O70  1  0.26042967  0.63082269  0.86210380  1
  O  O71  1  0.76069351  0.63300716  0.86375302  1
  O  O72  1  0.00939716  0.81393901  0.41217365  1
  O  O73  1  0.50779949  0.81225056  0.41425202  1
  O  O74  1  0.39800983  0.97621684  0.41180707  1
  O  O75  1  0.89855376  0.97599966  0.41029275  1
  O  O76  1  0.07848546  0.18440672  0.41324088  1
  O  O77  1  0.57700396  0.18089440  0.41195756  1
  O  O78  1  0.00879853  0.20427467  0.91306459  1
  O  O79  1  0.50830344  0.20378790  0.91153093  1
  O  O80  1  0.08194598  0.97819387  0.91463794  1
  O  O81  1  0.57944671  0.97468921  0.91329423  1
  O  O82  1  0.39938471  0.81129249  0.91104624  1
  O  O83  1  0.89989991  0.82202574  0.91222540  1
  O  O84  1  0.48260968  0.16973836  0.58744450  1
  O  O85  1  0.98877294  0.17661645  0.58680604  1
  O  O86  1  0.08902346  0.01624191  0.59047483  1
  O  O87  1  0.58250853  0.01198279  0.59057715  1
  O  O88  1  0.41406659  0.80686013  0.58794509  1
  O  O89  1  0.92260978  0.82887038  0.58948661  1
  O  O90  1  0.48785403  0.81306372  0.08393996  1
  O  O91  1  0.98515492  0.79913848  0.08643268  1
  O  O92  1  0.41298674  0.03031508  0.08879223  1
  O  O93  1  0.91606342  0.02605854  0.08856749  1
  O  O94  1  0.08310656  0.15553677  0.08940743  1
  O  O95  1  0.58410061  0.16433903  0.09193451  1
  O  O96  1  0.34307833  0.16512584  0.74832061  1
  O  O97  1  0.84273390  0.17019401  0.74690333  1
  O  O98  1  0.24519963  0.33534669  0.74409514  1
  O  O99  1  0.74457361  0.33159454  0.74912686  1
  O  O100  1  0.42350941  0.53528651  0.74080706  1
  O  O101  1  0.92688551  0.53619343  0.74398374  1
  O  O102  1  0.34831333  0.52758120  0.24986438  1
  O  O103  1  0.85127742  0.52714743  0.24649513  1
  O  O104  1  0.42624153  0.31656890  0.24526558  1
  O  O105  1  0.92702891  0.32144930  0.24193558  1
  O  O106  1  0.24495084  0.16687900  0.24331653  1
  O  O107  1  0.74401095  0.16306953  0.24640757  1
  O  O108  1  0.32048763  0.50518696  0.92021228  1
  O  O109  1  0.82666915  0.51624398  0.92211889  1
  O  O110  1  0.43341801  0.36362935  0.92155506  1
  O  O111  1  0.93632579  0.36532646  0.92274222  1
  O  O112  1  0.25324340  0.15552400  0.92274339  1
  O  O113  1  0.75384568  0.14557597  0.91704354  1
  O  O114  1  0.32696331  0.13818443  0.42274106  1
  O  O115  1  0.82755368  0.13865068  0.42169529  1
  O  O116  1  0.25232515  0.36253448  0.41832275  1
  O  O117  1  0.75001383  0.35744703  0.41719341  1
  O  O118  1  0.43458981  0.50431992  0.42307224  1
  O  O119  1  0.93740095  0.50490302  0.41934423  1
  O  O120  1  0.16423201  0.49682197  0.07489467  1
  O  O121  1  0.67517885  0.50755933  0.07530244  1
  O  O122  1  0.06565262  0.65250978  0.07928408  1
  O  O123  1  0.57225797  0.64882655  0.08115247  1
  O  O124  1  0.25807800  0.87056532  0.07717641  1
  O  O125  1  0.76300436  0.87351580  0.07866200  1
  O  O126  1  0.17113299  0.83563137  0.57545243  1
  O  O127  1  0.66526384  0.83361307  0.57526411  1
  O  O128  1  0.26033582  0.64895859  0.57909772  1
  O  O129  1  0.75240209  0.64997575  0.58116750  1
  O  O130  1  0.06684601  0.48486088  0.57957601  1
  O  O131  1  0.56282426  0.47887519  0.57933490  1
  O  O132  1  0.14752537  0.81167353  0.25815104  1
  O  O133  1  0.64709035  0.80985701  0.25820231  1
  O  O134  1  0.25691300  0.67869360  0.25200764  1
  O  O135  1  0.75777622  0.67805874  0.25111626  1
  O  O136  1  0.07820846  0.46788773  0.25486900  1
  O  O137  1  0.57863907  0.46639873  0.25447798  1
  O  O138  1  0.15670555  0.49166798  0.75761769  1
  O  O139  1  0.65649268  0.49182432  0.75884360  1
  O  O140  1  0.08086327  0.69427400  0.75599400  1
  O  O141  1  0.57792043  0.69076666  0.75434574  1
  O  O142  1  0.25889666  0.82767310  0.75202307  1
  O  O143  1  0.75917873  0.82968097  0.75313382  1
loop_
_geom_bond_atom_site_label_1
_geom_bond_atom_site_label_2
_geom_bond_distance
_geom_bond_site_symmetry_2
Na0 O106 2.405812 1_555
Na0 O102 2.421364 1_555
Na0 O34 2.445147 1_555
Na0 O134 2.479368 1_555
Na0 O136 2.739743 1_555
Na0 O64 2.802511 1_555
Na0 O0 2.926228 1_555
Na1 O107 2.472013 1_555
Na1 O135 2.494648 1_555
Na1 O103 2.562599 1_555
Na1 O35 2.589798 1_555
Na1 O137 2.644367 1_555
Na1 O65 2.732750 1_555
Na1 O1 2.913226 1_555
Na2 O103 2.312098 1_555
Na2 O132 2.411748 1_655
Na2 O105 2.541317 1_555
Na2 O136 2.687324 1_655
Na2 O31 2.748029 1_555
Na2 O22 2.767516 1_655
Na2 O60 2.785597 1_655
Na2 O3 2.918142 1_555
Na3 O102 2.340577 1_555
Na3 O133 2.455493 1_555
Na3 O104 2.513036 1_555
Na3 O30 2.567499 1_555
Na3 O137 2.685706 1_555
Na3 O23 2.786728 1_555
Na3 O61 2.925960 1_555
Na4 O98 2.326335 1_555
Na4 O142 2.496449 1_555
Na4 O100 2.522478 1_555
Na4 O138 2.546533 1_555
Na4 O28 2.656199 1_555
Na4 O70 2.773110 1_555
Na4 O12 2.868940 1_555
Na4 O8 2.987683 1_555
Na5 O99 2.333424 1_555
Na5 O29 2.402724 1_555
Na5 O143 2.547545 1_555
Na5 O101 2.562103 1_555
Na5 O139 2.564930 1_555
Na5 O13 2.819476 1_555
Na5 O71 2.967963 1_555
Na6 O96 2.408534 1_555
Na6 O98 2.522651 1_555
Na6 O26 2.572057 1_555
Na6 O142 2.612606 1_545
Na6 O140 2.627049 1_545
Na6 O68 2.752307 1_545
Na6 O6 2.873566 1_555
Na6 O16 2.973010 1_545
Na7 O97 2.344351 1_555
Na7 O99 2.463400 1_555
Na7 O27 2.487581 1_555
Na7 O143 2.585865 1_545
Na7 O141 2.705790 1_545
Na7 O69 2.767013 1_545
Na7 O7 2.932214 1_555
Na8 O86 2.489670 1_555
Na8 O128 2.576769 1_555
Na8 O130 2.579229 1_555
Na8 O85 2.585900 1_455
Na8 O56 2.588948 1_555
Na8 O14 2.710479 1_555
Na8 O42 2.828943 1_555
Na9 O129 2.418971 1_555
Na9 O87 2.630802 1_555
Na9 O131 2.638112 1_555
Na9 O57 2.654102 1_555
Na9 O15 2.729447 1_555
Na9 O43 2.801313 1_555
Na9 O84 2.833273 1_555
Na9 O29 2.933236 1_555
Na10 O89 2.497622 1_455
Na10 O126 2.518615 1_555
Na10 O86 2.529546 1_565
Na10 O130 2.572924 1_555
Na10 O45 2.697631 1_455
Na10 O58 2.707253 1_555
Na10 O16 2.829040 1_555
Na10 O25 2.957515 1_455
Na11 O127 2.260772 1_555
Na11 O87 2.470245 1_565
Na11 O131 2.482853 1_555
Na11 O88 2.614794 1_555
Na11 O59 2.642065 1_555
Na11 O17 2.782502 1_555
Na11 O44 2.962150 1_555
Na11 O24 2.984922 1_555
Na12 O126 2.454075 1_555
Na12 O84 2.533152 1_565
Na12 O128 2.542209 1_555
Na12 O12 2.617838 1_555
Na12 O26 2.647400 1_565
Na12 O88 2.704017 1_555
Na12 O54 2.760735 1_555
Na13 O129 2.405721 1_555
Na13 O127 2.549221 1_555
Na13 O89 2.589901 1_555
Na13 O85 2.664429 1_565
Na13 O13 2.696910 1_555
Na13 O55 2.756478 1_555
Na13 O27 2.798215 1_565
Na14 O124 2.523960 1_555
Na14 O122 2.546312 1_555
Na14 O94 2.564951 1_565
Na14 O52 2.604622 1_554
Na14 O91 2.682128 1_455
Na14 O22 2.695747 1_555
Na14 O36 2.766906 1_565
Na14 O32 2.908758 1_565
Na15 O123 2.453425 1_555
Na15 O90 2.525780 1_555
Na15 O53 2.559324 1_554
Na15 O125 2.617312 1_555
Na15 O95 2.650621 1_565
Na15 O23 2.747699 1_555
Na15 O37 2.835260 1_565
Na16 O121 2.368423 1_555
Na16 O125 2.504916 1_555
Na16 O91 2.603754 1_555
Na16 O19 2.621359 1_555
Na16 O35 2.670285 1_555
Na16 O93 2.720472 1_565
Na16 O49 2.783324 1_554
Na17 O120 2.282731 1_555
Na17 O94 2.479881 1_555
Na17 O122 2.526904 1_555
Na17 O93 2.529173 1_455
Na17 O50 2.635409 1_554
Na17 O20 2.780415 1_555
Na17 O41 2.885378 1_455
Na17 O31 2.991900 1_455
Na18 O123 2.392710 1_555
Na18 O121 2.433196 1_555
Na18 O95 2.472566 1_555
Na18 O92 2.580469 1_555
Na18 O51 2.716883 1_554
Na18 O21 2.740904 1_555
Na18 O30 2.827474 1_555
Na19 O81 2.328492 1_555
Na19 O82 2.493285 1_555
Na19 O110 2.541778 1_555
Na19 O38 2.578429 1_556
Na19 O108 2.696189 1_555
Na19 O8 2.786245 1_555
Na19 O53 2.837393 1_555
Na19 O67 2.948209 1_555
Na20 O80 2.392760 1_655
Na20 O111 2.510814 1_555
Na20 O83 2.541781 1_555
Na20 O109 2.552880 1_555
Na20 O9 2.675076 1_555
Na20 O39 2.732249 1_556
Na20 O52 2.927064 1_655
Na20 O66 2.953149 1_655
Na21 O113 2.391314 1_555
Na21 O11 2.422632 1_555
Na21 O83 2.562344 1_545
Na21 O78 2.567354 1_655
Na21 O111 2.628573 1_555
Na21 O41 2.839191 1_556
Na21 O69 2.871639 1_545
Na22 O80 2.384946 1_545
Na22 O6 2.440312 1_555
Na22 O112 2.464897 1_555
Na22 O78 2.532419 1_555
Na22 O108 2.583207 1_555
Na22 O36 2.718476 1_556
Na23 O81 2.403451 1_545
Na23 O113 2.473479 1_555
Na23 O7 2.526946 1_555
Na23 O37 2.594609 1_556
Na23 O79 2.599658 1_555
Na23 O109 2.649938 1_555
Na24 O77 2.354527 1_555
Na24 O118 2.515690 1_555
Na24 O74 2.575641 1_545
Na24 O114 2.586179 1_555
Na24 O4 2.698522 1_555
Na24 O46 2.711291 1_555
Na24 O57 2.775692 1_555
Na24 O61 2.932498 1_555
Na25 O76 2.380790 1_655
Na25 O119 2.471242 1_555
Na25 O115 2.515990 1_555
Na25 O75 2.539166 1_545
Na25 O47 2.617384 1_555
Na25 O5 2.758493 1_555
Na25 O56 2.904177 1_655
Na26 O76 2.437854 1_555
Na26 O116 2.454643 1_555
Na26 O0 2.548984 1_555
Na26 O42 2.572908 1_555
Na26 O72 2.576782 1_545
Na26 O114 2.659412 1_555
Na27 O117 2.399865 1_555
Na27 O77 2.458122 1_555
Na27 O1 2.524283 1_555
Na27 O43 2.537633 1_555
Na27 O73 2.628043 1_545
Na27 O115 2.637027 1_555
Na28 O116 2.392820 1_555
Na28 O2 2.412479 1_555
Na28 O73 2.512211 1_555
Na28 O74 2.549168 1_555
Na28 O118 2.606784 1_555
Na28 O44 2.876620 1_555
Na28 O64 2.887900 1_555
Na29 O117 2.387912 1_555
Na29 O72 2.563730 1_655
Na29 O75 2.580934 1_555
Na29 O45 2.593630 1_555
Na29 O119 2.621241 1_555
Na29 O3 2.687678 1_555
Na30 O76 2.477545 1_555
Na30 O89 2.524546 1_445
Na30 O86 2.535000 1_555
Na30 O85 2.623745 1_455
Na30 O72 2.625768 1_545
Na30 O75 2.700599 1_445
Na31 O77 2.334965 1_555
Na31 O87 2.500038 1_555
Na31 O73 2.580023 1_545
Na31 O84 2.675792 1_555
Na31 O74 2.690280 1_545
Na31 O88 2.763222 1_545
Na32 O80 2.356273 1_545
Na32 O94 2.502568 1_556
Na32 O78 2.597918 1_555
Na32 O83 2.620181 1_445
Na32 O91 2.647789 1_446
Na32 O93 2.735861 1_456
Na33 O90 2.438364 1_556
Na33 O81 2.455296 1_555
Na33 O95 2.588374 1_566
Na33 O82 2.637977 1_555
Na33 O92 2.701328 1_566
Na33 O79 2.710747 1_565
Na34 O96 2.264532 1_555
Na34 O98 2.534460 1_555
Na34 O112 2.568390 1_555
Na34 O110 2.695656 1_555
Na34 O100 2.711668 1_555
Na34 O108 2.818754 1_555
Na35 O97 2.287458 1_555
Na35 O99 2.366388 1_555
Na35 O113 2.505606 1_555
Na35 O101 2.661360 1_555
Na35 O111 2.813124 1_555
Na35 O109 2.845893 1_555
Na36 O102 2.360092 1_555
Na36 O106 2.362131 1_555
Na36 O116 2.568788 1_555
Na36 O104 2.621792 1_555
Na36 O114 2.798309 1_555
Na36 O118 2.839185 1_555
Na37 O107 2.363971 1_555
Na37 O117 2.468876 1_555
Na37 O103 2.469493 1_555
Na37 O115 2.720635 1_555
Na37 O105 2.752499 1_555
Na37 O119 2.768365 1_555
Na38 O134 2.377597 1_555
Na38 O120 2.509053 1_555
Na38 O124 2.529779 1_555
Na38 O132 2.659701 1_555
Na38 O136 2.784180 1_555
Na38 O122 2.801427 1_555
Na39 O123 2.471902 1_555
Na39 O121 2.507439 1_555
Na39 O135 2.553275 1_555
Na39 O133 2.596508 1_555
Na39 O125 2.621207 1_555
Na39 O137 2.686525 1_555
Na40 O142 2.506659 1_555
Na40 O126 2.511423 1_555
Na40 O138 2.565296 1_555
Na40 O130 2.590830 1_555
Na40 O140 2.620420 1_555
Na40 O128 2.677652 1_555
Na41 O129 2.390076 1_555
Na41 O127 2.517049 1_555
Na41 O143 2.527310 1_555
Na41 O139 2.620295 1_555
Na41 O131 2.656292 1_555
Na41 O141 2.766688 1_555
O0 Si0 1.613096 1_555
O0 Zn0 1.921254 1_555
O1 Si1 1.609446 1_545
O1 Zn1 1.908958 1_555
O2 Si2 1.617664 1_555
O2 Zn1 1.948442 1_565
O3 Si3 1.612401 1_555
O3 Zn0 1.954869 1_665
O4 S1 1.468693 1_555
O4 Zn1 2.103917 1_555
O5 S0 1.462638 1_555
O5 Zn0 2.161211 1_655
O6 Si4 1.614037 1_555
O6 Zn2 1.912749 1_555
O7 Si5 1.596242 1_555
O7 Zn3 1.906497 1_555
O8 S3 1.457614 1_555
O8 Zn3 2.228375 1_565
O9 S2 1.478197 1_655
O9 Zn2 2.137954 1_665
O10 Si6 1.578395 1_555
O10 Zn3 1.899622 1_555
O11 Si7 1.620453 1_555
O11 Zn2 1.936443 1_655
O12 Si6 1.712670 1_565
O12 Sn1 1.994668 1_565
O13 Si7 1.677164 1_565
O13 Sn0 2.000864 1_665
O14 Si4 1.658518 1_555
O14 Sn0 2.015055 1_555
O15 Si5 1.675753 1_555
O15 Sn1 1.975908 1_555
O16 S2 1.515073 1_555
O16 Sn0 2.201144 1_565
O17 S3 1.531227 1_555
O17 Sn1 2.172655 1_565
O18 Si2 1.653603 1_555
O18 Sn3 1.963136 1_555
O19 Si3 1.690596 1_555
O19 Sn2 1.975255 1_655
O20 S0 1.529130 1_455
O20 Sn2 2.143599 1_545
O21 S1 1.508341 1_555
O21 Sn3 2.280989 1_545
O22 Si0 1.701106 1_565
O22 Sn2 1.999335 1_555
O23 Si1 1.673213 1_555
O23 Sn3 2.026886 1_555
O24 S4 1.455763 1_555
O24 Zn4 2.214081 1_555
O25 S5 1.457493 1_555
O25 Zn5 2.298596 1_555
O26 Si8 1.614136 1_555
O26 Zn4 1.932275 1_555
O27 Si9 1.608543 1_555
O27 Zn5 1.963723 1_555
O28 S6 1.460295 1_555
O28 Zn4 2.351223 1_555
O29 Si10 1.614127 1_555
O29 Zn5 2.000669 1_555
O30 Si11 1.606574 1_555
O30 Zn6 1.970340 1_555
O31 S7 1.461823 1_555
O31 Zn7 2.328999 1_555
O32 S8 1.451345 1_555
O32 Zn6 2.302765 1_555
O33 S9 1.453821 1_555
O33 Zn7 2.254697 1_555
O34 Si12 1.583970 1_555
O34 Zn6 1.967820 1_555
O35 Si13 1.614931 1_555
O35 Zn7 1.923803 1_555
O36 Si12 1.679695 1_555
O36 Sn4 2.022062 1_554
O37 Si13 1.633885 1_555
O37 Zn8 1.904946 1_554
O38 Si11 1.700149 1_555
O38 Sn4 1.988236 1_554
O39 S7 1.483472 1_555
O39 Zn8 2.378762 1_554
O40 S8 1.532805 1_555
O40 Sn4 2.102059 1_554
O41 S9 1.500224 1_555
O41 Zn8 2.113166 1_554
O42 Si8 1.632114 1_555
O42 Zn9 1.912186 1_555
O43 Si9 1.630762 1_555
O43 Zn10 1.923619 1_555
O44 S6 1.493933 1_555
O44 Zn9 2.105376 1_555
O45 Si10 1.647145 1_555
O45 Zn10 1.912673 1_555
O46 S4 1.489052 1_555
O46 Zn9 2.343548 1_555
O47 S5 1.477953 1_555
O48 S10 1.466561 1_555
O48 Zn11 2.050420 1_556
O49 S11 1.461343 1_555
O49 Zn12 2.332643 1_556
O50 S12 1.477902 1_555
O50 Zn11 2.138881 1_556
O51 S13 1.475696 1_555
O51 Zn12 2.089554 1_556
O52 Si14 1.618241 1_555
O52 Zn11 1.951205 1_556
O53 Si15 1.615030 1_555
O53 Zn12 1.941027 1_556
O54 S14 1.473506 1_555
O54 Zn13 2.146377 1_555
O55 S15 1.469584 1_555
O55 Zn14 2.127971 1_555
O56 Si16 1.626170 1_555
O56 Zn13 1.929728 1_555
O57 Si17 1.622302 1_555
O57 Zn14 1.947475 1_555
O58 S16 1.476875 1_555
O58 Zn13 2.063299 1_555
O59 S17 1.465909 1_555
O59 Zn14 2.283096 1_555
O60 S16 1.518204 1_555
O60 Sn5 2.228651 1_555
O61 S17 1.516642 1_555
O61 Sn6 2.286469 1_555
O62 S14 1.517125 1_555
O62 Sn5 2.097737 1_555
O63 S15 1.520797 1_555
O63 Sn6 2.103807 1_555
O64 Si16 1.686168 1_555
O64 Sn5 1.974329 1_555
O65 Si17 1.690627 1_555
O65 Sn6 1.968243 1_555
O66 S12 1.511624 1_555
O66 Sn7 2.197581 1_555
O67 S13 1.512553 1_555
O67 Sn8 2.224466 1_555
O68 Si14 1.673800 1_555
O68 Sn7 1.985592 1_555
O69 Si15 1.689865 1_555
O69 Sn8 1.960161 1_555
O70 S10 1.523224 1_555
O70 Sn7 2.153095 1_555
O71 S11 1.525155 1_555
O71 Sn8 2.160202 1_555
O72 S16 1.482652 1_555
O72 Zn0 2.308534 1_565
O73 S17 1.487309 1_555
O73 Zn1 2.375165 1_565
O74 S14 1.472859 1_555
O74 Zn1 2.459337 1_565
O75 S15 1.481939 1_555
O75 Zn0 2.401513 1_665
O76 Si16 1.651899 1_555
O76 Zn0 2.144748 1_555
O77 Si17 1.651503 1_555
O77 Zn1 2.130440 1_555
O78 S12 1.484794 1_555
O78 Zn2 2.330387 1_555
O79 S13 1.454518 1_555
O79 Zn3 2.221944 1_555
O80 Si14 1.647299 1_555
O80 Zn2 2.284988 1_565
O81 Si15 1.645734 1_555
O81 Zn3 2.186696 1_565
O82 S10 1.443025 1_555
O82 Zn3 2.400419 1_565
O83 S11 1.487898 1_555
O83 Zn2 2.444409 1_665
O84 S4 1.547020 1_555
O84 Sn1 2.230705 1_555
O85 S5 1.538122 1_555
O85 Sn0 2.210634 1_655
O86 Si8 1.685255 1_555
O86 Sn0 2.084040 1_555
O87 Si9 1.748657 1_555
O87 Sn1 2.040763 1_555
O88 S6 1.520596 1_555
O88 Sn1 2.342785 1_565
O89 Si10 1.690270 1_555
O89 Sn0 2.045376 1_665
O90 Si11 1.670185 1_555
O90 Sn3 2.040244 1_555
O91 S7 1.544723 1_555
O91 Sn2 2.248867 1_655
O92 S8 1.492581 1_555
O92 Sn3 2.321811 1_545
O93 S9 1.534133 1_555
O93 Sn2 2.311151 1_645
O94 Si12 1.747285 1_555
O94 Sn2 2.046619 1_545
O95 Si13 1.703353 1_555
O95 Sn3 2.059172 1_545
O96 Si6 1.614610 1_555
O96 Zn4 1.988244 1_555
O97 Si7 1.610633 1_555
O97 Zn5 2.141570 1_555
O98 Si4 1.638965 1_555
O98 Zn4 2.035551 1_555
O99 Si5 1.623518 1_555
O99 Zn5 2.071910 1_555
O100 S3 1.463543 1_555
O100 Zn4 2.342505 1_555
O101 S2 1.444393 1_655
O101 Zn5 2.424838 1_555
O102 Si2 1.631301 1_555
O102 Zn6 2.058723 1_555
O103 Si3 1.635382 1_555
O103 Zn7 2.039545 1_555
O104 S1 1.453165 1_555
O104 Zn6 2.419881 1_555
O105 S0 1.451205 1_555
O105 Zn7 2.396011 1_555
O106 Si0 1.603836 1_555
O106 Zn6 2.097169 1_555
O107 Si1 1.612682 1_545
O107 Zn7 1.956896 1_555
O108 S10 1.527463 1_555
O108 Sn4 2.281241 1_555
O109 S11 1.491393 1_555
O109 Zn8 2.352345 1_555
O110 S13 1.514476 1_555
O110 Sn4 2.340848 1_555
O111 S12 1.482276 1_655
O111 Zn8 2.471094 1_555
O112 Si14 1.702509 1_545
O112 Sn4 2.033522 1_555
O113 Si15 1.662640 1_545
O113 Zn8 1.988417 1_555
O114 S14 1.485819 1_545
O114 Zn9 2.294383 1_555
O115 S15 1.479950 1_545
O116 Si16 1.659704 1_555
O116 Zn9 2.014427 1_555
O117 Si17 1.653816 1_555
O117 Zn10 2.058325 1_555
O118 S17 1.499302 1_555
O118 Zn9 2.391326 1_555
O119 S16 1.476576 1_655
O120 Si12 1.630718 1_555
O120 Zn11 2.019086 1_555
O121 Si13 1.643318 1_555
O121 Zn12 2.038413 1_555
O122 S7 1.487510 1_455
O122 Zn11 2.355568 1_555
O123 Si11 1.636018 1_555
O123 Zn12 2.004066 1_555
O124 S8 1.483101 1_565
O124 Zn11 2.185909 1_555
O125 S9 1.481786 1_565
O125 Zn12 2.339237 1_555
O126 Si8 1.660203 1_565
O126 Zn13 2.011275 1_555
O127 Si9 1.640280 1_565
O127 Zn14 2.064076 1_555
O128 S6 1.490981 1_555
O128 Zn13 2.348111 1_555
O129 Si10 1.644387 1_555
O129 Zn14 2.022703 1_555
O130 S5 1.498931 1_455
O130 Zn13 2.236344 1_555
O131 S4 1.481089 1_555
O131 Zn14 2.312493 1_555
O132 Si0 1.687356 1_565
O132 Sn5 1.997351 1_555
O133 Si1 1.683660 1_555
O133 Sn6 1.988559 1_555
O134 Si2 1.684775 1_555
O134 Sn5 2.007938 1_555
O135 Si3 1.671735 1_555
O135 Sn6 2.033844 1_555
O136 S0 1.515670 1_455
O136 Sn5 2.265236 1_555
O137 S1 1.532041 1_555
O137 Sn6 2.249075 1_555
O138 Si4 1.676311 1_555
O138 Sn7 2.010027 1_555
O139 Si5 1.671253 1_555
O139 Sn8 1.972122 1_555
O140 S2 1.516725 1_555
O140 Sn7 2.189887 1_555
O141 S3 1.506132 1_555
O141 Sn8 2.242455 1_555
O142 Si6 1.709341 1_565
O142 Sn7 2.044782 1_555
O143 Si7 1.712659 1_565
O143 Sn8 2.038825 1_555
