# generated using pymatgen
data_Sr2MgCoWO6
_symmetry_space_group_name_H-M   'P 1'
_cell_length_a   6.17621496
_cell_length_b   6.78755829
_cell_length_c   6.29242129
_cell_angle_alpha   131.56745670
_cell_angle_beta   127.07570604
_cell_angle_gamma   72.05376205
_symmetry_Int_Tables_number   1
_chemical_formula_structural   Sr2MgCoWO6
_chemical_formula_sum   'Sr2 Mg1 Co1 W1 O6'
_cell_volume   155.58436216
_cell_formula_units_Z   1
loop_
 _symmetry_equiv_pos_site_id
 _symmetry_equiv_pos_as_xyz
  1  'x, y, z'
loop_
 _atom_site_type_symbol
 _atom_site_label
 _atom_site_symmetry_multiplicity
 _atom_site_fract_x
 _atom_site_fract_y
 _atom_site_fract_z
 _atom_site_occupancy
  Sr  Sr0  1  0.20121916  0.69198667  0.47921895  1
  Sr  Sr1  1  0.79875411  0.30797070  0.52074399  1
  Mg  Mg0  1  0.49999867  -0.00002193  0.49998354  1
  Co  Co0  1  0.00000222  -0.00002134  -0.00002149  1
  W  W0  1  0.50008214  0.50019021  0.00013197  1
  O  O0  1  0.65942552  0.83643799  0.17992781  1
  O  O1  1  0.17916436  0.70479805  0.04891420  1
  O  O2  1  0.82082630  0.29520602  0.95109976  1
  O  O3  1  0.34055173  0.16346493  0.82001444  1
  O  O4  1  0.30935683  0.28673377  0.45780738  1
  O  O5  1  0.69061894  0.71325494  0.54217946  1
loop_
_geom_bond_atom_site_label_1
_geom_bond_atom_site_label_2
_geom_bond_distance
_geom_bond_site_symmetry_2
Mg0 O1 2.028718 1_545
Mg0 O2 2.028862 1_555
Mg0 O5 2.034918 1_545
Mg0 O4 2.035085 1_555
Mg0 O0 2.237970 1_545
Mg0 O3 2.238028 1_555
Co0 O5 1.988032 1_444
Co0 O4 1.988072 1_555
Co0 O1 2.091675 1_545
Co0 O2 2.091805 1_454
O0 W0 2.018076 1_555
O0 Sr1 2.438659 1_565
O0 Sr0 2.921534 1_655
O0 Sr0 3.055974 1_554
O1 W0 2.103108 1_555
O1 Sr1 2.535022 1_454
O1 Sr0 2.686629 1_555
O2 W0 2.103355 1_556
O2 Sr0 2.534805 1_656
O2 Sr1 2.686671 1_555
O3 W0 2.020619 1_556
O3 Sr0 2.438381 1_545
O3 Sr1 2.921679 1_455
O3 Sr1 3.055927 1_556
O4 W0 2.185405 1_556
O4 Sr0 2.552455 1_555
O4 Sr1 2.839596 1_555
O5 W0 2.184798 1_555
O5 Sr1 2.552585 1_555
O5 Sr0 2.839591 1_555
