# generated using pymatgen
data_Na8Sc3TaSi5SO24
_symmetry_space_group_name_H-M   'P 1'
_cell_length_a   9.21338030
_cell_length_b   9.20483373
_cell_length_c   22.36712938
_cell_angle_alpha   89.93193774
_cell_angle_beta   90.09352718
_cell_angle_gamma   120.03775631
_symmetry_Int_Tables_number   1
_chemical_formula_structural   Na8Sc3TaSi5SO24
_chemical_formula_sum   'Na24 Sc9 Ta3 Si15 S3 O72'
_cell_volume   1642.13876132
_cell_formula_units_Z   3
loop_
 _symmetry_equiv_pos_site_id
 _symmetry_equiv_pos_as_xyz
  1  'x, y, z'
loop_
 _atom_site_type_symbol
 _atom_site_label
 _atom_site_symmetry_multiplicity
 _atom_site_fract_x
 _atom_site_fract_y
 _atom_site_fract_z
 _atom_site_occupancy
  Na  Na0  1  0.61748387  0.99852851  0.25131255  1
  Na  Na1  1  0.36696254  0.35599487  0.25638141  1
  Na  Na2  1  0.01166415  0.64334207  0.24712317  1
  Na  Na3  1  0.64079526  0.62247224  0.74502039  1
  Na  Na4  1  0.99990847  0.36332570  0.73416692  1
  Na  Na5  1  0.35200634  0.00805268  0.73894345  1
  Na  Na6  1  0.29583613  0.34217094  0.58102903  1
  Na  Na7  1  0.04251121  0.70394879  0.58161275  1
  Na  Na8  1  0.66428845  0.95679484  0.57640491  1
  Na  Na9  1  0.29872026  0.95499726  0.08223311  1
  Na  Na10  1  0.65888039  0.70519908  0.07787627  1
  Na  Na11  1  0.04348222  0.33805602  0.07847916  1
  Na  Na12  1  0.96976914  0.67809868  0.91450208  1
  Na  Na13  1  0.70295748  0.02225605  0.91981255  1
  Na  Na14  1  0.32043070  0.29451336  0.91351701  1
  Na  Na15  1  0.98049466  0.30471573  0.42277233  1
  Na  Na16  1  0.32747380  0.02162862  0.41764190  1
  Na  Na17  1  0.69463511  0.67848135  0.42249133  1
  Na  Na18  1  0.99873727  0.00087463  0.50179668  1
  Na  Na19  1  0.99766065  0.99893242  0.99891839  1
  Na  Na20  1  0.66572714  0.34453960  0.82991063  1
  Na  Na21  1  0.65256294  0.32071712  0.33737117  1
  Na  Na22  1  0.33182663  0.67693931  0.16041262  1
  Na  Na23  1  0.32867125  0.66260482  0.65570019  1
  Sc  Sc0  1  0.01312655  0.00308791  0.35630041  1
  Sc  Sc1  1  0.00923484  0.99693029  0.85293907  1
  Sc  Sc2  1  0.01672210  0.00489332  0.64392219  1
  Sc  Sc3  1  0.01193311  0.99598585  0.14038263  1
  Sc  Sc4  1  0.66629475  0.34126602  0.68275461  1
  Sc  Sc5  1  0.65739732  0.32516516  0.18133201  1
  Sc  Sc6  1  0.33222939  0.66537720  0.01944136  1
  Sc  Sc7  1  0.33400329  0.66875489  0.51692777  1
  Sc  Sc8  1  0.33122105  0.67550228  0.32156724  1
  Ta  Ta0  1  0.66530093  0.33268818  0.98043037  1
  Ta  Ta1  1  0.66719789  0.33506221  0.48234530  1
  Ta  Ta2  1  0.32331730  0.65781183  0.81748441  1
  Si  Si0  1  0.29887004  0.99773609  0.24939718  1
  Si  Si1  1  0.29593546  0.29908676  0.75137642  1
  Si  Si2  1  0.00332998  0.70406946  0.75099304  1
  Si  Si3  1  0.96037021  0.33199180  0.58557803  1
  Si  Si4  1  0.37627587  0.04010179  0.58587662  1
  Si  Si5  1  0.66754598  0.63170886  0.58502969  1
  Si  Si6  1  0.95736363  0.62270092  0.08579330  1
  Si  Si7  1  0.66808130  0.03880937  0.08418990  1
  Si  Si8  1  0.37332911  0.33491315  0.08406160  1
  Si  Si9  1  0.62679454  0.66582107  0.91911864  1
  Si  Si10  1  0.03287884  0.36810770  0.92023817  1
  Si  Si11  1  0.33716269  0.96121891  0.91866184  1
  Si  Si12  1  0.63216239  0.96803282  0.41676204  1
  Si  Si13  1  0.33797778  0.37561441  0.41585767  1
  Si  Si14  1  0.03302932  0.66280759  0.41663402  1
  S  S0  1  0.70554369  0.70737925  0.24916167  1
  S  S1  1  0.00174883  0.29402377  0.24884654  1
  S  S2  1  0.69972320  0.99127998  0.75191982  1
  O  O0  1  0.20236626  0.01649217  0.30747875  1
  O  O1  1  0.80165346  0.79714279  0.30289247  1
  O  O2  1  0.98629716  0.19496093  0.30294515  1
  O  O3  1  0.20193650  0.19052157  0.81059378  1
  O  O4  1  0.97778968  0.79059563  0.81027332  1
  O  O5  1  0.79764439  0.00640616  0.80634968  1
  O  O6  1  0.77949470  0.97265619  0.69793195  1
  O  O7  1  0.17733358  0.21883432  0.69252241  1
  O  O8  1  0.03805790  0.82422851  0.69279784  1
  O  O9  1  0.78849209  0.80448322  0.19454780  1
  O  O10  1  0.00803820  0.20570916  0.19462815  1
  O  O11  1  0.18504176  0.97809147  0.18975228  1
  O  O12  1  0.87068941  0.35206254  0.64498599  1
  O  O13  1  0.48313788  0.12638274  0.64617553  1
  O  O14  1  0.64461962  0.52193675  0.64499499  1
  O  O15  1  0.87039452  0.51510651  0.14576343  1
  O  O16  1  0.64310599  0.12650911  0.14326547  1
  O  O17  1  0.48322802  0.35739706  0.14363029  1
  O  O18  1  0.47738202  0.31524982  0.02522146  1
  O  O19  1  0.83474403  0.51796430  0.02655798  1
  O  O20  1  0.68487960  0.16132414  0.02483637  1
  O  O21  1  0.48136790  0.16195025  0.52749215  1
  O  O22  1  0.68352789  0.52478221  0.52682558  1
  O  O23  1  0.83918989  0.31883576  0.52707593  1
  O  O24  1  0.54295210  0.69392430  0.97762333  1
  O  O25  1  0.14908042  0.45019274  0.97774850  1
  O  O26  1  0.30692352  0.84808924  0.97699095  1
  O  O27  1  0.54883984  0.84766177  0.47439425  1
  O  O28  1  0.30571362  0.46173906  0.47339865  1
  O  O29  1  0.15437183  0.70012408  0.47382592  1
  O  O30  1  0.11315747  0.62714524  0.35663907  1
  O  O31  1  0.51191690  0.88661150  0.35755854  1
  O  O32  1  0.37047106  0.48895716  0.35527999  1
  O  O33  1  0.13743266  0.49719161  0.86193108  1
  O  O34  1  0.36248671  0.86161047  0.86015376  1
  O  O35  1  0.50086448  0.64120730  0.86073795  1
  O  O36  1  -0.00113301  0.82045379  0.41032448  1
  O  O37  1  0.82125165  0.99928875  0.40811120  1
  O  O38  1  0.17535307  0.18534428  0.41171772  1
  O  O39  1  -0.00130620  0.18001612  0.91020376  1
  O  O40  1  0.17731512  0.98989417  0.91214440  1
  O  O41  1  0.81363771  0.82624469  0.91167825  1
  O  O42  1  0.96610323  0.15778608  0.58511778  1
  O  O43  1  0.19613939  0.03510690  0.58400283  1
  O  O44  1  0.84028699  0.81266534  0.58578212  1
  O  O45  1  0.96292685  0.80351815  0.08363290  1
  O  O46  1  0.84100139  0.03129081  0.08512793  1
  O  O47  1  0.19145273  0.16169045  0.08301464  1
  O  O48  1  0.67798119  0.14076171  0.74996609  1
  O  O49  1  0.48291213  0.31935688  0.74927470  1
  O  O50  1  0.84425402  0.51213004  0.74828698  1
  O  O51  1  0.69376287  0.53916962  0.24939949  1
  O  O52  1  0.85311833  0.31839381  0.24865281  1
  O  O53  1  0.48788312  0.16901635  0.24964671  1
  O  O54  1  0.63555261  0.48938534  0.92112318  1
  O  O55  1  0.85304060  0.36771205  0.92111675  1
  O  O56  1  0.51208728  0.14719896  0.92076722  1
  O  O57  1  0.64637386  0.15476879  0.42409355  1
  O  O58  1  0.50685010  0.35494642  0.42343464  1
  O  O59  1  0.84577314  0.49186817  0.42364651  1
  O  O60  1  0.35259439  0.49885744  0.08032859  1
  O  O61  1  0.14273001  0.64499354  0.08038114  1
  O  O62  1  0.50184819  0.85450781  0.07990863  1
  O  O63  1  0.35406948  0.85475402  0.57997623  1
  O  O64  1  0.50114308  0.64844936  0.57964083  1
  O  O65  1  0.14469858  0.49811131  0.57960173  1
  O  O66  1  0.31504024  0.82605995  0.25138673  1
  O  O67  1  0.53322347  0.68410632  0.25029158  1
  O  O68  1  0.15861682  0.46140890  0.25011379  1
  O  O69  1  0.31984809  0.49349725  0.75810064  1
  O  O70  1  0.18052208  0.69202020  0.75809770  1
  O  O71  1  0.52883687  0.83603494  0.75533147  1
loop_
_geom_bond_atom_site_label_1
_geom_bond_atom_site_label_2
_geom_bond_distance
_geom_bond_site_symmetry_2
Na0 O53 2.401170 1_565
Na0 O66 2.419972 1_555
Na0 O31 2.579387 1_555
Na0 O67 2.594285 1_555
Na0 O52 2.643167 1_565
Na0 O16 2.645873 1_565
Na1 O53 2.479295 1_555
Na1 O32 2.521675 1_555
Na1 O68 2.551359 1_555
Na1 O51 2.617524 1_555
Na1 O67 2.618150 1_555
Na1 O17 2.739089 1_555
Na1 O0 2.936773 1_555
Na2 O66 2.437950 1_555
Na2 O15 2.585706 1_455
Na2 O51 2.586390 1_455
Na2 O52 2.589846 1_455
Na2 O68 2.628975 1_555
Na2 O30 2.651072 1_555
Na2 O11 2.960139 1_555
Na3 O49 2.417933 1_555
Na3 O14 2.429172 1_555
Na3 O50 2.540934 1_555
Na3 O69 2.593526 1_555
Na3 O71 2.648311 1_555
Na4 O12 2.297003 1_555
Na4 O50 2.449816 1_555
Na4 O69 2.621396 1_655
Na4 O48 2.652855 1_555
Na4 O70 2.677719 1_655
Na4 O7 2.737396 1_655
Na5 O13 2.374202 1_555
Na5 O49 2.501965 1_555
Na5 O70 2.557364 1_545
Na5 O48 2.626470 1_555
Na5 O8 2.718381 1_545
Na5 O71 2.806262 1_545
Na6 O65 2.449743 1_555
Na6 O64 2.487616 1_555
Na6 O43 2.497529 1_555
Na6 O28 2.628545 1_555
Na6 O42 2.637550 1_455
Na6 O7 2.731508 1_555
Na7 O63 2.485776 1_555
Na7 O65 2.502905 1_555
Na7 O44 2.519713 1_455
Na7 O29 2.630665 1_555
Na7 O43 2.641739 1_565
Na7 O8 2.732116 1_555
Na8 O42 2.458029 1_565
Na8 O64 2.459496 1_555
Na8 O27 2.504875 1_555
Na8 O63 2.524011 1_555
Na8 O44 2.566214 1_555
Na8 O6 2.893616 1_555
Na9 O62 2.468667 1_555
Na9 O61 2.470672 1_555
Na9 O47 2.545471 1_565
Na9 O26 2.568230 1_554
Na9 O11 2.675447 1_555
Na9 O45 2.682947 1_455
Na10 O62 2.444425 1_555
Na10 O24 2.462026 1_554
Na10 O45 2.478686 1_555
Na10 O60 2.491611 1_555
Na10 O46 2.609502 1_565
Na10 O9 2.823860 1_555
Na11 O60 2.466375 1_555
Na11 O25 2.466679 1_554
Na11 O46 2.490359 1_455
Na11 O61 2.496807 1_555
Na11 O47 2.592157 1_555
Na11 O10 2.817248 1_555
Na12 O41 2.428208 1_555
Na12 O55 2.502925 1_555
Na12 O40 2.530214 1_655
Na12 O4 2.535927 1_555
Na12 O54 2.677142 1_555
Na12 O19 2.857937 1_556
Na13 O39 2.370449 1_655
Na13 O41 2.484280 1_545
Na13 O56 2.537842 1_555
Na13 O5 2.712655 1_555
Na13 O20 2.721480 1_556
Na13 O55 2.760886 1_555
Na13 O24 2.918163 1_545
Na13 O34 3.025630 1_545
Na14 O40 2.429081 1_545
Na14 O3 2.521630 1_555
Na14 O54 2.541883 1_555
Na14 O39 2.602883 1_555
Na14 O56 2.716400 1_555
Na14 O18 2.843070 1_556
Na14 O25 2.981116 1_555
Na14 O35 3.004594 1_555
Na15 O37 2.456669 1_545
Na15 O38 2.543349 1_655
Na15 O59 2.578696 1_555
Na15 O57 2.669985 1_555
Na15 O23 2.708251 1_555
Na15 O28 2.829588 1_655
Na15 O2 2.875396 1_555
Na15 O30 2.975608 1_655
Na16 O38 2.523151 1_555
Na16 O57 2.559218 1_555
Na16 O36 2.647340 1_545
Na16 O58 2.661842 1_555
Na16 O0 2.709017 1_555
Na16 O21 2.806854 1_555
Na16 O29 2.855404 1_545
Na16 O31 2.892091 1_545
Na17 O36 2.443995 1_655
Na17 O58 2.589286 1_555
Na17 O37 2.595112 1_555
Na17 O59 2.699036 1_555
Na17 O22 2.702963 1_555
Na17 O27 2.771431 1_555
Na17 O1 2.871371 1_555
Na17 O32 2.999794 1_555
Na18 O42 2.468345 1_555
Na18 O44 2.475997 1_545
Na18 O43 2.490923 1_655
Na18 O38 2.612841 1_655
Na18 O36 2.637069 1_645
Na18 O37 2.651459 1_545
Na19 O47 2.507648 1_666
Na19 O46 2.516157 1_566
Na19 O45 2.519101 1_556
Na19 O41 2.550958 1_555
Na19 O40 2.581175 1_655
Na19 O39 2.586928 1_665
Na20 O49 2.396642 1_555
Na20 O50 2.425116 1_555
Na20 O54 2.529149 1_555
Na20 O55 2.608934 1_555
Na20 O56 2.619084 1_555
Na20 O48 2.636134 1_555
Na21 O53 2.444926 1_555
Na21 O57 2.450564 1_555
Na21 O58 2.457753 1_555
Na21 O59 2.561836 1_555
Na21 O51 2.699648 1_555
Na21 O52 2.721061 1_555
Na22 O61 2.409219 1_555
Na22 O62 2.409693 1_555
Na22 O60 2.500862 1_555
Na22 O66 2.503750 1_555
Na22 O68 2.709150 1_555
Na22 O67 2.711905 1_555
Na23 O65 2.343101 1_555
Na23 O63 2.373099 1_555
Na23 O64 2.377577 1_555
Na23 O69 2.746095 1_555
Na23 O70 2.750226 1_555
Na23 O71 2.821918 1_555
O0 Si0 1.632802 1_545
O0 Sc0 2.009512 1_555
O1 S0 1.475649 1_555
O1 Sc0 2.262056 1_665
O2 S1 1.477803 1_655
O2 Sc0 2.244045 1_655
O3 Si1 1.623945 1_555
O3 Sc1 2.014639 1_545
O4 Si2 1.624490 1_655
O4 Sc1 2.013559 1_655
O5 S2 1.478696 1_545
O5 Sc1 2.248847 1_645
O6 S2 1.468766 1_555
O6 Sc2 2.383908 1_665
O7 Si1 1.631601 1_555
O7 Sc2 2.081325 1_555
O8 Si2 1.632075 1_555
O8 Sc2 2.078830 1_565
O9 S0 1.480459 1_555
O9 Sc3 2.276651 1_655
O10 S1 1.478038 1_555
O10 Sc3 2.296779 1_545
O11 Si0 1.648785 1_555
O11 Sc3 2.011740 1_555
O12 Si3 1.624656 1_555
O12 Sc4 2.021748 1_555
O13 Si4 1.623121 1_555
O13 Sc4 2.021659 1_555
O14 Si5 1.627446 1_555
O14 Sc4 1.961506 1_555
O15 Si6 1.621121 1_555
O15 Sc5 2.026741 1_555
O16 Si7 1.624834 1_555
O16 Sc5 1.961717 1_555
O17 Si8 1.621655 1_555
O17 Sc5 1.961069 1_555
O18 Si8 1.691835 1_555
O18 Ta0 1.937563 1_554
O19 Si6 1.693793 1_555
O19 Ta0 1.934845 1_554
O20 Si7 1.697215 1_555
O20 Ta0 1.946209 1_554
O21 Si4 1.677578 1_555
O21 Ta1 1.939254 1_555
O22 Si5 1.683453 1_555
O22 Ta1 1.950066 1_555
O23 Si3 1.683353 1_555
O23 Ta1 1.940559 1_555
O24 Si9 1.606293 1_555
O24 Sc6 2.051299 1_556
O25 Si10 1.599918 1_555
O25 Sc6 2.072066 1_556
O26 Si11 1.603633 1_555
O26 Sc6 2.042674 1_556
O27 Si12 1.620791 1_555
O27 Sc7 2.067370 1_555
O28 Si13 1.616439 1_555
O28 Sc7 2.037971 1_555
O29 Si14 1.617460 1_555
O29 Sc7 2.055340 1_555
O30 Si14 1.643292 1_555
O30 Sc8 1.989724 1_555
O31 Si12 1.645880 1_555
O31 Sc8 1.989055 1_555
O32 Si13 1.642943 1_555
O32 Sc8 2.065323 1_555
O33 Si10 1.701504 1_555
O33 Ta2 1.890611 1_555
O34 Si11 1.680984 1_555
O34 Ta2 1.971189 1_555
O35 Si9 1.683809 1_555
O35 Ta2 1.969770 1_555
O36 Si14 1.637474 1_555
O36 Sc0 2.019439 1_565
O37 Si12 1.629256 1_555
O37 Sc0 2.100964 1_665
O38 Si13 1.641260 1_555
O38 Sc0 2.018274 1_555
O39 Si10 1.613046 1_555
O39 Sc1 2.158598 1_545
O40 Si11 1.627346 1_555
O40 Sc1 2.061426 1_555
O41 Si9 1.620831 1_555
O41 Sc1 2.147194 1_655
O42 Si3 1.630661 1_555
O42 Sc2 2.139817 1_655
O43 Si4 1.637603 1_555
O43 Sc2 2.037690 1_555
O44 Si5 1.629019 1_555
O44 Sc2 2.140889 1_665
O45 Si6 1.639992 1_555
O45 Sc3 2.038722 1_655
O46 Si7 1.629024 1_555
O46 Sc3 2.149018 1_645
O47 Si8 1.635827 1_555
O47 Sc3 2.045788 1_545
O48 S2 1.486963 1_545
O48 Sc4 2.422743 1_555
O49 Si1 1.638025 1_555
O49 Sc4 2.185277 1_555
O50 Si2 1.637311 1_655
O50 Sc4 2.174022 1_555
O51 S0 1.496965 1_555
O51 Sc5 2.378087 1_555
O52 S1 1.494349 1_655
O52 Sc5 2.372002 1_555
O53 Si0 1.664224 1_545
O53 Sc5 2.143621 1_555
O54 Si9 1.666466 1_555
O54 Ta0 2.074919 1_555
O55 Si10 1.655247 1_655
O55 Ta0 2.074638 1_555
O56 Si11 1.663752 1_545
O56 Ta0 2.067622 1_555
O57 Si12 1.665486 1_545
O57 Ta1 2.043074 1_555
O58 Si13 1.667661 1_555
O58 Ta1 2.053305 1_555
O59 Si14 1.661171 1_655
O59 Ta1 2.034485 1_555
O60 Si8 1.615257 1_555
O60 Sc6 2.126375 1_555
O61 Si6 1.619655 1_455
O61 Sc6 2.149553 1_555
O62 Si7 1.622207 1_565
O62 Sc6 2.139431 1_555
O63 Si4 1.618959 1_565
O63 Sc7 2.154561 1_555
O64 Si5 1.620074 1_555
O64 Sc7 2.157400 1_555
O65 Si3 1.625004 1_455
O65 Sc7 2.175874 1_555
O66 Si0 1.660384 1_555
O66 Sc8 2.146581 1_555
O67 S0 1.492242 1_555
O67 Sc8 2.423521 1_555
O68 S1 1.494715 1_555
O68 Sc8 2.414236 1_555
O69 Si1 1.696865 1_555
O69 Ta2 2.002277 1_555
O70 Si2 1.697975 1_555
O70 Ta2 2.000618 1_555
O71 S2 1.508119 1_555
O71 Ta2 2.258898 1_555
