# generated using pymatgen
data_Na6Ca3HfP4(SO12)2
_symmetry_space_group_name_H-M   'P 1'
_cell_length_a   9.28405950
_cell_length_b   9.29899517
_cell_length_c   23.25791875
_cell_angle_alpha   90.09506777
_cell_angle_beta   90.00695938
_cell_angle_gamma   119.85429673
_symmetry_Int_Tables_number   1
_chemical_formula_structural   Na6Ca3HfP4(SO12)2
_chemical_formula_sum   'Na18 Ca9 Hf3 P12 S6 O72'
_cell_volume   1741.44724682
_cell_formula_units_Z   3
loop_
 _symmetry_equiv_pos_site_id
 _symmetry_equiv_pos_as_xyz
  1  'x, y, z'
loop_
 _atom_site_type_symbol
 _atom_site_label
 _atom_site_symmetry_multiplicity
 _atom_site_fract_x
 _atom_site_fract_y
 _atom_site_fract_z
 _atom_site_occupancy
  Na  Na0  1  0.36468404  0.36531566  0.25358503  1
  Na  Na1  1  0.64030598  0.64293318  0.74584243  1
  Na  Na2  1  0.99248151  0.34188445  0.74971561  1
  Na  Na3  1  0.29683434  0.34686526  0.58253378  1
  Na  Na4  1  0.02561995  0.68837484  0.57756116  1
  Na  Na5  1  0.67389865  0.95812226  0.58002478  1
  Na  Na6  1  0.28800755  0.96023311  0.07732893  1
  Na  Na7  1  0.65952350  0.68609102  0.07969005  1
  Na  Na8  1  0.04881499  0.34745623  0.08007934  1
  Na  Na9  1  0.31697767  0.29541693  0.91094893  1
  Na  Na10  1  0.98487962  0.30608680  0.41392995  1
  Na  Na11  1  0.68870572  0.67681412  0.41417630  1
  Na  Na12  1  0.00332513  0.99934417  0.49242800  1
  Na  Na13  1  0.99470767  0.98441834  0.98976242  1
  Na  Na14  1  0.65216129  0.30326212  0.83013527  1
  Na  Na15  1  0.66454895  0.31624591  0.33150250  1
  Na  Na16  1  0.32210821  0.66930623  0.17197000  1
  Na  Na17  1  0.33963070  0.66629023  0.66717176  1
  Ca  Ca0  1  0.00412882  0.99418810  0.35006668  1
  Ca  Ca1  1  0.99762857  0.99790893  0.85064266  1
  Ca  Ca2  1  0.99564104  0.00599265  0.65514368  1
  Ca  Ca3  1  0.99889120  0.99368167  0.14940313  1
  Ca  Ca4  1  0.65836317  0.32689224  0.68530784  1
  Ca  Ca5  1  0.67486775  0.33855620  0.18390112  1
  Ca  Ca6  1  0.33249826  0.66933373  0.01218212  1
  Ca  Ca7  1  0.33346782  0.66868530  0.50988731  1
  Ca  Ca8  1  0.33350839  0.67941330  0.32412502  1
  Hf  Hf0  1  0.67109846  0.34104759  0.97670015  1
  Hf  Hf1  1  0.66698628  0.33388117  0.48242249  1
  Hf  Hf2  1  0.33715036  0.67415943  0.82397713  1
  P  P0  1  0.30579045  0.31940677  0.75412607  1
  P  P1  1  0.68746772  0.98940581  0.75129924  1
  P  P2  1  0.96150978  0.33428683  0.58342277  1
  P  P3  1  0.66776063  0.62895535  0.58324821  1
  P  P4  1  0.95809927  0.62441005  0.08023136  1
  P  P5  1  0.37537225  0.33283282  0.08151365  1
  P  P6  1  0.63009641  0.66039090  0.91941078  1
  P  P7  1  0.03185036  0.37272678  0.91833904  1
  P  P8  1  0.34266466  0.97413728  0.92089768  1
  P  P9  1  0.64292309  0.97995813  0.42124575  1
  P  P10  1  0.34017825  0.36203811  0.41846925  1
  P  P11  1  0.01845714  0.65867039  0.42221185  1
  S  S0  1  0.30526369  0.00126238  0.24698943  1
  S  S1  1  0.68842190  0.69300944  0.24974127  1
  S  S2  1  0.00533903  0.30431042  0.25007128  1
  S  S3  1  0.01090551  0.69735289  0.75049004  1
  S  S4  1  0.37215624  0.03921321  0.58139799  1
  S  S5  1  0.66759262  0.04510968  0.08047772  1
  O  O0  1  0.21307169  0.01605511  0.29634995  1
  O  O1  1  0.78417411  0.78008204  0.30149342  1
  O  O2  1  0.99527802  0.20754332  0.30193889  1
  O  O3  1  0.22050536  0.21163853  0.80627454  1
  O  O4  1  0.98594148  0.78412885  0.79864831  1
  O  O5  1  0.81022907  0.01379386  0.79877977  1
  O  O6  1  0.74332293  0.94578962  0.69352956  1
  O  O7  1  0.20348308  0.24753207  0.69777065  1
  O  O8  1  0.03558571  0.78766690  0.69566289  1
  O  O9  1  0.77238720  0.78429307  0.19642170  1
  O  O10  1  0.01584323  0.21863836  0.19697282  1
  O  O11  1  0.21545164  0.98819838  0.19227107  1
  O  O12  1  0.88153437  0.34891132  0.63913511  1
  O  O13  1  0.46674578  0.11394668  0.63375907  1
  O  O14  1  0.64883566  0.53214048  0.63867752  1
  O  O15  1  0.88085742  0.52155950  0.13402848  1
  O  O16  1  0.64686061  0.11890389  0.13331680  1
  O  O17  1  0.47085801  0.34850218  0.13708696  1
  O  O18  1  0.47870898  0.32216812  0.02860324  1
  O  O19  1  0.84632481  0.52174204  0.02722088  1
  O  O20  1  0.68252062  0.15069209  0.02962848  1
  O  O21  1  0.46369765  0.14416447  0.53064407  1
  O  O22  1  0.67230377  0.52253974  0.53085179  1
  O  O23  1  0.84774677  0.32443034  0.53130636  1
  O  O24  1  0.55687398  0.67885701  0.97573789  1
  O  O25  1  0.12919380  0.44609058  0.97377205  1
  O  O26  1  0.32290022  0.88721269  0.97789233  1
  O  O27  1  0.57083805  0.87878493  0.47679326  1
  O  O28  1  0.31502087  0.44397757  0.47226900  1
  O  O29  1  0.11410106  0.68495518  0.47841071  1
  O  O30  1  0.09915989  0.62038493  0.37123254  1
  O  O31  1  0.53274850  0.89931899  0.36896200  1
  O  O32  1  0.38069124  0.47349285  0.36455892  1
  O  O33  1  0.12838885  0.49118350  0.86592459  1
  O  O34  1  0.35833555  0.86980037  0.87017806  1
  O  O35  1  0.50668827  0.63758785  0.86793346  1
  O  O36  1  0.97873205  0.79947492  0.41407630  1
  O  O37  1  0.82074372  0.00570728  0.41424132  1
  O  O38  1  0.18358945  0.19100838  0.41224321  1
  O  O39  1  0.01776927  0.20286147  0.90960888  1
  O  O40  1  0.19870276  0.00823928  0.91137523  1
  O  O41  1  0.80438868  0.80160364  0.91013814  1
  O  O42  1  0.97380558  0.17300922  0.58107625  1
  O  O43  1  0.20615726  0.02955763  0.58260696  1
  O  O44  1  0.83348541  0.79765414  0.58133253  1
  O  O45  1  0.95982793  0.79306982  0.07995042  1
  O  O46  1  0.82346531  0.03426145  0.08199859  1
  O  O47  1  0.20180900  0.17198770  0.07970904  1
  O  O48  1  0.67486972  0.14861946  0.74791628  1
  O  O49  1  0.48837054  0.35881167  0.75018572  1
  O  O50  1  0.86198471  0.52669714  0.74757209  1
  O  O51  1  0.66809853  0.52255238  0.24981774  1
  O  O52  1  0.85780707  0.32553386  0.24904328  1
  O  O53  1  0.46950307  0.15842029  0.24725502  1
  O  O54  1  0.62563003  0.48638395  0.92062273  1
  O  O55  1  0.85617215  0.35877433  0.92160611  1
  O  O56  1  0.50803301  0.14901362  0.92159215  1
  O  O57  1  0.66652772  0.15955844  0.42825252  1
  O  O58  1  0.49943245  0.34505578  0.42802667  1
  O  O59  1  0.84078599  0.49438013  0.42760836  1
  O  O60  1  0.35617880  0.48903971  0.07753043  1
  O  O61  1  0.13710291  0.65399384  0.07637745  1
  O  O62  1  0.52186415  0.87611306  0.07581428  1
  O  O63  1  0.35117114  0.87114569  0.57599444  1
  O  O64  1  0.51459184  0.65346236  0.57838376  1
  O  O65  1  0.13617225  0.49047674  0.57834377  1
  O  O66  1  0.32554330  0.85380198  0.25106796  1
  O  O67  1  0.51775762  0.67190536  0.25075950  1
  O  O68  1  0.16332762  0.46827159  0.25162601  1
  O  O69  1  0.31394534  0.49505773  0.76215917  1
  O  O70  1  0.15972954  0.67558843  0.75979152  1
  O  O71  1  0.51242226  0.83122068  0.76452907  1
loop_
_geom_bond_atom_site_label_1
_geom_bond_atom_site_label_2
_geom_bond_distance
_geom_bond_site_symmetry_2
Na0 O51 2.445500 1_555
Na0 O67 2.473639 1_555
Na0 O68 2.489040 1_555
Na0 O53 2.556022 1_555
Na0 O32 2.745565 1_555
Na0 O17 2.913792 1_555
Na1 O49 2.295838 1_555
Na1 O71 2.594484 1_555
Na1 O69 2.658837 1_555
Na1 O14 2.711583 1_555
Na1 O50 2.760517 1_555
Na1 O6 2.767019 1_555
Na2 O50 2.548925 1_555
Na2 O48 2.578813 1_555
Na2 O69 2.604978 1_655
Na2 O70 2.701043 1_655
Na2 O12 2.783290 1_555
Na2 O7 2.788387 1_655
Na2 O5 2.888903 1_555
Na2 O33 3.011184 1_655
Na3 O65 2.449759 1_555
Na3 O64 2.547042 1_555
Na3 O42 2.604156 1_455
Na3 O43 2.634762 1_555
Na3 O28 2.697555 1_555
Na3 O7 2.828325 1_555
Na4 O29 2.453533 1_555
Na4 O44 2.454923 1_455
Na4 O65 2.514136 1_555
Na4 O63 2.628883 1_555
Na4 O43 2.755595 1_565
Na4 O8 2.883133 1_555
Na5 O64 2.458253 1_555
Na5 O42 2.491328 1_565
Na5 O27 2.552475 1_555
Na5 O44 2.573711 1_555
Na5 O63 2.688366 1_555
Na5 O6 2.733451 1_555
Na6 O47 2.467671 1_565
Na6 O61 2.469919 1_555
Na6 O26 2.475580 1_554
Na6 O45 2.643546 1_455
Na6 O62 2.649103 1_555
Na6 O11 2.800094 1_555
Na7 O45 2.449799 1_555
Na7 O60 2.480614 1_555
Na7 O24 2.587111 1_554
Na7 O62 2.648150 1_555
Na7 O46 2.809819 1_565
Na7 O9 2.888107 1_555
Na8 O60 2.477847 1_555
Na8 O61 2.545436 1_555
Na8 O46 2.606778 1_455
Na8 O25 2.614930 1_554
Na8 O47 2.643369 1_555
Na8 O10 2.926752 1_555
Na9 O40 2.327636 1_555
Na9 O39 2.465335 1_555
Na9 O54 2.519475 1_555
Na9 O3 2.575741 1_555
Na9 O56 2.732423 1_555
Na10 O37 2.426245 1_555
Na10 O38 2.552538 1_655
Na10 O57 2.587549 1_555
Na10 O59 2.699430 1_555
Na10 O30 2.752531 1_655
Na10 O2 2.777336 1_555
Na11 O36 2.343826 1_555
Na11 O37 2.669040 1_565
Na11 O58 2.704664 1_555
Na11 O59 2.712089 1_555
Na11 O32 2.773624 1_555
Na11 O1 2.781673 1_555
Na12 O37 2.506614 1_465
Na12 O36 2.528518 1_455
Na12 O38 2.549024 1_565
Na12 O44 2.710861 1_455
Na12 O42 2.713610 1_465
Na12 O43 2.737582 1_565
Na13 O41 2.537670 1_555
Na13 O40 2.558167 1_665
Na13 O45 2.666402 1_556
Na13 O39 2.688299 1_665
Na13 O47 2.786319 1_666
Na13 O46 2.841741 1_566
Na14 O48 2.462079 1_555
Na14 O56 2.544089 1_555
Na14 O49 2.611764 1_555
Na14 O55 2.720621 1_555
Na14 O50 2.789909 1_555
Na14 O54 2.792011 1_555
Na15 O53 2.572162 1_555
Na15 O52 2.598434 1_555
Na15 O57 2.687793 1_555
Na15 O51 2.690722 1_555
Na15 O59 2.775916 1_555
Na15 O58 2.805215 1_555
Na16 O66 2.502749 1_555
Na16 O68 2.523603 1_555
Na16 O67 2.571631 1_555
Na16 O61 2.769106 1_555
Na16 O60 2.872342 1_555
Na16 O62 2.933185 1_555
Na17 O69 2.665826 1_555
Na17 O64 2.666453 1_555
Na17 O65 2.724395 1_555
Na17 O70 2.753444 1_555
Na17 O71 2.755167 1_555
Na17 O63 2.819130 1_555
Ca0 O0 2.230222 1_565
Ca0 O36 2.265902 1_455
Ca0 O38 2.274113 1_565
Ca0 O37 2.306425 1_465
Ca0 O1 2.313972 1_455
Ca0 O2 2.316370 1_465
Ca1 O5 2.181683 1_565
Ca1 O39 2.276956 1_665
Ca1 O4 2.281070 1_555
Ca1 O3 2.282421 1_665
Ca1 O41 2.283436 1_555
Ca1 O40 2.304274 1_665
Ca2 O6 2.300970 1_545
Ca2 O7 2.329884 1_655
Ca2 O42 2.396448 1_555
Ca2 O8 2.429657 1_645
Ca2 O44 2.459946 1_545
Ca2 O43 2.507919 1_655
Ca3 O11 2.267321 1_655
Ca3 O10 2.299838 1_665
Ca3 O9 2.310913 1_555
Ca3 O45 2.353113 1_555
Ca3 O47 2.413609 1_665
Ca3 O46 2.421942 1_565
Ca4 O14 2.236449 1_555
Ca4 O13 2.237795 1_555
Ca4 O12 2.250991 1_555
Ca4 O48 2.269995 1_555
Ca4 O49 2.306775 1_555
Ca4 O50 2.369903 1_555
Ca5 O15 2.160028 1_555
Ca5 O17 2.226131 1_555
Ca5 O16 2.255418 1_555
Ca5 O51 2.319508 1_555
Ca5 O52 2.323678 1_555
Ca5 O53 2.332691 1_555
Ca6 O25 2.182335 1_554
Ca6 O24 2.209681 1_554
Ca6 O26 2.221250 1_554
Ca6 O61 2.298718 1_555
Ca6 O60 2.354676 1_555
Ca6 O62 2.367011 1_555
Ca7 O28 2.190589 1_555
Ca7 O27 2.232679 1_555
Ca7 O29 2.239063 1_555
Ca7 O63 2.370169 1_555
Ca7 O64 2.371226 1_555
Ca7 O65 2.371433 1_555
Ca8 O31 2.217486 1_555
Ca8 O30 2.246990 1_555
Ca8 O32 2.363026 1_555
Ca8 O66 2.377144 1_555
Ca8 O67 2.441666 1_555
Ca8 O68 2.468678 1_555
Hf0 O19 2.030278 1_556
Hf0 O54 2.068685 1_555
Hf0 O55 2.083427 1_555
Hf0 O18 2.089841 1_556
Hf0 O56 2.103308 1_555
Hf0 O20 2.203180 1_556
Hf1 O59 2.016328 1_555
Hf1 O58 2.047457 1_555
Hf1 O57 2.049730 1_555
Hf1 O22 2.063015 1_555
Hf1 O23 2.064795 1_555
Hf1 O21 2.150435 1_555
Hf2 O34 2.034762 1_555
Hf2 O35 2.042543 1_555
Hf2 O33 2.079924 1_555
Hf2 O71 2.081779 1_555
Hf2 O69 2.126521 1_555
Hf2 O70 2.227819 1_555
O0 S0 1.478650 1_555
O1 S1 1.474625 1_555
O2 S2 1.481087 1_655
O3 P0 1.522016 1_555
O4 S3 1.463778 1_655
O5 P1 1.520331 1_545
O6 P1 1.564107 1_555
O7 P0 1.559359 1_555
O8 S3 1.481858 1_555
O9 S1 1.486947 1_555
O10 S2 1.497806 1_555
O11 S0 1.492647 1_565
O12 P2 1.532628 1_555
O13 S4 1.458266 1_555
O14 P3 1.532893 1_555
O15 P4 1.521792 1_555
O16 S5 1.465248 1_555
O17 P5 1.532386 1_555
O18 P5 1.593487 1_555
O19 P4 1.586770 1_555
O20 S5 1.500079 1_555
O21 S4 1.498820 1_555
O22 P3 1.582287 1_555
O23 P2 1.579904 1_555
O24 P6 1.524316 1_555
O25 P7 1.525554 1_555
O26 P8 1.516621 1_555
O27 P9 1.542547 1_555
O28 P10 1.541068 1_555
O29 P11 1.529453 1_555
O30 P11 1.535684 1_555
O31 P9 1.523246 1_555
O32 P10 1.550507 1_555
O33 P7 1.588885 1_555
O34 P8 1.578234 1_555
O35 P6 1.596254 1_555
O36 P11 1.538756 1_655
O37 P9 1.554341 1_545
O38 P10 1.536590 1_555
O39 P7 1.531901 1_555
O40 P8 1.535615 1_545
O41 P6 1.508233 1_555
O42 P2 1.560559 1_555
O43 S4 1.498744 1_555
O44 P3 1.558020 1_555
O45 P4 1.560464 1_555
O46 S5 1.500319 1_555
O47 P5 1.560662 1_555
O48 P1 1.544220 1_545
O49 P0 1.548464 1_555
O50 S3 1.499906 1_655
O51 S1 1.500110 1_555
O52 S2 1.478080 1_655
O53 S0 1.497404 1_555
O54 P6 1.598149 1_555
O55 P7 1.572315 1_655
O56 P8 1.586216 1_545
O57 P9 1.580673 1_545
O58 P10 1.578886 1_555
O59 P11 1.600746 1_655
O60 P5 1.551910 1_555
O61 P4 1.546128 1_455
O62 S5 1.481371 1_565
O63 S4 1.480702 1_565
O64 P3 1.552283 1_555
O65 P2 1.552019 1_455
O66 S0 1.477223 1_565
O67 S1 1.496673 1_555
O68 S2 1.500225 1_555
O69 P0 1.607615 1_555
O70 S3 1.508413 1_555
O71 P1 1.587802 1_555
