# generated using pymatgen
data_Mn3SiIr
_symmetry_space_group_name_H-M   'P 1'
_cell_length_a   6.37611700
_cell_length_b   6.37611700
_cell_length_c   6.37611700
_cell_angle_alpha   90.00000000
_cell_angle_beta   90.00000000
_cell_angle_gamma   90.00000000
_symmetry_Int_Tables_number   1
_chemical_formula_structural   Mn3SiIr
_chemical_formula_sum   'Mn12 Si4 Ir4'
_cell_volume   259.22019497
_cell_formula_units_Z   4
loop_
 _symmetry_equiv_pos_site_id
 _symmetry_equiv_pos_as_xyz
  1  'x, y, z'
loop_
 _atom_site_type_symbol
 _atom_site_label
 _atom_site_symmetry_multiplicity
 _atom_site_fract_x
 _atom_site_fract_y
 _atom_site_fract_z
 _atom_site_occupancy
  Mn  Mn0  1  0.54762800  0.62993400  0.28846900  1
  Mn  Mn1  1  0.78846900  0.95237200  0.37006600  1
  Mn  Mn2  1  0.04762800  0.87006600  0.71153100  1
  Mn  Mn3  1  0.87006600  0.71153100  0.04762800  1
  Mn  Mn4  1  0.71153100  0.04762800  0.87006600  1
  Mn  Mn5  1  0.62993400  0.28846900  0.54762800  1
  Mn  Mn6  1  0.12993400  0.21153100  0.45237200  1
  Mn  Mn7  1  0.37006600  0.78846900  0.95237200  1
  Mn  Mn8  1  0.28846900  0.54762800  0.62993400  1
  Mn  Mn9  1  0.45237200  0.12993400  0.21153100  1
  Mn  Mn10  1  0.21153100  0.45237200  0.12993400  1
  Mn  Mn11  1  0.95237200  0.37006600  0.78846900  1
  Si  Si0  1  0.94032000  0.55968000  0.44032000  1
  Si  Si1  1  0.55968000  0.44032000  0.94032000  1
  Si  Si2  1  0.44032000  0.94032000  0.55968000  1
  Si  Si3  1  0.05968000  0.05968000  0.05968000  1
  Ir  Ir0  1  0.31468800  0.18531200  0.81468800  1
  Ir  Ir1  1  0.18531200  0.81468800  0.31468800  1
  Ir  Ir2  1  0.81468800  0.31468800  0.18531200  1
  Ir  Ir3  1  0.68531200  0.68531200  0.68531200  1
loop_
_geom_bond_atom_site_label_1
_geom_bond_atom_site_label_2
_geom_bond_distance
_geom_bond_site_symmetry_2
Mn0 Si1 2.528888 1_554
Mn0 Mn3 2.618316 1_555
Mn0 Mn1 2.618316 1_555
Mn0 Mn10 2.626022 1_555
Mn0 Mn7 2.626022 1_554
Mn0 Si2 2.715731 1_555
Mn0 Si0 2.721649 1_555
Mn0 Mn8 2.783203 1_555
Mn0 Mn5 2.783203 1_555
Mn1 Si2 2.528888 1_555
Mn1 Mn3 2.618316 1_555
Mn1 Mn9 2.626022 1_565
Mn1 Mn5 2.626022 1_565
Mn1 Si3 2.715731 1_665
Mn1 Si0 2.721649 1_555
Mn1 Mn2 2.783203 1_655
Mn1 Mn6 2.783203 1_665
Mn2 Si3 2.528888 1_566
Mn2 Mn8 2.618316 1_555
Mn2 Mn7 2.618316 1_555
Mn2 Mn3 2.626022 1_456
Mn2 Mn4 2.626022 1_465
Mn2 Si0 2.715731 1_455
Mn2 Si2 2.721649 1_555
Mn2 Mn6 2.783203 1_565
Mn3 Si3 2.528888 1_665
Mn3 Mn4 2.626022 1_564
Mn3 Si1 2.715731 1_554
Mn3 Si0 2.721649 1_555
Mn4 Si3 2.528888 1_656
Mn4 Mn5 2.618316 1_555
Mn4 Si2 2.715731 1_545
Mn4 Si1 2.721649 1_555
Mn4 Mn7 2.783203 1_545
Mn4 Mn9 2.783203 1_556
Mn5 Si2 2.528888 1_545
Mn5 Mn9 2.626022 1_555
Mn5 Si0 2.715731 1_555
Mn5 Si1 2.721649 1_555
Mn5 Mn8 2.783203 1_555
Mn6 Si0 2.528888 1_455
Mn6 Mn9 2.618316 1_555
Mn6 Mn8 2.626022 1_555
Mn6 Si2 2.715731 1_545
Mn6 Si3 2.721649 1_555
Mn7 Si1 2.528888 1_555
Mn7 Mn8 2.618316 1_555
Mn7 Si3 2.715731 1_566
Mn7 Si2 2.721649 1_555
Mn7 Mn9 2.783203 1_566
Mn8 Si0 2.528888 1_455
Mn8 Si1 2.715731 1_555
Mn8 Si2 2.721649 1_555
Mn9 Si2 2.528888 1_545
Mn9 Si1 2.715731 1_554
Mn9 Si3 2.721649 1_555
Mn10 Si1 2.528888 1_554
Mn10 Mn9 2.618316 1_555
Mn10 Mn6 2.618316 1_555
Mn10 Mn7 2.626022 1_554
Mn10 Si0 2.715731 1_455
Mn10 Si3 2.721649 1_555
Mn10 Mn3 2.783203 1_455
Mn10 Mn11 2.783203 1_454
Mn11 Si0 2.528888 1_555
Mn11 Mn5 2.618316 1_555
Mn11 Mn4 2.618316 1_555
Mn11 Mn6 2.626022 1_655
Mn11 Mn8 2.626022 1_655
Mn11 Si3 2.715731 1_656
Mn11 Si1 2.721649 1_555
Mn11 Mn3 2.783203 1_556
Ir0 Si3 2.392816 1_556
Ir0 Si2 2.392816 1_545
Ir0 Si1 2.392816 1_555
Ir0 Mn11 2.598566 1_455
Ir0 Mn6 2.598566 1_555
Ir0 Mn8 2.598566 1_555
Ir0 Mn4 2.701458 1_555
Ir0 Mn7 2.701458 1_545
Ir0 Mn9 2.701458 1_556
Ir0 Mn2 2.715226 1_545
Ir0 Mn10 2.715226 1_556
Ir0 Mn5 2.715226 1_555
Ir1 Si3 2.392816 1_565
Ir1 Si0 2.392816 1_455
Ir1 Si2 2.392816 1_555
Ir1 Mn7 2.598566 1_554
Ir1 Mn10 2.598566 1_555
Ir1 Mn0 2.598566 1_555
Ir1 Mn2 2.701458 1_555
Ir1 Mn1 2.701458 1_455
Ir1 Mn6 2.701458 1_565
Ir1 Mn3 2.715226 1_455
Ir1 Mn9 2.715226 1_565
Ir1 Mn8 2.715226 1_555
Ir2 Si3 2.392816 1_655
Ir2 Si1 2.392816 1_554
Ir2 Si0 2.392816 1_555
Ir2 Mn1 2.598566 1_545
Ir2 Mn9 2.598566 1_555
Ir2 Mn5 2.598566 1_555
Ir2 Mn3 2.701458 1_555
Ir2 Mn11 2.701458 1_554
Ir2 Mn10 2.701458 1_655
Ir2 Mn4 2.715226 1_554
Ir2 Mn6 2.715226 1_655
Ir2 Mn0 2.715226 1_555
Ir3 Si0 2.392816 1_555
Ir3 Si1 2.392816 1_555
Ir3 Si2 2.392816 1_555
Ir3 Mn4 2.598566 1_565
Ir3 Mn2 2.598566 1_655
Ir3 Mn3 2.598566 1_556
Ir3 Mn0 2.701458 1_555
Ir3 Mn8 2.701458 1_555
Ir3 Mn5 2.701458 1_555
Ir3 Mn7 2.715226 1_555
Ir3 Mn1 2.715226 1_555
Ir3 Mn11 2.715226 1_555
