# generated using pymatgen
data_Y2Ru2O7
_symmetry_space_group_name_H-M   'P 1'
_cell_length_a   7.25636656
_cell_length_b   7.25636656
_cell_length_c   7.25636656
_cell_angle_alpha   60.00000000
_cell_angle_beta   60.00000000
_cell_angle_gamma   60.00000000
_symmetry_Int_Tables_number   1
_chemical_formula_structural   Y2Ru2O7
_chemical_formula_sum   'Y4 Ru4 O14'
_cell_volume   270.17343324
_cell_formula_units_Z   2
loop_
 _symmetry_equiv_pos_site_id
 _symmetry_equiv_pos_as_xyz
  1  'x, y, z'
loop_
 _atom_site_type_symbol
 _atom_site_label
 _atom_site_symmetry_multiplicity
 _atom_site_fract_x
 _atom_site_fract_y
 _atom_site_fract_z
 _atom_site_occupancy
  Y  Y0  1  0.12500000  0.62500000  0.12500000  1
  Y  Y1  1  0.12500000  0.12500000  0.62500000  1
  Y  Y2  1  0.62500000  0.12500000  0.12500000  1
  Y  Y3  1  0.12500000  0.12500000  0.12500000  1
  Ru  Ru0  1  0.62500000  0.12500000  0.62500000  1
  Ru  Ru1  1  0.62500000  0.62500000  0.12500000  1
  Ru  Ru2  1  0.12500000  0.62500000  0.62500000  1
  Ru  Ru3  1  0.62500000  0.62500000  0.62500000  1
  O  O0  1  0.00000000  0.00000000  0.00000000  1
  O  O1  1  0.25000000  0.25000000  0.25000000  1
  O  O2  1  0.28812800  0.28812800  0.71187200  1
  O  O3  1  0.53812800  0.53812800  0.96187200  1
  O  O4  1  0.71187200  0.28812800  0.71187200  1
  O  O5  1  0.71187200  0.28812800  0.28812800  1
  O  O6  1  0.28812800  0.71187200  0.71187200  1
  O  O7  1  0.28812800  0.71187200  0.28812800  1
  O  O8  1  0.71187200  0.71187200  0.28812800  1
  O  O9  1  0.96187200  0.53812800  0.53812800  1
  O  O10  1  0.53812800  0.96187200  0.96187200  1
  O  O11  1  0.96187200  0.96187200  0.53812800  1
  O  O12  1  0.96187200  0.53812800  0.96187200  1
  O  O13  1  0.53812800  0.96187200  0.53812800  1
loop_
_geom_bond_atom_site_label_1
_geom_bond_atom_site_label_2
_geom_bond_distance
_geom_bond_site_symmetry_2
O0 Y0 2.221799 1_545
O0 Y2 2.221799 1_455
O0 Y3 2.221799 1_555
O0 Y1 2.221799 1_554
O1 Y1 2.221799 1_555
O1 Y3 2.221799 1_555
O1 Y0 2.221799 1_555
O1 Y2 2.221799 1_555
O2 Ru2 2.021305 1_555
O2 Ru0 2.021305 1_555
O2 Y1 2.468461 1_555
O2 Y3 2.468461 1_556
O3 Ru3 2.021305 1_555
O3 Ru1 2.021305 1_556
O3 Y2 2.468461 1_556
O3 Y0 2.468461 1_556
O4 Ru0 2.021305 1_555
O4 Ru3 2.021305 1_555
O4 Y2 2.468461 1_556
O4 Y1 2.468461 1_655
O5 Ru1 2.021305 1_555
O5 Ru0 2.021305 1_555
O5 Y2 2.468461 1_555
O5 Y3 2.468461 1_655
O6 Ru2 2.021305 1_555
O6 Ru3 2.021305 1_555
O6 Y1 2.468461 1_565
O6 Y0 2.468461 1_556
O7 Ru1 2.021305 1_555
O7 Ru2 2.021305 1_555
O7 Y0 2.468461 1_555
O7 Y3 2.468461 1_565
O8 Ru1 2.021305 1_555
O8 Ru3 2.021305 1_555
O8 Y2 2.468461 1_565
O8 Y0 2.468461 1_655
O9 Ru3 2.021305 1_555
O9 Ru2 2.021305 1_655
O9 Y1 2.468461 1_655
O9 Y0 2.468461 1_655
O10 Ru1 2.021305 1_556
O10 Ru0 2.021305 1_565
O10 Y3 2.468461 1_566
O10 Y2 2.468461 1_566
O11 Ru2 2.021305 1_655
O11 Ru0 2.021305 1_565
O11 Y3 2.468461 1_665
O11 Y1 2.468461 1_665
O12 Ru2 2.021305 1_655
O12 Ru1 2.021305 1_556
O12 Y3 2.468461 1_656
O12 Y0 2.468461 1_656
O13 Ru3 2.021305 1_555
O13 Ru0 2.021305 1_565
O13 Y2 2.468461 1_565
O13 Y1 2.468461 1_565
