# generated using pymatgen
data_KSn2Cl5
_symmetry_space_group_name_H-M   'P 1'
_cell_length_a   8.03283406
_cell_length_b   8.03283431
_cell_length_c   9.03930761
_cell_angle_alpha   116.38035078
_cell_angle_beta   116.38035329
_cell_angle_gamma   90.00000402
_symmetry_Int_Tables_number   1
_chemical_formula_structural   KSn2Cl5
_chemical_formula_sum   'K2 Sn4 Cl10'
_cell_volume   453.73531381
_cell_formula_units_Z   2
loop_
 _symmetry_equiv_pos_site_id
 _symmetry_equiv_pos_as_xyz
  1  'x, y, z'
loop_
 _atom_site_type_symbol
 _atom_site_label
 _atom_site_symmetry_multiplicity
 _atom_site_fract_x
 _atom_site_fract_y
 _atom_site_fract_z
 _atom_site_occupancy
  K  K0  1  0.25000000  0.25000000  0.50000000  1
  K  K1  1  0.75000000  0.75000000  0.50000000  1
  Sn  Sn0  1  0.32420118  0.17579882  0.00000000  1
  Sn  Sn1  1  0.17579882  0.67579882  -0.00000000  1
  Sn  Sn2  1  0.67579882  0.82420118  -0.00000000  1
  Sn  Sn3  1  0.82420118  0.32420118  0.00000000  1
  Cl  Cl0  1  0.19497104  0.69497104  0.73035218  1
  Cl  Cl1  1  0.46462086  0.96462086  0.26964782  1
  Cl  Cl2  1  0.80502896  0.30502896  0.26964782  1
  Cl  Cl3  1  0.96462086  0.80502896  0.26964782  1
  Cl  Cl4  1  0.30502896  0.46462086  0.26964782  1
  Cl  Cl5  1  0.03537914  0.19497104  0.73035218  1
  Cl  Cl6  1  0.00000000  0.00000000  0.00000000  1
  Cl  Cl7  1  0.50000000  0.50000000  0.00000000  1
  Cl  Cl8  1  0.53537914  0.03537914  0.73035218  1
  Cl  Cl9  1  0.69497104  0.53537914  0.73035218  1
loop_
_geom_bond_atom_site_label_1
_geom_bond_atom_site_label_2
_geom_bond_distance
_geom_bond_site_symmetry_2
Cl0 Sn1 2.579859 1_556
Cl0 K1 3.392818 1_455
Cl0 K0 3.392818 1_555
Cl1 Sn1 2.579874 1_555
Cl1 K1 3.392824 1_555
Cl1 K0 3.392824 1_565
Cl2 Sn3 2.579859 1_555
Cl2 K0 3.392818 1_655
Cl2 K1 3.392818 1_555
Cl3 Sn2 2.579866 1_555
Cl3 K0 3.392812 1_665
Cl3 K1 3.392831 1_555
Cl4 Sn0 2.579866 1_555
Cl4 K1 3.392811 1_555
Cl4 K0 3.392831 1_555
Cl5 Sn0 2.579866 1_556
Cl5 K1 3.392812 1_445
Cl5 K0 3.392831 1_555
Cl6 Sn0 2.962489 1_555
Cl6 Sn2 2.962489 1_445
Cl6 Sn3 2.962490 1_455
Cl6 Sn1 2.962490 1_545
Cl6 K0 3.515888 1_555
Cl6 K1 3.515888 1_444
Cl7 Sn0 2.962489 1_555
Cl7 Sn2 2.962489 1_555
Cl7 Sn3 2.962490 1_555
Cl7 Sn1 2.962490 1_555
Cl7 K1 3.515888 1_555
Cl7 K0 3.515888 1_554
Cl8 Sn3 2.579874 1_556
Cl8 K0 3.392824 1_555
Cl8 K1 3.392824 1_545
Cl9 Sn2 2.579866 1_556
Cl9 K0 3.392811 1_555
Cl9 K1 3.392831 1_555
