# generated using pymatgen
data_Na3MgTaSi(PO6)2
_symmetry_space_group_name_H-M   'P 1'
_cell_length_a   15.63973173
_cell_length_b   8.99561746
_cell_length_c   8.85903503
_cell_angle_alpha   90.00000000
_cell_angle_beta   124.40127262
_cell_angle_gamma   90.00000000
_symmetry_Int_Tables_number   1
_chemical_formula_structural   Na3MgTaSi(PO6)2
_chemical_formula_sum   'Na12 Mg4 Ta4 Si4 P8 O48'
_cell_volume   1028.38038357
_cell_formula_units_Z   4
loop_
 _symmetry_equiv_pos_site_id
 _symmetry_equiv_pos_as_xyz
  1  'x, y, z'
loop_
 _atom_site_type_symbol
 _atom_site_label
 _atom_site_symmetry_multiplicity
 _atom_site_fract_x
 _atom_site_fract_y
 _atom_site_fract_z
 _atom_site_occupancy
  Na  Na0  1  0.25206599  0.72058905  0.98079014  1
  Na  Na1  1  0.75206599  0.77941095  0.48079014  1
  Na  Na2  1  0.75206599  0.22058905  0.98079014  1
  Na  Na3  1  0.25206599  0.27941095  0.48079014  1
  Na  Na4  1  0.51101163  0.10903998  0.75741127  1
  Na  Na5  1  0.51101163  0.89096002  0.25741127  1
  Na  Na6  1  0.01101163  0.60903998  0.75741127  1
  Na  Na7  1  0.01101163  0.39096002  0.25741127  1
  Na  Na8  1  0.18258038  0.93385033  0.29764420  1
  Na  Na9  1  0.18258038  0.06614967  0.79764420  1
  Na  Na10  1  0.68258038  0.43385033  0.29764420  1
  Na  Na11  1  0.68258038  0.56614967  0.79764420  1
  Mg  Mg0  1  0.10278054  0.74678397  0.56153340  1
  Mg  Mg1  1  0.10278054  0.25321603  0.06153340  1
  Mg  Mg2  1  0.60278054  0.24678397  0.56153340  1
  Mg  Mg3  1  0.60278054  0.75321603  0.06153340  1
  Ta  Ta0  1  0.89499318  0.75527001  0.93704939  1
  Ta  Ta1  1  0.89499318  0.24472999  0.43704939  1
  Ta  Ta2  1  0.39499318  0.25527001  0.93704939  1
  Ta  Ta3  1  0.39499318  0.74472999  0.43704939  1
  Si  Si0  1  0.64714499  0.89119632  0.74651344  1
  Si  Si1  1  0.64714499  0.10880368  0.24651344  1
  Si  Si2  1  0.14714499  0.39119632  0.74651344  1
  Si  Si3  1  0.14714499  0.60880368  0.24651344  1
  P  P0  1  0.99908672  0.95848845  0.76158955  1
  P  P1  1  0.99908672  0.04151155  0.26158955  1
  P  P2  1  0.49908672  0.45848845  0.76158955  1
  P  P3  1  0.49908672  0.54151155  0.26158955  1
  P  P4  1  0.35505813  0.89975924  0.76298284  1
  P  P5  1  0.35505813  0.10024076  0.26298284  1
  P  P6  1  0.85505813  0.39975924  0.76298284  1
  P  P7  1  0.85505813  0.60024076  0.26298284  1
  O  O0  1  0.15035529  0.56869555  0.73684303  1
  O  O1  1  0.85481680  0.57692860  0.75568601  1
  O  O2  1  0.85481680  0.42307140  0.25568601  1
  O  O3  1  0.15035529  0.43130445  0.23684303  1
  O  O4  1  0.65035529  0.06869555  0.73684303  1
  O  O5  1  0.35481680  0.07692860  0.75568601  1
  O  O6  1  0.35481680  0.92307140  0.25568601  1
  O  O7  1  0.65035529  0.93130445  0.23684303  1
  O  O8  1  0.43698471  0.56878941  0.59085075  1
  O  O9  1  0.56060075  0.54660253  0.93555677  1
  O  O10  1  0.56060075  0.45339747  0.43555677  1
  O  O11  1  0.43698471  0.43121059  0.09085075  1
  O  O12  1  0.93698471  0.06878941  0.59085075  1
  O  O13  1  0.06060075  0.04660253  0.93555677  1
  O  O14  1  0.06060075  0.95339747  0.43555677  1
  O  O15  1  0.93698471  0.93121059  0.09085075  1
  O  O16  1  0.25578009  0.85381515  0.74490848  1
  O  O17  1  0.74615440  0.80523200  0.75567400  1
  O  O18  1  0.74615440  0.19476800  0.25567400  1
  O  O19  1  0.25578009  0.14618485  0.24490848  1
  O  O20  1  0.75578009  0.35381515  0.74490848  1
  O  O21  1  0.24615440  0.30523200  0.75567400  1
  O  O22  1  0.24615440  0.69476800  0.25567400  1
  O  O23  1  0.75578009  0.64618485  0.24490848  1
  O  O24  1  0.35628234  0.85714640  0.58726341  1
  O  O25  1  0.64508393  0.82470882  0.90953766  1
  O  O26  1  0.64508393  0.17529118  0.40953766  1
  O  O27  1  0.35628234  0.14285360  0.08726341  1
  O  O28  1  0.85628234  0.35714640  0.58726341  1
  O  O29  1  0.14508393  0.32470882  0.90953766  1
  O  O30  1  0.14508393  0.67529118  0.40953766  1
  O  O31  1  0.85628234  0.64285360  0.08726341  1
  O  O32  1  0.45265210  0.84341402  0.93350569  1
  O  O33  1  0.53534126  0.82153009  0.55432114  1
  O  O34  1  0.53534126  0.17846991  0.05432114  1
  O  O35  1  0.45265210  0.15658598  0.43350569  1
  O  O36  1  0.95265210  0.34341402  0.93350569  1
  O  O37  1  0.03534126  0.32153009  0.55432114  1
  O  O38  1  0.03534126  0.67846991  0.05432114  1
  O  O39  1  0.95265210  0.65658598  0.43350569  1
  O  O40  1  0.06946277  0.85610892  0.73963850  1
  O  O41  1  0.91176399  0.86202045  0.75070033  1
  O  O42  1  0.91176399  0.13797955  0.25070033  1
  O  O43  1  0.06946277  0.14389108  0.23963850  1
  O  O44  1  0.56946277  0.35610892  0.73963850  1
  O  O45  1  0.41176399  0.36202045  0.75070033  1
  O  O46  1  0.41176399  0.63797955  0.25070033  1
  O  O47  1  0.56946277  0.64389108  0.23963850  1
loop_
_geom_bond_atom_site_label_1
_geom_bond_atom_site_label_2
_geom_bond_distance
_geom_bond_site_symmetry_2
Na0 O0 2.276690 1_555
Na0 O46 2.399909 1_556
Na0 O16 2.437950 1_555
Na0 O22 2.499428 1_556
Na0 O40 2.704081 1_555
Na0 O6 2.721891 1_556
Na1 O7 2.276690 1_555
Na1 O41 2.399909 1_555
Na1 O23 2.437950 1_555
Na1 O17 2.499428 1_555
Na1 O47 2.704081 1_555
Na1 O1 2.721891 1_555
Na2 O4 2.276690 1_555
Na2 O42 2.399909 1_556
Na2 O20 2.437950 1_555
Na2 O18 2.499428 1_556
Na2 O44 2.704081 1_555
Na2 O2 2.721891 1_556
Na3 O3 2.276690 1_555
Na3 O45 2.399909 1_555
Na3 O19 2.437950 1_555
Na3 O21 2.499428 1_555
Na3 O43 2.704081 1_555
Na3 O5 2.721891 1_555
Na4 O4 2.315807 1_555
Na4 O44 2.441883 1_555
Na4 O5 2.451322 1_555
Na4 O35 2.508090 1_555
Na4 O34 2.514474 1_556
Na4 O45 2.736327 1_555
Na5 O7 2.315807 1_555
Na5 O47 2.441883 1_555
Na5 O6 2.451322 1_555
Na5 O32 2.508090 1_554
Na5 O33 2.514474 1_555
Na5 O46 2.736327 1_555
Na6 O0 2.315807 1_555
Na6 O40 2.441883 1_555
Na6 O1 2.451322 1_455
Na6 O39 2.508090 1_455
Na6 O38 2.514474 1_556
Na6 O41 2.736327 1_455
Na7 O3 2.315807 1_555
Na7 O43 2.441883 1_555
Na7 O2 2.451322 1_455
Na7 O36 2.508090 1_454
Na7 O37 2.514474 1_555
Na7 O42 2.736327 1_455
Na8 O19 2.404507 1_565
Na8 O43 2.436519 1_565
Na8 O22 2.483960 1_555
Na8 O24 2.561872 1_555
Na8 O30 2.719043 1_555
Na8 O14 2.792279 1_555
Na8 O13 2.836009 1_564
Na8 O6 2.921503 1_555
Na9 O16 2.404507 1_545
Na9 O40 2.436519 1_545
Na9 O21 2.483960 1_555
Na9 O27 2.561872 1_556
Na9 O29 2.719043 1_555
Na9 O13 2.792279 1_555
Na9 O14 2.836009 1_545
Na9 O5 2.921503 1_555
Na10 O23 2.404507 1_555
Na10 O47 2.436519 1_555
Na10 O18 2.483960 1_555
Na10 O28 2.561872 1_555
Na10 O26 2.719043 1_555
Na10 O10 2.792279 1_555
Na10 O9 2.836009 1_554
Na10 O2 2.921503 1_555
Na11 O20 2.404507 1_555
Na11 O44 2.436519 1_555
Na11 O17 2.483960 1_555
Na11 O31 2.561872 1_556
Na11 O25 2.719043 1_555
Na11 O9 2.792279 1_555
Na11 O10 2.836009 1_555
Na11 O1 2.921503 1_555
Mg0 O30 1.916030 1_555
Mg0 O0 2.055808 1_555
Mg0 O14 2.074427 1_555
Mg0 O39 2.109153 1_455
Mg0 O40 2.158080 1_555
Mg0 O16 2.213461 1_555
Mg1 O29 1.916030 1_554
Mg1 O3 2.055808 1_555
Mg1 O13 2.074427 1_554
Mg1 O36 2.109153 1_454
Mg1 O43 2.158080 1_555
Mg1 O19 2.213461 1_555
Mg2 O26 1.916030 1_555
Mg2 O4 2.055808 1_555
Mg2 O10 2.074427 1_555
Mg2 O35 2.109153 1_555
Mg2 O44 2.158080 1_555
Mg2 O20 2.213461 1_555
Mg3 O25 1.916030 1_554
Mg3 O7 2.055808 1_555
Mg3 O9 2.074427 1_554
Mg3 O32 2.109153 1_554
Mg3 O47 2.158080 1_555
Mg3 O23 2.213461 1_555
O0 Si2 1.601318 1_555
O1 P6 1.594976 1_555
O1 Ta0 2.099830 1_555
O2 P7 1.594976 1_555
O2 Ta1 2.099830 1_555
O3 Si3 1.601318 1_555
O4 Si0 1.601318 1_545
O5 P4 1.594976 1_545
O5 Ta2 2.099830 1_555
O6 P5 1.594976 1_565
O6 Ta3 2.099830 1_555
O7 Si1 1.601318 1_565
O8 P2 1.598658 1_555
O8 Ta3 1.944631 1_555
O9 P2 1.501220 1_555
O10 P3 1.501220 1_555
O11 P3 1.598658 1_555
O11 Ta2 1.944631 1_554
O12 P0 1.598658 1_545
O12 Ta1 1.944631 1_555
O13 P0 1.501220 1_445
O14 P1 1.501220 1_465
O15 P1 1.598658 1_565
O15 Ta0 1.944631 1_554
O16 P4 1.525235 1_555
O17 Si0 1.691265 1_555
O17 Ta0 1.993995 1_555
O18 Si1 1.691265 1_555
O18 Ta1 1.993995 1_555
O19 P5 1.525235 1_555
O20 P6 1.525235 1_555
O21 Si2 1.691265 1_555
O21 Ta2 1.993995 1_555
O22 Si3 1.691265 1_555
O22 Ta3 1.993995 1_555
O23 P7 1.525235 1_555
O24 P4 1.613789 1_555
O24 Ta3 2.017539 1_555
O25 Si0 1.580248 1_555
O26 Si1 1.580248 1_555
O27 P5 1.613789 1_555
O27 Ta2 2.017539 1_554
O28 P6 1.613789 1_555
O28 Ta1 2.017539 1_555
O29 Si2 1.580248 1_555
O30 Si3 1.580248 1_555
O31 P7 1.613789 1_555
O31 Ta0 2.017539 1_554
O32 P4 1.504415 1_555
O33 Si0 1.727745 1_555
O33 Ta3 1.948814 1_555
O34 Si1 1.727745 1_555
O34 Ta2 1.948814 1_554
O35 P5 1.504415 1_555
O36 P6 1.504415 1_555
O37 Si2 1.727745 1_555
O37 Ta1 1.948814 1_455
O38 Si3 1.727745 1_555
O38 Ta0 1.948814 1_454
O39 P7 1.504415 1_555
O40 P0 1.529482 1_455
O41 P0 1.574370 1_555
O41 Ta0 2.050760 1_555
O42 P1 1.574370 1_555
O42 Ta1 2.050760 1_555
O43 P1 1.529482 1_455
O44 P2 1.529482 1_555
O45 P2 1.574370 1_555
O45 Ta2 2.050760 1_555
O46 P3 1.574370 1_555
O46 Ta3 2.050760 1_555
O47 P3 1.529482 1_555
