# generated using pymatgen
data_MgZrTi(PbO3)2
_symmetry_space_group_name_H-M   'P 1'
_cell_length_a   6.44465423
_cell_length_b   5.41918893
_cell_length_c   5.42925773
_cell_angle_alpha   90.00000000
_cell_angle_beta   90.00000000
_cell_angle_gamma   90.00000000
_symmetry_Int_Tables_number   1
_chemical_formula_structural   MgZrTi(PbO3)2
_chemical_formula_sum   'Mg1 Zr1 Ti1 Pb2 O6'
_cell_volume   189.61573418
_cell_formula_units_Z   1
loop_
 _symmetry_equiv_pos_site_id
 _symmetry_equiv_pos_as_xyz
  1  'x, y, z'
loop_
 _atom_site_type_symbol
 _atom_site_label
 _atom_site_symmetry_multiplicity
 _atom_site_fract_x
 _atom_site_fract_y
 _atom_site_fract_z
 _atom_site_occupancy
  Mg  Mg0  1  0.68836145  0.00000000  0.00000000  1
  Zr  Zr0  1  0.45507807  0.50000000  0.00000000  1
  Ti  Ti0  1  0.48035123  0.00000000  0.50000000  1
  Pb  Pb0  1  0.14061914  0.00000000  0.00000000  1
  Pb  Pb1  1  0.82750305  0.50000000  0.50000000  1
  O  O0  1  0.59176958  0.24769930  0.25833444  1
  O  O1  1  0.59176958  0.24769930  0.74166556  1
  O  O2  1  0.59176958  0.75230070  0.25833444  1
  O  O3  1  0.59176958  0.75230070  0.74166556  1
  O  O4  1  0.20986177  0.00000000  0.50000000  1
  O  O5  1  0.15625998  0.50000000  0.00000000  1
loop_
_geom_bond_atom_site_label_1
_geom_bond_atom_site_label_2
_geom_bond_distance
_geom_bond_site_symmetry_2
Mg0 O0 2.038760 1_555
Mg0 O2 2.038760 1_545
Mg0 O3 2.038760 1_544
Mg0 O1 2.038760 1_554
Mg0 Pb0 2.914644 1_655
O0 Ti0 2.009717 1_555
O0 Zr0 2.147705 1_555
O0 Pb1 2.428777 1_555
O1 Ti0 2.009717 1_555
O1 Zr0 2.147705 1_556
O1 Pb1 2.428777 1_555
O2 Ti0 2.009717 1_565
O2 Zr0 2.147705 1_555
O2 Pb1 2.428777 1_555
O3 Ti0 2.009717 1_565
O3 Zr0 2.147705 1_556
O3 Pb1 2.428777 1_555
O4 Ti0 1.743211 1_555
O4 Pb0 2.751062 1_555
O4 Pb0 2.751062 1_556
O5 Zr0 1.925779 1_555
O5 Pb0 2.711469 1_565
O5 Pb0 2.711469 1_555
