# generated using pymatgen
data_Na12Ca10Ta2Si3(S5O24)3
_symmetry_space_group_name_H-M   'P 1'
_cell_length_a   9.26416423
_cell_length_b   9.29741495
_cell_length_c   23.65531837
_cell_angle_alpha   90.17041612
_cell_angle_beta   89.98148147
_cell_angle_gamma   119.79506880
_symmetry_Int_Tables_number   1
_chemical_formula_structural   Na12Ca10Ta2Si3(S5O24)3
_chemical_formula_sum   'Na12 Ca10 Ta2 Si3 S15 O72'
_cell_volume   1768.14839879
_cell_formula_units_Z   1
loop_
 _symmetry_equiv_pos_site_id
 _symmetry_equiv_pos_as_xyz
  1  'x, y, z'
loop_
 _atom_site_type_symbol
 _atom_site_label
 _atom_site_symmetry_multiplicity
 _atom_site_fract_x
 _atom_site_fract_y
 _atom_site_fract_z
 _atom_site_occupancy
  Na  Na0  1  0.30351469  0.33713159  0.57646355  1
  Na  Na1  1  0.66999424  0.97014383  0.59510728  1
  Na  Na2  1  0.29994930  0.96984592  0.09409135  1
  Na  Na3  1  0.02835677  0.33261345  0.08371050  1
  Na  Na4  1  0.33015758  0.05032139  0.40460385  1
  Na  Na5  1  0.68888493  0.65434006  0.41386860  1
  Na  Na6  1  0.01868398  0.02457183  0.49575760  1
  Na  Na7  1  0.98605558  0.98837371  0.99624554  1
  Na  Na8  1  0.67153304  0.31275821  0.82686844  1
  Na  Na9  1  0.64029100  0.31580417  0.32666636  1
  Na  Na10  1  0.34275542  0.68147540  0.17001172  1
  Na  Na11  1  0.33109177  0.67522292  0.66882659  1
  Ca  Ca0  1  0.01318410  0.01610694  0.34679622  1
  Ca  Ca1  1  0.99478609  0.00459513  0.84847153  1
  Ca  Ca2  1  0.98753750  0.98908371  0.66077022  1
  Ca  Ca3  1  0.00448799  0.98763884  0.15983680  1
  Ca  Ca4  1  0.66978514  0.33147579  0.68802839  1
  Ca  Ca5  1  0.65617434  0.32820261  0.18758696  1
  Ca  Ca6  1  0.66610172  0.33599124  0.97679499  1
  Ca  Ca7  1  0.66942595  0.33554357  0.47978299  1
  Ca  Ca8  1  0.33997395  0.66764076  0.01510210  1
  Ca  Ca9  1  0.32168964  0.65798035  0.51604311  1
  Ta  Ta0  1  0.32964520  0.65769668  0.31470343  1
  Ta  Ta1  1  0.34095013  0.67290364  0.81451777  1
  Si  Si0  1  0.30960139  0.99664786  0.25289125  1
  Si  Si1  1  0.69803632  0.00492819  0.74987978  1
  Si  Si2  1  0.33237889  0.36859965  0.41899158  1
  S  S0  1  0.69031066  0.69908348  0.25536231  1
  S  S1  1  0.00811485  0.31207442  0.25064376  1
  S  S2  1  0.30098907  0.31182913  0.75273935  1
  S  S3  1  0.01042411  0.69982446  0.75478870  1
  S  S4  1  0.96586878  0.33026263  0.58423650  1
  S  S5  1  0.36884326  0.03836042  0.58222779  1
  S  S6  1  0.66965601  0.63621027  0.58204927  1
  S  S7  1  0.96439237  0.63081881  0.08232038  1
  S  S8  1  0.66992041  0.04014018  0.08247067  1
  S  S9  1  0.36387246  0.33050603  0.08274983  1
  S  S10  1  0.62219241  0.66527662  0.91356811  1
  S  S11  1  0.04483002  0.37753687  0.91589744  1
  S  S12  1  0.33248841  0.95383618  0.91493311  1
  S  S13  1  0.61772278  0.94910301  0.41492105  1
  S  S14  1  0.04299919  0.66616177  0.41279908  1
  O  O0  1  0.21774804  0.01134682  0.30866214  1
  O  O1  1  0.78443639  0.77729638  0.30701282  1
  O  O2  1  0.98326730  0.20617739  0.29901988  1
  O  O3  1  0.21914056  0.20341919  0.80037960  1
  O  O4  1  0.99209503  0.78383492  0.80369583  1
  O  O5  1  0.81044926  0.01454845  0.80186029  1
  O  O6  1  0.74512466  0.95576829  0.68901967  1
  O  O7  1  0.20612804  0.25157909  0.69935760  1
  O  O8  1  0.05132295  0.79826223  0.70257725  1
  O  O9  1  0.75844973  0.80266825  0.20486667  1
  O  O10  1  0.04105640  0.24849343  0.19772159  1
  O  O11  1  0.20782741  0.95535881  0.19272919  1
  O  O12  1  0.88243123  0.34489876  0.63444287  1
  O  O13  1  0.47481334  0.12527599  0.63115605  1
  O  O14  1  0.65068479  0.53104663  0.63087975  1
  O  O15  1  0.88513031  0.53225096  0.13320501  1
  O  O16  1  0.64876497  0.12033110  0.13313764  1
  O  O17  1  0.46123928  0.35041517  0.13350870  1
  O  O18  1  0.44538584  0.31147530  0.03172969  1
  O  O19  1  0.86834790  0.54837094  0.03110636  1
  O  O20  1  0.68974608  0.14045218  0.03138629  1
  O  O21  1  0.44529730  0.13201833  0.52902845  1
  O  O22  1  0.68297678  0.55866848  0.52871473  1
  O  O23  1  0.86877705  0.31266434  0.53243331  1
  O  O24  1  0.54689683  0.68187937  0.96557452  1
  O  O25  1  0.13008434  0.45241002  0.97002784  1
  O  O26  1  0.31885459  0.86674079  0.96820815  1
  O  O27  1  0.54559129  0.86080126  0.46803152  1
  O  O28  1  0.32474038  0.45247391  0.47772660  1
  O  O29  1  0.14187272  0.69519593  0.46372533  1
  O  O30  1  0.13916373  0.65473209  0.36256521  1
  O  O31  1  0.50411613  0.85341849  0.36553426  1
  O  O32  1  0.34009550  0.50035848  0.36527541  1
  O  O33  1  0.14719383  0.48824889  0.86746400  1
  O  O34  1  0.34102939  0.84747034  0.86603978  1
  O  O35  1  0.50894828  0.65597641  0.86406491  1
  O  O36  1  0.01421639  0.80902945  0.40649737  1
  O  O37  1  0.78027260  0.95907400  0.40743835  1
  O  O38  1  0.17534974  0.18063865  0.41580115  1
  O  O39  1  0.03070343  0.21337297  0.91134596  1
  O  O40  1  0.18442160  0.97012480  0.90785295  1
  O  O41  1  0.78796797  0.81077785  0.90789127  1
  O  O42  1  0.98508763  0.17768542  0.58711125  1
  O  O43  1  0.20236072  0.02605832  0.58749966  1
  O  O44  1  0.81775242  0.80598014  0.58595569  1
  O  O45  1  0.98949151  0.80287718  0.08529678  1
  O  O46  1  0.82303832  0.02510196  0.08739648  1
  O  O47  1  0.19324269  0.17642122  0.08634786  1
  O  O48  1  0.65538728  0.15281556  0.74929827  1
  O  O49  1  0.47284987  0.34725957  0.74713821  1
  O  O50  1  0.86680836  0.53335257  0.74809946  1
  O  O51  1  0.66838649  0.53308089  0.24819491  1
  O  O52  1  0.87205141  0.34771925  0.24555773  1
  O  O53  1  0.49716528  0.15149076  0.25003056  1
  O  O54  1  0.62688077  0.50908441  0.91156158  1
  O  O55  1  0.87962447  0.36656958  0.91404104  1
  O  O56  1  0.48763931  0.11492383  0.91275058  1
  O  O57  1  0.62854035  0.11345205  0.41480716  1
  O  O58  1  0.50968119  0.36683023  0.41152310  1
  O  O59  1  0.87979118  0.51202089  0.41412649  1
  O  O60  1  0.33440281  0.47509579  0.07861263  1
  O  O61  1  0.13647804  0.64808089  0.07916804  1
  O  O62  1  0.51581048  0.87323162  0.07821341  1
  O  O63  1  0.35597310  0.87157669  0.57945520  1
  O  O64  1  0.51647004  0.65529851  0.58068785  1
  O  O65  1  0.13762466  0.47767717  0.58221686  1
  O  O66  1  0.32257154  0.81808338  0.26711247  1
  O  O67  1  0.51448683  0.67908763  0.26279596  1
  O  O68  1  0.16863796  0.48182997  0.26131771  1
  O  O69  1  0.31070411  0.48221914  0.76475976  1
  O  O70  1  0.16404774  0.67649082  0.76564633  1
  O  O71  1  0.50053660  0.82196373  0.76712115  1
loop_
_geom_bond_atom_site_label_1
_geom_bond_atom_site_label_2
_geom_bond_distance
_geom_bond_site_symmetry_2
Na0 O65 2.466256 1_555
Na0 O28 2.539487 1_555
Na0 O42 2.572753 1_455
Na0 O43 2.573300 1_555
Na0 O64 2.617493 1_555
Na1 O6 2.352171 1_555
Na1 O44 2.514833 1_555
Na1 O64 2.562193 1_555
Na1 O42 2.585389 1_565
Na1 O63 2.605618 1_555
Na1 O13 2.942880 1_565
Na2 O11 2.465191 1_555
Na2 O45 2.507310 1_455
Na2 O47 2.566827 1_565
Na2 O62 2.594173 1_555
Na2 O61 2.619027 1_555
Na3 O60 2.465000 1_555
Na3 O46 2.529171 1_455
Na3 O47 2.578988 1_555
Na3 O61 2.588373 1_555
Na3 O10 2.829021 1_555
Na3 O25 2.886784 1_554
Na3 O20 2.997336 1_455
Na3 O15 3.001693 1_455
Na4 O38 2.306452 1_555
Na4 O0 2.447074 1_555
Na4 O57 2.535961 1_555
Na4 O58 2.566302 1_555
Na4 O36 2.660210 1_545
Na5 O58 2.343843 1_555
Na5 O37 2.527016 1_555
Na5 O36 2.622207 1_655
Na5 O59 2.684126 1_555
Na5 O1 2.736753 1_555
Na5 O22 2.853187 1_555
Na6 O38 2.389762 1_555
Na6 O42 2.686058 1_455
Na6 O43 2.753947 1_555
Na6 O37 2.876231 1_445
Na6 O36 2.892832 1_545
Na6 O44 2.900264 1_445
Na7 O41 2.726350 1_555
Na7 O45 2.736621 1_556
Na7 O46 2.748201 1_566
Na7 O39 2.783004 1_665
Na7 O47 2.815889 1_666
Na7 O40 2.843110 1_655
Na8 O48 2.315951 1_555
Na8 O55 2.693856 1_555
Na8 O50 2.698943 1_555
Na8 O56 2.705305 1_555
Na8 O49 2.764163 1_555
Na8 O54 2.871380 1_555
Na9 O53 2.313088 1_555
Na9 O58 2.506329 1_555
Na9 O51 2.663416 1_555
Na9 O57 2.778166 1_555
Na9 O52 2.783297 1_555
Na9 O59 2.913635 1_555
Na10 O66 2.672543 1_555
Na10 O67 2.717827 1_555
Na10 O62 2.764873 1_555
Na10 O68 2.785400 1_555
Na10 O61 2.788411 1_555
Na10 O60 2.861854 1_555
Na11 O63 2.731261 1_555
Na11 O65 2.737106 1_555
Na11 O71 2.754475 1_555
Na11 O64 2.764464 1_555
Na11 O70 2.766971 1_555
Na11 O69 2.844760 1_555
Ca0 O0 2.118764 1_555
Ca0 O38 2.228091 1_555
Ca0 O2 2.230645 1_455
Ca0 O1 2.370470 1_445
Ca0 O36 2.394942 1_545
Ca0 O37 2.420796 1_445
Ca1 O5 2.073525 1_555
Ca1 O3 2.285607 1_655
Ca1 O4 2.295970 1_545
Ca1 O39 2.330651 1_655
Ca1 O41 2.340096 1_545
Ca1 O40 2.392920 1_645
Ca2 O6 2.212434 1_555
Ca2 O8 2.351066 1_655
Ca2 O44 2.413922 1_555
Ca2 O7 2.442666 1_665
Ca2 O42 2.483769 1_565
Ca2 O43 2.530696 1_665
Ca3 O11 2.192774 1_555
Ca3 O9 2.324072 1_455
Ca3 O45 2.413346 1_455
Ca3 O10 2.443479 1_565
Ca3 O47 2.475183 1_565
Ca3 O46 2.543760 1_465
Ca4 O48 2.161393 1_555
Ca4 O12 2.293075 1_555
Ca4 O13 2.300593 1_555
Ca4 O50 2.335562 1_555
Ca4 O49 2.359758 1_555
Ca4 O14 2.375517 1_555
Ca5 O53 2.158476 1_555
Ca5 O16 2.291792 1_555
Ca5 O17 2.305238 1_555
Ca5 O51 2.338033 1_555
Ca5 O52 2.356431 1_555
Ca5 O15 2.401397 1_555
Ca6 O19 2.317293 1_556
Ca6 O20 2.330383 1_556
Ca6 O18 2.336345 1_556
Ca6 O55 2.374680 1_555
Ca6 O54 2.387340 1_555
Ca6 O56 2.420566 1_555
Ca7 O58 2.305246 1_555
Ca7 O21 2.314273 1_555
Ca7 O22 2.320785 1_555
Ca7 O23 2.323929 1_555
Ca7 O59 2.395369 1_555
Ca7 O57 2.444148 1_555
Ca8 O24 2.193670 1_554
Ca8 O25 2.245860 1_554
Ca8 O26 2.251160 1_554
Ca8 O60 2.321334 1_555
Ca8 O62 2.329429 1_555
Ca8 O61 2.354346 1_555
Ca9 O28 2.125178 1_555
Ca9 O29 2.236769 1_555
Ca9 O27 2.296163 1_555
Ca9 O65 2.311132 1_555
Ca9 O64 2.375271 1_555
Ca9 O63 2.377081 1_555
O0 Si0 1.611537 1_545
O1 S0 1.465340 1_555
O2 S1 1.453686 1_655
O3 S2 1.451744 1_555
O4 S3 1.450405 1_655
O5 Si1 1.584960 1_555
O6 Si1 1.632688 1_565
O7 S2 1.479170 1_555
O8 S3 1.472550 1_555
O9 S0 1.467984 1_555
O10 S1 1.477986 1_555
O11 Si0 1.643051 1_555
O12 S4 1.459280 1_555
O13 S5 1.470771 1_555
O14 S6 1.468657 1_555
O15 S7 1.471441 1_555
O16 S8 1.473274 1_555
O17 S9 1.457078 1_555
O18 S9 1.479558 1_555
O19 S7 1.471168 1_555
O20 S8 1.483292 1_555
O21 S5 1.495532 1_555
O22 S6 1.486484 1_555
O23 S4 1.480116 1_555
O24 S10 1.459174 1_555
O25 S11 1.482212 1_555
O26 S12 1.471119 1_555
O27 S13 1.469468 1_555
O28 Si2 1.609928 1_555
O29 S14 1.454711 1_555
O30 S14 1.519759 1_555
O30 Ta0 2.084983 1_555
O31 S13 1.525801 1_555
O31 Ta0 2.105920 1_555
O32 Si2 1.744292 1_555
O32 Ta0 1.931741 1_555
O33 S11 1.519116 1_555
O33 Ta1 2.164920 1_555
O34 S12 1.546878 1_555
O34 Ta1 2.026485 1_555
O35 S10 1.545777 1_555
O35 Ta1 2.016541 1_555
O36 S14 1.486910 1_555
O37 S13 1.472689 1_555
O38 Si2 1.627490 1_555
O39 S11 1.469297 1_555
O40 S12 1.462646 1_555
O41 S10 1.463871 1_555
O42 S4 1.516662 1_555
O43 S5 1.494000 1_555
O44 S6 1.493109 1_555
O45 S7 1.499246 1_555
O46 S8 1.497531 1_555
O47 S9 1.519352 1_555
O48 Si1 1.608369 1_555
O49 S2 1.462841 1_555
O50 S3 1.463885 1_655
O51 S0 1.462532 1_555
O52 S1 1.459001 1_655
O53 Si0 1.615840 1_545
O54 S10 1.474872 1_555
O55 S11 1.483123 1_655
O56 S12 1.474034 1_545
O57 S13 1.480791 1_545
O58 Si2 1.660159 1_555
O59 S14 1.479096 1_655
O60 S9 1.502272 1_555
O61 S7 1.522697 1_455
O62 S8 1.501326 1_565
O63 S5 1.496234 1_565
O64 S6 1.515536 1_555
O65 S4 1.498544 1_455
O66 Si0 1.756539 1_555
O66 Ta0 1.898010 1_555
O67 S0 1.554908 1_555
O67 Ta0 2.035001 1_555
O68 S1 1.559354 1_555
O68 Ta0 2.014542 1_555
O69 S2 1.566602 1_555
O69 Ta1 2.025126 1_555
O70 S3 1.563943 1_555
O70 Ta1 2.019708 1_555
O71 Si1 1.821610 1_565
O71 Ta1 1.826313 1_555
