# generated using pymatgen
data_Mg(BiO2)4
_symmetry_space_group_name_H-M   'P 1'
_cell_length_a   3.47686598
_cell_length_b   8.77643583
_cell_length_c   9.55110530
_cell_angle_alpha   78.49750234
_cell_angle_beta   79.53437997
_cell_angle_gamma   78.57874952
_symmetry_Int_Tables_number   1
_chemical_formula_structural   Mg(BiO2)4
_chemical_formula_sum   'Mg1 Bi4 O8'
_cell_volume   276.85535326
_cell_formula_units_Z   1
loop_
 _symmetry_equiv_pos_site_id
 _symmetry_equiv_pos_as_xyz
  1  'x, y, z'
loop_
 _atom_site_type_symbol
 _atom_site_label
 _atom_site_symmetry_multiplicity
 _atom_site_fract_x
 _atom_site_fract_y
 _atom_site_fract_z
 _atom_site_occupancy
  Mg  Mg0  1  0.98108787  0.49235910  0.51318013  1
  Bi  Bi0  1  0.64667590  0.18791880  0.48757319  1
  Bi  Bi1  1  0.12762236  0.54033398  0.17338698  1
  Bi  Bi2  1  0.82157639  0.48286887  0.84304865  1
  Bi  Bi3  1  0.32757382  0.81389523  0.50031388  1
  O  O0  1  0.83066799  0.67859615  0.62938656  1
  O  O1  1  0.48506825  0.37265306  0.62470899  1
  O  O2  1  0.47917465  0.61801956  0.39339973  1
  O  O3  1  0.12898080  0.34780038  0.36338955  1
  O  O4  1  0.17654451  0.01759599  0.59958871  1
  O  O5  1  0.72541161  0.42154074  0.09605893  1
  O  O6  1  0.83243315  0.92078262  0.38335858  1
  O  O7  1  0.22789170  0.60781053  0.90542313  1
loop_
_geom_bond_atom_site_label_1
_geom_bond_atom_site_label_2
_geom_bond_distance
_geom_bond_site_symmetry_2
Mg0 O3 2.029559 1_655
Mg0 O0 2.085921 1_555
Mg0 O1 2.193536 1_655
Mg0 O1 2.194656 1_555
Mg0 O2 2.242834 1_555
Mg0 O2 2.248913 1_655
Bi0 O1 2.208779 1_555
Bi0 O3 2.393147 1_555
Bi0 O3 2.394439 1_655
Bi0 O4 2.396988 1_555
Bi0 O4 2.400147 1_655
Bi0 O6 2.646138 1_545
Bi1 O5 2.200811 1_555
Bi1 O5 2.201775 1_455
Bi1 O3 2.219358 1_555
Bi1 O7 2.485088 1_554
Bi2 O7 2.175509 1_655
Bi2 O7 2.176110 1_555
Bi2 O5 2.345231 1_556
Bi2 O0 2.390876 1_555
Bi3 O2 2.102749 1_555
Bi3 O4 2.119972 1_565
Bi3 O6 2.175059 1_555
Bi3 O6 2.175459 1_455
Bi3 O0 2.316554 1_555
Bi3 O0 2.317230 1_455
