# generated using pymatgen
data_Na7Y3MgSi3(SO8)3
_symmetry_space_group_name_H-M   'P 1'
_cell_length_a   9.39604794
_cell_length_b   9.34732491
_cell_length_c   23.24431482
_cell_angle_alpha   89.88341886
_cell_angle_beta   89.89773513
_cell_angle_gamma   119.68795855
_symmetry_Int_Tables_number   1
_chemical_formula_structural   Na7Y3MgSi3(SO8)3
_chemical_formula_sum   'Na21 Y9 Mg3 Si9 S9 O72'
_cell_volume   1773.51064219
_cell_formula_units_Z   3
loop_
 _symmetry_equiv_pos_site_id
 _symmetry_equiv_pos_as_xyz
  1  'x, y, z'
loop_
 _atom_site_type_symbol
 _atom_site_label
 _atom_site_symmetry_multiplicity
 _atom_site_fract_x
 _atom_site_fract_y
 _atom_site_fract_z
 _atom_site_occupancy
  Na  Na0  1  0.64076246  0.99498696  0.24035406  1
  Na  Na1  1  0.39489074  0.37886435  0.23681834  1
  Na  Na2  1  0.97657658  0.63185548  0.25552658  1
  Na  Na3  1  0.62378676  0.62464314  0.73601314  1
  Na  Na4  1  0.99283600  0.34036945  0.74757209  1
  Na  Na5  1  0.38942047  0.02644011  0.75564408  1
  Na  Na6  1  0.01089331  0.69399893  0.57481622  1
  Na  Na7  1  0.66920620  0.95076029  0.58569709  1
  Na  Na8  1  0.32569034  0.99287687  0.07937313  1
  Na  Na9  1  0.65338461  0.69474552  0.09485966  1
  Na  Na10  1  0.68294681  0.03261292  0.91655569  1
  Na  Na11  1  0.33622405  0.28659324  0.91959401  1
  Na  Na12  1  0.95655941  0.29651337  0.40908182  1
  Na  Na13  1  0.32806807  0.01021537  0.41346588  1
  Na  Na14  1  0.72332755  0.69011376  0.41476588  1
  Na  Na15  1  0.97907460  0.97511535  0.49264981  1
  Na  Na16  1  0.01794409  0.01618995  0.00584978  1
  Na  Na17  1  0.64687505  0.31066428  0.82687821  1
  Na  Na18  1  0.68195639  0.34938925  0.33023015  1
  Na  Na19  1  0.35356265  0.65903003  0.16105935  1
  Na  Na20  1  0.35900583  0.64856569  0.66792519  1
  Y  Y0  1  0.00915972  0.00434736  0.84732059  1
  Y  Y1  1  0.99846944  0.00589178  0.65178180  1
  Y  Y2  1  0.98922280  0.00690682  0.14778621  1
  Y  Y3  1  0.65993683  0.32227491  0.98706204  1
  Y  Y4  1  0.67159690  0.34516584  0.48331630  1
  Y  Y5  1  0.33051225  0.67177802  0.02105892  1
  Y  Y6  1  0.34734154  0.66986310  0.51575976  1
  Y  Y7  1  0.34280833  0.67715400  0.31865968  1
  Y  Y8  1  0.34107414  0.67822156  0.81576740  1
  Mg  Mg0  1  0.97389109  0.96867568  0.35160698  1
  Mg  Mg1  1  0.64808588  0.33301550  0.68519245  1
  Mg  Mg2  1  0.65855639  0.33606972  0.17608429  1
  Si  Si0  1  0.70029935  0.68969709  0.25064859  1
  Si  Si1  1  0.30661988  0.30409910  0.75052915  1
  Si  Si2  1  0.69911810  0.00911652  0.74896838  1
  Si  Si3  1  0.66873872  0.63339226  0.58728731  1
  Si  Si4  1  0.66534333  0.03665367  0.08655618  1
  Si  Si5  1  0.36869958  0.33304345  0.08542008  1
  Si  Si6  1  0.33102395  0.97231311  0.91730945  1
  Si  Si7  1  0.64350687  0.97453098  0.41585877  1
  Si  Si8  1  0.03658406  0.67220116  0.41687054  1
  S  S0  1  0.29412832  0.00375263  0.25183891  1
  S  S1  1  0.00003360  0.29631988  0.25406177  1
  S  S2  1  0.99576363  0.69488371  0.74781347  1
  S  S3  1  0.95967978  0.33574308  0.58551723  1
  S  S4  1  0.37230187  0.03686258  0.58495863  1
  S  S5  1  0.95911966  0.62524149  0.08720334  1
  S  S6  1  0.63240752  0.66778783  0.91692649  1
  S  S7  1  0.03444823  0.36944564  0.91500235  1
  S  S8  1  0.32590065  0.36048502  0.41458269  1
  O  O0  1  0.21293610  0.02269579  0.30357178  1
  O  O1  1  0.81135064  0.77816012  0.30784011  1
  O  O2  1  0.98556223  0.19859912  0.30622675  1
  O  O3  1  0.22478954  0.19279541  0.80879255  1
  O  O4  1  0.97028967  0.77736124  0.79800868  1
  O  O5  1  0.81002881  0.03162213  0.80674620  1
  O  O6  1  0.78228236  0.96993274  0.69325133  1
  O  O7  1  0.18127418  0.20810493  0.69757911  1
  O  O8  1  0.02705740  0.79849052  0.69575666  1
  O  O9  1  0.78521865  0.80855348  0.19442560  1
  O  O10  1  0.02632272  0.21844334  0.20275859  1
  O  O11  1  0.19603983  0.98399572  0.19973539  1
  O  O12  1  0.87539960  0.35075556  0.63653367  1
  O  O13  1  0.47424154  0.12139274  0.63530902  1
  O  O14  1  0.66174579  0.52672485  0.64350177  1
  O  O15  1  0.87936976  0.52830091  0.13927417  1
  O  O16  1  0.65086349  0.13262803  0.14311783  1
  O  O17  1  0.48327911  0.36195840  0.14177203  1
  O  O18  1  0.45287337  0.31328415  0.02599963  1
  O  O19  1  0.86117338  0.54882862  0.03507324  1
  O  O20  1  0.68580731  0.13496468  0.02631109  1
  O  O21  1  0.44737517  0.12917398  0.53115667  1
  O  O22  1  0.68642967  0.55002340  0.52752800  1
  O  O23  1  0.86202859  0.31469240  0.53243227  1
  O  O24  1  0.54751094  0.68516621  0.96817307  1
  O  O25  1  0.14021725  0.45338585  0.96465747  1
  O  O26  1  0.31927682  0.86461538  0.97426217  1
  O  O27  1  0.55707670  0.85427448  0.47209710  1
  O  O28  1  0.30111959  0.44132544  0.46544589  1
  O  O29  1  0.14598703  0.69020314  0.47472278  1
  O  O30  1  0.11888399  0.63463959  0.36064811  1
  O  O31  1  0.52513608  0.88818373  0.35991793  1
  O  O32  1  0.35875849  0.46629884  0.36305194  1
  O  O33  1  0.11226095  0.45895315  0.86112700  1
  O  O34  1  0.35107765  0.88377566  0.85937944  1
  O  O35  1  0.52965457  0.64244008  0.86483438  1
  O  O36  1  0.02922575  0.84359049  0.41177322  1
  O  O37  1  0.82807723  0.99867382  0.40998785  1
  O  O38  1  0.17944586  0.19745942  0.40761063  1
  O  O39  1  0.01463406  0.19925458  0.91350472  1
  O  O40  1  0.17140601  0.00111527  0.91642597  1
  O  O41  1  0.79183888  0.82184192  0.91166672  1
  O  O42  1  0.97731121  0.18627801  0.58771966  1
  O  O43  1  0.20302134  0.01000783  0.58915569  1
  O  O44  1  0.83915482  0.81865140  0.58566489  1
  O  O45  1  0.97897279  0.79422433  0.09077583  1
  O  O46  1  0.81530268  0.99251289  0.08603877  1
  O  O47  1  0.19418907  0.15691178  0.08906530  1
  O  O48  1  0.68730730  0.17719104  0.74090166  1
  O  O49  1  0.48894152  0.32387649  0.74523332  1
  O  O50  1  0.85089294  0.52987430  0.74245738  1
  O  O51  1  0.68637410  0.50656838  0.24483591  1
  O  O52  1  0.84934921  0.31004307  0.24840368  1
  O  O53  1  0.46209376  0.14758899  0.24757791  1
  O  O54  1  0.65317901  0.52151446  0.92143977  1
  O  O55  1  0.86948786  0.35175292  0.91963849  1
  O  O56  1  0.50280671  0.15568905  0.91704568  1
  O  O57  1  0.65137824  0.15353669  0.42176914  1
  O  O58  1  0.47315516  0.34050657  0.42197172  1
  O  O59  1  0.84927263  0.51114605  0.42008982  1
  O  O60  1  0.35312786  0.50003367  0.08039860  1
  O  O61  1  0.12613699  0.64613300  0.08249419  1
  O  O62  1  0.49188433  0.85409529  0.08442576  1
  O  O63  1  0.35857181  0.86965797  0.58193123  1
  O  O64  1  0.50893077  0.66346021  0.58533767  1
  O  O65  1  0.12258861  0.48759460  0.58043960  1
  O  O66  1  0.30737833  0.84914246  0.25503940  1
  O  O67  1  0.51263948  0.66835247  0.25298236  1
  O  O68  1  0.14672712  0.46634143  0.25651841  1
  O  O69  1  0.31856996  0.48600935  0.75382079  1
  O  O70  1  0.14371318  0.67670713  0.75545511  1
  O  O71  1  0.51348307  0.84510806  0.75257080  1
loop_
_geom_bond_atom_site_label_1
_geom_bond_atom_site_label_2
_geom_bond_distance
_geom_bond_site_symmetry_2
Na0 O16 2.576662 1_565
Na0 O52 2.614410 1_565
Na0 O67 2.685418 1_555
Na0 O53 2.693170 1_565
Na0 O66 2.748044 1_555
Na0 O9 2.892103 1_555
Na0 O31 2.967220 1_555
Na1 O17 2.391761 1_555
Na1 O51 2.392687 1_555
Na1 O67 2.393212 1_555
Na1 O53 2.546605 1_555
Na1 O68 2.863860 1_555
Na2 O51 2.389329 1_555
Na2 O52 2.635487 1_555
Na2 O68 2.720317 1_655
Na2 O66 2.744602 1_655
Na2 O30 2.781479 1_655
Na2 O1 2.803940 1_555
Na2 O15 2.866498 1_555
Na3 O14 2.432618 1_555
Na3 O49 2.454224 1_555
Na3 O69 2.527337 1_555
Na3 O50 2.689554 1_555
Na3 O71 2.754350 1_555
Na3 O6 2.973767 1_555
Na4 O48 2.501400 1_555
Na4 O69 2.667754 1_655
Na4 O50 2.696385 1_555
Na4 O70 2.741466 1_655
Na4 O12 2.829113 1_555
Na4 O7 2.860175 1_655
Na4 O5 2.869873 1_555
Na4 O33 2.871448 1_655
Na5 O48 2.454592 1_555
Na5 O49 2.466554 1_555
Na5 O71 2.488821 1_545
Na5 O34 2.688900 1_545
Na5 O13 2.920273 1_555
Na5 O70 2.922497 1_545
Na5 O3 2.953073 1_555
Na6 O44 2.426372 1_455
Na6 O43 2.611378 1_565
Na6 O65 2.616483 1_555
Na6 O29 2.657064 1_555
Na6 O63 2.843438 1_555
Na6 O22 2.875351 1_455
Na6 O8 2.957282 1_555
Na7 O64 2.339644 1_555
Na7 O44 2.455212 1_555
Na7 O63 2.628841 1_555
Na7 O42 2.630104 1_565
Na7 O6 2.689568 1_555
Na7 O27 2.823887 1_555
Na8 O47 2.409449 1_565
Na8 O62 2.478250 1_555
Na8 O26 2.711321 1_554
Na8 O61 2.829251 1_555
Na8 O45 2.852037 1_455
Na8 O18 2.893327 1_565
Na9 O46 2.430150 1_555
Na9 O60 2.510875 1_555
Na9 O9 2.595617 1_555
Na9 O62 2.611294 1_555
Na9 O45 2.722761 1_555
Na9 O17 2.911197 1_555
Na10 O56 2.473328 1_555
Na10 O55 2.607348 1_555
Na10 O41 2.634093 1_545
Na10 O39 2.708194 1_655
Na10 O20 2.722003 1_556
Na10 O5 2.817985 1_555
Na11 O40 2.330694 1_555
Na11 O56 2.418202 1_555
Na11 O18 2.668748 1_556
Na11 O54 2.686258 1_555
Na11 O39 2.715786 1_555
Na11 O3 2.758208 1_555
Na12 O37 2.424668 1_545
Na12 O57 2.508969 1_555
Na12 O2 2.623254 1_555
Na12 O59 2.666680 1_555
Na12 O38 2.676739 1_655
Na13 O36 2.445499 1_545
Na13 O57 2.651852 1_555
Na13 O58 2.695107 1_555
Na13 O38 2.729960 1_555
Na13 O0 2.800456 1_555
Na13 O31 2.892878 1_545
Na13 O21 2.960647 1_555
Na13 O29 2.967621 1_545
Na14 O59 2.484922 1_555
Na14 O36 2.497719 1_655
Na14 O37 2.546785 1_555
Na14 O1 2.617013 1_555
Na14 O22 2.870201 1_555
Na14 O58 2.935979 1_555
Na14 O27 2.990963 1_555
Na15 O36 2.418199 1_655
Na15 O37 2.463893 1_555
Na15 O44 2.571832 1_555
Na15 O38 2.804522 1_665
Na15 O42 2.971458 1_565
Na15 O43 2.984312 1_665
Na16 O47 2.465387 1_555
Na16 O40 2.571253 1_554
Na16 O46 2.591681 1_445
Na16 O45 2.750250 1_445
Na16 O39 2.752183 1_554
Na16 O41 2.969200 1_444
Na17 O49 2.451441 1_555
Na17 O48 2.484286 1_555
Na17 O56 2.521648 1_555
Na17 O50 2.793440 1_555
Na17 O55 2.897469 1_555
Na17 O54 2.936263 1_555
Na18 O51 2.455130 1_555
Na18 O59 2.605848 1_555
Na18 O52 2.606113 1_555
Na18 O57 2.724394 1_555
Na18 O53 2.772316 1_555
Na18 O58 2.868168 1_555
Na19 O60 2.393616 1_555
Na19 O62 2.412031 1_555
Na19 O67 2.586557 1_555
Na19 O61 2.770472 1_555
Na19 O68 2.906108 1_555
Na19 O66 2.982368 1_555
Na20 O64 2.341799 1_555
Na20 O69 2.419211 1_555
Na20 O71 2.595492 1_555
Na20 O65 2.837529 1_555
Na20 O63 2.873672 1_555
Na20 O70 2.969071 1_555
Mg0 O1 1.964077 1_555
Mg0 O37 2.042717 1_555
Mg0 O36 2.047279 1_655
Mg0 O0 2.326335 1_665
Mg0 O2 2.345321 1_565
Mg0 O38 2.434575 1_665
Mg1 O14 1.999073 1_555
Mg1 O49 2.014091 1_555
Mg1 O48 2.111843 1_555
Mg1 O13 2.177384 1_555
Mg1 O50 2.309696 1_555
Mg1 O12 2.346997 1_555
Mg2 O17 1.950812 1_555
Mg2 O16 2.019555 1_555
Mg2 O15 2.135420 1_555
Mg2 O51 2.182046 1_555
Mg2 O53 2.455364 1_555
Mg2 O52 2.557316 1_555
O0 S0 1.480115 1_555
O1 Si0 1.641503 1_555
O2 S1 1.481542 1_655
O3 Si1 1.644953 1_555
O3 Y0 2.112283 1_555
O4 S2 1.482703 1_555
O4 Y0 2.278747 1_665
O5 Si2 1.650129 1_555
O5 Y0 2.221061 1_655
O6 Si2 1.644346 1_565
O6 Y1 2.117479 1_565
O7 Si1 1.633994 1_555
O7 Y1 2.110680 1_455
O8 S2 1.483374 1_455
O8 Y1 2.320360 1_465
O9 Si0 1.640465 1_555
O9 Y2 2.179711 1_565
O10 S1 1.481072 1_555
O10 Y2 2.234526 1_455
O11 S0 1.478723 1_565
O11 Y2 2.387426 1_465
O12 S3 1.469837 1_555
O13 S4 1.472954 1_555
O14 Si3 1.623364 1_555
O15 S5 1.472157 1_555
O16 Si4 1.636123 1_555
O17 Si5 1.632817 1_555
O18 Si5 1.645950 1_555
O18 Y3 2.107830 1_554
O19 S5 1.477089 1_555
O19 Y3 2.314307 1_554
O20 Si4 1.631320 1_555
O20 Y3 2.091113 1_554
O21 S4 1.481769 1_555
O21 Y4 2.349574 1_555
O22 Si3 1.642039 1_555
O22 Y4 2.118118 1_555
O23 S3 1.493101 1_555
O23 Y4 2.257650 1_555
O24 S6 1.485728 1_555
O24 Y5 2.328463 1_556
O25 S7 1.473379 1_555
O25 Y5 2.342376 1_556
O26 Si6 1.631597 1_555
O26 Y5 2.150428 1_556
O27 Si7 1.648598 1_555
O27 Y6 2.122691 1_555
O28 S8 1.483218 1_555
O28 Y6 2.283150 1_555
O29 Si8 1.651616 1_555
O29 Y6 2.210761 1_555
O30 Si8 1.642046 1_555
O30 Y7 2.167991 1_555
O31 Si7 1.643012 1_555
O31 Y7 2.100432 1_555
O32 S8 1.483135 1_555
O32 Y7 2.292738 1_555
O33 S7 1.479639 1_555
O33 Y8 2.356467 1_555
O34 Si6 1.640634 1_555
O34 Y8 2.134846 1_555
O35 S6 1.494379 1_555
O35 Y8 2.268267 1_555
O36 Si8 1.641432 1_555
O37 Si7 1.639656 1_555
O38 S8 1.471964 1_555
O39 S7 1.507810 1_555
O39 Y0 2.367990 1_555
O40 Si6 1.649935 1_545
O40 Y0 2.226953 1_555
O41 S6 1.481375 1_555
O41 Y0 2.417654 1_665
O42 S3 1.486928 1_555
O42 Y1 2.328690 1_555
O43 S4 1.485358 1_555
O43 Y1 2.393969 1_455
O44 Si3 1.678386 1_555
O44 Y1 2.256071 1_565
O45 S5 1.498451 1_555
O45 Y2 2.353520 1_565
O46 Si4 1.652744 1_565
O46 Y2 2.130722 1_565
O47 Si5 1.652639 1_555
O47 Y2 2.201366 1_455
O48 Si2 1.639280 1_555
O49 Si1 1.633861 1_555
O50 S2 1.472779 1_555
O51 Si0 1.656701 1_555
O52 S1 1.489579 1_655
O53 S0 1.485014 1_555
O54 S6 1.477270 1_555
O54 Y3 2.430021 1_555
O55 S7 1.478785 1_655
O55 Y3 2.420471 1_555
O56 Si6 1.674141 1_545
O56 Y3 2.234900 1_555
O57 Si7 1.643902 1_545
O57 Y4 2.228354 1_555
O58 S8 1.495129 1_555
O58 Y4 2.332604 1_555
O59 Si8 1.656516 1_655
O59 Y4 2.184112 1_555
O60 Si5 1.642261 1_555
O60 Y5 2.203349 1_555
O61 S5 1.486126 1_455
O61 Y5 2.305900 1_555
O62 Si4 1.678220 1_565
O62 Y5 2.198040 1_555
O63 S4 1.505011 1_565
O63 Y6 2.383636 1_555
O64 Si3 1.659507 1_555
O64 Y6 2.241167 1_555
O65 S3 1.489362 1_455
O65 Y6 2.457028 1_555
O66 S0 1.512426 1_565
O66 Y7 2.324735 1_555
O67 Si0 1.674210 1_555
O67 Y7 2.237320 1_555
O68 S1 1.503200 1_555
O68 Y7 2.405966 1_555
O69 Si1 1.649598 1_555
O69 Y8 2.231897 1_555
O70 S2 1.492523 1_455
O70 Y8 2.321159 1_555
O71 Si2 1.658258 1_565
O71 Y8 2.166692 1_555
