# generated using pymatgen
data_RbMgRuO3
_symmetry_space_group_name_H-M   'P 1'
_cell_length_a   4.01252725
_cell_length_b   5.86582618
_cell_length_c   4.01252725
_cell_angle_alpha   108.59311035
_cell_angle_beta   90.36947826
_cell_angle_gamma   108.59311035
_symmetry_Int_Tables_number   1
_chemical_formula_structural   RbMgRuO3
_chemical_formula_sum   'Rb1 Mg1 Ru1 O3'
_cell_volume   84.22418765
_cell_formula_units_Z   1
loop_
 _symmetry_equiv_pos_site_id
 _symmetry_equiv_pos_as_xyz
  1  'x, y, z'
loop_
 _atom_site_type_symbol
 _atom_site_label
 _atom_site_symmetry_multiplicity
 _atom_site_fract_x
 _atom_site_fract_y
 _atom_site_fract_z
 _atom_site_occupancy
  Rb  Rb0  1  0.87895749  0.05376898  0.87895749  1
  Mg  Mg0  1  0.18507221  0.66434345  0.18507221  1
  Ru  Ru0  1  0.56181351  0.41747752  0.56181351  1
  O  O0  1  0.62215314  0.53567183  0.11546692  1
  O  O1  1  0.36986973  0.04306639  0.36986973  1
  O  O2  1  0.11546692  0.53567183  0.62215314  1
loop_
_geom_bond_atom_site_label_1
_geom_bond_atom_site_label_2
_geom_bond_distance
_geom_bond_site_symmetry_2
Mg0 O1 1.981624 1_565
Mg0 O2 2.107011 1_555
Mg0 O0 2.107011 1_555
Mg0 O2 2.125988 1_554
Mg0 O0 2.125988 1_455
O0 Ru0 2.092466 1_554
O0 Ru0 2.106482 1_555
O1 Ru0 1.960825 1_555
O1 Rb0 2.805678 1_454
O1 Rb0 2.847062 1_554
O1 Rb0 2.847062 1_455
O1 Rb0 2.851675 1_555
O2 Ru0 2.092466 1_455
O2 Ru0 2.106482 1_555
