# generated using pymatgen
data_Ce(SnIr)2
_symmetry_space_group_name_H-M   'P 1'
_cell_length_a   4.43123100
_cell_length_b   4.43123100
_cell_length_c   10.99761500
_cell_angle_alpha   90.00000000
_cell_angle_beta   90.00000000
_cell_angle_gamma   90.00000000
_symmetry_Int_Tables_number   1
_chemical_formula_structural   Ce(SnIr)2
_chemical_formula_sum   'Ce2 Sn4 Ir4'
_cell_volume   215.94705853
_cell_formula_units_Z   2
loop_
 _symmetry_equiv_pos_site_id
 _symmetry_equiv_pos_as_xyz
  1  'x, y, z'
loop_
 _atom_site_type_symbol
 _atom_site_label
 _atom_site_symmetry_multiplicity
 _atom_site_fract_x
 _atom_site_fract_y
 _atom_site_fract_z
 _atom_site_occupancy
  Ce  Ce0  1  0.00000000  0.50000000  0.75385700  1
  Ce  Ce1  1  0.50000000  0.00000000  0.24614300  1
  Sn  Sn0  1  0.00000000  0.50000000  0.13075300  1
  Sn  Sn1  1  0.00000000  0.00000000  0.50000000  1
  Sn  Sn2  1  0.50000000  0.00000000  0.86924700  1
  Sn  Sn3  1  0.50000000  0.50000000  0.50000000  1
  Ir  Ir0  1  0.00000000  0.50000000  0.36581500  1
  Ir  Ir1  1  0.00000000  0.00000000  0.00000000  1
  Ir  Ir2  1  0.50000000  0.00000000  0.63418500  1
  Ir  Ir3  1  0.50000000  0.50000000  0.00000000  1
loop_
_geom_bond_atom_site_label_1
_geom_bond_atom_site_label_2
_geom_bond_distance
_geom_bond_site_symmetry_2
Ce0 Sn2 3.380577 1_565
Ce0 Sn2 3.380577 1_455
Ce0 Sn2 3.380577 1_555
Ce0 Sn2 3.380577 1_465
Ce0 Ir2 3.398535 1_565
Ce0 Ir2 3.398535 1_465
Ce0 Ir2 3.398535 1_555
Ce0 Ir2 3.398535 1_455
Ce0 Ir3 3.498103 1_556
Ce0 Ir3 3.498103 1_456
Ce0 Ir1 3.498103 1_556
Ce0 Ir1 3.498103 1_566
Ce0 Sn3 3.564158 1_455
Ce0 Sn1 3.564158 1_565
Ce0 Sn3 3.564158 1_555
Ce0 Sn1 3.564158 1_555
Ce1 Sn0 3.380577 1_555
Ce1 Sn0 3.380577 1_545
Ce1 Sn0 3.380577 1_655
Ce1 Sn0 3.380577 1_645
Ce1 Ir0 3.398535 1_645
Ce1 Ir0 3.398535 1_655
Ce1 Ir0 3.398535 1_545
Ce1 Ir0 3.398535 1_555
Ce1 Ir1 3.498103 1_655
Ce1 Ir1 3.498103 1_555
Ce1 Ir3 3.498103 1_555
Ce1 Ir3 3.498103 1_545
Ce1 Sn1 3.564158 1_655
Ce1 Sn3 3.564158 1_555
Ce1 Sn3 3.564158 1_545
Ce1 Sn1 3.564158 1_555
Ir0 Sn0 2.585121 1_555
Ir0 Sn3 2.662083 1_455
Ir0 Sn1 2.662083 1_555
Ir0 Sn1 2.662083 1_565
Ir0 Sn3 2.662083 1_555
Ir1 Sn0 2.641347 1_555
Ir1 Sn0 2.641347 1_545
Ir1 Sn2 2.641347 1_554
Ir1 Sn2 2.641347 1_454
Ir2 Sn2 2.585121 1_555
Ir2 Sn1 2.662083 1_555
Ir2 Sn1 2.662083 1_655
Ir2 Sn3 2.662083 1_545
Ir2 Sn3 2.662083 1_555
Ir3 Sn2 2.641347 1_564
Ir3 Sn0 2.641347 1_555
Ir3 Sn0 2.641347 1_655
Ir3 Sn2 2.641347 1_554
