# generated using pymatgen
data_Hf2Ta2Si3(SO8)3
_symmetry_space_group_name_H-M   'P 1'
_cell_length_a   8.94967070
_cell_length_b   8.93024856
_cell_length_c   23.02732290
_cell_angle_alpha   90.58704525
_cell_angle_beta   90.04258343
_cell_angle_gamma   120.00088683
_symmetry_Int_Tables_number   1
_chemical_formula_structural   Hf2Ta2Si3(SO8)3
_chemical_formula_sum   'Hf6 Ta6 Si9 S9 O72'
_cell_volume   1593.70539677
_cell_formula_units_Z   3
loop_
 _symmetry_equiv_pos_site_id
 _symmetry_equiv_pos_as_xyz
  1  'x, y, z'
loop_
 _atom_site_type_symbol
 _atom_site_label
 _atom_site_symmetry_multiplicity
 _atom_site_fract_x
 _atom_site_fract_y
 _atom_site_fract_z
 _atom_site_occupancy
  Hf  Hf0  1  0.99016805  0.00827545  0.35727551  1
  Hf  Hf1  1  0.01389008  0.01315800  0.85405977  1
  Hf  Hf2  1  0.66776540  0.33841470  0.69140537  1
  Hf  Hf3  1  0.67815046  0.34423357  0.18734915  1
  Hf  Hf4  1  0.32025996  0.66613620  0.02371522  1
  Hf  Hf5  1  0.34847949  0.67035344  0.52729822  1
  Ta  Ta0  1  0.98608653  0.01011154  0.64353553  1
  Ta  Ta1  1  0.01115273  0.01568374  0.13896441  1
  Ta  Ta2  1  0.65580086  0.34006682  0.97581600  1
  Ta  Ta3  1  0.67629366  0.33053639  0.48230209  1
  Ta  Ta4  1  0.33276646  0.67119692  0.31116667  1
  Ta  Ta5  1  0.34189706  0.67946615  0.80586977  1
  Si  Si0  1  0.99915959  0.28771750  0.25009356  1
  Si  Si1  1  0.28700348  0.28780621  0.74950109  1
  Si  Si2  1  0.71753139  0.00614878  0.75162100  1
  Si  Si3  1  0.95836811  0.33960720  0.58575561  1
  Si  Si4  1  0.67596580  0.62125653  0.58493520  1
  Si  Si5  1  0.94991663  0.62080787  0.08297588  1
  Si  Si6  1  0.38764137  0.34176126  0.08389597  1
  Si  Si7  1  0.33271026  0.95221907  0.91691668  1
  Si  Si8  1  0.61571427  0.95676859  0.41800054  1
  S  S0  1  0.28470427  0.99804768  0.25005140  1
  S  S1  1  0.71090811  0.71502284  0.25044691  1
  S  S2  1  0.00348561  0.71660371  0.75019009  1
  S  S3  1  0.37795316  0.04968487  0.58343480  1
  S  S4  1  0.66870573  0.04848764  0.08267427  1
  S  S5  1  0.61857620  0.66827733  0.91602911  1
  S  S6  1  0.04274518  0.38128290  0.91647866  1
  S  S7  1  0.33795471  0.38339138  0.41599914  1
  S  S8  1  0.04572239  0.66526965  0.41631877  1
  O  O0  1  0.20430608  0.02092268  0.30250073  1
  O  O1  1  0.81991426  0.79335264  0.30278992  1
  O  O2  1  0.97940694  0.16926007  0.30573193  1
  O  O3  1  0.19841836  0.17038808  0.80620432  1
  O  O4  1  0.97645280  0.79416470  0.80299048  1
  O  O5  1  0.82751696  0.01954498  0.80830089  1
  O  O6  1  0.80330149  0.96530183  0.69334811  1
  O  O7  1  0.16070310  0.18731515  0.69299647  1
  O  O8  1  0.03689382  0.82244047  0.69834069  1
  O  O9  1  0.78581438  0.82111605  0.19902651  1
  O  O10  1  0.02747570  0.18708858  0.19392634  1
  O  O11  1  0.17320896  0.96382484  0.19776154  1
  O  O12  1  0.86312195  0.36212865  0.63988702  1
  O  O13  1  0.48740567  0.12431395  0.63451719  1
  O  O14  1  0.63865533  0.49902764  0.63900713  1
  O  O15  1  0.86411070  0.50277968  0.13970744  1
  O  O16  1  0.63978993  0.12405241  0.13578778  1
  O  O17  1  0.49406881  0.35326984  0.14134088  1
  O  O18  1  0.47565672  0.30205771  0.02641455  1
  O  O19  1  0.82733546  0.52297534  0.02605581  1
  O  O20  1  0.70288228  0.15753824  0.03152211  1
  O  O21  1  0.46291003  0.15976066  0.52999565  1
  O  O22  1  0.69279616  0.52072973  0.52502526  1
  O  O23  1  0.82929777  0.29973960  0.52628010  1
  O  O24  1  0.54010315  0.69040508  0.96882339  1
  O  O25  1  0.15253576  0.45874692  0.96911813  1
  O  O26  1  0.31537671  0.83783157  0.97299042  1
  O  O27  1  0.52065723  0.83340591  0.47111273  1
  O  O28  1  0.30095137  0.45734313  0.46720141  1
  O  O29  1  0.15236040  0.69456758  0.46726120  1
  O  O30  1  0.13013660  0.63570321  0.36276955  1
  O  O31  1  0.49321469  0.85428483  0.35934670  1
  O  O32  1  0.35906329  0.49292314  0.36346084  1
  O  O33  1  0.12167583  0.48769664  0.86538658  1
  O  O34  1  0.35915928  0.85189119  0.86040255  1
  O  O35  1  0.50702675  0.63191189  0.86408916  1
  O  O36  1  0.02691909  0.81666694  0.40384707  1
  O  O37  1  0.80379805  0.97589427  0.40608337  1
  O  O38  1  0.18662361  0.20774597  0.40560289  1
  O  O39  1  0.02057135  0.20651173  0.90994279  1
  O  O40  1  0.16802507  0.97556781  0.90765996  1
  O  O41  1  0.79256580  0.81348272  0.90820007  1
  O  O42  1  0.97338243  0.16354705  0.59139331  1
  O  O43  1  0.20676908  0.03153457  0.58972369  1
  O  O44  1  0.85121042  0.80878206  0.59422061  1
  O  O45  1  0.96547701  0.80997982  0.09858336  1
  O  O46  1  0.82561262  0.02856984  0.09278152  1
  O  O47  1  0.19316164  0.16348122  0.09336887  1
  O  O48  1  0.68705253  0.16315058  0.73958582  1
  O  O49  1  0.47516497  0.31523983  0.74004394  1
  O  O50  1  0.85375836  0.54249431  0.74380773  1
  O  O51  1  0.68564794  0.53971378  0.24358461  1
  O  O52  1  0.83318529  0.30798386  0.24059943  1
  O  O53  1  0.45741961  0.14409702  0.24166752  1
  O  O54  1  0.63488426  0.50625606  0.92393499  1
  O  O55  1  0.86922833  0.36196121  0.92698914  1
  O  O56  1  0.51081883  0.14435674  0.92864896  1
  O  O57  1  0.63320220  0.14722499  0.42640300  1
  O  O58  1  0.49136869  0.36604270  0.42268305  1
  O  O59  1  0.87231651  0.50840781  0.42248208  1
  O  O60  1  0.36109623  0.50088511  0.07052266  1
  O  O61  1  0.13989546  0.64828761  0.07429702  1
  O  O62  1  0.52181954  0.87327175  0.07450849  1
  O  O63  1  0.35756087  0.87704374  0.57265450  1
  O  O64  1  0.51197509  0.64746992  0.57317820  1
  O  O65  1  0.14010045  0.50060968  0.56827051  1
  O  O66  1  0.29975485  0.83638125  0.25927257  1
  O  O67  1  0.53419906  0.69425372  0.26108027  1
  O  O68  1  0.17298658  0.47927749  0.26409383  1
  O  O69  1  0.29826122  0.47526747  0.76490577  1
  O  O70  1  0.15845317  0.69381106  0.75958330  1
  O  O71  1  0.52455204  0.82714980  0.76029715  1
loop_
_geom_bond_atom_site_label_1
_geom_bond_atom_site_label_2
_geom_bond_distance
_geom_bond_site_symmetry_2
Hf0 O37 1.912059 1_545
Hf0 O2 1.912610 1_555
Hf0 O38 2.080216 1_655
Hf0 O1 2.145434 1_545
Hf0 O36 2.187707 1_645
Hf0 O0 2.250904 1_655
Hf1 O3 1.904924 1_555
Hf1 O5 1.997362 1_455
Hf1 O40 2.002012 1_545
Hf1 O39 2.119460 1_555
Hf1 O4 2.148687 1_445
Hf1 O41 2.274751 1_445
Hf2 O49 1.979727 1_555
Hf2 O14 1.997416 1_555
Hf2 O48 2.003967 1_555
Hf2 O12 2.036421 1_555
Hf2 O50 2.113422 1_555
Hf2 O13 2.199188 1_555
Hf3 O15 1.912099 1_555
Hf3 O17 1.993791 1_555
Hf3 O52 1.997087 1_555
Hf3 O51 2.136641 1_555
Hf3 O16 2.161090 1_555
Hf3 O53 2.275965 1_555
Hf4 O61 1.933140 1_555
Hf4 O26 1.954701 1_554
Hf4 O60 2.011089 1_555
Hf4 O25 2.105527 1_554
Hf4 O62 2.158559 1_555
Hf4 O24 2.258037 1_554
Hf5 O64 1.897403 1_555
Hf5 O65 1.967437 1_555
Hf5 O27 1.991577 1_555
Hf5 O63 2.077200 1_555
Hf5 O28 2.202396 1_555
Hf5 O29 2.328271 1_555
O0 S0 1.470168 1_545
O1 S1 1.480668 1_555
O2 Si0 1.622616 1_555
O3 Si1 1.622103 1_555
O4 S2 1.472187 1_655
O5 Si2 1.601208 1_555
O6 Si2 1.671651 1_565
O6 Ta0 1.873360 1_565
O7 Si1 1.653933 1_555
O7 Ta0 1.931575 1_455
O8 S2 1.466042 1_555
O8 Ta0 2.326548 1_465
O9 S1 1.462221 1_555
O9 Ta1 2.355464 1_665
O10 Si0 1.658017 1_455
O10 Ta1 1.924205 1_555
O11 S0 1.491526 1_555
O11 Ta1 2.198355 1_565
O12 Si3 1.577570 1_555
O13 S3 1.454901 1_555
O14 Si4 1.586593 1_555
O15 Si5 1.620977 1_555
O16 S4 1.475269 1_555
O17 Si6 1.601579 1_555
O18 Si6 1.664170 1_555
O18 Ta2 1.880350 1_554
O19 Si5 1.643387 1_555
O19 Ta2 1.952998 1_554
O20 S4 1.468177 1_555
O20 Ta2 2.282302 1_554
O21 S3 1.528866 1_555
O21 Ta3 2.074589 1_555
O22 Si4 1.685812 1_555
O22 Ta3 1.894512 1_555
O23 Si3 1.706805 1_555
O23 Ta3 1.832083 1_555
O24 S5 1.464708 1_555
O25 S6 1.488163 1_555
O26 Si7 1.613589 1_555
O27 Si8 1.589062 1_555
O28 S7 1.462637 1_555
O29 S8 1.448349 1_555
O30 S8 1.534659 1_555
O30 Ta4 2.058455 1_555
O31 Si8 1.683107 1_555
O31 Ta4 1.891756 1_555
O32 S7 1.515227 1_555
O32 Ta4 2.110352 1_555
O33 S6 1.462564 1_555
O33 Ta5 2.317833 1_555
O34 Si7 1.655590 1_555
O34 Ta5 1.921962 1_555
O35 S5 1.482795 1_555
O35 Ta5 2.190446 1_555
O36 S8 1.474502 1_555
O37 Si8 1.628519 1_555
O38 S7 1.489749 1_555
O39 S6 1.477626 1_555
O40 Si7 1.602810 1_555
O41 S5 1.457623 1_555
O42 Si3 1.649953 1_555
O42 Ta0 1.876539 1_555
O43 S3 1.465222 1_555
O43 Ta0 2.259088 1_455
O44 Si4 1.635724 1_555
O44 Ta0 1.940354 1_565
O45 Si5 1.659726 1_555
O45 Ta1 1.902567 1_665
O46 S4 1.519182 1_555
O46 Ta1 2.022997 1_655
O47 Si6 1.687690 1_555
O47 Ta1 1.838133 1_555
O48 Si2 1.583448 1_555
O49 Si1 1.591325 1_555
O50 S2 1.464999 1_655
O51 S1 1.472406 1_555
O52 Si0 1.598806 1_555
O53 S0 1.455056 1_545
O54 S5 1.537685 1_555
O54 Ta2 1.994673 1_555
O55 S6 1.494444 1_655
O55 Ta2 2.141289 1_555
O56 Si7 1.677106 1_545
O56 Ta2 1.899755 1_555
O57 Si8 1.637601 1_545
O57 Ta3 1.951972 1_555
O58 S7 1.464831 1_555
O58 Ta3 2.292317 1_555
O59 S8 1.490396 1_655
O59 Ta3 2.181748 1_555
O60 Si6 1.586511 1_555
O61 Si5 1.604762 1_455
O62 S4 1.465753 1_565
O63 S3 1.477352 1_565
O64 Si4 1.620622 1_555
O65 Si3 1.596549 1_455
O66 S0 1.532408 1_555
O66 Ta4 2.040276 1_555
O67 S1 1.517773 1_555
O67 Ta4 2.063809 1_555
O68 Si0 1.666472 1_455
O68 Ta4 1.914670 1_555
O69 Si1 1.660608 1_555
O69 Ta5 1.902543 1_555
O70 S2 1.514758 1_555
O70 Ta5 2.014536 1_555
O71 Si2 1.680541 1_565
O71 Ta5 1.840602 1_555
