# generated using pymatgen
data_Na5Ca2Ga2P3(SO8)3
_symmetry_space_group_name_H-M   'P 1'
_cell_length_a   9.13261171
_cell_length_b   9.08965900
_cell_length_c   22.47781370
_cell_angle_alpha   91.64511478
_cell_angle_beta   90.19087135
_cell_angle_gamma   120.37039640
_symmetry_Int_Tables_number   1
_chemical_formula_structural   Na5Ca2Ga2P3(SO8)3
_chemical_formula_sum   'Na15 Ca6 Ga6 P9 S9 O72'
_cell_volume   1608.87447629
_cell_formula_units_Z   3
loop_
 _symmetry_equiv_pos_site_id
 _symmetry_equiv_pos_as_xyz
  1  'x, y, z'
loop_
 _atom_site_type_symbol
 _atom_site_label
 _atom_site_symmetry_multiplicity
 _atom_site_fract_x
 _atom_site_fract_y
 _atom_site_fract_z
 _atom_site_occupancy
  Na  Na0  1  0.64767879  0.01282171  0.25392935  1
  Na  Na1  1  0.00046368  0.63161069  0.24352706  1
  Na  Na2  1  0.64153925  0.64127001  0.74507068  1
  Na  Na3  1  0.99280697  0.35669161  0.74927482  1
  Na  Na4  1  0.31068670  0.34313722  0.58659988  1
  Na  Na5  1  0.66550926  0.96459907  0.57736478  1
  Na  Na6  1  0.30368196  0.96456010  0.08003742  1
  Na  Na7  1  0.69432170  0.02537981  0.91291781  1
  Na  Na8  1  0.96923822  0.29935313  0.41318595  1
  Na  Na9  1  0.98268431  0.96628295  0.50061530  1
  Na  Na10  1  0.00451362  0.98926673  0.00238346  1
  Na  Na11  1  0.63135063  0.31125237  0.83520781  1
  Na  Na12  1  0.62995445  0.31845055  0.33723226  1
  Na  Na13  1  0.31513381  0.63255419  0.16691204  1
  Na  Na14  1  0.31972823  0.67161833  0.66768176  1
  Ca  Ca0  1  0.00401427  0.00064302  0.35246652  1
  Ca  Ca1  1  0.01882363  0.00727139  0.85485064  1
  Ca  Ca2  1  0.66359179  0.32942848  0.68529809  1
  Ca  Ca3  1  0.66714051  0.33390480  0.18369968  1
  Ca  Ca4  1  0.32558999  0.65980141  0.01925275  1
  Ca  Ca5  1  0.33332672  0.66735663  0.51668910  1
  Ga  Ga0  1  0.98334082  0.00539224  0.65123259  1
  Ga  Ga1  1  0.00763706  0.99525312  0.15426649  1
  Ga  Ga2  1  0.66882850  0.34586703  0.98420948  1
  Ga  Ga3  1  0.67258471  0.32839091  0.48805882  1
  Ga  Ga4  1  0.33232741  0.67576391  0.31615256  1
  Ga  Ga5  1  0.34758257  0.68482648  0.81516343  1
  P  P0  1  0.29601739  0.98725240  0.25005672  1
  P  P1  1  0.01734201  0.30056752  0.25204249  1
  P  P2  1  0.28895650  0.30772350  0.74936019  1
  P  P3  1  0.69638788  0.98900649  0.75335259  1
  P  P4  1  0.96281770  0.32173048  0.58552838  1
  P  P5  1  0.68310732  0.63430964  0.58504224  1
  P  P6  1  0.95420407  0.64098303  0.08657722  1
  P  P7  1  0.35455166  0.97543417  0.92238096  1
  P  P8  1  0.62405224  0.97620975  0.41887077  1
  S  S0  1  0.69489962  0.71073526  0.24908372  1
  S  S1  1  0.01728027  0.71423472  0.74888019  1
  S  S2  1  0.36040700  0.04298447  0.58105895  1
  S  S3  1  0.68591351  0.04070154  0.08211714  1
  S  S4  1  0.36383479  0.32048771  0.08234000  1
  S  S5  1  0.62337988  0.65312870  0.91519330  1
  S  S6  1  0.02040764  0.37506144  0.91388601  1
  S  S7  1  0.35202341  0.38027327  0.41648059  1
  S  S8  1  0.02606352  0.65312459  0.41513163  1
  O  O0  1  0.20971840  0.00671965  0.30382182  1
  O  O1  1  0.79349963  0.78610273  0.30389725  1
  O  O2  1  0.98037801  0.20154740  0.30886999  1
  O  O3  1  0.20595100  0.20129550  0.80197090  1
  O  O4  1  0.99060528  0.78721347  0.80327272  1
  O  O5  1  0.79840255  0.00559532  0.80892967  1
  O  O6  1  0.77890963  0.95494464  0.69581045  1
  O  O7  1  0.17464408  0.21938935  0.69008068  1
  O  O8  1  0.03421431  0.81584030  0.69578750  1
  O  O9  1  0.78278872  0.82155273  0.19706220  1
  O  O10  1  0.03831636  0.20103704  0.19694359  1
  O  O11  1  0.18532285  0.95751551  0.19125674  1
  O  O12  1  0.88667845  0.34194913  0.64268043  1
  O  O13  1  0.45926282  0.11661762  0.63609431  1
  O  O14  1  0.64880146  0.53575981  0.64181699  1
  O  O15  1  0.88483636  0.55238128  0.14452676  1
  O  O16  1  0.66075244  0.11757118  0.13679929  1
  O  O17  1  0.46040720  0.34290909  0.13673178  1
  O  O18  1  0.45042669  0.29468083  0.02878901  1
  O  O19  1  0.83336646  0.54160522  0.03103855  1
  O  O20  1  0.69975963  0.14431412  0.02886098  1
  O  O21  1  0.45149369  0.15448426  0.52935245  1
  O  O22  1  0.70208230  0.53415302  0.52980586  1
  O  O23  1  0.84619452  0.29347443  0.52884472  1
  O  O24  1  0.53939298  0.67652041  0.96642267  1
  O  O25  1  0.12386667  0.45712305  0.96678074  1
  O  O26  1  0.34089262  0.88325881  0.97892124  1
  O  O27  1  0.54787671  0.88183989  0.47529422  1
  O  O28  1  0.33173933  0.45089764  0.47348298  1
  O  O29  1  0.12854138  0.67342303  0.46769081  1
  O  O30  1  0.10884430  0.62995691  0.35946013  1
  O  O31  1  0.51075540  0.88186948  0.36058696  1
  O  O32  1  0.36418073  0.48915156  0.36546158  1
  O  O33  1  0.10341361  0.46800103  0.85847999  1
  O  O34  1  0.38837304  0.88134135  0.86682987  1
  O  O35  1  0.52212327  0.62937292  0.85809372  1
  O  O36  1  0.00019943  0.79913907  0.41209135  1
  O  O37  1  0.80531402  0.00722181  0.41298794  1
  O  O38  1  0.19700118  0.20946524  0.41109855  1
  O  O39  1  0.98556496  0.19652689  0.91168767  1
  O  O40  1  0.20403964  0.00067184  0.91519772  1
  O  O41  1  0.79369274  0.80835870  0.91245390  1
  O  O42  1  0.96597297  0.14712082  0.58655220  1
  O  O43  1  0.19393952  0.03660009  0.58326291  1
  O  O44  1  0.84999999  0.81627092  0.58970654  1
  O  O45  1  0.97088598  0.82503609  0.08927480  1
  O  O46  1  0.84358592  0.03086867  0.08593703  1
  O  O47  1  0.19476147  0.15611472  0.08402774  1
  O  O48  1  0.68258716  0.14897629  0.74837828  1
  O  O49  1  0.47245127  0.34757182  0.74405879  1
  O  O50  1  0.86783688  0.53768352  0.74363969  1
  O  O51  1  0.67097681  0.53872327  0.24261063  1
  O  O52  1  0.86561027  0.32942986  0.24282151  1
  O  O53  1  0.47968392  0.13510900  0.24621743  1
  O  O54  1  0.63715007  0.49588934  0.91917495  1
  O  O55  1  0.85025154  0.36577344  0.91773392  1
  O  O56  1  0.52831414  0.15692193  0.92496775  1
  O  O57  1  0.63882806  0.15985990  0.42269551  1
  O  O58  1  0.50781992  0.36682209  0.41840171  1
  O  O59  1  0.85818610  0.48805695  0.41742506  1
  O  O60  1  0.33895567  0.46690752  0.07715162  1
  O  O61  1  0.13461802  0.67050851  0.07895804  1
  O  O62  1  0.53295672  0.86790936  0.07730038  1
  O  O63  1  0.33812788  0.87120273  0.57485586  1
  O  O64  1  0.53115533  0.66381885  0.57687314  1
  O  O65  1  0.14562896  0.46932545  0.57985450  1
  O  O66  1  0.30254671  0.81424930  0.25313273  1
  O  O67  1  0.52663491  0.70413392  0.25183283  1
  O  O68  1  0.18417562  0.48306709  0.25739445  1
  O  O69  1  0.29298675  0.48672277  0.75482182  1
  O  O70  1  0.17397859  0.69802376  0.75327463  1
  O  O71  1  0.51650899  0.81924522  0.75426627  1
loop_
_geom_bond_atom_site_label_1
_geom_bond_atom_site_label_2
_geom_bond_distance
_geom_bond_site_symmetry_2
Na0 O53 2.313695 1_555
Na0 O67 2.439832 1_545
Na0 O52 2.560946 1_555
Na0 O31 2.721567 1_545
Na0 O66 2.727281 1_545
Na0 O16 2.807789 1_555
Na0 O9 2.869005 1_545
Na0 O2 2.877964 1_555
Na1 O52 2.374505 1_455
Na1 O15 2.389369 1_455
Na1 O66 2.399573 1_555
Na1 O68 2.654521 1_555
Na1 O51 2.682800 1_455
Na1 O30 2.787627 1_555
Na1 O11 2.856954 1_555
Na2 O49 2.310782 1_555
Na2 O71 2.411192 1_555
Na2 O14 2.499675 1_555
Na2 O50 2.669299 1_555
Na2 O6 2.739128 1_555
Na2 O35 2.751406 1_555
Na2 O69 2.766738 1_555
Na3 O69 2.375035 1_655
Na3 O50 2.436136 1_555
Na3 O48 2.486019 1_555
Na3 O12 2.555970 1_555
Na3 O33 2.622402 1_655
Na3 O70 2.676552 1_655
Na3 O7 2.846188 1_655
Na4 O65 2.316828 1_555
Na4 O43 2.426822 1_555
Na4 O64 2.589074 1_555
Na4 O7 2.641132 1_555
Na4 O42 2.722751 1_455
Na4 O28 2.723443 1_555
Na4 O21 2.892070 1_555
Na4 O14 2.919551 1_555
Na5 O64 2.363563 1_555
Na5 O42 2.387037 1_565
Na5 O27 2.459922 1_555
Na5 O44 2.654989 1_555
Na5 O63 2.663198 1_555
Na5 O23 2.838998 1_565
Na5 O6 2.873251 1_555
Na6 O61 2.313351 1_555
Na6 O47 2.402532 1_565
Na6 O26 2.447487 1_554
Na6 O45 2.647747 1_455
Na6 O62 2.649102 1_555
Na6 O11 2.716532 1_555
Na6 O18 2.875682 1_565
Na7 O39 2.305298 1_555
Na7 O56 2.370368 1_555
Na7 O41 2.554239 1_545
Na7 O5 2.561820 1_555
Na7 O34 2.607327 1_545
Na7 O55 2.671565 1_555
Na7 O20 2.783213 1_556
Na8 O37 2.296043 1_555
Na8 O59 2.393757 1_555
Na8 O2 2.504421 1_555
Na8 O38 2.591029 1_655
Na8 O57 2.628648 1_555
Na8 O23 2.826842 1_555
Na8 O30 2.908410 1_655
Na9 O44 2.416638 1_555
Na9 O43 2.498596 1_665
Na9 O36 2.523387 1_655
Na9 O42 2.555368 1_565
Na9 O37 2.696730 1_565
Na9 O38 2.944913 1_665
Na10 O47 2.416858 1_565
Na10 O45 2.417707 1_455
Na10 O46 2.523853 1_465
Na10 O40 2.648807 1_564
Na10 O41 2.660625 1_454
Na10 O39 2.878022 1_464
Na11 O56 2.400928 1_555
Na11 O54 2.471700 1_555
Na11 O55 2.569806 1_555
Na11 O48 2.596664 1_555
Na11 O49 2.629835 1_555
Na11 O50 2.985802 1_555
Na12 O58 2.286853 1_555
Na12 O57 2.459883 1_555
Na12 O53 2.513745 1_555
Na12 O59 2.556676 1_555
Na12 O51 2.857298 1_555
Na12 O52 2.995103 1_555
Na13 O68 2.438207 1_555
Na13 O67 2.535986 1_555
Na13 O66 2.550793 1_555
Na13 O60 2.558298 1_555
Na13 O61 2.708869 1_555
Na13 O62 2.926097 1_555
Na14 O70 2.417543 1_555
Na14 O71 2.491259 1_555
Na14 O69 2.549104 1_555
Na14 O65 2.573096 1_555
Na14 O63 2.753978 1_555
Na14 O64 2.838329 1_555
Ca0 O0 2.154080 1_555
Ca0 O1 2.182583 1_445
Ca0 O2 2.200382 1_455
Ca0 O38 2.214545 1_555
Ca0 O36 2.286689 1_545
Ca0 O37 2.295365 1_455
Ca1 O3 2.128372 1_555
Ca1 O4 2.180630 1_445
Ca1 O40 2.190158 1_555
Ca1 O5 2.252147 1_455
Ca1 O39 2.255774 1_455
Ca1 O41 2.359239 1_445
Ca2 O13 2.158846 1_555
Ca2 O14 2.202598 1_555
Ca2 O12 2.205964 1_555
Ca2 O50 2.247922 1_555
Ca2 O49 2.261163 1_555
Ca2 O48 2.269491 1_555
Ca3 O16 2.178547 1_555
Ca3 O15 2.188937 1_555
Ca3 O17 2.198593 1_555
Ca3 O51 2.238957 1_555
Ca3 O52 2.261557 1_555
Ca3 O53 2.281348 1_555
Ca4 O25 2.146602 1_554
Ca4 O26 2.187808 1_554
Ca4 O24 2.229706 1_554
Ca4 O61 2.243229 1_555
Ca4 O62 2.255353 1_555
Ca4 O60 2.264777 1_555
Ca5 O28 2.162396 1_555
Ca5 O27 2.181624 1_555
Ca5 O29 2.192681 1_555
Ca5 O63 2.218773 1_555
Ca5 O64 2.267204 1_555
Ca5 O65 2.288516 1_555
Ga0 O6 1.968024 1_545
Ga0 O7 2.013568 1_655
Ga0 O44 2.021425 1_545
Ga0 O42 2.027599 1_555
Ga0 O8 2.256741 1_645
Ga0 O43 2.367825 1_655
Ga1 O10 1.965393 1_565
Ga1 O45 1.995625 1_455
Ga1 O11 2.003123 1_555
Ga1 O9 2.111127 1_455
Ga1 O47 2.274842 1_565
Ga1 O46 2.283001 1_465
Ga2 O19 1.926147 1_556
Ga2 O56 1.999586 1_555
Ga2 O18 2.073795 1_556
Ga2 O54 2.142607 1_555
Ga2 O55 2.177045 1_555
Ga2 O20 2.251785 1_556
Ga3 O22 1.959401 1_555
Ga3 O23 1.992714 1_555
Ga3 O57 1.997639 1_555
Ga3 O21 2.075220 1_555
Ga3 O59 2.272204 1_555
Ga3 O58 2.320563 1_555
Ga4 O31 1.989335 1_555
Ga4 O68 2.025307 1_555
Ga4 O66 2.027590 1_555
Ga4 O30 2.112774 1_555
Ga4 O32 2.189767 1_555
Ga4 O67 2.209411 1_555
Ga5 O34 1.970623 1_555
Ga5 O71 1.987632 1_555
Ga5 O69 2.068376 1_555
Ga5 O35 2.134539 1_555
Ga5 O70 2.156501 1_555
Ga5 O33 2.342112 1_555
O0 P0 1.499360 1_545
O1 S0 1.455533 1_555
O2 P1 1.522287 1_655
O3 P2 1.496364 1_555
O4 S1 1.453623 1_655
O5 P3 1.513517 1_545
O6 P3 1.598816 1_555
O7 P2 1.609893 1_555
O8 S1 1.490366 1_555
O9 S0 1.510816 1_555
O10 P1 1.581625 1_555
O11 P0 1.592544 1_555
O12 P4 1.513022 1_555
O13 S2 1.458561 1_555
O14 P5 1.521091 1_555
O15 P6 1.515413 1_555
O16 S3 1.471973 1_555
O17 S4 1.452898 1_555
O18 S4 1.518891 1_555
O19 P6 1.584413 1_555
O20 S3 1.510400 1_555
O21 S2 1.513788 1_555
O22 P5 1.580016 1_555
O23 P4 1.587231 1_555
O24 S5 1.454741 1_555
O25 S6 1.446268 1_555
O26 P7 1.513025 1_555
O27 P8 1.514340 1_555
O28 S7 1.470620 1_555
O29 S8 1.452992 1_555
O30 S8 1.527737 1_555
O31 P8 1.597359 1_555
O32 S7 1.503932 1_555
O33 S6 1.502831 1_555
O34 P7 1.610727 1_555
O35 S5 1.524250 1_555
O36 S8 1.464269 1_555
O37 P8 1.539162 1_545
O38 S7 1.481537 1_555
O39 S6 1.486730 1_655
O40 P7 1.512492 1_545
O41 S5 1.483374 1_555
O42 P4 1.602722 1_555
O43 S2 1.492829 1_555
O44 P5 1.584160 1_555
O45 P6 1.600667 1_555
O46 S3 1.489498 1_555
O47 S4 1.512879 1_555
O48 P3 1.528812 1_545
O49 P2 1.530914 1_555
O50 S1 1.491742 1_655
O51 S0 1.467938 1_555
O52 P1 1.549445 1_655
O53 P0 1.534710 1_545
O54 S5 1.501867 1_555
O55 S6 1.515944 1_655
O56 P7 1.609285 1_545
O57 P8 1.605031 1_545
O58 S7 1.488979 1_555
O59 S8 1.511077 1_655
O60 S4 1.466646 1_555
O61 P6 1.540615 1_455
O62 S3 1.483444 1_565
O63 S2 1.471389 1_565
O64 P5 1.552077 1_555
O65 P4 1.532929 1_455
O66 P0 1.606938 1_555
O67 S0 1.508795 1_555
O68 P1 1.587235 1_555
O69 P2 1.609857 1_555
O70 S1 1.514113 1_555
O71 P3 1.587129 1_555
