# generated using pymatgen
data_Na9Nb7Zn5(PO4)18
_symmetry_space_group_name_H-M   'P 1'
_cell_length_a   8.86445204
_cell_length_b   8.83035896
_cell_length_c   22.54628644
_cell_angle_alpha   89.97521043
_cell_angle_beta   90.18003267
_cell_angle_gamma   119.94933665
_symmetry_Int_Tables_number   1
_chemical_formula_structural   Na9Nb7Zn5(PO4)18
_chemical_formula_sum   'Na9 Nb7 Zn5 P18 O72'
_cell_volume   1529.16685458
_cell_formula_units_Z   1
loop_
 _symmetry_equiv_pos_site_id
 _symmetry_equiv_pos_as_xyz
  1  'x, y, z'
loop_
 _atom_site_type_symbol
 _atom_site_label
 _atom_site_symmetry_multiplicity
 _atom_site_fract_x
 _atom_site_fract_y
 _atom_site_fract_z
 _atom_site_occupancy
  Na  Na0  1  0.98548676  0.63036073  0.24449056  1
  Na  Na1  1  0.65373912  0.68917926  0.07783160  1
  Na  Na2  1  0.32081857  0.29806572  0.91162427  1
  Na  Na3  1  0.00018836  0.99971303  0.49374542  1
  Na  Na4  1  0.99691670  0.99591571  0.98856858  1
  Na  Na5  1  0.67784087  0.33502532  0.82101325  1
  Na  Na6  1  0.65291412  0.32061628  0.32373628  1
  Na  Na7  1  0.33034395  0.66716295  0.15430315  1
  Na  Na8  1  0.33358460  0.66655923  0.67043907  1
  Nb  Nb0  1  0.99972062  0.00001652  0.64995705  1
  Nb  Nb1  1  0.00546110  0.00747088  0.14537565  1
  Nb  Nb2  1  0.67141293  0.33107683  0.97861808  1
  Nb  Nb3  1  0.66741843  0.33415324  0.47871303  1
  Nb  Nb4  1  0.33281339  0.66676708  0.52125042  1
  Nb  Nb5  1  0.33909636  0.66737747  0.30952907  1
  Nb  Nb6  1  0.33293047  0.66921434  0.81263105  1
  Zn  Zn0  1  0.00089162  0.00106385  0.35346414  1
  Zn  Zn1  1  0.99207836  0.99277051  0.84985328  1
  Zn  Zn2  1  0.66597322  0.33305745  0.68520129  1
  Zn  Zn3  1  0.65917405  0.32555582  0.18330337  1
  Zn  Zn4  1  0.32633712  0.66755360  0.01637924  1
  P  P0  1  0.29333751  0.00763161  0.25340592  1
  P  P1  1  0.71369666  0.71065226  0.25118900  1
  P  P2  1  0.99493654  0.28623526  0.25367103  1
  P  P3  1  0.29582815  0.29208853  0.75398938  1
  P  P4  1  0.99613388  0.70473225  0.75267054  1
  P  P5  1  0.70949823  0.00411595  0.75279501  1
  P  P6  1  0.95449462  0.33127121  0.58462356  1
  P  P7  1  0.37669060  0.04679568  0.58453822  1
  P  P8  1  0.66885169  0.62359737  0.58468866  1
  P  P9  1  0.96204492  0.62322537  0.08731089  1
  P  P10  1  0.66380856  0.04084153  0.08605279  1
  P  P11  1  0.37812307  0.33555990  0.08371095  1
  P  P12  1  0.62840645  0.67221112  0.92028521  1
  P  P13  1  0.04445106  0.37561280  0.91790666  1
  P  P14  1  0.33014103  0.95593544  0.91890448  1
  P  P15  1  0.62416647  0.95568000  0.41708447  1
  P  P16  1  0.33177800  0.37537714  0.41697922  1
  P  P17  1  0.04420759  0.66782347  0.41573509  1
  O  O0  1  0.20833187  0.02372360  0.30851907  1
  O  O1  1  0.82517003  0.79419702  0.30513470  1
  O  O2  1  0.97373000  0.18238405  0.30845696  1
  O  O3  1  0.21439750  0.19332626  0.81031746  1
  O  O4  1  0.97889999  0.79138510  0.80697253  1
  O  O5  1  0.81546755  0.02554198  0.80692937  1
  O  O6  1  0.80321360  0.97461090  0.69534285  1
  O  O7  1  0.16951874  0.19383817  0.69762515  1
  O  O8  1  0.02408517  0.82700592  0.69507831  1
  O  O9  1  0.79638161  0.82517037  0.19354390  1
  O  O10  1  0.02539333  0.19853378  0.19675040  1
  O  O11  1  0.16957966  0.97073276  0.19703530  1
  O  O12  1  0.88502351  0.37097866  0.63886523  1
  O  O13  1  0.48570852  0.11576801  0.63901747  1
  O  O14  1  0.62980317  0.51418415  0.63896670  1
  O  O15  1  0.88212322  0.52782896  0.14466384  1
  O  O16  1  0.64372429  0.12346240  0.14097969  1
  O  O17  1  0.49150502  0.36652086  0.13737920  1
  O  O18  1  0.46204742  0.30418177  0.02630783  1
  O  O19  1  0.83460032  0.52865991  0.03249682  1
  O  O20  1  0.69134356  0.15874515  0.02934511  1
  O  O21  1  0.46990786  0.16167982  0.52793864  1
  O  O22  1  0.69135112  0.53083847  0.52796193  1
  O  O23  1  0.83904294  0.30821795  0.52786355  1
  O  O24  1  0.54820927  0.68741476  0.97761112  1
  O  O25  1  0.15634027  0.45611263  0.97202548  1
  O  O26  1  0.30907268  0.85251898  0.97387835  1
  O  O27  1  0.52207440  0.84361274  0.47160358  1
  O  O28  1  0.32238264  0.47749187  0.47171434  1
  O  O29  1  0.15807629  0.67755689  0.47015581  1
  O  O30  1  0.12929141  0.63942732  0.35945755  1
  O  O31  1  0.50621930  0.86520838  0.36152716  1
  O  O32  1  0.35941315  0.49407471  0.36169704  1
  O  O33  1  0.13378871  0.49594167  0.86160884  1
  O  O34  1  0.35815755  0.86626733  0.86223785  1
  O  O35  1  0.50043008  0.63765305  0.86558826  1
  O  O36  1  0.02559054  0.82754101  0.41539637  1
  O  O37  1  0.80071727  0.97247872  0.41536813  1
  O  O38  1  0.17244514  0.19800345  0.41530026  1
  O  O39  1  0.01829098  0.19389406  0.90944389  1
  O  O40  1  0.18437547  0.99720511  0.91113923  1
  O  O41  1  0.80977138  0.82252140  0.91166758  1
  O  O42  1  0.97445507  0.16656802  0.58774286  1
  O  O43  1  0.19285167  0.02712942  0.58774601  1
  O  O44  1  0.83330590  0.80780281  0.58780273  1
  O  O45  1  0.96396326  0.80625646  0.08956097  1
  O  O46  1  0.83972046  0.03077398  0.08955960  1
  O  O47  1  0.19482584  0.16207703  0.09051856  1
  O  O48  1  0.67921597  0.15530289  0.74249961  1
  O  O49  1  0.47487184  0.31848975  0.74353332  1
  O  O50  1  0.84493606  0.52361664  0.74281735  1
  O  O51  1  0.68439568  0.52703517  0.24387423  1
  O  O52  1  0.85076078  0.32940563  0.24535949  1
  O  O53  1  0.47602242  0.15541484  0.24476512  1
  O  O54  1  0.63136329  0.49142799  0.92320726  1
  O  O55  1  0.86222846  0.36727495  0.92366347  1
  O  O56  1  0.50660956  0.14225372  0.92296788  1
  O  O57  1  0.63132566  0.13628223  0.42338647  1
  O  O58  1  0.50450734  0.36793715  0.42336464  1
  O  O59  1  0.86348450  0.49531866  0.42388692  1
  O  O60  1  0.35074357  0.49104242  0.07645384  1
  O  O61  1  0.14313793  0.65386230  0.07841050  1
  O  O62  1  0.51760538  0.85369690  0.07819400  1
  O  O63  1  0.34784705  0.85790377  0.57206536  1
  O  O64  1  0.50942462  0.65216009  0.57223701  1
  O  O65  1  0.14230488  0.49090092  0.57212312  1
  O  O66  1  0.29604262  0.82547389  0.25660493  1
  O  O67  1  0.52902811  0.69986573  0.25696647  1
  O  O68  1  0.17197552  0.47358560  0.25712560  1
  O  O69  1  0.30133943  0.47492748  0.75559387  1
  O  O70  1  0.17357096  0.69989346  0.75527641  1
  O  O71  1  0.52740385  0.82651722  0.75621059  1
loop_
_geom_bond_atom_site_label_1
_geom_bond_atom_site_label_2
_geom_bond_distance
_geom_bond_site_symmetry_2
Na0 O52 2.306585 1_555
Na0 O51 2.350441 1_555
Na0 O66 2.425173 1_655
Na0 O15 2.426008 1_555
Na0 O68 2.648058 1_655
Na0 O11 2.819999 1_655
Na0 O1 2.837055 1_555
Na0 O30 2.868411 1_655
Na1 O62 2.305925 1_555
Na1 O60 2.362958 1_555
Na1 O45 2.420347 1_555
Na1 O24 2.439943 1_554
Na1 O46 2.630442 1_565
Na1 O19 2.811553 1_555
Na1 O17 2.811798 1_555
Na1 O9 2.883233 1_555
Na2 O40 2.304926 1_545
Na2 O39 2.361450 1_555
Na2 O54 2.421639 1_555
Na2 O3 2.465674 1_555
Na2 O56 2.632565 1_555
Na2 O35 2.800892 1_555
Na2 O25 2.823810 1_555
Na2 O18 2.858018 1_556
Na3 O36 2.414381 1_555
Na3 O37 2.421410 1_455
Na3 O38 2.422882 1_565
Na3 O43 2.651782 1_565
Na3 O42 2.656245 1_465
Na3 O44 2.659106 1_455
Na4 O41 2.355988 1_555
Na4 O40 2.410059 1_655
Na4 O39 2.437911 1_665
Na4 O45 2.754506 1_556
Na4 O46 2.769456 1_566
Na4 O47 2.814530 1_666
Na5 O50 2.372027 1_555
Na5 O48 2.382062 1_555
Na5 O49 2.455248 1_555
Na5 O55 2.760630 1_555
Na5 O56 2.815012 1_555
Na5 O54 2.821855 1_555
Na6 O53 2.336193 1_555
Na6 O52 2.467378 1_555
Na6 O51 2.476866 1_555
Na6 O57 2.724428 1_555
Na6 O58 2.742108 1_555
Na6 O59 2.839735 1_555
Na7 O61 2.341632 1_555
Na7 O62 2.387180 1_555
Na7 O60 2.411908 1_555
Na7 O66 2.792555 1_555
Na7 O68 2.808570 1_555
Na7 O67 2.830225 1_555
Na8 O69 2.479712 1_555
Na8 O70 2.488311 1_555
Na8 O71 2.499018 1_555
Na8 O65 2.747346 1_555
Na8 O64 2.750966 1_555
Na8 O63 2.752354 1_555
Nb0 O8 1.934507 1_645
Nb0 O6 1.937152 1_545
Nb0 O7 1.941425 1_655
Nb0 O42 2.122695 1_555
Nb0 O44 2.123645 1_545
Nb0 O43 2.135692 1_655
Nb1 O10 1.980442 1_555
Nb1 O47 1.983616 1_555
Nb1 O11 2.009630 1_545
Nb1 O46 2.018562 1_455
Nb1 O45 2.054835 1_445
Nb1 O9 2.058640 1_445
Nb2 O20 1.980068 1_556
Nb2 O55 1.992843 1_555
Nb2 O56 2.011666 1_555
Nb2 O19 2.020664 1_556
Nb2 O54 2.046790 1_555
Nb2 O18 2.056489 1_556
Nb3 O22 1.981595 1_555
Nb3 O23 1.982945 1_555
Nb3 O21 1.991236 1_555
Nb3 O59 2.028885 1_555
Nb3 O58 2.037213 1_555
Nb3 O57 2.037783 1_555
Nb4 O29 1.967601 1_555
Nb4 O28 1.973841 1_555
Nb4 O27 1.975002 1_555
Nb4 O63 1.988764 1_555
Nb4 O65 1.992798 1_555
Nb4 O64 1.994816 1_555
Nb5 O67 1.962490 1_555
Nb5 O68 1.994620 1_555
Nb5 O31 2.006915 1_555
Nb5 O32 2.007501 1_555
Nb5 O66 2.011495 1_555
Nb5 O30 2.083650 1_555
Nb6 O34 1.985018 1_555
Nb6 O33 1.997661 1_555
Nb6 O35 2.027223 1_555
Nb6 O70 2.027671 1_555
Nb6 O71 2.034892 1_555
Nb6 O69 2.048283 1_555
O0 P0 1.498330 1_555
O0 Zn0 2.022970 1_555
O1 P1 1.505113 1_555
O1 Zn0 2.024981 1_665
O2 P2 1.493461 1_555
O2 Zn0 2.008294 1_655
O3 P3 1.506897 1_555
O3 Zn1 2.083177 1_445
O4 P4 1.492134 1_555
O4 Zn1 1.975874 1_555
O5 P5 1.491115 1_555
O5 Zn1 1.978356 1_545
O6 P5 1.630660 1_565
O7 P3 1.625851 1_555
O8 P4 1.626948 1_455
O9 P1 1.585494 1_555
O10 P2 1.591046 1_455
O11 P0 1.599899 1_565
O12 P6 1.489457 1_555
O12 Zn2 2.082595 1_555
O13 P7 1.489660 1_555
O13 Zn2 2.061355 1_555
O14 P8 1.489499 1_555
O14 Zn2 2.063020 1_555
O15 P9 1.514120 1_555
O15 Zn3 2.083266 1_555
O16 P10 1.493137 1_555
O16 Zn3 1.967385 1_555
O17 P11 1.505769 1_555
O17 Zn3 1.984652 1_555
O18 P11 1.586640 1_555
O19 P9 1.597219 1_555
O20 P10 1.589116 1_555
O21 P7 1.583958 1_555
O22 P8 1.584961 1_555
O23 P6 1.584456 1_555
O24 P12 1.514975 1_555
O24 Zn4 2.080682 1_556
O25 P13 1.505675 1_555
O25 Zn4 1.984891 1_556
O26 P14 1.495079 1_555
O26 Zn4 1.963835 1_556
O27 P15 1.555951 1_555
O28 P16 1.555489 1_555
O29 P17 1.561224 1_555
O30 P17 1.561033 1_555
O31 P15 1.568138 1_555
O32 P16 1.567343 1_555
O33 P13 1.591312 1_555
O34 P14 1.587501 1_555
O35 P12 1.595860 1_555
O36 P17 1.499599 1_555
O36 Zn0 2.162579 1_565
O37 P15 1.497126 1_555
O37 Zn0 2.174483 1_665
O38 P16 1.496802 1_555
O38 Zn0 2.151472 1_555
O39 P13 1.514432 1_555
O39 Zn1 2.145070 1_445
O40 P14 1.517152 1_555
O40 Zn1 2.176031 1_455
O41 P12 1.501759 1_555
O41 Zn1 2.097766 1_555
O42 P6 1.551862 1_555
O43 P7 1.552175 1_555
O44 P8 1.551697 1_555
O45 P9 1.608629 1_555
O46 P10 1.607296 1_555
O47 P11 1.589487 1_555
O48 P5 1.505131 1_555
O48 Zn2 2.080318 1_555
O49 P3 1.503912 1_555
O49 Zn2 2.100515 1_555
O50 P4 1.503898 1_555
O50 Zn2 2.087878 1_555
O51 P1 1.517592 1_555
O51 Zn3 2.164099 1_555
O52 P2 1.516150 1_555
O52 Zn3 2.184138 1_555
O53 P0 1.501699 1_555
O53 Zn3 2.095285 1_555
O54 P12 1.610942 1_555
O55 P13 1.585571 1_655
O56 P14 1.609904 1_545
O57 P15 1.570552 1_545
O58 P16 1.571150 1_555
O59 P17 1.576590 1_655
O60 P11 1.517559 1_555
O60 Zn4 2.154950 1_555
O61 P9 1.502921 1_455
O61 Zn4 2.103798 1_555
O62 P10 1.517346 1_565
O62 Zn4 2.173329 1_555
O63 P7 1.581379 1_565
O64 P8 1.578924 1_555
O65 P6 1.580353 1_455
O66 P0 1.622192 1_565
O67 P1 1.597313 1_555
O68 P2 1.616449 1_455
O69 P3 1.591131 1_555
O70 P4 1.595543 1_455
O71 P5 1.595001 1_565
