# generated using pymatgen
data_LiFeP
_symmetry_space_group_name_H-M   'P 1'
_cell_length_a   3.66692540
_cell_length_b   3.66692540
_cell_length_c   5.82930352
_cell_angle_alpha   90.00000000
_cell_angle_beta   90.00000000
_cell_angle_gamma   90.00000000
_symmetry_Int_Tables_number   1
_chemical_formula_structural   LiFeP
_chemical_formula_sum   'Li2 Fe2 P2'
_cell_volume   78.38280811
_cell_formula_units_Z   2
loop_
 _symmetry_equiv_pos_site_id
 _symmetry_equiv_pos_as_xyz
  1  'x, y, z'
loop_
 _atom_site_type_symbol
 _atom_site_label
 _atom_site_symmetry_multiplicity
 _atom_site_fract_x
 _atom_site_fract_y
 _atom_site_fract_z
 _atom_site_occupancy
  Li  Li0  1  0.75000000  0.75000000  0.65453739  1
  Li  Li1  1  0.25000000  0.25000000  0.34546261  1
  Fe  Fe0  1  0.75000000  0.25000000  -0.00000000  1
  Fe  Fe1  1  0.25000000  0.75000000  0.00000000  1
  P  P0  1  0.25000000  0.25000000  0.79578922  1
  P  P1  1  0.75000000  0.75000000  0.20421078  1
loop_
_geom_bond_atom_site_label_1
_geom_bond_atom_site_label_2
_geom_bond_distance
_geom_bond_site_symmetry_2
Li0 P1 2.625090 1_555
Li0 P0 2.720507 1_655
Li0 P0 2.720507 1_555
Li0 P0 2.720507 1_565
Li0 P0 2.720507 1_665
Li1 P0 2.625090 1_555
Li1 P1 2.720507 1_555
Li1 P1 2.720507 1_545
Li1 P1 2.720507 1_455
Li1 P1 2.720507 1_445
Fe0 P0 2.186013 1_554
Fe0 P1 2.186013 1_545
Fe0 P0 2.186013 1_654
Fe0 P1 2.186013 1_555
Fe0 Li1 2.723417 1_555
Fe0 Li0 2.723417 1_554
Fe0 Li0 2.723417 1_544
Fe0 Li1 2.723417 1_655
Fe1 P0 2.186013 1_554
Fe1 P1 2.186013 1_455
Fe1 P0 2.186013 1_564
Fe1 P1 2.186013 1_555
Fe1 Li1 2.723417 1_555
Fe1 Li0 2.723417 1_554
Fe1 Li1 2.723417 1_565
Fe1 Li0 2.723417 1_454
