# generated using pymatgen
data_CuI
_symmetry_space_group_name_H-M   'P 1'
_cell_length_a   4.09019619
_cell_length_b   4.09019619
_cell_length_c   6.55145804
_cell_angle_alpha   90.00000000
_cell_angle_beta   90.00000000
_cell_angle_gamma   90.00000000
_symmetry_Int_Tables_number   1
_chemical_formula_structural   CuI
_chemical_formula_sum   'Cu2 I2'
_cell_volume   109.60395950
_cell_formula_units_Z   2
loop_
 _symmetry_equiv_pos_site_id
 _symmetry_equiv_pos_as_xyz
  1  'x, y, z'
loop_
 _atom_site_type_symbol
 _atom_site_label
 _atom_site_symmetry_multiplicity
 _atom_site_fract_x
 _atom_site_fract_y
 _atom_site_fract_z
 _atom_site_occupancy
  Cu  Cu0  1  0.25000000  0.75000000  0.00000000  1
  Cu  Cu1  1  0.75000000  0.25000000  0.00000000  1
  I  I0  1  0.25000000  0.25000000  0.25696564  1
  I  I1  1  0.75000000  0.75000000  0.74303436  1
loop_
_geom_bond_atom_site_label_1
_geom_bond_atom_site_label_2
_geom_bond_distance
_geom_bond_site_symmetry_2
Cu0 I1 2.648886 1_554
Cu0 I0 2.648886 1_565
Cu0 I1 2.648886 1_454
Cu0 I0 2.648886 1_555
Cu1 I1 2.648886 1_554
Cu1 I0 2.648886 1_655
Cu1 I1 2.648886 1_544
Cu1 I0 2.648886 1_555
