# generated using pymatgen
data_Ni3Sn
_symmetry_space_group_name_H-M   'P 1'
_cell_length_a   5.24628216
_cell_length_b   5.24628137
_cell_length_c   4.20958120
_cell_angle_alpha   90.00000000
_cell_angle_beta   90.00000000
_cell_angle_gamma   119.99999854
_symmetry_Int_Tables_number   1
_chemical_formula_structural   Ni3Sn
_chemical_formula_sum   'Ni6 Sn2'
_cell_volume   100.33968954
_cell_formula_units_Z   2
loop_
 _symmetry_equiv_pos_site_id
 _symmetry_equiv_pos_as_xyz
  1  'x, y, z'
loop_
 _atom_site_type_symbol
 _atom_site_label
 _atom_site_symmetry_multiplicity
 _atom_site_fract_x
 _atom_site_fract_y
 _atom_site_fract_z
 _atom_site_occupancy
  Ni  Ni0  1  0.84053444  0.68106988  0.25000000  1
  Ni  Ni1  1  0.15946556  0.84053444  0.75000000  1
  Ni  Ni2  1  0.68106988  0.84053444  0.75000000  1
  Ni  Ni3  1  0.31893012  0.15946556  0.25000000  1
  Ni  Ni4  1  0.84053444  0.15946556  0.25000000  1
  Ni  Ni5  1  0.15946556  0.31893012  0.75000000  1
  Sn  Sn0  1  0.33333300  0.66666700  0.25000000  1
  Sn  Sn1  1  0.66666700  0.33333300  0.75000000  1
loop_
_geom_bond_atom_site_label_1
_geom_bond_atom_site_label_2
_geom_bond_distance
_geom_bond_site_symmetry_2
Ni0 Ni4 2.509798 1_565
Ni0 Ni3 2.509799 1_665
Ni0 Ni2 2.555352 1_555
Ni0 Ni2 2.555352 1_554
Ni0 Ni1 2.555357 1_655
Ni0 Ni1 2.555357 1_654
Ni0 Sn0 2.623957 1_655
Ni0 Sn0 2.623957 1_555
Ni0 Sn1 2.631780 1_554
Ni0 Sn1 2.631780 1_555
Ni0 Ni4 2.736483 1_555
Ni0 Ni3 2.736483 1_555
Ni1 Ni5 2.509798 1_565
Ni1 Ni2 2.509799 1_455
Ni1 Ni3 2.555357 1_565
Ni1 Ni3 2.555357 1_566
Ni1 Sn1 2.623957 1_455
Ni1 Sn1 2.623957 1_565
Ni1 Sn0 2.631775 1_555
Ni1 Sn0 2.631775 1_556
Ni1 Ni5 2.736483 1_555
Ni1 Ni2 2.736483 1_555
Ni2 Ni5 2.509799 1_665
Ni2 Ni4 2.555357 1_566
Ni2 Ni4 2.555357 1_565
Ni2 Sn1 2.623957 1_555
Ni2 Sn1 2.623957 1_565
Ni2 Sn0 2.631780 1_555
Ni2 Sn0 2.631780 1_556
Ni2 Ni5 2.736483 1_555
Ni3 Ni4 2.509799 1_455
Ni3 Ni5 2.555352 1_555
Ni3 Ni5 2.555352 1_554
Ni3 Sn0 2.623957 1_555
Ni3 Sn0 2.623957 1_545
Ni3 Sn1 2.631780 1_555
Ni3 Sn1 2.631780 1_554
Ni3 Ni4 2.736483 1_555
Ni4 Ni5 2.555357 1_654
Ni4 Ni5 2.555357 1_655
Ni4 Sn0 2.623957 1_655
Ni4 Sn0 2.623957 1_545
Ni4 Sn1 2.631775 1_555
Ni4 Sn1 2.631775 1_554
Ni5 Sn1 2.623957 1_455
Ni5 Sn1 2.623957 1_555
Ni5 Sn0 2.631780 1_555
Ni5 Sn0 2.631780 1_556
