# generated using pymatgen
data_Na2TaInSi2SO12
_symmetry_space_group_name_H-M   'P 1'
_cell_length_a   9.02565260
_cell_length_b   9.02565229
_cell_length_c   22.81515468
_cell_angle_alpha   89.41171077
_cell_angle_beta   90.58828923
_cell_angle_gamma   119.16911335
_symmetry_Int_Tables_number   1
_chemical_formula_structural   Na2TaInSi2SO12
_chemical_formula_sum   'Na12 Ta6 In6 Si12 S6 O72'
_cell_volume   1622.76668849
_cell_formula_units_Z   6
loop_
 _symmetry_equiv_pos_site_id
 _symmetry_equiv_pos_as_xyz
  1  'x, y, z'
loop_
 _atom_site_type_symbol
 _atom_site_label
 _atom_site_symmetry_multiplicity
 _atom_site_fract_x
 _atom_site_fract_y
 _atom_site_fract_z
 _atom_site_occupancy
  Na  Na0  1  0.97867977  0.62003858  0.24940067  1
  Na  Na1  1  0.37996142  0.02132023  0.74940067  1
  Na  Na2  1  0.64534677  0.95337158  0.58273367  1
  Na  Na3  1  0.04662842  0.35465323  0.08273367  1
  Na  Na4  1  0.31201277  0.28670558  0.91606767  1
  Na  Na5  1  0.71329442  0.68798723  0.41606767  1
  Na  Na6  1  0.00778800  0.98680495  0.49435450  1
  Na  Na7  1  0.01319505  0.99221200  0.99435450  1
  Na  Na8  1  0.67445500  0.32013795  0.82768750  1
  Na  Na9  1  0.67986205  0.32554500  0.32768750  1
  Na  Na10  1  0.34112100  0.65347195  0.16102150  1
  Na  Na11  1  0.34652805  0.65887900  0.66102150  1
  Ta  Ta0  1  -0.00126743  0.00242902  0.64587208  1
  Ta  Ta1  1  0.99757098  0.00126743  0.14587208  1
  Ta  Ta2  1  0.66539957  0.33576202  0.97920508  1
  Ta  Ta3  1  0.66423798  0.33460043  0.47920508  1
  Ta  Ta4  1  0.33206557  0.66909602  0.31253908  1
  Ta  Ta5  1  0.33090398  0.66793443  0.81253908  1
  In  In0  1  0.98613649  0.99637654  0.35086362  1
  In  In1  1  0.00362346  0.01386351  0.85086362  1
  In  In2  1  0.65280349  0.32970954  0.68419662  1
  In  In3  1  0.67029046  0.34719651  0.18419662  1
  In  In4  1  0.31946949  0.66304354  0.01753062  1
  In  In5  1  0.33695646  0.68053051  0.51753062  1
  Si  Si0  1  0.70255382  0.70804008  0.25178934  1
  Si  Si1  1  0.00192927  0.29446907  0.24989032  1
  Si  Si2  1  0.29195992  0.29744618  0.75178934  1
  Si  Si3  1  0.70553093  0.99807073  0.74989032  1
  Si  Si4  1  0.36922082  0.04137308  0.58512234  1
  Si  Si5  1  0.66859627  0.62780207  0.58322332  1
  Si  Si6  1  0.95862692  0.63077918  0.08512234  1
  Si  Si7  1  0.37219793  0.33140373  0.08322332  1
  Si  Si8  1  0.03588682  0.37470708  0.91845634  1
  Si  Si9  1  0.33526227  0.96113607  0.91655732  1
  Si  Si10  1  0.62529292  0.96411318  0.41845634  1
  Si  Si11  1  0.03886393  0.66473773  0.41655732  1
  S  S0  1  0.28917220  0.99797547  0.25021646  1
  S  S1  1  0.00202453  0.71082780  0.75021646  1
  S  S2  1  0.95583920  0.33130847  0.58354946  1
  S  S3  1  0.66869153  0.04416080  0.08354946  1
  S  S4  1  0.62250520  0.66464247  0.91688346  1
  S  S5  1  0.33535753  0.37749480  0.41688346  1
  O  O0  1  0.21773263  0.02285575  0.30340135  1
  O  O1  1  0.81802734  0.77466383  0.31010137  1
  O  O2  1  0.99231812  0.19368276  0.30810931  1
  O  O3  1  0.22533617  0.18197266  0.81010137  1
  O  O4  1  0.97714425  0.78226737  0.80340135  1
  O  O5  1  0.80631724  0.00768188  0.80810931  1
  O  O6  1  0.80241898  0.97417903  0.69041530  1
  O  O7  1  0.16120751  0.18582955  0.69545374  1
  O  O8  1  0.02757575  0.82379774  0.69755551  1
  O  O9  1  0.81417045  0.83879249  0.19545374  1
  O  O10  1  0.02582097  0.19758102  0.19041530  1
  O  O11  1  0.17620226  0.97242425  0.19755551  1
  O  O12  1  0.88439963  0.35618875  0.63673435  1
  O  O13  1  0.48469434  0.10799683  0.64343437  1
  O  O14  1  0.65898512  0.52701576  0.64144231  1
  O  O15  1  0.89200317  0.51530566  0.14343437  1
  O  O16  1  0.64381125  0.11560037  0.13673435  1
  O  O17  1  0.47298424  0.34101488  0.14144231  1
  O  O18  1  0.46908598  0.30751203  0.02374830  1
  O  O19  1  0.82787451  0.51916255  0.02878674  1
  O  O20  1  0.69424275  0.15713074  0.03088851  1
  O  O21  1  0.48083745  0.17212549  0.52878674  1
  O  O22  1  0.69248797  0.53091402  0.52374830  1
  O  O23  1  0.84286926  0.30575725  0.53088851  1
  O  O24  1  0.55106563  0.68952275  0.97006835  1
  O  O25  1  0.15136034  0.44133083  0.97676837  1
  O  O26  1  0.32565112  0.86034976  0.97477631  1
  O  O27  1  0.55866917  0.84863966  0.47676837  1
  O  O28  1  0.31047725  0.44893437  0.47006835  1
  O  O29  1  0.13965024  0.67434888  0.47477631  1
  O  O30  1  0.13575198  0.64084603  0.35708230  1
  O  O31  1  0.49454051  0.85249655  0.36212074  1
  O  O32  1  0.36090875  0.49046474  0.36422251  1
  O  O33  1  0.14750345  0.50545949  0.86212074  1
  O  O34  1  0.35915397  0.86424802  0.85708230  1
  O  O35  1  0.50953526  0.63909125  0.86422251  1
  O  O36  1  0.01297738  0.83007914  0.41170383  1
  O  O37  1  0.81471781  0.98967999  0.41331119  1
  O  O38  1  0.19977517  0.20438573  0.40859337  1
  O  O39  1  0.01032001  0.18528219  0.91331119  1
  O  O40  1  0.16992086  0.98702262  0.91170383  1
  O  O41  1  0.79561427  0.80022483  0.90859337  1
  O  O42  1  0.95649771  0.16265936  0.58704802  1
  O  O43  1  0.18275304  0.03486529  0.59159273  1
  O  O44  1  0.84097224  0.82385392  0.59032729  1
  O  O45  1  0.96513471  0.81724696  0.09159273  1
  O  O46  1  0.83734064  0.04350229  0.08704802  1
  O  O47  1  0.17614608  0.15902776  0.09032729  1
  O  O48  1  0.67964438  0.16341214  0.74503683  1
  O  O49  1  0.48138481  0.32301299  0.74664419  1
  O  O50  1  0.86644217  0.53771873  0.74192637  1
  O  O51  1  0.67698701  0.51861519  0.24664419  1
  O  O52  1  0.83658786  0.32035562  0.24503683  1
  O  O53  1  0.46228127  0.13355783  0.24192637  1
  O  O54  1  0.62316471  0.49599236  0.92038102  1
  O  O55  1  0.84942004  0.36819829  0.92492573  1
  O  O56  1  0.50763924  0.15718692  0.92366029  1
  O  O57  1  0.63180171  0.15057996  0.42492573  1
  O  O58  1  0.50400764  0.37683529  0.42038102  1
  O  O59  1  0.84281308  0.49236076  0.42366029  1
  O  O60  1  0.34631038  0.49674614  0.07837083  1
  O  O61  1  0.14805081  0.65634699  0.07997819  1
  O  O62  1  0.53310817  0.87105273  0.07526037  1
  O  O63  1  0.34365301  0.85194919  0.57997819  1
  O  O64  1  0.50325386  0.65368962  0.57837083  1
  O  O65  1  0.12894727  0.46689183  0.57526037  1
  O  O66  1  0.28983071  0.82932636  0.25371502  1
  O  O67  1  0.51608604  0.70153229  0.25825973  1
  O  O68  1  0.17430524  0.49052092  0.25699429  1
  O  O69  1  0.29846771  0.48391396  0.75825973  1
  O  O70  1  0.17067364  0.71016929  0.75371502  1
  O  O71  1  0.50947908  0.82569476  0.75699429  1
loop_
_geom_bond_atom_site_label_1
_geom_bond_atom_site_label_2
_geom_bond_distance
_geom_bond_site_symmetry_2
Na0 O52 2.364805 1_555
Na0 O51 2.413382 1_555
Na0 O66 2.508332 1_655
Na0 O68 2.552558 1_655
Na0 O15 2.576389 1_555
Na0 O30 2.785542 1_655
Na0 O1 2.832240 1_555
Na1 O48 2.364805 1_555
Na1 O49 2.413382 1_555
Na1 O70 2.508332 1_545
Na1 O71 2.552558 1_545
Na1 O13 2.576389 1_555
Na1 O34 2.785542 1_545
Na1 O3 2.832240 1_555
Na2 O64 2.364795 1_555
Na2 O63 2.413392 1_555
Na2 O42 2.508332 1_565
Na2 O44 2.552558 1_555
Na2 O27 2.576367 1_555
Na2 O6 2.785542 1_555
Na2 O13 2.832240 1_565
Na3 O60 2.364795 1_555
Na3 O61 2.413392 1_555
Na3 O46 2.508332 1_455
Na3 O47 2.552558 1_555
Na3 O25 2.576367 1_554
Na3 O10 2.785542 1_555
Na3 O15 2.832240 1_455
Na4 O40 2.364805 1_545
Na4 O39 2.413382 1_555
Na4 O54 2.508336 1_555
Na4 O56 2.552573 1_555
Na4 O3 2.576389 1_555
Na4 O18 2.785528 1_556
Na4 O25 2.832240 1_555
Na5 O36 2.364805 1_655
Na5 O37 2.413382 1_555
Na5 O58 2.508336 1_555
Na5 O59 2.552573 1_555
Na5 O1 2.576389 1_555
Na5 O22 2.785528 1_555
Na5 O27 2.832240 1_555
Na6 O36 2.383305 1_555
Na6 O37 2.536348 1_455
Na6 O43 2.623701 1_565
Na6 O44 2.658479 1_455
Na6 O38 2.713173 1_565
Na6 O42 2.830410 1_465
Na7 O40 2.383305 1_555
Na7 O39 2.536348 1_565
Na7 O45 2.623701 1_456
Na7 O47 2.658479 1_566
Na7 O41 2.713173 1_455
Na7 O46 2.830410 1_466
Na8 O48 2.383305 1_555
Na8 O49 2.536348 1_555
Na8 O55 2.623701 1_555
Na8 O56 2.658479 1_555
Na8 O50 2.713173 1_555
Na8 O54 2.830410 1_555
Na9 O52 2.383305 1_555
Na9 O51 2.536348 1_555
Na9 O57 2.623701 1_555
Na9 O59 2.658479 1_555
Na9 O53 2.713173 1_555
Na9 O58 2.830410 1_555
Na10 O60 2.383305 1_555
Na10 O61 2.536348 1_555
Na10 O67 2.623701 1_555
Na10 O68 2.658479 1_555
Na10 O62 2.713173 1_555
Na10 O66 2.830410 1_555
Na11 O64 2.383305 1_555
Na11 O63 2.536348 1_555
Na11 O69 2.623701 1_555
Na11 O71 2.658479 1_555
Na11 O65 2.713173 1_555
Na11 O70 2.830410 1_555
In0 O2 1.998628 1_565
In0 O1 2.054518 1_555
In0 O37 2.092757 1_555
In0 O36 2.131439 1_655
In0 O0 2.270084 1_665
In0 O38 2.333965 1_665
In1 O5 1.998628 1_455
In1 O3 2.054518 1_555
In1 O39 2.092757 1_555
In1 O40 2.131439 1_545
In1 O4 2.270084 1_445
In1 O41 2.333965 1_445
In2 O14 1.998628 1_555
In2 O13 2.054518 1_555
In2 O49 2.092757 1_555
In2 O48 2.131439 1_555
In2 O12 2.270084 1_555
In2 O50 2.333965 1_555
In3 O17 1.998628 1_555
In3 O15 2.054518 1_555
In3 O51 2.092757 1_555
In3 O52 2.131439 1_555
In3 O16 2.270084 1_555
In3 O53 2.333965 1_555
In4 O26 1.998628 1_554
In4 O25 2.054518 1_554
In4 O61 2.092757 1_555
In4 O60 2.131439 1_555
In4 O24 2.270084 1_554
In4 O62 2.333965 1_555
In5 O29 1.998628 1_555
In5 O27 2.054518 1_555
In5 O63 2.092757 1_555
In5 O64 2.131439 1_555
In5 O28 2.270084 1_555
In5 O65 2.333965 1_555
O0 S0 1.449612 1_545
O1 Si0 1.610847 1_555
O2 Si1 1.581126 1_655
O3 Si2 1.610847 1_555
O4 S1 1.449612 1_655
O5 Si3 1.581126 1_545
O6 Si3 1.693123 1_555
O6 Ta0 1.956668 1_665
O7 Si2 1.701805 1_555
O7 Ta0 1.951497 1_555
O8 S1 1.512505 1_555
O8 Ta0 2.102709 1_565
O9 Si0 1.701805 1_555
O9 Ta1 1.951497 1_565
O10 Si1 1.693123 1_555
O10 Ta1 1.956668 1_455
O11 S0 1.512505 1_555
O11 Ta1 2.102709 1_465
O12 S2 1.449612 1_555
O13 Si4 1.610847 1_555
O14 Si5 1.581126 1_555
O15 Si6 1.610847 1_555
O16 S3 1.449612 1_555
O17 Si7 1.581126 1_555
O18 Si7 1.693123 1_555
O18 Ta2 1.956668 1_554
O19 Si6 1.701805 1_555
O19 Ta2 1.951497 1_554
O20 S3 1.512505 1_555
O20 Ta2 2.102709 1_554
O21 Si4 1.701805 1_555
O21 Ta3 1.951497 1_555
O22 Si5 1.693123 1_555
O22 Ta3 1.956668 1_555
O23 S2 1.512505 1_555
O23 Ta3 2.102709 1_555
O24 S4 1.449612 1_555
O25 Si8 1.610847 1_555
O26 Si9 1.581126 1_555
O27 Si10 1.610847 1_555
O28 S5 1.449612 1_555
O29 Si11 1.581126 1_555
O30 Si11 1.693123 1_555
O30 Ta4 1.956668 1_555
O31 Si10 1.701805 1_555
O31 Ta4 1.951497 1_555
O32 S5 1.512505 1_555
O32 Ta4 2.102709 1_555
O33 Si8 1.701805 1_555
O33 Ta5 1.951497 1_555
O34 Si9 1.693123 1_555
O34 Ta5 1.956668 1_555
O35 S4 1.512505 1_555
O35 Ta5 2.102709 1_555
O36 Si11 1.621666 1_555
O37 Si10 1.615252 1_555
O38 S5 1.453272 1_555
O39 Si8 1.615252 1_555
O40 Si9 1.621667 1_555
O41 S4 1.453272 1_555
O42 S2 1.526341 1_555
O42 Ta0 2.127193 1_655
O43 Si4 1.663211 1_555
O43 Ta0 1.984626 1_555
O44 Si5 1.701491 1_555
O44 Ta0 1.999746 1_665
O45 Si6 1.663211 1_555
O45 Ta1 1.984626 1_565
O46 S3 1.526341 1_555
O46 Ta1 2.127193 1_555
O47 Si7 1.701491 1_555
O47 Ta1 1.999746 1_455
O48 Si3 1.621666 1_545
O49 Si2 1.615252 1_555
O50 S1 1.453272 1_655
O51 Si0 1.615252 1_555
O52 Si1 1.621667 1_655
O53 S0 1.453272 1_545
O54 S4 1.526353 1_555
O54 Ta2 2.127193 1_555
O55 Si8 1.663196 1_655
O55 Ta2 1.984626 1_555
O56 Si9 1.701487 1_545
O56 Ta2 1.999746 1_555
O57 Si10 1.663196 1_545
O57 Ta3 1.984626 1_555
O58 S5 1.526354 1_555
O58 Ta3 2.127193 1_555
O59 Si11 1.701487 1_655
O59 Ta3 1.999746 1_555
O60 Si7 1.621679 1_555
O61 Si6 1.615238 1_455
O62 S3 1.453266 1_565
O63 Si4 1.615238 1_565
O64 Si5 1.621679 1_555
O65 S2 1.453266 1_455
O66 S0 1.526341 1_555
O66 Ta4 2.127193 1_555
O67 Si0 1.663211 1_555
O67 Ta4 1.984626 1_555
O68 Si1 1.701491 1_555
O68 Ta4 1.999746 1_555
O69 Si2 1.663211 1_555
O69 Ta5 1.984626 1_555
O70 S1 1.526341 1_555
O70 Ta5 2.127193 1_555
O71 Si3 1.701491 1_555
O71 Ta5 1.999746 1_555
