# generated using pymatgen
data_Tm6MgWO12
_symmetry_space_group_name_H-M   'P 1'
_cell_length_a   6.48535937
_cell_length_b   6.48535937
_cell_length_c   6.48536042
_cell_angle_alpha   92.92786874
_cell_angle_beta   92.92786878
_cell_angle_gamma   92.92786493
_symmetry_Int_Tables_number   1
_chemical_formula_structural   Tm6MgWO12
_chemical_formula_sum   'Tm6 Mg1 W1 O12'
_cell_volume   271.66741450
_cell_formula_units_Z   1
loop_
 _symmetry_equiv_pos_site_id
 _symmetry_equiv_pos_as_xyz
  1  'x, y, z'
loop_
 _atom_site_type_symbol
 _atom_site_label
 _atom_site_symmetry_multiplicity
 _atom_site_fract_x
 _atom_site_fract_y
 _atom_site_fract_z
 _atom_site_occupancy
  Tm  Tm0  1  0.43701902  0.92140308  0.73625845  1
  Tm  Tm1  1  0.26374155  0.56298098  0.07859692  1
  Tm  Tm2  1  0.07859692  0.26374155  0.56298098  1
  Tm  Tm3  1  0.92140308  0.73625845  0.43701902  1
  Tm  Tm4  1  0.73625845  0.43701902  0.92140308  1
  Tm  Tm5  1  0.56298098  0.07859692  0.26374155  1
  Mg  Mg0  1  0.50000000  0.50000000  0.50000000  1
  W  W0  1  0.00000000  0.00000000  0.00000000  1
  O  O0  1  0.07922912  0.92995088  0.69475246  1
  O  O1  1  0.30524754  0.92077088  0.07004912  1
  O  O2  1  0.19002865  0.54016327  0.40664599  1
  O  O3  1  0.59335401  0.80997135  0.45983673  1
  O  O4  1  0.07004912  0.30524754  0.92077088  1
  O  O5  1  0.45983673  0.59335401  0.80997135  1
  O  O6  1  0.54016327  0.40664599  0.19002865  1
  O  O7  1  0.92995088  0.69475246  0.07922912  1
  O  O8  1  0.40664599  0.19002865  0.54016327  1
  O  O9  1  0.80997135  0.45983673  0.59335401  1
  O  O10  1  0.69475246  0.07922912  0.92995088  1
  O  O11  1  0.92077088  0.07004912  0.30524754  1
loop_
_geom_bond_atom_site_label_1
_geom_bond_atom_site_label_2
_geom_bond_distance
_geom_bond_site_symmetry_2
Mg0 O2 2.102587 1_555
Mg0 O9 2.102587 1_555
Mg0 O3 2.102587 1_555
Mg0 O8 2.102587 1_555
Mg0 O6 2.102587 1_555
Mg0 O5 2.102587 1_555
O0 W0 2.103632 1_566
O0 Tm3 2.213344 1_455
O0 Tm0 2.326075 1_555
O0 Tm2 2.367704 1_565
O1 W0 2.103631 1_565
O1 Tm5 2.213344 1_565
O1 Tm1 2.326075 1_555
O1 Tm0 2.367704 1_554
O2 Tm2 2.211824 1_555
O2 Tm1 2.214858 1_555
O2 Tm3 2.219678 1_455
O3 Tm0 2.211824 1_555
O3 Tm3 2.214858 1_555
O3 Tm5 2.219679 1_565
O4 W0 2.103631 1_556
O4 Tm1 2.213344 1_556
O4 Tm2 2.326076 1_555
O4 Tm4 2.367704 1_455
O5 Tm4 2.211824 1_555
O5 Tm0 2.214858 1_555
O5 Tm1 2.219679 1_556
O6 Tm1 2.211824 1_555
O6 Tm5 2.214858 1_555
O6 Tm4 2.219679 1_554
O7 W0 2.103631 1_665
O7 Tm4 2.213344 1_554
O7 Tm3 2.326076 1_555
O7 Tm1 2.367704 1_655
O8 Tm5 2.211824 1_555
O8 Tm2 2.214858 1_555
O8 Tm0 2.219679 1_545
O9 Tm3 2.211824 1_555
O9 Tm4 2.214858 1_555
O9 Tm2 2.219678 1_655
O10 W0 2.103631 1_656
O10 Tm0 2.213344 1_545
O10 Tm4 2.326075 1_555
O10 Tm5 2.367704 1_556
O11 W0 2.103632 1_655
O11 Tm2 2.213344 1_655
O11 Tm5 2.326075 1_555
O11 Tm3 2.367704 1_545
