# generated using pymatgen
data_Na7MgSbO6
_symmetry_space_group_name_H-M   'P 1'
_cell_length_a   6.54366143
_cell_length_b   6.57632018
_cell_length_c   7.27965747
_cell_angle_alpha   63.73571826
_cell_angle_beta   116.80468950
_cell_angle_gamma   120.34953787
_symmetry_Int_Tables_number   1
_chemical_formula_structural   Na7MgSbO6
_chemical_formula_sum   'Na7 Mg1 Sb1 O6'
_cell_volume   231.72885427
_cell_formula_units_Z   1
loop_
 _symmetry_equiv_pos_site_id
 _symmetry_equiv_pos_as_xyz
  1  'x, y, z'
loop_
 _atom_site_type_symbol
 _atom_site_label
 _atom_site_symmetry_multiplicity
 _atom_site_fract_x
 _atom_site_fract_y
 _atom_site_fract_z
 _atom_site_occupancy
  Na  Na0  1  0.92961918  0.84517472  0.62883526  1
  Na  Na1  1  0.48911925  0.87433029  0.33337841  1
  Na  Na2  1  0.71707800  0.50784029  0.33315732  1
  Na  Na3  1  0.31103120  0.68953414  0.93603675  1
  Na  Na4  1  0.54971915  0.07332557  0.63487693  1
  Na  Na5  1  0.15702537  0.45028229  0.63363793  1
  Na  Na6  1  0.12336759  0.28175428  0.32948959  1
  Mg  Mg0  1  0.60694086  0.40150375  0.81142941  1
  Sb  Sb0  1  0.01954986  0.97430161  0.06342050  1
  O  O0  1  0.80316384  0.92188299  0.22581862  1
  O  O1  1  0.56049340  0.70690229  0.72000786  1
  O  O2  1  0.86972507  0.44517274  0.72184086  1
  O  O3  1  0.06933984  0.64987164  0.22230339  1
  O  O4  1  0.34774983  0.18840732  0.22936565  1
  O  O5  1  0.29691055  0.13888008  0.71848351  1
loop_
_geom_bond_atom_site_label_1
_geom_bond_atom_site_label_2
_geom_bond_distance
_geom_bond_site_symmetry_2
Na0 O5 2.223248 1_665
Na0 O2 2.270018 1_555
Na0 O1 2.407043 1_555
Na0 O0 2.543422 1_555
Na1 O3 2.309497 1_555
Na1 O0 2.349255 1_555
Na1 O4 2.368601 1_565
Na1 O1 2.437927 1_555
Na2 O0 2.303459 1_555
Na2 O4 2.334937 1_555
Na2 O3 2.381571 1_655
Na2 O2 2.451226 1_555
Na3 O2 2.611497 1_455
Na3 O1 2.668108 1_555
Na3 O5 2.692777 1_565
Na3 O0 2.984739 1_556
Na3 O3 2.997771 1_556
Na4 O1 2.237495 1_545
Na4 O5 2.270234 1_555
Na4 O2 2.401122 1_555
Na4 O4 2.559006 1_555
Na5 O2 2.225660 1_455
Na5 O1 2.270060 1_555
Na5 O5 2.382890 1_555
Na5 O3 2.598347 1_555
Na6 O4 2.309977 1_555
Na6 O3 2.353447 1_555
Na6 O0 2.388349 1_445
Na6 O5 2.452429 1_555
Mg0 O2 1.952275 1_555
Mg0 O5 1.952399 1_555
Mg0 O1 1.954595 1_555
O0 Sb0 2.043813 1_655
O3 Sb0 2.043180 1_555
O4 Sb0 2.040550 1_545
