# generated using pymatgen
data_MgCu2(TeO4)2
_symmetry_space_group_name_H-M   'P 1'
_cell_length_a   6.27370801
_cell_length_b   6.54226603
_cell_length_c   6.67160331
_cell_angle_alpha   49.53118584
_cell_angle_beta   64.63366657
_cell_angle_gamma   60.58702457
_symmetry_Int_Tables_number   1
_chemical_formula_structural   MgCu2(TeO4)2
_chemical_formula_sum   'Mg1 Cu2 Te2 O8'
_cell_volume   178.96585523
_cell_formula_units_Z   1
loop_
 _symmetry_equiv_pos_site_id
 _symmetry_equiv_pos_as_xyz
  1  'x, y, z'
loop_
 _atom_site_type_symbol
 _atom_site_label
 _atom_site_symmetry_multiplicity
 _atom_site_fract_x
 _atom_site_fract_y
 _atom_site_fract_z
 _atom_site_occupancy
  Mg  Mg0  1  -0.00000000  0.00000000  0.50000000  1
  Cu  Cu0  1  0.50000000  0.00000000  0.50000000  1
  Cu  Cu1  1  0.50000000  0.50000000  -0.00000000  1
  Te  Te0  1  -0.00000000  0.50000000  0.50000000  1
  Te  Te1  1  0.50000000  0.50000000  0.50000000  1
  O  O0  1  0.22104300  0.31994861  0.29500420  1
  O  O1  1  0.24373184  0.25634441  0.73597718  1
  O  O2  1  0.17096481  0.78490493  0.30533109  1
  O  O3  1  0.67561532  0.27689627  0.30875616  1
  O  O4  1  0.32438468  0.72310373  0.69124384  1
  O  O5  1  0.75626816  0.74365659  0.26402282  1
  O  O6  1  0.82903519  0.21509507  0.69466991  1
  O  O7  1  0.77895700  0.68005139  0.70499580  1
loop_
_geom_bond_atom_site_label_1
_geom_bond_atom_site_label_2
_geom_bond_distance
_geom_bond_site_symmetry_2
Mg0 O2 2.124563 1_545
Mg0 O6 2.124569 1_455
Mg0 O3 2.157467 1_455
Mg0 O4 2.157467 1_545
Mg0 O7 2.384329 1_445
Mg0 O0 2.384329 1_555
Cu0 O3 1.969535 1_555
Cu0 O4 1.969535 1_545
Cu0 O7 2.012809 1_545
Cu0 O0 2.012809 1_555
Cu0 O5 2.546805 1_545
Cu0 O1 2.546810 1_555
Cu1 O4 2.012389 1_554
Cu1 O3 2.012389 1_555
Cu1 O0 2.094800 1_555
Cu1 O7 2.094800 1_554
O0 Te0 2.010685 1_555
O1 Te0 1.941299 1_555
O1 Te1 2.166874 1_555
O2 Te0 1.984730 1_555
O2 Te1 2.190382 1_555
O3 Te1 2.146089 1_555
O4 Te1 2.146089 1_555
O5 Te0 1.941298 1_655
O5 Te1 2.166878 1_555
O6 Te0 1.984729 1_655
O6 Te1 2.190385 1_555
O7 Te0 2.010685 1_655
