# generated using pymatgen
data_Na3(CuS)4
_symmetry_space_group_name_H-M   'P 1'
_cell_length_a   3.71510362
_cell_length_b   7.17376801
_cell_length_c   14.42871123
_cell_angle_alpha   90.00000000
_cell_angle_beta   90.00000000
_cell_angle_gamma   90.00000000
_symmetry_Int_Tables_number   1
_chemical_formula_structural   Na3(CuS)4
_chemical_formula_sum   'Na6 Cu8 S8'
_cell_volume   384.54378900
_cell_formula_units_Z   2
loop_
 _symmetry_equiv_pos_site_id
 _symmetry_equiv_pos_as_xyz
  1  'x, y, z'
loop_
 _atom_site_type_symbol
 _atom_site_label
 _atom_site_symmetry_multiplicity
 _atom_site_fract_x
 _atom_site_fract_y
 _atom_site_fract_z
 _atom_site_occupancy
  Na  Na0  1  -0.00000000  0.47830072  0.73670236  1
  Na  Na1  1  0.00000000  0.52169928  0.26329764  1
  Na  Na2  1  0.00000000  0.02169928  0.23670236  1
  Na  Na3  1  0.50000000  0.50000000  0.50000000  1
  Na  Na4  1  0.50000000  -0.00000000  0.00000000  1
  Na  Na5  1  -0.00000000  0.97830072  0.76329764  1
  Cu  Cu0  1  0.50000000  0.92060588  0.58789644  1
  Cu  Cu1  1  0.00000000  0.33334657  0.06068634  1
  Cu  Cu2  1  0.50000000  0.42060588  0.91210356  1
  Cu  Cu3  1  -0.00000000  0.83334657  0.43931366  1
  Cu  Cu4  1  0.50000000  0.07939412  0.41210356  1
  Cu  Cu5  1  -0.00000000  0.16665343  0.56068634  1
  Cu  Cu6  1  0.00000000  0.66665343  0.93931366  1
  Cu  Cu7  1  0.50000000  0.57939412  0.08789644  1
  S  S0  1  0.50000000  0.78628379  0.34934181  1
  S  S1  1  0.50000000  0.71371621  0.84934181  1
  S  S2  1  0.50000000  0.28628379  0.15065819  1
  S  S3  1  0.00000000  0.74391174  0.59129616  1
  S  S4  1  0.00000000  0.24391174  0.90870384  1
  S  S5  1  0.00000000  0.25608826  0.40870384  1
  S  S6  1  0.00000000  0.75608826  0.09129616  1
  S  S7  1  0.50000000  0.21371621  0.65065819  1
loop_
_geom_bond_atom_site_label_1
_geom_bond_atom_site_label_2
_geom_bond_distance
_geom_bond_site_symmetry_2
Na0 S3 2.834145 1_555
Na0 S7 2.931638 1_455
Na0 S7 2.931638 1_555
Na0 S1 2.990654 1_555
Na0 S1 2.990654 1_455
Na0 S4 2.997735 1_555
Na1 S5 2.834145 1_555
Na1 S0 2.931638 1_555
Na1 S0 2.931638 1_455
Na1 S2 2.990654 1_455
Na1 S2 2.990654 1_555
Na1 S6 2.997735 1_555
Na2 S6 2.834145 1_545
Na2 S2 2.931638 1_555
Na2 S2 2.931638 1_455
Na2 S0 2.990654 1_445
Na2 S0 2.990654 1_545
Na2 S5 2.997735 1_555
Na3 S5 2.871833 1_555
Na3 S3 2.871833 1_555
Na3 S5 2.871833 1_655
Na3 S3 2.871833 1_655
Na3 S7 2.990526 1_555
Na3 S0 2.990526 1_555
Na4 S4 2.871833 1_554
Na4 S4 2.871833 1_654
Na4 S6 2.871833 1_645
Na4 S6 2.871833 1_545
Na4 S2 2.990526 1_555
Na4 S1 2.990526 1_544
Na5 S4 2.834145 1_565
Na5 S1 2.931638 1_455
Na5 S1 2.931638 1_555
Na5 S7 2.990654 1_465
Na5 S7 2.990654 1_565
Na5 S3 2.997735 1_555
Cu0 S3 2.249360 1_555
Cu0 S3 2.249360 1_655
Cu0 S7 2.289417 1_565
Cu1 S4 2.284840 1_554
Cu1 S2 2.291233 1_555
Cu1 S2 2.291233 1_455
Cu2 S4 2.249360 1_655
Cu2 S4 2.249360 1_555
Cu2 S1 2.289417 1_555
Cu3 S3 2.284840 1_555
Cu3 S0 2.291233 1_555
Cu3 S0 2.291233 1_455
Cu4 S5 2.249360 1_555
Cu4 S5 2.249360 1_655
Cu4 S0 2.289417 1_545
Cu5 S5 2.284840 1_555
Cu5 S7 2.291233 1_555
Cu5 S7 2.291233 1_455
Cu6 S6 2.284840 1_556
Cu6 S1 2.291233 1_555
Cu6 S1 2.291233 1_455
Cu7 S6 2.249360 1_655
Cu7 S6 2.249360 1_555
Cu7 S2 2.289417 1_555
