# generated using pymatgen
data_RbMg6Zr
_symmetry_space_group_name_H-M   'P 1'
_cell_length_a   6.88189456
_cell_length_b   6.88189456
_cell_length_c   4.62974486
_cell_angle_alpha   90.00000000
_cell_angle_beta   90.00000000
_cell_angle_gamma   90.00011421
_symmetry_Int_Tables_number   1
_chemical_formula_structural   RbMg6Zr
_chemical_formula_sum   'Rb1 Mg6 Zr1'
_cell_volume   219.26690514
_cell_formula_units_Z   1
loop_
 _symmetry_equiv_pos_site_id
 _symmetry_equiv_pos_as_xyz
  1  'x, y, z'
loop_
 _atom_site_type_symbol
 _atom_site_label
 _atom_site_symmetry_multiplicity
 _atom_site_fract_x
 _atom_site_fract_y
 _atom_site_fract_z
 _atom_site_occupancy
  Rb  Rb0  1  0.37504486  0.62495514  0.50000000  1
  Mg  Mg0  1  0.37505978  0.12494965  0.50000000  1
  Mg  Mg1  1  0.87505035  0.62494022  0.50000000  1
  Mg  Mg2  1  0.09269754  0.34278996  0.00000000  1
  Mg  Mg3  1  0.65721004  0.90730246  0.00000000  1
  Mg  Mg4  1  0.65719905  0.34280095  0.00000000  1
  Mg  Mg5  1  0.09275992  0.90724008  0.00000000  1
  Zr  Zr0  1  0.87498145  0.12501855  0.50000000  1
loop_
_geom_bond_atom_site_label_1
_geom_bond_atom_site_label_2
_geom_bond_distance
_geom_bond_site_symmetry_2
Mg0 Mg3 3.372304 1_545
Mg0 Mg3 3.372304 1_546
Mg0 Mg4 3.372881 1_556
Mg0 Mg4 3.372881 1_555
Mg0 Mg5 3.373084 1_545
Mg0 Mg5 3.373084 1_546
Mg0 Mg2 3.373735 1_555
Mg0 Mg2 3.373735 1_556
Mg0 Zr0 3.440408 1_555
Mg0 Rb0 3.440909 1_545
Mg0 Rb0 3.440985 1_555
Mg0 Zr0 3.441486 1_455
Mg1 Mg2 3.372304 1_656
Mg1 Mg2 3.372304 1_655
Mg1 Mg4 3.372881 1_556
Mg1 Mg4 3.372881 1_555
Mg1 Mg5 3.373084 1_655
Mg1 Mg5 3.373084 1_656
Mg1 Mg3 3.373735 1_555
Mg1 Mg3 3.373735 1_556
Mg1 Zr0 3.440408 1_555
Mg1 Rb0 3.440909 1_655
Mg1 Rb0 3.440985 1_555
Mg1 Zr0 3.441486 1_565
Mg2 Mg4 2.997055 1_455
Mg2 Mg5 2.997408 1_545
Mg2 Zr0 3.138402 1_455
Mg2 Zr0 3.138402 1_454
Mg2 Rb0 3.592340 1_554
Mg2 Rb0 3.592340 1_555
Mg3 Mg4 2.997055 1_565
Mg3 Mg5 2.997408 1_655
Mg3 Zr0 3.138402 1_565
Mg3 Zr0 3.138402 1_564
Mg3 Rb0 3.592340 1_554
Mg3 Rb0 3.592340 1_555
Mg4 Zr0 3.138659 1_555
Mg4 Zr0 3.138659 1_554
Mg4 Rb0 3.591584 1_555
Mg4 Rb0 3.591584 1_554
Mg5 Zr0 3.138633 1_465
Mg5 Zr0 3.138633 1_464
Mg5 Rb0 3.592557 1_554
Mg5 Rb0 3.592557 1_555
