# generated using pymatgen
data_Sr(In4Rh)2
_symmetry_space_group_name_H-M   'P 1'
_cell_length_a   4.40861968
_cell_length_b   13.97281583
_cell_length_c   16.25161244
_cell_angle_alpha   90.00000000
_cell_angle_beta   90.00000000
_cell_angle_gamma   90.00000000
_symmetry_Int_Tables_number   1
_chemical_formula_structural   Sr(In4Rh)2
_chemical_formula_sum   'Sr4 In32 Rh8'
_cell_volume   1001.11282901
_cell_formula_units_Z   4
loop_
 _symmetry_equiv_pos_site_id
 _symmetry_equiv_pos_as_xyz
  1  'x, y, z'
loop_
 _atom_site_type_symbol
 _atom_site_label
 _atom_site_symmetry_multiplicity
 _atom_site_fract_x
 _atom_site_fract_y
 _atom_site_fract_z
 _atom_site_occupancy
  Sr  Sr0  1  0.50000000  0.84255140  0.31937176  1
  Sr  Sr1  1  0.50000000  0.15744860  0.68062824  1
  Sr  Sr2  1  0.50000000  0.34255140  0.18062824  1
  Sr  Sr3  1  0.50000000  0.65744860  0.81937176  1
  In  In0  1  -0.00000000  0.83402717  0.87822408  1
  In  In1  1  0.00000000  0.16597283  0.12177592  1
  In  In2  1  -0.00000000  0.33402717  0.62177592  1
  In  In3  1  -0.00000000  0.66597283  0.37822408  1
  In  In4  1  -0.00000000  0.55024518  0.68300710  1
  In  In5  1  0.00000000  0.44975482  0.31699290  1
  In  In6  1  0.00000000  0.05024518  0.81699290  1
  In  In7  1  -0.00000000  0.94975482  0.18300710  1
  In  In8  1  -0.00000000  -0.00000000  0.00000000  1
  In  In9  1  -0.00000000  0.50000000  0.50000000  1
  In  In10  1  -0.00000000  0.76037554  0.67672109  1
  In  In11  1  -0.00000000  0.23962446  0.32327891  1
  In  In12  1  0.00000000  0.26037554  0.82327891  1
  In  In13  1  0.00000000  0.73962446  0.17672109  1
  In  In14  1  0.50000000  0.84055786  0.04424508  1
  In  In15  1  0.50000000  0.15944214  0.95575492  1
  In  In16  1  0.50000000  0.34055786  0.45575492  1
  In  In17  1  0.50000000  0.65944214  0.54424508  1
  In  In18  1  -0.00000000  0.67007208  0.98909578  1
  In  In19  1  -0.00000000  0.32992792  0.01090422  1
  In  In20  1  0.00000000  0.17007208  0.51090422  1
  In  In21  1  0.00000000  0.82992792  0.48909578  1
  In  In22  1  0.50000000  0.60047636  0.25363752  1
  In  In23  1  0.50000000  0.39952364  0.74636248  1
  In  In24  1  0.50000000  0.10047636  0.24636248  1
  In  In25  1  0.50000000  0.89952364  0.75363752  1
  In  In26  1  0.50000000  0.50000000  0.00000000  1
  In  In27  1  0.50000000  -0.00000000  0.50000000  1
  In  In28  1  0.00000000  0.97899791  0.63352598  1
  In  In29  1  0.00000000  0.02100209  0.36647402  1
  In  In30  1  0.00000000  0.47899791  0.86647402  1
  In  In31  1  -0.00000000  0.52100209  0.13352598  1
  Rh  Rh0  1  0.50000000  0.65404295  0.09649308  1
  Rh  Rh1  1  0.50000000  0.34595705  0.90350692  1
  Rh  Rh2  1  0.50000000  0.15404295  0.40350692  1
  Rh  Rh3  1  0.50000000  0.84595705  0.59649308  1
  Rh  Rh4  1  0.50000000  0.53433513  0.40480429  1
  Rh  Rh5  1  0.50000000  0.46566487  0.59519571  1
  Rh  Rh6  1  0.50000000  0.03433513  0.09519571  1
  Rh  Rh7  1  0.50000000  0.96566487  0.90480429  1
loop_
_geom_bond_atom_site_label_1
_geom_bond_atom_site_label_2
_geom_bond_distance
_geom_bond_site_symmetry_2
In0 Rh7 2.903237 1_455
In0 Rh7 2.903237 1_555
In0 In18 2.914606 1_555
In0 Sr3 3.444029 1_455
In0 Sr3 3.444029 1_555
In1 Rh6 2.903237 1_555
In1 Rh6 2.903237 1_455
In1 In19 2.914606 1_555
In1 Sr2 3.444029 1_555
In1 Sr2 3.444029 1_455
In2 Rh5 2.903237 1_555
In2 Rh5 2.903237 1_455
In2 In20 2.914606 1_555
In2 Sr1 3.444029 1_555
In2 Sr1 3.444029 1_455
In3 Rh4 2.903237 1_455
In3 Rh4 2.903237 1_555
In3 Sr0 3.444029 1_555
In3 Sr0 3.444029 1_455
In4 Rh5 2.879625 1_555
In4 Rh5 2.879625 1_455
In4 Sr3 3.466135 1_455
In4 Sr3 3.466135 1_555
In5 Rh4 2.879625 1_455
In5 Rh4 2.879625 1_555
In5 Sr2 3.466135 1_555
In5 Sr2 3.466135 1_455
In6 Rh7 2.879625 1_545
In6 Rh7 2.879625 1_445
In6 Sr1 3.466135 1_555
In6 Sr1 3.466135 1_455
In7 Rh6 2.879625 1_465
In7 Rh6 2.879625 1_565
In7 Sr0 3.466135 1_455
In7 Sr0 3.466135 1_555
In8 Rh6 2.735437 1_555
In8 Rh6 2.735437 1_455
In8 Rh7 2.735437 1_444
In8 Rh7 2.735437 1_544
In9 Rh4 2.735437 1_455
In9 Rh4 2.735437 1_555
In9 Rh5 2.735437 1_455
In9 Rh5 2.735437 1_555
In10 Rh3 2.826471 1_455
In10 Rh3 2.826471 1_555
In10 In28 3.134392 1_555
In10 Sr3 3.507402 1_455
In10 Sr3 3.507402 1_555
In11 Rh2 2.826471 1_455
In11 Rh2 2.826471 1_555
In11 In29 3.134392 1_555
In11 Sr2 3.507402 1_455
In11 Sr2 3.507402 1_555
In12 Rh1 2.826471 1_555
In12 Rh1 2.826471 1_455
In12 In30 3.134392 1_555
In12 Sr1 3.507402 1_555
In12 Sr1 3.507402 1_455
In13 Rh0 2.826471 1_455
In13 Rh0 2.826471 1_555
In13 In31 3.134392 1_555
In13 Sr0 3.507402 1_455
In13 Sr0 3.507402 1_555
In14 Rh0 2.740977 1_555
In14 Rh6 2.831397 1_565
In14 Rh7 2.862031 1_554
In15 Rh1 2.740977 1_555
In15 Rh7 2.831397 1_545
In15 Rh6 2.862031 1_556
In16 Rh2 2.740977 1_555
In16 Rh4 2.831397 1_555
In16 Rh5 2.862031 1_555
In17 Rh3 2.740977 1_555
In17 Rh5 2.831397 1_555
In17 Rh4 2.862031 1_555
In18 Rh0 2.820549 1_556
In18 Rh0 2.820549 1_456
In18 In31 3.138160 1_556
In18 In30 3.331565 1_555
In18 Sr3 3.535287 1_455
In18 Sr3 3.535287 1_555
In19 Rh1 2.820549 1_454
In19 Rh1 2.820549 1_554
In19 In30 3.138160 1_554
In19 In31 3.331565 1_555
In19 Sr2 3.535287 1_455
In19 Sr2 3.535287 1_555
In20 Rh2 2.820549 1_555
In20 Rh2 2.820549 1_455
In20 In29 3.138160 1_555
In20 In28 3.331565 1_545
In20 Sr1 3.535287 1_555
In20 Sr1 3.535287 1_455
In21 Rh3 2.820549 1_555
In21 Rh3 2.820549 1_455
In21 In3 2.914606 1_555
In21 In28 3.138160 1_555
In21 In29 3.331565 1_565
In21 Sr0 3.535287 1_455
In21 Sr0 3.535287 1_555
In22 Rh4 2.624786 1_555
In22 Rh0 2.661272 1_555
In22 In31 3.146820 1_655
In22 In31 3.146820 1_555
In22 Sr0 3.547160 1_555
In22 Sr2 3.794232 1_555
In23 Rh5 2.624786 1_555
In23 Rh1 2.661272 1_555
In23 In30 3.146820 1_555
In23 In30 3.146820 1_655
In23 Sr1 3.547160 1_555
In23 Sr3 3.794232 1_555
In24 Rh6 2.624786 1_555
In24 Rh2 2.661272 1_555
In24 In29 3.146820 1_555
In24 In29 3.146820 1_655
In24 Sr2 3.547160 1_555
In24 Sr0 3.794232 1_545
In25 Rh7 2.624786 1_555
In25 Rh3 2.661272 1_555
In25 In28 3.146820 1_655
In25 In28 3.146820 1_555
In25 Sr3 3.547160 1_555
In25 Sr1 3.794232 1_565
In26 Rh1 2.663088 1_554
In26 Rh0 2.663088 1_555
In26 In31 3.107097 1_555
In26 In31 3.107097 1_655
In26 In30 3.107097 1_654
In26 In30 3.107097 1_554
In26 Sr2 3.668401 1_555
In26 Sr3 3.668401 1_554
In27 Rh3 2.663088 1_545
In27 Rh2 2.663088 1_555
In27 In29 3.107097 1_655
In27 In29 3.107097 1_555
In27 In28 3.107097 1_645
In27 In28 3.107097 1_545
In27 Sr1 3.668401 1_555
In27 Sr0 3.668401 1_545
In28 Rh3 2.945660 1_455
In28 Rh3 2.945660 1_555
In28 In6 3.143439 1_565
In28 Sr1 3.415009 1_565
In28 Sr1 3.415009 1_465
In29 Rh2 2.945660 1_455
In29 Rh2 2.945660 1_555
In29 In7 3.143439 1_545
In29 Sr0 3.415009 1_445
In29 Sr0 3.415009 1_545
In30 Rh1 2.945660 1_455
In30 Rh1 2.945660 1_555
In30 In4 3.143439 1_555
In30 Sr3 3.415009 1_455
In30 Sr3 3.415009 1_555
In31 Rh0 2.945660 1_455
In31 Rh0 2.945660 1_555
In31 In5 3.143439 1_555
In31 Sr2 3.415009 1_455
In31 Sr2 3.415009 1_555
