# generated using pymatgen
data_MgCo4(NiS4)2
_symmetry_space_group_name_H-M   'P 1'
_cell_length_a   6.98404631
_cell_length_b   6.97948158
_cell_length_c   6.98404614
_cell_angle_alpha   60.02161519
_cell_angle_beta   60.13903704
_cell_angle_gamma   60.02162227
_symmetry_Int_Tables_number   1
_chemical_formula_structural   MgCo4(NiS4)2
_chemical_formula_sum   'Mg1 Co4 Ni2 S8'
_cell_volume   241.05646321
_cell_formula_units_Z   1
loop_
 _symmetry_equiv_pos_site_id
 _symmetry_equiv_pos_as_xyz
  1  'x, y, z'
loop_
 _atom_site_type_symbol
 _atom_site_label
 _atom_site_symmetry_multiplicity
 _atom_site_fract_x
 _atom_site_fract_y
 _atom_site_fract_z
 _atom_site_occupancy
  Mg  Mg0  1  0.62317900  0.62682100  0.62317900  1
  Co  Co0  1  0.48359100  0.48154000  0.48359100  1
  Co  Co1  1  0.48452900  0.48392300  0.04762400  1
  Co  Co2  1  0.48359100  0.05127900  0.48359100  1
  Co  Co3  1  0.04762400  0.48392300  0.48452900  1
  Ni  Ni0  1  0.87452000  0.87548000  0.87452000  1
  Ni  Ni1  1  0.12485700  0.12514300  0.12485700  1
  S  S0  1  0.75232200  0.75236900  0.75232200  1
  S  S1  1  0.25770900  0.25912100  0.72404900  1
  S  S2  1  0.25868800  0.72264700  0.25868800  1
  S  S3  1  0.72404900  0.25912100  0.25770900  1
  S  S4  1  0.75232200  0.24298600  0.75232200  1
  S  S5  1  0.24062800  0.75283500  0.75370300  1
  S  S6  1  0.25868800  0.25997700  0.25868800  1
  S  S7  1  0.75370300  0.75283500  0.24062800  1
loop_
_geom_bond_atom_site_label_1
_geom_bond_atom_site_label_2
_geom_bond_distance
_geom_bond_site_symmetry_2
Mg0 S7 2.184132 1_555
Mg0 S5 2.184132 1_555
Mg0 S0 2.187358 1_555
Mg0 S4 2.187364 1_555
Co0 S1 2.218728 1_555
Co0 S3 2.218728 1_555
Co0 S2 2.222620 1_555
Co0 Mg0 2.418915 1_555
Co0 S4 2.660663 1_555
Co0 S7 2.682282 1_555
Co0 S5 2.682282 1_555
Co1 S3 2.221139 1_555
Co1 S6 2.224799 1_555
Co1 S2 2.224804 1_555
Co1 Mg0 2.423198 1_554
Co1 S0 2.657273 1_554
Co1 S4 2.657273 1_554
Co1 S5 2.659856 1_554
Co2 S3 2.218723 1_555
Co2 S1 2.218723 1_555
Co2 S6 2.222621 1_555
Co2 Mg0 2.418921 1_545
Co2 S0 2.660664 1_545
Co2 S5 2.682282 1_545
Co2 S7 2.682282 1_545
Co3 S1 2.221139 1_555
Co3 S6 2.224799 1_555
Co3 S2 2.224804 1_555
Co3 Mg0 2.423198 1_455
Co3 S4 2.657273 1_455
Co3 S0 2.657273 1_455
Co3 S7 2.659856 1_455
Ni0 S7 2.090127 1_556
Ni0 S5 2.090127 1_655
Ni0 S4 2.094268 1_565
Ni0 S0 2.094274 1_555
Ni1 S1 2.288231 1_554
Ni1 S3 2.288231 1_455
Ni1 S6 2.293662 1_555
Ni1 S2 2.293662 1_545
