# generated using pymatgen
data_MgCo2(SbO4)2
_symmetry_space_group_name_H-M   'P 1'
_cell_length_a   6.28690718
_cell_length_b   6.22666541
_cell_length_c   6.15833124
_cell_angle_alpha   60.36836708
_cell_angle_beta   60.67531642
_cell_angle_gamma   93.85425892
_symmetry_Int_Tables_number   1
_chemical_formula_structural   MgCo2(SbO4)2
_chemical_formula_sum   'Mg1 Co2 Sb2 O8'
_cell_volume   166.78132526
_cell_formula_units_Z   1
loop_
 _symmetry_equiv_pos_site_id
 _symmetry_equiv_pos_as_xyz
  1  'x, y, z'
loop_
 _atom_site_type_symbol
 _atom_site_label
 _atom_site_symmetry_multiplicity
 _atom_site_fract_x
 _atom_site_fract_y
 _atom_site_fract_z
 _atom_site_occupancy
  Mg  Mg0  1  0.50000000  0.00000000  0.50000000  1
  Co  Co0  1  0.00000000  0.50000000  0.50000000  1
  Co  Co1  1  0.50000000  0.00000000  0.00000000  1
  Sb  Sb0  1  0.00000000  0.00000000  0.50000000  1
  Sb  Sb1  1  0.00000000  0.00000000  0.00000000  1
  O  O0  1  0.76810500  0.78444700  0.97369100  1
  O  O1  1  0.22624100  0.78996100  0.48156900  1
  O  O2  1  0.77373700  0.21001500  0.99784800  1
  O  O3  1  0.76374700  0.77345700  0.48137200  1
  O  O4  1  0.23625300  0.22654300  0.51862800  1
  O  O5  1  0.22626300  0.78998500  0.00215200  1
  O  O6  1  0.77375900  0.21003900  0.51843100  1
  O  O7  1  0.23189500  0.21555300  0.02630900  1
loop_
_geom_bond_atom_site_label_1
_geom_bond_atom_site_label_2
_geom_bond_distance
_geom_bond_site_symmetry_2
Mg0 O5 2.172678 1_546
Mg0 O2 2.172678 1_554
Mg0 O6 2.172796 1_555
Mg0 O1 2.172796 1_545
Mg0 O3 2.245125 1_545
Mg0 O4 2.245125 1_555
Co0 O1 2.142371 1_555
Co0 O6 2.142371 1_455
Co0 O5 2.142956 1_555
Co0 O2 2.142956 1_455
Co0 O4 2.330729 1_555
Co0 O3 2.330729 1_455
Co1 O2 2.080844 1_554
Co1 O5 2.080844 1_545
Co1 O1 2.080909 1_545
Co1 O6 2.080909 1_554
Co1 O0 2.218207 1_544
Co1 O7 2.218207 1_555
O0 Sb0 2.033754 1_665
O0 Sb1 2.033841 1_666
O1 Sb0 1.996289 1_565
O2 Sb1 1.996280 1_656
O3 Sb1 2.062593 1_665
O3 Sb0 2.062604 1_665
O4 Sb1 2.062593 1_556
O4 Sb0 2.062604 1_555
O5 Sb1 1.996280 1_565
O6 Sb0 1.996289 1_655
O7 Sb0 2.033754 1_555
O7 Sb1 2.033841 1_555
