# generated using pymatgen
data_Na10Ta4Ga4Si9(SO16)3
_symmetry_space_group_name_H-M   'P 1'
_cell_length_a   17.85168150
_cell_length_b   8.89176961
_cell_length_c   22.33798041
_cell_angle_alpha   89.98180690
_cell_angle_beta   90.69189570
_cell_angle_gamma   119.76801354
_symmetry_Int_Tables_number   1
_chemical_formula_structural   Na10Ta4Ga4Si9(SO16)3
_chemical_formula_sum   'Na30 Ta12 Ga12 Si27 S9 O144'
_cell_volume   3077.59451469
_cell_formula_units_Z   3
loop_
 _symmetry_equiv_pos_site_id
 _symmetry_equiv_pos_as_xyz
  1  'x, y, z'
loop_
 _atom_site_type_symbol
 _atom_site_label
 _atom_site_symmetry_multiplicity
 _atom_site_fract_x
 _atom_site_fract_y
 _atom_site_fract_z
 _atom_site_occupancy
  Na  Na0  1  0.18675489  0.36513487  0.24417521  1
  Na  Na1  1  0.68671995  0.36586873  0.24381612  1
  Na  Na2  1  0.18733357  0.00855995  0.74348517  1
  Na  Na3  1  0.68531763  0.00533686  0.74383993  1
  Na  Na4  1  0.65159351  0.34050160  0.58032316  1
  Na  Na5  1  0.02144282  0.70288766  0.57682662  1
  Na  Na6  1  0.51916845  0.69266000  0.58026638  1
  Na  Na7  1  0.32696458  0.96874883  0.58434722  1
  Na  Na8  1  0.15227783  0.96318084  0.08016244  1
  Na  Na9  1  0.65221448  0.96295858  0.08008107  1
  Na  Na10  1  0.32783319  0.69008216  0.08261682  1
  Na  Na11  1  0.82788944  0.69036183  0.08257204  1
  Na  Na12  1  0.02016683  0.34597585  0.08036309  1
  Na  Na13  1  0.52010038  0.34608101  0.08031677  1
  Na  Na14  1  0.48759502  0.67288649  0.91395393  1
  Na  Na15  1  0.98763853  0.67298546  0.91459993  1
  Na  Na16  1  0.35235501  0.66798310  0.41064944  1
  Na  Na17  1  0.85275991  0.67378932  0.41041278  1
  Na  Na18  1  0.01153294  0.01901721  0.49325650  1
  Na  Na19  1  0.50969055  0.01071832  0.49240347  1
  Na  Na20  1  0.00591569  0.01773969  0.99183101  1
  Na  Na21  1  0.50596459  0.01770089  0.99180837  1
  Na  Na22  1  0.33996752  0.33159573  0.82674652  1
  Na  Na23  1  0.83968906  0.33013164  0.82818049  1
  Na  Na24  1  0.34327577  0.33775606  0.32788632  1
  Na  Na25  1  0.84418936  0.33633345  0.32604866  1
  Na  Na26  1  0.16779094  0.67246792  0.16257247  1
  Na  Na27  1  0.66785232  0.67236735  0.16238473  1
  Na  Na28  1  0.17279142  0.65985499  0.66248926  1
  Na  Na29  1  0.67293638  0.67317709  0.66026624  1
  Ta  Ta0  1  0.99575789  0.98882663  0.64627507  1
  Ta  Ta1  1  0.49438971  0.98649514  0.64414501  1
  Ta  Ta2  1  0.99605387  0.00107420  0.14582692  1
  Ta  Ta3  1  0.49585304  0.00115694  0.14576383  1
  Ta  Ta4  1  0.33325268  0.32347402  0.97868644  1
  Ta  Ta5  1  0.83321830  0.32352726  0.97882930  1
  Ta  Ta6  1  0.33282622  0.33688807  0.47990473  1
  Ta  Ta7  1  0.82994899  0.33908404  0.47719189  1
  Ta  Ta8  1  0.16141869  0.64980999  0.31198684  1
  Ta  Ta9  1  0.66154668  0.65263034  0.31192654  1
  Ta  Ta10  1  0.16344700  0.67444331  0.81187641  1
  Ta  Ta11  1  0.66302701  0.67472484  0.81171903  1
  Ga  Ga0  1  0.00146463  0.00139762  0.35292768  1
  Ga  Ga1  1  0.50101333  0.99935264  0.35246754  1
  Ga  Ga2  1  0.99965308  0.00711757  0.85214179  1
  Ga  Ga3  1  0.49965006  0.00633865  0.85220338  1
  Ga  Ga4  1  0.34244788  0.33823928  0.68352141  1
  Ga  Ga5  1  0.83542009  0.33337530  0.68631941  1
  Ga  Ga6  1  0.34308781  0.34839349  0.18387755  1
  Ga  Ga7  1  0.84307545  0.34845870  0.18363353  1
  Ga  Ga8  1  0.15883448  0.66174399  0.01983637  1
  Ga  Ga9  1  0.65880488  0.66165034  0.01978465  1
  Ga  Ga10  1  0.16524099  0.66270877  0.51720960  1
  Ga  Ga11  1  0.66046585  0.65957394  0.52194223  1
  Si  Si0  1  0.35602664  0.70782510  0.25335719  1
  Si  Si1  1  0.85641598  0.70849188  0.25367537  1
  Si  Si2  1  0.99149262  0.27968101  0.25234165  1
  Si  Si3  1  0.49157397  0.27984205  0.25260734  1
  Si  Si4  1  0.99183966  0.70134012  0.75302382  1
  Si  Si5  1  0.49111036  0.70185280  0.75316506  1
  Si  Si6  1  0.35710656  0.00561173  0.75236147  1
  Si  Si7  1  0.85703443  0.00582633  0.75250214  1
  Si  Si8  1  0.47930892  0.33589500  0.58401030  1
  Si  Si9  1  0.18898345  0.04627955  0.58522519  1
  Si  Si10  1  0.69273394  0.04189625  0.58624358  1
  Si  Si11  1  0.32391739  0.60879390  0.58559824  1
  Si  Si12  1  0.82966456  0.61956938  0.58524547  1
  Si  Si13  1  0.47902779  0.62223813  0.08294657  1
  Si  Si14  1  0.97909996  0.62237818  0.08293547  1
  Si  Si15  1  0.32867798  0.04227018  0.08597540  1
  Si  Si16  1  0.82875033  0.04215534  0.08601158  1
  Si  Si17  1  0.19126239  0.33668354  0.08542799  1
  Si  Si18  1  0.69124487  0.33671477  0.08549484  1
  Si  Si19  1  0.02317674  0.36907969  0.91798728  1
  Si  Si20  1  0.52328230  0.36901358  0.91797392  1
  Si  Si21  1  0.16396027  0.95995773  0.91828614  1
  Si  Si22  1  0.66409276  0.96003811  0.91842979  1
  Si  Si23  1  0.16066429  0.36601464  0.41900334  1
  Si  Si24  1  0.65860872  0.36773747  0.41871379  1
  Si  Si25  1  0.02392635  0.67340578  0.41941106  1
  Si  Si26  1  0.52290141  0.67302440  0.41904839  1
  S  S0  1  0.14515640  0.99798968  0.25115809  1
  S  S1  1  0.64538842  -0.00147944  0.25099660  1
  S  S2  1  0.14409592  0.28982730  0.75102588  1
  S  S3  1  0.64508918  0.29171175  0.75087682  1
  S  S4  1  0.97771547  0.33142345  0.58400183  1
  S  S5  1  0.31006719  0.66637106  0.91805215  1
  S  S6  1  0.81034321  0.66671482  0.91793185  1
  S  S7  1  0.31065228  0.95806565  0.41691825  1
  S  S8  1  0.80986706  0.95520850  0.41803600  1
  O  O0  1  0.10351069  0.02317104  0.30353431  1
  O  O1  1  0.60374143  0.02347173  0.30362925  1
  O  O2  1  0.41295894  0.79754560  0.31254670  1
  O  O3  1  0.91332305  0.79796995  0.31298125  1
  O  O4  1  0.48872407  0.16737316  0.30890288  1
  O  O5  1  0.98811964  0.16711590  0.30865406  1
  O  O6  1  0.10479951  0.18162265  0.80394824  1
  O  O7  1  0.60528910  0.18178014  0.80337306  1
  O  O8  1  0.48851825  0.80184739  0.81248400  1
  O  O9  1  0.98616472  0.79788728  0.81199435  1
  O  O10  1  0.41757519  0.03176843  0.80884049  1
  O  O11  1  0.91703806  0.03265522  0.80932607  1
  O  O12  1  0.40236022  0.97604689  0.69088619  1
  O  O13  1  0.90504669  0.97903356  0.69239138  1
  O  O14  1  0.08877687  0.20978017  0.69602525  1
  O  O15  1  0.59203230  0.21414039  0.69498848  1
  O  O16  1  0.01627813  0.83449365  0.69357619  1
  O  O17  1  0.51670973  0.83430251  0.69380871  1
  O  O18  1  0.40383951  0.83082991  0.19301564  1
  O  O19  1  0.90400900  0.83089600  0.19320923  1
  O  O20  1  0.01729310  0.20218154  0.19187390  1
  O  O21  1  0.51746985  0.20220782  0.19211571  1
  O  O22  1  0.09132564  0.96932837  0.19495248  1
  O  O23  1  0.59143126  0.96934056  0.19497509  1
  O  O24  1  0.43859409  0.37586687  0.64072811  1
  O  O25  1  0.93905957  0.36065010  0.63727762  1
  O  O26  1  0.24857946  0.12601141  0.64454852  1
  O  O27  1  0.74665524  0.13220742  0.64655127  1
  O  O28  1  0.31322053  0.49488479  0.64274600  1
  O  O29  1  0.81682205  0.49429470  0.64025929  1
  O  O30  1  0.43803254  0.49860838  0.13914355  1
  O  O31  1  0.93805733  0.49879065  0.13912587  1
  O  O32  1  0.30935717  0.12983605  0.14142289  1
  O  O33  1  0.80932577  0.12981622  0.14138399  1
  O  O34  1  0.24873019  0.36984849  0.14550085  1
  O  O35  1  0.74873620  0.36995725  0.14557215  1
  O  O36  1  0.23730801  0.29874154  0.02756577  1
  O  O37  1  0.73731490  0.29878023  0.02765548  1
  O  O38  1  0.41662696  0.54233566  0.02247628  1
  O  O39  1  0.91671441  0.54232403  0.02245983  1
  O  O40  1  0.35343113  0.17095680  0.02629625  1
  O  O41  1  0.85344483  0.17096423  0.02633539  1
  O  O42  1  0.23664050  0.16768546  0.52605192  1
  O  O43  1  0.74066164  0.17415912  0.52829687  1
  O  O44  1  0.34943208  0.53509209  0.52479946  1
  O  O45  1  0.85289243  0.53694946  0.52458414  1
  O  O46  1  0.41447240  0.29282592  0.52507748  1
  O  O47  1  0.92396385  0.30310724  0.52914740  1
  O  O48  1  0.27127356  0.68747802  0.97283444  1
  O  O49  1  0.77143388  0.68745280  0.97286001  1
  O  O50  1  0.07738693  0.45731934  0.97903261  1
  O  O51  1  0.57742489  0.45689935  0.97908894  1
  O  O52  1  0.14979646  0.84007158  0.97639458  1
  O  O53  1  0.65017243  0.84026843  0.97652022  1
  O  O54  1  0.27294173  0.85681042  0.47215603  1
  O  O55  1  0.77001777  0.84768210  0.47074671  1
  O  O56  1  0.15321421  0.47023565  0.47505115  1
  O  O57  1  0.65441762  0.46490411  0.47767416  1
  O  O58  1  0.07862556  0.69693980  0.48023960  1
  O  O59  1  0.57941324  0.70007155  0.47883548  1
  O  O60  1  0.07385717  0.64767727  0.36115204  1
  O  O61  1  0.57376349  0.64836812  0.36052328  1
  O  O62  1  0.25591724  0.87036715  0.36330947  1
  O  O63  1  0.75667144  0.87798832  0.36255690  1
  O  O64  1  0.18237170  0.49650384  0.35836828  1
  O  O65  1  0.68345203  0.49971863  0.35931554  1
  O  O66  1  0.07315482  0.50351966  0.86098131  1
  O  O67  1  0.57347039  0.50363401  0.86111629  1
  O  O68  1  0.18072586  0.86671576  0.85834344  1
  O  O69  1  0.68097875  0.86744014  0.85844469  1
  O  O70  1  0.25610999  0.64349853  0.86383607  1
  O  O71  1  0.75638058  0.64364441  0.86375309  1
  O  O72  1  0.00365477  0.83144113  0.41189196  1
  O  O73  1  0.50417149  0.83363522  0.41102522  1
  O  O74  1  0.39673288  0.97442770  0.41242625  1
  O  O75  1  0.89640309  0.97440527  0.41270668  1
  O  O76  1  0.07847567  0.17703837  0.40939834  1
  O  O77  1  0.57888523  0.17694997  0.40913546  1
  O  O78  1  0.00967773  0.17809805  0.91015532  1
  O  O79  1  0.50972635  0.17794220  0.90992576  1
  O  O80  1  0.07657493  0.97036416  0.90917717  1
  O  O81  1  0.57682978  0.97114109  0.90987140  1
  O  O82  1  0.39806823  0.81596142  0.91354196  1
  O  O83  1  0.89820372  0.81596416  0.91353050  1
  O  O84  1  0.48822260  0.15918534  0.58984120  1
  O  O85  1  0.98743603  0.17459190  0.58925925  1
  O  O86  1  0.09161791  0.02770805  0.59106683  1
  O  O87  1  0.59571856  0.03121634  0.59089143  1
  O  O88  1  0.41692070  0.80521194  0.59034177  1
  O  O89  1  0.92079505  0.81091215  0.59022862  1
  O  O90  1  0.48834578  0.81661867  0.09051279  1
  O  O91  1  0.98824866  0.81653434  0.09042841  1
  O  O92  1  0.41901323  0.02912747  0.09075462  1
  O  O93  1  0.91899116  0.02888911  0.09080941  1
  O  O94  1  0.09464247  0.15861602  0.09103885  1
  O  O95  1  0.59467346  0.15865847  0.09111428  1
  O  O96  1  0.33596760  0.16210840  0.74486829  1
  O  O97  1  0.83708031  0.16444875  0.74441613  1
  O  O98  1  0.22922732  0.30684282  0.74485916  1
  O  O99  1  0.73110468  0.30924115  0.74584193  1
  O  O100  1  0.40915660  0.51328443  0.74542854  1
  O  O101  1  0.91151434  0.51132358  0.74218083  1
  O  O102  1  0.33693786  0.51049775  0.24551879  1
  O  O103  1  0.83703452  0.51074710  0.24584024  1
  O  O104  1  0.40953115  0.30446946  0.24425498  1
  O  O105  1  0.90949608  0.30453883  0.24389429  1
  O  O106  1  0.22979582  0.15185861  0.24572350  1
  O  O107  1  0.72988464  0.15200562  0.24579623  1
  O  O108  1  0.31825025  0.50559971  0.92006080  1
  O  O109  1  0.81847511  0.50566680  0.92004373  1
  O  O110  1  0.42910362  0.36990996  0.92204751  1
  O  O111  1  0.92899508  0.37007597  0.92192058  1
  O  O112  1  0.25207716  0.15130468  0.92182442  1
  O  O113  1  0.75221046  0.15164185  0.92179387  1
  O  O114  1  0.31761678  0.13143108  0.41952698  1
  O  O115  1  0.81946139  0.13237496  0.42347869  1
  O  O116  1  0.25251971  0.35952467  0.42230600  1
  O  O117  1  0.75222903  0.36018531  0.42272266  1
  O  O118  1  0.42576721  0.49356378  0.42251557  1
  O  O119  1  0.92686066  0.49068320  0.42401408  1
  O  O120  1  0.17844200  0.50412748  0.07676501  1
  O  O121  1  0.67850680  0.50422251  0.07683054  1
  O  O122  1  0.07607704  0.65157631  0.07846639  1
  O  O123  1  0.57604552  0.65149827  0.07846233  1
  O  O124  1  0.25013473  0.84736900  0.07479698  1
  O  O125  1  0.75013870  0.84726025  0.07486108  1
  O  O126  1  0.17432870  0.84884238  0.57725187  1
  O  O127  1  0.67517498  0.84756872  0.57800609  1
  O  O128  1  0.24872716  0.65842699  0.57524275  1
  O  O129  1  0.74720777  0.64254823  0.57538299  1
  O  O130  1  0.06413399  0.48677103  0.57903797  1
  O  O131  1  0.57546452  0.49958265  0.57844921  1
  O  O132  1  0.15319803  0.83910429  0.25580563  1
  O  O133  1  0.65340662  0.83941398  0.25564671  1
  O  O134  1  0.25871047  0.69532190  0.25739528  1
  O  O135  1  0.75902163  0.69573916  0.25774218  1
  O  O136  1  0.08402602  0.47587883  0.25674942  1
  O  O137  1  0.58456240  0.47603070  0.25720425  1
  O  O138  1  0.15189726  0.46493603  0.75640113  1
  O  O139  1  0.65376320  0.46671106  0.75676456  1
  O  O140  1  0.08500084  0.69329310  0.75609845  1
  O  O141  1  0.58461136  0.69265927  0.75684251  1
  O  O142  1  0.25948177  0.82282915  0.75755609  1
  O  O143  1  0.75959878  0.82474881  0.75743446  1
loop_
_geom_bond_atom_site_label_1
_geom_bond_atom_site_label_2
_geom_bond_distance
_geom_bond_site_symmetry_2
Na0 O102 2.327340 1_555
Na0 O106 2.373626 1_555
Na0 O34 2.469215 1_555
Na0 O136 2.493483 1_555
Na0 O134 2.569741 1_555
Na0 O64 2.823979 1_555
Na0 O20 2.859940 1_555
Na0 O0 2.961475 1_555
Na1 O103 2.329512 1_555
Na1 O107 2.380345 1_555
Na1 O35 2.462070 1_555
Na1 O137 2.482323 1_555
Na1 O135 2.568581 1_555
Na1 O21 2.851514 1_555
Na1 O65 2.854985 1_555
Na1 O1 2.969097 1_555
Na2 O96 2.303519 1_555
Na2 O98 2.371628 1_555
Na2 O26 2.468490 1_555
Na2 O140 2.490347 1_545
Na2 O142 2.566521 1_545
Na2 O68 2.836372 1_545
Na2 O16 2.861626 1_545
Na2 O6 2.943425 1_555
Na3 O97 2.352609 1_555
Na3 O99 2.403787 1_555
Na3 O27 2.454358 1_555
Na3 O141 2.468826 1_545
Na3 O143 2.556040 1_545
Na3 O69 2.823424 1_545
Na3 O17 2.827725 1_545
Na3 O7 2.922980 1_555
Na4 O129 2.364547 1_555
Na4 O131 2.399378 1_555
Na4 O87 2.427982 1_555
Na4 O57 2.535676 1_555
Na4 O84 2.548712 1_555
Na4 O15 2.798457 1_555
Na4 O29 2.874593 1_555
Na4 O43 2.906443 1_555
Na5 O126 2.369704 1_555
Na5 O130 2.393593 1_555
Na5 O58 2.409726 1_555
Na5 O89 2.442817 1_455
Na5 O86 2.531910 1_565
Na5 O45 2.846105 1_455
Na5 O16 2.879961 1_555
Na5 O25 2.974584 1_455
Na6 O131 2.381868 1_555
Na6 O127 2.418707 1_555
Na6 O88 2.491564 1_555
Na6 O59 2.506598 1_555
Na6 O87 2.625600 1_565
Na6 O24 2.801596 1_555
Na6 O17 2.842641 1_555
Na6 O44 2.893862 1_555
Na7 O126 2.385660 1_555
Na7 O128 2.402613 1_555
Na7 O84 2.514096 1_565
Na7 O88 2.650411 1_555
Na7 O54 2.681691 1_555
Na7 O12 2.704724 1_555
Na7 O26 2.776950 1_565
Na7 O46 2.841574 1_565
Na8 O122 2.405202 1_555
Na8 O124 2.432677 1_555
Na8 O94 2.432937 1_565
Na8 O52 2.554248 1_554
Na8 O91 2.559653 1_455
Na8 O32 2.777432 1_565
Na8 O22 2.808645 1_555
Na8 O36 2.851438 1_565
Na9 O123 2.404073 1_555
Na9 O125 2.432819 1_555
Na9 O95 2.434172 1_565
Na9 O53 2.550114 1_554
Na9 O90 2.557643 1_555
Na9 O33 2.778368 1_565
Na9 O23 2.809990 1_555
Na9 O37 2.851680 1_565
Na10 O120 2.340167 1_555
Na10 O124 2.414668 1_555
Na10 O90 2.508833 1_555
Na10 O92 2.625177 1_565
Na10 O48 2.636452 1_554
Na10 O18 2.779178 1_555
Na10 O34 2.850943 1_555
Na10 O38 2.857201 1_555
Na11 O121 2.340176 1_555
Na11 O125 2.412330 1_555
Na11 O91 2.506652 1_555
Na11 O93 2.621377 1_565
Na11 O49 2.633826 1_554
Na11 O19 2.783994 1_555
Na11 O35 2.853384 1_555
Na11 O39 2.859244 1_555
Na12 O122 2.385310 1_555
Na12 O120 2.455057 1_555
Na12 O50 2.489442 1_554
Na12 O93 2.493821 1_455
Na12 O94 2.606025 1_555
Na12 O31 2.782665 1_455
Na12 O20 2.788917 1_555
Na12 O41 2.837561 1_455
Na13 O123 2.383681 1_555
Na13 O121 2.456974 1_555
Na13 O51 2.486866 1_554
Na13 O92 2.492630 1_555
Na13 O95 2.608193 1_555
Na13 O30 2.780857 1_555
Na13 O21 2.795845 1_555
Na13 O40 2.836797 1_555
Na14 O81 2.321096 1_555
Na14 O110 2.364658 1_555
Na14 O82 2.488249 1_555
Na14 O8 2.536392 1_555
Na14 O108 2.629618 1_555
Na14 O38 2.727859 1_556
Na14 O53 2.864575 1_555
Na14 O67 2.888575 1_555
Na15 O80 2.315825 1_655
Na15 O111 2.362433 1_555
Na15 O83 2.486049 1_555
Na15 O9 2.552123 1_555
Na15 O109 2.625872 1_555
Na15 O39 2.714621 1_556
Na15 O52 2.850744 1_655
Na15 O66 2.892270 1_655
Na16 O73 2.355897 1_555
Na16 O74 2.430989 1_555
Na16 O116 2.433855 1_555
Na16 O2 2.473461 1_555
Na16 O118 2.490504 1_555
Na16 O44 2.800171 1_555
Na16 O64 2.866716 1_555
Na17 O72 2.338937 1_655
Na17 O75 2.384490 1_555
Na17 O3 2.448434 1_555
Na17 O117 2.472706 1_555
Na17 O119 2.573246 1_555
Na17 O45 2.825871 1_555
Na17 O65 2.847124 1_555
Na17 O55 2.950630 1_555
Na18 O76 2.301391 1_555
Na18 O72 2.422359 1_545
Na18 O86 2.576541 1_555
Na18 O75 2.592411 1_445
Na18 O85 2.704187 1_455
Na18 O89 2.801076 1_445
Na19 O77 2.326175 1_555
Na19 O73 2.374227 1_545
Na19 O74 2.574735 1_545
Na19 O87 2.621553 1_555
Na19 O84 2.674209 1_555
Na19 O88 2.819213 1_545
Na20 O78 2.296198 1_555
Na20 O80 2.400378 1_545
Na20 O83 2.543750 1_445
Na20 O94 2.633603 1_556
Na20 O93 2.746258 1_456
Na20 O91 2.757733 1_446
Na21 O79 2.299245 1_555
Na21 O81 2.387103 1_545
Na21 O82 2.544438 1_545
Na21 O95 2.635446 1_556
Na21 O92 2.746741 1_556
Na21 O90 2.759169 1_546
Na22 O100 2.346496 1_555
Na22 O96 2.348028 1_555
Na22 O110 2.561318 1_555
Na22 O98 2.604497 1_555
Na22 O112 2.668919 1_555
Na22 O108 2.739758 1_555
Na23 O97 2.367523 1_555
Na23 O101 2.436484 1_555
Na23 O111 2.531815 1_555
Na23 O99 2.594507 1_555
Na23 O113 2.635548 1_555
Na23 O109 2.719959 1_555
Na24 O104 2.319026 1_555
Na24 O102 2.433741 1_555
Na24 O118 2.541070 1_555
Na24 O106 2.606098 1_555
Na24 O114 2.636636 1_555
Na24 O116 2.739530 1_555
Na25 O105 2.277323 1_555
Na25 O103 2.412676 1_555
Na25 O107 2.579991 1_555
Na25 O119 2.600610 1_555
Na25 O115 2.728784 1_555
Na25 O117 2.799119 1_555
Na26 O122 2.422551 1_555
Na26 O124 2.494296 1_555
Na26 O120 2.498784 1_555
Na26 O134 2.598448 1_555
Na26 O132 2.645565 1_555
Na26 O136 2.682422 1_555
Na27 O123 2.420500 1_555
Na27 O125 2.489516 1_555
Na27 O121 2.493354 1_555
Na27 O135 2.609602 1_555
Na27 O133 2.647282 1_555
Na27 O137 2.690903 1_555
Na28 O128 2.391009 1_555
Na28 O126 2.530490 1_555
Na28 O130 2.560522 1_555
Na28 O142 2.588499 1_555
Na28 O138 2.630295 1_555
Na28 O140 2.731160 1_555
Na29 O127 2.391870 1_555
Na29 O129 2.418052 1_555
Na29 O131 2.451229 1_555
Na29 O143 2.602197 1_555
Na29 O141 2.742952 1_555
Na29 O139 2.743239 1_555
Ga0 O5 1.883637 1_455
Ga0 O3 1.919605 1_445
Ga0 O76 1.935899 1_555
Ga0 O72 2.018991 1_545
Ga0 O0 2.066791 1_555
Ga0 O75 2.229717 1_445
Ga1 O4 1.883231 1_565
Ga1 O2 1.911120 1_555
Ga1 O77 1.951289 1_565
Ga1 O73 1.991219 1_555
Ga1 O1 2.063220 1_565
Ga1 O74 2.226843 1_555
Ga2 O11 1.854648 1_555
Ga2 O78 1.936041 1_655
Ga2 O9 1.968365 1_545
Ga2 O80 2.004681 1_645
Ga2 O6 2.060472 1_655
Ga2 O83 2.247484 1_545
Ga3 O10 1.852211 1_555
Ga3 O79 1.935527 1_555
Ga3 O8 1.941868 1_545
Ga3 O81 2.010157 1_545
Ga3 O7 2.075352 1_555
Ga3 O82 2.245383 1_545
Ga4 O24 1.854951 1_555
Ga4 O28 1.936816 1_555
Ga4 O100 1.968289 1_555
Ga4 O26 1.988163 1_555
Ga4 O96 2.041216 1_555
Ga4 O98 2.355161 1_555
Ga5 O27 1.911065 1_555
Ga5 O29 1.918002 1_555
Ga5 O101 1.931834 1_555
Ga5 O97 1.995815 1_555
Ga5 O25 2.070066 1_555
Ga5 O99 2.223631 1_555
Ga6 O30 1.856721 1_555
Ga6 O104 1.949226 1_555
Ga6 O32 1.965709 1_555
Ga6 O34 1.973003 1_555
Ga6 O102 2.036586 1_555
Ga6 O106 2.368383 1_555
Ga7 O31 1.854601 1_555
Ga7 O105 1.947141 1_555
Ga7 O33 1.964087 1_555
Ga7 O35 1.969934 1_555
Ga7 O103 2.045555 1_555
Ga7 O107 2.371469 1_555
Ga8 O50 1.895670 1_554
Ga8 O52 1.931650 1_554
Ga8 O122 1.954493 1_555
Ga8 O124 2.041982 1_555
Ga8 O120 2.044278 1_555
Ga8 O48 2.185942 1_554
Ga9 O51 1.895870 1_554
Ga9 O53 1.928392 1_554
Ga9 O123 1.955287 1_555
Ga9 O125 2.043692 1_555
Ga9 O121 2.045460 1_555
Ga9 O49 2.187838 1_554
Ga10 O56 1.869016 1_555
Ga10 O58 1.897843 1_555
Ga10 O128 1.978081 1_555
Ga10 O126 2.072185 1_555
Ga10 O54 2.106841 1_555
Ga10 O130 2.206272 1_555
Ga11 O59 1.906299 1_555
Ga11 O57 1.949012 1_555
Ga11 O131 1.954796 1_555
Ga11 O127 1.997283 1_555
Ga11 O129 2.008436 1_555
Ga11 O55 2.175968 1_555
O0 S0 1.469069 1_545
O1 S1 1.472861 1_555
O2 Si0 1.606434 1_555
O3 Si1 1.607993 1_555
O4 Si3 1.591945 1_555
O5 Si2 1.590265 1_555
O6 S2 1.471210 1_555
O7 S3 1.471457 1_555
O8 Si5 1.609836 1_555
O9 Si4 1.603988 1_555
O10 Si6 1.590296 1_555
O11 Si7 1.590322 1_555
O12 Si6 1.686834 1_565
O12 Ta1 1.920325 1_555
O13 Si7 1.680808 1_565
O13 Ta0 1.895067 1_555
O14 S2 1.504858 1_555
O14 Ta0 2.137677 1_445
O15 S3 1.501571 1_555
O15 Ta1 2.208084 1_545
O16 Si4 1.689862 1_455
O16 Ta0 1.903342 1_455
O17 Si5 1.683175 1_555
O17 Ta1 1.935100 1_555
O18 Si0 1.685674 1_555
O18 Ta3 1.917435 1_565
O19 Si1 1.685042 1_555
O19 Ta2 1.918853 1_565
O20 Si2 1.685897 1_455
O20 Ta2 1.928194 1_455
O21 Si3 1.687807 1_555
O21 Ta3 1.929599 1_555
O22 S0 1.514141 1_555
O22 Ta2 2.146608 1_465
O23 S1 1.511315 1_565
O23 Ta3 2.152555 1_565
O24 Si8 1.593372 1_555
O25 S4 1.469053 1_555
O26 Si9 1.614971 1_555
O27 Si10 1.608744 1_555
O28 Si11 1.582709 1_555
O29 Si12 1.598720 1_555
O30 Si13 1.594466 1_555
O31 Si14 1.594284 1_555
O32 Si15 1.592763 1_555
O33 Si16 1.592828 1_555
O34 Si17 1.614539 1_555
O35 Si18 1.614754 1_555
O36 Si17 1.661751 1_555
O36 Ta4 1.960897 1_554
O37 Si18 1.661585 1_555
O37 Ta5 1.959575 1_554
O38 Si13 1.657915 1_555
O38 Ta4 2.012255 1_554
O39 Si14 1.658018 1_555
O39 Ta5 2.010765 1_554
O40 Si15 1.671210 1_555
O40 Ta4 1.890729 1_554
O41 Si16 1.671828 1_555
O41 Ta5 1.890227 1_554
O42 Si9 1.658499 1_555
O42 Ta6 1.936767 1_555
O43 Si10 1.678470 1_555
O43 Ta7 1.927746 1_555
O44 Si11 1.671326 1_555
O44 Ta6 1.916968 1_555
O45 Si12 1.692478 1_555
O45 Ta7 1.912865 1_555
O46 Si8 1.656117 1_555
O46 Ta6 1.956361 1_555
O47 S4 1.489124 1_555
O47 Ta7 2.179884 1_555
O48 S5 1.470375 1_555
O49 S6 1.473047 1_555
O50 Si19 1.620636 1_555
O51 Si20 1.620928 1_555
O52 Si21 1.620050 1_555
O53 Si22 1.619830 1_555
O54 S7 1.484527 1_555
O55 S8 1.466532 1_555
O56 Si23 1.603468 1_555
O57 Si24 1.598121 1_555
O58 Si25 1.615186 1_555
O59 Si26 1.608088 1_555
O60 Si25 1.664674 1_555
O60 Ta8 1.913602 1_555
O61 Si26 1.675743 1_555
O61 Ta9 1.902020 1_555
O62 S7 1.487481 1_555
O62 Ta8 2.162366 1_555
O63 S8 1.494574 1_555
O63 Ta9 2.180434 1_555
O64 Si23 1.701823 1_555
O64 Ta8 1.888812 1_555
O65 Si24 1.682501 1_555
O65 Ta9 1.907671 1_555
O66 Si19 1.677492 1_555
O66 Ta10 1.928796 1_555
O67 Si20 1.676383 1_555
O67 Ta11 1.927262 1_555
O68 Si21 1.681268 1_555
O68 Ta10 1.888166 1_555
O69 Si22 1.679629 1_555
O69 Ta11 1.891097 1_555
O70 S5 1.487729 1_555
O70 Ta10 2.136494 1_555
O71 S6 1.486788 1_555
O71 Ta11 2.148260 1_555
O72 Si25 1.623924 1_555
O73 Si26 1.629715 1_555
O74 S7 1.474567 1_555
O75 S8 1.473889 1_555
O76 Si23 1.602120 1_555
O77 Si24 1.595191 1_555
O78 Si19 1.601644 1_555
O79 Si20 1.602574 1_555
O80 Si21 1.618377 1_555
O81 Si22 1.618183 1_555
O82 S5 1.475176 1_555
O83 S6 1.472300 1_555
O84 Si8 1.660960 1_555
O84 Ta1 2.001215 1_545
O85 S4 1.492734 1_555
O85 Ta0 2.147165 1_545
O86 Si9 1.669095 1_555
O86 Ta0 2.007997 1_445
O87 Si10 1.691230 1_555
O87 Ta1 2.045169 1_545
O88 Si11 1.713054 1_555
O88 Ta1 1.924278 1_555
O89 Si12 1.673613 1_555
O89 Ta0 1.928604 1_555
O90 Si13 1.660596 1_555
O90 Ta3 2.003146 1_565
O91 Si14 1.659719 1_555
O91 Ta2 2.003347 1_565
O92 Si15 1.675893 1_555
O92 Ta3 1.936819 1_555
O93 Si16 1.674837 1_555
O93 Ta2 1.939314 1_555
O94 Si17 1.670623 1_555
O94 Ta2 2.039721 1_455
O95 Si18 1.670109 1_555
O95 Ta3 2.039937 1_555
O96 Si6 1.620661 1_555
O97 Si7 1.626657 1_555
O98 S2 1.458834 1_555
O99 S3 1.470127 1_555
O100 Si5 1.593698 1_555
O101 Si4 1.598645 1_555
O102 Si0 1.621854 1_555
O103 Si1 1.623765 1_555
O104 Si3 1.593633 1_555
O105 Si2 1.594262 1_555
O106 S0 1.456436 1_545
O107 S1 1.453034 1_555
O108 S5 1.508014 1_555
O108 Ta4 2.197747 1_555
O109 S6 1.510014 1_555
O109 Ta5 2.197752 1_555
O110 Si20 1.688769 1_555
O110 Ta4 2.012333 1_555
O111 Si19 1.689062 1_655
O111 Ta5 2.014973 1_555
O112 Si21 1.647721 1_545
O112 Ta4 1.952140 1_555
O113 Si22 1.648865 1_545
O113 Ta5 1.952550 1_555
O114 S7 1.484832 1_545
O114 Ta6 2.174952 1_555
O115 S8 1.502485 1_545
O115 Ta7 2.123025 1_555
O116 Si23 1.669931 1_555
O116 Ta6 1.998249 1_555
O117 Si24 1.706906 1_555
O117 Ta7 1.912639 1_555
O118 Si26 1.677710 1_555
O118 Ta6 2.022883 1_555
O119 Si25 1.691602 1_655
O119 Ta7 1.988488 1_555
O120 Si17 1.625939 1_555
O121 Si18 1.625629 1_555
O122 Si14 1.622433 1_455
O123 Si13 1.622972 1_555
O124 Si15 1.615745 1_565
O125 Si16 1.616027 1_565
O126 Si9 1.650817 1_565
O127 Si10 1.605862 1_565
O128 Si11 1.621921 1_555
O129 Si12 1.596194 1_555
O130 S4 1.479296 1_455
O131 Si8 1.613859 1_555
O132 S0 1.492732 1_555
O132 Ta8 2.160790 1_555
O133 S1 1.494454 1_565
O133 Ta9 2.143339 1_555
O134 Si0 1.688358 1_555
O134 Ta8 2.005075 1_555
O135 Si1 1.688805 1_555
O135 Ta9 2.007012 1_555
O136 Si2 1.707768 1_455
O136 Ta8 1.913492 1_555
O137 Si3 1.711671 1_555
O137 Ta9 1.914804 1_555
O138 S2 1.497511 1_555
O138 Ta10 2.159259 1_555
O139 S3 1.490959 1_555
O139 Ta11 2.155957 1_555
O140 Si4 1.700319 1_455
O140 Ta10 1.931950 1_555
O141 Si5 1.712211 1_555
O141 Ta11 1.915143 1_555
O142 Si6 1.698344 1_565
O142 Ta10 1.988828 1_555
O143 Si7 1.689268 1_565
O143 Ta11 1.996961 1_555
