# generated using pymatgen
data_HfInP(SO6)2
_symmetry_space_group_name_H-M   'P 1'
_cell_length_a   8.91550877
_cell_length_b   8.90250838
_cell_length_c   23.01455122
_cell_angle_alpha   90.13112135
_cell_angle_beta   90.00000701
_cell_angle_gamma   120.04833060
_symmetry_Int_Tables_number   1
_chemical_formula_structural   HfInP(SO6)2
_chemical_formula_sum   'Hf6 In6 P6 S12 O72'
_cell_volume   1581.16952352
_cell_formula_units_Z   6
loop_
 _symmetry_equiv_pos_site_id
 _symmetry_equiv_pos_as_xyz
  1  'x, y, z'
loop_
 _atom_site_type_symbol
 _atom_site_label
 _atom_site_symmetry_multiplicity
 _atom_site_fract_x
 _atom_site_fract_y
 _atom_site_fract_z
 _atom_site_occupancy
  Hf  Hf0  1  0.00069689  -0.00000300  0.64387900  1
  Hf  Hf1  1  0.99930024  -0.00000309  0.14387914  1
  Hf  Hf2  1  0.66410458  0.33289944  0.97725449  1
  Hf  Hf3  1  0.66879556  0.33289898  0.47725445  1
  Hf  Hf4  1  0.34193052  0.66016890  0.31053285  1
  Hf  Hf5  1  0.31823779  0.66016864  0.81053252  1
  In  In0  1  0.00057189  -0.00036718  0.35354021  1
  In  In1  1  0.99906071  -0.00036723  0.85354020  1
  In  In2  1  0.67774530  0.33944327  0.68708915  1
  In  In3  1  0.66169900  0.33944329  0.18708906  1
  In  In4  1  0.33008122  0.65556568  0.02026692  1
  In  In5  1  0.32548329  0.65556535  0.52026694  1
  P  P0  1  0.71607918  0.71314967  0.25022111  1
  P  P1  1  0.99707058  0.71314973  0.75022116  1
  P  P2  1  0.95604506  0.33345434  0.58324990  1
  P  P3  1  0.37740980  0.33345473  0.08324991  1
  P  P4  1  0.04170057  0.37335454  0.91679035  1
  P  P5  1  0.33165402  0.37335484  0.41679052  1
  S  S0  1  0.29054765  0.99849511  0.25009460  1
  S  S1  1  0.99713133  0.28970918  0.24959777  1
  S  S2  1  0.29257795  0.28970935  0.74959783  1
  S  S3  1  0.70794693  0.99849453  0.75009467  1
  S  S4  1  0.37842587  0.04317815  0.58338282  1
  S  S5  1  0.66528042  0.62284432  0.58332679  1
  S  S6  1  0.95756331  0.62284400  0.08332691  1
  S  S7  1  0.66475236  0.04317781  0.08338277  1
  S  S8  1  0.62306465  0.66797748  0.91630889  1
  S  S9  1  0.33272568  0.95460659  0.91722216  1
  S  S10  1  0.62188090  0.95460647  0.41722202  1
  S  S11  1  0.04491173  0.66797672  0.41630890  1
  O  O0  1  0.21608376  0.03174571  0.30209224  1
  O  O1  1  0.82320623  0.79387107  0.30497223  1
  O  O2  1  0.96882265  0.18580360  0.30202453  1
  O  O3  1  0.21698077  0.18580390  0.80202464  1
  O  O4  1  0.97066472  0.79387157  0.80497238  1
  O  O5  1  0.81566232  0.03174581  0.80209240  1
  O  O6  1  0.79170507  0.96998770  0.69795915  1
  O  O7  1  0.17850004  0.20909853  0.69772367  1
  O  O8  1  0.02921424  0.83112656  0.69606127  1
  O  O9  1  0.80191245  0.83112658  0.19606133  1
  O  O10  1  0.03059842  0.20909851  0.19772379  1
  O  O11  1  0.17828280  0.96998809  0.19795918  1
  O  O12  1  0.87605474  0.36305310  0.63729097  1
  O  O13  1  0.48197627  0.12041773  0.63614083  1
  O  O14  1  0.63305594  0.51644787  0.63544597  1
  O  O15  1  0.88339281  0.51644810  0.13544604  1
  O  O16  1  0.63844259  0.12041815  0.13614088  1
  O  O17  1  0.48699980  0.36305312  0.13729093  1
  O  O18  1  0.46607845  0.30276387  0.02912735  1
  O  O19  1  0.84503720  0.54143324  0.03132179  1
  O  O20  1  0.69688608  0.15586865  0.03132951  1
  O  O21  1  0.45898351  0.15586870  0.53132946  1
  O  O22  1  0.69639738  0.54143309  0.53132179  1
  O  O23  1  0.83668630  0.30276385  0.52912740  1
  O  O24  1  0.54944071  0.69960047  0.96892189  1
  O  O25  1  0.15281534  0.45471734  0.97038121  1
  O  O26  1  0.30609255  0.85054937  0.96965216  1
  O  O27  1  0.54445613  0.85054998  0.46965211  1
  O  O28  1  0.30190093  0.45471735  0.47038127  1
  O  O29  1  0.15015915  0.69960063  0.46892196  1
  O  O30  1  0.12535059  0.63726592  0.36442305  1
  O  O31  1  0.50979700  0.87464669  0.36486454  1
  O  O32  1  0.36311452  0.49422452  0.36265948  1
  O  O33  1  0.13110897  0.49422455  0.86265950  1
  O  O34  1  0.36484892  0.87464673  0.86486449  1
  O  O35  1  0.51191455  0.63726590  0.86442324  1
  O  O36  1  0.02071109  0.81739018  0.40918620  1
  O  O37  1  0.79434818  0.97779541  0.40930147  1
  O  O38  1  0.17497070  0.19478521  0.40663826  1
  O  O39  1  0.01981461  0.19478493  0.90663823  1
  O  O40  1  0.18344656  0.97779579  0.90930152  1
  O  O41  1  0.79667878  0.81738990  0.90918621  1
  O  O42  1  0.97260751  0.16848454  0.59358303  1
  O  O43  1  0.20435114  0.02764554  0.59138209  1
  O  O44  1  0.82474503  0.79609042  0.59154718  1
  O  O45  1  0.97134523  0.79609018  0.09154717  1
  O  O46  1  0.82329425  0.02764521  0.09138212  1
  O  O47  1  0.19587743  0.16848482  0.09358308  1
  O  O48  1  0.68416786  0.14800349  0.74204008  1
  O  O49  1  0.46390746  0.31042248  0.74050237  1
  O  O50  1  0.84194933  0.53269067  0.74274202  1
  O  O51  1  0.69074261  0.53269114  0.24274198  1
  O  O52  1  0.84651620  0.31042238  0.24050243  1
  O  O53  1  0.46383587  0.14800309  0.24204021  1
  O  O54  1  0.63870723  0.50927092  0.92498582  1
  O  O55  1  0.86181554  0.35893164  0.92699849  1
  O  O56  1  0.49171539  0.12895932  0.92477598  1
  O  O57  1  0.63724494  0.12896019  0.42477612  1
  O  O58  1  0.49711643  0.35893208  0.42699848  1
  O  O59  1  0.87056462  0.50927112  0.42498573  1
  O  O60  1  0.35576123  0.49074816  0.07558342  1
  O  O61  1  0.13124992  0.64922201  0.07525247  1
  O  O62  1  0.51400429  0.87112461  0.07445447  1
  O  O63  1  0.35711951  0.87112411  0.57445446  1
  O  O64  1  0.51797201  0.64922184  0.57525256  1
  O  O65  1  0.13498686  0.49074879  0.57558328  1
  O  O66  1  0.30367540  0.83975597  0.25875266  1
  O  O67  1  0.53365446  0.69731665  0.25918292  1
  O  O68  1  0.15496799  0.46426353  0.25794168  1
  O  O69  1  0.30929437  0.46426370  0.75794172  1
  O  O70  1  0.16366137  0.69731676  0.75918284  1
  O  O71  1  0.53607972  0.83975605  0.75875267  1
loop_
_geom_bond_atom_site_label_1
_geom_bond_atom_site_label_2
_geom_bond_distance
_geom_bond_site_symmetry_2
Hf0 O42 2.009137 1_455
Hf0 O8 2.039141 1_545
Hf0 O44 2.084425 1_445
Hf0 O43 2.090648 1_555
Hf0 O7 2.132612 1_555
Hf0 O6 2.143655 1_445
Hf1 O47 2.009140 1_655
Hf1 O9 2.039140 1_545
Hf1 O45 2.084428 1_545
Hf1 O46 2.090650 1_555
Hf1 O10 2.132613 1_655
Hf1 O11 2.143651 1_645
Hf2 O55 2.022545 1_555
Hf2 O18 2.035026 1_556
Hf2 O56 2.076696 1_555
Hf2 O54 2.080480 1_555
Hf2 O19 2.141807 1_556
Hf2 O20 2.142038 1_556
Hf3 O58 2.022551 1_555
Hf3 O23 2.035027 1_555
Hf3 O57 2.076685 1_555
Hf3 O59 2.080483 1_555
Hf3 O22 2.141809 1_555
Hf3 O21 2.142035 1_555
Hf4 O67 1.965566 1_555
Hf4 O32 1.986176 1_555
Hf4 O68 2.089048 1_555
Hf4 O31 2.139264 1_555
Hf4 O66 2.155772 1_555
Hf4 O30 2.217013 1_555
Hf5 O70 1.965566 1_555
Hf5 O33 1.986182 1_555
Hf5 O69 2.089038 1_555
Hf5 O34 2.139271 1_555
Hf5 O71 2.155767 1_555
Hf5 O35 2.217017 1_555
In0 O1 2.048214 1_445
In0 O38 2.052879 1_555
In0 O36 2.146119 1_545
In0 O0 2.151029 1_555
In0 O37 2.169862 1_445
In0 O2 2.170610 1_455
In1 O4 2.048209 1_545
In1 O39 2.052876 1_655
In1 O41 2.146120 1_545
In1 O5 2.151023 1_555
In1 O40 2.169857 1_645
In1 O3 2.170609 1_655
In2 O12 2.027944 1_555
In2 O50 2.052093 1_555
In2 O48 2.148229 1_555
In2 O14 2.166058 1_555
In2 O49 2.172718 1_555
In2 O13 2.191926 1_555
In3 O17 2.027940 1_555
In3 O51 2.052096 1_555
In3 O53 2.148236 1_555
In3 O15 2.166056 1_555
In3 O52 2.172721 1_555
In3 O16 2.191922 1_555
In4 O60 2.042321 1_555
In4 O25 2.042935 1_554
In4 O24 2.146893 1_554
In4 O61 2.155706 1_555
In4 O62 2.182758 1_555
In4 O26 2.190177 1_554
In5 O65 2.042312 1_555
In5 O28 2.042933 1_555
In5 O29 2.146890 1_555
In5 O64 2.155714 1_555
In5 O63 2.182755 1_555
In5 O27 2.190183 1_555
O0 S0 1.468212 1_545
O1 P0 1.524764 1_555
O2 S1 1.465093 1_555
O3 S2 1.465094 1_555
O4 P1 1.524769 1_555
O5 S3 1.468217 1_545
O6 S3 1.500044 1_555
O7 S2 1.496614 1_555
O8 P1 1.563162 1_455
O9 P0 1.563160 1_555
O10 S1 1.496610 1_455
O11 S0 1.500041 1_555
O12 P2 1.520389 1_555
O13 S4 1.469644 1_555
O14 S5 1.466695 1_555
O15 S6 1.466690 1_555
O16 S7 1.469646 1_555
O17 P3 1.520393 1_555
O18 P3 1.570309 1_555
O19 S6 1.494028 1_555
O20 S7 1.497123 1_555
O21 S4 1.497124 1_555
O22 S5 1.494034 1_555
O23 P2 1.570304 1_555
O24 S8 1.469627 1_555
O25 P4 1.518072 1_555
O26 S9 1.468123 1_555
O27 S10 1.468123 1_555
O28 P5 1.518073 1_555
O29 S11 1.469629 1_555
O30 S11 1.486562 1_555
O31 S10 1.496990 1_555
O32 P5 1.578747 1_555
O33 P4 1.578744 1_555
O34 S9 1.496990 1_555
O35 S8 1.486560 1_555
O36 S11 1.459845 1_555
O37 S10 1.456861 1_555
O38 P5 1.519051 1_555
O39 P4 1.519052 1_555
O40 S9 1.456869 1_555
O41 S8 1.459842 1_555
O42 P2 1.566543 1_555
O43 S4 1.498935 1_555
O44 S5 1.496174 1_555
O45 S6 1.496173 1_555
O46 S7 1.498933 1_555
O47 P3 1.566544 1_555
O48 S3 1.461027 1_545
O49 S2 1.459159 1_555
O50 P1 1.515557 1_555
O51 P0 1.515556 1_555
O52 S1 1.459148 1_555
O53 S0 1.461024 1_545
O54 S8 1.501399 1_555
O55 P4 1.561301 1_655
O56 S9 1.498028 1_545
O57 S10 1.498034 1_545
O58 P5 1.561303 1_555
O59 S11 1.501384 1_655
O60 P3 1.516917 1_555
O61 S6 1.457250 1_455
O62 S7 1.460005 1_565
O63 S4 1.460008 1_565
O64 S5 1.457245 1_555
O65 P2 1.516919 1_455
O66 S0 1.489094 1_555
O67 P0 1.574219 1_555
O68 S1 1.496863 1_455
O69 S2 1.496868 1_555
O70 P1 1.574210 1_455
O71 S3 1.489093 1_555
