# generated using pymatgen
data_Dy4MgTi2O10
_symmetry_space_group_name_H-M   'P 1'
_cell_length_a   3.90275353
_cell_length_b   5.95789517
_cell_length_c   11.69259628
_cell_angle_alpha   101.40832948
_cell_angle_beta   90.00000107
_cell_angle_gamma   70.88119871
_symmetry_Int_Tables_number   1
_chemical_formula_structural   Dy4MgTi2O10
_chemical_formula_sum   'Dy4 Mg1 Ti2 O10'
_cell_volume   251.18997792
_cell_formula_units_Z   1
loop_
 _symmetry_equiv_pos_site_id
 _symmetry_equiv_pos_as_xyz
  1  'x, y, z'
loop_
 _atom_site_type_symbol
 _atom_site_label
 _atom_site_symmetry_multiplicity
 _atom_site_fract_x
 _atom_site_fract_y
 _atom_site_fract_z
 _atom_site_occupancy
  Dy  Dy0  1  0.14965137  0.70069626  0.94034614  1
  Dy  Dy1  1  0.17922643  0.64154614  0.61963903  1
  Dy  Dy2  1  0.85034863  0.29930374  0.05965386  1
  Dy  Dy3  1  0.82077357  0.35845386  0.38036097  1
  Mg  Mg0  1  0.50000000  0.00000000  0.50000000  1
  Ti  Ti0  1  0.13249543  0.73501015  0.23338065  1
  Ti  Ti1  1  0.86750457  0.26498985  0.76661935  1
  O  O0  1  0.02603593  0.94792915  0.37805392  1
  O  O1  1  0.02280238  0.95439624  0.12473001  1
  O  O2  1  0.73121574  0.53756752  0.92083438  1
  O  O3  1  0.66380593  0.67238713  0.53350822  1
  O  O4  1  0.29980246  0.40039608  0.75294936  1
  O  O5  1  0.70019754  0.59960392  0.24705064  1
  O  O6  1  0.26878426  0.46243248  0.07916562  1
  O  O7  1  0.33619407  0.32761287  0.46649178  1
  O  O8  1  0.97396407  0.05207085  0.62194708  1
  O  O9  1  0.97719762  0.04560376  0.87526899  1
loop_
_geom_bond_atom_site_label_1
_geom_bond_atom_site_label_2
_geom_bond_distance
_geom_bond_site_symmetry_2
Dy0 O2 2.148364 1_555
Dy0 O2 2.148364 1_455
Dy0 O9 2.228742 1_465
Dy0 O6 2.311953 1_556
Dy0 O1 2.323460 1_556
Dy0 O4 2.471431 1_555
Dy1 O3 2.219336 1_455
Dy1 O3 2.219336 1_555
Dy1 O7 2.237106 1_555
Dy1 O4 2.271219 1_555
Dy1 O8 2.305454 1_465
Dy2 O6 2.148364 1_555
Dy2 O6 2.148364 1_655
Dy2 O1 2.228736 1_645
Dy2 O2 2.311953 1_554
Dy2 O9 2.323469 1_554
Dy2 O5 2.471431 1_555
Dy3 O7 2.219336 1_655
Dy3 O7 2.219336 1_555
Dy3 O3 2.237106 1_555
Dy3 O5 2.271219 1_555
Dy3 O0 2.305457 1_645
Mg0 O3 1.963972 1_545
Mg0 O7 1.963972 1_555
Mg0 O0 2.398309 1_545
Mg0 O0 2.398312 1_645
Mg0 O8 2.398315 1_555
Mg0 O8 2.398319 1_455
O0 Ti0 1.857204 1_555
O1 Ti0 1.948338 1_555
O2 Ti1 2.108888 1_555
O4 Ti1 2.113154 1_555
O4 Ti1 2.113162 1_455
O5 Ti0 2.113154 1_555
O5 Ti0 2.113162 1_655
O6 Ti0 2.108888 1_555
O8 Ti1 1.857195 1_555
O9 Ti1 1.948329 1_555
