# generated using pymatgen
data_Na10La7Nb(PO4)12
_symmetry_space_group_name_H-M   'P 1'
_cell_length_a   19.00132218
_cell_length_b   9.51756432
_cell_length_c   23.86593477
_cell_angle_alpha   89.99113225
_cell_angle_beta   90.10939678
_cell_angle_gamma   120.20999660
_symmetry_Int_Tables_number   1
_chemical_formula_structural   Na10La7Nb(PO4)12
_chemical_formula_sum   'Na30 La21 Nb3 P36 O144'
_cell_volume   3729.87993924
_cell_formula_units_Z   3
loop_
 _symmetry_equiv_pos_site_id
 _symmetry_equiv_pos_as_xyz
  1  'x, y, z'
loop_
 _atom_site_type_symbol
 _atom_site_label
 _atom_site_symmetry_multiplicity
 _atom_site_fract_x
 _atom_site_fract_y
 _atom_site_fract_z
 _atom_site_occupancy
  Na  Na0  1  0.31516973  0.99893733  0.25395627  1
  Na  Na1  1  0.68686802  0.36930328  0.25363465  1
  Na  Na2  1  0.31178447  0.62852360  0.76076886  1
  Na  Na3  1  0.81164350  0.62777851  0.75931809  1
  Na  Na4  1  0.15400036  0.33536712  0.58040347  1
  Na  Na5  1  0.65344221  0.33690981  0.58161563  1
  Na  Na6  1  0.01211389  0.69992235  0.58287878  1
  Na  Na7  1  0.51459759  0.69539629  0.57983646  1
  Na  Na8  1  0.33049631  0.96222962  0.58109362  1
  Na  Na9  1  0.83582667  0.97191305  0.58107239  1
  Na  Na10  1  0.15253456  0.96953061  0.07888810  1
  Na  Na11  1  0.65393677  0.97398182  0.08078928  1
  Na  Na12  1  0.33180298  0.69552137  0.08105726  1
  Na  Na13  1  0.83179153  0.69425198  0.08127502  1
  Na  Na14  1  0.01395264  0.33162553  0.07809512  1
  Na  Na15  1  0.51498259  0.33203728  0.08272424  1
  Na  Na16  1  0.66788779  0.03213737  0.41349157  1
  Na  Na17  1  0.34586154  0.66559209  0.41154597  1
  Na  Na18  1  0.00024002  0.99909829  0.49142389  1
  Na  Na19  1  0.50001105  0.01455462  0.49321481  1
  Na  Na20  1  0.00014547  0.00097109  0.99479868  1
  Na  Na21  1  0.50023484  0.99953705  0.99446859  1
  Na  Na22  1  0.33228042  0.31740163  0.83719618  1
  Na  Na23  1  0.83253301  0.31800858  0.83756751  1
  Na  Na24  1  0.33061327  0.33241252  0.33255281  1
  Na  Na25  1  0.84863740  0.35074490  0.33423335  1
  Na  Na26  1  0.16292962  0.65016315  0.17008605  1
  Na  Na27  1  0.66450751  0.68478927  0.17067857  1
  Na  Na28  1  0.15829897  0.66490585  0.66890284  1
  Na  Na29  1  0.65810807  0.66287743  0.66918129  1
  La  La0  1  0.49963936  0.00634454  0.34746992  1
  La  La1  1  0.00348579  0.00724280  0.65776959  1
  La  La2  1  0.50304238  0.00471812  0.65539502  1
  La  La3  1  0.99968622  0.99716130  0.15636493  1
  La  La4  1  0.50074047  0.99656633  0.15472460  1
  La  La5  1  0.33361866  0.32288934  0.69008558  1
  La  La6  1  0.83320591  0.32236214  0.69115955  1
  La  La7  1  0.32937659  0.34137922  0.18419239  1
  La  La8  1  0.84281853  0.33491156  0.18713774  1
  La  La9  1  0.33344287  0.33455889  0.97843047  1
  La  La10  1  0.83352392  0.33544057  0.97860830  1
  La  La11  1  0.33248954  0.32076402  0.48128598  1
  La  La12  1  0.83947274  0.34724350  0.48074758  1
  La  La13  1  0.16615635  0.66775458  0.00115459  1
  La  La14  1  0.66591949  0.66569558  0.00285249  1
  La  La15  1  0.15602700  0.65541557  0.50516185  1
  La  La16  1  0.67306145  0.67050391  0.50673494  1
  La  La17  1  0.16072845  0.65777943  0.31774898  1
  La  La18  1  0.66312696  0.66944124  0.31808940  1
  La  La19  1  0.16123045  0.66797938  0.81884931  1
  La  La20  1  0.66100216  0.66743526  0.81901001  1
  Nb  Nb0  1  0.00036779  0.00006626  0.34636872  1
  Nb  Nb1  1  0.00196948  0.00392002  0.84873419  1
  Nb  Nb2  1  0.50205789  0.00382578  0.84867810  1
  P  P0  1  0.15012947  0.00560215  0.25352404  1
  P  P1  1  0.65773972  0.00699572  0.24964323  1
  P  P2  1  0.34152726  0.69296437  0.25020642  1
  P  P3  1  0.85320605  0.69791077  0.25407918  1
  P  P4  1  0.99659135  0.28682838  0.25226755  1
  P  P5  1  0.49967971  0.30865440  0.24376877  1
  P  P6  1  0.15141896  0.29745876  0.75409501  1
  P  P7  1  0.65060346  0.29609411  0.75388992  1
  P  P8  1  0.99559887  0.70570951  0.75255398  1
  P  P9  1  0.49560440  0.70610713  0.75230558  1
  P  P10  1  0.35513390  0.99980390  0.75324683  1
  P  P11  1  0.85454856  0.99936015  0.75355594  1
  P  P12  1  0.48768729  0.33834421  0.58417537  1
  P  P13  1  0.98623727  0.33672270  0.58477535  1
  P  P14  1  0.18110866  0.02308623  0.58419686  1
  P  P15  1  0.68403670  0.02956710  0.57960404  1
  P  P16  1  0.32969138  0.63175958  0.58334689  1
  P  P17  1  0.83202531  0.63504476  0.58941848  1
  P  P18  1  0.48695679  0.63578396  0.08152048  1
  P  P19  1  0.98881685  0.63829651  0.08148191  1
  P  P20  1  0.32970975  0.02484525  0.08533047  1
  P  P21  1  0.83138239  0.02671893  0.08159243  1
  P  P22  1  0.17969060  0.33808659  0.08011919  1
  P  P23  1  0.68479742  0.34102368  0.08617749  1
  P  P24  1  0.32916217  0.68225703  0.91073866  1
  P  P25  1  0.82893749  0.68225209  0.91074535  1
  P  P26  1  0.01117404  0.33988001  0.91565989  1
  P  P27  1  0.51142636  0.33953663  0.91582099  1
  P  P28  1  0.15912845  0.97815358  0.91541469  1
  P  P29  1  0.65905758  0.97734254  0.91548573  1
  P  P30  1  0.32125491  0.96672319  0.41679591  1
  P  P31  1  0.82935630  0.97839335  0.41586019  1
  P  P32  1  0.15956602  0.34367602  0.41632362  1
  P  P33  1  0.66663999  0.35037197  0.41643661  1
  P  P34  1  0.01096732  0.68740883  0.41539040  1
  P  P35  1  0.51211166  0.67368060  0.42135927  1
  O  O0  1  0.08821054  0.99928710  0.29995868  1
  O  O1  1  0.60889269  0.00607265  0.30194186  1
  O  O2  1  0.38969385  0.78336581  0.30356780  1
  O  O3  1  0.91294586  0.82217328  0.30051083  1
  O  O4  1  0.49483675  0.19623429  0.29229516  1
  O  O5  1  0.00079582  0.16883992  0.29811103  1
  O  O6  1  0.09059166  0.17984151  0.80031489  1
  O  O7  1  0.59023512  0.17950098  0.80051141  1
  O  O8  1  0.49983857  0.82940266  0.79873032  1
  O  O9  1  0.99995702  0.82978214  0.79875706  1
  O  O10  1  0.41574797  0.00323768  0.79978265  1
  O  O11  1  0.91577922  0.00299890  0.79957462  1
  O  O12  1  0.39038955  0.99604371  0.69531708  1
  O  O13  1  0.88916137  0.99640576  0.69532334  1
  O  O14  1  0.11426376  0.23011030  0.69592587  1
  O  O15  1  0.61294814  0.22686929  0.69596468  1
  O  O16  1  0.99948135  0.77970856  0.69433925  1
  O  O17  1  0.49968408  0.78071181  0.69414521  1
  O  O18  1  0.38862951  0.78361828  0.19636358  1
  O  O19  1  0.88734112  0.77616676  0.19663562  1
  O  O20  1  0.99545720  0.21588368  0.19402920  1
  O  O21  1  0.50392716  0.23183866  0.18744053  1
  O  O22  1  0.11304893  0.00464164  0.19600087  1
  O  O23  1  0.61108312  0.99690149  0.19484485  1
  O  O24  1  0.44480468  0.35517649  0.63661502  1
  O  O25  1  0.94198901  0.35097076  0.63667198  1
  O  O26  1  0.23404450  0.10765355  0.63643711  1
  O  O27  1  0.73893414  0.12542280  0.62979595  1
  O  O28  1  0.32158826  0.52888117  0.63616130  1
  O  O29  1  0.82382751  0.53951048  0.64387954  1
  O  O30  1  0.44532672  0.53484539  0.13448388  1
  O  O31  1  0.95004813  0.53657991  0.13494186  1
  O  O32  1  0.31846030  0.09370063  0.14158523  1
  O  O33  1  0.82098080  0.10858003  0.13444328  1
  O  O34  1  0.23069938  0.36276338  0.13354705  1
  O  O35  1  0.73190601  0.36192647  0.14179127  1
  O  O36  1  0.22334585  0.31575215  0.02995009  1
  O  O37  1  0.73125589  0.31914514  0.03739671  1
  O  O38  1  0.43341561  0.55093865  0.03031138  1
  O  O39  1  0.93373420  0.55230944  0.03107243  1
  O  O40  1  0.34029560  0.14252583  0.03760660  1
  O  O41  1  0.84385938  0.13537772  0.03074379  1
  O  O42  1  0.22289307  0.12779203  0.53245963  1
  O  O43  1  0.72254646  0.11979849  0.52425208  1
  O  O44  1  0.33928293  0.54869991  0.53049229  1
  O  O45  1  0.84106582  0.54302706  0.53935252  1
  O  O46  1  0.43465875  0.31581815  0.53255228  1
  O  O47  1  0.93671153  0.32022838  0.53174131  1
  O  O48  1  0.29533261  0.71086969  0.96627912  1
  O  O49  1  0.79482663  0.71003733  0.96630932  1
  O  O50  1  0.05408918  0.39706671  0.97350675  1
  O  O51  1  0.55473438  0.39742692  0.97354870  1
  O  O52  1  0.14416883  0.89177538  0.97305417  1
  O  O53  1  0.64416706  0.88931938  0.97281001  1
  O  O54  1  0.27309763  0.87297377  0.47058993  1
  O  O55  1  0.80545386  0.89478560  0.47437137  1
  O  O56  1  0.14113396  0.39366206  0.47414743  1
  O  O57  1  0.66909396  0.44083838  0.47166038  1
  O  O58  1  0.05023855  0.71169783  0.47454934  1
  O  O59  1  0.55509547  0.67524898  0.47736053  1
  O  O60  1  0.06408601  0.66954583  0.37157179  1
  O  O61  1  0.56202554  0.66478287  0.37240494  1
  O  O62  1  0.27426376  0.87595106  0.36365141  1
  O  O63  1  0.76277093  0.87200856  0.37343644  1
  O  O64  1  0.17397119  0.47432332  0.37301717  1
  O  O65  1  0.66481974  0.44463598  0.36456160  1
  O  O66  1  0.06264633  0.46266432  0.87066654  1
  O  O67  1  0.56220332  0.46210926  0.87060581  1
  O  O68  1  0.16936928  0.87653475  0.87024266  1
  O  O69  1  0.66983874  0.87796457  0.86971887  1
  O  O70  1  0.27396026  0.66185243  0.86087090  1
  O  O71  1  0.77388165  0.66191243  0.86082366  1
  O  O72  1  0.00476215  0.84374200  0.40182010  1
  O  O73  1  0.51086829  0.83533099  0.41937170  1
  O  O74  1  0.40226661  0.96381063  0.42030428  1
  O  O75  1  0.91389947  0.99641654  0.39849595  1
  O  O76  1  0.08399669  0.17470566  0.39916426  1
  O  O77  1  0.59020155  0.17783910  0.41979055  1
  O  O78  1  0.00662902  0.17210789  0.90122433  1
  O  O79  1  0.50698298  0.17195539  0.90143920  1
  O  O80  1  0.08039114  0.98912544  0.90077368  1
  O  O81  1  0.58011572  0.98805346  0.90096049  1
  O  O82  1  0.41517113  0.84162270  0.89979076  1
  O  O83  1  0.91507298  0.84169679  0.89983176  1
  O  O84  1  0.49884573  0.18678782  0.58650115  1
  O  O85  1  0.99775123  0.18605911  0.58714935  1
  O  O86  1  0.09476745  0.00368715  0.58755045  1
  O  O87  1  0.59788084  0.01059608  0.58450941  1
  O  O88  1  0.40584117  0.80660272  0.58689542  1
  O  O89  1  0.90804584  0.80935345  0.58910625  1
  O  O90  1  0.49840145  0.81031441  0.08446007  1
  O  O91  1  0.99926775  0.81151270  0.08569722  1
  O  O92  1  0.40597820  0.00287912  0.08571712  1
  O  O93  1  0.90650275  0.00194000  0.08593271  1
  O  O94  1  0.09293702  0.18519811  0.08454761  1
  O  O95  1  0.59742351  0.18804356  0.08675029  1
  O  O96  1  0.34714520  0.15127775  0.75982767  1
  O  O97  1  0.84650106  0.15061408  0.76059531  1
  O  O98  1  0.23500773  0.30882736  0.76038445  1
  O  O99  1  0.73404842  0.30691834  0.76040941  1
  O  O100  1  0.41232841  0.54849966  0.75888827  1
  O  O101  1  0.91263147  0.54793612  0.75964721  1
  O  O102  1  0.32774561  0.51944722  0.25185748  1
  O  O103  1  0.84958389  0.53342108  0.26028940  1
  O  O104  1  0.42079700  0.31761041  0.24743747  1
  O  O105  1  0.91888896  0.29377954  0.26232377  1
  O  O106  1  0.23469687  0.15792021  0.26130423  1
  O  O107  1  0.73761970  0.17469801  0.25102703  1
  O  O108  1  0.34354028  0.53835524  0.91481558  1
  O  O109  1  0.84342072  0.53844153  0.91479578  1
  O  O110  1  0.42423249  0.30812014  0.91595892  1
  O  O111  1  0.92428008  0.30975162  0.91551133  1
  O  O112  1  0.23174961  0.15114303  0.91549611  1
  O  O113  1  0.73106075  0.15123581  0.91624347  1
  O  O114  1  0.33618718  0.14090769  0.41533102  1
  O  O115  1  0.83664316  0.14681922  0.41682748  1
  O  O116  1  0.23721405  0.33142973  0.41788471  1
  O  O117  1  0.74082850  0.32383039  0.41311889  1
  O  O118  1  0.42294500  0.53186055  0.41747324  1
  O  O119  1  0.92470558  0.53993943  0.41374161  1
  O  O120  1  0.17164986  0.49307419  0.07405995  1
  O  O121  1  0.67735028  0.49613216  0.07722355  1
  O  O122  1  0.07447012  0.65535378  0.07505062  1
  O  O123  1  0.57277777  0.65181365  0.07651424  1
  O  O124  1  0.25256074  0.85358565  0.07582302  1
  O  O125  1  0.75290759  0.85556407  0.07568209  1
  O  O126  1  0.17145981  0.85035031  0.57984570  1
  O  O127  1  0.67547617  0.85738641  0.57976171  1
  O  O128  1  0.25142057  0.64660297  0.57841233  1
  O  O129  1  0.75393902  0.64969322  0.58321229  1
  O  O130  1  0.07184765  0.49425160  0.58245141  1
  O  O131  1  0.57374568  0.49383207  0.58013947  1
  O  O132  1  0.16032683  0.85560394  0.25722581  1
  O  O133  1  0.67241787  0.86204971  0.24981473  1
  O  O134  1  0.26094769  0.69785034  0.24742720  1
  O  O135  1  0.76647393  0.66956781  0.26030627  1
  O  O136  1  0.07326187  0.45410464  0.25602840  1
  O  O137  1  0.57955039  0.47460011  0.24795782  1
  O  O138  1  0.16412973  0.47019898  0.75813680  1
  O  O139  1  0.66355283  0.46906948  0.75774195  1
  O  O140  1  0.06787016  0.67796551  0.75651250  1
  O  O141  1  0.56772590  0.67793188  0.75636771  1
  O  O142  1  0.27371882  0.83890195  0.75775762  1
  O  O143  1  0.77328496  0.83836493  0.75806273  1
loop_
_geom_bond_atom_site_label_1
_geom_bond_atom_site_label_2
_geom_bond_distance
_geom_bond_site_symmetry_2
Na0 O134 2.515137 1_555
Na0 O132 2.546646 1_555
Na0 O106 2.643468 1_565
Na0 O104 2.669565 1_565
Na0 O62 2.814130 1_555
Na0 O32 2.820065 1_565
Na1 O135 2.475759 1_555
Na1 O107 2.482357 1_555
Na1 O103 2.676295 1_555
Na1 O137 2.690057 1_555
Na1 O35 2.816277 1_555
Na1 O65 2.829361 1_555
Na2 O100 2.386761 1_555
Na2 O138 2.427140 1_555
Na2 O142 2.448404 1_555
Na2 O70 2.561414 1_555
Na2 O98 2.630485 1_555
Na3 O101 2.393133 1_555
Na3 O139 2.433804 1_555
Na3 O143 2.453413 1_555
Na3 O71 2.594316 1_555
Na3 O99 2.639945 1_555
Na3 O29 2.923787 1_555
Na4 O85 2.572138 1_455
Na4 O128 2.585670 1_555
Na4 O56 2.632886 1_555
Na4 O130 2.664902 1_555
Na4 O86 2.772401 1_555
Na4 O14 2.901879 1_555
Na5 O84 2.541983 1_555
Na5 O129 2.605590 1_555
Na5 O131 2.607849 1_555
Na5 O87 2.732288 1_555
Na5 O57 2.767552 1_555
Na5 O15 2.886656 1_555
Na6 O86 2.503505 1_565
Na6 O126 2.619334 1_555
Na6 O89 2.662863 1_455
Na6 O58 2.673370 1_555
Na6 O130 2.712203 1_555
Na6 O16 2.810148 1_455
Na7 O87 2.595819 1_565
Na7 O59 2.601175 1_555
Na7 O127 2.641745 1_555
Na7 O131 2.667050 1_555
Na7 O88 2.760724 1_555
Na7 O17 2.901256 1_555
Na8 O88 2.529011 1_555
Na8 O128 2.596760 1_555
Na8 O126 2.651058 1_555
Na8 O54 2.814908 1_555
Na8 O84 2.817018 1_565
Na8 O12 2.906875 1_555
Na9 O89 2.539505 1_555
Na9 O55 2.631600 1_555
Na9 O129 2.650815 1_555
Na9 O127 2.670204 1_555
Na9 O85 2.707277 1_565
Na9 O13 2.875449 1_555
Na10 O91 2.522627 1_455
Na10 O122 2.585716 1_555
Na10 O52 2.614075 1_554
Na10 O124 2.635662 1_555
Na10 O94 2.802464 1_565
Na10 O22 2.957576 1_565
Na11 O90 2.556662 1_555
Na11 O125 2.637332 1_555
Na11 O123 2.651687 1_555
Na11 O53 2.678263 1_554
Na11 O95 2.743433 1_565
Na11 O23 2.882282 1_555
Na12 O92 2.531122 1_565
Na12 O124 2.612412 1_555
Na12 O120 2.664306 1_555
Na12 O90 2.782045 1_555
Na12 O48 2.846008 1_554
Na12 O18 2.918927 1_555
Na13 O93 2.533635 1_565
Na13 O121 2.570424 1_555
Na13 O125 2.633758 1_555
Na13 O91 2.794319 1_555
Na13 O49 2.853570 1_554
Na13 O19 2.909196 1_555
Na14 O94 2.514406 1_555
Na14 O120 2.591653 1_555
Na14 O50 2.594001 1_554
Na14 O122 2.693616 1_555
Na14 O93 2.757449 1_455
Na14 O20 2.933558 1_455
Na15 O95 2.549729 1_555
Na15 O21 2.645562 1_555
Na15 O121 2.669715 1_555
Na15 O123 2.669792 1_555
Na15 O51 2.698301 1_554
Na15 O92 2.753191 1_555
Na16 O117 2.399212 1_555
Na16 O77 2.487066 1_555
Na16 O73 2.609116 1_545
Na16 O43 2.807227 1_555
Na16 O115 2.820767 1_555
Na16 O1 2.848617 1_555
Na17 O118 2.379194 1_555
Na17 O74 2.487253 1_555
Na17 O73 2.715825 1_555
Na17 O2 2.767465 1_555
Na17 O116 2.791677 1_555
Na17 O64 2.971993 1_555
Na17 O44 3.028590 1_555
Na18 O72 2.626082 1_555
Na18 O76 2.740418 1_565
Na18 O75 2.748608 1_455
Na18 O86 2.897676 1_565
Na18 O85 2.911046 1_465
Na18 O89 2.931832 1_455
Na19 O77 2.398581 1_555
Na19 O74 2.407453 1_545
Na19 O73 2.532686 1_545
Na19 O84 2.771669 1_555
Na19 O87 2.874379 1_555
Na19 O88 2.927056 1_545
Na20 O78 2.730116 1_555
Na20 O80 2.749418 1_545
Na20 O83 2.751181 1_445
Na20 O94 2.765260 1_556
Na20 O91 2.815424 1_446
Na20 O93 2.815677 1_456
Na21 O79 2.725248 1_565
Na21 O81 2.734236 1_555
Na21 O82 2.742170 1_555
Na21 O90 2.791647 1_556
Na21 O92 2.832570 1_566
Na21 O95 2.851525 1_566
Na22 O96 2.537992 1_555
Na22 O112 2.572111 1_555
Na22 O98 2.572701 1_555
Na22 O110 2.595520 1_555
Na22 O100 2.699428 1_555
Na22 O108 2.728855 1_555
Na23 O97 2.532116 1_555
Na23 O111 2.575096 1_555
Na23 O99 2.586911 1_555
Na23 O113 2.587616 1_555
Na23 O101 2.687259 1_555
Na23 O109 2.721104 1_555
Na24 O106 2.431912 1_555
Na24 O102 2.641382 1_555
Na24 O116 2.700779 1_555
Na24 O104 2.709067 1_555
Na24 O118 2.724898 1_555
Na24 O114 2.725540 1_555
Na25 O105 2.399687 1_555
Na25 O103 2.470867 1_555
Na25 O119 2.510704 1_555
Na25 O115 2.694421 1_555
Na25 O117 2.700554 1_555
Na25 O107 2.762034 1_555
Na26 O134 2.493653 1_555
Na26 O136 2.721139 1_555
Na26 O120 2.786887 1_555
Na26 O122 2.835662 1_555
Na26 O132 2.872217 1_555
Na26 O124 2.899148 1_555
Na27 O133 2.486081 1_555
Na27 O137 2.601898 1_555
Na27 O123 2.760744 1_555
Na27 O125 2.805226 1_555
Na27 O135 2.935465 1_555
Na27 O121 2.949997 1_555
Na28 O130 2.626132 1_555
Na28 O126 2.692925 1_555
Na28 O140 2.751077 1_555
Na28 O128 2.854853 1_555
Na28 O138 2.861170 1_555
Na28 O142 2.894409 1_555
Na29 O131 2.658326 1_555
Na29 O127 2.734410 1_555
Na29 O141 2.749720 1_555
Na29 O129 2.790226 1_555
Na29 O139 2.840848 1_555
Na29 O143 2.895473 1_555
La0 O4 2.274500 1_555
La0 O2 2.344496 1_545
La0 O1 2.346116 1_555
La0 O77 2.401531 1_555
La0 O74 2.422193 1_545
La0 O73 2.446752 1_545
La1 O14 2.293330 1_555
La1 O16 2.300231 1_445
La1 O13 2.305383 1_445
La1 O86 2.426558 1_555
La1 O85 2.435978 1_455
La1 O89 2.464506 1_445
La2 O17 2.295093 1_545
La2 O15 2.306198 1_555
La2 O12 2.307918 1_545
La2 O84 2.418737 1_555
La2 O87 2.454123 1_555
La2 O88 2.474670 1_545
La3 O20 2.305896 1_565
La3 O22 2.318985 1_665
La3 O19 2.322373 1_555
La3 O91 2.439931 1_555
La3 O93 2.456075 1_565
La3 O94 2.469751 1_665
La4 O18 2.301267 1_555
La4 O23 2.301826 1_555
La4 O21 2.343358 1_565
La4 O90 2.424408 1_555
La4 O95 2.443184 1_565
La4 O92 2.460831 1_565
La5 O26 2.346636 1_555
La5 O24 2.354398 1_555
La5 O96 2.433973 1_555
La5 O28 2.449761 1_555
La5 O98 2.470469 1_555
La5 O100 2.510725 1_555
La6 O27 2.340676 1_555
La6 O25 2.341265 1_555
La6 O97 2.427980 1_555
La6 O29 2.438337 1_555
La6 O99 2.456848 1_555
La6 O101 2.507903 1_555
La7 O34 2.322345 1_555
La7 O102 2.352655 1_555
La7 O30 2.361940 1_555
La7 O104 2.394236 1_555
La7 O32 2.478256 1_555
La7 O106 2.553954 1_555
La8 O31 2.336803 1_555
La8 O33 2.343786 1_555
La8 O107 2.364174 1_555
La8 O105 2.453912 1_555
La8 O35 2.493059 1_555
La8 O103 2.527798 1_555
La9 O38 2.331892 1_556
La9 O36 2.356525 1_556
La9 O40 2.364310 1_556
La9 O112 2.373249 1_555
La9 O110 2.389365 1_555
La9 O108 2.393689 1_555
La10 O37 2.340035 1_556
La10 O39 2.343152 1_556
La10 O41 2.363693 1_556
La10 O113 2.373665 1_555
La10 O109 2.392109 1_555
La10 O111 2.394913 1_555
La11 O46 2.313207 1_555
La11 O42 2.315497 1_555
La11 O114 2.352697 1_555
La11 O116 2.398271 1_555
La11 O44 2.412560 1_555
La11 O118 2.417450 1_555
La12 O45 2.318027 1_555
La12 O47 2.330342 1_555
La12 O119 2.358745 1_555
La12 O117 2.395041 1_555
La12 O115 2.422025 1_555
La12 O43 2.422471 1_555
La13 O48 2.424857 1_554
La13 O122 2.442145 1_555
La13 O120 2.444464 1_555
La13 O52 2.462768 1_554
La13 O124 2.463108 1_555
La13 O50 2.466062 1_554
La14 O49 2.430246 1_554
La14 O125 2.450082 1_555
La14 O123 2.452914 1_555
La14 O51 2.457261 1_554
La14 O53 2.469510 1_554
La14 O121 2.480405 1_555
La15 O54 2.299526 1_555
La15 O130 2.419737 1_555
La15 O58 2.437039 1_555
La15 O56 2.474797 1_555
La15 O126 2.481253 1_555
La15 O128 2.547467 1_555
La16 O57 2.306266 1_555
La16 O59 2.369332 1_555
La16 O129 2.455155 1_555
La16 O55 2.466681 1_555
La16 O127 2.474231 1_555
La16 O131 2.505215 1_555
La17 O60 2.291438 1_555
La17 O64 2.300440 1_555
La17 O136 2.332183 1_555
La17 O132 2.375923 1_555
La17 O62 2.376875 1_555
La17 O134 2.422730 1_555
La18 O61 2.301432 1_555
La18 O63 2.316117 1_555
La18 O133 2.391907 1_555
La18 O135 2.401243 1_555
La18 O137 2.406130 1_555
La18 O65 2.424337 1_555
La19 O68 2.271440 1_555
La19 O66 2.276235 1_555
La19 O140 2.351357 1_555
La19 O70 2.390583 1_555
La19 O138 2.398210 1_555
La19 O142 2.419252 1_555
La20 O69 2.273573 1_555
La20 O67 2.275011 1_555
La20 O141 2.356774 1_555
La20 O71 2.388368 1_555
La20 O139 2.407910 1_555
La20 O143 2.415053 1_555
Nb0 O5 1.973088 1_555
Nb0 O3 1.996772 1_445
Nb0 O0 2.008079 1_545
Nb0 O72 2.023851 1_545
Nb0 O75 2.049086 1_445
Nb0 O76 2.051944 1_555
Nb1 O80 1.996695 1_545
Nb1 O78 1.999275 1_555
Nb1 O11 2.009214 1_455
Nb1 O83 2.009704 1_445
Nb1 O9 2.026733 1_445
Nb1 O6 2.035653 1_555
Nb2 O81 1.999071 1_545
Nb2 O79 2.001097 1_555
Nb2 O10 2.008690 1_555
Nb2 O82 2.009774 1_545
Nb2 O8 2.026971 1_545
Nb2 O7 2.027774 1_555
O0 P0 1.596803 1_565
O1 P1 1.554240 1_555
O2 P2 1.550231 1_555
O3 P3 1.599940 1_555
O4 P5 1.547738 1_555
O5 P4 1.598138 1_455
O6 P6 1.583738 1_555
O7 P7 1.583899 1_555
O8 P9 1.586241 1_555
O9 P8 1.587091 1_555
O10 P10 1.586920 1_545
O11 P11 1.586079 1_545
O12 P10 1.545694 1_555
O13 P11 1.544971 1_555
O14 P6 1.541978 1_555
O15 P7 1.542489 1_555
O16 P8 1.542582 1_555
O17 P9 1.543239 1_555
O18 P2 1.556809 1_555
O19 P3 1.540080 1_555
O20 P4 1.540707 1_555
O21 P5 1.551879 1_555
O22 P0 1.539820 1_555
O23 P1 1.554174 1_565
O24 P12 1.546361 1_555
O25 P13 1.542107 1_555
O26 P14 1.547508 1_555
O27 P15 1.547000 1_555
O28 P16 1.555590 1_555
O29 P17 1.548634 1_555
O30 P18 1.544373 1_555
O31 P19 1.547013 1_555
O32 P20 1.555633 1_555
O33 P21 1.547021 1_555
O34 P22 1.544915 1_555
O35 P23 1.555257 1_555
O36 P22 1.532381 1_555
O37 P23 1.538503 1_555
O38 P18 1.532830 1_555
O39 P19 1.531699 1_555
O40 P20 1.538167 1_555
O41 P21 1.533750 1_555
O42 P14 1.534675 1_555
O43 P15 1.545642 1_555
O44 P16 1.547745 1_555
O45 P17 1.541664 1_555
O46 P12 1.535285 1_555
O47 P13 1.535932 1_555
O48 P24 1.556889 1_555
O49 P25 1.557054 1_555
O50 P26 1.554494 1_555
O51 P27 1.555156 1_555
O52 P28 1.554017 1_555
O53 P29 1.554407 1_555
O54 P30 1.569777 1_555
O55 P31 1.558159 1_555
O56 P32 1.556656 1_555
O57 P33 1.562140 1_555
O58 P34 1.557613 1_555
O59 P35 1.561142 1_555
O60 P34 1.522515 1_555
O61 P35 1.535187 1_555
O62 P30 1.540147 1_555
O63 P31 1.535359 1_555
O64 P32 1.532145 1_555
O65 P33 1.539343 1_555
O66 P26 1.526008 1_555
O67 P27 1.525511 1_555
O68 P28 1.525132 1_555
O69 P29 1.525053 1_555
O70 P24 1.531232 1_555
O71 P25 1.530648 1_555
O72 P34 1.583958 1_555
O73 P35 1.551257 1_555
O74 P30 1.555559 1_555
O75 P31 1.583350 1_555
O76 P32 1.577949 1_555
O77 P33 1.553282 1_555
O78 P26 1.592842 1_555
O79 P27 1.591664 1_555
O80 P28 1.589519 1_555
O81 P29 1.591367 1_555
O82 P24 1.595839 1_555
O83 P25 1.597345 1_555
O84 P12 1.560896 1_555
O85 P13 1.556575 1_555
O86 P14 1.558115 1_555
O87 P15 1.558713 1_555
O88 P16 1.564117 1_555
O89 P17 1.557982 1_555
O90 P18 1.564589 1_555
O91 P19 1.561392 1_555
O92 P20 1.564872 1_555
O93 P21 1.562680 1_555
O94 P22 1.559686 1_555
O95 P23 1.563305 1_555
O96 P10 1.531824 1_545
O97 P11 1.531556 1_545
O98 P6 1.543721 1_555
O99 P7 1.543865 1_555
O100 P9 1.546245 1_555
O101 P8 1.545147 1_555
O102 P2 1.536965 1_555
O103 P3 1.539207 1_555
O104 P5 1.546169 1_555
O105 P4 1.530207 1_555
O106 P0 1.540411 1_555
O107 P1 1.553805 1_555
O108 P24 1.528497 1_555
O109 P25 1.528860 1_555
O110 P27 1.528359 1_555
O111 P26 1.527054 1_655
O112 P28 1.525958 1_545
O113 P29 1.527265 1_545
O114 P30 1.535164 1_545
O115 P31 1.538170 1_545
O116 P32 1.537748 1_555
O117 P33 1.554371 1_555
O118 P35 1.548914 1_555
O119 P34 1.530604 1_655
O120 P22 1.564238 1_555
O121 P23 1.566853 1_555
O122 P19 1.560066 1_455
O123 P18 1.564336 1_555
O124 P20 1.565733 1_565
O125 P21 1.565814 1_565
O126 P14 1.563288 1_565
O127 P15 1.563232 1_565
O128 P16 1.567323 1_555
O129 P17 1.565310 1_555
O130 P13 1.563035 1_455
O131 P12 1.561581 1_555
O132 P0 1.536786 1_565
O133 P1 1.538865 1_565
O134 P2 1.556326 1_555
O135 P3 1.537654 1_555
O136 P4 1.526617 1_455
O137 P5 1.547595 1_555
O138 P6 1.539791 1_555
O139 P7 1.540007 1_555
O140 P8 1.526066 1_455
O141 P9 1.525981 1_555
O142 P10 1.538328 1_555
O143 P11 1.537306 1_555
