# generated using pymatgen
data_ScCo2
_symmetry_space_group_name_H-M   'P 1'
_cell_length_a   4.87567116
_cell_length_b   4.87568155
_cell_length_c   4.87571769
_cell_angle_alpha   59.99981029
_cell_angle_beta   59.99966469
_cell_angle_gamma   60.00149880
_symmetry_Int_Tables_number   1
_chemical_formula_structural   ScCo2
_chemical_formula_sum   'Sc2 Co4'
_cell_volume   81.95896945
_cell_formula_units_Z   2
loop_
 _symmetry_equiv_pos_site_id
 _symmetry_equiv_pos_as_xyz
  1  'x, y, z'
loop_
 _atom_site_type_symbol
 _atom_site_label
 _atom_site_symmetry_multiplicity
 _atom_site_fract_x
 _atom_site_fract_y
 _atom_site_fract_z
 _atom_site_occupancy
  Sc  Sc0  1  0.12500033  0.12500133  0.12499867  1
  Sc  Sc1  1  0.87499867  0.87499867  0.87500133  1
  Co  Co0  1  0.50000000  0.50000000  0.50000000  1
  Co  Co1  1  0.50000000  0.50000000  0.00000000  1
  Co  Co2  1  0.00000100  0.49999900  0.50000000  1
  Co  Co3  1  0.50000000  0.00000000  0.50000000  1
loop_
_geom_bond_atom_site_label_1
_geom_bond_atom_site_label_2
_geom_bond_distance
_geom_bond_site_symmetry_2
Sc0 Sc1 2.985738 1_444
Sc0 Sc1 2.985743 1_445
Sc0 Sc1 2.985748 1_544
Sc0 Sc1 2.985754 1_454
Co0 Co2 2.437833 1_555
Co0 Co2 2.437838 1_655
Co0 Co3 2.437841 1_565
Co0 Co3 2.437841 1_555
Co0 Co1 2.437859 1_556
Co0 Co1 2.437859 1_555
Co0 Sc1 2.858579 1_554
Co0 Sc0 2.858581 1_556
Co0 Sc0 2.858663 1_655
Co0 Sc1 2.858665 1_455
Co0 Sc1 2.858673 1_545
Co0 Sc0 2.858675 1_565
Co1 Co2 2.437832 1_555
Co1 Co2 2.437837 1_654
Co1 Co3 2.437843 1_564
Co1 Co3 2.437843 1_555
Co1 Sc1 2.858579 1_554
Co1 Sc0 2.858583 1_555
Co1 Sc0 2.858663 1_655
Co1 Sc1 2.858667 1_454
Co1 Sc1 2.858670 1_544
Co1 Sc0 2.858670 1_565
Co2 Co3 2.437889 1_555
Co2 Co3 2.437898 1_465
Co2 Sc1 2.858605 1_445
Co2 Sc0 2.858607 1_565
Co2 Sc0 2.858640 1_556
Co2 Sc0 2.858641 1_555
Co2 Sc1 2.858643 1_455
Co2 Sc1 2.858646 1_454
Co3 Sc0 2.858595 1_655
Co3 Sc1 2.858599 1_445
Co3 Sc0 2.858639 1_556
Co3 Sc1 2.858639 1_544
Co3 Sc1 2.858641 1_545
Co3 Sc0 2.858645 1_555
