# generated using pymatgen
data_Ba2NdMgRuO6
_symmetry_space_group_name_H-M   'P 1'
_cell_length_a   6.37831803
_cell_length_b   6.03549676
_cell_length_c   6.37831744
_cell_angle_alpha   61.76260625
_cell_angle_beta   58.02024873
_cell_angle_gamma   61.76261955
_symmetry_Int_Tables_number   1
_chemical_formula_structural   Ba2NdMgRuO6
_chemical_formula_sum   'Ba2 Nd1 Mg1 Ru1 O6'
_cell_volume   175.16537384
_cell_formula_units_Z   1
loop_
 _symmetry_equiv_pos_site_id
 _symmetry_equiv_pos_as_xyz
  1  'x, y, z'
loop_
 _atom_site_type_symbol
 _atom_site_label
 _atom_site_symmetry_multiplicity
 _atom_site_fract_x
 _atom_site_fract_y
 _atom_site_fract_z
 _atom_site_occupancy
  Ba  Ba0  1  0.68882200  0.81117900  0.68882200  1
  Ba  Ba1  1  0.31117900  0.18882200  0.31117700  1
  Nd  Nd0  1  0.00000000  0.00000000  0.00000000  1
  Mg  Mg0  1  0.00000000  0.50000000  0.00000000  1
  Ru  Ru0  1  0.50000000  0.50000000  0.50000000  1
  O  O0  1  0.73145800  0.26854100  0.73145900  1
  O  O1  1  0.24768500  0.27747300  0.75231600  1
  O  O2  1  0.24768400  0.72252700  0.75231600  1
  O  O3  1  0.75231500  0.27747400  0.24768400  1
  O  O4  1  0.75231500  0.72252600  0.24768500  1
  O  O5  1  0.26854200  0.73145800  0.26854200  1
loop_
_geom_bond_atom_site_label_1
_geom_bond_atom_site_label_2
_geom_bond_distance
_geom_bond_site_symmetry_2
Ba0 O1 2.894786 1_565
Ba0 O3 2.894791 1_565
Ba0 O2 2.894795 1_555
Ba0 O4 2.894795 1_555
Ba0 Mg0 2.919633 1_656
Ba0 O0 3.044139 1_565
Ba0 O0 3.044157 1_555
Ba0 O5 3.182404 1_556
Ba0 O5 3.182404 1_655
Ba1 O3 2.894785 1_555
Ba1 O4 2.894789 1_545
Ba1 O2 2.894795 1_545
Ba1 O1 2.894797 1_555
Ba1 Mg0 2.919633 1_555
Ba1 O5 3.044147 1_545
Ba1 O5 3.044147 1_555
Ba1 O0 3.182394 1_554
Ba1 O0 3.182412 1_455
Nd0 O2 2.269917 1_544
Nd0 O1 2.269921 1_554
Nd0 O3 2.269921 1_455
Nd0 O4 2.269925 1_445
Nd0 O0 2.519596 1_454
Nd0 O5 2.519600 1_545
Mg0 O2 2.037586 1_554
Mg0 O3 2.037586 1_455
Mg0 O1 2.037586 1_554
Mg0 O4 2.037587 1_455
O0 Ru0 2.171664 1_555
O1 Ru0 2.059218 1_555
O2 Ru0 2.059222 1_555
O3 Ru0 2.059218 1_555
O4 Ru0 2.059213 1_555
O5 Ru0 2.171659 1_555
