# generated using pymatgen
data_V(PO3)4
_symmetry_space_group_name_H-M   'P 1'
_cell_length_a   8.39041673
_cell_length_b   8.39041673
_cell_length_c   7.78969517
_cell_angle_alpha   82.10354031
_cell_angle_beta   82.10354031
_cell_angle_gamma   109.30224727
_symmetry_Int_Tables_number   1
_chemical_formula_structural   V(PO3)4
_chemical_formula_sum   'V2 P8 O24'
_cell_volume   502.75786365
_cell_formula_units_Z   2
loop_
 _symmetry_equiv_pos_site_id
 _symmetry_equiv_pos_as_xyz
  1  'x, y, z'
loop_
 _atom_site_type_symbol
 _atom_site_label
 _atom_site_symmetry_multiplicity
 _atom_site_fract_x
 _atom_site_fract_y
 _atom_site_fract_z
 _atom_site_occupancy
  V  V0  1  0.13300200  0.86699800  0.75000000  1
  V  V1  1  0.86699800  0.13300200  0.25000000  1
  P  P0  1  0.79437100  0.95807700  0.67112200  1
  P  P1  1  0.42535300  0.74988500  0.87861200  1
  P  P2  1  0.25011500  0.57464700  0.62138800  1
  P  P3  1  0.95807700  0.79437100  0.17112200  1
  P  P4  1  0.04192300  0.20562900  0.82887800  1
  P  P5  1  0.74988500  0.42535300  0.37861200  1
  P  P6  1  0.57464700  0.25011500  0.12138800  1
  P  P7  1  0.20562900  0.04192300  0.32887800  1
  O  O0  1  0.12871900  0.87128100  0.25000000  1
  O  O1  1  0.34558100  0.88427100  0.80909000  1
  O  O2  1  0.74754100  0.00248700  0.49519300  1
  O  O3  1  0.63038300  0.85065700  0.81537300  1
  O  O4  1  0.11572900  0.65441900  0.69091000  1
  O  O5  1  0.86147700  0.91864100  0.17234300  1
  O  O6  1  0.91864100  0.86147700  0.67234300  1
  O  O7  1  0.38367300  0.67365800  0.06625300  1
  O  O8  1  0.38801400  0.61198600  0.75000000  1
  O  O9  1  0.32634200  0.61632700  0.43374700  1
  O  O10  1  0.00248700  0.74754100  0.99519300  1
  O  O11  1  0.14934300  0.36961700  0.68462700  1
  O  O12  1  0.85065700  0.63038300  0.31537300  1
  O  O13  1  0.99751300  0.25245900  0.00480700  1
  O  O14  1  0.67365800  0.38367300  0.56625300  1
  O  O15  1  0.61198600  0.38801400  0.25000000  1
  O  O16  1  0.61632700  0.32634200  0.93374700  1
  O  O17  1  0.08135900  0.13852300  0.32765700  1
  O  O18  1  0.13852300  0.08135900  0.82765700  1
  O  O19  1  0.88427100  0.34558100  0.30909000  1
  O  O20  1  0.36961700  0.14934300  0.18462700  1
  O  O21  1  0.25245900  0.99751300  0.50480700  1
  O  O22  1  0.65441900  0.11572900  0.19091000  1
  O  O23  1  0.87128100  0.12871900  0.75000000  1
loop_
_geom_bond_atom_site_label_1
_geom_bond_atom_site_label_2
_geom_bond_distance
_geom_bond_site_symmetry_2
O0 P7 1.607401 1_565
O0 P3 1.607401 1_455
O1 P1 1.563137 1_555
O1 V0 1.867408 1_555
O2 P0 1.508562 1_545
O2 V1 2.006362 1_555
O3 P0 1.563719 1_555
O3 P1 1.614952 1_555
O4 P2 1.563137 1_555
O4 V0 1.867408 1_555
O5 P3 1.517731 1_555
O5 V1 1.963295 1_565
O6 P0 1.517731 1_555
O6 V0 1.963295 1_655
O7 P1 1.456929 1_554
O8 P1 1.614209 1_555
O8 P2 1.614209 1_555
O9 P2 1.456929 1_555
O10 P3 1.508562 1_456
O10 V0 2.006362 1_555
O11 P4 1.563719 1_555
O11 P2 1.614952 1_555
O12 P3 1.563719 1_555
O12 P5 1.614952 1_555
O13 P4 1.508562 1_654
O13 V1 2.006362 1_555
O14 P5 1.456929 1_555
O15 P5 1.614209 1_555
O15 P6 1.614209 1_555
O16 P6 1.456929 1_556
O17 P7 1.517731 1_555
O17 V1 1.963295 1_455
O18 P4 1.517731 1_555
O18 V0 1.963295 1_545
O19 P5 1.563137 1_555
O19 V1 1.867408 1_555
O20 P7 1.563719 1_555
O20 P6 1.614952 1_555
O21 P7 1.508562 1_565
O21 V0 2.006362 1_555
O22 P6 1.563137 1_555
O22 V1 1.867408 1_555
O23 P4 1.607401 1_655
O23 P0 1.607401 1_545
