# generated using pymatgen
data_Na5La2Ti2SiP5O24
_symmetry_space_group_name_H-M   'P 1'
_cell_length_a   9.27556256
_cell_length_b   9.31348899
_cell_length_c   23.00405824
_cell_angle_alpha   90.02778733
_cell_angle_beta   89.77631447
_cell_angle_gamma   120.64084183
_symmetry_Int_Tables_number   1
_chemical_formula_structural   Na5La2Ti2SiP5O24
_chemical_formula_sum   'Na15 La6 Ti6 Si3 P15 O72'
_cell_volume   1709.79060335
_cell_formula_units_Z   3
loop_
 _symmetry_equiv_pos_site_id
 _symmetry_equiv_pos_as_xyz
  1  'x, y, z'
loop_
 _atom_site_type_symbol
 _atom_site_label
 _atom_site_symmetry_multiplicity
 _atom_site_fract_x
 _atom_site_fract_y
 _atom_site_fract_z
 _atom_site_occupancy
  Na  Na0  1  0.99732403  0.65185156  0.24736308  1
  Na  Na1  1  0.62492847  0.62839654  0.74433502  1
  Na  Na2  1  0.37031083  0.99528021  0.75223786  1
  Na  Na3  1  0.66878978  0.97161826  0.58691077  1
  Na  Na4  1  0.31054472  0.98166420  0.08370337  1
  Na  Na5  1  0.67821323  0.69768188  0.07896166  1
  Na  Na6  1  0.02636675  0.33226921  0.08349224  1
  Na  Na7  1  0.95884216  0.30091147  0.42316695  1
  Na  Na8  1  0.34627602  0.04054953  0.42401260  1
  Na  Na9  1  0.00763061  0.98597561  0.50670574  1
  Na  Na10  1  0.00319876  0.98928214  0.98943500  1
  Na  Na11  1  0.68658557  0.34430892  0.83074172  1
  Na  Na12  1  0.64386500  0.32930608  0.32554853  1
  Na  Na13  1  0.35029044  0.66814551  0.16478210  1
  Na  Na14  1  0.31093509  0.64057071  0.65948204  1
  La  La0  1  0.99223156  0.99556035  0.35052121  1
  La  La1  1  0.99977919  0.00419989  0.15774737  1
  La  La2  1  0.66657819  0.34002272  0.97548534  1
  La  La3  1  0.66167405  0.34738083  0.50031629  1
  La  La4  1  0.35032690  0.66633566  0.31573816  1
  La  La5  1  0.32028776  0.65595351  0.80785366  1
  Ti  Ti0  1  0.98545499  0.00205189  0.85066305  1
  Ti  Ti1  1  0.00540597  0.00140833  0.65034292  1
  Ti  Ti2  1  0.67040353  0.31598910  0.68013090  1
  Ti  Ti3  1  0.67213763  0.33102282  0.17898348  1
  Ti  Ti4  1  0.31961618  0.66581646  0.00916768  1
  Ti  Ti5  1  0.33467989  0.66976830  0.52286103  1
  Si  Si0  1  0.72944132  0.02254869  0.74618402  1
  Si  Si1  1  0.35298684  0.01819198  0.58432505  1
  Si  Si2  1  0.97497068  0.63032347  0.08241411  1
  P  P0  1  0.32912143  0.01516643  0.24729808  1
  P  P1  1  0.68644682  0.66254917  0.23928732  1
  P  P2  1  0.98084335  0.31480802  0.24651331  1
  P  P3  1  0.29156588  0.26796227  0.74794102  1
  P  P4  1  0.97730983  0.71626114  0.74885016  1
  P  P5  1  0.97459033  0.33049609  0.58524220  1
  P  P6  1  0.66681722  0.64513501  0.59108978  1
  P  P7  1  0.65114003  0.02982642  0.08245722  1
  P  P8  1  0.38065830  0.35054884  0.08436375  1
  P  P9  1  0.63572348  0.69414402  0.91280712  1
  P  P10  1  0.04877350  0.35119369  0.91601853  1
  P  P11  1  0.30239420  0.94531126  0.91210294  1
  P  P12  1  0.63165913  0.96396564  0.42828600  1
  P  P13  1  0.32613220  0.37020915  0.42681630  1
  P  P14  1  0.05118463  0.67130425  0.42290234  1
  O  O0  1  0.24171116  0.03115523  0.30350741  1
  O  O1  1  0.80425319  0.76454703  0.29120709  1
  O  O2  1  0.97065050  0.21152156  0.30142247  1
  O  O3  1  0.19891468  0.16663088  0.80355798  1
  O  O4  1  0.96106653  0.80686459  0.80418077  1
  O  O5  1  0.84139206  0.03810730  0.80609102  1
  O  O6  1  0.83434753  0.01223256  0.69220794  1
  O  O7  1  0.18474022  0.17271725  0.69478155  1
  O  O8  1  0.98302421  0.82086672  0.69586454  1
  O  O9  1  0.76141396  0.75370642  0.18178293  1
  O  O10  1  0.00461673  0.24103421  0.19026794  1
  O  O11  1  0.21707955  0.98414502  0.19378927  1
  O  O12  1  0.86164624  0.35468664  0.63321723  1
  O  O13  1  0.50909729  0.14182249  0.63429727  1
  O  O14  1  0.64475747  0.51778691  0.63987289  1
  O  O15  1  0.87313020  0.49856164  0.13927916  1
  O  O16  1  0.63648631  0.13186444  0.13534447  1
  O  O17  1  0.50002280  0.35960876  0.13535977  1
  O  O18  1  0.43617191  0.30051192  0.02949105  1
  O  O19  1  0.84664044  0.55906793  0.02951469  1
  O  O20  1  0.69098868  0.13718242  0.02864280  1
  O  O21  1  0.40995505  0.11410137  0.52303254  1
  O  O22  1  0.71105503  0.59916224  0.53266829  1
  O  O23  1  0.87310106  0.28276235  0.52851368  1
  O  O24  1  0.53137874  0.70061945  0.96698066  1
  O  O25  1  0.16163539  0.45834795  0.97070971  1
  O  O26  1  0.29777327  0.82315325  0.96536195  1
  O  O27  1  0.52701324  0.85246329  0.48192735  1
  O  O28  1  0.33478902  0.48836524  0.47777746  1
  O  O29  1  0.17271207  0.67392965  0.47284744  1
  O  O30  1  0.12196249  0.66427677  0.36320559  1
  O  O31  1  0.53820525  0.88508485  0.37179174  1
  O  O32  1  0.32874323  0.44914617  0.36823528  1
  O  O33  1  0.12378653  0.45134545  0.86110826  1
  O  O34  1  0.32410028  0.87526144  0.85502154  1
  O  O35  1  0.54508700  0.67590016  0.85553669  1
  O  O36  1  0.04994201  0.83664791  0.42784609  1
  O  O37  1  0.80662132  0.98124247  0.42882582  1
  O  O38  1  0.15657464  0.20091012  0.43116754  1
  O  O39  1  0.05107033  0.18501983  0.91294565  1
  O  O40  1  0.13558270  0.94316335  0.91378184  1
  O  O41  1  0.80974050  0.86248805  0.91033096  1
  O  O42  1  0.99783820  0.18171145  0.59952796  1
  O  O43  1  0.16998798  0.99052000  0.60144017  1
  O  O44  1  0.81325507  0.82778938  0.60199649  1
  O  O45  1  0.02570019  0.82402350  0.09110637  1
  O  O46  1  0.79540266  0.99395578  0.09104949  1
  O  O47  1  0.19524286  0.21201501  0.09385710  1
  O  O48  1  0.70477940  0.18950961  0.73743838  1
  O  O49  1  0.46714903  0.27972454  0.74338651  1
  O  O50  1  0.82040309  0.53792524  0.74518444  1
  O  O51  1  0.68861606  0.49701090  0.23946013  1
  O  O52  1  0.81384776  0.31612241  0.24293646  1
  O  O53  1  0.49821365  0.17790025  0.23917806  1
  O  O54  1  0.66621018  0.54777856  0.91718548  1
  O  O55  1  0.87034411  0.31755118  0.92137028  1
  O  O56  1  0.45477062  0.11853391  0.92035272  1
  O  O57  1  0.65048459  0.13879925  0.43094587  1
  O  O58  1  0.47373831  0.33812279  0.42715753  1
  O  O59  1  0.87951265  0.51167667  0.42934403  1
  O  O60  1  0.38841997  0.52159750  0.07937695  1
  O  O61  1  0.15280228  0.62594233  0.06960128  1
  O  O62  1  0.48095606  0.86057831  0.07787748  1
  O  O63  1  0.35307590  0.83929406  0.58048578  1
  O  O64  1  0.50419867  0.65693697  0.58613746  1
  O  O65  1  0.14457652  0.49546671  0.58043194  1
  O  O66  1  0.34929707  0.86077627  0.24992692  1
  O  O67  1  0.50784993  0.62975074  0.24397372  1
  O  O68  1  0.12574420  0.49848345  0.24959917  1
  O  O69  1  0.32511461  0.44816442  0.74544260  1
  O  O70  1  0.14158542  0.71290608  0.74680048  1
  O  O71  1  0.54149965  0.85891824  0.74520937  1
loop_
_geom_bond_atom_site_label_1
_geom_bond_atom_site_label_2
_geom_bond_distance
_geom_bond_site_symmetry_2
Na0 O68 2.279626 1_655
Na0 O51 2.471174 1_555
Na0 O1 2.688273 1_555
Na0 O52 2.694537 1_555
Na0 O15 2.808883 1_555
Na0 O66 2.823895 1_655
Na0 O30 2.887688 1_655
Na0 O11 2.967414 1_655
Na1 O50 2.356985 1_555
Na1 O69 2.406915 1_555
Na1 O71 2.627172 1_555
Na1 O14 2.656502 1_555
Na1 O35 2.757916 1_555
Na1 O49 2.800629 1_555
Na2 O49 2.332372 1_565
Na2 O70 2.397398 1_555
Na2 O71 2.492737 1_555
Na2 O34 2.555396 1_555
Na2 O48 2.699059 1_565
Na3 O44 2.354601 1_555
Na3 O64 2.521893 1_555
Na3 O63 2.537882 1_555
Na3 O42 2.673439 1_565
Na3 O27 2.707027 1_555
Na3 O6 2.793689 1_565
Na3 O23 2.860013 1_565
Na3 O13 2.876507 1_565
Na4 O45 2.282098 1_555
Na4 O62 2.367153 1_555
Na4 O18 2.862974 1_565
Na4 O61 2.878146 1_555
Na5 O60 2.328383 1_555
Na5 O46 2.411879 1_555
Na5 O9 2.462744 1_555
Na5 O19 2.727934 1_555
Na5 O45 2.827033 1_655
Na5 O62 2.912021 1_555
Na5 O24 2.925240 1_554
Na5 O17 3.001925 1_555
Na6 O47 2.357184 1_555
Na6 O61 2.384682 1_555
Na6 O10 2.572824 1_555
Na6 O46 2.768553 1_445
Na6 O25 2.856583 1_554
Na6 O15 2.879847 1_455
Na6 O60 2.890978 1_555
Na6 O20 2.972813 1_455
Na7 O59 2.426116 1_555
Na7 O38 2.451354 1_655
Na7 O57 2.467139 1_555
Na7 O23 2.526316 1_555
Na7 O37 2.566814 1_545
Na7 O2 2.938852 1_555
Na8 O21 2.367139 1_555
Na8 O58 2.396770 1_555
Na8 O36 2.418044 1_545
Na8 O57 2.489235 1_555
Na8 O38 2.833734 1_555
Na8 O0 2.926978 1_555
Na9 O36 2.434652 1_555
Na9 O38 2.470028 1_565
Na9 O37 2.574898 1_455
Na9 O43 2.641876 1_555
Na9 O44 2.736982 1_455
Na9 O42 2.838038 1_465
Na10 O40 2.289382 1_555
Na10 O39 2.405925 1_565
Na10 O41 2.406101 1_455
Na10 O45 2.866615 1_556
Na11 O50 2.523672 1_555
Na11 O48 2.637433 1_555
Na11 O49 2.706596 1_555
Na11 O55 2.788371 1_555
Na11 O54 2.817733 1_555
Na11 O56 2.941998 1_555
Na12 O53 2.416128 1_555
Na12 O51 2.422710 1_555
Na12 O52 2.507248 1_555
Na12 O58 2.839633 1_555
Na13 O67 2.477200 1_555
Na13 O60 2.516324 1_555
Na13 O62 2.539306 1_555
Na13 O66 2.658659 1_555
Na13 O68 2.694144 1_555
Na13 O61 2.756939 1_555
Na14 O65 2.325548 1_555
Na14 O64 2.404493 1_555
Na14 O63 2.478088 1_555
Na14 O69 2.717434 1_555
Na14 O70 2.829990 1_555
Na14 O71 2.862555 1_555
La0 O1 2.392259 1_555
La0 O2 2.403265 1_565
La0 O0 2.415223 1_665
La0 O37 2.443071 1_555
La0 O36 2.541388 1_655
La0 O38 2.543648 1_665
La1 O11 2.276362 1_645
La1 O10 2.307553 1_655
La1 O9 2.317505 1_545
La1 O47 2.366096 1_655
La1 O45 2.372707 1_645
La1 O46 2.407314 1_545
La2 O19 2.244294 1_556
La2 O18 2.329021 1_556
La2 O55 2.355915 1_555
La2 O54 2.356246 1_555
La2 O20 2.357094 1_556
La2 O56 2.368446 1_555
La3 O22 2.273472 1_555
La3 O21 2.294727 1_555
La3 O58 2.397517 1_555
La3 O23 2.417067 1_555
La3 O59 2.432042 1_555
La3 O57 2.474653 1_555
La4 O32 2.275495 1_555
La4 O31 2.290491 1_555
La4 O67 2.337610 1_555
La4 O66 2.364720 1_555
La4 O30 2.370669 1_555
La4 O68 2.408565 1_555
La5 O33 2.213308 1_555
La5 O35 2.282177 1_555
La5 O34 2.296739 1_555
La5 O71 2.426131 1_555
La5 O69 2.427662 1_555
La5 O70 2.432387 1_555
O0 P0 1.570411 1_555
O1 P1 1.572887 1_555
O2 P2 1.561201 1_555
O3 P3 1.559486 1_555
O3 Ti0 2.082138 1_455
O4 P4 1.575405 1_555
O4 Ti0 2.019909 1_565
O5 Si0 1.689988 1_555
O5 Ti0 1.848810 1_555
O6 Si0 1.607350 1_555
O6 Ti1 1.898993 1_655
O7 P3 1.541629 1_555
O7 Ti1 1.914175 1_555
O8 P4 1.544555 1_555
O8 Ti1 1.900323 1_665
O9 P1 1.531782 1_555
O10 P2 1.531722 1_455
O11 P0 1.543460 1_565
O12 P5 1.611695 1_555
O12 Ti2 1.942936 1_555
O13 Si1 1.748217 1_555
O13 Ti2 1.875716 1_555
O14 P6 1.568462 1_555
O14 Ti2 2.214875 1_555
O15 Si2 1.708730 1_555
O15 Ti3 1.941019 1_555
O16 P7 1.590918 1_555
O16 Ti3 1.983226 1_555
O17 P8 1.588701 1_555
O17 Ti3 2.018078 1_555
O18 P8 1.521399 1_555
O19 Si2 1.594830 1_555
O20 P7 1.513202 1_555
O21 Si1 1.606062 1_555
O22 P6 1.527111 1_555
O23 P5 1.539238 1_555
O24 P9 1.594814 1_555
O24 Ti4 2.059486 1_556
O25 P10 1.618298 1_555
O25 Ti4 1.945741 1_556
O26 P11 1.657867 1_555
O26 Ti4 1.873350 1_556
O27 P12 1.583573 1_555
O27 Ti5 1.964392 1_555
O28 P13 1.581506 1_555
O28 Ti5 1.982427 1_555
O29 P14 1.604154 1_555
O29 Ti5 1.911834 1_555
O30 P14 1.535519 1_555
O31 P12 1.529322 1_555
O32 P13 1.529595 1_555
O33 P10 1.510788 1_555
O34 P11 1.523617 1_555
O35 P9 1.527796 1_555
O36 P14 1.549952 1_555
O37 P12 1.547172 1_555
O38 P13 1.562344 1_555
O39 P10 1.560188 1_555
O39 Ti0 2.067447 1_455
O40 P11 1.537505 1_555
O40 Ti0 2.267869 1_465
O41 P9 1.576893 1_555
O41 Ti0 2.013662 1_565
O42 P5 1.542805 1_555
O42 Ti1 2.077006 1_655
O43 Si1 1.628383 1_565
O43 Ti1 1.936641 1_565
O44 P6 1.564861 1_555
O44 Ti1 2.025909 1_665
O45 Si2 1.628194 1_455
O46 P7 1.548882 1_565
O47 P8 1.551040 1_555
O48 Si0 1.695297 1_555
O48 Ti2 1.901273 1_555
O49 P3 1.578684 1_555
O49 Ti2 2.261825 1_555
O50 P4 1.555896 1_555
O50 Ti2 2.351517 1_555
O51 P1 1.552097 1_555
O51 Ti3 2.026682 1_555
O52 P2 1.557748 1_555
O52 Ti3 2.027957 1_555
O53 P0 1.538474 1_555
O53 Ti3 2.047723 1_555
O54 P9 1.530238 1_555
O55 P10 1.523919 1_655
O56 P11 1.521173 1_545
O57 P12 1.547836 1_545
O58 P13 1.543053 1_555
O59 P14 1.533988 1_655
O60 P8 1.561855 1_555
O60 Ti4 2.388281 1_555
O61 Si2 1.695332 1_455
O61 Ti4 1.965383 1_555
O62 P7 1.566030 1_565
O62 Ti4 2.297144 1_555
O63 Si1 1.668881 1_565
O63 Ti5 2.001078 1_555
O64 P6 1.571820 1_555
O64 Ti5 2.194323 1_555
O65 P5 1.545458 1_455
O65 Ti5 2.136492 1_555
O66 P0 1.542960 1_565
O67 P1 1.527103 1_555
O68 P2 1.547537 1_455
O69 P3 1.544174 1_555
O70 P4 1.540448 1_455
O71 Si0 1.629187 1_565
