# generated using pymatgen
data_MgFe6(O5F)2
_symmetry_space_group_name_H-M   'P 1'
_cell_length_a   8.17718766
_cell_length_b   5.94973647
_cell_length_c   5.74788895
_cell_angle_alpha   66.64100778
_cell_angle_beta   65.34521085
_cell_angle_gamma   62.62206676
_symmetry_Int_Tables_number   1
_chemical_formula_structural   MgFe6(O5F)2
_chemical_formula_sum   'Mg1 Fe6 O10 F2'
_cell_volume   218.30899785
_cell_formula_units_Z   1
loop_
 _symmetry_equiv_pos_site_id
 _symmetry_equiv_pos_as_xyz
  1  'x, y, z'
loop_
 _atom_site_type_symbol
 _atom_site_label
 _atom_site_symmetry_multiplicity
 _atom_site_fract_x
 _atom_site_fract_y
 _atom_site_fract_z
 _atom_site_occupancy
  Mg  Mg0  1  0.32009788  0.19503402  0.65545375  1
  Fe  Fe0  1  0.79737956  0.64948374  0.66277346  1
  Fe  Fe1  1  0.67179857  0.35930238  0.35517073  1
  Fe  Fe2  1  0.34093723  0.66862129  0.66516515  1
  Fe  Fe3  1  0.10839641  0.30402298  0.29745173  1
  Fe  Fe4  1  0.53205893  0.01610414  0.03374901  1
  Fe  Fe5  1  0.99235961  0.98356730  0.00563776  1
  O  O0  1  0.63157750  0.03398157  0.64505289  1
  O  O1  1  0.30951759  0.32794161  0.94952669  1
  O  O2  1  0.94699928  0.18426898  0.24447154  1
  O  O3  1  0.62392309  0.54507557  0.60703735  1
  O  O4  1  0.06074854  0.80565652  0.76766981  1
  O  O5  1  0.40389906  0.48778475  0.40804759  1
  O  O6  1  0.34886028  0.01525192  0.39189107  1
  O  O7  1  0.68952187  0.65426510  0.04023211  1
  O  O8  1  0.02044771  0.30109263  0.69711676  1
  O  O9  1  0.97096524  0.67968209  0.29641606  1
  F  F0  1  0.29055173  0.87314548  0.93402319  1
  F  F1  1  0.69921891  0.14190794  0.08120833  1
loop_
_geom_bond_atom_site_label_1
_geom_bond_atom_site_label_2
_geom_bond_distance
_geom_bond_site_symmetry_2
Mg0 O5 1.961186 1_555
Mg0 O6 2.061755 1_555
Mg0 O1 2.089234 1_555
Mg0 O8 2.160488 1_555
Mg0 O0 2.254512 1_555
Fe0 O3 1.961537 1_555
Fe0 O7 1.978693 1_556
Fe0 O9 1.980454 1_555
Fe0 O0 2.039558 1_565
Fe0 O8 2.039936 1_655
Fe1 O5 1.887942 1_555
Fe1 O2 1.931058 1_555
Fe1 O3 1.966943 1_555
Fe1 O7 1.968156 1_555
Fe1 O0 2.049814 1_555
Fe2 O5 1.929631 1_555
Fe2 O4 1.948826 1_555
Fe2 O3 1.997998 1_555
Fe2 O6 2.047912 1_565
Fe2 O1 2.085072 1_555
Fe3 O2 1.927283 1_455
Fe3 O9 1.985806 1_455
Fe3 O1 1.992468 1_554
Fe3 O6 2.038822 1_555
Fe3 O8 2.096712 1_555
Fe4 O7 1.928993 1_545
Fe4 O1 1.976289 1_554
Fe4 O6 1.976796 1_555
Fe4 O0 2.009830 1_554
Fe5 O4 1.808215 1_654
Fe5 O9 1.934870 1_555
Fe5 O2 1.978837 1_565
Fe5 O8 2.041856 1_664
F0 Mg0 1.990250 1_565
F0 Fe5 2.109604 1_456
F0 Fe2 2.130154 1_555
F1 Fe4 1.979158 1_555
F1 Fe5 2.049635 1_545
F1 Fe1 2.292768 1_555
