# generated using pymatgen
data_K3MgMnO4
_symmetry_space_group_name_H-M   'P 1'
_cell_length_a   6.33957591
_cell_length_b   6.03040549
_cell_length_c   6.07564394
_cell_angle_alpha   105.18824637
_cell_angle_beta   110.76750279
_cell_angle_gamma   110.49183427
_symmetry_Int_Tables_number   1
_chemical_formula_structural   K3MgMnO4
_chemical_formula_sum   'K3 Mg1 Mn1 O4'
_cell_volume   182.60325017
_cell_formula_units_Z   1
loop_
 _symmetry_equiv_pos_site_id
 _symmetry_equiv_pos_as_xyz
  1  'x, y, z'
loop_
 _atom_site_type_symbol
 _atom_site_label
 _atom_site_symmetry_multiplicity
 _atom_site_fract_x
 _atom_site_fract_y
 _atom_site_fract_z
 _atom_site_occupancy
  K  K0  1  0.43678200  0.70948600  0.26481200  1
  K  K1  1  0.56321800  0.27270400  0.82802900  1
  K  K2  1  0.00000000  0.48018000  0.55876000  1
  Mg  Mg0  1  0.00000000  0.93850900  0.30442300  1
  Mn  Mn0  1  0.00000000  0.01545900  0.94215900  1
  O  O0  1  0.73734700  0.98577700  0.03343100  1
  O  O1  1  0.00000000  0.96794100  0.62171000  1
  O  O2  1  0.00000000  0.68359800  0.02559100  1
  O  O3  1  0.26265300  0.24843000  0.29608400  1
loop_
_geom_bond_atom_site_label_1
_geom_bond_atom_site_label_2
_geom_bond_distance
_geom_bond_site_symmetry_2
K0 O2 2.555125 1_555
K0 O3 2.694752 1_555
K0 O1 2.953352 1_655
K0 O0 3.047478 1_555
K1 O2 2.555124 1_656
K1 O0 2.694755 1_546
K1 O1 2.953353 1_545
K1 O3 3.047473 1_555
K2 O2 2.779621 1_556
K2 O1 2.865070 1_555
K2 O0 3.101259 1_445
K2 O3 3.101259 1_555
K2 O1 3.210498 1_545
Mg0 O1 1.889005 1_555
Mg0 O2 1.966828 1_555
Mg0 O0 2.049074 1_455
Mg0 O3 2.049074 1_565
Mn0 O1 1.892177 1_545
Mn0 O3 1.900073 1_556
Mn0 O0 1.900073 1_446
Mn0 O2 2.189413 1_546
