# generated using pymatgen
data_La2Ni12P5
_symmetry_space_group_name_H-M   'P 1'
_cell_length_a   3.66586003
_cell_length_b   10.86693429
_cell_length_c   13.07125910
_cell_angle_alpha   72.14189538
_cell_angle_beta   90.00000000
_cell_angle_gamma   90.00000000
_symmetry_Int_Tables_number   1
_chemical_formula_structural   La2Ni12P5
_chemical_formula_sum   'La4 Ni24 P10'
_cell_volume   495.62666522
_cell_formula_units_Z   2
loop_
 _symmetry_equiv_pos_site_id
 _symmetry_equiv_pos_as_xyz
  1  'x, y, z'
loop_
 _atom_site_type_symbol
 _atom_site_label
 _atom_site_symmetry_multiplicity
 _atom_site_fract_x
 _atom_site_fract_y
 _atom_site_fract_z
 _atom_site_occupancy
  La  La0  1  0.25000000  0.74811246  0.18761425  1
  La  La1  1  0.75000000  0.25188754  0.81238575  1
  La  La2  1  0.25000000  0.77900685  0.68344788  1
  La  La3  1  0.75000000  0.22099315  0.31655212  1
  Ni  Ni0  1  0.25000000  0.57196039  0.01368053  1
  Ni  Ni1  1  0.25000000  0.56487923  0.44883718  1
  Ni  Ni2  1  0.75000000  0.50678508  0.34134798  1
  Ni  Ni3  1  0.25000000  0.49321492  0.65865202  1
  Ni  Ni4  1  0.75000000  0.51148433  0.14981128  1
  Ni  Ni5  1  0.25000000  0.48851567  0.85018872  1
  Ni  Ni6  1  0.75000000  0.43512077  0.55116282  1
  Ni  Ni7  1  0.25000000  0.34568360  0.13462133  1
  Ni  Ni8  1  0.75000000  0.65529115  0.56166714  1
  Ni  Ni9  1  0.25000000  0.34470885  0.43833286  1
  Ni  Ni10  1  0.75000000  0.90483429  0.30511359  1
  Ni  Ni11  1  0.25000000  0.09516571  0.69488641  1
  Ni  Ni12  1  0.75000000  0.91899364  0.99012092  1
  Ni  Ni13  1  0.25000000  0.08100636  0.00987908  1
  Ni  Ni14  1  0.75000000  0.92236825  0.48977379  1
  Ni  Ni15  1  0.25000000  0.07763175  0.51022621  1
  Ni  Ni16  1  0.75000000  0.94069131  0.79615784  1
  Ni  Ni17  1  0.25000000  0.05930869  0.20384216  1
  Ni  Ni18  1  0.25000000  0.78574661  0.43874060  1
  Ni  Ni19  1  0.75000000  0.21425339  0.56125940  1
  Ni  Ni20  1  0.25000000  0.79807880  0.91800755  1
  Ni  Ni21  1  0.75000000  0.20192120  0.08199245  1
  Ni  Ni22  1  0.75000000  0.65431640  0.86537867  1
  Ni  Ni23  1  0.75000000  0.42803961  0.98631947  1
  P  P0  1  0.25000000  0.00636364  0.87159542  1
  P  P1  1  0.75000000  0.99363636  0.12840458  1
  P  P2  1  0.25000000  0.29981936  0.98518692  1
  P  P3  1  0.75000000  0.70018064  0.01481308  1
  P  P4  1  0.25000000  0.45224267  0.25920009  1
  P  P5  1  0.75000000  0.54775733  0.74079991  1
  P  P6  1  0.25000000  0.99055289  0.37933529  1
  P  P7  1  0.75000000  0.00944711  0.62066471  1
  P  P8  1  0.25000000  0.31167434  0.61085583  1
  P  P9  1  0.75000000  0.68832566  0.38914417  1
loop_
_geom_bond_atom_site_label_1
_geom_bond_atom_site_label_2
_geom_bond_distance
_geom_bond_site_symmetry_2
La0 P4 3.060698 1_555
La0 P3 3.074797 1_455
La0 P3 3.074797 1_555
La0 P9 3.109877 1_455
La0 P9 3.109877 1_555
La0 P1 3.132229 1_555
La0 P1 3.132229 1_455
La1 P5 3.060698 1_555
La1 P2 3.074797 1_655
La1 P2 3.074797 1_555
La1 P8 3.109877 1_555
La1 P8 3.109877 1_655
La1 P0 3.132229 1_555
La1 P0 3.132229 1_655
La2 Ni22 2.979020 1_455
La2 Ni22 2.979020 1_555
La2 Ni8 3.002255 1_555
La2 Ni8 3.002255 1_455
La2 P7 3.007258 1_565
La2 P7 3.007258 1_465
La2 P5 3.013509 1_555
La2 P5 3.013509 1_455
La2 Ni14 3.126757 1_555
La2 Ni14 3.126757 1_455
La2 Ni20 3.135758 1_555
La2 Ni18 3.176937 1_555
La2 Ni16 3.194501 1_555
La2 Ni16 3.194501 1_455
La3 Ni7 2.979020 1_555
La3 Ni7 2.979020 1_655
La3 Ni9 3.002255 1_555
La3 Ni9 3.002255 1_655
La3 P6 3.007258 1_645
La3 P6 3.007258 1_545
La3 P4 3.013509 1_555
La3 P4 3.013509 1_655
La3 Ni15 3.126757 1_555
La3 Ni15 3.126757 1_655
La3 Ni21 3.135758 1_555
La3 Ni19 3.176937 1_555
La3 Ni17 3.194501 1_655
La3 Ni17 3.194501 1_555
Ni0 P3 2.305202 1_455
Ni0 P3 2.305202 1_555
Ni1 P9 2.264079 1_555
Ni1 P9 2.264079 1_455
Ni2 P9 2.244581 1_555
Ni2 P4 2.292220 1_655
Ni2 P4 2.292220 1_555
Ni3 P8 2.244581 1_555
Ni3 P5 2.292220 1_455
Ni3 P5 2.292220 1_555
Ni4 P3 2.258167 1_555
Ni4 P4 2.292157 1_655
Ni4 P4 2.292157 1_555
Ni5 P2 2.258167 1_555
Ni5 P5 2.292157 1_555
Ni5 P5 2.292157 1_455
Ni6 P8 2.264079 1_655
Ni6 P8 2.264079 1_555
Ni7 P2 2.158902 1_554
Ni7 P4 2.269161 1_555
Ni8 P9 2.172050 1_555
Ni8 P5 2.273755 1_555
Ni9 P8 2.172050 1_555
Ni9 P4 2.273755 1_555
Ni10 P1 2.213453 1_555
Ni10 P9 2.270917 1_555
Ni10 P6 2.392242 1_655
Ni10 P6 2.392242 1_555
Ni11 P0 2.213453 1_555
Ni11 P8 2.270917 1_555
Ni11 P7 2.392242 1_455
Ni11 P7 2.392242 1_555
Ni12 P1 2.196447 1_556
Ni12 P3 2.299463 1_556
Ni12 P0 2.399827 1_665
Ni12 P0 2.399827 1_565
Ni13 P0 2.196447 1_554
Ni13 P2 2.299463 1_554
Ni13 P1 2.399827 1_545
Ni13 P1 2.399827 1_445
Ni14 P7 2.194453 1_565
Ni14 P6 2.310091 1_655
Ni14 P6 2.310091 1_555
Ni15 P6 2.194453 1_545
Ni15 P7 2.310091 1_555
Ni15 P7 2.310091 1_455
Ni16 P7 2.183830 1_565
Ni16 P0 2.296271 1_565
Ni16 P0 2.296271 1_665
Ni17 P6 2.183830 1_545
Ni17 P1 2.296271 1_545
Ni17 P1 2.296271 1_445
Ni18 P6 2.120468 1_555
Ni18 P9 2.306864 1_555
Ni18 P9 2.306864 1_455
Ni19 P7 2.120468 1_555
Ni19 P8 2.306864 1_655
Ni19 P8 2.306864 1_555
Ni20 P0 2.156137 1_565
Ni20 P3 2.294982 1_456
Ni20 P3 2.294982 1_556
Ni21 P1 2.156137 1_545
Ni21 P2 2.294982 1_554
Ni21 P2 2.294982 1_654
Ni22 P3 2.158902 1_556
Ni22 P5 2.269161 1_555
Ni23 P2 2.305202 1_655
Ni23 P2 2.305202 1_555
