# generated using pymatgen
data_Ba3CuRu2O9
_symmetry_space_group_name_H-M   'P 1'
_cell_length_a   5.86993892
_cell_length_b   5.86993892
_cell_length_c   14.22149267
_cell_angle_alpha   89.99952629
_cell_angle_beta   90.00047371
_cell_angle_gamma   122.19038613
_symmetry_Int_Tables_number   1
_chemical_formula_structural   Ba3CuRu2O9
_chemical_formula_sum   'Ba6 Cu2 Ru4 O18'
_cell_volume   414.69398974
_cell_formula_units_Z   2
loop_
 _symmetry_equiv_pos_site_id
 _symmetry_equiv_pos_as_xyz
  1  'x, y, z'
loop_
 _atom_site_type_symbol
 _atom_site_label
 _atom_site_symmetry_multiplicity
 _atom_site_fract_x
 _atom_site_fract_y
 _atom_site_fract_z
 _atom_site_occupancy
  Ba  Ba0  1  0.67767992  0.32232008  0.59027845  1
  Ba  Ba1  1  0.32231924  0.67768076  0.40970716  1
  Ba  Ba2  1  0.32231974  0.67768026  0.09030565  1
  Ba  Ba3  1  0.67767971  0.32232029  0.90970697  1
  Ba  Ba4  1  0.98049752  0.01950248  0.25001286  1
  Ba  Ba5  1  0.01950381  0.98049619  0.74998781  1
  Cu  Cu0  1  0.00000272  0.99999728  0.49999879  1
  Cu  Cu1  1  0.00000273  0.99999727  0.00000036  1
  Ru  Ru0  1  0.64716672  0.35283328  0.34639550  1
  Ru  Ru1  1  0.35283227  0.64716773  0.65359381  1
  Ru  Ru2  1  0.35283543  0.64716457  0.84637636  1
  Ru  Ru3  1  0.64716251  0.35283749  0.15363614  1
  O  O0  1  0.82160242  0.68150055  0.41739283  1
  O  O1  1  0.68150433  0.82160236  0.58260182  1
  O  O2  1  0.17839478  0.31848800  0.91739090  1
  O  O3  1  0.31849181  0.17839435  0.08261412  1
  O  O4  1  0.17839764  0.31849567  0.58260182  1
  O  O5  1  0.31849945  0.17839758  0.41739283  1
  O  O6  1  0.82160565  0.68150819  0.08261412  1
  O  O7  1  0.68151200  0.82160522  0.91739090  1
  O  O8  1  0.19535151  0.80464849  0.58611887  1
  O  O9  1  0.80464495  0.19535505  0.41387401  1
  O  O10  1  0.80464836  0.19535164  0.08613119  1
  O  O11  1  0.19534643  0.80465357  0.91387642  1
  O  O12  1  0.50288833  0.49711167  0.74999246  1
  O  O13  1  0.49711696  0.50288304  0.25000752  1
  O  O14  1  0.50957494  0.94854303  0.74999251  1
  O  O15  1  0.94853018  0.50956904  0.25000765  1
  O  O16  1  0.49043196  0.05146982  0.25000765  1
  O  O17  1  0.05145697  0.49042506  0.74999251  1
loop_
_geom_bond_atom_site_label_1
_geom_bond_atom_site_label_2
_geom_bond_distance
_geom_bond_site_symmetry_2
Ba0 O9 2.827806 1_555
Ba0 O8 2.843691 1_545
Ba0 O8 2.843691 1_655
Ba0 O12 2.895903 1_555
Ba0 O1 2.920899 1_555
Ba0 O4 2.920899 1_555
Ba0 O14 2.939369 1_545
Ba0 O17 2.939369 1_655
Ba0 O4 2.953222 1_655
Ba0 O1 2.953222 1_545
Ba0 O0 3.050614 1_555
Ba0 O5 3.050614 1_555
Ba1 O8 2.827911 1_555
Ba1 O9 2.843695 1_455
Ba1 O9 2.843695 1_565
Ba1 O13 2.895781 1_555
Ba1 O5 2.920923 1_555
Ba1 O0 2.920923 1_555
Ba1 O16 2.939246 1_565
Ba1 O15 2.939247 1_455
Ba1 O5 2.953207 1_565
Ba1 O0 2.953207 1_455
Ba1 O4 3.050733 1_555
Ba1 O1 3.050733 1_555
Ba2 O11 2.828136 1_554
Ba2 O10 2.843696 1_565
Ba2 O10 2.843696 1_455
Ba2 O13 2.895776 1_555
Ba2 O6 2.920919 1_555
Ba2 O3 2.920919 1_555
Ba2 O16 2.939291 1_565
Ba2 O15 2.939291 1_455
Ba2 O6 2.953218 1_455
Ba2 O3 2.953218 1_565
Ba2 O7 3.051001 1_554
Ba2 O2 3.051001 1_554
Ba3 O10 2.828051 1_556
Ba3 O11 2.843691 1_545
Ba3 O11 2.843691 1_655
Ba3 O12 2.895880 1_555
Ba3 O7 2.920896 1_555
Ba3 O2 2.920896 1_555
Ba3 O17 2.939390 1_655
Ba3 O14 2.939390 1_545
Ba3 O7 2.953234 1_545
Ba3 O2 2.953234 1_655
Ba3 O3 3.050900 1_556
Ba3 O6 3.050900 1_556
Ba4 O13 2.842406 1_545
Ba4 O13 2.842406 1_655
Ba4 O15 2.897667 1_545
Ba4 O16 2.897673 1_655
Ba4 O0 2.915637 1_545
Ba4 O5 2.915637 1_655
Ba4 O3 2.915847 1_655
Ba4 O6 2.915847 1_545
Ba4 O9 2.949060 1_555
Ba4 O10 2.949242 1_555
Ba4 O16 2.980854 1_555
Ba4 O15 2.980859 1_555
Ba5 O12 2.842403 1_565
Ba5 O12 2.842403 1_455
Ba5 O14 2.897681 1_455
Ba5 O17 2.897681 1_565
Ba5 O1 2.915700 1_455
Ba5 O4 2.915700 1_565
Ba5 O2 2.915890 1_565
Ba5 O7 2.915890 1_455
Ba5 O8 2.949116 1_555
Ba5 O11 2.949278 1_555
Ba5 O17 2.980838 1_555
Ba5 O14 2.980838 1_555
Cu0 O4 1.971280 1_565
Cu0 O1 1.971280 1_455
Cu0 O0 1.971299 1_455
Cu0 O5 1.971299 1_565
Cu0 O8 2.351750 1_555
Cu0 O9 2.351863 1_465
Cu1 O2 1.971296 1_564
Cu1 O7 1.971296 1_454
Cu1 O3 1.971326 1_565
Cu1 O6 1.971326 1_455
Cu1 O11 2.351754 1_554
Cu1 O10 2.351898 1_465
O0 Ru0 1.919687 1_555
O1 Ru1 1.919667 1_555
O2 Ru2 1.919847 1_555
O3 Ru3 1.919878 1_555
O4 Ru1 1.919667 1_555
O5 Ru0 1.919687 1_555
O6 Ru3 1.919878 1_555
O7 Ru2 1.919847 1_555
O8 Ru1 1.881567 1_555
O9 Ru0 1.881571 1_555
O10 Ru3 1.881846 1_555
O11 Ru2 1.881838 1_555
O12 Ru2 2.063285 1_555
O12 Ru1 2.063429 1_555
O13 Ru3 2.063110 1_555
O13 Ru0 2.063280 1_555
O14 Ru2 2.029970 1_555
O14 Ru1 2.030110 1_555
O15 Ru3 2.029812 1_555
O15 Ru0 2.029962 1_555
O16 Ru3 2.029812 1_555
O16 Ru0 2.029962 1_555
O17 Ru2 2.029970 1_555
O17 Ru1 2.030110 1_555
