# generated using pymatgen
data_Na10Hf8Si9(SO16)3
_symmetry_space_group_name_H-M   'P 1'
_cell_length_a   18.17079378
_cell_length_b   9.10796482
_cell_length_c   22.98516684
_cell_angle_alpha   90.03494051
_cell_angle_beta   89.85838156
_cell_angle_gamma   119.97857449
_symmetry_Int_Tables_number   1
_chemical_formula_structural   Na10Hf8Si9(SO16)3
_chemical_formula_sum   'Na30 Hf24 Si27 S9 O144'
_cell_volume   3295.07890627
_cell_formula_units_Z   3
loop_
 _symmetry_equiv_pos_site_id
 _symmetry_equiv_pos_as_xyz
  1  'x, y, z'
loop_
 _atom_site_type_symbol
 _atom_site_label
 _atom_site_symmetry_multiplicity
 _atom_site_fract_x
 _atom_site_fract_y
 _atom_site_fract_z
 _atom_site_occupancy
  Na  Na0  1  0.32228036  0.99943265  0.24922083  1
  Na  Na1  1  0.82236455  0.00004783  0.24951101  1
  Na  Na2  1  0.18355584  0.98871053  0.74724384  1
  Na  Na3  1  0.68338084  0.99477069  0.74650332  1
  Na  Na4  1  0.01791860  0.70603714  0.58025294  1
  Na  Na5  1  0.51773209  0.70621386  0.57997346  1
  Na  Na6  1  0.01834841  0.33078444  0.08001362  1
  Na  Na7  1  0.51589918  0.32570579  0.08055579  1
  Na  Na8  1  0.48446992  0.66503760  0.91360215  1
  Na  Na9  1  0.34849330  0.03001160  0.91591726  1
  Na  Na10  1  0.85183143  0.04321641  0.91341361  1
  Na  Na11  1  0.16472782  0.30635631  0.92019788  1
  Na  Na12  1  0.48538020  0.30618746  0.41410642  1
  Na  Na13  1  0.98554030  0.30652399  0.41412286  1
  Na  Na14  1  0.16564073  0.02752511  0.41933964  1
  Na  Na15  1  0.66562878  0.02769427  0.41931648  1
  Na  Na16  1  0.34907621  0.66681759  0.41616869  1
  Na  Na17  1  0.84921254  0.66675634  0.41616448  1
  Na  Na18  1  0.00219165  0.00190458  0.50117870  1
  Na  Na19  1  0.50211825  0.00171578  0.50112395  1
  Na  Na20  1  0.00733559  0.00172572  0.00178645  1
  Na  Na21  1  0.50673590  0.01198628  0.99863775  1
  Na  Na22  1  0.34318210  0.34253206  0.83187563  1
  Na  Na23  1  0.84610124  0.34660858  0.83214667  1
  Na  Na24  1  0.34030408  0.35235399  0.33124604  1
  Na  Na25  1  0.84026660  0.35222753  0.33118973  1
  Na  Na26  1  0.17326978  0.65909172  0.16583396  1
  Na  Na27  1  0.67331479  0.65765325  0.16798685  1
  Na  Na28  1  0.17752834  0.67765543  0.66703502  1
  Na  Na29  1  0.67821924  0.67636330  0.66480464  1
  Hf  Hf0  1  0.99513121  0.99606485  0.35197842  1
  Hf  Hf1  1  0.49510236  0.99597422  0.35194023  1
  Hf  Hf2  1  0.99731656  0.99489311  0.85132565  1
  Hf  Hf3  1  0.49596090  0.99782737  0.85393146  1
  Hf  Hf4  1  0.99403180  0.98202019  0.64721868  1
  Hf  Hf5  1  0.49424657  0.98415389  0.64717643  1
  Hf  Hf6  1  0.99613002  0.00804256  0.14698259  1
  Hf  Hf7  1  0.49596439  0.00875980  0.14691481  1
  Hf  Hf8  1  0.33301672  0.33265759  0.68632285  1
  Hf  Hf9  1  0.83334943  0.33393436  0.68645194  1
  Hf  Hf10  1  0.33023288  0.33678448  0.18609651  1
  Hf  Hf11  1  0.83074887  0.33831565  0.18607795  1
  Hf  Hf12  1  0.32724589  0.31955135  0.97966950  1
  Hf  Hf13  1  0.82868070  0.31921648  0.98127020  1
  Hf  Hf14  1  0.32841004  0.33373136  0.48099884  1
  Hf  Hf15  1  0.82850894  0.33369116  0.48099755  1
  Hf  Hf16  1  0.17321819  0.67257622  0.01831673  1
  Hf  Hf17  1  0.66768369  0.66757639  0.02060806  1
  Hf  Hf18  1  0.17398477  0.67643102  0.51892384  1
  Hf  Hf19  1  0.67390741  0.67642572  0.51873807  1
  Hf  Hf20  1  0.16545167  0.65277164  0.31419963  1
  Hf  Hf21  1  0.66550089  0.65305806  0.31440134  1
  Hf  Hf22  1  0.16618955  0.67044575  0.81582368  1
  Hf  Hf23  1  0.66248370  0.67277193  0.81234507  1
  Si  Si0  1  0.35317588  0.70457097  0.25021370  1
  Si  Si1  1  0.85305725  0.70453354  0.25023274  1
  Si  Si2  1  0.00011567  0.29801347  0.24970952  1
  Si  Si3  1  0.50016551  0.29842532  0.24980791  1
  Si  Si4  1  0.99887412  0.70192835  0.74991937  1
  Si  Si5  1  0.49709072  0.70412311  0.75061223  1
  Si  Si6  1  0.35262946  0.99952574  0.75069975  1
  Si  Si7  1  0.85308627  0.00010512  0.75110637  1
  Si  Si8  1  0.18520955  0.03920302  0.58455376  1
  Si  Si9  1  0.68542678  0.03931170  0.58473583  1
  Si  Si10  1  0.33042414  0.62216068  0.58372109  1
  Si  Si11  1  0.83033656  0.62197644  0.58354486  1
  Si  Si12  1  0.32977099  0.03753364  0.08477292  1
  Si  Si13  1  0.83057785  0.03843175  0.08494143  1
  Si  Si14  1  0.18550527  0.33278038  0.08293503  1
  Si  Si15  1  0.68640064  0.33220200  0.08322391  1
  Si  Si16  1  0.31242513  0.66420160  0.91527196  1
  Si  Si17  1  0.02002707  0.37774375  0.91768971  1
  Si  Si18  1  0.52257058  0.37555973  0.91831723  1
  Si  Si19  1  0.16243181  0.95257229  0.91711441  1
  Si  Si20  1  0.66610461  0.95872577  0.91661380  1
  Si  Si21  1  0.31207247  0.96021454  0.41391678  1
  Si  Si22  1  0.81214739  0.96030820  0.41393598  1
  Si  Si23  1  0.16514108  0.37455868  0.41800510  1
  Si  Si24  1  0.66516660  0.37448387  0.41801965  1
  Si  Si25  1  0.02216828  0.66643891  0.41802466  1
  Si  Si26  1  0.52209926  0.66644295  0.41803580  1
  S  S0  1  0.14474502  0.99920065  0.24947586  1
  S  S1  1  0.64485313  -0.00052038  0.24937161  1
  S  S2  1  0.14380383  0.29079641  0.74898916  1
  S  S3  1  0.64438659  0.29075045  0.74955924  1
  S  S4  1  0.47875942  0.33138329  0.58309746  1
  S  S5  1  0.97872813  0.33089595  0.58317731  1
  S  S6  1  0.47849463  0.62543086  0.08301913  1
  S  S7  1  0.97757065  0.62386974  0.08313440  1
  S  S8  1  0.81095773  0.66403106  0.91601099  1
  O  O0  1  0.10657537  0.02300445  0.30347931  1
  O  O1  1  0.60663858  0.02291924  0.30343839  1
  O  O2  1  0.40936152  0.79165442  0.30954408  1
  O  O3  1  0.90926256  0.79178555  0.30950697  1
  O  O4  1  0.48621798  0.17660878  0.30701790  1
  O  O5  1  0.98597107  0.17619798  0.30697797  1
  O  O6  1  0.10501575  0.18539130  0.80292555  1
  O  O7  1  0.60518501  0.18312192  0.80153600  1
  O  O8  1  0.48944905  0.79977556  0.80829774  1
  O  O9  1  0.98874789  0.80510146  0.80533420  1
  O  O10  1  0.41025825  0.02847601  0.80905079  1
  O  O11  1  0.90884309  0.02584662  0.81048228  1
  O  O12  1  0.40435447  0.98462466  0.69483554  1
  O  O13  1  0.90409333  0.98389035  0.69543062  1
  O  O14  1  0.09198243  0.20604821  0.69794182  1
  O  O15  1  0.59333990  0.21385336  0.69720797  1
  O  O16  1  0.01635664  0.82501467  0.69234493  1
  O  O17  1  0.51722688  0.82822982  0.69333593  1
  O  O18  1  0.40424316  0.83063480  0.19566134  1
  O  O19  1  0.90373275  0.83038763  0.19559250  1
  O  O20  1  0.01260588  0.20439002  0.19218550  1
  O  O21  1  0.51297521  0.20561223  0.19214526  1
  O  O22  1  0.09268481  0.97931495  0.19836943  1
  O  O23  1  0.59288790  0.97940535  0.19829518  1
  O  O24  1  0.43587959  0.35618549  0.63434629  1
  O  O25  1  0.93566200  0.35613207  0.63436276  1
  O  O26  1  0.24362487  0.13003740  0.64200295  1
  O  O27  1  0.74351213  0.12946529  0.64233782  1
  O  O28  1  0.32378853  0.50433850  0.63890428  1
  O  O29  1  0.82358827  0.50398398  0.63870926  1
  O  O30  1  0.43751160  0.51437781  0.13423898  1
  O  O31  1  0.93618589  0.51454085  0.13516981  1
  O  O32  1  0.32335669  0.13624801  0.14236955  1
  O  O33  1  0.82122966  0.13246642  0.14248653  1
  O  O34  1  0.24749754  0.35953795  0.13807876  1
  O  O35  1  0.74662057  0.36063797  0.13948983  1
  O  O36  1  0.23104189  0.31260529  0.02391063  1
  O  O37  1  0.73559398  0.31529518  0.02631115  1
  O  O38  1  0.42862952  0.54972021  0.02955898  1
  O  O39  1  0.92525833  0.54541546  0.03071004  1
  O  O40  1  0.35028304  0.16181708  0.02731545  1
  O  O41  1  0.84975315  0.16154853  0.02728825  1
  O  O42  1  0.23236291  0.15146955  0.52593120  1
  O  O43  1  0.73250054  0.15141239  0.52607172  1
  O  O44  1  0.35057150  0.54190434  0.52533342  1
  O  O45  1  0.85029540  0.54167897  0.52518940  1
  O  O46  1  0.42816856  0.30681351  0.52957884  1
  O  O47  1  0.92794641  0.30662956  0.52957756  1
  O  O48  1  0.27018983  0.70345354  0.97176266  1
  O  O49  1  0.77155061  0.69393306  0.96836284  1
  O  O50  1  0.07868536  0.45745514  0.97596006  1
  O  O51  1  0.57787002  0.46390836  0.97703860  1
  O  O52  1  0.14989415  0.83540105  0.97315273  1
  O  O53  1  0.65265859  0.83258304  0.97124684  1
  O  O54  1  0.26892742  0.83428622  0.46984804  1
  O  O55  1  0.76890329  0.83431255  0.46984776  1
  O  O56  1  0.14543747  0.46094481  0.47323284  1
  O  O57  1  0.64552636  0.46108196  0.47324175  1
  O  O58  1  0.07907647  0.69942206  0.47674913  1
  O  O59  1  0.57909474  0.69949750  0.47675445  1
  O  O60  1  0.06788994  0.63320375  0.36256737  1
  O  O61  1  0.56788390  0.63317502  0.36261065  1
  O  O62  1  0.25279349  0.88002798  0.35656092  1
  O  O63  1  0.75284012  0.88001134  0.35656496  1
  O  O64  1  0.18645908  0.49826343  0.36135186  1
  O  O65  1  0.68645168  0.49831468  0.36138426  1
  O  O66  1  0.06759072  0.49200156  0.86079606  1
  O  O67  1  0.57068203  0.50094572  0.86293852  1
  O  O68  1  0.18308787  0.87568567  0.85867591  1
  O  O69  1  0.68542972  0.87479963  0.85868798  1
  O  O70  1  0.25035248  0.62605797  0.85993230  1
  O  O71  1  0.75981595  0.63990244  0.86394953  1
  O  O72  1  0.01308159  0.83632323  0.40988930  1
  O  O73  1  0.51317706  0.83646727  0.40993726  1
  O  O74  1  0.40711385  0.97895739  0.41009750  1
  O  O75  1  0.90708752  0.97892683  0.41012897  1
  O  O76  1  0.08378338  0.18394659  0.40912565  1
  O  O77  1  0.58378851  0.18394997  0.40916666  1
  O  O78  1  0.00829675  0.18432692  0.91033475  1
  O  O79  1  0.50764559  0.18449221  0.91120177  1
  O  O80  1  0.08386153  0.99163900  0.90971324  1
  O  O81  1  0.58064376  0.97087521  0.90969645  1
  O  O82  1  0.40668728  0.83451476  0.91015490  1
  O  O83  1  0.89589311  0.82407539  0.91113558  1
  O  O84  1  0.48972951  0.18343707  0.59012023  1
  O  O85  1  0.98948409  0.18343766  0.59026228  1
  O  O86  1  0.09081659  0.02262943  0.58928419  1
  O  O87  1  0.59098556  0.02265995  0.58934739  1
  O  O88  1  0.41818748  0.80972174  0.58942729  1
  O  O89  1  0.91775636  0.80948875  0.58907912  1
  O  O90  1  0.49053984  0.79578210  0.09081135  1
  O  O91  1  0.98826590  0.79417755  0.09058760  1
  O  O92  1  0.41810196  0.02557394  0.08930067  1
  O  O93  1  0.91862403  0.02648148  0.08874149  1
  O  O94  1  0.09166139  0.16009616  0.08911908  1
  O  O95  1  0.59197194  0.16169463  0.08900142  1
  O  O96  1  0.33689398  0.16285259  0.74461677  1
  O  O97  1  0.83599326  0.16102744  0.74509367  1
  O  O98  1  0.22872221  0.30016141  0.74468153  1
  O  O99  1  0.72958678  0.30271974  0.74415853  1
  O  O100  1  0.41465237  0.51641915  0.74338004  1
  O  O101  1  0.91429991  0.51606169  0.74347741  1
  O  O102  1  0.34211397  0.51649936  0.24404245  1
  O  O103  1  0.84193943  0.51631676  0.24430812  1
  O  O104  1  0.41043611  0.30015246  0.24405633  1
  O  O105  1  0.91031586  0.29946877  0.24377421  1
  O  O106  1  0.23161472  0.15274170  0.24464338  1
  O  O107  1  0.73173953  0.15267965  0.24467048  1
  O  O108  1  0.32583228  0.50060814  0.92366510  1
  O  O109  1  0.82388080  0.51866459  0.92354965  1
  O  O110  1  0.42876649  0.36256225  0.92342184  1
  O  O111  1  0.92431774  0.35323415  0.92325425  1
  O  O112  1  0.24986441  0.14248100  0.92276396  1
  O  O113  1  0.75308890  0.14397313  0.92299762  1
  O  O114  1  0.32558463  0.15014396  0.42375606  1
  O  O115  1  0.82548184  0.15005143  0.42371492  1
  O  O116  1  0.25061227  0.35597916  0.42376218  1
  O  O117  1  0.75058425  0.35587958  0.42379545  1
  O  O118  1  0.42765519  0.49651060  0.42389681  1
  O  O119  1  0.92762788  0.49647081  0.42389903  1
  O  O120  1  0.16819934  0.49330195  0.07898213  1
  O  O121  1  0.66992060  0.49439416  0.07766514  1
  O  O122  1  0.06090579  0.63304095  0.07824193  1
  O  O123  1  0.56320598  0.63526473  0.07827262  1
  O  O124  1  0.24553048  0.85185617  0.07942649  1
  O  O125  1  0.74787850  0.85097334  0.07646550  1
  O  O126  1  0.16907389  0.84450012  0.57905064  1
  O  O127  1  0.66906246  0.84420159  0.57926102  1
  O  O128  1  0.24598568  0.63921954  0.57890108  1
  O  O129  1  0.74583386  0.63913034  0.57895819  1
  O  O130  1  0.06196600  0.48987547  0.57868462  1
  O  O131  1  0.56209536  0.48992904  0.57874942  1
  O  O132  1  0.15638909  0.85009786  0.25428917  1
  O  O133  1  0.65652144  0.85000432  0.25419353  1
  O  O134  1  0.26300136  0.70562637  0.25465034  1
  O  O135  1  0.76282125  0.70569874  0.25455749  1
  O  O136  1  0.08353296  0.48567412  0.25462329  1
  O  O137  1  0.58367887  0.48629587  0.25455019  1
  O  O138  1  0.15449934  0.45958092  0.75471921  1
  O  O139  1  0.65676179  0.46270050  0.75727769  1
  O  O140  1  0.08612872  0.69229212  0.75533100  1
  O  O141  1  0.58564161  0.69345664  0.75546237  1
  O  O142  1  0.25795581  0.83021221  0.75458788  1
  O  O143  1  0.75886321  0.82778402  0.75593811  1
loop_
_geom_bond_atom_site_label_1
_geom_bond_atom_site_label_2
_geom_bond_distance
_geom_bond_site_symmetry_2
Na0 O134 2.335779 1_555
Na0 O104 2.386789 1_565
Na0 O132 2.617471 1_555
Na0 O106 2.641008 1_565
Na0 O62 2.734922 1_555
Na0 O32 2.750313 1_565
Na0 O18 2.893804 1_555
Na0 O4 2.907857 1_565
Na1 O135 2.339321 1_545
Na1 O105 2.377500 1_555
Na1 O133 2.615982 1_545
Na1 O107 2.635430 1_555
Na1 O63 2.730146 1_545
Na1 O33 2.745035 1_555
Na1 O19 2.895103 1_545
Na1 O5 2.899482 1_555
Na2 O140 2.383269 1_555
Na2 O96 2.421884 1_565
Na2 O142 2.427321 1_555
Na2 O98 2.529266 1_565
Na2 O26 2.699333 1_565
Na2 O68 2.759408 1_555
Na2 O16 2.921542 1_555
Na3 O97 2.405663 1_565
Na3 O141 2.419946 1_555
Na3 O99 2.494246 1_565
Na3 O143 2.515546 1_555
Na3 O27 2.661286 1_565
Na3 O69 2.808740 1_555
Na3 O17 2.889443 1_555
Na3 O7 2.997715 1_565
Na4 O126 2.381841 1_555
Na4 O89 2.439914 1_455
Na4 O130 2.468314 1_555
Na4 O86 2.509162 1_565
Na4 O58 2.636692 1_555
Na4 O16 2.800030 1_555
Na4 O45 2.929183 1_455
Na4 O25 3.028646 1_455
Na5 O127 2.384802 1_555
Na5 O88 2.430989 1_555
Na5 O131 2.473449 1_555
Na5 O87 2.508365 1_565
Na5 O59 2.632618 1_555
Na5 O17 2.833919 1_555
Na5 O44 2.918364 1_555
Na6 O120 2.361711 1_555
Na6 O93 2.446495 1_455
Na6 O122 2.459847 1_555
Na6 O94 2.511319 1_555
Na6 O50 2.641889 1_554
Na6 O20 2.804632 1_555
Na6 O41 2.920060 1_455
Na6 O31 3.020330 1_455
Na7 O92 2.411463 1_555
Na7 O121 2.428929 1_555
Na7 O95 2.499028 1_555
Na7 O123 2.503777 1_555
Na7 O51 2.662274 1_554
Na7 O21 2.778963 1_555
Na7 O40 2.882504 1_555
Na7 O30 2.989836 1_555
Na8 O110 2.424472 1_555
Na8 O81 2.440514 1_555
Na8 O108 2.507690 1_555
Na8 O82 2.562720 1_555
Na8 O8 2.695234 1_555
Na8 O38 2.856829 1_556
Na8 O67 2.893512 1_555
Na8 O53 2.963282 1_555
Na9 O112 2.473663 1_555
Na9 O82 2.487328 1_545
Na9 O79 2.507380 1_555
Na9 O110 2.629987 1_555
Na9 O10 2.701006 1_555
Na9 O40 2.820647 1_556
Na9 O48 2.878355 1_545
Na9 O68 2.921564 1_545
Na10 O113 2.398587 1_555
Na10 O111 2.458230 1_555
Na10 O78 2.467283 1_655
Na10 O83 2.494821 1_545
Na10 O11 2.616654 1_555
Na10 O41 2.837371 1_556
Na10 O69 2.908444 1_545
Na11 O78 2.492399 1_555
Na11 O80 2.495066 1_545
Na11 O108 2.555636 1_555
Na11 O112 2.632968 1_555
Na11 O36 2.661480 1_556
Na11 O50 2.849437 1_555
Na11 O70 2.878382 1_555
Na11 O6 2.910868 1_555
Na12 O118 2.443592 1_555
Na12 O114 2.524525 1_555
Na12 O77 2.537377 1_555
Na12 O74 2.584234 1_545
Na12 O4 2.732407 1_555
Na12 O61 2.837559 1_555
Na12 O46 2.849132 1_555
Na12 O57 2.867115 1_555
Na13 O119 2.443066 1_555
Na13 O115 2.528517 1_555
Na13 O76 2.537110 1_655
Na13 O75 2.587071 1_545
Na13 O5 2.734917 1_555
Na13 O60 2.835921 1_655
Na13 O47 2.850414 1_555
Na13 O56 2.863420 1_655
Na14 O72 2.437750 1_545
Na14 O76 2.533196 1_555
Na14 O114 2.542012 1_555
Na14 O116 2.593853 1_555
Na14 O42 2.718537 1_555
Na14 O0 2.866245 1_555
Na14 O58 2.905639 1_545
Na14 O62 2.916714 1_545
Na15 O73 2.436111 1_545
Na15 O77 2.531495 1_555
Na15 O115 2.540784 1_555
Na15 O117 2.591805 1_555
Na15 O43 2.722193 1_555
Na15 O1 2.865720 1_555
Na15 O59 2.906568 1_545
Na15 O63 2.918466 1_545
Na16 O116 2.486717 1_555
Na16 O74 2.493509 1_555
Na16 O118 2.586756 1_555
Na16 O73 2.587110 1_555
Na16 O2 2.691565 1_555
Na16 O44 2.761477 1_555
Na16 O64 2.856283 1_555
Na16 O54 2.859834 1_555
Na17 O117 2.487499 1_555
Na17 O75 2.494160 1_555
Na17 O72 2.583551 1_655
Na17 O119 2.584063 1_555
Na17 O3 2.691816 1_555
Na17 O45 2.757554 1_555
Na17 O65 2.857893 1_555
Na17 O55 2.862760 1_555
Na18 O86 2.538101 1_555
Na18 O89 2.609449 1_445
Na18 O76 2.637454 1_555
Na18 O72 2.647402 1_545
Na18 O75 2.658174 1_445
Na18 O85 2.711969 1_455
Na19 O87 2.542422 1_555
Na19 O88 2.612887 1_545
Na19 O77 2.636652 1_555
Na19 O73 2.644792 1_545
Na19 O74 2.657135 1_545
Na19 O84 2.709329 1_555
Na20 O94 2.502167 1_555
Na20 O80 2.556113 1_544
Na20 O93 2.643994 1_455
Na20 O78 2.675796 1_554
Na20 O91 2.684436 1_445
Na20 O83 2.793295 1_444
Na21 O95 2.544411 1_556
Na21 O79 2.546689 1_555
Na21 O81 2.571200 1_545
Na21 O82 2.670520 1_545
Na21 O92 2.670976 1_556
Na21 O90 2.806370 1_546
Na22 O100 2.503550 1_555
Na22 O96 2.554245 1_555
Na22 O110 2.571301 1_555
Na22 O108 2.658970 1_555
Na22 O112 2.731110 1_555
Na22 O98 2.776484 1_555
Na23 O101 2.480210 1_555
Na23 O111 2.517501 1_555
Na23 O97 2.565519 1_555
Na23 O113 2.737406 1_555
Na23 O109 2.767076 1_555
Na23 O99 2.811898 1_555
Na24 O102 2.491579 1_555
Na24 O104 2.541268 1_555
Na24 O118 2.590182 1_555
Na24 O116 2.686224 1_555
Na24 O114 2.737620 1_555
Na24 O106 2.755900 1_555
Na25 O103 2.486044 1_555
Na25 O105 2.546684 1_555
Na25 O119 2.591514 1_555
Na25 O117 2.687824 1_555
Na25 O115 2.737413 1_555
Na25 O107 2.753190 1_555
Na26 O120 2.476296 1_555
Na26 O134 2.516046 1_555
Na26 O124 2.537447 1_555
Na26 O136 2.594661 1_555
Na26 O132 2.789296 1_555
Na26 O122 2.795365 1_555
Na27 O135 2.469784 1_555
Na27 O121 2.535762 1_555
Na27 O137 2.548503 1_555
Na27 O125 2.639619 1_555
Na27 O133 2.759644 1_555
Na27 O123 2.812302 1_555
Na28 O142 2.469428 1_555
Na28 O128 2.489079 1_555
Na28 O126 2.580941 1_555
Na28 O140 2.664427 1_555
Na28 O138 2.711502 1_555
Na28 O130 2.808246 1_555
Na29 O129 2.433425 1_555
Na29 O143 2.535582 1_555
Na29 O127 2.547557 1_555
Na29 O141 2.727676 1_555
Na29 O131 2.772011 1_555
Na29 O139 2.774804 1_555
Hf0 O3 1.988315 1_555
Hf0 O5 2.016213 1_565
Hf0 O75 2.027419 1_555
Hf0 O72 2.115123 1_655
Hf0 O76 2.121680 1_665
Hf0 O0 2.212750 1_665
Hf1 O2 1.986926 1_555
Hf1 O4 2.016746 1_565
Hf1 O74 2.027119 1_555
Hf1 O73 2.115865 1_555
Hf1 O77 2.123396 1_565
Hf1 O1 2.214200 1_565
Hf2 O9 1.964554 1_555
Hf2 O11 2.001503 1_565
Hf2 O80 2.081364 1_655
Hf2 O78 2.123857 1_665
Hf2 O6 2.162435 1_665
Hf2 O83 2.198082 1_555
Hf3 O10 2.002488 1_565
Hf3 O82 2.023522 1_555
Hf3 O8 2.037907 1_555
Hf3 O79 2.075158 1_565
Hf3 O81 2.111534 1_555
Hf3 O7 2.209280 1_565
Hf4 O16 1.966958 1_655
Hf4 O13 1.979377 1_555
Hf4 O89 2.001540 1_555
Hf4 O86 2.083722 1_665
Hf4 O14 2.251345 1_665
Hf4 O85 2.289339 1_565
Hf5 O12 1.966269 1_555
Hf5 O17 1.978266 1_555
Hf5 O88 2.002062 1_555
Hf5 O87 2.086306 1_565
Hf5 O84 2.274512 1_565
Hf5 O15 2.276885 1_565
Hf6 O20 1.957417 1_655
Hf6 O19 1.990831 1_545
Hf6 O93 2.012379 1_555
Hf6 O94 2.070871 1_655
Hf6 O22 2.238552 1_645
Hf6 O91 2.283543 1_545
Hf7 O21 1.958681 1_555
Hf7 O18 1.988969 1_545
Hf7 O92 2.001226 1_555
Hf7 O95 2.077967 1_555
Hf7 O23 2.247039 1_545
Hf7 O90 2.289530 1_545
Hf8 O28 1.981441 1_555
Hf8 O26 2.022893 1_555
Hf8 O100 2.060934 1_555
Hf8 O96 2.074626 1_555
Hf8 O24 2.134418 1_555
Hf8 O98 2.214892 1_555
Hf9 O29 1.977891 1_555
Hf9 O27 2.031963 1_555
Hf9 O101 2.049828 1_555
Hf9 O97 2.092300 1_555
Hf9 O25 2.131731 1_555
Hf9 O99 2.201700 1_555
Hf10 O34 1.959857 1_555
Hf10 O32 2.032763 1_555
Hf10 O102 2.036028 1_555
Hf10 O104 2.122750 1_555
Hf10 O30 2.162604 1_555
Hf10 O106 2.195655 1_555
Hf11 O35 1.960570 1_555
Hf11 O103 2.032332 1_555
Hf11 O33 2.055101 1_555
Hf11 O105 2.120252 1_555
Hf11 O31 2.129342 1_555
Hf11 O107 2.204559 1_555
Hf12 O36 1.993665 1_556
Hf12 O112 2.007282 1_555
Hf12 O40 2.010893 1_556
Hf12 O108 2.102904 1_555
Hf12 O110 2.120036 1_555
Hf12 O38 2.291625 1_556
Hf13 O37 1.965991 1_556
Hf13 O41 1.970017 1_556
Hf13 O113 2.010920 1_555
Hf13 O111 2.084504 1_555
Hf13 O39 2.238165 1_556
Hf13 O109 2.286819 1_555
Hf14 O42 1.991514 1_555
Hf14 O44 2.008031 1_555
Hf14 O116 2.016440 1_555
Hf14 O114 2.107510 1_555
Hf14 O118 2.119340 1_555
Hf14 O46 2.246611 1_555
Hf15 O43 1.992940 1_555
Hf15 O45 2.006795 1_555
Hf15 O117 2.017414 1_555
Hf15 O115 2.107099 1_555
Hf15 O119 2.118146 1_555
Hf15 O47 2.242252 1_555
Hf16 O48 1.955698 1_554
Hf16 O52 2.022063 1_554
Hf16 O124 2.056191 1_555
Hf16 O50 2.092825 1_554
Hf16 O120 2.114741 1_555
Hf16 O122 2.333254 1_555
Hf17 O53 2.008505 1_554
Hf17 O51 2.021819 1_554
Hf17 O125 2.033741 1_555
Hf17 O121 2.067958 1_555
Hf17 O49 2.144329 1_554
Hf17 O123 2.208429 1_555
Hf18 O54 1.956878 1_555
Hf18 O128 2.044423 1_555
Hf18 O56 2.051037 1_555
Hf18 O58 2.080163 1_555
Hf18 O126 2.096312 1_555
Hf18 O130 2.334468 1_555
Hf19 O55 1.955013 1_555
Hf19 O129 2.047594 1_555
Hf19 O57 2.048350 1_555
Hf19 O59 2.076959 1_555
Hf19 O127 2.099837 1_555
Hf19 O131 2.335796 1_555
Hf20 O64 1.959960 1_555
Hf20 O60 2.021191 1_555
Hf20 O136 2.037330 1_555
Hf20 O134 2.093617 1_555
Hf20 O62 2.115046 1_555
Hf20 O132 2.335245 1_555
Hf21 O65 1.958985 1_555
Hf21 O61 2.019030 1_555
Hf21 O137 2.039798 1_555
Hf21 O135 2.095376 1_555
Hf21 O63 2.111274 1_555
Hf21 O133 2.335818 1_555
Hf22 O68 1.996103 1_555
Hf22 O66 2.000709 1_555
Hf22 O70 2.038661 1_555
Hf22 O140 2.094962 1_555
Hf22 O142 2.108330 1_555
Hf22 O138 2.301462 1_555
Hf23 O69 1.981770 1_555
Hf23 O141 1.991670 1_555
Hf23 O67 1.991948 1_555
Hf23 O143 2.064306 1_555
Hf23 O139 2.252241 1_555
Hf23 O71 2.272541 1_555
O0 S0 1.488122 1_545
O1 S1 1.488522 1_555
O2 Si0 1.651503 1_555
O3 Si1 1.650835 1_555
O4 Si3 1.656358 1_555
O5 Si2 1.656766 1_655
O6 S2 1.508738 1_555
O7 S3 1.481567 1_555
O8 Si5 1.629381 1_555
O9 Si4 1.646032 1_555
O10 Si6 1.641794 1_545
O11 Si7 1.647143 1_555
O12 Si6 1.634589 1_555
O13 Si7 1.627640 1_565
O14 S2 1.461911 1_555
O15 S3 1.467685 1_555
O16 Si4 1.659160 1_455
O17 Si5 1.652540 1_555
O18 Si0 1.637955 1_555
O19 Si1 1.637188 1_555
O20 Si2 1.648453 1_555
O21 Si3 1.648989 1_555
O22 S0 1.463414 1_555
O23 S1 1.461506 1_565
O24 S4 1.488876 1_555
O25 S5 1.491391 1_555
O26 Si8 1.637928 1_555
O27 Si9 1.637274 1_555
O28 Si10 1.626821 1_555
O29 Si11 1.626925 1_555
O30 S6 1.485946 1_555
O31 S7 1.495407 1_555
O32 Si12 1.636178 1_555
O33 Si13 1.629348 1_555
O34 Si14 1.633138 1_555
O35 Si15 1.631071 1_555
O36 Si14 1.644721 1_555
O37 Si15 1.632643 1_555
O38 S6 1.478680 1_555
O39 S7 1.480526 1_555
O40 Si12 1.655958 1_555
O41 Si13 1.656490 1_555
O42 Si8 1.647947 1_555
O43 Si9 1.647881 1_555
O44 Si10 1.653254 1_555
O45 Si11 1.651354 1_555
O46 S4 1.485950 1_555
O47 S5 1.489834 1_555
O48 Si16 1.634458 1_555
O49 S8 1.491681 1_555
O50 Si17 1.639992 1_555
O51 Si18 1.635934 1_555
O52 Si19 1.614661 1_555
O53 Si20 1.635940 1_555
O54 Si21 1.637398 1_555
O55 Si22 1.637559 1_555
O56 Si23 1.623798 1_555
O57 Si24 1.624314 1_555
O58 Si25 1.636289 1_555
O59 Si26 1.636953 1_555
O60 Si25 1.628595 1_555
O61 Si26 1.628838 1_555
O62 Si21 1.628286 1_555
O63 Si22 1.628913 1_555
O64 Si23 1.636557 1_555
O65 Si24 1.636952 1_555
O66 Si17 1.623971 1_555
O67 Si18 1.639283 1_555
O68 Si19 1.641505 1_555
O69 Si20 1.656811 1_555
O70 Si16 1.620430 1_555
O71 S8 1.464550 1_555
O72 Si25 1.646871 1_555
O73 Si26 1.646335 1_555
O74 Si21 1.650439 1_555
O75 Si22 1.649069 1_555
O76 Si23 1.636256 1_555
O77 Si24 1.635883 1_555
O78 Si17 1.673897 1_555
O79 Si18 1.630015 1_555
O80 Si19 1.644011 1_555
O81 Si20 1.619248 1_555
O82 Si16 1.642508 1_555
O83 S8 1.506783 1_555
O84 S4 1.466414 1_555
O85 S5 1.459874 1_555
O86 Si8 1.648289 1_555
O87 Si9 1.648685 1_555
O88 Si10 1.660392 1_555
O89 Si11 1.657054 1_555
O90 S6 1.465532 1_555
O91 S7 1.473699 1_555
O92 Si12 1.665660 1_555
O93 Si13 1.659452 1_555
O94 Si14 1.649400 1_555
O95 Si15 1.646109 1_555
O96 Si6 1.655203 1_545
O97 Si7 1.648989 1_555
O98 S2 1.505244 1_555
O99 S3 1.501493 1_555
O100 Si5 1.623544 1_555
O101 Si4 1.627992 1_555
O102 Si0 1.628029 1_555
O103 Si1 1.628448 1_555
O104 Si3 1.644021 1_555
O105 Si2 1.644402 1_655
O106 S0 1.500980 1_545
O107 S1 1.499685 1_555
O108 Si16 1.637076 1_555
O109 S8 1.466051 1_555
O110 Si18 1.652411 1_555
O111 Si17 1.643676 1_655
O112 Si19 1.669502 1_545
O113 Si20 1.643856 1_545
O114 Si21 1.636834 1_545
O115 Si22 1.636200 1_545
O116 Si23 1.649815 1_555
O117 Si24 1.649014 1_555
O118 Si26 1.644215 1_555
O119 Si25 1.645380 1_655
O120 Si14 1.644511 1_555
O121 Si15 1.652495 1_555
O122 S7 1.478306 1_455
O123 S6 1.500229 1_555
O124 Si12 1.622299 1_565
O125 Si13 1.627335 1_565
O126 Si8 1.651372 1_565
O127 Si9 1.653489 1_565
O128 Si10 1.621613 1_555
O129 Si11 1.622896 1_555
O130 S5 1.485167 1_455
O131 S4 1.484059 1_555
O132 S0 1.479419 1_555
O133 S1 1.483056 1_565
O134 Si0 1.646277 1_555
O135 Si1 1.647744 1_555
O136 Si2 1.625796 1_555
O137 Si3 1.627350 1_555
O138 S2 1.455907 1_555
O139 S3 1.477388 1_555
O140 Si4 1.636151 1_455
O141 Si5 1.663728 1_555
O142 Si6 1.641261 1_555
O143 Si7 1.649494 1_565
