# generated using pymatgen
data_MgCu2(RhS2)4
_symmetry_space_group_name_H-M   'P 1'
_cell_length_a   7.18260234
_cell_length_b   7.18260218
_cell_length_c   7.37509600
_cell_angle_alpha   59.10943103
_cell_angle_beta   59.10943176
_cell_angle_gamma   59.74073357
_symmetry_Int_Tables_number   1
_chemical_formula_structural   MgCu2(RhS2)4
_chemical_formula_sum   'Mg1 Cu2 Rh4 S8'
_cell_volume   264.85163795
_cell_formula_units_Z   1
loop_
 _symmetry_equiv_pos_site_id
 _symmetry_equiv_pos_as_xyz
  1  'x, y, z'
loop_
 _atom_site_type_symbol
 _atom_site_label
 _atom_site_symmetry_multiplicity
 _atom_site_fract_x
 _atom_site_fract_y
 _atom_site_fract_z
 _atom_site_occupancy
  Mg  Mg0  1  0.66526000  0.66526000  0.08474000  1
  Cu  Cu0  1  0.92271100  0.92271100  0.82728900  1
  Cu  Cu1  1  0.12331200  0.12331200  0.12668800  1
  Rh  Rh0  1  0.48891600  0.48891600  0.00240200  1
  Rh  Rh1  1  0.48891600  0.48891600  0.51976600  1
  Rh  Rh2  1  0.99845800  0.48520200  0.50817000  1
  Rh  Rh3  1  0.48520200  0.99845800  0.50817000  1
  S  S0  1  0.74348500  0.74348500  0.71099900  1
  S  S1  1  0.25268400  0.25268400  0.72118200  1
  S  S2  1  0.25370900  0.71545000  0.26542000  1
  S  S3  1  0.71545000  0.25370900  0.26542000  1
  S  S4  1  0.72381500  0.29006100  0.74306200  1
  S  S5  1  0.29006100  0.72381500  0.74306200  1
  S  S6  1  0.25268400  0.25268400  0.27345000  1
  S  S7  1  0.74348500  0.74348500  0.30203300  1
loop_
_geom_bond_atom_site_label_1
_geom_bond_atom_site_label_2
_geom_bond_distance
_geom_bond_site_symmetry_2
Mg0 S0 2.316622 1_554
Mg0 S7 2.316635 1_555
Mg0 S3 2.453226 1_555
Mg0 S2 2.453226 1_555
Mg0 Rh1 2.602639 1_555
Mg0 Rh0 2.602639 1_555
Cu0 S4 2.194984 1_565
Cu0 S5 2.194985 1_655
Cu0 Mg0 2.584545 1_556
Cu0 S0 2.826186 1_555
Cu0 S7 2.826197 1_556
Cu1 S2 2.376371 1_545
Cu1 S3 2.376371 1_455
Cu1 S1 2.415404 1_554
Cu1 S6 2.415404 1_555
Rh0 S5 2.368076 1_554
Rh0 S4 2.368076 1_554
Rh0 S6 2.385388 1_555
Rh0 S3 2.523861 1_555
Rh0 S2 2.523861 1_555
Rh0 S0 2.570010 1_554
Rh1 S5 2.368076 1_555
Rh1 S4 2.368076 1_555
Rh1 S1 2.385388 1_555
Rh1 S3 2.523866 1_555
Rh1 S2 2.523866 1_555
Rh1 S7 2.570012 1_555
Rh2 S4 2.375164 1_555
Rh2 S7 2.376040 1_555
Rh2 S0 2.376049 1_555
Rh2 S1 2.401984 1_655
Rh2 S6 2.401984 1_655
Rh2 S2 2.438598 1_655
Rh3 S5 2.375164 1_555
Rh3 S7 2.376040 1_555
Rh3 S0 2.376049 1_555
Rh3 S1 2.401984 1_565
Rh3 S6 2.401984 1_565
Rh3 S3 2.438598 1_565
