# generated using pymatgen
data_MgCu2(SO5)2
_symmetry_space_group_name_H-M   'P 1'
_cell_length_a   5.31080280
_cell_length_b   6.20222567
_cell_length_c   9.20883229
_cell_angle_alpha   125.03226252
_cell_angle_beta   117.98869418
_cell_angle_gamma   87.23295939
_symmetry_Int_Tables_number   1
_chemical_formula_structural   MgCu2(SO5)2
_chemical_formula_sum   'Mg1 Cu2 S2 O10'
_cell_volume   208.81661184
_cell_formula_units_Z   1
loop_
 _symmetry_equiv_pos_site_id
 _symmetry_equiv_pos_as_xyz
  1  'x, y, z'
loop_
 _atom_site_type_symbol
 _atom_site_label
 _atom_site_symmetry_multiplicity
 _atom_site_fract_x
 _atom_site_fract_y
 _atom_site_fract_z
 _atom_site_occupancy
  Mg  Mg0  1  0.21685161  0.46855881  0.08687182  1
  Cu  Cu0  1  0.99172281  0.99443262  0.02098841  1
  Cu  Cu1  1  0.51216546  0.49923122  0.52568170  1
  S  S0  1  0.44089750  0.06575118  0.74370841  1
  S  S1  1  0.59674610  0.94065616  0.25376064  1
  O  O0  1  0.81925850  0.64157978  0.78543833  1
  O  O1  1  0.22829533  0.35641117  0.25184715  1
  O  O2  1  0.32079561  0.20871604  0.87792125  1
  O  O3  1  0.66820869  0.89638603  0.10710624  1
  O  O4  1  0.78983123  0.15359552  0.88813135  1
  O  O5  1  0.24591008  0.84756949  0.14622426  1
  O  O6  1  0.32804374  0.76250641  0.63726808  1
  O  O7  1  0.72187534  0.23891230  0.44415852  1
  O  O8  1  0.37678589  0.12253002  0.60129299  1
  O  O9  1  0.67118310  0.75554425  0.30928884  1
loop_
_geom_bond_atom_site_label_1
_geom_bond_atom_site_label_2
_geom_bond_distance
_geom_bond_site_symmetry_2
Mg0 O1 1.979399 1_555
Mg0 O2 1.988812 1_554
Mg0 O5 2.080667 1_555
Mg0 O4 2.176259 1_454
Mg0 O9 2.185367 1_555
Cu0 O0 1.792270 1_554
Cu0 O1 1.850458 1_665
Cu0 O5 1.899513 1_655
Cu0 O4 1.916800 1_564
Cu0 O3 2.425710 1_555
Cu1 O0 1.792766 1_555
Cu1 O1 1.847330 1_555
Cu1 O6 1.881747 1_555
Cu1 O7 1.905349 1_555
O2 S0 1.465523 1_555
O3 S1 1.445204 1_555
O4 S0 1.565896 1_555
O5 S1 1.581528 1_555
O6 S0 1.516011 1_565
O7 S1 1.496380 1_545
O8 S0 1.435082 1_555
O9 S1 1.475251 1_555
