# generated using pymatgen
data_Sr2MgCu(BrO)2
_symmetry_space_group_name_H-M   'P 1'
_cell_length_a   3.98420917
_cell_length_b   3.98420870
_cell_length_c   12.93534187
_cell_angle_alpha   98.85908597
_cell_angle_beta   98.85908763
_cell_angle_gamma   90.00000303
_symmetry_Int_Tables_number   1
_chemical_formula_structural   Sr2MgCu(BrO)2
_chemical_formula_sum   'Sr2 Mg1 Cu1 Br2 O2'
_cell_volume   200.40540507
_cell_formula_units_Z   1
loop_
 _symmetry_equiv_pos_site_id
 _symmetry_equiv_pos_as_xyz
  1  'x, y, z'
loop_
 _atom_site_type_symbol
 _atom_site_label
 _atom_site_symmetry_multiplicity
 _atom_site_fract_x
 _atom_site_fract_y
 _atom_site_fract_z
 _atom_site_occupancy
  Sr  Sr0  1  0.57036500  0.57036500  0.14073100  1
  Sr  Sr1  1  0.43951900  0.43951900  0.87903600  1
  Mg  Mg0  1  0.25905800  0.25905800  0.51811700  1
  Cu  Cu0  1  0.00546300  0.00546300  0.01092500  1
  Br  Br0  1  0.87701200  0.87701200  0.75402300  1
  Br  Br1  1  0.13646000  0.13646000  0.27291900  1
  O  O0  1  0.50606200  0.00606200  0.01212400  1
  O  O1  1  0.00606200  0.50606200  0.01212400  1
loop_
_geom_bond_atom_site_label_1
_geom_bond_atom_site_label_2
_geom_bond_distance
_geom_bond_site_symmetry_2
Cu0 O1 1.992160 1_555
Cu0 O0 1.992160 1_555
Cu0 O1 1.992164 1_545
Cu0 O0 1.992164 1_455
Br0 Sr1 3.229221 1_555
Br0 Sr1 3.229224 1_655
Br0 Sr1 3.229224 1_565
Br0 Sr1 3.229226 1_665
Br1 Mg0 3.095581 1_555
Br1 Sr0 3.274445 1_555
Br1 Sr0 3.274450 1_455
Br1 Sr0 3.274450 1_545
Br1 Sr0 3.274454 1_445
O0 Sr0 2.569957 1_555
O0 Sr0 2.569960 1_545
O0 Sr1 2.606065 1_544
O0 Sr1 2.606072 1_554
O1 Sr0 2.569957 1_555
O1 Sr0 2.569961 1_455
O1 Sr1 2.606065 1_454
O1 Sr1 2.606072 1_554
