# generated using pymatgen
data_MgV4FeCoO12
_symmetry_space_group_name_H-M   'P 1'
_cell_length_a   6.96270435
_cell_length_b   6.92832699
_cell_length_c   5.73506883
_cell_angle_alpha   74.82869833
_cell_angle_beta   107.99287604
_cell_angle_gamma   100.06986573
_symmetry_Int_Tables_number   1
_chemical_formula_structural   MgV4FeCoO12
_chemical_formula_sum   'Mg1 V4 Fe1 Co1 O12'
_cell_volume   252.62313516
_cell_formula_units_Z   1
loop_
 _symmetry_equiv_pos_site_id
 _symmetry_equiv_pos_as_xyz
  1  'x, y, z'
loop_
 _atom_site_type_symbol
 _atom_site_label
 _atom_site_symmetry_multiplicity
 _atom_site_fract_x
 _atom_site_fract_y
 _atom_site_fract_z
 _atom_site_occupancy
  Mg  Mg0  1  0.29760400  0.26404000  0.30134000  1
  V  V0  1  0.17455900  0.60796700  0.74644800  1
  V  V1  1  0.37556000  0.79953300  0.25102900  1
  V  V2  1  0.63122900  0.20946600  0.75660500  1
  V  V3  1  0.84672300  0.40172100  0.30300300  1
  Fe  Fe0  1  0.91766200  0.92826500  0.23666000  1
  Co  Co0  1  0.09016900  0.08883000  0.74711400  1
  O  O0  1  0.03689100  0.81106200  0.64978700  1
  O  O1  1  0.01770700  0.38741900  0.69167900  1
  O  O2  1  0.22034800  0.01329400  0.14045700  1
  O  O3  1  0.34969400  0.64789500  0.57242800  1
  O  O4  1  0.37602200  0.11331400  0.69433600  1
  O  O5  1  0.29265400  0.56725900  0.07942500  1
  O  O6  1  0.67779400  0.35240000  0.97541100  1
  O  O7  1  0.62114700  0.86864000  0.26853700  1
  O  O8  1  0.61044800  0.33873800  0.43168300  1
  O  O9  1  0.80402000  0.03257700  0.84695200  1
  O  O10  1  0.93376700  0.64311400  0.20838700  1
  O  O11  1  0.01303800  0.20224500  0.34871900  1
loop_
_geom_bond_atom_site_label_1
_geom_bond_atom_site_label_2
_geom_bond_distance
_geom_bond_site_symmetry_2
Mg0 O11 2.039105 1_555
Mg0 O2 2.089088 1_555
Mg0 O8 2.091336 1_555
Mg0 O5 2.152462 1_555
Mg0 O4 2.162338 1_555
Fe0 O10 2.048978 1_555
Fe0 O7 2.088499 1_555
Fe0 O11 2.095545 1_665
Fe0 O9 2.098954 1_564
Fe0 O0 2.230640 1_655
Fe0 O2 2.281915 1_665
Co0 O4 2.075806 1_555
Co0 O0 2.082648 1_545
Co0 O2 2.114011 1_556
Co0 O1 2.134687 1_555
Co0 O11 2.139174 1_555
Co0 O9 2.183052 1_455
O0 V0 1.714983 1_555
O1 V0 1.755553 1_555
O1 V3 2.163819 1_455
O2 V1 1.846120 1_545
O3 V0 1.746115 1_555
O3 V1 1.912870 1_555
O4 V2 1.745661 1_555
O5 V0 1.797642 1_554
O5 V1 2.011140 1_555
O6 V2 1.716770 1_555
O6 V3 1.964748 1_556
O7 V1 1.672137 1_555
O8 V2 1.816792 1_555
O8 V3 1.942137 1_555
O9 V2 1.736659 1_555
O10 V3 1.683020 1_555
O11 V3 1.871406 1_455
