# generated using pymatgen
data_Na10In4Si7Sn4S5O48
_symmetry_space_group_name_H-M   'P 1'
_cell_length_a   18.18548523
_cell_length_b   9.09470184
_cell_length_c   22.75068961
_cell_angle_alpha   89.91322544
_cell_angle_beta   89.39551898
_cell_angle_gamma   119.82563170
_symmetry_Int_Tables_number   1
_chemical_formula_structural   Na10In4Si7Sn4S5O48
_chemical_formula_sum   'Na30 In12 Si21 Sn12 S15 O144'
_cell_volume   3264.08599662
_cell_formula_units_Z   3
loop_
 _symmetry_equiv_pos_site_id
 _symmetry_equiv_pos_as_xyz
  1  'x, y, z'
loop_
 _atom_site_type_symbol
 _atom_site_label
 _atom_site_symmetry_multiplicity
 _atom_site_fract_x
 _atom_site_fract_y
 _atom_site_fract_z
 _atom_site_occupancy
  Na  Na0  1  0.18350512  0.37405591  0.23951710  1
  Na  Na1  1  0.68345185  0.37537040  0.23984141  1
  Na  Na2  1  0.99138727  0.62534931  0.25657334  1
  Na  Na3  1  0.49190091  0.62517461  0.25578389  1
  Na  Na4  1  0.49098571  0.35225374  0.76224323  1
  Na  Na5  1  0.18417850  0.99470586  0.74435905  1
  Na  Na6  1  0.68231303  0.99463392  0.74345226  1
  Na  Na7  1  0.66124534  0.34526448  0.57881925  1
  Na  Na8  1  0.01714046  0.70602959  0.57768303  1
  Na  Na9  1  0.82588243  0.95628772  0.59463502  1
  Na  Na10  1  0.49242934  0.67411529  0.91037342  1
  Na  Na11  1  0.99475861  0.67640095  0.90842014  1
  Na  Na12  1  0.84861579  0.03421373  0.90278998  1
  Na  Na13  1  0.15692999  0.28935192  0.92589625  1
  Na  Na14  1  0.49235491  0.31247614  0.40929682  1
  Na  Na15  1  0.99053647  0.30941578  0.40987545  1
  Na  Na16  1  0.34800389  0.66179412  0.40278443  1
  Na  Na17  1  0.84928091  0.66466434  0.40818584  1
  Na  Na18  1  0.02600218  0.00690024  0.49693285  1
  Na  Na19  1  0.52062986  0.98978998  0.49503943  1
  Na  Na20  1  0.01428555  0.02284937  0.99982235  1
  Na  Na21  1  0.52187198  0.05356664  0.99414925  1
  Na  Na22  1  0.33950762  0.31708317  0.83311360  1
  Na  Na23  1  0.84465145  0.33635984  0.82541884  1
  Na  Na24  1  0.33350387  0.33079762  0.32867445  1
  Na  Na25  1  0.83351233  0.33122043  0.33055755  1
  Na  Na26  1  0.17659293  0.65514537  0.16166818  1
  Na  Na27  1  0.67619552  0.65552162  0.16209260  1
  Na  Na28  1  0.17643577  0.68664963  0.66910477  1
  Na  Na29  1  0.67341751  0.68895813  0.66650126  1
  In  In0  1  0.00208422  0.00458299  0.35113857  1
  In  In1  1  0.50197657  0.00371165  0.35026200  1
  In  In2  1  0.99871018  0.99630639  0.84821965  1
  In  In3  1  0.49791457  0.99744586  0.85304669  1
  In  In4  1  0.33246174  0.32748044  0.68584105  1
  In  In5  1  0.83503563  0.33628584  0.68626129  1
  In  In6  1  0.33359089  0.33971586  0.18293506  1
  In  In7  1  0.83290792  0.34022166  0.18322708  1
  In  In8  1  0.16000031  0.65162889  0.01782522  1
  In  In9  1  0.65861036  0.64720232  0.01888905  1
  In  In10  1  0.16394968  0.67310805  0.51687933  1
  In  In11  1  0.66138268  0.66724506  0.51894537  1
  Si  Si0  1  0.35252518  0.71402599  0.25077098  1
  Si  Si1  1  0.85294811  0.71522232  0.25102794  1
  Si  Si2  1  0.99855825  0.29820349  0.25248089  1
  Si  Si3  1  0.49841402  0.29799559  0.25258942  1
  Si  Si4  1  0.99972834  0.69550153  0.75240932  1
  Si  Si5  1  0.49869627  0.69776452  0.75317681  1
  Si  Si6  1  0.35270349  0.99095527  0.74958741  1
  Si  Si7  1  0.84954334  0.99486439  0.75157382  1
  Si  Si8  1  0.18467145  0.03661902  0.58740131  1
  Si  Si9  1  0.68328062  0.04007324  0.58729870  1
  Si  Si10  1  0.83375792  0.63263474  0.58235773  1
  Si  Si11  1  0.18297750  0.33096333  0.08552385  1
  Si  Si12  1  0.68190580  0.33038362  0.08745553  1
  Si  Si13  1  0.01790301  0.36939660  0.91833998  1
  Si  Si14  1  0.51581575  0.36470369  0.91745267  1
  Si  Si15  1  0.16754293  0.96324331  0.91721426  1
  Si  Si16  1  0.66749518  0.96162313  0.91930077  1
  Si  Si17  1  0.16764748  0.37215220  0.41824246  1
  Si  Si18  1  0.66632062  0.36675664  0.41913602  1
  Si  Si19  1  0.01626393  0.66543933  0.41893082  1
  Si  Si20  1  0.51688583  0.66567537  0.41808879  1
  Sn  Sn0  1  0.99790813  0.98535423  0.65073728  1
  Sn  Sn1  1  0.49700587  0.98151671  0.65100183  1
  Sn  Sn2  1  0.00044147  0.01469631  0.14830090  1
  Sn  Sn3  1  0.49994839  0.01328996  0.14831856  1
  Sn  Sn4  1  0.32938028  0.31860104  0.98124181  1
  Sn  Sn5  1  0.82567288  0.32257287  0.98178193  1
  Sn  Sn6  1  0.32731994  0.33097457  0.48188714  1
  Sn  Sn7  1  0.82853476  0.34398775  0.48205151  1
  Sn  Sn8  1  0.16506281  0.65337186  0.31500218  1
  Sn  Sn9  1  0.66395171  0.65376823  0.31539461  1
  Sn  Sn10  1  0.16307454  0.67683751  0.81506603  1
  Sn  Sn11  1  0.66482291  0.67586375  0.81578571  1
  S  S0  1  0.14782150  0.99328866  0.24943582  1
  S  S1  1  0.64805970  0.99285180  0.24948362  1
  S  S2  1  0.14656478  0.30323505  0.75010090  1
  S  S3  1  0.64555288  0.29820528  0.74906447  1
  S  S4  1  0.47896203  0.32094978  0.58320347  1
  S  S5  1  0.98146149  0.32708135  0.58121327  1
  S  S6  1  0.33591265  0.63424733  0.58196612  1
  S  S7  1  0.48153011  0.64041910  0.08400262  1
  S  S8  1  0.98150051  0.63984195  0.08324616  1
  S  S9  1  0.33458809  0.03596292  0.08393947  1
  S  S10  1  0.83524457  0.03743785  0.08251240  1
  S  S11  1  0.31053898  0.66039322  0.91783522  1
  S  S12  1  0.81147068  0.65895451  0.91790716  1
  S  S13  1  0.31171165  0.96474275  0.41652311  1
  S  S14  1  0.81093434  0.96527462  0.41780123  1
  O  O0  1  0.11201801  0.02749106  0.30298650  1
  O  O1  1  0.61238646  0.02722496  0.30314092  1
  O  O2  1  0.40879131  0.78531615  0.30982329  1
  O  O3  1  0.90986050  0.78698740  0.30970107  1
  O  O4  1  0.48704721  0.20230055  0.31509945  1
  O  O5  1  0.98797676  0.20283230  0.31490016  1
  O  O6  1  0.11127301  0.20612305  0.80569835  1
  O  O7  1  0.60463226  0.18942387  0.80033617  1
  O  O8  1  0.48879946  0.77714609  0.81407938  1
  O  O9  1  0.99358017  0.78129292  0.81363032  1
  O  O10  1  0.42055967  0.04614812  0.80132678  1
  O  O11  1  0.90157564  0.01799988  0.81113813  1
  O  O12  1  0.39519093  0.97052313  0.68663702  1
  O  O13  1  0.89841778  0.98634704  0.69012266  1
  O  O14  1  0.09205676  0.21656341  0.69866362  1
  O  O15  1  0.59408981  0.22480138  0.69374623  1
  O  O16  1  0.02020540  0.82254380  0.69424282  1
  O  O17  1  0.52506754  0.83152347  0.69666497  1
  O  O18  1  0.40351502  0.82855057  0.19244897  1
  O  O19  1  0.90338266  0.82923641  0.19203781  1
  O  O20  1  0.02575291  0.21326919  0.19832047  1
  O  O21  1  0.52470850  0.21109329  0.19879947  1
  O  O22  1  0.09268727  0.96258405  0.19723746  1
  O  O23  1  0.59273692  0.96195294  0.19748252  1
  O  O24  1  0.43801246  0.33933784  0.63647306  1
  O  O25  1  0.93906446  0.35111424  0.63259728  1
  O  O26  1  0.23460542  0.11846778  0.64741994  1
  O  O27  1  0.73704170  0.11609285  0.64665609  1
  O  O28  1  0.32907811  0.53223656  0.63375076  1
  O  O29  1  0.81486993  0.50039915  0.63481533  1
  O  O30  1  0.44228068  0.54142857  0.13872364  1
  O  O31  1  0.94163445  0.54120979  0.13767924  1
  O  O32  1  0.32831102  0.12127861  0.13704345  1
  O  O33  1  0.82982139  0.12673470  0.13466999  1
  O  O34  1  0.23031114  0.33786768  0.14662502  1
  O  O35  1  0.72846382  0.33937795  0.14924019  1
  O  O36  1  0.23192253  0.31122723  0.02580707  1
  O  O37  1  0.73280055  0.30858582  0.03018600  1
  O  O38  1  0.43112994  0.54981752  0.03076201  1
  O  O39  1  0.93168392  0.55082143  0.02960193  1
  O  O40  1  0.34858036  0.14241581  0.02951716  1
  O  O41  1  0.84815451  0.13955656  0.02694886  1
  O  O42  1  0.23305661  0.15288686  0.52798187  1
  O  O43  1  0.72955137  0.17159632  0.52996343  1
  O  O44  1  0.34752121  0.55761659  0.52587205  1
  O  O45  1  0.85857349  0.56521543  0.52079921  1
  O  O46  1  0.43071927  0.31070441  0.52843758  1
  O  O47  1  0.93079390  0.30321617  0.52615248  1
  O  O48  1  0.27360484  0.68363648  0.97211518  1
  O  O49  1  0.77265277  0.68072238  0.97167736  1
  O  O50  1  0.08156273  0.43370501  0.97323326  1
  O  O51  1  0.57102616  0.44530193  0.97475842  1
  O  O52  1  0.15162791  0.83797394  0.97206744  1
  O  O53  1  0.65807628  0.84251030  0.97447524  1
  O  O54  1  0.27384808  0.86796550  0.47102775  1
  O  O55  1  0.77423439  0.86958171  0.47251353  1
  O  O56  1  0.15576133  0.46990409  0.47324015  1
  O  O57  1  0.65410777  0.45130492  0.47850603  1
  O  O58  1  0.06566591  0.69263400  0.48008401  1
  O  O59  1  0.57444401  0.69805012  0.47420316  1
  O  O60  1  0.06437605  0.63942985  0.35978727  1
  O  O61  1  0.55831889  0.63340984  0.35643239  1
  O  O62  1  0.25943947  0.88476425  0.36388594  1
  O  O63  1  0.75787647  0.88301610  0.36531775  1
  O  O64  1  0.19053185  0.48995558  0.35697340  1
  O  O65  1  0.68663608  0.49181901  0.36026311  1
  O  O66  1  0.06137270  0.49810945  0.86080278  1
  O  O67  1  0.55874582  0.48566366  0.85660766  1
  O  O68  1  0.18381856  0.89137817  0.85458409  1
  O  O69  1  0.69045882  0.88942604  0.85787442  1
  O  O70  1  0.25685759  0.63499175  0.86504956  1
  O  O71  1  0.76039733  0.63416254  0.86447553  1
  O  O72  1  0.99441006  0.81749126  0.41286882  1
  O  O73  1  0.49212919  0.81385922  0.41301136  1
  O  O74  1  0.39628494  0.97931603  0.41197838  1
  O  O75  1  0.89574258  0.97992198  0.41225702  1
  O  O76  1  0.08148330  0.18904186  0.41429950  1
  O  O77  1  0.57980798  0.18432506  0.41369776  1
  O  O78  1  0.99683671  0.17400969  0.91051807  1
  O  O79  1  0.49569750  0.17191652  0.91224273  1
  O  O80  1  0.08265954  0.98594019  0.91461866  1
  O  O81  1  0.58077131  0.97092757  0.91469476  1
  O  O82  1  0.39718954  0.80263829  0.91246357  1
  O  O83  1  0.89682601  0.81249874  0.91353456  1
  O  O84  1  0.48585859  0.16419236  0.58468809  1
  O  O85  1  0.98686970  0.16923129  0.58613438  1
  O  O86  1  0.08927255  0.02247718  0.58873638  1
  O  O87  1  0.59011631  0.03941158  0.58962457  1
  O  O88  1  0.41509983  0.80529561  0.58351490  1
  O  O89  1  0.91834960  0.82353490  0.58823096  1
  O  O90  1  0.48394498  0.80695519  0.08593963  1
  O  O91  1  0.98470815  0.80756373  0.08501204  1
  O  O92  1  0.41242475  0.01852577  0.08558588  1
  O  O93  1  0.91397597  0.02155822  0.08424948  1
  O  O94  1  0.08827248  0.15058380  0.08608985  1
  O  O95  1  0.58726249  0.15190059  0.08705937  1
  O  O96  1  0.33416719  0.15131413  0.74692072  1
  O  O97  1  0.82772027  0.14858997  0.74811108  1
  O  O98  1  0.23119558  0.31768307  0.74382597  1
  O  O99  1  0.72984550  0.31696220  0.74456782  1
  O  O100  1  0.41783032  0.50758478  0.74433968  1
  O  O101  1  0.91612173  0.51231914  0.74696976  1
  O  O102  1  0.33522492  0.51771592  0.24678373  1
  O  O103  1  0.83625795  0.51930035  0.24686009  1
  O  O104  1  0.41750687  0.32709509  0.24353885  1
  O  O105  1  0.91753764  0.32658617  0.24311086  1
  O  O106  1  0.23350766  0.14043390  0.24259757  1
  O  O107  1  0.73389109  0.13924017  0.24267235  1
  O  O108  1  0.31535594  0.49926785  0.92070827  1
  O  O109  1  0.82513634  0.50922582  0.92143856  1
  O  O110  1  0.42552340  0.37835097  0.92301227  1
  O  O111  1  0.92684376  0.37365086  0.92727180  1
  O  O112  1  0.24932619  0.15915567  0.92088615  1
  O  O113  1  0.75617380  0.14980354  0.92153511  1
  O  O114  1  0.32440603  0.14046367  0.41960663  1
  O  O115  1  0.82338321  0.14049903  0.42081979  1
  O  O116  1  0.25617129  0.36151196  0.42119368  1
  O  O117  1  0.75482805  0.35675509  0.41841365  1
  O  O118  1  0.42496837  0.47601320  0.42416159  1
  O  O119  1  0.92571812  0.47538893  0.42022344  1
  O  O120  1  0.17439505  0.50086413  0.08220726  1
  O  O121  1  0.67408439  0.50089886  0.08326612  1
  O  O122  1  0.06770974  0.66485279  0.08102508  1
  O  O123  1  0.56809702  0.66710831  0.08202903  1
  O  O124  1  0.25837219  0.86939810  0.07963484  1
  O  O125  1  0.75974888  0.86962600  0.07971367  1
  O  O126  1  0.16784022  0.84106890  0.58270997  1
  O  O127  1  0.67522680  0.85538166  0.58034520  1
  O  O128  1  0.26033607  0.65303940  0.57895694  1
  O  O129  1  0.74998380  0.65492032  0.57827622  1
  O  O130  1  0.06636309  0.47810503  0.57833405  1
  O  O131  1  0.56573252  0.46860905  0.58172499  1
  O  O132  1  0.15182409  0.83457659  0.25556001  1
  O  O133  1  0.65196806  0.83400012  0.25565462  1
  O  O134  1  0.25815646  0.70172369  0.25380707  1
  O  O135  1  0.75811927  0.70097886  0.25476653  1
  O  O136  1  0.08498094  0.49262650  0.25279178  1
  O  O137  1  0.58529110  0.49170508  0.25262937  1
  O  O138  1  0.15603316  0.47413359  0.75353862  1
  O  O139  1  0.65018360  0.46627130  0.75451512  1
  O  O140  1  0.08980664  0.68917155  0.75094822  1
  O  O141  1  0.58523563  0.67723578  0.75288960  1
  O  O142  1  0.26015011  0.81452644  0.75591374  1
  O  O143  1  0.75658029  0.81203424  0.75329371  1
loop_
_geom_bond_atom_site_label_1
_geom_bond_atom_site_label_2
_geom_bond_distance
_geom_bond_site_symmetry_2
Na0 O34 2.354134 1_555
Na0 O102 2.402379 1_555
Na0 O136 2.525034 1_555
Na0 O134 2.610998 1_555
Na0 O20 2.671095 1_555
Na0 O106 2.696104 1_555
Na0 O64 2.854797 1_555
Na1 O35 2.293227 1_555
Na1 O103 2.419229 1_555
Na1 O137 2.501870 1_555
Na1 O135 2.596419 1_555
Na1 O21 2.684883 1_555
Na1 O107 2.723547 1_555
Na1 O65 2.929494 1_555
Na2 O105 2.379439 1_555
Na2 O103 2.498985 1_555
Na2 O136 2.530272 1_655
Na2 O132 2.570960 1_655
Na2 O60 2.681381 1_655
Na2 O3 2.820580 1_555
Na2 O31 2.844293 1_555
Na2 O22 2.989562 1_655
Na3 O104 2.370468 1_555
Na3 O102 2.521547 1_555
Na3 O137 2.532070 1_555
Na3 O133 2.565326 1_555
Na3 O61 2.583926 1_555
Na3 O30 2.803606 1_555
Na3 O2 2.841279 1_555
Na3 O23 2.975354 1_555
Na4 O100 2.410528 1_555
Na4 O67 2.485169 1_555
Na4 O96 2.536306 1_555
Na4 O139 2.547588 1_555
Na4 O10 2.569637 1_555
Na4 O141 2.582621 1_555
Na5 O96 2.368772 1_565
Na5 O26 2.427935 1_565
Na5 O140 2.436969 1_555
Na5 O98 2.619315 1_565
Na5 O142 2.630877 1_555
Na5 O68 2.675459 1_555
Na5 O16 2.841885 1_555
Na6 O97 2.299449 1_565
Na6 O27 2.431696 1_565
Na6 O141 2.533055 1_555
Na6 O99 2.611798 1_565
Na6 O143 2.620769 1_555
Na6 O17 2.712974 1_555
Na6 O69 2.802788 1_555
Na7 O87 2.425540 1_555
Na7 O129 2.452395 1_555
Na7 O131 2.493140 1_555
Na7 O57 2.505882 1_555
Na7 O43 2.683458 1_555
Na7 O29 2.752855 1_555
Na7 O84 2.769160 1_555
Na7 O15 2.849784 1_555
Na8 O126 2.385588 1_555
Na8 O58 2.406319 1_555
Na8 O86 2.514089 1_565
Na8 O89 2.515705 1_455
Na8 O130 2.635216 1_555
Na8 O45 2.835571 1_455
Na8 O16 2.847981 1_555
Na9 O129 2.409705 1_555
Na9 O127 2.443923 1_555
Na9 O13 2.497529 1_555
Na9 O89 2.514247 1_555
Na9 O85 2.589611 1_565
Na9 O27 2.902378 1_565
Na9 O55 2.923728 1_555
Na10 O110 2.352294 1_555
Na10 O81 2.359617 1_555
Na10 O8 2.395864 1_555
Na10 O82 2.525970 1_555
Na10 O108 2.800480 1_555
Na10 O67 2.814152 1_555
Na10 O38 2.948724 1_556
Na10 O53 3.009491 1_555
Na11 O9 2.361402 1_555
Na11 O111 2.427590 1_555
Na11 O80 2.455589 1_655
Na11 O83 2.627973 1_555
Na11 O66 2.683650 1_655
Na11 O109 2.688618 1_555
Na11 O52 2.884086 1_655
Na11 O39 2.973483 1_556
Na12 O11 2.323135 1_555
Na12 O78 2.348332 1_555
Na12 O113 2.420184 1_555
Na12 O83 2.579915 1_545
Na12 O69 2.710942 1_545
Na12 O111 2.741804 1_555
Na12 O41 2.985394 1_556
Na13 O80 2.409704 1_545
Na13 O112 2.492760 1_555
Na13 O108 2.545589 1_555
Na13 O50 2.554394 1_555
Na13 O78 2.585263 1_455
Na13 O36 2.619745 1_556
Na13 O6 2.858201 1_555
Na14 O4 2.349616 1_555
Na14 O118 2.373615 1_555
Na14 O77 2.396770 1_555
Na14 O74 2.639762 1_545
Na14 O114 2.657374 1_555
Na14 O61 2.807298 1_555
Na14 O46 2.919146 1_555
Na15 O119 2.342762 1_555
Na15 O5 2.360981 1_555
Na15 O76 2.397569 1_655
Na15 O75 2.610273 1_545
Na15 O115 2.645731 1_555
Na15 O60 2.838715 1_655
Na15 O47 2.838938 1_555
Na16 O73 2.290096 1_555
Na16 O2 2.380154 1_555
Na16 O116 2.422327 1_555
Na16 O74 2.576323 1_555
Na16 O64 2.710264 1_555
Na16 O118 2.722975 1_555
Na16 O44 2.953434 1_555
Na17 O72 2.294828 1_555
Na17 O117 2.459951 1_555
Na17 O3 2.488538 1_555
Na17 O75 2.556531 1_555
Na17 O119 2.712430 1_555
Na17 O45 2.750412 1_555
Na17 O65 2.802937 1_555
Na18 O76 2.363120 1_555
Na18 O86 2.365510 1_555
Na18 O72 2.450287 1_445
Na18 O89 2.753939 1_445
Na18 O85 2.797892 1_455
Na18 O75 2.983671 1_445
Na19 O73 2.348610 1_555
Na19 O77 2.401479 1_565
Na19 O87 2.433945 1_565
Na19 O88 2.693553 1_555
Na19 O84 2.838270 1_565
Na19 O74 2.927426 1_555
Na20 O94 2.349401 1_556
Na20 O80 2.404707 1_545
Na20 O78 2.560794 1_455
Na20 O91 2.607328 1_446
Na20 O93 2.630938 1_456
Na20 O83 2.848046 1_445
Na21 O79 2.319432 1_555
Na21 O95 2.383865 1_556
Na21 O81 2.396616 1_545
Na21 O92 2.769506 1_556
Na21 O90 2.878148 1_546
Na21 O82 2.959298 1_545
Na22 O96 2.448468 1_555
Na22 O110 2.478779 1_555
Na22 O112 2.513804 1_555
Na22 O100 2.565837 1_555
Na22 O108 2.761360 1_555
Na22 O98 2.846271 1_555
Na23 O101 2.304142 1_555
Na23 O97 2.366847 1_555
Na23 O111 2.699983 1_555
Na23 O113 2.729154 1_555
Na23 O99 2.736627 1_555
Na23 O109 2.814037 1_555
Na24 O104 2.464811 1_555
Na24 O102 2.509611 1_555
Na24 O116 2.610822 1_555
Na24 O114 2.645882 1_555
Na24 O106 2.663255 1_555
Na24 O118 2.670202 1_555
Na25 O105 2.508956 1_555
Na25 O117 2.523528 1_555
Na25 O103 2.541154 1_555
Na25 O119 2.566240 1_555
Na25 O115 2.631158 1_555
Na25 O107 2.696102 1_555
Na26 O120 2.278581 1_555
Na26 O134 2.493386 1_555
Na26 O124 2.557264 1_555
Na26 O136 2.593543 1_555
Na26 O122 2.746761 1_555
Na26 O132 2.854868 1_555
Na27 O121 2.269476 1_555
Na27 O135 2.508399 1_555
Na27 O125 2.568793 1_555
Na27 O137 2.581498 1_555
Na27 O123 2.733947 1_555
Na27 O133 2.839355 1_555
Na28 O142 2.424854 1_555
Na28 O140 2.433843 1_555
Na28 O126 2.465078 1_555
Na28 O138 2.612204 1_555
Na28 O128 2.650943 1_555
Na28 O130 2.862054 1_555
Na29 O143 2.413490 1_555
Na29 O127 2.464575 1_555
Na29 O141 2.491700 1_555
Na29 O129 2.536738 1_555
Na29 O139 2.721840 1_555
Na29 O131 2.785428 1_555
In0 O3 2.086950 1_445
In0 O5 2.111041 1_455
In0 O76 2.146069 1_555
In0 O72 2.153949 1_445
In0 O0 2.186112 1_555
In0 O75 2.287902 1_445
In1 O2 2.086522 1_545
In1 O4 2.112738 1_555
In1 O77 2.126500 1_555
In1 O73 2.175080 1_545
In1 O1 2.180198 1_555
In1 O74 2.287554 1_545
In2 O11 2.061202 1_565
In2 O9 2.067999 1_555
In2 O78 2.163943 1_565
In2 O80 2.193846 1_655
In2 O6 2.198745 1_665
In2 O83 2.299764 1_555
In3 O10 2.052507 1_565
In3 O79 2.098126 1_565
In3 O8 2.122685 1_555
In3 O81 2.168119 1_555
In3 O7 2.197017 1_565
In3 O82 2.243620 1_555
In4 O26 2.053601 1_555
In4 O100 2.094068 1_555
In4 O96 2.131323 1_555
In4 O24 2.169284 1_555
In4 O98 2.219183 1_555
In4 O28 2.232674 1_555
In5 O29 2.068905 1_555
In5 O101 2.084820 1_555
In5 O27 2.118357 1_555
In5 O97 2.162073 1_555
In5 O25 2.187399 1_555
In5 O99 2.249707 1_555
In6 O34 2.052236 1_555
In6 O104 2.112155 1_555
In6 O30 2.151639 1_555
In6 O102 2.166060 1_555
In6 O32 2.205587 1_555
In6 O106 2.258100 1_555
In7 O35 2.054760 1_555
In7 O105 2.115114 1_555
In7 O103 2.159258 1_555
In7 O31 2.163436 1_555
In7 O33 2.211954 1_555
In7 O107 2.253810 1_555
In8 O50 2.053403 1_554
In8 O52 2.057612 1_554
In8 O120 2.110239 1_555
In8 O48 2.188582 1_554
In8 O122 2.247019 1_555
In8 O124 2.374327 1_555
In9 O51 2.011645 1_554
In9 O53 2.046498 1_554
In9 O121 2.090458 1_555
In9 O49 2.207001 1_554
In9 O123 2.247883 1_555
In9 O125 2.398128 1_555
In10 O56 2.039166 1_555
In10 O58 2.067299 1_555
In10 O126 2.117349 1_555
In10 O54 2.156456 1_555
In10 O130 2.249195 1_555
In10 O128 2.338812 1_555
In11 O59 2.021874 1_555
In11 O57 2.114352 1_555
In11 O127 2.128031 1_555
In11 O129 2.157730 1_555
In11 O55 2.214885 1_555
In11 O131 2.267861 1_555
O0 S0 1.480156 1_545
O1 S1 1.481544 1_545
O2 Si0 1.626047 1_555
O3 Si1 1.624455 1_555
O4 Si3 1.622891 1_555
O5 Si2 1.621873 1_555
O6 S2 1.485771 1_555
O7 S3 1.462550 1_555
O8 Si5 1.612589 1_555
O9 Si4 1.627273 1_555
O10 Si6 1.605173 1_545
O11 Si7 1.614273 1_545
O12 Si6 1.674186 1_555
O12 Sn1 1.969634 1_555
O13 Si7 1.671267 1_555
O13 Sn0 2.014582 1_555
O14 S2 1.491110 1_555
O14 Sn0 2.237645 1_445
O15 S3 1.520312 1_555
O15 Sn1 2.261706 1_545
O16 Si4 1.667881 1_455
O16 Sn0 1.984406 1_455
O17 Si5 1.662760 1_555
O17 Sn1 1.974822 1_555
O18 Si0 1.647545 1_555
O18 Sn3 1.983220 1_565
O19 Si1 1.655703 1_555
O19 Sn2 1.986694 1_665
O20 Si2 1.652141 1_455
O20 Sn2 1.989660 1_555
O21 Si3 1.648457 1_555
O21 Sn3 1.992341 1_555
O22 S0 1.497051 1_555
O22 Sn2 2.259856 1_565
O23 S1 1.495217 1_555
O23 Sn3 2.266787 1_565
O24 S4 1.468580 1_555
O25 S5 1.469092 1_555
O26 Si8 1.612469 1_555
O27 Si9 1.617341 1_555
O28 S6 1.463928 1_555
O29 Si10 1.601480 1_555
O30 S7 1.486107 1_555
O31 S8 1.481440 1_555
O32 S9 1.470629 1_555
O33 S10 1.468833 1_555
O34 Si11 1.627575 1_555
O35 Si12 1.629711 1_555
O36 Si11 1.674638 1_555
O36 Sn4 2.004302 1_554
O37 Si12 1.658733 1_555
O37 Sn5 1.956522 1_554
O38 S7 1.503790 1_555
O38 Sn4 2.301248 1_554
O39 S8 1.504132 1_555
O39 Sn5 2.297755 1_554
O40 S9 1.509883 1_555
O40 Sn4 2.110686 1_554
O41 S10 1.512923 1_555
O41 Sn5 2.161979 1_554
O42 Si8 1.662792 1_555
O42 Sn6 1.963851 1_555
O43 Si9 1.676682 1_555
O43 Sn7 2.008139 1_555
O44 S6 1.517325 1_555
O44 Sn6 2.155415 1_555
O45 Si10 1.674972 1_555
O45 Sn7 2.011442 1_555
O46 S4 1.507611 1_555
O46 Sn6 2.253355 1_555
O47 S5 1.513784 1_555
O47 Sn7 2.307934 1_555
O48 S11 1.464697 1_555
O49 S12 1.468173 1_555
O50 Si13 1.612808 1_555
O51 Si14 1.594856 1_555
O52 Si15 1.612201 1_555
O53 Si16 1.607889 1_555
O54 S13 1.470469 1_555
O55 S14 1.467531 1_555
O56 Si17 1.609812 1_555
O57 Si18 1.622253 1_555
O58 Si19 1.615653 1_555
O59 Si20 1.592137 1_555
O60 Si19 1.677498 1_555
O60 Sn8 2.033768 1_555
O61 Si20 1.679395 1_555
O61 Sn9 2.050360 1_555
O62 S13 1.485146 1_555
O62 Sn8 2.250726 1_555
O63 S14 1.491770 1_555
O63 Sn9 2.249479 1_555
O64 Si17 1.674447 1_555
O64 Sn8 2.006224 1_555
O65 Si18 1.670665 1_555
O65 Sn9 1.997571 1_555
O66 Si13 1.661856 1_555
O66 Sn10 2.027156 1_555
O67 Si14 1.689428 1_555
O67 Sn11 2.052825 1_555
O68 Si15 1.652701 1_555
O68 Sn10 2.009485 1_555
O69 Si16 1.679803 1_555
O69 Sn11 2.005255 1_555
O70 S11 1.499935 1_555
O70 Sn10 2.243194 1_555
O71 S12 1.485777 1_555
O71 Sn11 2.255400 1_555
O72 Si19 1.623746 1_655
O73 Si20 1.623720 1_555
O74 S13 1.479038 1_555
O75 S14 1.484505 1_555
O76 Si17 1.626158 1_555
O77 Si18 1.628343 1_555
O78 Si13 1.631360 1_655
O79 Si14 1.607968 1_555
O80 Si15 1.657645 1_555
O81 Si16 1.625315 1_555
O82 S11 1.462629 1_555
O83 S12 1.486444 1_555
O84 S4 1.492376 1_555
O84 Sn1 2.326216 1_545
O85 S5 1.491089 1_555
O85 Sn0 2.308638 1_545
O86 Si8 1.674568 1_555
O86 Sn0 2.062858 1_445
O87 Si9 1.691522 1_555
O87 Sn1 2.038444 1_545
O88 S6 1.505940 1_555
O88 Sn1 2.196742 1_555
O89 Si10 1.657396 1_555
O89 Sn0 2.052592 1_555
O90 S7 1.493972 1_555
O90 Sn3 2.256924 1_565
O91 S8 1.497840 1_555
O91 Sn2 2.276966 1_665
O92 S9 1.501526 1_555
O92 Sn3 2.166956 1_555
O93 S10 1.509716 1_555
O93 Sn2 2.178428 1_655
O94 Si11 1.687182 1_555
O94 Sn2 2.016232 1_555
O95 Si12 1.678870 1_555
O95 Sn3 2.002416 1_555
O96 Si6 1.653323 1_545
O97 Si7 1.634199 1_545
O98 S2 1.483398 1_555
O99 S3 1.458039 1_555
O100 Si5 1.634565 1_555
O101 Si4 1.608563 1_555
O102 Si0 1.654433 1_555
O103 Si1 1.655070 1_555
O104 Si3 1.634268 1_555
O105 Si2 1.633330 1_555
O106 S0 1.470771 1_545
O107 S1 1.469704 1_545
O108 S11 1.512225 1_555
O108 Sn4 2.253638 1_555
O109 S12 1.503085 1_555
O109 Sn5 2.185453 1_555
O110 Si14 1.710554 1_555
O110 Sn4 2.027580 1_555
O111 Si13 1.685716 1_655
O111 Sn5 2.058813 1_555
O112 Si15 1.661542 1_545
O112 Sn4 2.013945 1_555
O113 Si16 1.669994 1_545
O113 Sn5 2.003163 1_555
O114 S13 1.498641 1_545
O114 Sn6 2.220409 1_555
O115 S14 1.495781 1_545
O115 Sn7 2.283086 1_555
O116 Si17 1.662140 1_555
O116 Sn6 2.012929 1_555
O117 Si18 1.656586 1_555
O117 Sn7 2.025224 1_555
O118 Si20 1.707298 1_555
O118 Sn6 2.057579 1_555
O119 Si19 1.693370 1_655
O119 Sn7 2.090874 1_555
O120 Si11 1.630177 1_555
O121 Si12 1.628958 1_555
O122 S8 1.468237 1_455
O123 S7 1.468878 1_555
O124 S9 1.462945 1_565
O125 S10 1.461540 1_565
O126 Si8 1.651608 1_565
O127 Si9 1.620030 1_565
O128 S6 1.469173 1_555
O129 Si10 1.637299 1_555
O130 S5 1.470648 1_455
O131 S4 1.478301 1_555
O132 S0 1.487395 1_555
O132 Sn8 2.235512 1_555
O133 S1 1.487845 1_555
O133 Sn9 2.221797 1_555
O134 Si0 1.664003 1_555
O134 Sn8 2.050767 1_555
O135 Si1 1.665113 1_555
O135 Sn9 2.058268 1_555
O136 Si2 1.683042 1_455
O136 Sn8 2.047738 1_555
O137 Si3 1.682600 1_555
O137 Sn9 2.051815 1_555
O138 S2 1.478500 1_555
O138 Sn10 2.269625 1_555
O139 S3 1.493843 1_555
O139 Sn11 2.271250 1_555
O140 Si4 1.667487 1_455
O140 Sn10 2.026073 1_555
O141 Si5 1.674420 1_555
O141 Sn11 2.050390 1_555
O142 Si6 1.654091 1_555
O142 Sn10 2.059478 1_555
O143 Si7 1.681253 1_555
O143 Sn11 2.056319 1_555
