# generated using pymatgen
data_YbIn5Co
_symmetry_space_group_name_H-M   'P 1'
_cell_length_a   4.52382166
_cell_length_b   4.52382166
_cell_length_c   7.39503681
_cell_angle_alpha   90.00000000
_cell_angle_beta   90.00000000
_cell_angle_gamma   90.00000000
_symmetry_Int_Tables_number   1
_chemical_formula_structural   YbIn5Co
_chemical_formula_sum   'Yb1 In5 Co1'
_cell_volume   151.33915065
_cell_formula_units_Z   1
loop_
 _symmetry_equiv_pos_site_id
 _symmetry_equiv_pos_as_xyz
  1  'x, y, z'
loop_
 _atom_site_type_symbol
 _atom_site_label
 _atom_site_symmetry_multiplicity
 _atom_site_fract_x
 _atom_site_fract_y
 _atom_site_fract_z
 _atom_site_occupancy
  Yb  Yb0  1  0.00000000  0.00000000  0.00000000  1
  In  In0  1  0.00000000  0.50000000  0.30524510  1
  In  In1  1  0.00000000  0.50000000  0.69475490  1
  In  In2  1  0.50000000  0.00000000  0.69475490  1
  In  In3  1  0.50000000  0.00000000  0.30524510  1
  In  In4  1  0.50000000  0.50000000  0.00000000  1
  Co  Co0  1  0.00000000  0.00000000  0.50000000  1
loop_
_geom_bond_atom_site_label_1
_geom_bond_atom_site_label_2
_geom_bond_distance
_geom_bond_site_symmetry_2
In0 In1 2.880439 1_555
In0 Yb0 3.195565 1_555
In0 In4 3.195565 1_455
In0 In4 3.195565 1_555
In0 Yb0 3.195565 1_565
In0 In3 3.198825 1_465
In0 In3 3.198825 1_565
In0 In3 3.198825 1_455
In0 In3 3.198825 1_555
In1 Yb0 3.195565 1_556
In1 Yb0 3.195565 1_566
In1 In4 3.195565 1_556
In1 In4 3.195565 1_456
In1 In2 3.198825 1_555
In1 In2 3.198825 1_455
In1 In2 3.198825 1_465
In1 In2 3.198825 1_565
In2 In3 2.880439 1_555
In2 Yb0 3.195565 1_556
In2 In4 3.195565 1_556
In2 Yb0 3.195565 1_656
In2 In4 3.195565 1_546
In3 Yb0 3.195565 1_555
In3 Yb0 3.195565 1_655
In3 In4 3.195565 1_545
In3 In4 3.195565 1_555
In4 Yb0 3.198825 1_655
In4 Yb0 3.198825 1_565
In4 Yb0 3.198825 1_665
In4 Yb0 3.198825 1_555
Co0 In1 2.681506 1_555
Co0 In1 2.681506 1_545
Co0 In2 2.681506 1_455
Co0 In2 2.681506 1_555
Co0 In3 2.681506 1_455
Co0 In0 2.681506 1_555
Co0 In3 2.681506 1_555
Co0 In0 2.681506 1_545
