# generated using pymatgen
data_Zn3P2
_symmetry_space_group_name_H-M   'P 1'
_cell_length_a   8.03636072
_cell_length_b   8.03635766
_cell_length_c   11.32002924
_cell_angle_alpha   90.00000000
_cell_angle_beta   90.00000000
_cell_angle_gamma   90.00000000
_symmetry_Int_Tables_number   1
_chemical_formula_structural   Zn3P2
_chemical_formula_sum   'Zn24 P16'
_cell_volume   731.08222984
_cell_formula_units_Z   8
loop_
 _symmetry_equiv_pos_site_id
 _symmetry_equiv_pos_as_xyz
  1  'x, y, z'
loop_
 _atom_site_type_symbol
 _atom_site_label
 _atom_site_symmetry_multiplicity
 _atom_site_fract_x
 _atom_site_fract_y
 _atom_site_fract_z
 _atom_site_occupancy
  Zn  Zn0  1  0.24999900  0.96750844  0.85647380  1
  Zn  Zn1  1  0.53249156  0.24999900  0.35647280  1
  Zn  Zn2  1  0.96750744  0.25000000  0.35647380  1
  Zn  Zn3  1  0.75000000  0.03249156  0.14352620  1
  Zn  Zn4  1  0.75000000  0.46750844  0.14352620  1
  Zn  Zn5  1  0.24999900  0.53249156  0.85647380  1
  Zn  Zn6  1  0.46750744  0.75000000  0.64352620  1
  Zn  Zn7  1  0.03249156  0.75000100  0.64352720  1
  Zn  Zn8  1  0.25000000  0.03258463  0.13497068  1
  Zn  Zn9  1  0.46741537  0.25000000  0.63497068  1
  Zn  Zn10  1  0.03258463  0.25000000  0.63497068  1
  Zn  Zn11  1  0.75000000  0.96741537  0.86502932  1
  Zn  Zn12  1  0.75000000  0.53258463  0.86502832  1
  Zn  Zn13  1  0.25000000  0.46741537  0.13497168  1
  Zn  Zn14  1  0.53258463  0.75000000  0.36502832  1
  Zn  Zn15  1  0.96741537  0.75000000  0.36502932  1
  Zn  Zn16  1  0.25000000  0.99673638  0.39755491  1
  Zn  Zn17  1  0.50326362  0.25000000  0.89755491  1
  Zn  Zn18  1  0.99673538  0.25000000  0.89755491  1
  Zn  Zn19  1  0.75000000  0.00326362  0.60244509  1
  Zn  Zn20  1  0.75000000  0.49673638  0.60244509  1
  Zn  Zn21  1  0.25000000  0.50326362  0.39755491  1
  Zn  Zn22  1  0.49673538  0.75000000  0.10244509  1
  Zn  Zn23  1  0.00326362  0.75000000  0.10244509  1
  P  P0  1  0.25000000  0.75000000  0.99613197  1
  P  P1  1  0.75000000  0.25000000  0.49613197  1
  P  P2  1  0.75000000  0.25000000  0.00386803  1
  P  P3  1  0.25000000  0.75000000  0.50386803  1
  P  P4  1  0.25000000  0.25000000  0.99574359  1
  P  P5  1  0.25000100  0.25000000  0.49574359  1
  P  P6  1  0.75000000  0.75000000  0.00425641  1
  P  P7  1  0.75000100  0.75000000  0.50425641  1
  P  P8  1  0.50414459  0.00414359  0.75000000  1
  P  P9  1  0.49585641  0.50414359  0.25000000  1
  P  P10  1  0.00414459  0.99585641  0.25000000  1
  P  P11  1  0.99585641  0.49585541  0.75000000  1
  P  P12  1  0.49585641  0.99585541  0.25000000  1
  P  P13  1  0.50414359  0.49585641  0.75000000  1
  P  P14  1  0.99585641  0.00414459  0.75000000  1
  P  P15  1  0.00414459  0.50414359  0.25000000  1
loop_
_geom_bond_atom_site_label_1
_geom_bond_atom_site_label_2
_geom_bond_distance
_geom_bond_site_symmetry_2
P0 Zn22 2.319493 1_556
P0 Zn23 2.319500 1_556
P0 Zn0 2.356857 1_555
P0 Zn5 2.356857 1_555
P0 Zn8 2.761762 1_566
P0 Zn13 2.761768 1_556
P1 Zn19 2.319499 1_555
P1 Zn20 2.319499 1_555
P1 Zn2 2.356851 1_555
P1 Zn1 2.356865 1_555
P1 Zn9 2.761763 1_555
P1 Zn10 2.761763 1_655
P2 Zn18 2.319493 1_554
P2 Zn17 2.319500 1_554
P2 Zn4 2.356857 1_555
P2 Zn3 2.356857 1_555
P2 Zn11 2.761762 1_544
P2 Zn12 2.761768 1_554
P3 Zn21 2.319499 1_555
P3 Zn16 2.319499 1_555
P3 Zn6 2.356851 1_555
P3 Zn7 2.356865 1_555
P3 Zn15 2.761763 1_455
P3 Zn14 2.761769 1_555
P4 Zn17 2.319040 1_555
P4 Zn18 2.319047 1_455
P4 Zn8 2.353031 1_556
P4 Zn13 2.353038 1_556
P4 Zn0 2.763927 1_545
P4 Zn5 2.763927 1_555
P5 Zn16 2.319040 1_545
P5 Zn21 2.319040 1_555
P5 Zn9 2.353025 1_555
P5 Zn10 2.353037 1_555
P5 Zn1 2.763928 1_555
P5 Zn2 2.763941 1_455
P6 Zn23 2.319040 1_655
P6 Zn22 2.319047 1_555
P6 Zn11 2.353031 1_554
P6 Zn12 2.353038 1_554
P6 Zn3 2.763927 1_565
P6 Zn4 2.763927 1_555
P7 Zn20 2.319040 1_555
P7 Zn19 2.319040 1_565
P7 Zn15 2.353025 1_555
P7 Zn14 2.353045 1_555
P7 Zn7 2.763928 1_655
P7 Zn6 2.763941 1_555
P8 Zn11 2.384616 1_545
P8 Zn9 2.384623 1_555
P8 Zn6 2.389719 1_545
P8 Zn0 2.389731 1_545
P8 Zn19 2.587229 1_555
P8 Zn17 2.587235 1_555
P9 Zn14 2.384616 1_555
P9 Zn13 2.384617 1_555
P9 Zn4 2.389718 1_555
P9 Zn1 2.389718 1_555
P9 Zn22 2.587235 1_555
P9 Zn21 2.587236 1_555
P10 Zn8 2.384616 1_565
P10 Zn15 2.384623 1_455
P10 Zn2 2.389719 1_465
P10 Zn3 2.389724 1_465
P10 Zn16 2.587229 1_555
P10 Zn23 2.587235 1_555
P11 Zn10 2.384615 1_655
P11 Zn12 2.384618 1_555
P11 Zn5 2.389712 1_655
P11 Zn7 2.389725 1_655
P11 Zn18 2.587229 1_555
P11 Zn20 2.587236 1_555
P12 Zn14 2.384609 1_555
P12 Zn8 2.384624 1_565
P12 Zn1 2.389711 1_565
P12 Zn3 2.389719 1_565
P12 Zn22 2.587229 1_555
P12 Zn16 2.587236 1_555
P13 Zn12 2.384617 1_555
P13 Zn9 2.384622 1_555
P13 Zn6 2.389718 1_555
P13 Zn5 2.389724 1_555
P13 Zn17 2.587235 1_555
P13 Zn20 2.587236 1_555
P14 Zn10 2.384615 1_655
P14 Zn11 2.384624 1_545
P14 Zn7 2.389711 1_645
P14 Zn0 2.389712 1_645
P14 Zn18 2.587229 1_555
P14 Zn19 2.587236 1_555
P15 Zn13 2.384610 1_555
P15 Zn15 2.384623 1_455
P15 Zn2 2.389719 1_455
P15 Zn4 2.389724 1_455
P15 Zn21 2.587229 1_555
P15 Zn23 2.587235 1_555
