# generated using pymatgen
data_TaCr2
_symmetry_space_group_name_H-M   'P 1'
_cell_length_a   4.87756070
_cell_length_b   4.87756118
_cell_length_c   4.87756143
_cell_angle_alpha   60.00000515
_cell_angle_beta   60.00000187
_cell_angle_gamma   59.99999251
_symmetry_Int_Tables_number   1
_chemical_formula_structural   TaCr2
_chemical_formula_sum   'Ta2 Cr4'
_cell_volume   82.05275286
_cell_formula_units_Z   2
loop_
 _symmetry_equiv_pos_site_id
 _symmetry_equiv_pos_as_xyz
  1  'x, y, z'
loop_
 _atom_site_type_symbol
 _atom_site_label
 _atom_site_symmetry_multiplicity
 _atom_site_fract_x
 _atom_site_fract_y
 _atom_site_fract_z
 _atom_site_occupancy
  Ta  Ta0  1  0.12500000  0.12500000  0.12500000  1
  Ta  Ta1  1  0.87500000  0.87500000  0.87500000  1
  Cr  Cr0  1  0.50000000  0.00000000  0.50000000  1
  Cr  Cr1  1  0.00000000  0.50000000  0.50000000  1
  Cr  Cr2  1  0.50000000  0.50000000  0.50000000  1
  Cr  Cr3  1  0.50000000  0.50000000  -0.00000000  1
loop_
_geom_bond_atom_site_label_1
_geom_bond_atom_site_label_2
_geom_bond_distance
_geom_bond_site_symmetry_2
Ta0 Ta1 2.986884 1_544
Ta0 Ta1 2.986884 1_454
Ta0 Ta1 2.986884 1_444
Ta0 Ta1 2.986884 1_445
Cr0 Cr1 2.438780 1_555
Cr0 Cr1 2.438780 1_645
Cr0 Cr2 2.438781 1_555
Cr0 Cr2 2.438781 1_545
Cr0 Cr3 2.438781 1_546
Cr0 Cr3 2.438781 1_555
Cr0 Ta1 2.859724 1_545
Cr0 Ta0 2.859724 1_555
Cr0 Ta0 2.859724 1_655
Cr0 Ta1 2.859724 1_445
Cr0 Ta1 2.859724 1_544
Cr0 Ta0 2.859724 1_556
Cr1 Cr2 2.438780 1_455
Cr1 Cr2 2.438780 1_555
Cr1 Cr3 2.438781 1_555
Cr1 Cr3 2.438781 1_456
Cr1 Ta1 2.859724 1_455
Cr1 Ta0 2.859724 1_555
Cr1 Ta0 2.859724 1_556
Cr1 Ta1 2.859724 1_454
Cr1 Ta0 2.859724 1_565
Cr1 Ta1 2.859724 1_445
Cr2 Cr3 2.438781 1_555
Cr2 Cr3 2.438781 1_556
Cr2 Ta1 2.859723 1_455
Cr2 Ta0 2.859723 1_655
Cr2 Ta1 2.859724 1_545
Cr2 Ta0 2.859724 1_565
Cr2 Ta1 2.859724 1_554
Cr2 Ta0 2.859724 1_556
Cr3 Ta1 2.859723 1_454
Cr3 Ta0 2.859723 1_655
Cr3 Ta0 2.859723 1_565
Cr3 Ta1 2.859723 1_544
Cr3 Ta0 2.859724 1_555
Cr3 Ta1 2.859724 1_554
