# generated using pymatgen
data_GdClO
_symmetry_space_group_name_H-M   'P 1'
_cell_length_a   3.94284455
_cell_length_b   3.94284455
_cell_length_c   6.71801687
_cell_angle_alpha   90.00000000
_cell_angle_beta   90.00000000
_cell_angle_gamma   90.00000000
_symmetry_Int_Tables_number   1
_chemical_formula_structural   GdClO
_chemical_formula_sum   'Gd2 Cl2 O2'
_cell_volume   104.43844575
_cell_formula_units_Z   2
loop_
 _symmetry_equiv_pos_site_id
 _symmetry_equiv_pos_as_xyz
  1  'x, y, z'
loop_
 _atom_site_type_symbol
 _atom_site_label
 _atom_site_symmetry_multiplicity
 _atom_site_fract_x
 _atom_site_fract_y
 _atom_site_fract_z
 _atom_site_occupancy
  Gd  Gd0  1  0.75000000  0.75000000  0.82878042  1
  Gd  Gd1  1  0.25000000  0.25000000  0.17121958  1
  Cl  Cl0  1  0.25000000  0.25000000  0.62873015  1
  Cl  Cl1  1  0.75000000  0.75000000  0.37126985  1
  O  O0  1  0.75000000  0.25000000  0.00000000  1
  O  O1  1  0.25000000  0.75000000  0.00000000  1
loop_
_geom_bond_atom_site_label_1
_geom_bond_atom_site_label_2
_geom_bond_distance
_geom_bond_site_symmetry_2
Gd0 O0 2.282454 1_556
Gd0 O1 2.282454 1_556
Gd0 O0 2.282454 1_566
Gd0 O1 2.282454 1_656
Gd1 O1 2.282454 1_555
Gd1 O1 2.282454 1_545
Gd1 O0 2.282454 1_455
Gd1 O0 2.282454 1_555
Cl0 Gd1 3.073564 1_555
Cl0 Gd0 3.095027 1_545
Cl0 Gd0 3.095027 1_445
Cl0 Gd0 3.095027 1_455
Cl0 Gd0 3.095027 1_555
Cl1 Gd0 3.073564 1_555
Cl1 Gd1 3.095027 1_565
Cl1 Gd1 3.095027 1_655
Cl1 Gd1 3.095027 1_555
Cl1 Gd1 3.095027 1_665
