# generated using pymatgen
data_MgZrTi(PbO3)2
_symmetry_space_group_name_H-M   'P 1'
_cell_length_a   3.94989131
_cell_length_b   6.79599677
_cell_length_c   6.79599677
_cell_angle_alpha   74.22677718
_cell_angle_beta   89.56961737
_cell_angle_gamma   89.56961737
_symmetry_Int_Tables_number   1
_chemical_formula_structural   MgZrTi(PbO3)2
_chemical_formula_sum   'Mg1 Zr1 Ti1 Pb2 O6'
_cell_volume   175.55090086
_cell_formula_units_Z   1
loop_
 _symmetry_equiv_pos_site_id
 _symmetry_equiv_pos_as_xyz
  1  'x, y, z'
loop_
 _atom_site_type_symbol
 _atom_site_label
 _atom_site_symmetry_multiplicity
 _atom_site_fract_x
 _atom_site_fract_y
 _atom_site_fract_z
 _atom_site_occupancy
  Mg  Mg0  1  0.11420405  0.24422071  0.74422071  1
  Zr  Zr0  1  0.60372300  0.50067327  0.00067327  1
  Ti  Ti0  1  0.58779790  0.04386796  0.54386796  1
  Pb  Pb0  1  0.02595882  0.99142319  0.14154545  1
  Pb  Pb1  1  0.02595882  0.64154545  0.49142319  1
  O  O0  1  0.60408434  0.19232622  0.24515106  1
  O  O1  1  0.61471569  0.21742762  0.71742762  1
  O  O2  1  0.61018607  0.67750404  0.17750404  1
  O  O3  1  0.60408434  0.74515106  0.69232622  1
  O  O4  1  0.12199780  0.05822999  0.55822999  1
  O  O5  1  0.10684717  0.43763049  0.93763049  1
loop_
_geom_bond_atom_site_label_1
_geom_bond_atom_site_label_2
_geom_bond_distance
_geom_bond_site_symmetry_2
Mg0 O1 1.995474 1_555
Mg0 O1 1.996888 1_455
Mg0 O4 2.015869 1_555
Mg0 O5 2.096265 1_555
Mg0 Pb0 2.799472 1_546
Mg0 Pb1 2.799472 1_555
O0 Ti0 2.007181 1_555
O0 Zr0 2.293221 1_555
O0 Pb0 2.368014 1_645
O1 Ti0 1.885187 1_555
O2 Zr0 1.917051 1_555
O2 Pb0 2.659185 1_655
O2 Pb1 2.659185 1_655
O3 Ti0 2.007181 1_565
O3 Zr0 2.293221 1_556
O3 Pb1 2.368014 1_655
O4 Ti0 1.844972 1_555
O4 Ti0 2.117228 1_455
O5 Zr0 2.084226 1_556
O5 Zr0 2.095384 1_456
