# generated using pymatgen
data_Li2MgBr4
_symmetry_space_group_name_H-M   'P 1'
_cell_length_a   3.86481958
_cell_length_b   6.71016100
_cell_length_c   6.71016221
_cell_angle_alpha   109.44056061
_cell_angle_beta   90.00000000
_cell_angle_gamma   90.00000000
_symmetry_Int_Tables_number   1
_chemical_formula_structural   Li2MgBr4
_chemical_formula_sum   'Li2 Mg1 Br4'
_cell_volume   164.09714264
_cell_formula_units_Z   1
loop_
 _symmetry_equiv_pos_site_id
 _symmetry_equiv_pos_as_xyz
  1  'x, y, z'
loop_
 _atom_site_type_symbol
 _atom_site_label
 _atom_site_symmetry_multiplicity
 _atom_site_fract_x
 _atom_site_fract_y
 _atom_site_fract_z
 _atom_site_occupancy
  Li  Li0  1  0.50000000  0.50000000  0.00000000  1
  Li  Li1  1  0.50000000  -0.00000000  0.50000000  1
  Mg  Mg0  1  -0.00000000  -0.00000000  0.00000000  1
  Br  Br0  1  0.50000000  0.23976181  0.23976181  1
  Br  Br1  1  0.50000000  0.76023919  0.76023919  1
  Br  Br2  1  -0.00000000  0.24349349  0.75650651  1
  Br  Br3  1  -0.00000000  0.75650651  0.24349349  1
loop_
_geom_bond_atom_site_label_1
_geom_bond_atom_site_label_2
_geom_bond_distance
_geom_bond_site_symmetry_2
Br0 Mg0 2.681040 1_555
Br0 Mg0 2.681040 1_655
Br0 Li0 2.740043 1_555
Br0 Li1 2.740043 1_555
Br1 Mg0 2.681035 1_566
Br1 Mg0 2.681035 1_666
Br1 Li0 2.740043 1_556
Br1 Li1 2.740043 1_565
Br2 Mg0 2.667611 1_556
Br2 Li0 2.737575 1_456
Br2 Li0 2.737575 1_556
Br2 Li1 2.737575 1_555
Br2 Li1 2.737575 1_455
Br3 Mg0 2.667611 1_565
Br3 Li0 2.737575 1_455
Br3 Li0 2.737575 1_555
Br3 Li1 2.737575 1_565
Br3 Li1 2.737575 1_465
