# generated using pymatgen
data_BaMgMnV2(AgO4)2
_symmetry_space_group_name_H-M   'P 1'
_cell_length_a   5.70289713
_cell_length_b   6.14713254
_cell_length_c   7.64685611
_cell_angle_alpha   97.61148262
_cell_angle_beta   89.23929720
_cell_angle_gamma   122.25238474
_symmetry_Int_Tables_number   1
_chemical_formula_structural   BaMgMnV2(AgO4)2
_chemical_formula_sum   'Ba1 Mg1 Mn1 V2 Ag2 O8'
_cell_volume   224.18463941
_cell_formula_units_Z   1
loop_
 _symmetry_equiv_pos_site_id
 _symmetry_equiv_pos_as_xyz
  1  'x, y, z'
loop_
 _atom_site_type_symbol
 _atom_site_label
 _atom_site_symmetry_multiplicity
 _atom_site_fract_x
 _atom_site_fract_y
 _atom_site_fract_z
 _atom_site_occupancy
  Ba  Ba0  1  0.05940690  0.15741550  0.94860968  1
  Mg  Mg0  1  0.03171516  0.67925456  0.13500450  1
  Mn  Mn0  1  0.98345097  0.98117427  0.49846751  1
  V  V0  1  0.63125822  0.24815082  0.25605528  1
  V  V1  1  0.33299550  0.71055089  0.74807180  1
  Ag  Ag0  1  0.34735868  0.54603898  0.36867079  1
  Ag  Ag1  1  0.68235076  0.36697060  0.69327012  1
  O  O0  1  0.70841571  0.32832898  0.02773632  1
  O  O1  1  0.31716523  0.68115513  0.98407633  1
  O  O2  1  0.76909242  0.60340686  0.33725964  1
  O  O3  1  0.89789087  0.19737394  0.31295837  1
  O  O4  1  0.26252856  0.02890729  0.26917582  1
  O  O5  1  0.27383250  0.38433566  0.66044051  1
  O  O6  1  0.65698137  0.95439680  0.66285385  1
  O  O7  1  0.08127115  0.79920472  0.70449149  1
loop_
_geom_bond_atom_site_label_1
_geom_bond_atom_site_label_2
_geom_bond_distance
_geom_bond_site_symmetry_2
Ba0 O5 2.686838 1_555
Ba0 O1 2.706980 1_555
Ba0 O0 2.742366 1_456
Ba0 O7 2.747157 1_545
Ba0 O6 2.820131 1_445
Ba0 O3 2.943348 1_456
Ba0 O4 3.088673 1_556
Ba0 O0 3.302995 1_556
Mg0 O4 1.958857 1_565
Mg0 O1 1.978778 1_554
Mg0 O0 2.012987 1_455
Mg0 O2 2.058341 1_455
Mn0 O2 2.158341 1_555
Mn0 O6 2.176971 1_555
Mn0 O7 2.280491 1_655
Mn0 O3 2.286174 1_565
Mn0 O4 2.292852 1_665
Mn0 O5 2.297695 1_665
Ag0 O2 2.251321 1_555
Ag0 O3 2.295449 1_455
Ag0 O5 2.501919 1_555
Ag1 O7 2.394984 1_655
Ag1 O5 2.406273 1_555
Ag1 O6 2.441326 1_545
Ag1 O0 2.613165 1_556
O0 V0 1.860342 1_555
O1 V1 1.833677 1_555
O2 V0 1.895809 1_555
O3 V0 1.777367 1_555
O4 V0 1.803820 1_555
O5 V1 1.874025 1_555
O6 V1 1.831993 1_555
O7 V1 1.834303 1_555
