# generated using pymatgen
data_Na2LiAlH6
_symmetry_space_group_name_H-M   'P 1'
_cell_length_a   5.12763287
_cell_length_b   5.15601755
_cell_length_c   7.27104558
_cell_angle_alpha   90.00000000
_cell_angle_beta   89.96849022
_cell_angle_gamma   90.00000000
_symmetry_Int_Tables_number   1
_chemical_formula_structural   Na2LiAlH6
_chemical_formula_sum   'Na4 Li2 Al2 H12'
_cell_volume   192.23307426
_cell_formula_units_Z   2
loop_
 _symmetry_equiv_pos_site_id
 _symmetry_equiv_pos_as_xyz
  1  'x, y, z'
loop_
 _atom_site_type_symbol
 _atom_site_label
 _atom_site_symmetry_multiplicity
 _atom_site_fract_x
 _atom_site_fract_y
 _atom_site_fract_z
 _atom_site_occupancy
  Na  Na0  1  0.49614706  0.02253390  0.74994386  1
  Na  Na1  1  0.00385294  0.52253390  0.75005614  1
  Na  Na2  1  0.50385294  0.97746610  0.25005614  1
  Na  Na3  1  0.99614706  0.47746610  0.24994386  1
  Li  Li0  1  -0.00000000  -0.00000000  0.50000000  1
  Li  Li1  1  0.50000000  0.50000000  0.00000000  1
  Al  Al0  1  -0.00000000  -0.00000000  0.00000000  1
  Al  Al1  1  0.50000000  0.50000000  0.50000000  1
  H  H0  1  0.70134678  0.23121313  0.46784527  1
  H  H1  1  0.79865322  0.73121313  0.03215473  1
  H  H2  1  0.29865322  0.76878687  0.53215473  1
  H  H3  1  0.20134678  0.26878687  0.96784527  1
  H  H4  1  0.73195778  0.20355923  0.02985632  1
  H  H5  1  0.76804222  0.70355923  0.47014368  1
  H  H6  1  0.26804222  0.79644077  0.97014368  1
  H  H7  1  0.23195778  0.29644077  0.52985632  1
  H  H8  1  0.05971972  0.01323873  0.23568231  1
  H  H9  1  0.44028028  0.51323873  0.26431769  1
  H  H10  1  0.94028028  0.98676127  0.76431769  1
  H  H11  1  0.55971972  0.48676127  0.73568231  1
loop_
_geom_bond_atom_site_label_1
_geom_bond_atom_site_label_2
_geom_bond_distance
_geom_bond_site_symmetry_2
Al0 H10 1.742305 1_444
Al0 H8 1.742305 1_555
Al0 H4 1.742814 1_455
Al0 H6 1.742814 1_544
Al0 H3 1.743831 1_554
Al0 H1 1.743831 1_445
Al1 H11 1.742305 1_555
Al1 H9 1.742305 1_555
Al1 H5 1.742814 1_555
Al1 H7 1.742814 1_555
Al1 H0 1.743831 1_555
Al1 H2 1.743831 1_555
H0 Li0 1.954837 1_655
H0 Na2 2.290553 1_545
H0 Na3 2.530754 1_555
H0 Na0 2.543546 1_555
H1 Li1 1.954837 1_555
H1 Na3 2.290553 1_555
H1 Na2 2.530754 1_555
H1 Na1 2.543546 1_654
H2 Li0 1.954837 1_565
H2 Na0 2.290553 1_565
H2 Na1 2.530754 1_555
H2 Na2 2.543546 1_555
H3 Li1 1.954837 1_556
H3 Na1 2.290553 1_555
H3 Na0 2.530754 1_555
H3 Na3 2.543546 1_456
H4 Li1 1.948908 1_555
H4 Na2 2.299654 1_545
H4 Na3 2.528410 1_555
H4 Na0 2.545231 1_554
H5 Li0 1.948908 1_665
H5 Na3 2.299654 1_555
H5 Na2 2.528410 1_555
H5 Na1 2.545231 1_655
H6 Li1 1.948908 1_556
H6 Na0 2.299654 1_565
H6 Na1 2.528410 1_555
H6 Na2 2.545231 1_556
H7 Li0 1.948908 1_555
H7 Na1 2.299654 1_555
H7 Na0 2.528410 1_555
H7 Na3 2.545231 1_455
H8 Li0 1.947139 1_555
H8 Na2 2.287255 1_545
H8 Na3 2.417877 1_455
H9 Li1 1.947139 1_555
H9 Na3 2.287255 1_455
H9 Na2 2.417877 1_555
H10 Li0 1.947139 1_665
H10 Na0 2.287255 1_565
H10 Na1 2.417877 1_655
H11 Li1 1.947139 1_556
H11 Na1 2.287255 1_655
H11 Na0 2.417877 1_555
