# generated using pymatgen
data_KIO3
_symmetry_space_group_name_H-M   'P 1'
_cell_length_a   7.67246903
_cell_length_b   7.69067194
_cell_length_c   7.68098005
_cell_angle_alpha   109.51812941
_cell_angle_beta   109.09692252
_cell_angle_gamma   109.38301585
_symmetry_Int_Tables_number   1
_chemical_formula_structural   KIO3
_chemical_formula_sum   'K4 I4 O12'
_cell_volume   350.66889374
_cell_formula_units_Z   4
loop_
 _symmetry_equiv_pos_site_id
 _symmetry_equiv_pos_as_xyz
  1  'x, y, z'
loop_
 _atom_site_type_symbol
 _atom_site_label
 _atom_site_symmetry_multiplicity
 _atom_site_fract_x
 _atom_site_fract_y
 _atom_site_fract_z
 _atom_site_occupancy
  K  K0  1  0.53445198  0.48599594  0.49159882  1
  K  K1  1  0.01171595  0.51902431  0.00101330  1
  K  K2  1  0.01419735  0.00135472  0.51278968  1
  K  K3  1  0.50763877  0.99678761  0.02402691  1
  I  I0  1  0.02194188  0.49897552  0.49508034  1
  I  I1  1  0.50895685  0.49566517  -0.00238925  1
  I  I2  1  0.51049128  0.99040538  0.51140320  1
  I  I3  1  0.00129602  0.00647821  0.00586752  1
  O  O0  1  0.85896775  0.53825215  0.29575553  1
  O  O1  1  0.81041163  0.28285419  0.47647532  1
  O  O2  1  0.11014132  0.34829476  0.34378988  1
  O  O3  1  0.35198726  0.27537754  0.01851272  1
  O  O4  1  0.54766943  0.35186375  0.78560092  1
  O  O5  1  0.29786829  0.53075192  0.84783310  1
  O  O6  1  0.34345987  0.84905310  0.59384662  1
  O  O7  1  0.54771993  0.78254734  0.35702383  1
  O  O8  1  0.84790768  0.08569584  0.84598755  1
  O  O9  1  0.97758129  0.78487635  0.79520402  1
  O  O10  1  0.80633227  0.85796318  0.05977967  1
  O  O11  1  0.30716620  0.97688103  0.29329932  1
loop_
_geom_bond_atom_site_label_1
_geom_bond_atom_site_label_2
_geom_bond_distance
_geom_bond_site_symmetry_2
K0 O2 2.738348 1_555
K0 O4 2.765896 1_555
K0 O7 2.787537 1_555
K0 O9 2.885133 1_555
K0 O3 3.003491 1_555
K0 O1 3.028610 1_555
K0 O11 3.230548 1_545
K0 O0 3.288486 1_555
K1 O8 2.773550 1_454
K1 O5 2.800426 1_554
K1 O0 2.854478 1_455
K1 O11 2.944011 1_555
K1 O4 2.958469 1_454
K1 O9 2.998689 1_454
K1 O2 3.300523 1_555
K2 O10 2.916232 1_445
K2 O0 2.966517 1_445
K2 O7 2.987939 1_445
K2 O6 3.092532 1_545
K2 O1 3.094232 1_455
K2 O9 3.171391 1_445
K2 O8 3.189843 1_455
K2 O11 3.237081 1_545
K2 O3 3.250266 1_556
K2 O2 3.313928 1_555
K2 O5 3.374631 1_555
K2 O4 3.420580 1_555
K3 O6 2.759243 1_554
K3 O3 2.782873 1_565
K3 O10 2.806322 1_555
K3 O1 2.920653 1_565
K3 O5 2.961844 1_554
K3 O11 2.967137 1_555
K3 O8 3.305968 1_564
I0 O2 1.812857 1_555
I0 O0 1.818198 1_455
I0 O1 1.821001 1_455
I0 O6 2.629015 1_555
I1 O4 1.815006 1_554
I1 O5 1.815952 1_554
I1 O3 1.816688 1_555
I2 O6 1.814224 1_555
I2 O7 1.816911 1_555
I2 O11 1.821190 1_555
I2 O8 2.640545 1_565
I3 O8 1.815057 1_454
I3 O10 1.816846 1_445
I3 O9 1.820633 1_444
I3 O2 2.628711 1_555
I3 O3 2.743573 1_555
