# generated using pymatgen
data_Na10Hf4Zn4Si5S7O48
_symmetry_space_group_name_H-M   'P 1'
_cell_length_a   18.08364437
_cell_length_b   9.13711476
_cell_length_c   22.68954413
_cell_angle_alpha   89.92010577
_cell_angle_beta   88.58243929
_cell_angle_gamma   120.34591980
_symmetry_Int_Tables_number   1
_chemical_formula_structural   Na10Hf4Zn4Si5S7O48
_chemical_formula_sum   'Na30 Hf12 Zn12 Si15 S21 O144'
_cell_volume   3233.98336419
_cell_formula_units_Z   3
loop_
 _symmetry_equiv_pos_site_id
 _symmetry_equiv_pos_as_xyz
  1  'x, y, z'
loop_
 _atom_site_type_symbol
 _atom_site_label
 _atom_site_symmetry_multiplicity
 _atom_site_fract_x
 _atom_site_fract_y
 _atom_site_fract_z
 _atom_site_occupancy
  Na  Na0  1  0.32495396  0.02777286  0.25033150  1
  Na  Na1  1  0.67655502  0.34617551  0.25244209  1
  Na  Na2  1  0.99636699  0.63155005  0.23916374  1
  Na  Na3  1  0.49776513  0.62559150  0.23801256  1
  Na  Na4  1  0.32271590  0.61899371  0.75335383  1
  Na  Na5  1  0.82245409  0.61868401  0.75205302  1
  Na  Na6  1  0.99598828  0.36805018  0.73808289  1
  Na  Na7  1  0.49648036  0.36852986  0.73830736  1
  Na  Na8  1  0.17664234  0.01036021  0.75055606  1
  Na  Na9  1  0.67757086  0.01092117  0.74962637  1
  Na  Na10  1  0.33280384  0.96752114  0.57157055  1
  Na  Na11  1  0.83246303  0.96799341  0.57065514  1
  Na  Na12  1  0.33336048  0.69834071  0.07146565  1
  Na  Na13  1  0.83098255  0.69719656  0.07052980  1
  Na  Na14  1  0.48296954  0.68431567  0.90940368  1
  Na  Na15  1  0.98311172  0.68461061  0.90839227  1
  Na  Na16  1  0.48497919  0.28447034  0.40725226  1
  Na  Na17  1  0.16367477  0.02879446  0.40603319  1
  Na  Na18  1  0.98777518  0.00620378  0.49200664  1
  Na  Na19  1  0.50057271  0.99663121  0.49128192  1
  Na  Na20  1  0.99750110  0.00551002  0.98974088  1
  Na  Na21  1  0.49657287  0.00036890  0.99239298  1
  Na  Na22  1  0.32465053  0.34132980  0.82850901  1
  Na  Na23  1  0.82460830  0.34101679  0.82752199  1
  Na  Na24  1  0.32688333  0.32717683  0.32208005  1
  Na  Na25  1  0.81930711  0.28382448  0.32980952  1
  Na  Na26  1  0.15393748  0.66172802  0.15512934  1
  Na  Na27  1  0.65195147  0.67179199  0.15810191  1
  Na  Na28  1  0.14801509  0.63501164  0.65660603  1
  Na  Na29  1  0.65005680  0.63753165  0.65536074  1
  Hf  Hf0  1  0.00701109  0.01206033  0.64794257  1
  Hf  Hf1  1  0.50807523  0.01383007  0.64808232  1
  Hf  Hf2  1  0.00494269  0.99296770  0.14682586  1
  Hf  Hf3  1  0.50727366  0.00180070  0.14866622  1
  Hf  Hf4  1  0.33485151  0.34648609  0.98154216  1
  Hf  Hf5  1  0.83503506  0.34546258  0.98090606  1
  Hf  Hf6  1  0.33816464  0.33132844  0.48164542  1
  Hf  Hf7  1  0.83716585  0.32082419  0.48000862  1
  Hf  Hf8  1  0.16874144  0.67552532  0.31623085  1
  Hf  Hf9  1  0.67086679  0.68604479  0.31328977  1
  Hf  Hf10  1  0.16769184  0.65642174  0.81517762  1
  Hf  Hf11  1  0.66761331  0.65664264  0.81533010  1
  Zn  Zn0  1  0.99629068  0.00681607  0.35042598  1
  Zn  Zn1  1  0.50103306  0.01359490  0.34681808  1
  Zn  Zn2  1  0.99801034  0.98550900  0.84764096  1
  Zn  Zn3  1  0.49808571  0.98545768  0.84814051  1
  Zn  Zn4  1  0.34395045  0.36004132  0.68329673  1
  Zn  Zn5  1  0.84386612  0.36041894  0.68265235  1
  Zn  Zn6  1  0.34047437  0.32851162  0.18436745  1
  Zn  Zn7  1  0.83524959  0.31992253  0.18134505  1
  Zn  Zn8  1  0.16482028  0.67057311  0.01636468  1
  Zn  Zn9  1  0.66368601  0.66925821  0.01636458  1
  Zn  Zn10  1  0.16241111  0.65165560  0.51628949  1
  Zn  Zn11  1  0.66713063  0.66017886  0.51542266  1
  Si  Si0  1  0.14654038  0.00528689  0.25497801  1
  Si  Si1  1  0.65049860  0.01018594  0.25139059  1
  Si  Si2  1  0.50100670  0.29738807  0.25291311  1
  Si  Si3  1  0.14678886  0.28841634  0.75206691  1
  Si  Si4  1  0.64698828  0.28890741  0.75238256  1
  Si  Si5  1  0.00078626  0.70536327  0.75304602  1
  Si  Si6  1  0.50087224  0.70567469  0.75309902  1
  Si  Si7  1  0.48543817  0.33811556  0.58450492  1
  Si  Si8  1  0.98399389  0.33676754  0.58549113  1
  Si  Si9  1  0.48422401  0.63115390  0.08495437  1
  Si  Si10  1  0.98302400  0.62286344  0.08599745  1
  Si  Si11  1  0.31544684  0.67633693  0.92093261  1
  Si  Si12  1  0.81542457  0.67697095  0.92105535  1
  Si  Si13  1  0.31492040  0.95415823  0.42191028  1
  Si  Si14  1  0.81671319  0.95562976  0.42048094  1
  S  S0  1  0.35242905  0.70788744  0.25134192  1
  S  S1  1  0.85438037  0.71069137  0.25108915  1
  S  S2  1  0.00139711  0.29358002  0.25114417  1
  S  S3  1  0.35330943  0.99734075  0.75098346  1
  S  S4  1  0.85335121  0.99734227  0.75139545  1
  S  S5  1  0.18677602  0.04207679  0.58531881  1
  S  S6  1  0.68724507  0.04218657  0.58596404  1
  S  S7  1  0.33400001  0.62987895  0.58522940  1
  S  S8  1  0.83417894  0.62927259  0.58488879  1
  S  S9  1  0.33392689  0.03919216  0.08514321  1
  S  S10  1  0.83492447  0.04051983  0.08463673  1
  S  S11  1  0.18771024  0.33191032  0.08673768  1
  S  S12  1  0.68611080  0.33223700  0.08562790  1
  S  S13  1  0.01913189  0.36911121  0.91898900  1
  S  S14  1  0.51862764  0.36827435  0.91883295  1
  S  S15  1  0.16971495  0.96305747  0.91751296  1
  S  S16  1  0.66998908  0.96365002  0.91739319  1
  S  S17  1  0.16812746  0.37440405  0.41836384  1
  S  S18  1  0.67029263  0.37656912  0.41707128  1
  S  S19  1  0.01881802  0.66424798  0.41854730  1
  S  S20  1  0.52067281  0.67100709  0.41789276  1
  O  O0  1  0.10069406  0.01760219  0.31507188  1
  O  O1  1  0.60437275  0.03879775  0.30788824  1
  O  O2  1  0.40412533  0.78814543  0.30238480  1
  O  O3  1  0.90758745  0.79424874  0.30082266  1
  O  O4  1  0.47888456  0.18509403  0.31288857  1
  O  O5  1  0.99012021  0.19553030  0.30445025  1
  O  O6  1  0.10080236  0.16839762  0.80849159  1
  O  O7  1  0.60044452  0.16800885  0.80845339  1
  O  O8  1  0.47964234  0.77297690  0.81320467  1
  O  O9  1  0.98009378  0.77331083  0.81323951  1
  O  O10  1  0.40595797  0.02534030  0.80160532  1
  O  O11  1  0.90595786  0.02522371  0.80206343  1
  O  O12  1  0.39191152  0.96911324  0.69561807  1
  O  O13  1  0.89208589  0.96921118  0.69614269  1
  O  O14  1  0.08392606  0.20772434  0.69418495  1
  O  O15  1  0.58409705  0.20904186  0.69430578  1
  O  O16  1  0.01469629  0.83567638  0.69705722  1
  O  O17  1  0.51418765  0.83568774  0.69705336  1
  O  O18  1  0.39101280  0.81538357  0.19611084  1
  O  O19  1  0.89223650  0.81421260  0.19483790  1
  O  O20  1  0.01098111  0.20963489  0.19713677  1
  O  O21  1  0.51339312  0.19173570  0.19726084  1
  O  O22  1  0.08065557  0.96608065  0.19874202  1
  O  O23  1  0.58677138  0.96690617  0.19359674  1
  O  O24  1  0.43850271  0.34781390  0.64491554  1
  O  O25  1  0.93987964  0.34780550  0.64711276  1
  O  O26  1  0.23575377  0.12627584  0.63765260  1
  O  O27  1  0.73429744  0.12285624  0.63942296  1
  O  O28  1  0.32238704  0.53443656  0.64044082  1
  O  O29  1  0.82300468  0.53530267  0.64066809  1
  O  O30  1  0.43761574  0.52763820  0.14525126  1
  O  O31  1  0.93666419  0.51941364  0.14670030  1
  O  O32  1  0.32303718  0.11178861  0.14029072  1
  O  O33  1  0.82259935  0.11510470  0.13824121  1
  O  O34  1  0.23803401  0.34648232  0.13763506  1
  O  O35  1  0.73429831  0.34870270  0.13876267  1
  O  O36  1  0.22678723  0.30507768  0.03115962  1
  O  O37  1  0.73056636  0.30984888  0.03226037  1
  O  O38  1  0.41894794  0.53063461  0.02796827  1
  O  O39  1  0.91851817  0.52910491  0.02911518  1
  O  O40  1  0.34110778  0.14539795  0.03271207  1
  O  O41  1  0.84437031  0.14506337  0.03107328  1
  O  O42  1  0.22967181  0.14942939  0.53035446  1
  O  O43  1  0.73087764  0.15101433  0.53236571  1
  O  O44  1  0.34169792  0.53707045  0.53304398  1
  O  O45  1  0.84247833  0.53923283  0.53298964  1
  O  O46  1  0.42011857  0.30854422  0.52750579  1
  O  O47  1  0.91741606  0.30678932  0.53057585  1
  O  O48  1  0.26694005  0.68296754  0.98067482  1
  O  O49  1  0.76685720  0.68362021  0.98070079  1
  O  O50  1  0.06920163  0.45381779  0.97007731  1
  O  O51  1  0.56894255  0.45311867  0.96972633  1
  O  O52  1  0.15543185  0.85229326  0.96849895  1
  O  O53  1  0.65626928  0.85334918  0.96826439  1
  O  O54  1  0.26430568  0.84828945  0.48060599  1
  O  O55  1  0.77208239  0.85446287  0.48187386  1
  O  O56  1  0.15687745  0.45097651  0.47110784  1
  O  O57  1  0.65554386  0.45842869  0.46791997  1
  O  O58  1  0.07155177  0.68271081  0.46832078  1
  O  O59  1  0.57002916  0.68617200  0.46939730  1
  O  O60  1  0.05796620  0.63570230  0.36239241  1
  O  O61  1  0.55936633  0.63703997  0.36302197  1
  O  O62  1  0.25230921  0.86313183  0.36305201  1
  O  O63  1  0.75371179  0.85700886  0.36436480  1
  O  O64  1  0.17717992  0.47842380  0.36406833  1
  O  O65  1  0.67992588  0.47487234  0.36101082  1
  O  O66  1  0.05890929  0.48111685  0.86381375  1
  O  O67  1  0.55842931  0.48098043  0.86362258  1
  O  O68  1  0.17944257  0.88278929  0.86155843  1
  O  O69  1  0.68031988  0.88454045  0.86137307  1
  O  O70  1  0.25744440  0.65140874  0.86149437  1
  O  O71  1  0.75730985  0.65160578  0.86177563  1
  O  O72  1  0.01166919  0.81638292  0.41238116  1
  O  O73  1  0.50697068  0.81313732  0.41020423  1
  O  O74  1  0.41172303  0.98930248  0.41527805  1
  O  O75  1  0.91197799  0.98290247  0.41082866  1
  O  O76  1  0.09578363  0.19878305  0.41393985  1
  O  O77  1  0.59477441  0.20374663  0.41414349  1
  O  O78  1  0.00669055  0.20087145  0.91120075  1
  O  O79  1  0.50647701  0.20018843  0.91088196  1
  O  O80  1  0.09475234  0.98535159  0.91412314  1
  O  O81  1  0.59508902  0.98593505  0.91400739  1
  O  O82  1  0.41270683  0.83768149  0.91536442  1
  O  O83  1  0.91279897  0.83816190  0.91540416  1
  O  O84  1  0.48414220  0.15236702  0.58699289  1
  O  O85  1  0.98391136  0.15200756  0.58736828  1
  O  O86  1  0.09981792  0.02501868  0.58654619  1
  O  O87  1  0.59986657  0.02496645  0.58684445  1
  O  O88  1  0.41486703  0.80118650  0.58590933  1
  O  O89  1  0.91460138  0.80271245  0.58653671  1
  O  O90  1  0.48400105  0.81568565  0.08730865  1
  O  O91  1  0.98464312  0.81141954  0.09012497  1
  O  O92  1  0.41442373  0.02777146  0.08582857  1
  O  O93  1  0.91639092  0.03048946  0.08754232  1
  O  O94  1  0.09899286  0.17671295  0.09034017  1
  O  O95  1  0.59944517  0.17518458  0.08674075  1
  O  O96  1  0.33694150  0.13887576  0.74419315  1
  O  O97  1  0.83691456  0.13872528  0.74475794  1
  O  O98  1  0.24206917  0.31261068  0.74176537  1
  O  O99  1  0.74211917  0.31308219  0.74197219  1
  O  O100  1  0.42053572  0.51240909  0.74697958  1
  O  O101  1  0.92019721  0.51270016  0.74705733  1
  O  O102  1  0.33903898  0.53711598  0.24457723  1
  O  O103  1  0.84351073  0.53985432  0.24534334  1
  O  O104  1  0.42122510  0.33121319  0.24646602  1
  O  O105  1  0.92835523  0.32397188  0.24708412  1
  O  O106  1  0.24341162  0.15987800  0.24424712  1
  O  O107  1  0.74383943  0.18159515  0.24117671  1
  O  O108  1  0.32541752  0.49910527  0.92350603  1
  O  O109  1  0.82609636  0.50023560  0.92389170  1
  O  O110  1  0.43176142  0.35789396  0.92285025  1
  O  O111  1  0.93243419  0.35943734  0.92283261  1
  O  O112  1  0.25031624  0.13185787  0.92200944  1
  O  O113  1  0.75058965  0.13318550  0.92213065  1
  O  O114  1  0.31965314  0.14759435  0.42414449  1
  O  O115  1  0.82351726  0.14819595  0.42337391  1
  O  O116  1  0.24950451  0.36409500  0.42039576  1
  O  O117  1  0.75040177  0.36752630  0.42245395  1
  O  O118  1  0.43300804  0.50631088  0.42233463  1
  O  O119  1  0.93121140  0.51030789  0.42293206  1
  O  O120  1  0.17931893  0.48313617  0.08080771  1
  O  O121  1  0.67799935  0.48316373  0.07932513  1
  O  O122  1  0.07776700  0.65102484  0.07568527  1
  O  O123  1  0.57857138  0.65525613  0.07492684  1
  O  O124  1  0.26041722  0.86372435  0.08130865  1
  O  O125  1  0.76275341  0.86461207  0.08071332  1
  O  O126  1  0.17880328  0.87491832  0.58001242  1
  O  O127  1  0.67864226  0.87421872  0.58030490  1
  O  O128  1  0.26102447  0.65835456  0.58070823  1
  O  O129  1  0.76069490  0.65761681  0.58143960  1
  O  O130  1  0.07795409  0.50172115  0.57544855  1
  O  O131  1  0.57909681  0.50289954  0.57405758  1
  O  O132  1  0.15202601  0.82272402  0.25864948  1
  O  O133  1  0.65580581  0.83342267  0.25668810  1
  O  O134  1  0.26577994  0.69748445  0.25681159  1
  O  O135  1  0.76637760  0.68840039  0.25586885  1
  O  O136  1  0.08215798  0.46851025  0.25376864  1
  O  O137  1  0.59174133  0.48356217  0.25684207  1
  O  O138  1  0.15790185  0.48207633  0.75785154  1
  O  O139  1  0.65798403  0.48236755  0.75815305  1
  O  O140  1  0.09145399  0.69881956  0.75691403  1
  O  O141  1  0.59154266  0.69939499  0.75690267  1
  O  O142  1  0.26701410  0.83599945  0.75641773  1
  O  O143  1  0.76712488  0.83581992  0.75667538  1
loop_
_geom_bond_atom_site_label_1
_geom_bond_atom_site_label_2
_geom_bond_distance
_geom_bond_site_symmetry_2
Na0 O106 2.336352 1_555
Na0 O104 2.416651 1_555
Na0 O32 2.617292 1_555
Na0 O134 2.646166 1_545
Na0 O132 2.715647 1_545
Na0 O4 2.826233 1_555
Na0 O62 2.890707 1_545
Na1 O107 2.375228 1_555
Na1 O137 2.424119 1_555
Na1 O103 2.617152 1_555
Na1 O135 2.701297 1_555
Na1 O1 2.716441 1_555
Na1 O65 2.719888 1_555
Na1 O35 2.754284 1_555
Na1 O21 2.871466 1_555
Na2 O31 2.370055 1_555
Na2 O105 2.436855 1_555
Na2 O103 2.450061 1_555
Na2 O132 2.503137 1_655
Na2 O136 2.663698 1_655
Na2 O22 2.779005 1_655
Na3 O104 2.326162 1_555
Na3 O30 2.355595 1_555
Na3 O133 2.555754 1_555
Na3 O102 2.558999 1_555
Na3 O137 2.649064 1_555
Na3 O23 2.858515 1_555
Na4 O100 2.413906 1_555
Na4 O98 2.434893 1_555
Na4 O138 2.583710 1_555
Na4 O142 2.639322 1_555
Na4 O28 2.676220 1_555
Na4 O70 2.777294 1_555
Na4 O8 2.835213 1_555
Na5 O101 2.407238 1_555
Na5 O99 2.424702 1_555
Na5 O139 2.579239 1_555
Na5 O143 2.636200 1_555
Na5 O29 2.641862 1_555
Na5 O71 2.809131 1_555
Na5 O9 2.860353 1_555
Na6 O25 2.288920 1_555
Na6 O101 2.341820 1_555
Na6 O97 2.564284 1_555
Na6 O138 2.616037 1_655
Na6 O140 2.658033 1_655
Na6 O14 2.818949 1_655
Na7 O100 2.337685 1_555
Na7 O24 2.352833 1_555
Na7 O96 2.570515 1_555
Na7 O139 2.609839 1_555
Na7 O141 2.657226 1_555
Na7 O15 2.808843 1_555
Na8 O98 2.398285 1_555
Na8 O140 2.460469 1_545
Na8 O96 2.518349 1_555
Na8 O26 2.745876 1_555
Na8 O6 2.758845 1_555
Na8 O68 2.786097 1_545
Na8 O142 2.804917 1_545
Na8 O16 2.838265 1_545
Na9 O99 2.397382 1_555
Na9 O141 2.461965 1_545
Na9 O97 2.502567 1_555
Na9 O27 2.675166 1_555
Na9 O7 2.779033 1_555
Na9 O69 2.796547 1_545
Na9 O143 2.799669 1_545
Na9 O17 2.848798 1_545
Na10 O54 2.397978 1_555
Na10 O84 2.417302 1_565
Na10 O128 2.447009 1_555
Na10 O126 2.469905 1_555
Na10 O88 2.630479 1_555
Na10 O46 2.853742 1_565
Na11 O55 2.301373 1_555
Na11 O85 2.423169 1_565
Na11 O129 2.459713 1_555
Na11 O127 2.465905 1_555
Na11 O89 2.628380 1_555
Na11 O47 2.808491 1_565
Na12 O48 2.378821 1_554
Na12 O90 2.407892 1_555
Na12 O124 2.464515 1_555
Na12 O120 2.471057 1_555
Na12 O92 2.623610 1_565
Na12 O38 2.835962 1_555
Na13 O49 2.342344 1_554
Na13 O125 2.410324 1_555
Na13 O121 2.454118 1_555
Na13 O91 2.477981 1_555
Na13 O93 2.662462 1_565
Na13 O39 2.852141 1_555
Na14 O82 2.321114 1_555
Na14 O8 2.339860 1_555
Na14 O81 2.466204 1_555
Na14 O108 2.482984 1_555
Na14 O110 2.653103 1_555
Na15 O9 2.316600 1_555
Na15 O83 2.324584 1_555
Na15 O80 2.460109 1_655
Na15 O109 2.477815 1_555
Na15 O111 2.646895 1_555
Na16 O4 2.310149 1_555
Na16 O74 2.332040 1_545
Na16 O77 2.450606 1_555
Na16 O114 2.610208 1_555
Na16 O118 2.649522 1_555
Na17 O0 2.359314 1_555
Na17 O76 2.422522 1_555
Na17 O72 2.435674 1_545
Na17 O114 2.503618 1_555
Na17 O116 2.669153 1_555
Na17 O62 2.861754 1_545
Na18 O75 2.268879 1_545
Na18 O76 2.529049 1_655
Na18 O85 2.560464 1_555
Na18 O89 2.677845 1_545
Na18 O72 2.680728 1_645
Na18 O86 2.932608 1_655
Na19 O74 2.364028 1_555
Na19 O77 2.476368 1_565
Na19 O73 2.530346 1_555
Na19 O88 2.688686 1_555
Na19 O84 2.689435 1_565
Na19 O87 2.777957 1_565
Na20 O83 2.301639 1_545
Na20 O78 2.463005 1_655
Na20 O80 2.499887 1_645
Na20 O93 2.703038 1_556
Na20 O91 2.816515 1_546
Na20 O94 2.888216 1_656
Na21 O82 2.329118 1_545
Na21 O79 2.535698 1_555
Na21 O81 2.536872 1_545
Na21 O92 2.643011 1_556
Na21 O90 2.667435 1_546
Na21 O95 2.792640 1_556
Na22 O98 2.433850 1_555
Na22 O100 2.442657 1_555
Na22 O108 2.591196 1_555
Na22 O112 2.686788 1_555
Na22 O96 2.745090 1_555
Na22 O110 2.875157 1_555
Na23 O99 2.412067 1_555
Na23 O101 2.424452 1_555
Na23 O109 2.621173 1_555
Na23 O113 2.698867 1_555
Na23 O97 2.719747 1_555
Na23 O111 2.895696 1_555
Na24 O106 2.354115 1_555
Na24 O104 2.376304 1_555
Na24 O102 2.523033 1_555
Na24 O116 2.715253 1_555
Na24 O114 2.798229 1_555
Na24 O118 2.930677 1_555
Na25 O107 2.373231 1_555
Na25 O115 2.478787 1_555
Na25 O105 2.574964 1_555
Na25 O117 2.719199 1_555
Na25 O103 2.872037 1_555
Na25 O119 2.972243 1_555
Na26 O122 2.267888 1_555
Na26 O124 2.482030 1_555
Na26 O120 2.538377 1_555
Na26 O136 2.709322 1_555
Na26 O132 2.781929 1_555
Na27 O123 2.295072 1_555
Na27 O125 2.540146 1_555
Na27 O133 2.665040 1_555
Na27 O137 2.671916 1_555
Na27 O121 2.678522 1_555
Na28 O130 2.245407 1_555
Na28 O128 2.563569 1_555
Na28 O126 2.616028 1_555
Na28 O140 2.656518 1_555
Na28 O138 2.743295 1_555
Na29 O131 2.256406 1_555
Na29 O129 2.512343 1_555
Na29 O127 2.580879 1_555
Na29 O141 2.689741 1_555
Na29 O139 2.771809 1_555
Hf0 O14 1.948469 1_555
Hf0 O16 2.021765 1_545
Hf0 O85 2.064418 1_455
Hf0 O86 2.110532 1_555
Hf0 O13 2.175477 1_445
Hf0 O89 2.299010 1_445
Hf1 O15 1.941710 1_555
Hf1 O17 2.019675 1_545
Hf1 O84 2.071047 1_555
Hf1 O87 2.100266 1_555
Hf1 O12 2.182302 1_545
Hf1 O88 2.328582 1_545
Hf2 O22 1.934271 1_555
Hf2 O91 1.988871 1_455
Hf2 O94 2.086824 1_565
Hf2 O19 2.128370 1_455
Hf2 O20 2.242391 1_565
Hf2 O93 2.269622 1_465
Hf3 O23 1.934531 1_545
Hf3 O21 2.014220 1_555
Hf3 O90 2.078363 1_545
Hf3 O95 2.114700 1_555
Hf3 O18 2.178242 1_545
Hf3 O92 2.329904 1_555
Hf4 O38 1.937041 1_556
Hf4 O108 1.988494 1_555
Hf4 O36 2.091009 1_556
Hf4 O110 2.134254 1_555
Hf4 O40 2.224247 1_556
Hf4 O112 2.255595 1_555
Hf5 O39 1.954066 1_556
Hf5 O109 1.983868 1_555
Hf5 O37 2.073991 1_556
Hf5 O111 2.124211 1_555
Hf5 O113 2.233295 1_555
Hf5 O41 2.234505 1_556
Hf6 O46 1.926119 1_555
Hf6 O114 2.022982 1_555
Hf6 O118 2.101876 1_555
Hf6 O42 2.103748 1_555
Hf6 O44 2.187816 1_555
Hf6 O116 2.277202 1_555
Hf7 O47 1.925849 1_555
Hf7 O115 1.956555 1_555
Hf7 O43 2.093208 1_555
Hf7 O119 2.115790 1_555
Hf7 O117 2.263974 1_555
Hf7 O45 2.292491 1_555
Hf8 O62 1.953905 1_555
Hf8 O132 2.008154 1_555
Hf8 O60 2.097836 1_555
Hf8 O134 2.112740 1_555
Hf8 O64 2.173757 1_555
Hf8 O136 2.272154 1_555
Hf9 O63 1.937488 1_555
Hf9 O133 1.979885 1_555
Hf9 O61 2.124415 1_555
Hf9 O135 2.128868 1_555
Hf9 O137 2.129097 1_555
Hf9 O65 2.290102 1_555
Hf10 O70 1.974887 1_555
Hf10 O138 1.998266 1_555
Hf10 O66 2.087360 1_555
Hf10 O140 2.103995 1_555
Hf10 O142 2.143217 1_555
Hf10 O68 2.236896 1_555
Hf11 O71 1.975741 1_555
Hf11 O139 1.996440 1_555
Hf11 O67 2.088333 1_555
Hf11 O141 2.105751 1_555
Hf11 O143 2.142038 1_555
Hf11 O69 2.239363 1_555
O0 Si0 1.611806 1_555
O0 Zn0 1.988603 1_455
O1 Si1 1.604918 1_555
O1 Zn1 1.951521 1_555
O2 S0 1.454730 1_555
O2 Zn1 2.185511 1_565
O3 S1 1.447719 1_555
O3 Zn0 2.135294 1_565
O4 Si2 1.618346 1_555
O4 Zn1 1.963330 1_555
O5 S2 1.451636 1_655
O5 Zn0 2.066163 1_555
O6 Si3 1.598475 1_555
O6 Zn2 1.952518 1_445
O7 Si4 1.597146 1_555
O7 Zn3 1.952682 1_545
O8 Si6 1.612577 1_555
O8 Zn3 1.967724 1_555
O9 Si5 1.613257 1_655
O9 Zn2 1.963536 1_555
O10 S3 1.449125 1_545
O10 Zn3 2.173160 1_545
O11 S4 1.449693 1_545
O11 Zn2 2.160243 1_545
O12 S3 1.507095 1_555
O13 S4 1.505907 1_555
O14 Si3 1.670437 1_555
O15 Si4 1.673511 1_555
O16 Si5 1.664980 1_555
O17 Si6 1.666701 1_555
O18 S0 1.510901 1_555
O19 S1 1.513750 1_555
O20 S2 1.498800 1_555
O21 Si2 1.668669 1_555
O22 Si0 1.679636 1_565
O23 Si1 1.679207 1_565
O24 Si7 1.620438 1_555
O24 Zn4 1.952965 1_555
O25 Si8 1.621094 1_555
O25 Zn5 1.952270 1_555
O26 S5 1.467105 1_555
O26 Zn4 2.312291 1_555
O27 S6 1.469149 1_555
O27 Zn5 2.314301 1_555
O28 S7 1.474043 1_555
O28 Zn4 2.068579 1_555
O29 S8 1.479464 1_555
O29 Zn5 2.055678 1_555
O30 Si9 1.615717 1_555
O30 Zn6 1.967943 1_555
O31 Si10 1.622295 1_555
O31 Zn7 1.962316 1_555
O32 S9 1.471927 1_555
O32 Zn6 2.100253 1_555
O33 S10 1.461429 1_555
O33 Zn7 2.023542 1_555
O34 S11 1.452426 1_555
O34 Zn6 2.233175 1_555
O35 S12 1.468155 1_555
O35 Zn7 2.215170 1_555
O36 S11 1.510473 1_555
O37 S12 1.507670 1_555
O38 Si9 1.700627 1_555
O39 Si10 1.681720 1_555
O40 S9 1.495197 1_555
O41 S10 1.496758 1_555
O42 S5 1.516268 1_555
O43 S6 1.498890 1_555
O44 S7 1.501471 1_555
O45 S8 1.484841 1_555
O46 Si7 1.701449 1_555
O47 Si8 1.679001 1_555
O48 Si11 1.614204 1_555
O48 Zn8 1.947641 1_556
O49 Si12 1.613038 1_555
O49 Zn9 1.957170 1_556
O50 S13 1.452193 1_555
O50 Zn8 2.156544 1_556
O51 S14 1.450536 1_555
O51 Zn9 2.152213 1_556
O52 S15 1.465300 1_555
O52 Zn8 2.062568 1_556
O53 S16 1.462699 1_555
O53 Zn9 2.066031 1_556
O54 Si13 1.608912 1_555
O54 Zn10 1.963616 1_555
O55 Si14 1.622710 1_555
O55 Zn11 1.962967 1_555
O56 S17 1.448169 1_555
O56 Zn10 2.061081 1_555
O57 S18 1.466436 1_555
O57 Zn11 2.056744 1_555
O58 S19 1.450694 1_555
O58 Zn10 2.126850 1_555
O59 S20 1.452097 1_555
O59 Zn11 2.177555 1_555
O60 S19 1.528231 1_555
O61 S20 1.520970 1_555
O62 Si13 1.698108 1_555
O63 Si14 1.663966 1_555
O64 S17 1.509091 1_555
O65 S18 1.510900 1_555
O66 S13 1.529729 1_555
O67 S14 1.533183 1_555
O68 S15 1.517432 1_555
O69 S16 1.516665 1_555
O70 Si11 1.673409 1_555
O71 Si12 1.670917 1_555
O72 S19 1.466467 1_555
O72 Zn0 2.362738 1_465
O73 S20 1.450862 1_555
O73 Zn1 2.373551 1_565
O74 Si13 1.615240 1_555
O74 Zn1 2.140834 1_565
O75 Si14 1.620272 1_555
O75 Zn0 1.951883 1_565
O76 S17 1.477251 1_555
O76 Zn0 2.310202 1_455
O77 S18 1.479437 1_555
O77 Zn1 2.320636 1_555
O78 S13 1.448506 1_555
O78 Zn2 2.384035 1_445
O79 S14 1.449593 1_555
O79 Zn3 2.369969 1_545
O80 S15 1.472818 1_555
O80 Zn2 2.338610 1_455
O81 S16 1.471639 1_555
O81 Zn3 2.330802 1_555
O82 Si11 1.628269 1_555
O82 Zn3 2.074780 1_555
O83 Si12 1.629146 1_555
O83 Zn2 2.081292 1_555
O84 Si7 1.686333 1_555
O85 Si8 1.687897 1_555
O86 S5 1.499351 1_555
O87 S6 1.506371 1_555
O88 S7 1.509006 1_555
O89 S8 1.517214 1_555
O90 Si9 1.689045 1_555
O91 Si10 1.710989 1_555
O92 S9 1.511532 1_555
O93 S10 1.524569 1_555
O94 S11 1.511905 1_555
O95 S12 1.497187 1_555
O96 S3 1.473856 1_545
O96 Zn4 2.394500 1_555
O97 S4 1.472929 1_545
O97 Zn5 2.414683 1_555
O98 Si3 1.633199 1_555
O98 Zn4 2.100671 1_555
O99 Si4 1.630904 1_555
O99 Zn5 2.110873 1_555
O100 Si6 1.632987 1_555
O100 Zn4 2.024969 1_555
O101 Si5 1.630787 1_655
O101 Zn5 2.035099 1_555
O102 S0 1.462069 1_555
O102 Zn6 2.357008 1_555
O103 S1 1.477846 1_555
O103 Zn7 2.425835 1_555
O104 Si2 1.630734 1_555
O104 Zn6 2.045412 1_555
O105 S2 1.485548 1_655
O105 Zn7 2.263290 1_555
O106 Si0 1.612736 1_555
O106 Zn6 2.108164 1_555
O107 Si1 1.632238 1_555
O107 Zn7 1.986459 1_555
O108 Si11 1.718610 1_555
O109 Si12 1.721728 1_555
O110 S14 1.525531 1_555
O111 S13 1.525331 1_655
O112 S15 1.500000 1_545
O113 S16 1.504134 1_545
O114 Si13 1.726669 1_545
O115 Si14 1.702132 1_545
O116 S17 1.523153 1_555
O117 S18 1.500015 1_555
O118 S20 1.539166 1_555
O119 S19 1.496118 1_655
O120 S11 1.470636 1_555
O120 Zn8 2.367602 1_555
O121 S12 1.465806 1_555
O121 Zn9 2.335641 1_555
O122 Si10 1.609624 1_455
O122 Zn8 1.982956 1_555
O123 Si9 1.616227 1_555
O123 Zn9 1.962241 1_555
O124 S9 1.482479 1_565
O124 Zn8 2.307607 1_555
O125 S10 1.476883 1_565
O125 Zn9 2.330847 1_555
O126 S5 1.465242 1_565
O126 Zn10 2.399636 1_555
O127 S6 1.468471 1_565
O127 Zn11 2.376376 1_555
O128 S7 1.474210 1_555
O128 Zn10 2.310661 1_555
O129 S8 1.480507 1_555
O129 Zn11 2.296162 1_555
O130 Si8 1.613339 1_455
O130 Zn10 1.946904 1_555
O131 Si7 1.610644 1_555
O131 Zn11 1.986892 1_555
O132 Si0 1.722369 1_565
O133 Si1 1.669995 1_565
O134 S0 1.523010 1_555
O135 S1 1.499906 1_555
O136 S2 1.528754 1_555
O137 Si2 1.667717 1_555
O138 Si3 1.682664 1_555
O139 Si4 1.681697 1_555
O140 Si5 1.675033 1_555
O141 Si6 1.673693 1_555
O142 S3 1.512992 1_555
O143 S4 1.512887 1_555
