# generated using pymatgen
data_Na42Nb8Zn16Si21(S5O48)3
_symmetry_space_group_name_H-M   'P 1'
_cell_length_a   18.34687236
_cell_length_b   9.13891473
_cell_length_c   22.32302144
_cell_angle_alpha   89.98140095
_cell_angle_beta   90.12880910
_cell_angle_gamma   119.90708006
_symmetry_Int_Tables_number   1
_chemical_formula_structural   Na42Nb8Zn16Si21(S5O48)3
_chemical_formula_sum   'Na42 Nb8 Zn16 Si21 S15 O144'
_cell_volume   3244.47827976
_cell_formula_units_Z   1
loop_
 _symmetry_equiv_pos_site_id
 _symmetry_equiv_pos_as_xyz
  1  'x, y, z'
loop_
 _atom_site_type_symbol
 _atom_site_label
 _atom_site_symmetry_multiplicity
 _atom_site_fract_x
 _atom_site_fract_y
 _atom_site_fract_z
 _atom_site_occupancy
  Na  Na0  1  0.32040496  0.02736623  0.24567148  1
  Na  Na1  1  0.82449583  0.01722374  0.24738286  1
  Na  Na2  1  0.98841167  0.63461336  0.25193917  1
  Na  Na3  1  0.32393513  0.62698131  0.74303804  1
  Na  Na4  1  0.82200413  0.61770432  0.74171143  1
  Na  Na5  1  0.48726082  0.34568314  0.74829035  1
  Na  Na6  1  0.16017831  0.35555342  0.58024619  1
  Na  Na7  1  0.65958715  0.34936782  0.58789707  1
  Na  Na8  1  0.01644273  0.67244380  0.58310713  1
  Na  Na9  1  0.50960006  0.67945313  0.56835969  1
  Na  Na10  1  0.32067802  0.95495207  0.57896268  1
  Na  Na11  1  0.83056942  0.97272800  0.57023228  1
  Na  Na12  1  0.15916636  0.96852996  0.08623831  1
  Na  Na13  1  0.65748575  0.95646117  0.08500645  1
  Na  Na14  1  0.32837137  0.68190874  0.06903413  1
  Na  Na15  1  0.82661518  0.70201658  0.07405031  1
  Na  Na16  1  0.01226457  0.33904349  0.06881962  1
  Na  Na17  1  0.50560259  0.35007230  0.08168338  1
  Na  Na18  1  0.47409213  0.66673524  0.91413012  1
  Na  Na19  1  0.97321310  0.66002723  0.90597537  1
  Na  Na20  1  0.35437864  0.02826856  0.91686073  1
  Na  Na21  1  0.85787084  0.04191436  0.92316361  1
  Na  Na22  1  0.16837104  0.30749592  0.91715970  1
  Na  Na23  1  0.66905349  0.29042474  0.90699898  1
  Na  Na24  1  0.46963841  0.28682154  0.41036039  1
  Na  Na25  1  0.97472592  0.28198357  0.41736042  1
  Na  Na26  1  0.17165595  0.05313158  0.41767408  1
  Na  Na27  1  0.66794828  0.02531784  0.42101674  1
  Na  Na28  1  0.35627678  0.67046005  0.42848122  1
  Na  Na29  1  0.85408026  0.68025914  0.42057835  1
  Na  Na30  1  0.99451612  0.00714133  0.49217546  1
  Na  Na31  1  0.49266277  0.98144283  0.49434454  1
  Na  Na32  1  0.99556703  0.00496737  0.99251386  1
  Na  Na33  1  0.49057007  0.97701095  0.99062085  1
  Na  Na34  1  0.33155977  0.32840729  0.82654086  1
  Na  Na35  1  0.83895341  0.33783671  0.82560073  1
  Na  Na36  1  0.33795528  0.33555487  0.33013696  1
  Na  Na37  1  0.83183434  0.33461458  0.33078715  1
  Na  Na38  1  0.17132147  0.66708262  0.15973616  1
  Na  Na39  1  0.66112163  0.65998616  0.16418074  1
  Na  Na40  1  0.16265526  0.67549311  0.65958860  1
  Na  Na41  1  0.67127677  0.67554141  0.65740921  1
  Nb  Nb0  1  0.00207704  0.98761381  0.64160772  1
  Nb  Nb1  1  0.49515839  0.98633663  0.65613296  1
  Nb  Nb2  1  0.99587844  0.00563910  0.15572479  1
  Nb  Nb3  1  0.49605540  0.00466480  0.14583506  1
  Nb  Nb4  1  0.16802373  0.68026918  0.31063467  1
  Nb  Nb5  1  0.66451555  0.66687290  0.31342834  1
  Nb  Nb6  1  0.16497779  0.66049988  0.81156074  1
  Nb  Nb7  1  0.66981011  0.65762289  0.80963361  1
  Zn  Zn0  1  0.98943598  0.99119559  0.33963938  1
  Zn  Zn1  1  0.49215991  0.99243548  0.35532244  1
  Zn  Zn2  1  0.99139303  0.99199727  0.85332023  1
  Zn  Zn3  1  0.48958735  0.98373508  0.83843212  1
  Zn  Zn4  1  0.33007844  0.32382370  0.68073328  1
  Zn  Zn5  1  0.84402450  0.36760339  0.68309167  1
  Zn  Zn6  1  0.34385365  0.32149244  0.18400902  1
  Zn  Zn7  1  0.83680347  0.33384744  0.18561544  1
  Zn  Zn8  1  0.34279484  0.35825072  0.98949130  1
  Zn  Zn9  1  0.84547399  0.33677255  0.97619999  1
  Zn  Zn10  1  0.33218728  0.33786189  0.48360140  1
  Zn  Zn11  1  0.84224608  0.32895229  0.49316863  1
  Zn  Zn12  1  0.17488947  0.66591414  0.00607943  1
  Zn  Zn13  1  0.67266327  0.68673125  0.02098676  1
  Zn  Zn14  1  0.17310257  0.67381538  0.52549971  1
  Zn  Zn15  1  0.67464250  0.68355967  0.50777142  1
  Si  Si0  1  0.14880104  0.01762528  0.25447267  1
  Si  Si1  1  0.84590968  0.68903229  0.25343440  1
  Si  Si2  1  0.00149043  0.30504178  0.25553526  1
  Si  Si3  1  0.50244239  0.29570004  0.25634320  1
  Si  Si4  1  0.64873829  0.27830994  0.75426272  1
  Si  Si5  1  0.00118615  0.71001948  0.75641721  1
  Si  Si6  1  0.50003883  0.69556623  0.75549662  1
  Si  Si7  1  0.34720952  0.00408091  0.75569820  1
  Si  Si8  1  0.98054065  0.33329652  0.58359553  1
  Si  Si9  1  0.19108657  0.04625452  0.57880364  1
  Si  Si10  1  0.33733824  0.62820236  0.58629303  1
  Si  Si11  1  0.82663057  0.62136212  0.58037990  1
  Si  Si12  1  0.48249642  0.62866394  0.08306655  1
  Si  Si13  1  0.32682548  0.03248385  0.08036309  1
  Si  Si14  1  0.83548226  0.04670934  0.08537777  1
  Si  Si15  1  0.31827862  0.66510778  0.91650917  1
  Si  Si16  1  0.81233721  0.66162395  0.92340815  1
  Si  Si17  1  0.02124615  0.37085048  0.91877122  1
  Si  Si18  1  0.31433692  0.96198213  0.42150281  1
  Si  Si19  1  0.81898695  0.97114801  0.41644219  1
  Si  Si20  1  0.51880295  0.66802545  0.41979939  1
  S  S0  1  0.64449657  0.99698576  0.25267402  1
  S  S1  1  0.35145137  0.70435728  0.25046998  1
  S  S2  1  0.14334805  0.29125194  0.75307491  1
  S  S3  1  0.85160005  0.99932635  0.75107411  1
  S  S4  1  0.48477588  0.32727397  0.58414415  1
  S  S5  1  0.68260323  0.04019298  0.58544259  1
  S  S6  1  0.98241783  0.64030112  0.08385548  1
  S  S7  1  0.18285740  0.32482926  0.08543987  1
  S  S8  1  0.68316203  0.32518898  0.08357628  1
  S  S9  1  0.52325015  0.37856978  0.91800782  1
  S  S10  1  0.16859797  0.96015006  0.91775828  1
  S  S11  1  0.66574336  0.95558553  0.91725392  1
  S  S12  1  0.16551065  0.38035085  0.41615913  1
  S  S13  1  0.66839128  0.37611043  0.41715036  1
  S  S14  1  0.02166701  0.66716506  0.41657471  1
  O  O0  1  0.09932695  0.01204851  0.31410489  1
  O  O1  1  0.60283039  0.00495353  0.30703923  1
  O  O2  1  0.39712941  0.77788751  0.30627485  1
  O  O3  1  0.90401112  0.76057542  0.31245398  1
  O  O4  1  0.49221676  0.17908760  0.31294159  1
  O  O5  1  0.98373428  0.18831493  0.31271267  1
  O  O6  1  0.10195991  0.20046052  0.80795513  1
  O  O7  1  0.59981374  0.18538286  0.81430404  1
  O  O8  1  0.48473321  0.77615176  0.81401284  1
  O  O9  1  0.99087660  0.80189476  0.81465557  1
  O  O10  1  0.40390885  0.03986755  0.81500455  1
  O  O11  1  0.89570799  0.01625430  0.80813503  1
  O  O12  1  0.40290223  0.97180743  0.69886686  1
  O  O13  1  0.89301248  0.96791859  0.69933210  1
  O  O14  1  0.09409055  0.20684998  0.69821633  1
  O  O15  1  0.58520343  0.19848261  0.69388655  1
  O  O16  1  0.00987556  0.83004967  0.69564792  1
  O  O17  1  0.51367167  0.82667967  0.69683533  1
  O  O18  1  0.39798493  0.82218321  0.19775708  1
  O  O19  1  0.90249254  0.83434166  0.19702675  1
  O  O20  1  0.01295891  0.20096851  0.19587341  1
  O  O21  1  0.51099458  0.19026165  0.19445663  1
  O  O22  1  0.08415381  0.97347384  0.19384672  1
  O  O23  1  0.59455588  0.98312654  0.19721192  1
  O  O24  1  0.44656743  0.34789978  0.63913475  1
  O  O25  1  0.93361509  0.37512528  0.63544579  1
  O  O26  1  0.25278954  0.12938622  0.63449320  1
  O  O27  1  0.73607668  0.12846063  0.63661636  1
  O  O28  1  0.33018010  0.52626205  0.64720540  1
  O  O29  1  0.80773896  0.51404721  0.64153864  1
  O  O30  1  0.43445692  0.49894084  0.13631834  1
  O  O31  1  0.94191908  0.54263436  0.13836715  1
  O  O32  1  0.31087377  0.10352901  0.14201148  1
  O  O33  1  0.82312636  0.13248630  0.14530916  1
  O  O34  1  0.23566942  0.34253195  0.13676859  1
  O  O35  1  0.73565239  0.34686407  0.13569053  1
  O  O36  1  0.21783746  0.30463526  0.02764590  1
  O  O37  1  0.71581326  0.29617546  0.02727479  1
  O  O38  1  0.42737242  0.58223395  0.02089755  1
  O  O39  1  0.93127822  0.56423725  0.02929351  1
  O  O40  1  0.35456208  0.15995972  0.02264007  1
  O  O41  1  0.85514486  0.16074198  0.02444455  1
  O  O42  1  0.21942832  0.16075065  0.51801600  1
  O  O43  1  0.71752445  0.13031304  0.52743225  1
  O  O44  1  0.36122995  0.55981548  0.52577769  1
  O  O45  1  0.85074316  0.54592887  0.52158641  1
  O  O46  1  0.43380591  0.30147853  0.52957961  1
  O  O47  1  0.92515134  0.26998145  0.52102464  1
  O  O48  1  0.27908938  0.69634930  0.97692391  1
  O  O49  1  0.76615269  0.68517267  0.98097814  1
  O  O50  1  0.07465482  0.45808361  0.97964809  1
  O  O51  1  0.57012223  0.46862465  0.97209159  1
  O  O52  1  0.15583797  0.86235233  0.97386272  1
  O  O53  1  0.65585034  0.86502407  0.97445929  1
  O  O54  1  0.26823800  0.84103626  0.47742205  1
  O  O55  1  0.77863957  0.86045327  0.47625405  1
  O  O56  1  0.15745418  0.45578426  0.47216079  1
  O  O57  1  0.65622593  0.45004787  0.47258029  1
  O  O58  1  0.06840617  0.66729122  0.46957352  1
  O  O59  1  0.57602111  0.69386219  0.47906003  1
  O  O60  1  0.06873642  0.66025547  0.35949914  1
  O  O61  1  0.57661820  0.65140932  0.36206861  1
  O  O62  1  0.25337158  0.84802950  0.35921580  1
  O  O63  1  0.75369016  0.85471126  0.35840244  1
  O  O64  1  0.16529106  0.48707576  0.36316817  1
  O  O65  1  0.67511629  0.48696143  0.36392901  1
  O  O66  1  0.07805741  0.50157111  0.86235162  1
  O  O67  1  0.56992971  0.48072460  0.86202349  1
  O  O68  1  0.17568525  0.86379039  0.86516453  1
  O  O69  1  0.66914533  0.85189380  0.86575787  1
  O  O70  1  0.25272962  0.64893337  0.85944968  1
  O  O71  1  0.75105572  0.65079547  0.86233236  1
  O  O72  1  0.01582326  0.82246681  0.41567239  1
  O  O73  1  0.51452116  0.84177960  0.41127066  1
  O  O74  1  0.40726771  0.98006317  0.41663694  1
  O  O75  1  0.91103049  0.98314468  0.41084908  1
  O  O76  1  0.09275359  0.20745280  0.41227629  1
  O  O77  1  0.59511094  0.20449493  0.41150075  1
  O  O78  1  0.01383107  0.18529896  0.91185313  1
  O  O79  1  0.51682726  0.21101445  0.91707491  1
  O  O80  1  0.09530148  0.98580580  0.91243085  1
  O  O81  1  0.59257188  0.98159055  0.91282169  1
  O  O82  1  0.41063821  0.83575077  0.91102988  1
  O  O83  1  0.90494594  0.82984376  0.91797981  1
  O  O84  1  0.49316404  0.16898198  0.58854953  1
  O  O85  1  0.98913694  0.16111774  0.60020522  1
  O  O86  1  0.09357208  0.03002993  0.59219211  1
  O  O87  1  0.59651477  0.02942947  0.58936244  1
  O  O88  1  0.42537184  0.83113875  0.59150846  1
  O  O89  1  0.91591746  0.81690098  0.59049631  1
  O  O90  1  0.49682299  0.82493217  0.09850611  1
  O  O91  1  0.99114679  0.81569146  0.08767454  1
  O  O92  1  0.41692369  0.01167954  0.09112271  1
  O  O93  1  0.92419298  0.02520236  0.09097757  1
  O  O94  1  0.09618976  0.16317700  0.08898512  1
  O  O95  1  0.59598567  0.16015739  0.09053196  1
  O  O96  1  0.33938328  0.16735519  0.74314608  1
  O  O97  1  0.83377180  0.13537757  0.74254117  1
  O  O98  1  0.23042469  0.32386988  0.75051980  1
  O  O99  1  0.74408050  0.32171709  0.74804023  1
  O  O100  1  0.42201649  0.50904736  0.74522163  1
  O  O101  1  0.91912349  0.52617240  0.74992538  1
  O  O102  1  0.33535022  0.53545648  0.24015270  1
  O  O103  1  0.83590043  0.50942040  0.23700685  1
  O  O104  1  0.41955341  0.31175787  0.24923080  1
  O  O105  1  0.92261134  0.33496980  0.24607830  1
  O  O106  1  0.24353074  0.16742938  0.24711791  1
  O  O107  1  0.73084770  0.14101123  0.24917428  1
  O  O108  1  0.31868008  0.48447268  0.91637595  1
  O  O109  1  0.81521019  0.48490337  0.92130897  1
  O  O110  1  0.43938262  0.36491861  0.91376687  1
  O  O111  1  0.92975846  0.36015986  0.91361253  1
  O  O112  1  0.24779874  0.12486236  0.91785384  1
  O  O113  1  0.74560454  0.11976338  0.91499399  1
  O  O114  1  0.31675758  0.14213190  0.41615678  1
  O  O115  1  0.81867614  0.15099491  0.41477890  1
  O  O116  1  0.24623284  0.38087126  0.41101306  1
  O  O117  1  0.74755572  0.37066525  0.41625205  1
  O  O118  1  0.42748673  0.49623590  0.41670986  1
  O  O119  1  0.93795634  0.51348716  0.41119937  1
  O  O120  1  0.16773427  0.47085062  0.08439038  1
  O  O121  1  0.66430263  0.46485443  0.08116287  1
  O  O122  1  0.06806974  0.66178265  0.08043058  1
  O  O123  1  0.57771261  0.65498992  0.07749911  1
  O  O124  1  0.24825653  0.83806543  0.07542079  1
  O  O125  1  0.75520264  0.85371021  0.08452333  1
  O  O126  1  0.16331483  0.84734678  0.57664149  1
  O  O127  1  0.66732818  0.86402645  0.58423808  1
  O  O128  1  0.25632786  0.65598846  0.58434843  1
  O  O129  1  0.74797699  0.65899673  0.57515529  1
  O  O130  1  0.07674129  0.48860768  0.57678360  1
  O  O131  1  0.57086857  0.47645494  0.57966993  1
  O  O132  1  0.15515449  0.83152068  0.25640703  1
  O  O133  1  0.65183628  0.83657722  0.25164024  1
  O  O134  1  0.26822127  0.70758937  0.25029372  1
  O  O135  1  0.75910891  0.70145670  0.25399610  1
  O  O136  1  0.08942750  0.49219455  0.25558332  1
  O  O137  1  0.59048417  0.48242108  0.25719289  1
  O  O138  1  0.15036828  0.46707739  0.75266284  1
  O  O139  1  0.65545758  0.47866528  0.75792820  1
  O  O140  1  0.08949765  0.69908255  0.75951961  1
  O  O141  1  0.58881729  0.68537842  0.75834364  1
  O  O142  1  0.25944494  0.81825128  0.75572322  1
  O  O143  1  0.76538362  0.82938486  0.75410416  1
loop_
_geom_bond_atom_site_label_1
_geom_bond_atom_site_label_2
_geom_bond_distance
_geom_bond_site_symmetry_2
Na0 O104 2.314138 1_555
Na0 O106 2.330074 1_555
Na0 O32 2.447076 1_555
Na0 O134 2.584172 1_545
Na0 O132 2.654182 1_545
Na0 O62 2.936743 1_545
Na1 O107 2.484358 1_555
Na1 O33 2.515312 1_555
Na1 O135 2.517330 1_545
Na1 O105 2.541895 1_555
Na1 O133 2.748730 1_545
Na1 O63 2.850164 1_545
Na1 O19 2.915160 1_545
Na1 O5 2.921307 1_555
Na2 O105 2.382512 1_555
Na2 O103 2.460323 1_555
Na2 O132 2.667600 1_655
Na2 O31 2.671786 1_555
Na2 O3 2.708465 1_555
Na2 O136 2.745933 1_655
Na2 O60 2.762592 1_655
Na2 O22 2.990092 1_655
Na3 O28 2.354660 1_555
Na3 O98 2.430359 1_555
Na3 O100 2.517090 1_555
Na3 O142 2.569022 1_555
Na3 O138 2.772108 1_555
Na4 O101 2.322294 1_555
Na4 O99 2.350578 1_555
Na4 O29 2.391196 1_555
Na4 O143 2.627482 1_555
Na4 O139 2.686133 1_555
Na5 O100 2.334140 1_555
Na5 O96 2.370571 1_555
Na5 O24 2.549923 1_555
Na5 O139 2.702474 1_555
Na5 O141 2.718477 1_555
Na5 O10 2.848352 1_555
Na5 O67 2.896120 1_555
Na5 O15 2.989152 1_555
Na6 O130 2.384016 1_555
Na6 O128 2.414215 1_555
Na6 O56 2.589749 1_555
Na6 O86 2.605841 1_555
Na6 O85 2.765648 1_455
Na6 O42 2.866898 1_555
Na6 O14 2.936147 1_555
Na7 O131 2.432240 1_555
Na7 O129 2.478592 1_555
Na7 O87 2.552531 1_555
Na7 O29 2.644681 1_555
Na7 O84 2.649825 1_555
Na7 O15 2.738194 1_555
Na7 O57 2.744327 1_555
Na8 O126 2.354446 1_555
Na8 O130 2.433245 1_555
Na8 O25 2.635483 1_455
Na8 O58 2.718471 1_555
Na8 O89 2.757015 1_455
Na8 O86 2.847946 1_565
Na8 O16 2.928700 1_555
Na8 O45 2.990326 1_455
Na9 O59 2.308008 1_555
Na9 O127 2.544271 1_555
Na9 O44 2.555409 1_555
Na9 O88 2.591709 1_555
Na9 O131 2.616670 1_555
Na9 O87 2.811427 1_565
Na10 O128 2.378455 1_555
Na10 O54 2.477962 1_555
Na10 O126 2.544284 1_555
Na10 O88 2.685694 1_555
Na10 O26 2.759981 1_565
Na10 O84 2.776869 1_565
Na11 O55 2.319313 1_555
Na11 O129 2.489373 1_555
Na11 O85 2.621590 1_565
Na11 O47 2.627443 1_565
Na11 O89 2.627674 1_555
Na11 O127 2.663001 1_555
Na12 O122 2.448670 1_555
Na12 O124 2.469193 1_555
Na12 O94 2.559896 1_565
Na12 O91 2.676081 1_455
Na12 O52 2.679551 1_554
Na12 O32 2.716690 1_565
Na12 O22 2.782685 1_555
Na13 O123 2.395627 1_555
Na13 O125 2.403099 1_555
Na13 O90 2.587455 1_555
Na13 O53 2.600955 1_554
Na13 O95 2.617079 1_565
Na13 O23 2.821387 1_555
Na14 O48 2.274481 1_554
Na14 O124 2.512020 1_555
Na14 O120 2.619025 1_555
Na14 O38 2.634942 1_555
Na14 O92 2.660852 1_565
Na14 O90 2.766951 1_555
Na15 O49 2.321732 1_554
Na15 O125 2.346481 1_555
Na15 O93 2.606963 1_565
Na15 O91 2.674483 1_555
Na15 O121 2.675177 1_555
Na16 O50 2.285441 1_554
Na16 O120 2.505487 1_555
Na16 O93 2.542279 1_455
Na16 O122 2.608232 1_555
Na16 O41 2.692647 1_455
Na16 O94 2.760600 1_555
Na17 O123 2.418334 1_555
Na17 O121 2.555907 1_555
Na17 O30 2.611768 1_555
Na17 O92 2.690546 1_555
Na17 O51 2.700451 1_554
Na17 O40 2.760240 1_555
Na17 O21 2.936138 1_555
Na17 O95 2.944395 1_555
Na18 O82 2.353441 1_555
Na18 O8 2.416344 1_555
Na18 O108 2.484270 1_555
Na18 O110 2.502421 1_555
Na18 O38 2.521798 1_556
Na18 O81 2.601660 1_555
Na19 O9 2.350291 1_555
Na19 O83 2.447275 1_555
Na19 O111 2.448757 1_555
Na19 O109 2.541584 1_555
Na19 O80 2.692744 1_655
Na19 O39 2.876232 1_556
Na20 O10 2.433100 1_555
Na20 O82 2.447353 1_545
Na20 O112 2.514935 1_555
Na20 O79 2.590079 1_555
Na20 O40 2.649912 1_556
Na20 O110 2.668001 1_555
Na21 O83 2.487033 1_545
Na21 O78 2.496483 1_655
Na21 O113 2.498291 1_555
Na21 O41 2.519864 1_556
Na21 O111 2.533689 1_555
Na21 O11 2.702066 1_555
Na22 O108 2.402836 1_555
Na22 O78 2.478176 1_555
Na22 O80 2.553580 1_545
Na22 O36 2.630770 1_556
Na22 O6 2.680275 1_555
Na22 O112 2.708306 1_555
Na23 O7 2.364407 1_555
Na23 O109 2.386514 1_555
Na23 O81 2.450136 1_545
Na23 O79 2.521701 1_555
Na23 O113 2.572930 1_555
Na23 O37 2.809326 1_556
Na24 O118 2.399465 1_555
Na24 O114 2.436318 1_555
Na24 O74 2.447412 1_545
Na24 O4 2.506464 1_555
Na24 O77 2.755522 1_555
Na24 O46 2.762018 1_555
Na25 O75 2.379579 1_545
Na25 O47 2.470660 1_555
Na25 O115 2.492969 1_555
Na25 O5 2.522175 1_555
Na25 O119 2.524441 1_555
Na25 O76 2.576412 1_655
Na26 O114 2.364524 1_555
Na26 O42 2.426072 1_555
Na26 O76 2.476712 1_555
Na26 O72 2.570872 1_545
Na26 O0 2.595592 1_555
Na26 O116 2.603715 1_555
Na27 O115 2.412526 1_555
Na27 O73 2.464488 1_545
Na27 O43 2.551971 1_555
Na27 O77 2.587055 1_555
Na27 O117 2.740307 1_555
Na27 O1 2.774971 1_555
Na27 O59 2.934596 1_545
Na28 O44 2.416075 1_555
Na28 O116 2.429254 1_555
Na28 O74 2.512346 1_555
Na28 O118 2.527306 1_555
Na28 O73 2.549475 1_555
Na28 O2 2.870782 1_555
Na28 O54 2.958479 1_555
Na29 O75 2.432594 1_555
Na29 O117 2.513845 1_555
Na29 O45 2.553204 1_555
Na29 O3 2.557734 1_555
Na29 O72 2.581190 1_655
Na29 O119 2.659950 1_555
Na29 O55 2.907620 1_555
Na30 O75 2.311461 1_545
Na30 O76 2.550106 1_655
Na30 O72 2.565254 1_645
Na30 O89 2.726002 1_545
Na30 O86 2.816804 1_655
Na30 O85 2.819082 1_555
Na31 O74 2.330661 1_555
Na31 O73 2.396723 1_555
Na31 O88 2.536645 1_555
Na31 O77 2.701975 1_565
Na31 O84 2.710432 1_565
Na31 O87 2.733298 1_565
Na32 O83 2.330206 1_545
Na32 O78 2.349582 1_655
Na32 O93 2.614361 1_556
Na32 O80 2.628532 1_645
Na32 O91 2.714727 1_546
Na32 O94 2.731074 1_656
Na33 O82 2.252955 1_555
Na33 O81 2.540979 1_555
Na33 O79 2.544558 1_565
Na33 O92 2.720363 1_566
Na33 O90 2.810767 1_556
Na33 O95 2.875991 1_566
Na34 O96 2.422026 1_555
Na34 O100 2.460571 1_555
Na34 O98 2.496734 1_555
Na34 O108 2.540028 1_555
Na34 O112 2.671684 1_555
Na34 O110 2.672251 1_555
Na35 O101 2.337613 1_555
Na35 O99 2.404178 1_555
Na35 O111 2.514709 1_555
Na35 O97 2.587732 1_555
Na35 O109 2.674075 1_555
Na35 O113 2.737942 1_555
Na36 O104 2.426414 1_555
Na36 O106 2.475794 1_555
Na36 O118 2.484273 1_555
Na36 O114 2.505754 1_555
Na36 O116 2.640450 1_555
Na36 O102 2.731117 1_555
Na37 O115 2.446570 1_555
Na37 O105 2.521567 1_555
Na37 O119 2.549044 1_555
Na37 O107 2.569125 1_555
Na37 O117 2.580880 1_555
Na37 O103 2.611503 1_555
Na38 O124 2.405675 1_555
Na38 O120 2.435802 1_555
Na38 O122 2.572640 1_555
Na38 O134 2.590797 1_555
Na38 O136 2.647161 1_555
Na38 O132 2.729968 1_555
Na39 O123 2.450543 1_555
Na39 O125 2.498040 1_555
Na39 O137 2.556702 1_555
Na39 O135 2.588487 1_555
Na39 O133 2.592864 1_555
Na39 O121 2.593133 1_555
Na40 O126 2.423755 1_555
Na40 O130 2.474425 1_555
Na40 O128 2.474879 1_555
Na40 O140 2.669575 1_555
Na40 O142 2.671204 1_555
Na40 O138 2.750796 1_555
Na41 O129 2.366123 1_555
Na41 O127 2.400521 1_555
Na41 O131 2.522075 1_555
Na41 O143 2.679838 1_555
Na41 O141 2.743116 1_555
Na41 O139 2.799301 1_555
Nb0 O86 1.882587 1_565
Nb0 O16 1.937208 1_555
Nb0 O89 1.941233 1_455
Nb0 O85 1.948913 1_465
Nb0 O14 2.253949 1_565
Nb0 O13 2.312814 1_455
Nb1 O17 1.887280 1_555
Nb1 O12 1.890939 1_555
Nb1 O88 1.978457 1_555
Nb1 O15 1.999812 1_565
Nb1 O87 2.261980 1_565
Nb1 O84 2.263315 1_565
Nb2 O20 1.878821 1_655
Nb2 O19 1.888864 1_545
Nb2 O22 1.975353 1_645
Nb2 O93 2.019044 1_555
Nb2 O94 2.246817 1_655
Nb2 O91 2.275832 1_545
Nb3 O21 1.914780 1_555
Nb3 O92 1.920510 1_555
Nb3 O90 1.959263 1_545
Nb3 O95 2.077454 1_555
Nb3 O18 2.092349 1_545
Nb3 O23 2.228280 1_545
Nb4 O62 1.891575 1_555
Nb4 O132 1.937752 1_555
Nb4 O136 2.016361 1_555
Nb4 O60 2.053810 1_555
Nb4 O64 2.098969 1_555
Nb4 O134 2.193020 1_555
Nb5 O61 1.892103 1_555
Nb5 O63 1.955658 1_555
Nb5 O137 1.993196 1_555
Nb5 O65 2.080569 1_555
Nb5 O135 2.082086 1_555
Nb5 O133 2.172290 1_555
Nb6 O66 1.906713 1_555
Nb6 O140 1.967504 1_555
Nb6 O70 1.976839 1_555
Nb6 O142 2.037864 1_555
Nb6 O138 2.110119 1_555
Nb6 O68 2.135065 1_555
Nb7 O139 1.909650 1_555
Nb7 O71 1.922111 1_555
Nb7 O141 1.987803 1_555
Nb7 O143 2.083037 1_555
Nb7 O67 2.096083 1_555
Nb7 O69 2.178315 1_555
O0 Si0 1.599307 1_555
O0 Zn0 2.011979 1_445
O1 S0 1.456787 1_545
O1 Zn1 2.252927 1_545
O2 S1 1.462880 1_555
O2 Zn1 2.160314 1_555
O3 Si1 1.612090 1_555
O3 Zn0 1.992312 1_555
O4 Si3 1.602515 1_555
O4 Zn1 1.949866 1_545
O5 Si2 1.589864 1_655
O5 Zn0 1.950494 1_545
O6 S2 1.463268 1_555
O6 Zn2 2.219070 1_445
O7 Si4 1.602456 1_555
O7 Zn3 2.015895 1_545
O8 Si6 1.592497 1_555
O8 Zn3 1.932871 1_555
O9 Si5 1.609690 1_655
O9 Zn2 1.935947 1_555
O10 Si7 1.611405 1_555
O10 Zn3 1.951379 1_545
O11 S3 1.473755 1_545
O11 Zn2 2.128000 1_545
O12 Si7 1.745595 1_565
O13 S3 1.488426 1_555
O14 S2 1.487234 1_555
O15 Si4 1.689105 1_555
O16 Si5 1.701342 1_555
O17 Si6 1.707250 1_555
O18 S1 1.536228 1_555
O19 Si1 1.748379 1_555
O20 Si2 1.710064 1_555
O21 Si3 1.736164 1_555
O22 Si0 1.707939 1_565
O23 S0 1.505885 1_555
O24 S4 1.472963 1_555
O24 Zn4 2.240144 1_555
O25 Si8 1.599999 1_555
O25 Zn5 1.932067 1_555
O26 Si9 1.593999 1_555
O26 Zn4 1.927623 1_555
O27 S5 1.457590 1_555
O27 Zn5 2.334774 1_555
O28 Si10 1.616187 1_555
O28 Zn4 1.994639 1_555
O29 Si11 1.614985 1_555
O29 Zn5 1.994904 1_555
O30 Si12 1.599138 1_555
O30 Zn6 1.960903 1_555
O31 S6 1.473618 1_555
O31 Zn7 2.193369 1_555
O32 Si13 1.610265 1_555
O32 Zn6 2.002417 1_555
O33 Si14 1.623267 1_555
O33 Zn7 1.948983 1_555
O34 S7 1.454891 1_555
O34 Zn6 2.336594 1_555
O35 S8 1.457715 1_555
O35 Zn7 2.216073 1_555
O36 S7 1.494112 1_555
O36 Zn8 2.260479 1_554
O37 S8 1.473348 1_555
O37 Zn9 2.495677 1_554
O38 Si12 1.641649 1_555
O38 Zn8 1.979414 1_554
O39 S6 1.480561 1_555
O39 Zn9 2.221302 1_554
O40 Si13 1.639307 1_555
O40 Zn8 2.065591 1_554
O41 Si14 1.640963 1_555
O41 Zn9 2.015438 1_554
O42 Si9 1.632884 1_555
O42 Zn10 2.038901 1_555
O43 S5 1.497527 1_555
O43 Zn11 2.231877 1_555
O44 Si10 1.638300 1_555
O44 Zn10 2.050856 1_555
O45 Si11 1.643407 1_555
O45 Zn11 2.012674 1_555
O46 S4 1.479502 1_555
O46 Zn10 2.291130 1_555
O47 Si8 1.651141 1_555
O47 Zn11 1.950303 1_555
O48 Si15 1.620687 1_555
O48 Zn12 1.905504 1_556
O49 Si16 1.613319 1_555
O49 Zn13 1.941946 1_556
O50 Si17 1.630404 1_555
O50 Zn12 1.962224 1_556
O51 S9 1.471286 1_555
O51 Zn13 2.226326 1_556
O52 S10 1.487993 1_555
O52 Zn12 2.118020 1_556
O53 S11 1.482970 1_555
O53 Zn13 2.080271 1_556
O54 Si18 1.602156 1_555
O54 Zn14 1.970098 1_555
O55 Si19 1.615824 1_555
O55 Zn15 1.917921 1_555
O56 S12 1.470683 1_555
O56 Zn14 2.213602 1_555
O57 S13 1.479744 1_555
O57 Zn15 2.136889 1_555
O58 S14 1.459281 1_555
O58 Zn14 2.264264 1_555
O59 Si20 1.629283 1_555
O59 Zn15 1.964227 1_555
O60 S14 1.559634 1_555
O61 Si20 1.725084 1_555
O62 Si18 1.761054 1_555
O63 Si19 1.723036 1_555
O64 S12 1.534199 1_555
O65 S13 1.525855 1_555
O66 Si17 1.692055 1_555
O67 S9 1.540665 1_555
O68 S10 1.512066 1_555
O69 S11 1.511082 1_555
O70 Si15 1.704853 1_555
O71 Si16 1.736373 1_555
O72 S14 1.475803 1_555
O72 Zn0 2.496386 1_455
O73 Si20 1.639528 1_555
O73 Zn1 2.045400 1_555
O74 Si18 1.632780 1_555
O74 Zn1 2.036146 1_555
O75 Si19 1.641849 1_555
O75 Zn0 2.122787 1_555
O76 S12 1.477285 1_555
O76 Zn0 2.526023 1_445
O77 S13 1.476471 1_555
O77 Zn1 2.288419 1_545
O78 Si17 1.639488 1_555
O78 Zn2 2.066737 1_445
O79 S9 1.476208 1_555
O80 S10 1.480263 1_555
O80 Zn2 2.339851 1_455
O81 S11 1.478523 1_555
O81 Zn3 2.520074 1_555
O82 Si15 1.638291 1_555
O82 Zn3 2.146892 1_555
O83 Si16 1.631276 1_555
O83 Zn2 2.111895 1_555
O84 S4 1.532286 1_555
O85 Si8 1.698578 1_555
O86 Si9 1.746420 1_555
O87 S5 1.535479 1_555
O88 Si10 1.753308 1_555
O89 Si11 1.734173 1_555
O90 Si12 1.713189 1_555
O91 S6 1.531725 1_555
O92 Si13 1.771413 1_555
O93 Si14 1.738187 1_555
O94 S7 1.541147 1_555
O95 S8 1.566021 1_555
O96 Si7 1.593374 1_555
O96 Zn4 2.063031 1_555
O97 S3 1.447182 1_545
O97 Zn5 2.429379 1_555
O98 S2 1.473057 1_555
O98 Zn4 2.404843 1_555
O99 Si4 1.595484 1_555
O99 Zn5 2.210203 1_555
O100 Si6 1.604021 1_555
O100 Zn4 2.219544 1_555
O101 Si5 1.608541 1_655
O101 Zn5 2.055577 1_555
O102 S1 1.438104 1_555
O102 Zn6 2.392771 1_555
O103 Si1 1.600651 1_555
O103 Zn7 1.979578 1_555
O104 Si3 1.606512 1_555
O104 Zn6 2.042216 1_555
O105 Si2 1.614625 1_655
O105 Zn7 2.067516 1_555
O106 Si0 1.596965 1_555
O106 Zn6 2.186555 1_555
O107 S0 1.472948 1_545
O107 Zn7 2.343571 1_555
O108 Si15 1.654497 1_555
O108 Zn8 2.166741 1_555
O109 Si16 1.642638 1_555
O109 Zn9 2.094710 1_555
O110 S9 1.483264 1_555
O110 Zn8 2.430465 1_555
O111 Si17 1.635793 1_655
O111 Zn9 2.017137 1_555
O112 S10 1.481953 1_545
O112 Zn8 2.535154 1_555
O113 S11 1.486152 1_545
O113 Zn9 2.350348 1_555
O114 Si18 1.629031 1_545
O114 Zn10 2.245309 1_555
O115 Si19 1.646862 1_545
O115 Zn11 2.278430 1_555
O116 S12 1.483348 1_555
O116 Zn10 2.423486 1_555
O117 S13 1.478042 1_555
O117 Zn11 2.599640 1_555
O118 Si20 1.628829 1_555
O118 Zn10 2.206457 1_555
O119 S14 1.481214 1_655
O119 Zn11 2.516973 1_555
O120 S7 1.492494 1_555
O120 Zn12 2.452911 1_555
O121 S8 1.480566 1_555
O121 Zn13 2.372475 1_555
O122 S6 1.485503 1_455
O122 Zn12 2.556915 1_555
O123 Si12 1.645267 1_555
O123 Zn13 2.053303 1_555
O124 Si13 1.640854 1_565
O124 Zn12 2.136242 1_555
O125 Si14 1.640142 1_565
O125 Zn13 2.078683 1_555
O126 Si9 1.625632 1_565
O126 Zn14 2.033891 1_555
O127 S5 1.490415 1_565
O127 Zn15 2.423922 1_555
O128 Si10 1.628336 1_555
O128 Zn14 2.079111 1_555
O129 Si11 1.645729 1_555
O129 Zn15 2.101228 1_555
O130 Si8 1.629676 1_455
O130 Zn14 2.079642 1_555
O131 S4 1.488906 1_555
O131 Zn15 2.490302 1_555
O132 Si0 1.762322 1_565
O133 S0 1.537723 1_555
O134 S1 1.541948 1_555
O135 Si1 1.652145 1_555
O136 Si2 1.666321 1_555
O137 Si3 1.665134 1_555
O138 S2 1.546696 1_555
O139 Si4 1.774690 1_555
O140 Si5 1.673602 1_555
O141 Si6 1.678236 1_555
O142 Si7 1.658321 1_565
O143 S3 1.571427 1_555
