# generated using pymatgen
data_MgMn2Al2O6
_symmetry_space_group_name_H-M   'P 1'
_cell_length_a   5.12726195
_cell_length_b   5.12453471
_cell_length_c   5.75752607
_cell_angle_alpha   63.63890355
_cell_angle_beta   116.61885064
_cell_angle_gamma   119.96359078
_symmetry_Int_Tables_number   1
_chemical_formula_structural   MgMn2Al2O6
_chemical_formula_sum   'Mg1 Mn2 Al2 O6'
_cell_volume   112.33014656
_cell_formula_units_Z   1
loop_
 _symmetry_equiv_pos_site_id
 _symmetry_equiv_pos_as_xyz
  1  'x, y, z'
loop_
 _atom_site_type_symbol
 _atom_site_label
 _atom_site_symmetry_multiplicity
 _atom_site_fract_x
 _atom_site_fract_y
 _atom_site_fract_z
 _atom_site_occupancy
  Mg  Mg0  1  0.00000200  0.00000000  0.00000100  1
  Mn  Mn0  1  0.62456300  0.37819700  0.86982500  1
  Mn  Mn1  1  0.37543600  0.62180500  0.13017200  1
  Al  Al0  1  0.82367300  0.17566900  0.47224800  1
  Al  Al1  1  0.17632600  0.82433100  0.52775200  1
  O  O0  1  0.95989900  0.81043500  0.72959500  1
  O  O1  1  0.58156900  0.04331600  0.72867600  1
  O  O2  1  0.19112100  0.42022800  0.73112500  1
  O  O3  1  0.80887800  0.57977100  0.26887600  1
  O  O4  1  0.41843000  0.95668200  0.27132600  1
  O  O5  1  0.04010200  0.18956500  0.27040600  1
loop_
_geom_bond_atom_site_label_1
_geom_bond_atom_site_label_2
_geom_bond_distance
_geom_bond_site_symmetry_2
Mg0 O4 2.063210 1_545
Mg0 O1 2.063226 1_454
Mg0 O0 2.065551 1_444
Mg0 O5 2.065553 1_555
Mg0 O2 2.070056 1_554
Mg0 O3 2.070062 1_445
Mn0 O1 2.086658 1_555
Mn0 O2 2.087607 1_555
Mn0 O0 2.089480 1_555
Mn0 O3 2.534890 1_556
Mn0 O5 2.543048 1_656
Mn0 O4 2.569283 1_546
Mn1 O4 2.086659 1_555
Mn1 O3 2.087611 1_555
Mn1 O5 2.089487 1_555
Mn1 O2 2.534878 1_554
Mn1 O0 2.543029 1_454
Mn1 O1 2.569257 1_564
Al0 O4 1.893301 1_545
Al0 O3 1.894505 1_555
Al0 O5 1.894771 1_655
Al0 O1 2.023036 1_555
Al0 O0 2.025350 1_545
Al0 O2 2.031167 1_655
Al1 O1 1.893302 1_565
Al1 O2 1.894510 1_555
Al1 O0 1.894767 1_455
Al1 O4 2.023029 1_555
Al1 O5 2.025344 1_565
Al1 O3 2.031166 1_455
