# generated using pymatgen
data_Ba2PrMgNbO6
_symmetry_space_group_name_H-M   'P 1'
_cell_length_a   6.99257949
_cell_length_b   6.20870159
_cell_length_c   6.06359976
_cell_angle_alpha   59.18317613
_cell_angle_beta   59.20714445
_cell_angle_gamma   63.56470788
_symmetry_Int_Tables_number   1
_chemical_formula_structural   Ba2PrMgNbO6
_chemical_formula_sum   'Ba2 Pr1 Mg1 Nb1 O6'
_cell_volume   188.14482773
_cell_formula_units_Z   1
loop_
 _symmetry_equiv_pos_site_id
 _symmetry_equiv_pos_as_xyz
  1  'x, y, z'
loop_
 _atom_site_type_symbol
 _atom_site_label
 _atom_site_symmetry_multiplicity
 _atom_site_fract_x
 _atom_site_fract_y
 _atom_site_fract_z
 _atom_site_occupancy
  Ba  Ba0  1  0.39221266  0.19039782  0.22859379  1
  Ba  Ba1  1  0.60827694  0.80910958  0.77215850  1
  Pr  Pr0  1  0.00183211  0.99732476  0.00347848  1
  Mg  Mg0  1  0.00011856  0.49980730  0.00016514  1
  Nb  Nb0  1  0.50006011  0.49993147  0.50005389  1
  O  O0  1  0.73860884  0.74349436  0.21237089  1
  O  O1  1  0.26068335  0.69426238  0.78728902  1
  O  O2  1  0.70036139  0.28534003  0.73055663  1
  O  O3  1  0.26117914  0.25723057  0.78608605  1
  O  O4  1  0.29751749  0.71649173  0.26795491  1
  O  O5  1  0.73915240  0.30661198  0.21129269  1
loop_
_geom_bond_atom_site_label_1
_geom_bond_atom_site_label_2
_geom_bond_distance
_geom_bond_site_symmetry_2
Ba0 O2 2.598992 1_554
Ba0 O0 2.761751 1_545
Ba0 O5 2.763610 1_555
Ba0 O1 3.028849 1_554
Ba0 O3 3.041241 1_554
Ba0 O4 3.142565 1_555
Ba0 O4 3.163257 1_545
Ba0 O3 3.219668 1_555
Ba0 O1 3.232872 1_545
Ba1 O4 2.596764 1_556
Ba1 O3 2.767173 1_565
Ba1 O1 2.769900 1_555
Ba1 O5 3.017015 1_556
Ba1 O0 3.027794 1_556
Ba1 O2 3.140555 1_555
Ba1 O2 3.159970 1_565
Ba1 O0 3.230625 1_555
Ba1 O5 3.242155 1_565
Mg0 O5 2.095552 1_455
Mg0 O1 2.096998 1_554
Mg0 O0 2.100199 1_455
Mg0 O3 2.101117 1_554
Nb0 O2 2.031063 1_555
Nb0 O4 2.049599 1_555
Nb0 O1 2.158930 1_555
Nb0 O3 2.160101 1_555
Nb0 O5 2.161225 1_555
Nb0 O0 2.162430 1_555
O0 Pr0 2.371980 1_655
O1 Pr0 2.366554 1_556
O2 Pr0 2.750215 1_646
O3 Pr0 2.368320 1_546
O4 Pr0 2.684593 1_555
O5 Pr0 2.370251 1_645
