# generated using pymatgen
data_TaTe4
_symmetry_space_group_name_H-M   'P 1'
_cell_length_a   9.34964021
_cell_length_b   9.34964021
_cell_length_c   20.86086002
_cell_angle_alpha   90.00000000
_cell_angle_beta   90.00000000
_cell_angle_gamma   90.00000000
_symmetry_Int_Tables_number   1
_chemical_formula_structural   TaTe4
_chemical_formula_sum   'Ta12 Te48'
_cell_volume   1823.56818441
_cell_formula_units_Z   12
loop_
 _symmetry_equiv_pos_site_id
 _symmetry_equiv_pos_as_xyz
  1  'x, y, z'
loop_
 _atom_site_type_symbol
 _atom_site_label
 _atom_site_symmetry_multiplicity
 _atom_site_fract_x
 _atom_site_fract_y
 _atom_site_fract_z
 _atom_site_occupancy
  Ta  Ta0  1  0.25000000  0.25000000  0.93233050  1
  Ta  Ta1  1  0.75000000  0.75000000  0.56766950  1
  Ta  Ta2  1  0.75000000  0.75000000  0.06766950  1
  Ta  Ta3  1  0.25000000  0.25000000  0.43233050  1
  Ta  Ta4  1  0.25000000  0.25000000  0.23604336  1
  Ta  Ta5  1  0.75000000  0.75000000  0.26395664  1
  Ta  Ta6  1  0.75000000  0.75000000  0.76395664  1
  Ta  Ta7  1  0.25000000  0.25000000  0.73604336  1
  Ta  Ta8  1  0.25000000  0.25000000  0.08522111  1
  Ta  Ta9  1  0.75000000  0.75000000  0.41477889  1
  Ta  Ta10  1  0.75000000  0.75000000  0.91477889  1
  Ta  Ta11  1  0.25000000  0.25000000  0.58522111  1
  Te  Te0  1  0.48641593  0.15721204  0.00371126  1
  Te  Te1  1  0.01358407  0.34278796  0.00371126  1
  Te  Te2  1  0.65721204  0.98641593  0.49628874  1
  Te  Te3  1  0.15721204  0.01358407  0.00371126  1
  Te  Te4  1  0.34278796  0.48641593  0.00371126  1
  Te  Te5  1  0.51358407  0.65721204  0.49628874  1
  Te  Te6  1  0.98641593  0.84278796  0.49628874  1
  Te  Te7  1  0.84278796  0.51358407  0.49628874  1
  Te  Te8  1  0.51358407  0.84278796  0.99628874  1
  Te  Te9  1  0.98641593  0.65721204  0.99628874  1
  Te  Te10  1  0.34278796  0.01358407  0.50371126  1
  Te  Te11  1  0.84278796  0.98641593  0.99628874  1
  Te  Te12  1  0.00880237  0.33526931  0.66497697  1
  Te  Te13  1  0.16473069  0.00880237  0.66497697  1
  Te  Te14  1  0.33526931  0.49119763  0.66497697  1
  Te  Te15  1  0.50880237  0.66473069  0.83502303  1
  Te  Te16  1  0.99119763  0.83526931  0.83502303  1
  Te  Te17  1  0.49119763  0.16473069  0.66497697  1
  Te  Te18  1  0.83526931  0.50880237  0.83502303  1
  Te  Te19  1  0.66473069  0.99119763  0.83502303  1
  Te  Te20  1  0.99119763  0.66473069  0.33502303  1
  Te  Te21  1  0.83526931  0.99119763  0.33502303  1
  Te  Te22  1  0.66473069  0.50880237  0.33502303  1
  Te  Te23  1  0.49119763  0.33526931  0.16497697  1
  Te  Te24  1  0.00880237  0.16473069  0.16497697  1
  Te  Te25  1  0.50880237  0.83526931  0.33502303  1
  Te  Te26  1  0.16473069  0.49119763  0.16497697  1
  Te  Te27  1  0.33526931  0.00880237  0.16497697  1
  Te  Te28  1  0.46233167  0.34656056  0.83425715  1
  Te  Te29  1  0.15343944  0.46233167  0.83425715  1
  Te  Te30  1  0.34656056  0.03766833  0.83425715  1
  Te  Te31  1  0.96233167  0.65343944  0.66574285  1
  Te  Te32  1  0.53766833  0.84656056  0.66574285  1
  Te  Te33  1  0.03766833  0.15343944  0.83425715  1
  Te  Te34  1  0.84656056  0.96233167  0.66574285  1
  Te  Te35  1  0.65343944  0.53766833  0.66574285  1
  Te  Te36  1  0.53766833  0.65343944  0.16574285  1
  Te  Te37  1  0.84656056  0.53766833  0.16574285  1
  Te  Te38  1  0.65343944  0.96233167  0.16574285  1
  Te  Te39  1  0.03766833  0.34656056  0.33425715  1
  Te  Te40  1  0.46233167  0.15343944  0.33425715  1
  Te  Te41  1  0.96233167  0.84656056  0.16574285  1
  Te  Te42  1  0.15343944  0.03766833  0.33425715  1
  Te  Te43  1  0.34656056  0.46233167  0.33425715  1
  Te  Te44  1  0.15721204  0.48641593  0.50371126  1
  Te  Te45  1  0.01358407  0.15721204  0.50371126  1
  Te  Te46  1  0.48641593  0.34278796  0.50371126  1
  Te  Te47  1  0.65721204  0.51358407  0.99628874  1
loop_
_geom_bond_atom_site_label_1
_geom_bond_atom_site_label_2
_geom_bond_distance
_geom_bond_site_symmetry_2
Ta0 Te3 2.802822 1_556
Ta0 Te1 2.802822 1_556
Ta0 Te0 2.802822 1_556
Ta0 Te4 2.802822 1_556
Ta0 Te29 2.990294 1_555
Ta0 Te33 2.990294 1_555
Ta0 Te30 2.990294 1_555
Ta0 Te28 2.990294 1_555
Ta1 Te7 2.802822 1_555
Ta1 Te5 2.802822 1_555
Ta1 Te2 2.802822 1_555
Ta1 Te6 2.802822 1_555
Ta1 Te31 2.990294 1_555
Ta1 Te34 2.990294 1_555
Ta1 Te35 2.990294 1_555
Ta1 Te32 2.990294 1_555
Ta2 Te47 2.802822 1_554
Ta2 Te8 2.802822 1_554
Ta2 Te11 2.802822 1_554
Ta2 Te9 2.802822 1_554
Ta2 Te36 2.990294 1_555
Ta2 Te38 2.990294 1_555
Ta2 Te37 2.990294 1_555
Ta2 Te41 2.990294 1_555
Ta3 Te44 2.802822 1_555
Ta3 Te10 2.802822 1_555
Ta3 Te45 2.802822 1_555
Ta3 Te46 2.802822 1_555
Ta3 Te39 2.990294 1_555
Ta3 Te40 2.990294 1_555
Ta3 Te43 2.990294 1_555
Ta3 Te42 2.990294 1_555
Ta4 Te23 2.814061 1_555
Ta4 Te24 2.814061 1_555
Ta4 Te27 2.814061 1_555
Ta4 Te26 2.814061 1_555
Ta4 Te42 2.992300 1_555
Ta4 Te39 2.992300 1_555
Ta4 Te40 2.992300 1_555
Ta4 Te43 2.992300 1_555
Ta5 Te22 2.814061 1_555
Ta5 Te25 2.814061 1_555
Ta5 Te20 2.814061 1_555
Ta5 Te21 2.814061 1_555
Ta5 Te36 2.992300 1_555
Ta5 Te38 2.992300 1_555
Ta5 Te37 2.992300 1_555
Ta5 Te41 2.992300 1_555
Ta6 Te18 2.814061 1_555
Ta6 Te15 2.814061 1_555
Ta6 Te19 2.814061 1_555
Ta6 Te16 2.814061 1_555
Ta6 Te35 2.992300 1_555
Ta6 Te31 2.992300 1_555
Ta6 Te34 2.992300 1_555
Ta6 Te32 2.992300 1_555
Ta7 Te12 2.814061 1_555
Ta7 Te13 2.814061 1_555
Ta7 Te14 2.814061 1_555
Ta7 Te17 2.814061 1_555
Ta7 Te30 2.992300 1_555
Ta7 Te33 2.992300 1_555
Ta7 Te28 2.992300 1_555
Ta7 Te29 2.992300 1_555
Ta8 Te27 2.913634 1_555
Ta8 Te24 2.913634 1_555
Ta8 Te26 2.913634 1_555
Ta8 Te23 2.913634 1_555
Ta8 Te3 2.920572 1_555
Ta8 Te0 2.920572 1_555
Ta8 Te1 2.920572 1_555
Ta8 Te4 2.920572 1_555
Ta9 Te25 2.913634 1_555
Ta9 Te22 2.913634 1_555
Ta9 Te20 2.913634 1_555
Ta9 Te21 2.913634 1_555
Ta9 Te7 2.920572 1_555
Ta9 Te5 2.920572 1_555
Ta9 Te2 2.920572 1_555
Ta9 Te6 2.920572 1_555
Ta10 Te18 2.913634 1_555
Ta10 Te15 2.913634 1_555
Ta10 Te19 2.913634 1_555
Ta10 Te16 2.913634 1_555
Ta10 Te47 2.920572 1_555
Ta10 Te8 2.920572 1_555
Ta10 Te9 2.920572 1_555
Ta10 Te11 2.920572 1_555
Ta11 Te17 2.913634 1_555
Ta11 Te13 2.913634 1_555
Ta11 Te12 2.913634 1_555
Ta11 Te14 2.913634 1_555
Ta11 Te44 2.920572 1_555
Ta11 Te45 2.920572 1_555
Ta11 Te10 2.920572 1_555
Ta11 Te46 2.920572 1_555
Te12 Te31 3.006381 1_455
Te13 Te34 3.006381 1_445
Te14 Te35 3.006381 1_555
Te15 Te28 3.006381 1_555
Te16 Te33 3.006381 1_665
Te17 Te32 3.006381 1_545
Te18 Te29 3.006381 1_655
Te19 Te30 3.006381 1_565
Te20 Te39 3.006381 1_655
Te21 Te42 3.006381 1_665
Te22 Te43 3.006381 1_555
Te23 Te36 3.006381 1_555
Te24 Te41 3.006381 1_445
Te25 Te40 3.006381 1_565
Te26 Te37 3.006381 1_455
Te27 Te38 3.006381 1_545
Te28 Te30 3.084210 1_555
Te28 Te29 3.084210 1_555
Te29 Te33 3.084210 1_555
Te30 Te33 3.084210 1_555
Te31 Te34 3.084210 1_555
Te31 Te35 3.084210 1_555
Te32 Te34 3.084210 1_555
Te32 Te35 3.084210 1_555
Te36 Te37 3.084210 1_555
Te36 Te38 3.084210 1_555
Te37 Te41 3.084210 1_555
Te38 Te41 3.084210 1_555
Te39 Te43 3.084210 1_555
Te39 Te42 3.084210 1_555
Te40 Te43 3.084210 1_555
Te40 Te42 3.084210 1_555
