# generated using pymatgen
data_Na3ZnInSi(SO6)2
_symmetry_space_group_name_H-M   'P 1'
_cell_length_a   9.08573587
_cell_length_b   9.10103236
_cell_length_c   22.60381245
_cell_angle_alpha   89.69476771
_cell_angle_beta   90.00000000
_cell_angle_gamma   119.94441709
_symmetry_Int_Tables_number   1
_chemical_formula_structural   Na3ZnInSi(SO6)2
_chemical_formula_sum   'Na18 Zn6 In6 Si6 S12 O72'
_cell_volume   1619.56303783
_cell_formula_units_Z   6
loop_
 _symmetry_equiv_pos_site_id
 _symmetry_equiv_pos_as_xyz
  1  'x, y, z'
loop_
 _atom_site_type_symbol
 _atom_site_label
 _atom_site_symmetry_multiplicity
 _atom_site_fract_x
 _atom_site_fract_y
 _atom_site_fract_z
 _atom_site_occupancy
  Na  Na0  1  0.62650948  0.00569648  0.25296900  1
  Na  Na1  1  0.00564597  0.64196747  0.24099232  1
  Na  Na2  1  0.63632149  0.64196747  0.74099232  1
  Na  Na3  1  0.37918700  0.00569648  0.75296900  1
  Na  Na4  1  0.31463581  0.34691479  0.58475464  1
  Na  Na5  1  0.65982764  0.94917407  0.58136848  1
  Na  Na6  1  0.28934742  0.94917407  0.08136848  1
  Na  Na7  1  0.03227998  0.34691479  0.08475464  1
  Na  Na8  1  0.97863498  0.67994659  0.92312652  1
  Na  Na9  1  0.69218075  0.02857032  0.90724680  1
  Na  Na10  1  0.33638857  0.02857032  0.40724680  1
  Na  Na11  1  0.70131061  0.67994659  0.42312652  1
  Na  Na12  1  0.97935994  0.98829893  0.49657754  1
  Na  Na13  1  0.00893899  0.98829893  0.99657754  1
  Na  Na14  1  0.66145947  0.31474769  0.83005866  1
  Na  Na15  1  0.65328923  0.31474769  0.33005866  1
  Na  Na16  1  0.33068626  0.66621466  0.16386488  1
  Na  Na17  1  0.33552741  0.66621466  0.66386488  1
  Zn  Zn0  1  0.00594094  0.01130901  0.34903479  1
  Zn  Zn1  1  0.00536807  0.01130901  0.84903479  1
  Zn  Zn2  1  0.67822403  0.33409789  0.68256875  1
  Zn  Zn3  1  0.65587485  0.33409789  0.18256875  1
  Zn  Zn4  1  0.31121721  0.67446684  0.01524142  1
  Zn  Zn5  1  0.36324863  0.67446684  0.51524142  1
  In  In0  1  0.98402899  0.98395263  0.65070492  1
  In  In1  1  -0.00007636  0.98395263  0.15070492  1
  In  In2  1  0.65773195  0.33419030  0.98492767  1
  In  In3  1  0.67645935  0.33419030  0.48492767  1
  In  In4  1  0.33772155  0.67925186  0.31885195  1
  In  In5  1  0.34152931  0.67925186  0.81885195  1
  Si  Si0  1  0.30178548  0.00766619  0.25250554  1
  Si  Si1  1  0.70588071  0.00766619  0.75250554  1
  Si  Si2  1  0.66658123  0.62350042  0.58462393  1
  Si  Si3  1  0.95692019  0.62350042  0.08462393  1
  Si  Si4  1  0.32898715  0.97289322  0.91734160  1
  Si  Si5  1  0.64390506  0.97289322  0.41734160  1
  S  S0  1  0.70151956  0.70179627  0.25243601  1
  S  S1  1  0.00229296  0.29548768  0.24972053  1
  S  S2  1  0.29319471  0.29548768  0.74972053  1
  S  S3  1  0.00027671  0.70179627  0.75243601  1
  S  S4  1  0.97069649  0.33790713  0.58445423  1
  S  S5  1  0.36537734  0.03432582  0.58490647  1
  S  S6  1  0.66894948  0.03432582  0.08490647  1
  S  S7  1  0.36721164  0.33790713  0.08445423  1
  S  S8  1  0.62406807  0.66394590  0.91802537  1
  S  S9  1  0.04152294  0.37109169  0.91806117  1
  S  S10  1  0.32956775  0.37109169  0.41806117  1
  S  S11  1  0.03987683  0.66394590  0.41802537  1
  O  O0  1  0.20936572  0.02365218  0.31200555  1
  O  O1  1  0.80425509  0.78210795  0.30564050  1
  O  O2  1  0.97593623  0.18453031  0.30073099  1
  O  O3  1  0.20859408  0.18453031  0.80073099  1
  O  O4  1  0.97785287  0.78210795  0.80564050  1
  O  O5  1  0.81428647  0.02365218  0.81200555  1
  O  O6  1  0.77884412  0.96457757  0.69229499  1
  O  O7  1  0.19834863  0.22086167  0.69336650  1
  O  O8  1  0.04136310  0.81515739  0.69925187  1
  O  O9  1  0.77379429  0.81515739  0.19925187  1
  O  O10  1  0.02251304  0.22086167  0.19336650  1
  O  O11  1  0.18573345  0.96457757  0.19229499  1
  O  O12  1  0.88721395  0.35527161  0.63744393  1
  O  O13  1  0.47435330  0.11369853  0.63717107  1
  O  O14  1  0.63839340  0.50485704  0.64287948  1
  O  O15  1  0.86646464  0.50485704  0.14287948  1
  O  O16  1  0.63934623  0.11369853  0.13717107  1
  O  O17  1  0.46805866  0.35527161  0.13744393  1
  O  O18  1  0.43615531  0.29565120  0.03129587  1
  O  O19  1  0.85442261  0.54179429  0.02234060  1
  O  O20  1  0.69884415  0.13908754  0.02999952  1
  O  O21  1  0.44024439  0.13908754  0.52999952  1
  O  O22  1  0.68737268  0.54179429  0.52234060  1
  O  O23  1  0.85949688  0.29565120  0.53129587  1
  O  O24  1  0.53070803  0.67807596  0.96858759  1
  O  O25  1  0.13979794  0.44861131  0.97235497  1
  O  O26  1  0.29687256  0.85479964  0.97600998  1
  O  O27  1  0.55792608  0.85479964  0.47600998  1
  O  O28  1  0.30881238  0.44861131  0.47235497  1
  O  O29  1  0.14736693  0.67807596  0.46858759  1
  O  O30  1  0.10706886  0.63639600  0.36101547  1
  O  O31  1  0.52284812  0.89573032  0.35795868  1
  O  O32  1  0.35296943  0.47784479  0.36469175  1
  O  O33  1  0.12487436  0.47784479  0.86469175  1
  O  O34  1  0.37288120  0.89573032  0.85795868  1
  O  O35  1  0.52932614  0.63639600  0.86101547  1
  O  O36  1  0.02814838  0.82168544  0.41481937  1
  O  O37  1  0.82599734  0.97779600  0.40906473  1
  O  O38  1  0.18336890  0.19753218  0.41380230  1
  O  O39  1  0.01416329  0.19753218  0.91380230  1
  O  O40  1  0.15179867  0.97779600  0.90906473  1
  O  O41  1  0.79353706  0.82168544  0.91481937  1
  O  O42  1  0.99620195  0.18552763  0.58864871  1
  O  O43  1  0.19878628  0.03086646  0.59071735  1
  O  O44  1  0.83186731  0.81946367  0.58401756  1
  O  O45  1  0.98759635  0.81946367  0.08401756  1
  O  O46  1  0.83208018  0.03086646  0.09071735  1
  O  O47  1  0.18932568  0.18552763  0.08864871  1
  O  O48  1  0.67139646  0.16829875  0.74465992  1
  O  O49  1  0.46665383  0.31630228  0.74674383  1
  O  O50  1  0.84244346  0.53740582  0.74500537  1
  O  O51  1  0.69496336  0.53740582  0.24500537  1
  O  O52  1  0.84964945  0.31630228  0.24674383  1
  O  O53  1  0.49690328  0.16829875  0.24465992  1
  O  O54  1  0.65439578  0.51668746  0.92029319  1
  O  O55  1  0.87016598  0.36048904  0.91954425  1
  O  O56  1  0.51247403  0.15534647  0.92227512  1
  O  O57  1  0.64287344  0.15534647  0.42227512  1
  O  O58  1  0.49032406  0.36048904  0.41954425  1
  O  O59  1  0.86229269  0.51668746  0.42029319  1
  O  O60  1  0.35162351  0.49030742  0.07659745  1
  O  O61  1  0.14896027  0.64037859  0.08243905  1
  O  O62  1  0.52009032  0.86287544  0.07855128  1
  O  O63  1  0.34278412  0.86287544  0.57855128  1
  O  O64  1  0.49141732  0.64037859  0.58243905  1
  O  O65  1  0.13868292  0.49030742  0.57659745  1
  O  O66  1  0.31308665  0.82650633  0.25250011  1
  O  O67  1  0.52708520  0.67931928  0.25598329  1
  O  O68  1  0.15688845  0.46779259  0.25493463  1
  O  O69  1  0.31090313  0.46779259  0.75493463  1
  O  O70  1  0.15223308  0.67931928  0.75598329  1
  O  O71  1  0.51341868  0.82650633  0.75250011  1
loop_
_geom_bond_atom_site_label_1
_geom_bond_atom_site_label_2
_geom_bond_distance
_geom_bond_site_symmetry_2
Na0 O53 2.312709 1_555
Na0 O66 2.476467 1_545
Na0 O52 2.528913 1_555
Na0 O31 2.560132 1_545
Na0 O67 2.638723 1_545
Na0 O16 2.772917 1_555
Na0 O9 2.934497 1_545
Na0 O2 2.958729 1_555
Na1 O66 2.451977 1_555
Na1 O51 2.489835 1_455
Na1 O15 2.555132 1_455
Na1 O52 2.571480 1_455
Na1 O68 2.582567 1_555
Na1 O11 2.771103 1_555
Na1 O30 2.873531 1_555
Na2 O71 2.451985 1_555
Na2 O50 2.489844 1_555
Na2 O14 2.555134 1_555
Na2 O49 2.571480 1_555
Na2 O69 2.582574 1_555
Na2 O6 2.771103 1_555
Na2 O35 2.873534 1_555
Na3 O48 2.312717 1_555
Na3 O71 2.476460 1_545
Na3 O49 2.528910 1_555
Na3 O34 2.560130 1_545
Na3 O70 2.638725 1_545
Na3 O13 2.772918 1_555
Na3 O8 2.934497 1_545
Na3 O3 2.958729 1_555
Na4 O64 2.330613 1_555
Na4 O42 2.508383 1_455
Na4 O43 2.524466 1_555
Na4 O65 2.524483 1_555
Na4 O7 2.686926 1_555
Na4 O28 2.708915 1_555
Na4 O14 2.871267 1_555
Na4 O21 2.931169 1_555
Na5 O44 2.383665 1_555
Na5 O64 2.438500 1_555
Na5 O27 2.548409 1_555
Na5 O63 2.580802 1_555
Na5 O6 2.707074 1_555
Na5 O42 2.726772 1_565
Na5 O23 2.960829 1_565
Na5 O13 3.035128 1_565
Na6 O45 2.383673 1_455
Na6 O61 2.438499 1_555
Na6 O26 2.548406 1_554
Na6 O62 2.580784 1_555
Na6 O11 2.707077 1_555
Na6 O47 2.726778 1_565
Na6 O18 2.960829 1_565
Na6 O16 3.035128 1_565
Na7 O61 2.330615 1_555
Na7 O47 2.508375 1_555
Na7 O60 2.524466 1_555
Na7 O46 2.524467 1_455
Na7 O10 2.686925 1_555
Na7 O25 2.708912 1_554
Na7 O15 2.871267 1_455
Na7 O20 2.931169 1_455
Na8 O40 2.378569 1_655
Na8 O19 2.537168 1_556
Na8 O54 2.553745 1_555
Na8 O55 2.563742 1_555
Na8 O41 2.586648 1_555
Na8 O26 2.783587 1_655
Na8 O4 2.810196 1_555
Na9 O5 2.432701 1_555
Na9 O56 2.448970 1_555
Na9 O41 2.479942 1_545
Na9 O39 2.540917 1_655
Na9 O55 2.636238 1_555
Na9 O34 2.762603 1_545
Na9 O20 2.946715 1_556
Na10 O0 2.432696 1_555
Na10 O57 2.448986 1_555
Na10 O36 2.479935 1_545
Na10 O38 2.540909 1_555
Na10 O58 2.636238 1_555
Na10 O31 2.762603 1_545
Na10 O21 2.946718 1_555
Na11 O37 2.378568 1_555
Na11 O22 2.537172 1_555
Na11 O59 2.553760 1_555
Na11 O58 2.563739 1_555
Na11 O36 2.586656 1_655
Na11 O27 2.783587 1_555
Na11 O1 2.810197 1_555
Na12 O37 2.394316 1_555
Na12 O44 2.444445 1_555
Na12 O36 2.571381 1_655
Na12 O38 2.645932 1_665
Na12 O42 2.709650 1_565
Na12 O43 2.809001 1_665
Na13 O40 2.394316 1_555
Na13 O45 2.444445 1_456
Na13 O41 2.571381 1_455
Na13 O39 2.645932 1_565
Na13 O47 2.709650 1_566
Na13 O46 2.809001 1_466
Na14 O48 2.378729 1_555
Na14 O56 2.507820 1_555
Na14 O49 2.589250 1_555
Na14 O55 2.661081 1_555
Na14 O50 2.671770 1_555
Na14 O54 2.774832 1_555
Na15 O53 2.378729 1_555
Na15 O57 2.507820 1_555
Na15 O52 2.589250 1_555
Na15 O58 2.661081 1_555
Na15 O51 2.671770 1_555
Na15 O59 2.774832 1_555
Na16 O61 2.405423 1_555
Na16 O66 2.536087 1_555
Na16 O62 2.602303 1_555
Na16 O60 2.613031 1_555
Na16 O68 2.665653 1_555
Na16 O67 2.706338 1_555
Na17 O64 2.405423 1_555
Na17 O71 2.536086 1_555
Na17 O63 2.602303 1_555
Na17 O65 2.613031 1_555
Na17 O69 2.665653 1_555
Na17 O70 2.706338 1_555
In0 O6 2.015037 1_555
In0 O44 2.093439 1_555
In0 O8 2.148584 1_655
In0 O43 2.233900 1_665
In0 O42 2.261721 1_565
In0 O7 2.280622 1_665
In1 O11 2.015037 1_555
In1 O45 2.093439 1_455
In1 O9 2.148584 1_455
In1 O46 2.233900 1_465
In1 O47 2.261721 1_565
In1 O10 2.280622 1_565
In2 O19 2.030976 1_556
In2 O56 2.068018 1_555
In2 O18 2.136728 1_556
In2 O54 2.217754 1_555
In2 O20 2.230074 1_556
In2 O55 2.345617 1_555
In3 O22 2.030976 1_555
In3 O57 2.068018 1_555
In3 O23 2.136728 1_555
In3 O59 2.217754 1_555
In3 O21 2.230074 1_555
In3 O58 2.345617 1_555
In4 O31 2.049979 1_555
In4 O66 2.091317 1_555
In4 O30 2.152262 1_555
In4 O32 2.164722 1_555
In4 O67 2.231262 1_555
In4 O68 2.315925 1_555
In5 O34 2.049979 1_555
In5 O71 2.091317 1_555
In5 O35 2.152262 1_555
In5 O33 2.164722 1_555
In5 O70 2.231262 1_555
In5 O69 2.315925 1_555
O0 Si0 1.630687 1_555
O0 Zn0 1.980150 1_555
O1 S0 1.476512 1_555
O1 Zn0 2.208408 1_665
O2 S1 1.467226 1_655
O2 Zn0 2.040220 1_655
O3 S2 1.467226 1_555
O3 Zn1 2.040220 1_555
O4 S3 1.476512 1_655
O4 Zn1 2.208408 1_665
O5 Si1 1.630687 1_555
O5 Zn1 1.980149 1_655
O6 Si1 1.646438 1_565
O7 S2 1.500472 1_555
O8 S3 1.500420 1_555
O9 S0 1.500420 1_555
O10 S1 1.500472 1_555
O11 Si0 1.646438 1_565
O12 S4 1.468548 1_555
O12 Zn2 2.077421 1_555
O13 S5 1.480839 1_555
O13 Zn2 2.195506 1_555
O14 Si2 1.635311 1_555
O14 Zn2 1.974232 1_555
O15 Si3 1.635311 1_555
O15 Zn3 1.974232 1_555
O16 S6 1.480839 1_555
O16 Zn3 2.195506 1_555
O17 S7 1.468548 1_555
O17 Zn3 2.077421 1_555
O18 S7 1.493149 1_555
O19 Si3 1.649863 1_555
O20 S6 1.500675 1_555
O21 S5 1.500675 1_555
O22 Si2 1.649863 1_555
O23 S4 1.493149 1_555
O24 S8 1.467222 1_555
O24 Zn4 2.241512 1_556
O25 S9 1.476985 1_555
O25 Zn4 2.101381 1_556
O26 Si4 1.634207 1_555
O26 Zn4 1.922235 1_556
O27 Si5 1.634207 1_555
O27 Zn5 1.922235 1_555
O28 S10 1.476985 1_555
O28 Zn5 2.101381 1_555
O29 S11 1.467222 1_555
O29 Zn5 2.241512 1_555
O30 S11 1.500805 1_555
O31 Si5 1.656375 1_555
O32 S10 1.491883 1_555
O33 S9 1.491883 1_555
O34 Si4 1.656375 1_555
O35 S8 1.500805 1_555
O36 S11 1.493033 1_555
O36 Zn0 2.355927 1_565
O37 Si5 1.643285 1_555
O37 Zn0 2.026069 1_665
O38 S10 1.475032 1_555
O38 Zn0 2.216600 1_555
O39 S9 1.475036 1_555
O39 Zn1 2.216600 1_555
O40 Si4 1.643276 1_555
O40 Zn1 2.026069 1_565
O41 S8 1.493038 1_555
O41 Zn1 2.355927 1_665
O42 S4 1.518344 1_555
O43 S5 1.503868 1_555
O44 Si2 1.661960 1_555
O45 Si3 1.661964 1_555
O46 S6 1.503859 1_555
O47 S7 1.518349 1_555
O48 Si1 1.649649 1_555
O48 Zn2 2.033359 1_555
O49 S2 1.491984 1_555
O49 Zn2 2.347827 1_555
O50 S3 1.477781 1_655
O50 Zn2 2.216610 1_555
O51 S0 1.477785 1_555
O51 Zn3 2.216610 1_555
O52 S1 1.491975 1_655
O52 Zn3 2.347827 1_555
O53 Si0 1.649655 1_555
O53 Zn3 2.033359 1_555
O54 S8 1.497545 1_555
O55 S9 1.511413 1_655
O56 Si4 1.669541 1_545
O57 Si5 1.669532 1_545
O58 S10 1.511431 1_555
O59 S11 1.497534 1_655
O60 S7 1.472703 1_555
O60 Zn4 2.335987 1_555
O61 Si3 1.674156 1_455
O61 Zn4 2.028570 1_555
O62 S6 1.476545 1_565
O62 Zn4 2.316707 1_555
O63 S5 1.476538 1_565
O63 Zn5 2.316707 1_555
O64 Si2 1.674175 1_555
O64 Zn5 2.028570 1_555
O65 S4 1.472692 1_455
O65 Zn5 2.335987 1_555
O66 Si0 1.702323 1_565
O67 S0 1.495405 1_555
O68 S1 1.499652 1_555
O69 S2 1.499656 1_555
O70 S3 1.495396 1_555
O71 Si1 1.702327 1_565
