# generated using pymatgen
data_MgMn6(OF)6
_symmetry_space_group_name_H-M   'P 1'
_cell_length_a   5.30955275
_cell_length_b   15.27412662
_cell_length_c   3.10289559
_cell_angle_alpha   89.99219563
_cell_angle_beta   90.01039138
_cell_angle_gamma   106.35924283
_symmetry_Int_Tables_number   1
_chemical_formula_structural   MgMn6(OF)6
_chemical_formula_sum   'Mg1 Mn6 O6 F6'
_cell_volume   241.45325042
_cell_formula_units_Z   1
loop_
 _symmetry_equiv_pos_site_id
 _symmetry_equiv_pos_as_xyz
  1  'x, y, z'
loop_
 _atom_site_type_symbol
 _atom_site_label
 _atom_site_symmetry_multiplicity
 _atom_site_fract_x
 _atom_site_fract_y
 _atom_site_fract_z
 _atom_site_occupancy
  Mg  Mg0  1  0.00966587  0.16375995  0.01367691  1
  Mn  Mn0  1  0.19532557  0.95808127  0.00870378  1
  Mn  Mn1  1  0.87584602  0.37290469  0.00885424  1
  Mn  Mn2  1  0.97993266  0.66843462  0.00790005  1
  Mn  Mn3  1  0.51189109  0.16538379  0.51324350  1
  Mn  Mn4  1  0.44053250  0.51612099  0.50786602  1
  Mn  Mn5  1  0.52719785  0.81689307  0.50820709  1
  O  O0  1  0.33155986  0.91630915  0.50871859  1
  O  O1  1  0.29910693  0.09697524  0.01311949  1
  O  O2  1  0.32487832  0.75448380  0.00817519  1
  O  O3  1  0.23594294  0.45223063  0.00799910  1
  O  O4  1  0.72414791  0.23253230  0.01314870  1
  O  O5  1  0.64108581  0.58025682  0.00789107  1
  F  F0  1  0.20568342  0.23717800  0.51377624  1
  F  F1  1  0.10364118  0.60262187  0.50704243  1
  F  F2  1  0.78802397  0.89005286  0.00801653  1
  F  F3  1  0.81377303  0.09092769  0.51357824  1
  F  F4  1  0.67469700  0.40884105  0.50880289  1
  F  F5  1  0.84484607  0.73804821  0.50877995  1
loop_
_geom_bond_atom_site_label_1
_geom_bond_atom_site_label_2
_geom_bond_distance
_geom_bond_site_symmetry_2
Mg0 O1 2.070125 1_555
Mg0 O4 2.073316 1_455
Mn0 O0 1.896509 1_555
Mn0 O0 1.896791 1_554
Mn0 O1 2.036173 1_565
Mn1 O3 1.954138 1_655
Mn1 O4 2.067154 1_555
Mn2 O5 1.919852 1_555
Mn2 O2 1.930247 1_655
Mn3 O4 2.019104 1_556
Mn3 O4 2.019655 1_555
Mn3 O1 2.027115 1_556
Mn3 O1 2.027608 1_555
Mn4 O5 1.978097 1_555
Mn4 O5 1.978125 1_556
Mn4 O3 1.985114 1_555
Mn4 O3 1.985860 1_556
Mn5 O2 1.972989 1_556
Mn5 O2 1.973043 1_555
Mn5 O0 2.067213 1_555
F0 Mg0 2.022230 1_556
F0 Mg0 2.022648 1_555
F0 Mn3 2.202307 1_555
F1 Mn2 2.052271 1_455
F1 Mn2 2.056677 1_456
F1 Mn4 2.505304 1_555
F2 Mn0 2.119114 1_655
F2 Mn5 2.167871 1_554
F2 Mn5 2.168859 1_555
F3 Mg0 2.018346 1_655
F3 Mg0 2.018759 1_656
F3 Mn3 2.211186 1_555
F4 Mn1 2.044216 1_556
F4 Mn1 2.044382 1_555
F4 Mn4 2.319160 1_555
F5 Mn2 2.114784 1_556
F5 Mn2 2.119188 1_555
F5 Mn5 2.332164 1_555
