# generated using pymatgen
data_BaPr2CuO5
_symmetry_space_group_name_H-M   'P 1'
_cell_length_a   6.82016800
_cell_length_b   6.82016800
_cell_length_c   5.90272300
_cell_angle_alpha   90.00000000
_cell_angle_beta   90.00000000
_cell_angle_gamma   90.00000000
_symmetry_Int_Tables_number   1
_chemical_formula_structural   BaPr2CuO5
_chemical_formula_sum   'Ba2 Pr4 Cu2 O10'
_cell_volume   274.56333964
_cell_formula_units_Z   2
loop_
 _symmetry_equiv_pos_site_id
 _symmetry_equiv_pos_as_xyz
  1  'x, y, z'
loop_
 _atom_site_type_symbol
 _atom_site_label
 _atom_site_symmetry_multiplicity
 _atom_site_fract_x
 _atom_site_fract_y
 _atom_site_fract_z
 _atom_site_occupancy
  Ba  Ba0  1  0.50000000  0.50000000  0.00000000  1
  Ba  Ba1  1  0.00000000  0.00000000  0.00000000  1
  Pr  Pr0  1  0.32680700  0.82680700  0.50000000  1
  Pr  Pr1  1  0.82680700  0.67319300  0.50000000  1
  Pr  Pr2  1  0.17319300  0.32680700  0.50000000  1
  Pr  Pr3  1  0.67319300  0.17319300  0.50000000  1
  Cu  Cu0  1  0.00000000  0.50000000  0.00000000  1
  Cu  Cu1  1  0.50000000  0.00000000  0.00000000  1
  O  O0  1  0.13860000  0.63860000  0.24186600  1
  O  O1  1  0.86140000  0.36140000  0.24186600  1
  O  O2  1  0.36140000  0.13860000  0.24186600  1
  O  O3  1  0.63860000  0.86140000  0.24186600  1
  O  O4  1  0.13860000  0.63860000  0.75813400  1
  O  O5  1  0.63860000  0.86140000  0.75813400  1
  O  O6  1  0.36140000  0.13860000  0.75813400  1
  O  O7  1  0.86140000  0.36140000  0.75813400  1
  O  O8  1  0.00000000  0.00000000  0.50000000  1
  O  O9  1  0.50000000  0.50000000  0.50000000  1
loop_
_geom_bond_atom_site_label_1
_geom_bond_atom_site_label_2
_geom_bond_distance
_geom_bond_site_symmetry_2
Ba0 O9 2.951361 1_554
Ba0 O9 2.951361 1_555
Ba0 O6 3.001177 1_554
Ba0 O0 3.001177 1_555
Ba0 O4 3.001177 1_554
Ba0 O2 3.001177 1_555
Ba0 O7 3.001177 1_554
Ba0 O1 3.001177 1_555
Ba0 O5 3.001177 1_554
Ba0 O3 3.001177 1_555
Ba1 O8 2.951361 1_555
Ba1 O8 2.951361 1_554
Ba1 O5 3.001177 1_444
Ba1 O3 3.001177 1_445
Ba1 O7 3.001177 1_454
Ba1 O6 3.001177 1_554
Ba1 O1 3.001177 1_455
Ba1 O0 3.001177 1_545
Ba1 O4 3.001177 1_544
Ba1 O2 3.001177 1_555
Cu0 O1 1.955844 1_455
Cu0 O7 1.955844 1_454
Cu0 O4 1.955844 1_554
Cu0 O0 1.955844 1_555
Cu1 O3 1.955844 1_545
Cu1 O5 1.955844 1_544
Cu1 O2 1.955844 1_555
Cu1 O6 1.955844 1_554
O0 Pr0 2.370004 1_555
O0 Pr1 2.626638 1_455
O0 Pr2 2.626638 1_555
O1 Pr3 2.370004 1_555
O1 Pr1 2.626638 1_555
O1 Pr2 2.626638 1_655
O2 Pr2 2.370004 1_555
O2 Pr3 2.626638 1_555
O2 Pr0 2.626638 1_545
O3 Pr1 2.370004 1_555
O3 Pr3 2.626638 1_565
O3 Pr0 2.626638 1_555
O4 Pr0 2.370004 1_555
O4 Pr1 2.626638 1_455
O4 Pr2 2.626638 1_555
O5 Pr1 2.370004 1_555
O5 Pr3 2.626638 1_565
O5 Pr0 2.626638 1_555
O6 Pr2 2.370004 1_555
O6 Pr3 2.626638 1_555
O6 Pr0 2.626638 1_545
O7 Pr3 2.370004 1_555
O7 Pr1 2.626638 1_555
O7 Pr2 2.626638 1_655
O8 Pr2 2.522528 1_555
O8 Pr0 2.522528 1_545
O8 Pr3 2.522528 1_455
O8 Pr1 2.522528 1_445
O9 Pr1 2.522528 1_555
O9 Pr0 2.522528 1_555
O9 Pr3 2.522528 1_555
O9 Pr2 2.522528 1_555
