# generated using pymatgen
data_K3MgNbO8
_symmetry_space_group_name_H-M   'P 1'
_cell_length_a   6.98220861
_cell_length_b   6.98220887
_cell_length_c   6.98220843
_cell_angle_alpha   82.30820980
_cell_angle_beta   120.57462712
_cell_angle_gamma   128.69569430
_symmetry_Int_Tables_number   1
_chemical_formula_structural   K3MgNbO8
_chemical_formula_sum   'K3 Mg1 Nb1 O8'
_cell_volume   219.97340872
_cell_formula_units_Z   1
loop_
 _symmetry_equiv_pos_site_id
 _symmetry_equiv_pos_as_xyz
  1  'x, y, z'
loop_
 _atom_site_type_symbol
 _atom_site_label
 _atom_site_symmetry_multiplicity
 _atom_site_fract_x
 _atom_site_fract_y
 _atom_site_fract_z
 _atom_site_occupancy
  K  K0  1  0.50000000  0.17879194  0.67879194  1
  K  K1  1  0.50000000  0.82120806  0.32120806  1
  K  K2  1  -0.00000000  0.50000000  0.50000000  1
  Mg  Mg0  1  0.50000000  0.50000000  -0.00000000  1
  Nb  Nb0  1  -0.00000000  -0.00000000  -0.00000000  1
  O  O0  1  0.54250146  0.73269423  0.78116391  1
  O  O1  1  0.04846967  0.26730577  0.80980723  1
  O  O2  1  0.95153033  0.76133756  0.21883609  1
  O  O3  1  0.45749854  0.23866244  0.19019277  1
  O  O4  1  0.29249368  0.31515946  0.27509097  1
  O  O5  1  0.95993151  0.68484054  0.97733423  1
  O  O6  1  0.04006849  0.01740271  0.72490903  1
  O  O7  1  0.70750632  0.98259729  0.02266577  1
loop_
_geom_bond_atom_site_label_1
_geom_bond_atom_site_label_2
_geom_bond_distance
_geom_bond_site_symmetry_2
K0 O4 2.793347 1_555
K0 O7 2.793347 1_546
K0 O6 2.848910 1_555
K0 O5 2.848910 1_555
K0 O2 3.084198 1_445
K0 O1 3.084198 1_655
K1 O6 2.793347 1_665
K1 O5 2.793347 1_454
K1 O7 2.848910 1_555
K1 O4 2.848910 1_555
K1 O0 3.084198 1_555
K1 O3 3.084198 1_565
K2 O3 2.536808 1_455
K2 O0 2.536808 1_555
K2 O1 2.536808 1_555
K2 O2 2.536808 1_455
Mg0 O0 2.063086 1_554
Mg0 O2 2.063086 1_555
Mg0 O1 2.063086 1_554
Mg0 O3 2.063086 1_555
Mg0 O5 2.698800 1_554
Mg0 O4 2.698800 1_555
Mg0 O6 2.698800 1_554
Mg0 O7 2.698800 1_555
Nb0 O6 2.055230 1_554
Nb0 O7 2.055230 1_445
Nb0 O4 2.055230 1_555
Nb0 O5 2.055230 1_444
Nb0 O2 2.089349 1_445
Nb0 O0 2.089349 1_444
Nb0 O3 2.089349 1_555
Nb0 O1 2.089349 1_554
O0 O7 1.874284 1_556
O1 O6 1.874284 1_555
O2 O5 1.874283 1_554
O3 O4 1.874284 1_555
