# generated using pymatgen
data_MgFe6(OF)6
_symmetry_space_group_name_H-M   'P 1'
_cell_length_a   6.93682881
_cell_length_b   15.10297566
_cell_length_c   3.10243694
_cell_angle_alpha   90.08972542
_cell_angle_beta   90.08295703
_cell_angle_gamma   135.01619084
_symmetry_Int_Tables_number   1
_chemical_formula_structural   MgFe6(OF)6
_chemical_formula_sum   'Mg1 Fe6 O6 F6'
_cell_volume   229.76577337
_cell_formula_units_Z   1
loop_
 _symmetry_equiv_pos_site_id
 _symmetry_equiv_pos_as_xyz
  1  'x, y, z'
loop_
 _atom_site_type_symbol
 _atom_site_label
 _atom_site_symmetry_multiplicity
 _atom_site_fract_x
 _atom_site_fract_y
 _atom_site_fract_z
 _atom_site_occupancy
  Mg  Mg0  1  0.96438800  0.49426300  0.54555400  1
  Fe  Fe0  1  0.98962100  0.00360900  0.99560800  1
  Fe  Fe1  1  0.06085000  0.35150900  0.02920800  1
  Fe  Fe2  1  0.07964400  0.71093500  0.02410400  1
  Fe  Fe3  1  0.35561600  0.27059100  0.49541500  1
  Fe  Fe4  1  0.50518500  0.67180800  0.49411500  1
  Fe  Fe5  1  0.52013200  0.99735300  0.50715900  1
  O  O0  1  0.21275300  0.34608700  0.52888000  1
  O  O1  1  0.19602400  0.67919700  0.52522300  1
  O  O2  1  0.29454100  0.17879300  0.99452700  1
  O  O3  1  0.22623100  0.52523200  0.03621200  1
  O  O4  1  0.31536400  0.88573600  0.00667400  1
  O  O5  1  0.79460600  0.99409500  0.49655900  1
  F  F0  1  0.18081800  0.99099200  0.49705700  1
  F  F1  1  0.74410700  0.46789000  0.04302900  1
  F  F2  1  0.71726400  0.80324100  0.98253800  1
  F  F3  1  0.70533300  0.13195000  0.01209400  1
  F  F4  1  0.80442800  0.32238800  0.52667800  1
  F  F5  1  0.81309300  0.66970300  0.50936500  1
loop_
_geom_bond_atom_site_label_1
_geom_bond_atom_site_label_2
_geom_bond_distance
_geom_bond_site_symmetry_2
Mg0 O1 2.009764 1_655
Mg0 O3 2.150140 1_656
Mg0 O3 2.196315 1_655
Fe0 O2 1.886171 1_655
Fe0 O5 1.991500 1_545
Fe0 O5 1.999482 1_546
Fe1 O0 1.907327 1_555
Fe1 O0 1.911251 1_554
Fe1 O3 1.985530 1_555
Fe2 O4 1.881593 1_555
Fe2 O1 1.955951 1_554
Fe2 O1 1.960788 1_555
Fe3 O2 1.917531 1_554
Fe3 O2 1.917579 1_555
Fe3 O0 1.972658 1_555
Fe4 O3 2.141406 1_555
Fe4 O1 2.227148 1_555
Fe4 O3 2.331285 1_556
Fe5 O5 1.939419 1_555
Fe5 O4 1.966841 1_555
Fe5 O4 1.971870 1_556
F0 Fe0 2.133137 1_465
F0 Fe0 2.137312 1_464
F0 Fe5 2.286987 1_555
F1 Mg0 2.005840 1_554
F1 Mg0 2.013555 1_555
F1 Fe2 2.609591 1_655
F2 Fe4 2.062481 1_555
F2 Fe4 2.123486 1_556
F2 Fe0 2.154139 1_565
F3 Fe5 2.112570 1_545
F3 Fe5 2.127594 1_544
F3 Fe1 2.347609 1_655
F4 Mg0 1.974262 1_555
F4 Fe1 2.154713 1_655
F4 Fe1 2.161305 1_656
F5 Fe2 2.110765 1_655
F5 Fe4 2.158960 1_555
F5 Fe2 2.171727 1_656
