# generated using pymatgen
data_Na6CaSi6Sn7(SO8)6
_symmetry_space_group_name_H-M   'P 1'
_cell_length_a   17.90960247
_cell_length_b   8.92105063
_cell_length_c   23.02772414
_cell_angle_alpha   89.97135571
_cell_angle_beta   90.17710962
_cell_angle_gamma   119.88882877
_symmetry_Int_Tables_number   1
_chemical_formula_structural   Na6CaSi6Sn7(SO8)6
_chemical_formula_sum   'Na18 Ca3 Si18 Sn21 S18 O144'
_cell_volume   3189.82336948
_cell_formula_units_Z   3
loop_
 _symmetry_equiv_pos_site_id
 _symmetry_equiv_pos_as_xyz
  1  'x, y, z'
loop_
 _atom_site_type_symbol
 _atom_site_label
 _atom_site_symmetry_multiplicity
 _atom_site_fract_x
 _atom_site_fract_y
 _atom_site_fract_z
 _atom_site_occupancy
  Na  Na0  1  0.69000108  0.38338447  0.25478721  1
  Na  Na1  1  0.99558154  0.65288723  0.25669699  1
  Na  Na2  1  0.99567042  0.35341587  0.75503392  1
  Na  Na3  1  0.49301035  0.35752435  0.74919938  1
  Na  Na4  1  0.19491910  0.01914531  0.75815816  1
  Na  Na5  1  0.68688443  0.00875392  0.75149633  1
  Na  Na6  1  0.99615357  0.99757318  0.48947416  1
  Na  Na7  1  0.51071084  0.00511105  0.49664450  1
  Na  Na8  1  0.01566470  0.02594607  0.99897264  1
  Na  Na9  1  0.50321414  0.98394022  0.99754516  1
  Na  Na10  1  0.33058653  0.33753265  0.82423592  1
  Na  Na11  1  0.82574924  0.31787514  0.83035319  1
  Na  Na12  1  0.33329370  0.33293355  0.33107677  1
  Na  Na13  1  0.83473934  0.33748031  0.34072499  1
  Na  Na14  1  0.17237145  0.66650529  0.16592828  1
  Na  Na15  1  0.66075775  0.66479021  0.17234203  1
  Na  Na16  1  0.18105550  0.66456458  0.67109591  1
  Na  Na17  1  0.67247325  0.66653408  0.66974498  1
  Ca  Ca0  1  0.33371791  0.34041174  0.68491424  1
  Ca  Ca1  1  0.83005017  0.33145501  0.68400246  1
  Ca  Ca2  1  0.83325168  0.33278149  0.18415282  1
  Si  Si0  1  0.14986067  0.00023778  0.25224388  1
  Si  Si1  1  0.85407826  0.72110515  0.24970263  1
  Si  Si2  1  0.49819284  0.28708923  0.24915311  1
  Si  Si3  1  0.14413777  0.29389663  0.75071355  1
  Si  Si4  1  0.64671050  0.29733332  0.75369093  1
  Si  Si5  1  0.50067398  0.70762952  0.75208425  1
  Si  Si6  1  0.35286978  0.98807023  0.75339719  1
  Si  Si7  1  0.85753238  0.99423140  0.75259540  1
  Si  Si8  1  0.47626329  0.62051371  0.08452610  1
  Si  Si9  1  0.18399747  0.33620500  0.08657374  1
  Si  Si10  1  0.01876505  0.37465776  0.91636473  1
  Si  Si11  1  0.16941740  0.96012684  0.91794231  1
  Si  Si12  1  0.66264697  0.96130245  0.91624407  1
  Si  Si13  1  0.81386924  0.95652178  0.41472942  1
  Si  Si14  1  0.16797575  0.37413589  0.41532747  1
  Si  Si15  1  0.66453308  0.37103129  0.41729041  1
  Si  Si16  1  0.02028650  0.66682349  0.41804976  1
  Si  Si17  1  0.51967272  0.66780018  0.41384143  1
  Sn  Sn0  1  0.00373506  0.99384611  0.35679506  1
  Sn  Sn1  1  0.50200276  0.00924164  0.35593897  1
  Sn  Sn2  1  0.00765120  0.01749668  0.85814038  1
  Sn  Sn3  1  0.50328996  0.99544122  0.85063128  1
  Sn  Sn4  1  0.99674491  0.00644318  0.64911372  1
  Sn  Sn5  1  0.50033896  0.00376172  0.65577479  1
  Sn  Sn6  1  0.00640103  0.99721138  0.15194853  1
  Sn  Sn7  1  0.49787157  0.99453592  0.14744045  1
  Sn  Sn8  1  0.33226560  0.33346639  0.18693111  1
  Sn  Sn9  1  0.32402009  0.33112191  0.98505820  1
  Sn  Sn10  1  0.83404945  0.32317898  0.97689778  1
  Sn  Sn11  1  0.33577238  0.34768206  0.47795622  1
  Sn  Sn12  1  0.83204104  0.32976654  0.47558723  1
  Sn  Sn13  1  0.16353634  0.65557000  0.01656917  1
  Sn  Sn14  1  0.65687780  0.66987000  0.01831116  1
  Sn  Sn15  1  0.16267708  0.65647971  0.51306287  1
  Sn  Sn16  1  0.66621826  0.67336016  0.50719449  1
  Sn  Sn17  1  0.16362204  0.66360835  0.31886259  1
  Sn  Sn18  1  0.66710969  0.65960432  0.31716596  1
  Sn  Sn19  1  0.16854186  0.66564908  0.81730563  1
  Sn  Sn20  1  0.67053279  0.67925907  0.81256743  1
  S  S0  1  0.64158264  0.99041885  0.24999970  1
  S  S1  1  0.35288836  0.71026313  0.25200062  1
  S  S2  1  0.00499801  0.29571751  0.25140682  1
  S  S3  1  0.00236299  0.71828831  0.75150437  1
  S  S4  1  0.48516172  0.33333657  0.58055501  1
  S  S5  1  0.98541662  0.33471936  0.58279789  1
  S  S6  1  0.18163557  0.02698793  0.58144180  1
  S  S7  1  0.67948549  0.02590993  0.58180441  1
  S  S8  1  0.33350698  0.64464601  0.58071224  1
  S  S9  1  0.83425819  0.64026792  0.58128530  1
  S  S10  1  0.98114987  0.63132665  0.08064497  1
  S  S11  1  0.33307753  0.03691503  0.08252781  1
  S  S12  1  0.83371052  0.02756389  0.08087787  1
  S  S13  1  0.68384022  0.33585953  0.07894682  1
  S  S14  1  0.31635303  0.66899767  0.91836503  1
  S  S15  1  0.80954172  0.66475730  0.91999616  1
  S  S16  1  0.51803086  0.37094549  0.91782780  1
  S  S17  1  0.31314835  0.96104382  0.41881049  1
  O  O0  1  0.10624308  0.03322555  0.30800791  1
  O  O1  1  0.59915588  0.01559347  0.30118359  1
  O  O2  1  0.40596538  0.79354528  0.30372758  1
  O  O3  1  0.92149987  0.81110705  0.30270012  1
  O  O4  1  0.47996454  0.15940888  0.30497412  1
  O  O5  1  0.99611511  0.19416216  0.30315252  1
  O  O6  1  0.10235929  0.16491808  0.80596413  1
  O  O7  1  0.60456821  0.17439810  0.80999365  1
  O  O8  1  0.48362040  0.78757422  0.80994186  1
  O  O9  1  0.99048305  0.79663557  0.80346767  1
  O  O10  1  0.41390113  0.02482886  0.81044478  1
  O  O11  1  0.91671956  0.01448612  0.80867998  1
  O  O12  1  0.39054760  0.94966217  0.69284730  1
  O  O13  1  0.89185208  0.95468061  0.69066050  1
  O  O14  1  0.08233179  0.21696322  0.69084939  1
  O  O15  1  0.58508061  0.22540899  0.69370071  1
  O  O16  1  0.01617914  0.82240523  0.69678079  1
  O  O17  1  0.52442420  0.83345840  0.69337565  1
  O  O18  1  0.39093247  0.81216359  0.19739538  1
  O  O19  1  0.89631747  0.83324603  0.18870293  1
  O  O20  1  0.01461436  0.21819956  0.19658054  1
  O  O21  1  0.52141747  0.20116426  0.19149259  1
  O  O22  1  0.08642426  0.93893503  0.19385988  1
  O  O23  1  0.59081946  0.96640601  0.19513758  1
  O  O24  1  0.44892957  0.35472319  0.63452628  1
  O  O25  1  0.95075535  0.35400376  0.63779740  1
  O  O26  1  0.22796614  0.09707861  0.63581538  1
  O  O27  1  0.72553949  0.09446603  0.63689090  1
  O  O28  1  0.31762335  0.54335918  0.63284136  1
  O  O29  1  0.82502356  0.54689223  0.63532629  1
  O  O30  1  0.43369883  0.50600517  0.14186231  1
  O  O31  1  0.94607018  0.53587643  0.13484771  1
  O  O32  1  0.32007731  0.11280073  0.13553875  1
  O  O33  1  0.81755801  0.10061302  0.13319845  1
  O  O34  1  0.24473978  0.36713176  0.14294140  1
  O  O35  1  0.72938722  0.36037871  0.13429455  1
  O  O36  1  0.21950673  0.29287035  0.02691459  1
  O  O37  1  0.73011703  0.31160800  0.02931977  1
  O  O38  1  0.42059268  0.53698879  0.02471367  1
  O  O39  1  0.92490911  0.53748774  0.02958003  1
  O  O40  1  0.34863928  0.14441339  0.02996230  1
  O  O41  1  0.84393890  0.13718840  0.02833165  1
  O  O42  1  0.22599162  0.14034607  0.53017005  1
  O  O43  1  0.72587126  0.14030690  0.53169337  1
  O  O44  1  0.34404358  0.55766706  0.52789102  1
  O  O45  1  0.84535783  0.55170180  0.52994204  1
  O  O46  1  0.42653556  0.30761360  0.52926165  1
  O  O47  1  0.93105567  0.31934494  0.53224111  1
  O  O48  1  0.27546404  0.68939326  0.97133507  1
  O  O49  1  0.76750998  0.68926591  0.97210941  1
  O  O50  1  0.07864722  0.45530322  0.97341909  1
  O  O51  1  0.57535295  0.44975096  0.97020794  1
  O  O52  1  0.15975483  0.84527403  0.97554774  1
  O  O53  1  0.64936884  0.84662167  0.97446276  1
  O  O54  1  0.27425331  0.85438872  0.47142181  1
  O  O55  1  0.77686205  0.84524857  0.47498165  1
  O  O56  1  0.15612045  0.45608153  0.47585444  1
  O  O57  1  0.64701063  0.45427206  0.47475527  1
  O  O58  1  0.08304657  0.70790145  0.47444675  1
  O  O59  1  0.57490366  0.71169958  0.47432376  1
  O  O60  1  0.05725500  0.63009432  0.35734336  1
  O  O61  1  0.56276290  0.63613219  0.35722660  1
  O  O62  1  0.26082943  0.88771387  0.36559750  1
  O  O63  1  0.75049191  0.87294996  0.35897351  1
  O  O64  1  0.19259926  0.50635991  0.35967729  1
  O  O65  1  0.68050391  0.47103307  0.35539086  1
  O  O66  1  0.06048149  0.48305981  0.85619673  1
  O  O67  1  0.55915342  0.47521849  0.86497795  1
  O  O68  1  0.18393299  0.88040215  0.85722527  1
  O  O69  1  0.68161930  0.88041373  0.85819054  1
  O  O70  1  0.26381752  0.64019396  0.86519014  1
  O  O71  1  0.75613085  0.63217989  0.86691052  1
  O  O72  1  0.01279021  0.83874785  0.41604540  1
  O  O73  1  0.49958008  0.82821247  0.40704437  1
  O  O74  1  0.39849964  0.97563563  0.41374535  1
  O  O75  1  0.90908507  0.98128470  0.40828225  1
  O  O76  1  0.08042540  0.19334229  0.40924574  1
  O  O77  1  0.57740993  0.17937868  0.41508675  1
  O  O78  1  0.00306168  0.17791031  0.91652085  1
  O  O79  1  0.50714264  0.19574593  0.91462386  1
  O  O80  1  0.07836973  0.96519567  0.91474530  1
  O  O81  1  0.57580932  0.97801876  0.91497863  1
  O  O82  1  0.40114090  0.82771029  0.91506792  1
  O  O83  1  0.89594681  0.81672029  0.91492696  1
  O  O84  1  0.49313934  0.17309352  0.58225444  1
  O  O85  1  0.99389618  0.17452354  0.58193626  1
  O  O86  1  0.09226286  0.00401880  0.58399570  1
  O  O87  1  0.59212876  0.01172026  0.58345014  1
  O  O88  1  0.41263418  0.81818257  0.58339779  1
  O  O89  1  0.91668136  0.81704497  0.58327382  1
  O  O90  1  0.48946864  0.82055253  0.09009282  1
  O  O91  1  0.98721073  0.80386680  0.08169468  1
  O  O92  1  0.41161776  0.01761284  0.08731434  1
  O  O93  1  0.91227173  0.01510069  0.08417282  1
  O  O94  1  0.08559844  0.16614535  0.09340823  1
  O  O95  1  0.59597188  0.17934087  0.08051880  1
  O  O96  1  0.34251028  0.15647080  0.74838447  1
  O  O97  1  0.85180908  0.16990860  0.75013858  1
  O  O98  1  0.23612834  0.31080317  0.74606406  1
  O  O99  1  0.73876628  0.31049922  0.74899867  1
  O  O100  1  0.42483978  0.51280525  0.74874980  1
  O  O101  1  0.92989991  0.54218733  0.74560592  1
  O  O102  1  0.34515240  0.53777297  0.24802510  1
  O  O103  1  0.84209586  0.52619648  0.24670040  1
  O  O104  1  0.41330960  0.30635617  0.24222829  1
  O  O105  1  0.93077286  0.32460973  0.24786939  1
  O  O106  1  0.24366331  0.17177336  0.24385932  1
  O  O107  1  0.72574906  0.14983332  0.24584157  1
  O  O108  1  0.32708339  0.51426616  0.92212248  1
  O  O109  1  0.81749853  0.50706385  0.92664573  1
  O  O110  1  0.43422928  0.36287399  0.92511642  1
  O  O111  1  0.92624474  0.37317557  0.92039357  1
  O  O112  1  0.25679703  0.15524603  0.92350270  1
  O  O113  1  0.74843468  0.15485445  0.92206273  1
  O  O114  1  0.32258743  0.13454498  0.42594280  1
  O  O115  1  0.82044799  0.14578137  0.42261099  1
  O  O116  1  0.25221102  0.34640377  0.42166283  1
  O  O117  1  0.75049134  0.35415536  0.42442296  1
  O  O118  1  0.42638638  0.48640331  0.42116581  1
  O  O119  1  0.92786022  0.49162930  0.42532236  1
  O  O120  1  0.17794752  0.51600639  0.07996473  1
  O  O121  1  0.67658307  0.49396172  0.07027595  1
  O  O122  1  0.06876883  0.65359991  0.07489387  1
  O  O123  1  0.57402285  0.64237436  0.08073782  1
  O  O124  1  0.25644992  0.86220966  0.07653628  1
  O  O125  1  0.75693791  0.85023863  0.07330719  1
  O  O126  1  0.17475845  0.85259067  0.57442237  1
  O  O127  1  0.67022389  0.85042548  0.57496559  1
  O  O128  1  0.25638492  0.66936398  0.57294243  1
  O  O129  1  0.75768765  0.66326586  0.57546203  1
  O  O130  1  0.07422670  0.49043252  0.57800361  1
  O  O131  1  0.57140366  0.48985539  0.57300592  1
  O  O132  1  0.15731935  0.82017506  0.25875915  1
  O  O133  1  0.64932326  0.83505807  0.25372430  1
  O  O134  1  0.26678002  0.69596964  0.25600140  1
  O  O135  1  0.75730732  0.69913829  0.25306626  1
  O  O136  1  0.08551197  0.47205644  0.25323081  1
  O  O137  1  0.58762753  0.47351055  0.25467076  1
  O  O138  1  0.14301913  0.47722528  0.75685558  1
  O  O139  1  0.64575069  0.47890197  0.76105523  1
  O  O140  1  0.08440364  0.71043775  0.75434015  1
  O  O141  1  0.59261176  0.70625450  0.75523434  1
  O  O142  1  0.25497982  0.81720767  0.75707550  1
  O  O143  1  0.76068223  0.82740872  0.75511094  1
loop_
_geom_bond_atom_site_label_1
_geom_bond_atom_site_label_2
_geom_bond_distance
_geom_bond_site_symmetry_2
Na0 O137 2.340346 1_555
Na0 O103 2.371063 1_555
Na0 O135 2.450589 1_555
Na0 O107 2.474690 1_555
Na0 O65 2.478729 1_555
Na0 O35 2.897491 1_555
Na1 O103 2.405542 1_555
Na1 O132 2.512157 1_655
Na1 O105 2.564468 1_555
Na1 O3 2.598355 1_555
Na1 O60 2.615425 1_655
Na1 O22 2.669417 1_655
Na1 O136 2.791651 1_655
Na1 O31 2.968857 1_555
Na2 O97 2.264006 1_555
Na2 O138 2.297869 1_655
Na2 O101 2.499136 1_555
Na2 O66 2.599957 1_655
Na2 O140 2.761451 1_655
Na2 O25 2.815350 1_555
Na2 O14 2.823874 1_655
Na2 O11 2.900647 1_555
Na3 O100 2.257255 1_555
Na3 O96 2.379924 1_555
Na3 O139 2.402845 1_555
Na3 O141 2.710705 1_555
Na3 O24 2.750362 1_555
Na3 O15 2.773605 1_555
Na3 O67 2.890940 1_555
Na3 O10 2.936431 1_555
Na4 O96 2.305329 1_555
Na4 O98 2.340688 1_555
Na4 O140 2.465025 1_545
Na4 O142 2.516855 1_545
Na4 O68 2.555821 1_545
Na4 O6 2.795047 1_555
Na4 O26 2.892914 1_555
Na5 O141 2.366486 1_545
Na5 O99 2.370710 1_555
Na5 O143 2.549754 1_545
Na5 O97 2.561393 1_555
Na5 O69 2.692073 1_545
Na5 O27 2.740531 1_555
Na5 O17 2.854086 1_545
Na5 O7 2.890868 1_555
Na6 O72 2.319859 1_655
Na6 O75 2.388470 1_555
Na6 O76 2.475522 1_665
Na6 O89 2.648791 1_555
Na6 O85 2.663553 1_565
Na6 O86 2.753559 1_665
Na7 O77 2.351850 1_555
Na7 O87 2.453951 1_555
Na7 O73 2.544511 1_545
Na7 O84 2.589982 1_555
Na7 O88 2.637462 1_545
Na7 O74 2.683689 1_545
Na8 O78 2.406977 1_555
Na8 O80 2.436782 1_545
Na8 O94 2.507331 1_556
Na8 O91 2.609488 1_446
Na8 O93 2.670446 1_456
Na8 O83 2.795739 1_445
Na9 O81 2.322075 1_555
Na9 O82 2.516643 1_555
Na9 O90 2.523795 1_556
Na9 O95 2.558666 1_566
Na9 O79 2.661982 1_565
Na9 O92 2.750868 1_566
Na10 O100 2.387638 1_555
Na10 O98 2.395565 1_555
Na10 O96 2.460588 1_555
Na10 O112 2.736668 1_555
Na10 O108 2.770155 1_555
Na10 O110 2.906680 1_555
Na11 O99 2.412622 1_555
Na11 O97 2.448275 1_555
Na11 O113 2.549577 1_555
Na11 O111 2.622001 1_555
Na11 O101 2.755129 1_555
Na11 O109 2.835763 1_555
Na12 O106 2.521987 1_555
Na12 O104 2.579366 1_555
Na12 O102 2.579587 1_555
Na12 O118 2.581553 1_555
Na12 O116 2.582142 1_555
Na12 O114 2.757144 1_555
Na13 O115 2.471705 1_555
Na13 O119 2.482821 1_555
Na13 O117 2.501097 1_555
Na13 O103 2.704942 1_555
Na13 O105 2.786259 1_555
Na13 O107 2.847308 1_555
Na14 O120 2.422535 1_555
Na14 O134 2.601173 1_555
Na14 O136 2.607129 1_555
Na14 O132 2.626125 1_555
Na14 O124 2.635987 1_555
Na14 O122 2.759329 1_555
Na15 O135 2.447861 1_555
Na15 O137 2.450747 1_555
Na15 O133 2.485256 1_555
Na15 O123 2.563844 1_555
Na15 O125 2.843486 1_555
Na15 O121 2.892254 1_555
Na16 O142 2.391008 1_555
Na16 O138 2.455110 1_555
Na16 O128 2.625239 1_555
Na16 O140 2.750587 1_555
Na16 O130 2.772191 1_555
Na16 O126 2.822312 1_555
Na17 O143 2.478655 1_555
Na17 O141 2.563199 1_555
Na17 O139 2.580002 1_555
Na17 O129 2.666208 1_555
Na17 O127 2.741926 1_555
Na17 O131 2.803302 1_555
Ca0 O98 2.159198 1_555
Ca0 O100 2.162270 1_555
Ca0 O96 2.259958 1_555
Ca0 O28 2.305366 1_555
Ca0 O24 2.317831 1_555
Ca0 O26 2.338678 1_555
Ca1 O99 2.158265 1_555
Ca1 O97 2.258782 1_555
Ca1 O29 2.264506 1_555
Ca1 O27 2.279473 1_555
Ca1 O101 2.319687 1_555
Ca1 O25 2.329477 1_555
Ca2 O103 2.192157 1_555
Ca2 O31 2.240076 1_555
Ca2 O33 2.272840 1_555
Ca2 O107 2.295958 1_555
Ca2 O35 2.298255 1_555
Ca2 O105 2.306419 1_555
O0 Si0 1.606702 1_555
O0 Sn0 2.031155 1_545
O1 S0 1.480842 1_545
O1 Sn1 2.129741 1_555
O2 S1 1.471213 1_555
O2 Sn1 2.190341 1_565
O3 Si1 1.617941 1_555
O3 Sn0 1.994057 1_655
O4 Si2 1.639163 1_555
O4 Sn1 1.962227 1_555
O5 S2 1.456857 1_655
O5 Sn0 2.231096 1_645
O6 Si3 1.627546 1_555
O6 Sn2 1.959094 1_555
O7 Si4 1.622672 1_555
O7 Sn3 1.958949 1_545
O8 Si5 1.611702 1_555
O8 Sn3 1.946650 1_555
O9 S3 1.454733 1_655
O9 Sn2 2.226663 1_665
O10 Si6 1.631672 1_545
O10 Sn3 1.974067 1_545
O11 Si7 1.620228 1_545
O11 Sn2 1.973600 1_655
O12 Si6 1.659405 1_555
O12 Sn5 1.972891 1_565
O13 Si7 1.660860 1_555
O13 Sn4 1.950323 1_565
O14 Si3 1.682568 1_555
O14 Sn4 1.980902 1_455
O15 Si4 1.680475 1_555
O15 Sn5 1.994641 1_555
O16 S3 1.511177 1_555
O16 Sn4 2.141710 1_465
O17 Si5 1.671785 1_555
O17 Sn5 1.973205 1_565
O18 S1 1.502870 1_555
O18 Sn7 2.131815 1_555
O19 Si1 1.672468 1_555
O19 Sn6 1.969234 1_655
O20 S2 1.490898 1_555
O20 Sn6 2.162552 1_545
O21 Si2 1.686956 1_555
O21 Sn7 1.956858 1_545
O22 Si0 1.664168 1_565
O22 Sn6 1.997322 1_555
O23 S0 1.505842 1_555
O23 Sn7 2.108368 1_555
O24 S4 1.459702 1_555
O25 S5 1.459631 1_555
O26 S6 1.457568 1_555
O27 S7 1.468007 1_555
O28 S8 1.443341 1_555
O29 S9 1.460418 1_555
O30 Si8 1.611419 1_555
O30 Sn8 1.992414 1_555
O31 S10 1.465715 1_555
O32 S11 1.470492 1_555
O32 Sn8 2.212675 1_555
O33 S12 1.466558 1_555
O34 Si9 1.623863 1_555
O34 Sn8 2.008142 1_555
O35 S13 1.467553 1_555
O36 Si9 1.640799 1_555
O36 Sn9 1.980735 1_554
O37 S13 1.491480 1_555
O37 Sn10 2.180579 1_554
O38 Si8 1.642709 1_555
O38 Sn9 2.006085 1_554
O39 S10 1.500469 1_555
O39 Sn10 2.159723 1_554
O40 S11 1.482270 1_555
O40 Sn9 2.182978 1_554
O41 S12 1.508563 1_555
O41 Sn10 2.115859 1_554
O42 S6 1.500560 1_555
O42 Sn11 2.262859 1_555
O43 S7 1.490980 1_555
O43 Sn12 2.225199 1_555
O44 S8 1.505160 1_555
O44 Sn11 2.139607 1_555
O45 S9 1.490161 1_555
O45 Sn12 2.252456 1_555
O46 S4 1.517475 1_555
O46 Sn11 2.175488 1_555
O47 S5 1.477201 1_555
O47 Sn12 2.237226 1_555
O48 S14 1.481816 1_555
O48 Sn13 2.145733 1_556
O49 S15 1.491466 1_555
O49 Sn14 2.181488 1_556
O50 Si10 1.617772 1_555
O50 Sn13 1.943195 1_556
O51 S16 1.508965 1_555
O51 Sn14 2.085571 1_556
O52 Si11 1.631801 1_555
O52 Sn13 1.968052 1_556
O53 Si12 1.630546 1_555
O53 Sn14 1.932066 1_556
O54 S17 1.483856 1_555
O54 Sn15 2.126912 1_555
O55 Si13 1.642667 1_555
O55 Sn16 1.951379 1_555
O56 Si14 1.636985 1_555
O56 Sn15 1.932800 1_555
O57 Si15 1.623829 1_555
O57 Sn16 1.956064 1_555
O58 Si16 1.632552 1_555
O58 Sn15 1.918039 1_555
O59 Si17 1.636329 1_555
O59 Sn16 1.978399 1_555
O60 Si16 1.649948 1_555
O60 Sn17 1.986487 1_555
O61 Si17 1.612115 1_555
O61 Sn18 2.001942 1_555
O62 S17 1.479957 1_555
O62 Sn17 2.169746 1_555
O63 Si13 1.625189 1_555
O63 Sn18 1.984848 1_555
O64 Si14 1.646711 1_555
O64 Sn17 1.960060 1_555
O65 Si15 1.629849 1_555
O65 Sn18 2.015375 1_555
O66 Si10 1.642582 1_555
O66 Sn19 2.016984 1_555
O67 S16 1.486763 1_555
O67 Sn20 2.267800 1_555
O68 Si11 1.647980 1_555
O68 Sn19 2.016252 1_555
O69 Si12 1.634462 1_555
O69 Sn20 2.002231 1_555
O70 S14 1.484227 1_555
O70 Sn19 2.133866 1_555
O71 S15 1.486575 1_555
O71 Sn20 2.172989 1_555
O72 Si16 1.605504 1_555
O72 Sn0 2.005674 1_555
O73 Si17 1.647588 1_555
O73 Sn1 1.980794 1_565
O74 S17 1.473079 1_555
O74 Sn1 2.181519 1_565
O75 Si13 1.613970 1_555
O75 Sn0 2.028489 1_655
O76 Si14 1.599364 1_555
O76 Sn0 2.017024 1_545
O77 Si15 1.643547 1_555
O77 Sn1 1.982557 1_555
O78 Si10 1.633353 1_555
O78 Sn2 1.995458 1_555
O79 S16 1.477361 1_555
O79 Sn3 2.290961 1_545
O80 Si11 1.655039 1_555
O80 Sn2 2.024606 1_565
O81 Si12 1.634834 1_555
O81 Sn3 2.023791 1_555
O82 S14 1.474509 1_555
O82 Sn3 2.252543 1_555
O83 S15 1.468436 1_555
O83 Sn2 2.315826 1_665
O84 S4 1.506316 1_555
O84 Sn5 2.314105 1_555
O85 S5 1.510688 1_555
O85 Sn4 2.171966 1_555
O86 S6 1.510348 1_555
O86 Sn4 2.286536 1_455
O87 S7 1.506047 1_555
O87 Sn5 2.319869 1_555
O88 S8 1.490578 1_555
O88 Sn5 2.319657 1_565
O89 S9 1.532228 1_555
O89 Sn4 2.187264 1_565
O90 Si8 1.684166 1_555
O90 Sn7 1.985869 1_555
O91 S10 1.488330 1_555
O91 Sn6 2.262510 1_655
O92 S11 1.503601 1_555
O92 Sn7 2.156194 1_545
O93 S12 1.467314 1_555
O93 Sn6 2.356888 1_645
O94 Si9 1.664011 1_555
O94 Sn6 1.994918 1_545
O95 S13 1.495934 1_555
O95 Sn7 2.303713 1_545
O96 Si6 1.606913 1_545
O97 Si7 1.621691 1_545
O98 Si3 1.581752 1_555
O99 Si4 1.597411 1_555
O100 Si5 1.586872 1_555
O101 S3 1.462158 1_655
O102 S1 1.477513 1_555
O102 Sn8 2.221666 1_555
O103 Si1 1.643886 1_555
O104 Si2 1.620170 1_555
O104 Sn8 2.030969 1_555
O105 S2 1.476827 1_655
O106 Si0 1.625072 1_555
O106 Sn8 2.011715 1_555
O107 S0 1.472454 1_545
O108 S14 1.487949 1_555
O108 Sn9 2.163701 1_555
O109 S15 1.490726 1_555
O109 Sn10 2.144441 1_555
O110 S16 1.476399 1_555
O110 Sn9 2.310986 1_555
O111 Si10 1.653345 1_655
O111 Sn10 1.974101 1_555
O112 Si11 1.667169 1_545
O112 Sn9 2.007368 1_555
O113 Si12 1.647712 1_545
O113 Sn10 1.973738 1_555
O114 S17 1.480061 1_545
O114 Sn11 2.158416 1_555
O115 Si13 1.642988 1_545
O115 Sn12 1.971323 1_555
O116 Si14 1.651970 1_555
O116 Sn11 1.972618 1_555
O117 Si15 1.627587 1_555
O117 Sn12 1.968355 1_555
O118 Si17 1.656927 1_555
O118 Sn11 1.971117 1_555
O119 Si16 1.622917 1_655
O119 Sn12 1.977562 1_555
O120 Si9 1.667526 1_555
O120 Sn13 2.015954 1_555
O121 S13 1.492768 1_555
O121 Sn14 2.136962 1_555
O122 S10 1.486599 1_455
O122 Sn13 2.160828 1_555
O123 Si8 1.664840 1_555
O123 Sn14 1.994675 1_555
O124 S11 1.482853 1_565
O124 Sn13 2.237255 1_555
O125 S12 1.501476 1_565
O125 Sn14 2.125690 1_555
O126 S6 1.506978 1_565
O126 Sn15 2.174262 1_555
O127 S7 1.498135 1_565
O127 Sn16 2.196511 1_555
O128 S8 1.513408 1_555
O128 Sn15 2.127143 1_555
O129 S9 1.489937 1_555
O129 Sn16 2.300877 1_555
O130 S5 1.506851 1_455
O130 Sn15 2.147973 1_555
O131 S4 1.489145 1_555
O131 Sn16 2.258999 1_555
O132 Si0 1.683509 1_565
O132 Sn17 2.008342 1_555
O133 S0 1.462471 1_555
O133 Sn18 2.275404 1_555
O134 S1 1.485902 1_555
O134 Sn17 2.253133 1_555
O135 Si1 1.646347 1_555
O135 Sn18 2.087848 1_555
O136 S2 1.514825 1_555
O136 Sn17 2.183648 1_555
O137 Si2 1.640618 1_555
O137 Sn18 2.118482 1_555
O138 Si3 1.651702 1_555
O138 Sn19 2.050577 1_555
O139 Si4 1.637313 1_555
O139 Sn20 2.001771 1_555
O140 S3 1.506658 1_555
O140 Sn19 2.262451 1_555
O141 Si5 1.654084 1_555
O141 Sn20 2.017875 1_555
O142 Si6 1.655794 1_555
O142 Sn19 2.018318 1_555
O143 Si7 1.629311 1_555
O143 Sn20 1.997210 1_555
