# generated using pymatgen
data_Na10Hf2Mg6Si3(S3O16)3
_symmetry_space_group_name_H-M   'P 1'
_cell_length_a   17.88203011
_cell_length_b   8.96316249
_cell_length_c   22.51695641
_cell_angle_alpha   90.07428863
_cell_angle_beta   89.93672230
_cell_angle_gamma   119.92821278
_symmetry_Int_Tables_number   1
_chemical_formula_structural   Na10Hf2Mg6Si3(S3O16)3
_chemical_formula_sum   'Na30 Hf6 Mg18 Si9 S27 O144'
_cell_volume   3127.74752052
_cell_formula_units_Z   3
loop_
 _symmetry_equiv_pos_site_id
 _symmetry_equiv_pos_as_xyz
  1  'x, y, z'
loop_
 _atom_site_type_symbol
 _atom_site_label
 _atom_site_symmetry_multiplicity
 _atom_site_fract_x
 _atom_site_fract_y
 _atom_site_fract_z
 _atom_site_occupancy
  Na  Na0  1  0.31689477  0.00139912  0.24564032  1
  Na  Na1  1  0.18901139  0.35847635  0.24912568  1
  Na  Na2  1  0.49730852  0.63534467  0.25430011  1
  Na  Na3  1  0.30930480  0.61837290  0.74061783  1
  Na  Na4  1  0.81652455  0.63324545  0.74464106  1
  Na  Na5  1  0.00149195  0.35410719  0.75346911  1
  Na  Na6  1  0.18289315  0.01582608  0.75536452  1
  Na  Na7  1  0.68975033  0.02086813  0.74905959  1
  Na  Na8  1  0.16308195  0.35075401  0.58799915  1
  Na  Na9  1  0.82909634  0.70048675  0.08086799  1
  Na  Na10  1  0.48255547  0.65381570  0.91842434  1
  Na  Na11  1  0.35215494  0.04078762  0.91708932  1
  Na  Na12  1  0.85417053  0.03985448  0.92147417  1
  Na  Na13  1  0.65987361  0.30290484  0.91681547  1
  Na  Na14  1  0.98083659  0.30812318  0.41708264  1
  Na  Na15  1  0.15882664  0.01583688  0.41551911  1
  Na  Na16  1  0.35417109  0.66760482  0.42234449  1
  Na  Na17  1  0.85128492  0.66279651  0.41600046  1
  Na  Na18  1  0.99451819  0.97362607  0.49751414  1
  Na  Na19  1  0.50286483  0.99924988  0.49905988  1
  Na  Na20  1  0.00777682  0.01962338  0.99829036  1
  Na  Na21  1  0.50072077  0.01577154  0.99755558  1
  Na  Na22  1  0.32805507  0.32893838  0.83460531  1
  Na  Na23  1  0.83467661  0.33246708  0.82912255  1
  Na  Na24  1  0.33424513  0.33455890  0.32914015  1
  Na  Na25  1  0.82972418  0.33296418  0.33362285  1
  Na  Na26  1  0.16372183  0.67207795  0.16183050  1
  Na  Na27  1  0.67727633  0.69439700  0.16201977  1
  Na  Na28  1  0.17465170  0.66627540  0.66138990  1
  Na  Na29  1  0.66477847  0.65536977  0.66121834  1
  Hf  Hf0  1  0.99675281  0.00447510  0.65036925  1
  Hf  Hf1  1  0.50121709  0.00794128  0.64339402  1
  Hf  Hf2  1  0.00021398  0.00018913  0.14629996  1
  Hf  Hf3  1  0.49733123  0.99469099  0.14818566  1
  Hf  Hf4  1  0.16041922  0.66980084  0.31287083  1
  Hf  Hf5  1  0.66125382  0.65134177  0.81367051  1
  Mg  Mg0  1  0.00081064  0.98529324  0.34868393  1
  Mg  Mg1  1  0.50394270  0.00037446  0.35089964  1
  Mg  Mg2  1  0.00561633  0.01483518  0.84958655  1
  Mg  Mg3  1  0.50368463  0.01823052  0.85008421  1
  Mg  Mg4  1  0.33172146  0.34219060  0.68022823  1
  Mg  Mg5  1  0.82954822  0.32482890  0.68386143  1
  Mg  Mg6  1  0.32992759  0.33435767  0.18423407  1
  Mg  Mg7  1  0.83143981  0.31918242  0.18057300  1
  Mg  Mg8  1  0.33054677  0.32974797  0.98197976  1
  Mg  Mg9  1  0.84035755  0.32882411  0.98870651  1
  Mg  Mg10  1  0.34258991  0.34894272  0.48777900  1
  Mg  Mg11  1  0.82981462  0.33157354  0.48150452  1
  Mg  Mg12  1  0.16412999  0.66289084  0.01627989  1
  Mg  Mg13  1  0.66309741  0.66357165  0.02087498  1
  Mg  Mg14  1  0.16845499  0.67904934  0.52007610  1
  Mg  Mg15  1  0.66415013  0.66345557  0.51660483  1
  Mg  Mg16  1  0.67075070  0.66813691  0.31745205  1
  Mg  Mg17  1  0.16499389  0.65450432  0.81792896  1
  Si  Si0  1  0.14872449  0.00688034  0.25191182  1
  Si  Si1  1  0.35436923  0.70335568  0.25475018  1
  Si  Si2  1  0.15172920  0.29840392  0.75147514  1
  Si  Si3  1  0.64865935  0.29078903  0.75206455  1
  Si  Si4  1  0.85261060  0.00424567  0.75544568  1
  Si  Si5  1  0.33112377  0.63168289  0.58085790  1
  Si  Si6  1  0.82860542  0.03220604  0.08077505  1
  Si  Si7  1  0.51628368  0.36853967  0.92142067  1
  Si  Si8  1  0.01611106  0.66433362  0.42139129  1
  S  S0  1  0.64854597  0.00371062  0.25159601  1
  S  S1  1  0.84999474  0.69923436  0.25012463  1
  S  S2  1  0.99518468  0.28707299  0.25287620  1
  S  S3  1  0.50471240  0.29657999  0.25055508  1
  S  S4  1  0.00160934  0.71075712  0.75097196  1
  S  S5  1  0.49821886  0.70966135  0.75186843  1
  S  S6  1  0.35365031  0.00249518  0.75112145  1
  S  S7  1  0.48115470  0.34106135  0.58349010  1
  S  S8  1  0.97767055  0.33191958  0.58255923  1
  S  S9  1  0.18689568  0.03832026  0.58337219  1
  S  S10  1  0.68860614  0.03692748  0.58272248  1
  S  S11  1  0.83201796  0.62602934  0.58268998  1
  S  S12  1  0.47849406  0.62332800  0.08386139  1
  S  S13  1  0.98106570  0.62256164  0.08405200  1
  S  S14  1  0.33207705  0.03796386  0.08303861  1
  S  S15  1  0.18840408  0.33993807  0.08307280  1
  S  S16  1  0.68739486  0.33158745  0.08276490  1
  S  S17  1  0.31227465  0.66529800  0.91650060  1
  S  S18  1  0.81629476  0.66554338  0.91809855  1
  S  S19  1  0.01923050  0.37482771  0.91665965  1
  S  S20  1  0.16378392  0.95423043  0.91674184  1
  S  S21  1  0.66600078  0.96054689  0.91724954  1
  S  S22  1  0.31569381  0.96510398  0.41730021  1
  S  S23  1  0.81074600  0.95727020  0.41677120  1
  S  S24  1  0.16596591  0.37061760  0.41751251  1
  S  S25  1  0.66380008  0.37224410  0.41702798  1
  S  S26  1  0.52107177  0.66597130  0.41512434  1
  O  O0  1  0.11064212  0.04597072  0.31113281  1
  O  O1  1  0.60655211  0.02480331  0.30430516  1
  O  O2  1  0.41195556  0.79291053  0.31256294  1
  O  O3  1  0.90176105  0.78290748  0.30388916  1
  O  O4  1  0.49059947  0.18677865  0.30246810  1
  O  O5  1  0.98525963  0.18818141  0.30734374  1
  O  O6  1  0.10476617  0.16323419  0.80397991  1
  O  O7  1  0.61140441  0.17622339  0.81134486  1
  O  O8  1  0.48430273  0.78505143  0.80623050  1
  O  O9  1  0.98302206  0.78493908  0.80286606  1
  O  O10  1  0.40261525  0.02010565  0.80583564  1
  O  O11  1  0.90763870  0.02770078  0.81443096  1
  O  O12  1  0.39577301  0.96971757  0.69909755  1
  O  O13  1  0.89760995  0.95854850  0.69793893  1
  O  O14  1  0.08907202  0.20628046  0.68998096  1
  O  O15  1  0.58630837  0.19267551  0.69523923  1
  O  O16  1  0.01671618  0.82155351  0.69684029  1
  O  O17  1  0.51102642  0.82056104  0.69934104  1
  O  O18  1  0.40155026  0.83904098  0.19742084  1
  O  O19  1  0.89380882  0.80988160  0.19607244  1
  O  O20  1  0.00865986  0.20190082  0.20009037  1
  O  O21  1  0.51759529  0.21405213  0.19611911  1
  O  O22  1  0.08718341  0.98106880  0.19467286  1
  O  O23  1  0.59123324  0.97835800  0.19772722  1
  O  O24  1  0.43891400  0.35548352  0.63718680  1
  O  O25  1  0.93647332  0.34782799  0.63684495  1
  O  O26  1  0.23630603  0.12133257  0.63769717  1
  O  O27  1  0.73659411  0.11293074  0.63840752  1
  O  O28  1  0.31682225  0.51647799  0.64035463  1
  O  O29  1  0.82469677  0.52794824  0.63732993  1
  O  O30  1  0.43633489  0.52278374  0.13761611  1
  O  O31  1  0.94051569  0.52454659  0.13796905  1
  O  O32  1  0.32451651  0.12092965  0.13751573  1
  O  O33  1  0.82018369  0.12729070  0.13833221  1
  O  O34  1  0.23678665  0.36061560  0.13859072  1
  O  O35  1  0.74201819  0.35675335  0.13483328  1
  O  O36  1  0.22944245  0.31141649  0.03133874  1
  O  O37  1  0.72493665  0.30766900  0.02728072  1
  O  O38  1  0.42602069  0.55029926  0.02984975  1
  O  O39  1  0.92609758  0.54891166  0.03101736  1
  O  O40  1  0.34407067  0.14080404  0.02931228  1
  O  O41  1  0.84702135  0.13538714  0.01817293  1
  O  O42  1  0.22713328  0.14443773  0.52963509  1
  O  O43  1  0.72979405  0.14693415  0.53110531  1
  O  O44  1  0.34581235  0.55085617  0.52002548  1
  O  O45  1  0.84264268  0.54415585  0.52898155  1
  O  O46  1  0.42937124  0.30964407  0.52963020  1
  O  O47  1  0.92614541  0.30645440  0.52884931  1
  O  O48  1  0.27083005  0.69643362  0.96798003  1
  O  O49  1  0.77558432  0.69333325  0.97049272  1
  O  O50  1  0.07245914  0.46496108  0.96847428  1
  O  O51  1  0.58391260  0.46528140  0.97382739  1
  O  O52  1  0.15638525  0.84828522  0.96890985  1
  O  O53  1  0.65750423  0.85371780  0.96837854  1
  O  O54  1  0.27460116  0.85157061  0.46816564  1
  O  O55  1  0.77144669  0.84584057  0.46919244  1
  O  O56  1  0.15747905  0.45762949  0.47009163  1
  O  O57  1  0.65302987  0.45468538  0.47055913  1
  O  O58  1  0.08394491  0.70396312  0.47382249  1
  O  O59  1  0.57346053  0.68116028  0.46724192  1
  O  O60  1  0.06337414  0.63183838  0.36153576  1
  O  O61  1  0.56134997  0.65061120  0.35917574  1
  O  O62  1  0.26124087  0.88117640  0.36167495  1
  O  O63  1  0.76006754  0.87724327  0.36272073  1
  O  O64  1  0.18093905  0.47966461  0.36292356  1
  O  O65  1  0.67930343  0.48276145  0.36387424  1
  O  O66  1  0.05876905  0.47010662  0.86075186  1
  O  O67  1  0.56260800  0.49529881  0.86154733  1
  O  O68  1  0.17850253  0.87758866  0.86142211  1
  O  O69  1  0.68058101  0.88381223  0.86161183  1
  O  O70  1  0.26395674  0.64662393  0.86104678  1
  O  O71  1  0.76038797  0.64195493  0.86338466  1
  O  O72  1  0.00415611  0.83376183  0.41299395  1
  O  O73  1  0.51031654  0.82203229  0.41368129  1
  O  O74  1  0.40255643  0.98562198  0.40975335  1
  O  O75  1  0.90040221  0.98145639  0.41083664  1
  O  O76  1  0.08437199  0.20210657  0.41202444  1
  O  O77  1  0.58679851  0.19883786  0.40997884  1
  O  O78  1  0.00896240  0.19829496  0.91511596  1
  O  O79  1  0.50465827  0.17533043  0.91355065  1
  O  O80  1  0.08566057  0.96990708  0.91246546  1
  O  O81  1  0.58408500  0.96617554  0.91231861  1
  O  O82  1  0.40182278  0.81969706  0.91161495  1
  O  O83  1  0.90241770  0.81870519  0.91045248  1
  O  O84  1  0.49183851  0.18272494  0.58874686  1
  O  O85  1  0.98761728  0.17046889  0.58677488  1
  O  O86  1  0.09837954  0.02703155  0.58750582  1
  O  O87  1  0.59947416  0.01882126  0.58804920  1
  O  O88  1  0.41867436  0.82612396  0.58990890  1
  O  O89  1  0.91317752  0.80242153  0.58700480  1
  O  O90  1  0.48852224  0.80402528  0.09059826  1
  O  O91  1  0.98886331  0.80061023  0.08933639  1
  O  O92  1  0.41420886  0.02398960  0.08810670  1
  O  O93  1  0.91725913  0.00496209  0.08946697  1
  O  O94  1  0.09920175  0.18147168  0.08864513  1
  O  O95  1  0.59908308  0.17211301  0.08991583  1
  O  O96  1  0.34516462  0.15632269  0.74257437  1
  O  O97  1  0.84732939  0.17711413  0.74365372  1
  O  O98  1  0.24759170  0.31804036  0.74508275  1
  O  O99  1  0.74718324  0.32900585  0.74302445  1
  O  O100  1  0.42524874  0.53492125  0.74416348  1
  O  O101  1  0.92665416  0.53623334  0.74080008  1
  O  O102  1  0.34758097  0.51814286  0.24387205  1
  O  O103  1  0.84242570  0.52856702  0.24248205  1
  O  O104  1  0.42537912  0.31006515  0.24225876  1
  O  O105  1  0.92362643  0.31932791  0.24567023  1
  O  O106  1  0.24707050  0.16602189  0.24322056  1
  O  O107  1  0.73387337  0.15572471  0.24438224  1
  O  O108  1  0.32174839  0.51056843  0.92358599  1
  O  O109  1  0.81930611  0.50310436  0.92187784  1
  O  O110  1  0.42050158  0.35225640  0.92358806  1
  O  O111  1  0.93101061  0.35623283  0.91990516  1
  O  O112  1  0.24342654  0.12852975  0.92260216  1
  O  O113  1  0.74098845  0.13895650  0.92038330  1
  O  O114  1  0.31857480  0.13309966  0.42238562  1
  O  O115  1  0.82093874  0.13181719  0.42374196  1
  O  O116  1  0.24138318  0.34229657  0.42026817  1
  O  O117  1  0.74346744  0.35670394  0.42270581  1
  O  O118  1  0.43242189  0.50908626  0.41825077  1
  O  O119  1  0.92075614  0.48907690  0.42316189  1
  O  O120  1  0.17697675  0.49207559  0.07619819  1
  O  O121  1  0.67663299  0.48456273  0.07908790  1
  O  O122  1  0.06859840  0.64706929  0.07689192  1
  O  O123  1  0.56541296  0.64726988  0.07912368  1
  O  O124  1  0.25697464  0.86200753  0.07816157  1
  O  O125  1  0.74895536  0.83169338  0.07726331  1
  O  O126  1  0.17451946  0.86460426  0.57976878  1
  O  O127  1  0.67669183  0.86198082  0.57606536  1
  O  O128  1  0.24308418  0.64562921  0.57683575  1
  O  O129  1  0.75575773  0.64927219  0.57819328  1
  O  O130  1  0.06637329  0.47959192  0.57848873  1
  O  O131  1  0.56872677  0.49377539  0.57810164  1
  O  O132  1  0.15798818  0.83092961  0.25493892  1
  O  O133  1  0.65137081  0.83961231  0.25438688  1
  O  O134  1  0.25620199  0.67836718  0.25699314  1
  O  O135  1  0.76393107  0.68578413  0.25420702  1
  O  O136  1  0.08053438  0.45680384  0.25557762  1
  O  O137  1  0.57977256  0.47266643  0.25566589  1
  O  O138  1  0.15657433  0.48675651  0.75434620  1
  O  O139  1  0.65758606  0.48491988  0.75525943  1
  O  O140  1  0.08150564  0.69911726  0.75692537  1
  O  O141  1  0.58179985  0.70727235  0.75588759  1
  O  O142  1  0.26511060  0.84646624  0.75501416  1
  O  O143  1  0.75420444  0.83369600  0.75737000  1
loop_
_geom_bond_atom_site_label_1
_geom_bond_atom_site_label_2
_geom_bond_distance
_geom_bond_site_symmetry_2
Na0 O106 2.361760 1_555
Na0 O104 2.463359 1_555
Na0 O132 2.473896 1_545
Na0 O134 2.547989 1_545
Na0 O32 2.637081 1_555
Na0 O18 2.789028 1_545
Na0 O62 2.812388 1_545
Na1 O106 2.420192 1_555
Na1 O102 2.460268 1_555
Na1 O134 2.501532 1_555
Na1 O136 2.503106 1_555
Na1 O34 2.627544 1_555
Na1 O0 2.801448 1_555
Na1 O64 2.813353 1_555
Na2 O102 2.349796 1_555
Na2 O133 2.430810 1_555
Na2 O137 2.539147 1_555
Na2 O104 2.546575 1_555
Na2 O61 2.599143 1_555
Na2 O30 2.830473 1_555
Na2 O2 2.861264 1_555
Na2 O23 2.957859 1_555
Na3 O98 2.347475 1_555
Na3 O138 2.393843 1_555
Na3 O28 2.462831 1_555
Na3 O100 2.532284 1_555
Na3 O142 2.553281 1_555
Na3 O70 2.876324 1_555
Na3 O12 2.885789 1_555
Na4 O99 2.366633 1_555
Na4 O139 2.476169 1_555
Na4 O101 2.519920 1_555
Na4 O143 2.558892 1_555
Na4 O29 2.623288 1_555
Na4 O13 2.737853 1_555
Na4 O71 2.869567 1_555
Na4 O9 2.897685 1_555
Na5 O97 2.408687 1_455
Na5 O138 2.411347 1_555
Na5 O101 2.592107 1_455
Na5 O66 2.627153 1_555
Na5 O140 2.683415 1_555
Na5 O25 2.862169 1_455
Na5 O14 2.883171 1_555
Na5 O11 2.892430 1_455
Na6 O98 2.367194 1_555
Na6 O140 2.492230 1_545
Na6 O96 2.538062 1_555
Na6 O142 2.587045 1_545
Na6 O6 2.594325 1_555
Na6 O68 2.674804 1_545
Na6 O26 2.815334 1_555
Na6 O16 2.904910 1_545
Na7 O99 2.423133 1_555
Na7 O97 2.445052 1_555
Na7 O143 2.471571 1_545
Na7 O141 2.497391 1_545
Na7 O27 2.627052 1_555
Na7 O69 2.786575 1_545
Na7 O7 2.793899 1_555
Na8 O128 2.307242 1_555
Na8 O130 2.522740 1_555
Na8 O86 2.531407 1_555
Na8 O14 2.644315 1_555
Na8 O28 2.661215 1_555
Na8 O85 2.719883 1_455
Na8 O56 2.842400 1_555
Na8 O42 2.926174 1_555
Na9 O125 2.263966 1_555
Na9 O93 2.382627 1_565
Na9 O121 2.432129 1_555
Na9 O91 2.538969 1_555
Na9 O49 2.653335 1_554
Na9 O19 2.810245 1_555
Na9 O39 2.908216 1_555
Na9 O35 2.934605 1_555
Na10 O110 2.357623 1_555
Na10 O81 2.466182 1_555
Na10 O108 2.499291 1_555
Na10 O82 2.541890 1_555
Na10 O38 2.691146 1_556
Na10 O67 2.780073 1_555
Na10 O8 2.781635 1_555
Na10 O53 2.944834 1_555
Na11 O79 2.369763 1_555
Na11 O110 2.429755 1_555
Na11 O112 2.437031 1_555
Na11 O82 2.546840 1_545
Na11 O10 2.699032 1_555
Na11 O40 2.707859 1_556
Na11 O48 2.912236 1_545
Na11 O68 2.970673 1_545
Na12 O41 2.365213 1_556
Na12 O78 2.403399 1_655
Na12 O111 2.458229 1_555
Na12 O83 2.537664 1_545
Na12 O113 2.584559 1_555
Na12 O11 2.614130 1_555
Na12 O49 2.913776 1_545
Na13 O79 2.418685 1_555
Na13 O109 2.501290 1_555
Na13 O113 2.529279 1_555
Na13 O7 2.587681 1_555
Na13 O81 2.621883 1_545
Na13 O37 2.738406 1_556
Na13 O51 2.752310 1_555
Na13 O71 2.909934 1_555
Na14 O119 2.354027 1_555
Na14 O76 2.469502 1_655
Na14 O115 2.487234 1_555
Na14 O75 2.541398 1_545
Na14 O47 2.696341 1_555
Na14 O5 2.710222 1_555
Na14 O60 2.809575 1_655
Na15 O72 2.410913 1_545
Na15 O114 2.508689 1_555
Na15 O116 2.538133 1_555
Na15 O0 2.564835 1_555
Na15 O76 2.604779 1_555
Na15 O58 2.757041 1_545
Na15 O42 2.831526 1_555
Na15 O62 2.911634 1_545
Na16 O44 2.409201 1_555
Na16 O73 2.427624 1_555
Na16 O118 2.443039 1_555
Na16 O74 2.548457 1_555
Na16 O116 2.589140 1_555
Na16 O2 2.698741 1_555
Na16 O54 2.853322 1_555
Na16 O64 3.003369 1_555
Na17 O72 2.376041 1_655
Na17 O119 2.434132 1_555
Na17 O117 2.447329 1_555
Na17 O75 2.537769 1_555
Na17 O3 2.716384 1_555
Na17 O45 2.732900 1_555
Na17 O65 2.913881 1_555
Na17 O55 2.914254 1_555
Na18 O72 2.330641 1_655
Na18 O89 2.511032 1_555
Na18 O75 2.602311 1_555
Na18 O86 2.627406 1_665
Na18 O76 2.683496 1_665
Na18 O85 2.715737 1_565
Na19 O73 2.537609 1_555
Na19 O88 2.555281 1_555
Na19 O87 2.595131 1_565
Na19 O77 2.607651 1_565
Na19 O74 2.657972 1_555
Na19 O84 2.671266 1_565
Na20 O78 2.458953 1_555
Na20 O80 2.546360 1_545
Na20 O94 2.559232 1_556
Na20 O93 2.575513 1_456
Na20 O83 2.705185 1_445
Na20 O91 2.741751 1_446
Na21 O79 2.352539 1_555
Na21 O92 2.581137 1_556
Na21 O81 2.599269 1_545
Na21 O82 2.618844 1_545
Na21 O95 2.631271 1_556
Na21 O90 2.763160 1_546
Na22 O98 2.451292 1_555
Na22 O110 2.540176 1_555
Na22 O112 2.594801 1_555
Na22 O108 2.617554 1_555
Na22 O96 2.691515 1_555
Na22 O100 2.716004 1_555
Na23 O97 2.449545 1_555
Na23 O99 2.483012 1_555
Na23 O111 2.613795 1_555
Na23 O101 2.645902 1_555
Na23 O113 2.672064 1_555
Na23 O109 2.680818 1_555
Na24 O102 2.463019 1_555
Na24 O106 2.470675 1_555
Na24 O118 2.610469 1_555
Na24 O104 2.622969 1_555
Na24 O116 2.660769 1_555
Na24 O114 2.692785 1_555
Na25 O119 2.529771 1_555
Na25 O117 2.601444 1_555
Na25 O107 2.604165 1_555
Na25 O103 2.635888 1_555
Na25 O105 2.636935 1_555
Na25 O115 2.668149 1_555
Na26 O122 2.495423 1_555
Na26 O124 2.529205 1_555
Na26 O132 2.563317 1_555
Na26 O120 2.597997 1_555
Na26 O134 2.691464 1_555
Na26 O136 2.744340 1_555
Na27 O125 2.286109 1_555
Na27 O133 2.612833 1_555
Na27 O123 2.612844 1_555
Na27 O135 2.615881 1_555
Na27 O121 2.644597 1_555
Na27 O137 2.825102 1_555
Na28 O128 2.318720 1_555
Na28 O126 2.559387 1_555
Na28 O138 2.561801 1_555
Na28 O130 2.607763 1_555
Na28 O142 2.657281 1_555
Na28 O140 2.822804 1_555
Na29 O131 2.463402 1_555
Na29 O129 2.495282 1_555
Na29 O139 2.578028 1_555
Na29 O127 2.601132 1_555
Na29 O143 2.692139 1_555
Na29 O141 2.764306 1_555
Hf0 O13 1.930954 1_545
Hf0 O14 1.952470 1_655
Hf0 O16 2.121275 1_645
Hf0 O85 2.130581 1_555
Hf0 O89 2.201445 1_545
Hf0 O86 2.230581 1_655
Hf1 O88 1.970654 1_545
Hf1 O15 1.976027 1_555
Hf1 O84 2.064976 1_555
Hf1 O87 2.115230 1_555
Hf1 O12 2.144105 1_545
Hf1 O17 2.176806 1_545
Hf2 O22 1.975991 1_545
Hf2 O93 1.976769 1_455
Hf2 O20 2.116799 1_555
Hf2 O91 2.125727 1_445
Hf2 O19 2.132541 1_445
Hf2 O94 2.142256 1_555
Hf3 O18 1.929883 1_555
Hf3 O23 2.082126 1_555
Hf3 O90 2.086357 1_555
Hf3 O21 2.108671 1_565
Hf3 O92 2.122086 1_565
Hf3 O95 2.161946 1_565
Hf4 O60 1.932765 1_555
Hf4 O132 1.963904 1_555
Hf4 O134 2.094485 1_555
Hf4 O136 2.150831 1_555
Hf4 O62 2.153644 1_555
Hf4 O64 2.222409 1_555
Hf5 O67 1.941107 1_555
Hf5 O139 1.963850 1_555
Hf5 O143 2.081157 1_555
Hf5 O71 2.134514 1_555
Hf5 O141 2.163176 1_555
Hf5 O69 2.214238 1_555
Mg0 O0 1.949294 1_565
Mg0 O72 2.007872 1_555
Mg0 O3 2.058730 1_455
Mg0 O5 2.181834 1_465
Mg0 O75 2.261981 1_455
Mg0 O76 2.267922 1_565
Mg1 O2 1.963571 1_545
Mg1 O1 2.027529 1_555
Mg1 O4 2.107309 1_555
Mg1 O77 2.120743 1_555
Mg1 O73 2.180516 1_545
Mg1 O74 2.194661 1_545
Mg2 O6 1.900963 1_555
Mg2 O11 1.978501 1_455
Mg2 O9 2.163467 1_445
Mg2 O78 2.186426 1_555
Mg2 O80 2.190126 1_545
Mg2 O83 2.266667 1_445
Mg3 O7 1.937610 1_555
Mg3 O79 1.998925 1_555
Mg3 O10 2.072134 1_555
Mg3 O8 2.176230 1_545
Mg3 O81 2.219000 1_545
Mg3 O82 2.273878 1_545
Mg4 O28 1.933111 1_555
Mg4 O98 2.028223 1_555
Mg4 O26 2.091769 1_555
Mg4 O24 2.096659 1_555
Mg4 O100 2.229311 1_555
Mg4 O96 2.282637 1_555
Mg5 O99 1.998984 1_555
Mg5 O97 2.022949 1_555
Mg5 O27 2.065499 1_555
Mg5 O25 2.102845 1_555
Mg5 O29 2.140702 1_555
Mg5 O101 2.228208 1_555
Mg6 O106 2.001523 1_555
Mg6 O102 2.023077 1_555
Mg6 O34 2.069122 1_555
Mg6 O30 2.090062 1_555
Mg6 O32 2.141450 1_555
Mg6 O104 2.245965 1_555
Mg7 O33 1.885247 1_555
Mg7 O35 2.067104 1_555
Mg7 O31 2.128586 1_555
Mg7 O107 2.168903 1_555
Mg7 O105 2.206634 1_555
Mg7 O103 2.264941 1_555
Mg8 O110 2.007266 1_555
Mg8 O36 2.056828 1_556
Mg8 O40 2.115741 1_556
Mg8 O38 2.148340 1_556
Mg8 O108 2.154240 1_555
Mg8 O112 2.159191 1_555
Mg9 O41 1.915679 1_556
Mg9 O39 2.032300 1_556
Mg9 O37 2.157837 1_556
Mg9 O111 2.164778 1_555
Mg9 O113 2.324266 1_555
Mg9 O109 2.332454 1_555
Mg10 O44 1.923141 1_555
Mg10 O46 1.992437 1_555
Mg10 O42 2.175940 1_555
Mg10 O118 2.188901 1_555
Mg10 O114 2.293552 1_555
Mg10 O116 2.342637 1_555
Mg11 O119 2.018084 1_555
Mg11 O43 2.057191 1_555
Mg11 O45 2.094080 1_555
Mg11 O117 2.130748 1_555
Mg11 O47 2.132174 1_555
Mg11 O115 2.152536 1_555
Mg12 O50 2.022455 1_554
Mg12 O52 2.037829 1_554
Mg12 O48 2.082684 1_554
Mg12 O122 2.134172 1_555
Mg12 O120 2.138727 1_555
Mg12 O124 2.219276 1_555
Mg13 O51 1.942512 1_554
Mg13 O125 1.982641 1_555
Mg13 O53 2.118377 1_554
Mg13 O123 2.129238 1_555
Mg13 O121 2.178248 1_555
Mg13 O49 2.205580 1_554
Mg14 O58 1.938850 1_555
Mg14 O128 1.976803 1_555
Mg14 O126 2.097382 1_555
Mg14 O54 2.105057 1_555
Mg14 O56 2.202274 1_555
Mg14 O130 2.236669 1_555
Mg15 O59 2.037598 1_555
Mg15 O57 2.059172 1_555
Mg15 O55 2.088951 1_555
Mg15 O131 2.133751 1_555
Mg15 O127 2.146035 1_555
Mg15 O129 2.199108 1_555
Mg16 O63 2.028402 1_555
Mg16 O65 2.033516 1_555
Mg16 O61 2.103364 1_555
Mg16 O135 2.135836 1_555
Mg16 O137 2.192352 1_555
Mg16 O133 2.244344 1_555
Mg17 O138 2.025360 1_555
Mg17 O66 2.033970 1_555
Mg17 O70 2.051337 1_555
Mg17 O68 2.128166 1_555
Mg17 O140 2.208445 1_555
Mg17 O142 2.258209 1_555
O0 Si0 1.612307 1_555
O1 S0 1.465391 1_555
O2 Si1 1.604614 1_555
O3 S1 1.480652 1_555
O4 S3 1.467363 1_555
O5 S2 1.471971 1_555
O6 Si2 1.599091 1_555
O7 Si3 1.612136 1_555
O8 S5 1.477111 1_555
O9 S4 1.461372 1_655
O10 S6 1.474233 1_555
O11 Si4 1.603825 1_555
O12 S6 1.497959 1_565
O13 Si4 1.678445 1_565
O14 Si2 1.712245 1_555
O15 Si3 1.635714 1_555
O16 S4 1.509830 1_555
O17 S5 1.488193 1_555
O18 Si1 1.683770 1_555
O19 S1 1.518030 1_555
O20 S2 1.494705 1_455
O21 S3 1.506561 1_555
O22 Si0 1.635243 1_565
O23 S0 1.530658 1_565
O24 S7 1.464295 1_555
O25 S8 1.469543 1_555
O26 S9 1.474662 1_555
O27 S10 1.479682 1_555
O28 Si5 1.632712 1_555
O29 S11 1.480302 1_555
O30 S12 1.472562 1_555
O31 S13 1.461740 1_555
O32 S14 1.474297 1_555
O33 Si6 1.597951 1_555
O34 S15 1.478989 1_555
O35 S16 1.470217 1_555
O36 S15 1.464719 1_555
O37 S16 1.482746 1_555
O38 S12 1.474992 1_555
O39 S13 1.476854 1_555
O40 S14 1.471129 1_555
O41 Si6 1.627640 1_555
O42 S9 1.484811 1_555
O43 S10 1.463547 1_555
O44 Si5 1.629905 1_555
O45 S11 1.474268 1_555
O46 S7 1.465931 1_555
O47 S8 1.468175 1_555
O48 S17 1.474593 1_555
O49 S18 1.470412 1_555
O50 S19 1.467167 1_555
O51 Si7 1.600321 1_555
O52 S20 1.475221 1_555
O53 S21 1.456938 1_555
O54 S22 1.463666 1_555
O55 S23 1.478350 1_555
O56 S24 1.465695 1_555
O57 S25 1.474852 1_555
O58 Si8 1.601092 1_555
O59 S26 1.465634 1_555
O60 Si8 1.690470 1_555
O61 S26 1.490400 1_555
O62 S22 1.533679 1_555
O63 S23 1.472594 1_555
O64 S24 1.509684 1_555
O65 S25 1.489600 1_555
O66 S19 1.487380 1_555
O67 Si7 1.690266 1_555
O68 S20 1.506733 1_555
O69 S21 1.512114 1_555
O70 S17 1.480276 1_555
O71 S18 1.533978 1_555
O72 Si8 1.646941 1_555
O73 S26 1.504413 1_555
O74 S22 1.479810 1_555
O75 S23 1.512618 1_555
O76 S24 1.492100 1_555
O77 S25 1.483667 1_555
O78 S19 1.499513 1_555
O79 Si7 1.647328 1_555
O80 S20 1.475411 1_555
O81 S21 1.494887 1_555
O82 S17 1.510043 1_555
O83 S18 1.475274 1_555
O84 S7 1.528285 1_555
O85 S8 1.546609 1_555
O86 S9 1.537596 1_555
O87 S10 1.524021 1_555
O88 Si5 1.675458 1_555
O89 S11 1.525029 1_555
O90 S12 1.545300 1_555
O91 S13 1.535556 1_555
O92 S14 1.539386 1_555
O93 Si6 1.731538 1_555
O94 S15 1.522125 1_555
O95 S16 1.520064 1_555
O96 S6 1.473302 1_555
O97 Si4 1.620907 1_555
O98 Si2 1.639725 1_555
O99 Si3 1.630932 1_555
O100 S5 1.465039 1_555
O101 S4 1.484452 1_655
O102 Si1 1.621287 1_555
O103 S1 1.476735 1_555
O104 S3 1.494586 1_555
O105 S2 1.454999 1_555
O106 Si0 1.631747 1_555
O107 S0 1.461702 1_555
O108 S17 1.487489 1_555
O109 S18 1.486118 1_555
O110 Si7 1.645506 1_555
O111 S19 1.503065 1_655
O112 S20 1.505371 1_545
O113 S21 1.490138 1_545
O114 S22 1.485018 1_545
O115 S23 1.490096 1_545
O116 S24 1.492940 1_555
O117 S25 1.504567 1_555
O118 S26 1.506986 1_555
O119 Si8 1.644377 1_655
O120 S15 1.484546 1_555
O121 S16 1.479035 1_555
O122 S13 1.476732 1_455
O123 S12 1.462912 1_555
O124 S14 1.479665 1_565
O125 Si6 1.646378 1_565
O126 S9 1.461444 1_565
O127 S10 1.480819 1_565
O128 Si5 1.642877 1_555
O129 S11 1.482274 1_555
O130 S8 1.476953 1_455
O131 S7 1.483832 1_555
O132 Si0 1.667404 1_565
O133 S0 1.498083 1_565
O134 Si1 1.655827 1_555
O135 S1 1.485283 1_555
O136 S2 1.526635 1_455
O137 S3 1.480495 1_555
O138 Si2 1.647908 1_555
O139 Si3 1.667602 1_555
O140 S4 1.489716 1_555
O141 S5 1.508214 1_555
O142 S6 1.503615 1_565
O143 Si4 1.658642 1_565
