# generated using pymatgen
data_Gd8Sb3O8
_symmetry_space_group_name_H-M   'P 1'
_cell_length_a   3.81582859
_cell_length_b   6.99157843
_cell_length_c   14.78993834
_cell_angle_alpha   83.68855170
_cell_angle_beta   82.56881357
_cell_angle_gamma   105.82929448
_symmetry_Int_Tables_number   1
_chemical_formula_structural   Gd8Sb3O8
_chemical_formula_sum   'Gd8 Sb3 O8'
_cell_volume   372.03828691
_cell_formula_units_Z   1
loop_
 _symmetry_equiv_pos_site_id
 _symmetry_equiv_pos_as_xyz
  1  'x, y, z'
loop_
 _atom_site_type_symbol
 _atom_site_label
 _atom_site_symmetry_multiplicity
 _atom_site_fract_x
 _atom_site_fract_y
 _atom_site_fract_z
 _atom_site_occupancy
  Gd  Gd0  1  0.36523942  0.65070615  0.91115626  1
  Gd  Gd1  1  0.62570647  0.34927298  0.08878032  1
  Gd  Gd2  1  0.71033262  0.25807490  0.82999117  1
  Gd  Gd3  1  0.28234356  0.74159450  0.17018670  1
  Gd  Gd4  1  0.78391912  0.14090551  0.57082001  1
  Gd  Gd5  1  0.21449233  0.85914721  0.42919228  1
  Gd  Gd6  1  0.46697109  0.59108422  0.65254722  1
  Gd  Gd7  1  0.52901241  0.40886693  0.34748773  1
  Sb  Sb0  1  0.09170344  0.92073473  0.73300019  1
  Sb  Sb1  1  0.90611445  0.07938579  0.26703729  1
  Sb  Sb2  1  0.99253670  -0.00021382  -0.00000256  1
  O  O0  1  0.31475251  0.43569570  0.79873451  1
  O  O1  1  0.67799155  0.56420589  0.20126778  1
  O  O2  1  0.89186758  0.42311783  0.63487848  1
  O  O3  1  0.10439648  0.57708315  0.36498726  1
  O  O4  1  0.34819506  0.18507341  0.48663302  1
  O  O5  1  0.65016661  0.81503762  0.51336506  1
  O  O6  1  0.76449935  0.47206652  0.93384360  1
  O  O7  1  0.22646024  0.52815979  0.06609368  1
loop_
_geom_bond_atom_site_label_1
_geom_bond_atom_site_label_2
_geom_bond_distance
_geom_bond_site_symmetry_2
Gd0 O6 2.252057 1_555
Gd0 O6 2.252606 1_455
Gd0 O7 2.296186 1_556
Gd0 O0 2.352857 1_555
Gd0 Sb2 3.426992 1_566
Gd0 Sb2 3.438162 1_466
Gd0 Sb0 3.505596 1_555
Gd0 Sb0 3.514713 1_655
Gd1 O7 2.253102 1_655
Gd1 O7 2.253261 1_555
Gd1 O6 2.296524 1_554
Gd1 O1 2.353250 1_555
Gd1 Sb2 3.427823 1_555
Gd1 Sb2 3.440571 1_455
Gd1 Sb1 3.501129 1_455
Gd1 Sb1 3.520431 1_555
Gd2 O6 2.249230 1_555
Gd2 O0 2.260678 1_655
Gd2 O0 2.260819 1_555
Gd2 O2 2.907471 1_555
Gd2 Sb2 3.392007 1_556
Gd2 Sb2 3.406924 1_456
Gd2 Sb0 3.431514 1_545
Gd2 Sb0 3.437230 1_645
Gd3 O7 2.249189 1_555
Gd3 O1 2.259290 1_555
Gd3 O1 2.260026 1_455
Gd3 O3 2.902409 1_555
Gd3 Sb2 3.392060 1_565
Gd3 Sb2 3.409885 1_465
Gd3 Sb1 3.428113 1_465
Gd3 Sb1 3.442937 1_565
Gd4 O2 2.242545 1_555
Gd4 O4 2.267401 1_655
Gd4 O4 2.267409 1_555
Gd4 O5 2.465126 1_545
Gd4 Sb0 3.225759 1_645
Gd4 Sb0 3.229713 1_545
Gd5 O3 2.242818 1_555
Gd5 O5 2.267005 1_555
Gd5 O5 2.267549 1_455
Gd5 O4 2.465396 1_565
Gd5 Sb1 3.227056 1_465
Gd5 Sb1 3.228237 1_565
Gd6 O0 2.237586 1_555
Gd6 O2 2.252267 1_555
Gd6 O2 2.252351 1_455
Gd6 O5 2.345153 1_555
Gd6 Sb0 3.277355 1_555
Gd6 Sb0 3.278721 1_655
Gd7 O1 2.237911 1_555
Gd7 O3 2.252437 1_555
Gd7 O3 2.252979 1_655
Gd7 O4 2.344182 1_555
Gd7 Sb1 3.273984 1_455
Gd7 Sb1 3.280398 1_555
