# generated using pymatgen
data_KSc2F7
_symmetry_space_group_name_H-M   'P 1'
_cell_length_a   4.04834484
_cell_length_b   6.22426197
_cell_length_c   6.22426363
_cell_angle_alpha   116.56982615
_cell_angle_beta   90.00000000
_cell_angle_gamma   90.00000000
_symmetry_Int_Tables_number   1
_chemical_formula_structural   KSc2F7
_chemical_formula_sum   'K1 Sc2 F7'
_cell_volume   140.27498661
_cell_formula_units_Z   1
loop_
 _symmetry_equiv_pos_site_id
 _symmetry_equiv_pos_as_xyz
  1  'x, y, z'
loop_
 _atom_site_type_symbol
 _atom_site_label
 _atom_site_symmetry_multiplicity
 _atom_site_fract_x
 _atom_site_fract_y
 _atom_site_fract_z
 _atom_site_occupancy
  K  K0  1  -0.00000000  -0.00000000  -0.00000000  1
  Sc  Sc0  1  0.50000000  0.69342143  0.30657857  1
  Sc  Sc1  1  0.50000000  0.30657857  0.69342143  1
  F  F0  1  -0.00000000  0.70319685  0.29680315  1
  F  F1  1  -0.00000000  0.29680315  0.70319685  1
  F  F2  1  0.50000000  0.04528462  0.33323063  1
  F  F3  1  0.50000000  0.95471538  0.66676937  1
  F  F4  1  0.50000000  0.33323063  0.04528462  1
  F  F5  1  0.50000000  0.66676937  0.95471538  1
  F  F6  1  0.50000000  0.50000000  0.50000000  1
loop_
_geom_bond_atom_site_label_1
_geom_bond_atom_site_label_2
_geom_bond_distance
_geom_bond_site_symmetry_2
F0 Sc0 2.026818 1_555
F0 Sc0 2.026818 1_455
F0 K0 3.143033 1_565
F1 Sc1 2.026818 1_555
F1 Sc1 2.026818 1_455
F1 K0 3.143033 1_556
F2 Sc1 2.099878 1_555
F2 Sc0 2.121084 1_545
F2 K0 2.820583 1_555
F2 K0 2.820583 1_655
F3 Sc0 2.099878 1_555
F3 Sc1 2.121084 1_565
F3 K0 2.820583 1_666
F3 K0 2.820583 1_566
F4 Sc0 2.099877 1_555
F4 Sc1 2.121084 1_554
F4 K0 2.820583 1_655
F4 K0 2.820583 1_555
F5 Sc1 2.099877 1_555
F5 Sc0 2.121084 1_556
F5 K0 2.820583 1_566
F5 K0 2.820583 1_666
F6 Sc1 2.048260 1_555
F6 Sc0 2.048260 1_555
