# generated using pymatgen
data_Na2NbInSi(PO6)2
_symmetry_space_group_name_H-M   'P 1'
_cell_length_a   8.98921612
_cell_length_b   8.98921581
_cell_length_c   22.87024239
_cell_angle_alpha   89.89033028
_cell_angle_beta   90.10966971
_cell_angle_gamma   119.77084693
_symmetry_Int_Tables_number   1
_chemical_formula_structural   Na2NbInSi(PO6)2
_chemical_formula_sum   'Na12 Nb6 In6 Si6 P12 O72'
_cell_volume   1604.13963303
_cell_formula_units_Z   6
loop_
 _symmetry_equiv_pos_site_id
 _symmetry_equiv_pos_as_xyz
  1  'x, y, z'
loop_
 _atom_site_type_symbol
 _atom_site_label
 _atom_site_symmetry_multiplicity
 _atom_site_fract_x
 _atom_site_fract_y
 _atom_site_fract_z
 _atom_site_occupancy
  Na  Na0  1  0.99025420  0.62933926  0.24702229  1
  Na  Na1  1  0.37066074  0.00974580  0.74702229  1
  Na  Na2  1  0.65668629  0.96516234  0.58335521  1
  Na  Na3  1  0.03483766  0.34331371  0.08335521  1
  Na  Na4  1  0.97828536  0.67701332  0.91690544  1
  Na  Na5  1  0.32298668  0.02171464  0.41690544  1
  Na  Na6  1  -0.00074815  0.99576085  0.49587814  1
  Na  Na7  1  0.00423915  0.00074815  0.99587814  1
  Na  Na8  1  0.66959695  0.32895176  0.82936542  1
  Na  Na9  1  0.67104824  0.33040305  0.32936542  1
  Na  Na10  1  0.34547470  0.67613302  0.16229007  1
  Na  Na11  1  0.32386698  0.65452530  0.66229007  1
  Nb  Nb0  1  0.00339387  0.00030667  0.64638330  1
  Nb  Nb1  1  0.99969333  0.99660613  0.14638330  1
  Nb  Nb2  1  0.66177203  0.33099695  0.97976918  1
  Nb  Nb3  1  0.66900305  0.33822797  0.47976918  1
  Nb  Nb4  1  0.32811315  0.65865519  0.31322619  1
  Nb  Nb5  1  0.34134481  0.67188685  0.81322619  1
  In  In0  1  0.99294326  0.00107229  0.35156243  1
  In  In1  1  -0.00107229  0.00705674  0.85156243  1
  In  In2  1  0.66957513  0.33394868  0.68459024  1
  In  In3  1  0.66605132  0.33042487  0.18459024  1
  In  In4  1  0.33512901  0.67327573  0.01812686  1
  In  In5  1  0.32672427  0.66487099  0.51812686  1
  Si  Si0  1  0.99645901  0.28902299  0.25071919  1
  Si  Si1  1  0.71097701  0.00354099  0.75071919  1
  Si  Si2  1  0.37344438  0.03933260  0.58432521  1
  Si  Si3  1  0.96066740  0.62655562  0.08432521  1
  Si  Si4  1  0.33213038  0.96251322  0.91715907  1
  Si  Si5  1  0.03748678  0.66786962  0.41715907  1
  P  P0  1  0.29310654  0.00144922  0.25199148  1
  P  P1  1  0.70695769  0.71029633  0.25029571  1
  P  P2  1  0.28970367  0.29304231  0.75029571  1
  P  P3  1  0.99855078  0.70689346  0.75199148  1
  P  P4  1  0.96086644  0.33413478  0.58383953  1
  P  P5  1  0.66791106  0.62543163  0.58379715  1
  P  P6  1  0.66586522  0.03913356  0.08383953  1
  P  P7  1  0.37456837  0.33208894  0.08379715  1
  P  P8  1  0.62417752  0.66528151  0.91777182  1
  P  P9  1  0.04326503  0.37504772  0.91838358  1
  P  P10  1  0.62495228  0.95673497  0.41838358  1
  P  P11  1  0.33471849  0.37582248  0.41777182  1
  O  O0  1  0.21625670  0.02338318  0.30738024  1
  O  O1  1  0.82038928  0.78174888  0.30308579  1
  O  O2  1  0.97226373  0.18141478  0.30699308  1
  O  O3  1  0.21825112  0.17961072  0.80308579  1
  O  O4  1  0.97661682  0.78374330  0.80738024  1
  O  O5  1  0.81858522  0.02773627  0.80699308  1
  O  O6  1  0.80175391  0.97338960  0.69122552  1
  O  O7  1  0.17058850  0.19888264  0.69545967  1
  O  O8  1  0.03147941  0.83108452  0.69809074  1
  O  O9  1  0.80111736  0.82941150  0.19545967  1
  O  O10  1  0.02661040  0.19824609  0.19122552  1
  O  O11  1  0.16891548  0.96852059  0.19809074  1
  O  O12  1  0.88214372  0.36256876  0.63864998  1
  O  O13  1  0.48631128  0.12021364  0.64198139  1
  O  O14  1  0.64178489  0.52027190  0.63866603  1
  O  O15  1  0.87978636  0.51368872  0.14198139  1
  O  O16  1  0.63743124  0.11785628  0.13864998  1
  O  O17  1  0.47972810  0.35821511  0.13866603  1
  O  O18  1  0.46596647  0.30404854  0.02930695  1
  O  O19  1  0.83434777  0.52976696  0.02559365  1
  O  O20  1  0.69542804  0.16132316  0.03002573  1
  O  O21  1  0.47023304  0.16565223  0.52559365  1
  O  O22  1  0.69595146  0.53403353  0.52930695  1
  O  O23  1  0.83867684  0.30457196  0.53002573  1
  O  O24  1  0.54441196  0.69029445  0.97187119  1
  O  O25  1  0.14228576  0.45010662  0.97464932  1
  O  O26  1  0.29123293  0.83893248  0.97164134  1
  O  O27  1  0.54989338  0.85771424  0.47464932  1
  O  O28  1  0.30970555  0.45558804  0.47187119  1
  O  O29  1  0.16106752  0.70876707  0.47164134  1
  O  O30  1  0.13518011  0.63677077  0.35743995  1
  O  O31  1  0.50271813  0.86589417  0.36492493  1
  O  O32  1  0.36135508  0.49329831  0.36265833  1
  O  O33  1  0.13410583  0.49728187  0.86492493  1
  O  O34  1  0.36322923  0.86481989  0.85743995  1
  O  O35  1  0.50670169  0.63864492  0.86265833  1
  O  O36  1  0.02257661  0.83669380  0.40895250  1
  O  O37  1  0.80356735  0.98542553  0.41232419  1
  O  O38  1  0.18707356  0.19407992  0.41072953  1
  O  O39  1  0.01457447  0.19643265  0.91232419  1
  O  O40  1  0.16330620  0.97742339  0.90895250  1
  O  O41  1  0.80592008  0.81292644  0.91072953  1
  O  O42  1  0.96183913  0.15838988  0.58885314  1
  O  O43  1  0.18242635  0.02630939  0.59128997  1
  O  O44  1  0.83645865  0.80809242  0.58941164  1
  O  O45  1  0.97369061  0.81757365  0.09128997  1
  O  O46  1  0.84161012  0.03816087  0.08885314  1
  O  O47  1  0.19190758  0.16354135  0.08941164  1
  O  O48  1  0.66667586  0.15666837  0.74574039  1
  O  O49  1  0.46936475  0.31625382  0.74209133  1
  O  O50  1  0.84458010  0.52986994  0.74303521  1
  O  O51  1  0.68374618  0.53063525  0.24209133  1
  O  O52  1  0.84333163  0.33332414  0.24574039  1
  O  O53  1  0.47013006  0.15541990  0.24303521  1
  O  O54  1  0.63736068  0.49534527  0.92258938  1
  O  O55  1  0.86306457  0.37064512  0.92311827  1
  O  O56  1  0.50988200  0.14947808  0.92444153  1
  O  O57  1  0.62935488  0.13693543  0.42311827  1
  O  O58  1  0.50465473  0.36263932  0.42258938  1
  O  O59  1  0.85052192  0.49011800  0.42444153  1
  O  O60  1  0.34353551  0.48234139  0.07573566  1
  O  O61  1  0.14468020  0.63949059  0.07855117  1
  O  O62  1  0.51923084  0.86083787  0.07706741  1
  O  O63  1  0.36050941  0.85531980  0.57855117  1
  O  O64  1  0.51765861  0.65646449  0.57573566  1
  O  O65  1  0.13916213  0.48076916  0.57706741  1
  O  O66  1  0.30131443  0.82891626  0.25565252  1
  O  O67  1  0.52953013  0.70196565  0.25644845  1
  O  O68  1  0.18004178  0.48527127  0.25756638  1
  O  O69  1  0.29803435  0.47046987  0.75644845  1
  O  O70  1  0.17108374  0.69868557  0.75565252  1
  O  O71  1  0.51472873  0.81995822  0.75756638  1
loop_
_geom_bond_atom_site_label_1
_geom_bond_atom_site_label_2
_geom_bond_distance
_geom_bond_site_symmetry_2
Na0 O52 2.309966 1_555
Na0 O51 2.441914 1_555
Na0 O66 2.468555 1_655
Na0 O15 2.610212 1_555
Na0 O68 2.614811 1_655
Na0 O1 2.818564 1_555
Na0 O30 2.824948 1_655
Na0 O11 2.873837 1_655
Na1 O48 2.309966 1_555
Na1 O49 2.441913 1_555
Na1 O70 2.468555 1_545
Na1 O13 2.610212 1_555
Na1 O71 2.614811 1_545
Na1 O3 2.818564 1_555
Na1 O34 2.824948 1_545
Na1 O8 2.873838 1_545
Na2 O63 2.337535 1_555
Na2 O42 2.413564 1_565
Na2 O64 2.418609 1_555
Na2 O44 2.624599 1_555
Na2 O27 2.667319 1_555
Na2 O6 2.772147 1_555
Na2 O13 2.867201 1_565
Na2 O23 2.917078 1_565
Na3 O61 2.337535 1_555
Na3 O46 2.413563 1_455
Na3 O60 2.418610 1_555
Na3 O47 2.624599 1_555
Na3 O25 2.667319 1_554
Na3 O10 2.772147 1_555
Na3 O15 2.867201 1_455
Na3 O20 2.917078 1_455
Na4 O40 2.372927 1_655
Na4 O41 2.406605 1_555
Na4 O55 2.417421 1_555
Na4 O54 2.665803 1_555
Na4 O4 2.683285 1_555
Na4 O26 2.743487 1_655
Na4 O19 2.811394 1_556
Na4 O33 2.871692 1_655
Na5 O36 2.372927 1_545
Na5 O38 2.406605 1_555
Na5 O57 2.417421 1_555
Na5 O58 2.665803 1_555
Na5 O0 2.683285 1_555
Na5 O29 2.743487 1_545
Na5 O21 2.811394 1_555
Na5 O31 2.871692 1_545
Na6 O36 2.520106 1_555
Na6 O37 2.565140 1_455
Na6 O38 2.613663 1_565
Na6 O43 2.662277 1_565
Na6 O44 2.666440 1_455
Na6 O42 2.697141 1_465
Na7 O40 2.520106 1_545
Na7 O39 2.565140 1_555
Na7 O41 2.613663 1_445
Na7 O45 2.662277 1_446
Na7 O47 2.666440 1_556
Na7 O46 2.697142 1_456
Na8 O48 2.455128 1_555
Na8 O50 2.609874 1_555
Na8 O49 2.649491 1_555
Na8 O56 2.662796 1_555
Na8 O55 2.665316 1_555
Na8 O54 2.704051 1_555
Na9 O52 2.455128 1_555
Na9 O53 2.609874 1_555
Na9 O51 2.649491 1_555
Na9 O59 2.662796 1_555
Na9 O57 2.665316 1_555
Na9 O58 2.704051 1_555
Na10 O62 2.533602 1_555
Na10 O61 2.536327 1_555
Na10 O60 2.633705 1_555
Na10 O67 2.652417 1_555
Na10 O66 2.675607 1_555
Na10 O68 2.714311 1_555
Na11 O65 2.533602 1_555
Na11 O63 2.536327 1_555
Na11 O64 2.633705 1_555
Na11 O69 2.652417 1_555
Na11 O70 2.675607 1_555
Na11 O71 2.714311 1_555
Nb0 O43 1.966047 1_555
Nb0 O6 1.991582 1_445
Nb0 O7 2.010467 1_555
Nb0 O8 2.037036 1_545
Nb0 O44 2.088371 1_445
Nb0 O42 2.099559 1_455
Nb1 O45 1.966047 1_555
Nb1 O10 1.991582 1_665
Nb1 O9 2.010467 1_555
Nb1 O11 2.037036 1_655
Nb1 O47 2.088371 1_665
Nb1 O46 2.099559 1_565
Nb2 O56 1.979066 1_555
Nb2 O19 1.986411 1_556
Nb2 O18 2.005862 1_556
Nb2 O20 2.046741 1_556
Nb2 O54 2.062601 1_555
Nb2 O55 2.108693 1_555
Nb3 O59 1.979066 1_555
Nb3 O21 1.986411 1_555
Nb3 O22 2.005862 1_555
Nb3 O23 2.046741 1_555
Nb3 O58 2.062601 1_555
Nb3 O57 2.108693 1_555
Nb4 O30 1.932919 1_555
Nb4 O68 1.939647 1_555
Nb4 O32 2.002552 1_555
Nb4 O67 2.103088 1_555
Nb4 O31 2.104663 1_555
Nb4 O66 2.119311 1_555
Nb5 O34 1.932919 1_555
Nb5 O71 1.939647 1_555
Nb5 O35 2.002552 1_555
Nb5 O69 2.103088 1_555
Nb5 O33 2.104663 1_555
Nb5 O70 2.119311 1_555
In0 O2 1.998463 1_555
In0 O36 2.087870 1_645
In0 O1 2.118257 1_545
In0 O37 2.149271 1_545
In0 O0 2.167518 1_655
In0 O38 2.209026 1_655
In1 O5 1.998464 1_455
In1 O40 2.087870 1_545
In1 O3 2.118258 1_555
In1 O39 2.149271 1_555
In1 O4 2.167518 1_445
In1 O41 2.209026 1_445
In2 O13 2.052502 1_555
In2 O12 2.083218 1_555
In2 O14 2.092508 1_555
In2 O48 2.108671 1_555
In2 O50 2.147737 1_555
In2 O49 2.172029 1_555
In3 O15 2.052502 1_555
In3 O16 2.083218 1_555
In3 O17 2.092508 1_555
In3 O52 2.108671 1_555
In3 O53 2.147737 1_555
In3 O51 2.172029 1_555
In4 O26 2.019729 1_554
In4 O24 2.098320 1_554
In4 O61 2.103319 1_555
In4 O25 2.136775 1_554
In4 O62 2.151236 1_555
In4 O60 2.192535 1_555
In5 O29 2.019729 1_555
In5 O28 2.098320 1_555
In5 O63 2.103319 1_555
In5 O27 2.136775 1_555
In5 O65 2.151236 1_555
In5 O64 2.192535 1_555
O0 P0 1.503444 1_555
O1 P1 1.502583 1_555
O2 Si0 1.557800 1_555
O3 P2 1.502583 1_555
O4 P3 1.503444 1_555
O5 Si1 1.557800 1_555
O6 Si1 1.678083 1_565
O7 P2 1.592056 1_555
O8 P3 1.587922 1_455
O9 P1 1.592056 1_555
O10 Si0 1.678083 1_455
O11 P0 1.587922 1_565
O12 P4 1.523708 1_555
O13 Si2 1.600854 1_555
O14 P5 1.516430 1_555
O15 Si3 1.600854 1_555
O16 P6 1.523708 1_555
O17 P7 1.516430 1_555
O18 P7 1.581885 1_555
O19 Si3 1.693551 1_555
O20 P6 1.580505 1_555
O21 Si2 1.693551 1_555
O22 P5 1.581885 1_555
O23 P4 1.580505 1_555
O24 P8 1.503356 1_555
O25 P9 1.518540 1_555
O26 Si4 1.585149 1_555
O27 P10 1.518540 1_555
O28 P11 1.503356 1_555
O29 Si5 1.585149 1_555
O30 Si5 1.721801 1_555
O31 P10 1.573715 1_555
O32 P11 1.583104 1_555
O33 P9 1.573715 1_555
O34 Si4 1.721801 1_555
O35 P8 1.583104 1_555
O36 Si5 1.599093 1_555
O37 P10 1.501064 1_555
O38 P11 1.517700 1_555
O39 P9 1.501064 1_555
O40 Si4 1.599093 1_555
O41 P8 1.517700 1_555
O42 P4 1.588093 1_555
O43 Si2 1.669991 1_555
O44 P5 1.593008 1_555
O45 Si3 1.669991 1_555
O46 P6 1.588093 1_555
O47 P7 1.593008 1_555
O48 Si1 1.615513 1_555
O49 P2 1.534072 1_555
O50 P3 1.517504 1_555
O51 P1 1.534072 1_555
O52 Si0 1.615513 1_555
O53 P0 1.517504 1_555
O54 P8 1.593363 1_555
O55 P9 1.604442 1_655
O56 Si4 1.654910 1_545
O57 P10 1.604442 1_545
O58 P11 1.593363 1_555
O59 Si5 1.654910 1_655
O60 P7 1.519568 1_555
O61 Si3 1.605268 1_455
O62 P6 1.494130 1_565
O63 Si2 1.605267 1_565
O64 P5 1.519568 1_555
O65 P4 1.494130 1_455
O66 P0 1.590904 1_565
O67 P1 1.565705 1_555
O68 Si0 1.723081 1_455
O69 P2 1.565705 1_555
O70 P3 1.590904 1_455
O71 Si1 1.723081 1_565
