# generated using pymatgen
data_MgMn4Cr2O12
_symmetry_space_group_name_H-M   'P 1'
_cell_length_a   5.10500479
_cell_length_b   5.10501112
_cell_length_c   10.14432741
_cell_angle_alpha   90.49065850
_cell_angle_beta   89.50914341
_cell_angle_gamma   120.23629375
_symmetry_Int_Tables_number   1
_chemical_formula_structural   MgMn4Cr2O12
_chemical_formula_sum   'Mg1 Mn4 Cr2 O12'
_cell_volume   228.39496961
_cell_formula_units_Z   1
loop_
 _symmetry_equiv_pos_site_id
 _symmetry_equiv_pos_as_xyz
  1  'x, y, z'
loop_
 _atom_site_type_symbol
 _atom_site_label
 _atom_site_symmetry_multiplicity
 _atom_site_fract_x
 _atom_site_fract_y
 _atom_site_fract_z
 _atom_site_occupancy
  Mg  Mg0  1  0.16581300  0.66580800  0.75000300  1
  Mn  Mn0  1  0.16679900  0.83840000  0.48693100  1
  Mn  Mn1  1  0.33840000  0.66679500  0.01308500  1
  Mn  Mn2  1  0.66663600  0.33463800  0.00078900  1
  Mn  Mn3  1  0.83464500  0.16664200  0.49922400  1
  Cr  Cr0  1  0.99928000  0.99907500  0.00233400  1
  Cr  Cr1  1  0.49905500  0.49928500  0.49764200  1
  O  O0  1  0.99244800  0.65622000  0.09827600  1
  O  O1  1  0.01185300  0.35589400  0.89965300  1
  O  O2  1  0.15620700  0.49244900  0.40172700  1
  O  O3  1  0.47923300  0.83301200  0.59990300  1
  O  O4  1  0.15655400  0.15567200  0.59603600  1
  O  O5  1  0.34305500  0.33691400  0.09799800  1
  O  O6  1  0.65565000  0.65652800  0.90396200  1
  O  O7  1  0.33302700  0.97923300  0.90009400  1
  O  O8  1  0.83694000  0.84308600  0.40199800  1
  O  O9  1  0.50824000  0.16276200  0.40252800  1
  O  O10  1  0.85588900  0.51185800  0.60034900  1
  O  O11  1  0.66277900  0.00823100  0.09746800  1
loop_
_geom_bond_atom_site_label_1
_geom_bond_atom_site_label_2
_geom_bond_distance
_geom_bond_site_symmetry_2
Mg0 O1 2.047873 1_555
Mg0 O10 2.047939 1_455
Mg0 O7 2.052314 1_555
Mg0 O3 2.052358 1_555
Mn0 O9 1.898710 1_565
Mn0 O8 1.909009 1_455
Mn0 O2 1.935855 1_555
Mn0 O4 1.976034 1_565
Mn0 O3 1.983463 1_555
Mn0 O10 1.989642 1_455
Mn1 O11 1.898648 1_565
Mn1 O5 1.908942 1_555
Mn1 O0 1.935834 1_455
Mn1 O6 1.976086 1_554
Mn1 O7 1.983558 1_554
Mn1 O1 1.989724 1_554
Mn2 O0 1.920917 1_555
Mn2 O5 1.921590 1_555
Mn2 O11 1.932215 1_555
Mn2 O6 1.946698 1_554
Mn2 O1 1.987087 1_654
Mn2 O7 2.030221 1_544
Mn3 O2 1.920910 1_655
Mn3 O8 1.921614 1_545
Mn3 O9 1.932246 1_555
Mn3 O4 1.946667 1_655
Mn3 O10 1.987054 1_555
Mn3 O3 2.030192 1_545
Cr0 O11 1.983988 1_565
Cr0 O5 1.987048 1_665
Cr0 O0 1.994757 1_555
Cr0 O6 2.010405 1_554
Cr0 O7 2.032377 1_654
Cr0 O1 2.078656 1_664
Cr1 O9 1.984061 1_555
Cr1 O8 1.987101 1_555
Cr1 O2 1.994582 1_555
Cr1 O4 2.010372 1_555
Cr1 O3 2.032353 1_555
Cr1 O10 2.078858 1_555
