# generated using pymatgen
data_Na14Zn5Si6Ge3(SO8)6
_symmetry_space_group_name_H-M   'P 1'
_cell_length_a   18.13957612
_cell_length_b   8.99229199
_cell_length_c   21.96434189
_cell_angle_alpha   90.27703433
_cell_angle_beta   89.49105504
_cell_angle_gamma   120.17325845
_symmetry_Int_Tables_number   1
_chemical_formula_structural   Na14Zn5Si6Ge3(SO8)6
_chemical_formula_sum   'Na42 Zn15 Si18 Ge9 S18 O144'
_cell_volume   3097.19333981
_cell_formula_units_Z   3
loop_
 _symmetry_equiv_pos_site_id
 _symmetry_equiv_pos_as_xyz
  1  'x, y, z'
loop_
 _atom_site_type_symbol
 _atom_site_label
 _atom_site_symmetry_multiplicity
 _atom_site_fract_x
 _atom_site_fract_y
 _atom_site_fract_z
 _atom_site_occupancy
  Na  Na0  1  0.19398653  0.36539318  0.24939758  1
  Na  Na1  1  0.68799701  0.35979825  0.24821876  1
  Na  Na2  1  0.99693122  0.63775465  0.25230839  1
  Na  Na3  1  0.49447182  0.62726892  0.24429216  1
  Na  Na4  1  0.32065307  0.63530445  0.74706110  1
  Na  Na5  1  0.82060224  0.63395628  0.73807342  1
  Na  Na6  1  0.18886055  0.02123042  0.74801414  1
  Na  Na7  1  0.69180512  0.02336251  0.74866185  1
  Na  Na8  1  0.15204735  0.32924478  0.57727455  1
  Na  Na9  1  0.66190657  0.34762792  0.57941013  1
  Na  Na10  1  0.01066015  0.69304374  0.58005267  1
  Na  Na11  1  0.51483182  0.69290755  0.58228352  1
  Na  Na12  1  0.32403912  0.96877405  0.59038736  1
  Na  Na13  1  0.82370042  0.96168214  0.59058381  1
  Na  Na14  1  0.15425646  0.97233530  0.07991746  1
  Na  Na15  1  0.64871511  0.95937549  0.07335901  1
  Na  Na16  1  0.82272280  0.67983561  0.08960996  1
  Na  Na17  1  0.01590412  0.33643724  0.08179310  1
  Na  Na18  1  0.51747201  0.34476844  0.08951541  1
  Na  Na19  1  0.48707510  0.67147097  0.92158001  1
  Na  Na20  1  0.98920866  0.67818933  0.91690348  1
  Na  Na21  1  0.84960812  0.03662478  0.90836219  1
  Na  Na22  1  0.16373776  0.28425479  0.90962808  1
  Na  Na23  1  0.66298535  0.27748681  0.91495810  1
  Na  Na24  1  0.48858667  0.30476109  0.41803115  1
  Na  Na25  1  0.98451981  0.29768594  0.42110289  1
  Na  Na26  1  0.16406264  0.05217945  0.41483731  1
  Na  Na27  1  0.66577251  0.05195132  0.41515749  1
  Na  Na28  1  0.35311008  0.66287034  0.40704220  1
  Na  Na29  1  0.85178112  0.66177785  0.41561559  1
  Na  Na30  1  0.00387753  0.99951895  0.50009821  1
  Na  Na31  1  0.51139902  0.01619004  0.49773600  1
  Na  Na32  1  0.00646077  0.00313305  0.99683787  1
  Na  Na33  1  0.49679360  0.99422425  0.99890458  1
  Na  Na34  1  0.33703155  0.31172490  0.83045120  1
  Na  Na35  1  0.83130739  0.31972766  0.82627791  1
  Na  Na36  1  0.32729701  0.32661063  0.32562662  1
  Na  Na37  1  0.82350066  0.32392915  0.32876804  1
  Na  Na38  1  0.18526066  0.67695557  0.16265875  1
  Na  Na39  1  0.66441143  0.66712306  0.16287197  1
  Na  Na40  1  0.16050170  0.66441320  0.66601050  1
  Na  Na41  1  0.66909514  0.66796427  0.66339304  1
  Zn  Zn0  1  0.00856433  0.00708937  0.34513274  1
  Zn  Zn1  1  0.50915506  0.00865510  0.34292622  1
  Zn  Zn2  1  0.00651132  0.01468040  0.84196550  1
  Zn  Zn3  1  0.50482993  0.01230086  0.84831716  1
  Zn  Zn4  1  0.32334150  0.30490662  0.68631119  1
  Zn  Zn5  1  0.82094711  0.31644056  0.68252381  1
  Zn  Zn6  1  0.32699180  0.34507071  0.18401632  1
  Zn  Zn7  1  0.82018924  0.33063369  0.18542916  1
  Zn  Zn8  1  0.80876062  0.29023213  0.98490170  1
  Zn  Zn9  1  0.31298307  0.32697485  0.48334503  1
  Zn  Zn10  1  0.80849165  0.34766917  0.49155432  1
  Zn  Zn11  1  0.17129610  0.66650671  0.01550465  1
  Zn  Zn12  1  0.65473906  0.65666085  0.01863062  1
  Zn  Zn13  1  0.16274328  0.66574481  0.51518368  1
  Zn  Zn14  1  0.67256662  0.66585483  0.51978201  1
  Si  Si0  1  0.15472247  0.99677302  0.25422920  1
  Si  Si1  1  0.65223870  0.99094767  0.25396886  1
  Si  Si2  1  0.35993412  0.72323689  0.25261985  1
  Si  Si3  1  0.85868200  0.71855484  0.25179427  1
  Si  Si4  1  0.14602361  0.30403748  0.75160933  1
  Si  Si5  1  0.64881007  0.30758975  0.75723871  1
  Si  Si6  1  0.35975910  0.00503889  0.75287411  1
  Si  Si7  1  0.85897109  0.00946768  0.75340825  1
  Si  Si8  1  0.17903212  0.02578866  0.58458915  1
  Si  Si9  1  0.67620007  0.02655230  0.58589742  1
  Si  Si10  1  0.83984830  0.64205417  0.58704683  1
  Si  Si11  1  0.47077854  0.61289224  0.08398790  1
  Si  Si12  1  0.18064166  0.33367170  0.08793536  1
  Si  Si13  1  0.67682278  0.32519504  0.08614250  1
  Si  Si14  1  0.17042754  0.95831222  0.92015696  1
  Si  Si15  1  0.66453652  0.95215420  0.91537293  1
  Si  Si16  1  0.16459904  0.38072892  0.41543284  1
  Si  Si17  1  0.66335387  0.37780151  0.41483214  1
  Ge  Ge0  1  0.00059040  0.00966306  0.65081349  1
  Ge  Ge1  1  0.51052900  0.03029601  0.65907109  1
  Ge  Ge2  1  0.01153745  0.99646072  0.15797367  1
  Ge  Ge3  1  0.50706731  0.96075994  0.14966364  1
  Ge  Ge4  1  0.31914499  0.31030928  0.99110838  1
  Ge  Ge5  1  0.18668387  0.68888152  0.31012724  1
  Ge  Ge6  1  0.68336707  0.67918122  0.30800909  1
  Ge  Ge7  1  0.18011051  0.68787865  0.81052594  1
  Ge  Ge8  1  0.68009114  0.68393620  0.81016612  1
  S  S0  1  0.00166475  0.29533557  0.24943068  1
  S  S1  1  0.50170260  0.29712791  0.25165892  1
  S  S2  1  0.00436993  0.70602628  0.75206408  1
  S  S3  1  0.50233343  0.70631455  0.74993184  1
  S  S4  1  0.47629436  0.32596657  0.58416490  1
  S  S5  1  0.97895932  0.32868313  0.58410625  1
  S  S6  1  0.33754720  0.63559109  0.58378888  1
  S  S7  1  0.97892081  0.62915487  0.08438358  1
  S  S8  1  0.33415582  0.04291682  0.08413210  1
  S  S9  1  0.84006648  0.04426823  0.08374367  1
  S  S10  1  0.31314069  0.66273369  0.91556569  1
  S  S11  1  0.81406221  0.66592773  0.91760629  1
  S  S12  1  0.02080045  0.38065066  0.91728469  1
  S  S13  1  0.51628709  0.37250703  0.91681947  1
  S  S14  1  0.31371061  0.96317510  0.41733422  1
  S  S15  1  0.81320604  0.96252740  0.41532395  1
  S  S16  1  0.01955856  0.66184124  0.41521977  1
  S  S17  1  0.51868348  0.66021974  0.41864908  1
  O  O0  1  0.11448018  0.03820100  0.31265010  1
  O  O1  1  0.61446127  0.03429889  0.31315490  1
  O  O2  1  0.40861895  0.80595078  0.31509616  1
  O  O3  1  0.91112820  0.80353266  0.31257213  1
  O  O4  1  0.49278420  0.20442283  0.30902355  1
  O  O5  1  0.98825390  0.19799256  0.30554570  1
  O  O6  1  0.11462493  0.18597692  0.81173491  1
  O  O7  1  0.61132620  0.18274398  0.81428683  1
  O  O8  1  0.48844051  0.77575702  0.80641914  1
  O  O9  1  0.99090548  0.78055521  0.80857540  1
  O  O10  1  0.40792253  0.99869623  0.81097534  1
  O  O11  1  0.90407583  0.00999572  0.81610324  1
  O  O12  1  0.40482668  0.96568030  0.68882350  1
  O  O13  1  0.90431729  0.96647516  0.69405155  1
  O  O14  1  0.08346641  0.20709376  0.69135227  1
  O  O15  1  0.58923027  0.22411196  0.69390503  1
  O  O16  1  0.01942303  0.82129185  0.69769752  1
  O  O17  1  0.51730127  0.82676675  0.69555127  1
  O  O18  1  0.40980818  0.84982029  0.19218175  1
  O  O19  1  0.90817909  0.84357833  0.18868377  1
  O  O20  1  0.01646458  0.20584572  0.19425476  1
  O  O21  1  0.51429782  0.21225958  0.19760675  1
  O  O22  1  0.08582496  0.94621026  0.19365216  1
  O  O23  1  0.58677312  0.94070376  0.19289951  1
  O  O24  1  0.43351979  0.35191253  0.63625505  1
  O  O25  1  0.93615173  0.34890499  0.63670282  1
  O  O26  1  0.24250923  0.10158643  0.64167724  1
  O  O27  1  0.73671554  0.10050169  0.64412636  1
  O  O28  1  0.33017530  0.53362630  0.63795854  1
  O  O29  1  0.82631724  0.51922503  0.64390194  1
  O  O30  1  0.43370982  0.49539237  0.14300978  1
  O  O31  1  0.93762445  0.52432159  0.13868618  1
  O  O32  1  0.32036102  0.12212222  0.13675254  1
  O  O33  1  0.83263769  0.13628385  0.13599120  1
  O  O34  1  0.23123059  0.35800645  0.14858185  1
  O  O35  1  0.74029150  0.37531396  0.14303078  1
  O  O36  1  0.22097834  0.28033823  0.02688878  1
  O  O37  1  0.70875434  0.26867788  0.02480294  1
  O  O38  1  0.40751022  0.51194044  0.02068660  1
  O  O39  1  0.93000776  0.54972995  0.02796401  1
  O  O40  1  0.34692840  0.15359734  0.02619977  1
  O  O41  1  0.85402084  0.14491572  0.02570532  1
  O  O42  1  0.21324466  0.14305602  0.52257759  1
  O  O43  1  0.70865174  0.14655324  0.52456663  1
  O  O44  1  0.34976301  0.55660447  0.52712281  1
  O  O45  1  0.86493221  0.57728608  0.52381924  1
  O  O46  1  0.42843299  0.30127849  0.52660640  1
  O  O47  1  0.93268637  0.30645427  0.52628886  1
  O  O48  1  0.27144970  0.68008003  0.96996089  1
  O  O49  1  0.77183231  0.68455678  0.97191666  1
  O  O50  1  0.06914435  0.45316232  0.97432046  1
  O  O51  1  0.56491997  0.44467559  0.97388230  1
  O  O52  1  0.15363235  0.84299883  0.97996520  1
  O  O53  1  0.65683835  0.84607508  0.97597294  1
  O  O54  1  0.27258921  0.86206778  0.47249887  1
  O  O55  1  0.77311195  0.86360808  0.47099672  1
  O  O56  1  0.15317831  0.46470357  0.47749327  1
  O  O57  1  0.64776381  0.45905232  0.47580977  1
  O  O58  1  0.06935924  0.68740004  0.47138916  1
  O  O59  1  0.56960174  0.68295331  0.47356005  1
  O  O60  1  0.06565770  0.64875551  0.36029157  1
  O  O61  1  0.56056452  0.64224684  0.36251494  1
  O  O62  1  0.25618117  0.88100492  0.36190404  1
  O  O63  1  0.75593290  0.87765604  0.36008407  1
  O  O64  1  0.17916584  0.51347221  0.35405846  1
  O  O65  1  0.67982398  0.51054455  0.35330037  1
  O  O66  1  0.06722821  0.49141831  0.86378952  1
  O  O67  1  0.56190435  0.48760625  0.86379839  1
  O  O68  1  0.18284441  0.86259062  0.85608277  1
  O  O69  1  0.67837352  0.85023463  0.85309679  1
  O  O70  1  0.25909203  0.63684954  0.85859223  1
  O  O71  1  0.76061884  0.64003709  0.86066807  1
  O  O72  1  0.00745361  0.81390662  0.41307987  1
  O  O73  1  0.50613656  0.81214414  0.41654894  1
  O  O74  1  0.39727293  0.97583927  0.41131073  1
  O  O75  1  0.89744543  0.97498189  0.40957839  1
  O  O76  1  0.07819554  0.19049958  0.41118189  1
  O  O77  1  0.57783199  0.18676024  0.41006895  1
  O  O78  1  0.00861493  0.20373976  0.91345642  1
  O  O79  1  0.50584919  0.19947045  0.91241703  1
  O  O80  1  0.08694547  0.98208542  0.91358314  1
  O  O81  1  0.57869914  0.96799616  0.91260465  1
  O  O82  1  0.39990709  0.80776863  0.91110891  1
  O  O83  1  0.90033593  0.82120669  0.91319009  1
  O  O84  1  0.48204573  0.16158988  0.58950047  1
  O  O85  1  0.98684081  0.16637279  0.58783129  1
  O  O86  1  0.08544480  0.02019744  0.59614242  1
  O  O87  1  0.57783582  0.01809750  0.59761639  1
  O  O88  1  0.41487768  0.81147362  0.58551268  1
  O  O89  1  0.92698574  0.84006774  0.59463491  1
  O  O90  1  0.48131671  0.81017713  0.08604347  1
  O  O91  1  0.98438492  0.80541135  0.08770188  1
  O  O92  1  0.41381248  0.03615372  0.08379718  1
  O  O93  1  0.91764369  0.02457813  0.08656182  1
  O  O94  1  0.08120774  0.14080787  0.09467883  1
  O  O95  1  0.57831863  0.14362860  0.09909737  1
  O  O96  1  0.34230156  0.16265891  0.74781648  1
  O  O97  1  0.84149424  0.16617442  0.74633867  1
  O  O98  1  0.24339427  0.34279557  0.74096482  1
  O  O99  1  0.74453120  0.34126027  0.74858013  1
  O  O100  1  0.42676640  0.53768488  0.73882482  1
  O  O101  1  0.93123521  0.53527515  0.74404908  1
  O  O102  1  0.34660305  0.53137840  0.24906259  1
  O  O103  1  0.84879290  0.52892092  0.24577091  1
  O  O104  1  0.42889161  0.32442346  0.24751311  1
  O  O105  1  0.92984878  0.32318367  0.23953209  1
  O  O106  1  0.24719871  0.15767021  0.24258664  1
  O  O107  1  0.74559871  0.15325898  0.24369453  1
  O  O108  1  0.31575709  0.49725736  0.91657056  1
  O  O109  1  0.82352749  0.51054526  0.91895253  1
  O  O110  1  0.43157462  0.36534762  0.91961400  1
  O  O111  1  0.93583059  0.36926649  0.91976754  1
  O  O112  1  0.25953439  0.16157401  0.92626891  1
  O  O113  1  0.75344571  0.14097286  0.91226668  1
  O  O114  1  0.32370524  0.13763588  0.41860617  1
  O  O115  1  0.82374947  0.13700002  0.41703091  1
  O  O116  1  0.25209359  0.36766292  0.41287485  1
  O  O117  1  0.75101984  0.36574872  0.41380378  1
  O  O118  1  0.43250374  0.49888759  0.42188759  1
  O  O119  1  0.93571620  0.50008400  0.41661371  1
  O  O120  1  0.16114663  0.48759297  0.07531719  1
  O  O121  1  0.66688248  0.49437247  0.07702097  1
  O  O122  1  0.06706572  0.65869019  0.08238851  1
  O  O123  1  0.56846234  0.65220311  0.07850396  1
  O  O124  1  0.25760148  0.86991488  0.07685507  1
  O  O125  1  0.76272015  0.87016940  0.08085511  1
  O  O126  1  0.16380136  0.82985303  0.57684791  1
  O  O127  1  0.65920533  0.83227321  0.57659158  1
  O  O128  1  0.25943703  0.65116222  0.58133833  1
  O  O129  1  0.75475465  0.66095116  0.58253019  1
  O  O130  1  0.06781359  0.47887384  0.58247877  1
  O  O131  1  0.56437071  0.47427555  0.58211153  1
  O  O132  1  0.15067459  0.80379357  0.26082612  1
  O  O133  1  0.64972206  0.80057217  0.26115308  1
  O  O134  1  0.26015388  0.69669490  0.25236364  1
  O  O135  1  0.75996823  0.69195259  0.25065448  1
  O  O136  1  0.08272401  0.46628245  0.25003242  1
  O  O137  1  0.58401458  0.47402403  0.25275025  1
  O  O138  1  0.15364958  0.49980731  0.76098352  1
  O  O139  1  0.65348106  0.49986684  0.76289308  1
  O  O140  1  0.08723671  0.70303602  0.75486857  1
  O  O141  1  0.58272086  0.69773382  0.75039514  1
  O  O142  1  0.25928646  0.82207681  0.75181263  1
  O  O143  1  0.75931529  0.82224355  0.75314613  1
loop_
_geom_bond_atom_site_label_1
_geom_bond_atom_site_label_2
_geom_bond_distance
_geom_bond_site_symmetry_2
Na0 O34 2.319762 1_555
Na0 O102 2.395401 1_555
Na0 O106 2.500062 1_555
Na0 O134 2.593321 1_555
Na0 O136 2.595492 1_555
Na0 O64 2.729312 1_555
Na0 O0 2.899165 1_555
Na1 O35 2.467453 1_555
Na1 O103 2.522347 1_555
Na1 O107 2.549151 1_555
Na1 O137 2.562404 1_555
Na1 O135 2.590041 1_555
Na1 O65 2.711509 1_555
Na1 O1 2.909061 1_555
Na1 O21 2.961338 1_555
Na2 O103 2.358212 1_555
Na2 O132 2.421308 1_655
Na2 O105 2.469687 1_555
Na2 O60 2.667508 1_655
Na2 O136 2.685514 1_655
Na2 O31 2.710349 1_555
Na2 O22 2.730411 1_655
Na2 O3 2.945074 1_555
Na3 O104 2.362242 1_555
Na3 O102 2.370659 1_555
Na3 O133 2.469382 1_555
Na3 O30 2.504820 1_555
Na3 O137 2.613337 1_555
Na3 O23 2.697202 1_555
Na3 O61 2.843918 1_555
Na4 O98 2.279248 1_555
Na4 O142 2.438521 1_555
Na4 O100 2.489810 1_555
Na4 O28 2.595881 1_555
Na4 O138 2.651779 1_555
Na4 O70 2.686062 1_555
Na4 O12 2.869784 1_555
Na4 O8 2.957841 1_555
Na5 O99 2.287826 1_555
Na5 O29 2.331642 1_555
Na5 O143 2.468280 1_555
Na5 O101 2.574484 1_555
Na5 O139 2.691407 1_555
Na5 O13 2.760278 1_555
Na5 O71 2.905842 1_555
Na6 O96 2.409567 1_555
Na6 O26 2.488647 1_555
Na6 O140 2.510964 1_545
Na6 O98 2.547573 1_555
Na6 O142 2.673799 1_545
Na6 O68 2.748237 1_545
Na6 O6 2.814018 1_555
Na6 O16 2.895985 1_545
Na7 O97 2.348947 1_555
Na7 O27 2.414707 1_555
Na7 O99 2.517570 1_555
Na7 O141 2.581916 1_545
Na7 O143 2.647695 1_545
Na7 O69 2.718101 1_545
Na7 O7 2.882493 1_555
Na7 O17 2.987708 1_545
Na8 O86 2.445737 1_555
Na8 O130 2.494031 1_555
Na8 O56 2.507447 1_555
Na8 O128 2.552344 1_555
Na8 O85 2.599689 1_455
Na8 O42 2.702583 1_555
Na8 O14 2.762245 1_555
Na9 O129 2.451457 1_555
Na9 O131 2.540420 1_555
Na9 O57 2.557052 1_555
Na9 O87 2.593133 1_555
Na9 O43 2.634646 1_555
Na9 O15 2.791424 1_555
Na9 O84 2.827798 1_555
Na9 O29 2.951240 1_555
Na10 O126 2.407747 1_555
Na10 O89 2.481675 1_455
Na10 O86 2.570304 1_565
Na10 O130 2.606862 1_555
Na10 O58 2.615487 1_555
Na10 O45 2.622290 1_455
Na10 O16 2.797581 1_555
Na10 O25 2.958788 1_455
Na11 O127 2.267420 1_555
Na11 O88 2.523770 1_555
Na11 O131 2.539386 1_555
Na11 O87 2.570677 1_565
Na11 O59 2.596723 1_555
Na11 O17 2.749387 1_555
Na11 O44 2.880408 1_555
Na11 O24 2.905317 1_555
Na12 O128 2.490796 1_555
Na12 O84 2.495071 1_565
Na12 O126 2.541515 1_555
Na12 O26 2.572065 1_565
Na12 O12 2.630739 1_555
Na12 O88 2.658151 1_555
Na12 O54 2.759551 1_555
Na12 O46 2.964827 1_565
Na13 O129 2.346906 1_555
Na13 O85 2.582914 1_565
Na13 O89 2.603379 1_555
Na13 O127 2.621923 1_555
Na13 O13 2.701813 1_555
Na13 O27 2.713630 1_565
Na13 O55 2.779577 1_555
Na14 O122 2.444357 1_555
Na14 O124 2.469764 1_555
Na14 O52 2.476894 1_554
Na14 O94 2.482252 1_565
Na14 O91 2.668517 1_455
Na14 O36 2.670003 1_565
Na14 O22 2.737526 1_555
Na14 O32 2.902084 1_565
Na15 O123 2.391577 1_555
Na15 O53 2.399870 1_554
Na15 O125 2.573346 1_555
Na15 O95 2.607746 1_565
Na15 O90 2.644144 1_555
Na15 O37 2.649992 1_565
Na15 O23 2.819008 1_555
Na16 O125 2.455713 1_555
Na16 O121 2.473724 1_555
Na16 O91 2.558492 1_555
Na16 O35 2.644814 1_555
Na16 O19 2.653464 1_555
Na16 O93 2.685823 1_565
Na16 O49 2.760315 1_554
Na17 O120 2.281326 1_555
Na17 O93 2.455018 1_455
Na17 O122 2.560299 1_555
Na17 O50 2.563424 1_554
Na17 O94 2.585247 1_555
Na17 O20 2.742489 1_555
Na17 O41 2.840192 1_455
Na17 O31 2.965120 1_455
Na18 O121 2.357063 1_555
Na18 O123 2.447198 1_555
Na18 O92 2.451166 1_555
Na18 O95 2.559009 1_555
Na18 O21 2.648717 1_555
Na18 O51 2.684111 1_554
Na18 O30 2.746879 1_555
Na19 O81 2.335696 1_555
Na19 O110 2.409737 1_555
Na19 O82 2.452041 1_555
Na19 O38 2.602417 1_556
Na19 O108 2.689657 1_555
Na19 O8 2.697505 1_555
Na19 O67 2.896870 1_555
Na19 O53 2.926148 1_555
Na20 O80 2.397019 1_655
Na20 O111 2.440314 1_555
Na20 O83 2.519318 1_555
Na20 O9 2.549706 1_555
Na20 O109 2.598240 1_555
Na20 O39 2.678030 1_556
Na20 O66 2.919875 1_655
Na20 O52 2.936127 1_655
Na21 O11 2.310285 1_555
Na21 O113 2.360605 1_555
Na21 O78 2.497414 1_655
Na21 O83 2.530983 1_545
Na21 O111 2.598688 1_555
Na21 O41 2.738341 1_556
Na22 O6 2.328537 1_555
Na22 O80 2.350833 1_545
Na22 O108 2.447718 1_555
Na22 O112 2.512462 1_555
Na22 O78 2.529335 1_555
Na22 O36 2.792485 1_556
Na23 O7 2.389417 1_555
Na23 O81 2.410029 1_545
Na23 O113 2.495091 1_555
Na23 O79 2.571435 1_555
Na23 O37 2.572950 1_556
Na23 O109 2.597730 1_555
Na24 O77 2.344613 1_555
Na24 O118 2.423137 1_555
Na24 O74 2.566914 1_545
Na24 O4 2.568540 1_555
Na24 O114 2.585580 1_555
Na24 O46 2.607480 1_555
Na24 O57 2.809563 1_555
Na24 O61 2.902732 1_555
Na25 O76 2.345565 1_655
Na25 O119 2.393504 1_555
Na25 O47 2.502420 1_555
Na25 O115 2.523517 1_555
Na25 O75 2.524315 1_545
Na25 O5 2.699329 1_555
Na26 O0 2.404555 1_555
Na26 O76 2.435221 1_555
Na26 O116 2.458865 1_555
Na26 O42 2.519864 1_555
Na26 O72 2.558334 1_545
Na26 O114 2.598075 1_555
Na27 O1 2.407507 1_555
Na27 O117 2.442977 1_555
Na27 O77 2.444394 1_555
Na27 O43 2.540049 1_555
Na27 O115 2.568498 1_555
Na27 O73 2.599673 1_545
Na28 O2 2.331199 1_555
Na28 O116 2.351668 1_555
Na28 O73 2.410958 1_555
Na28 O74 2.510643 1_555
Na28 O118 2.550008 1_555
Na28 O44 2.799353 1_555
Na29 O117 2.353249 1_555
Na29 O72 2.441984 1_655
Na29 O75 2.508480 1_555
Na29 O45 2.547985 1_555
Na29 O3 2.551745 1_555
Na29 O119 2.580505 1_555
Na30 O76 2.497843 1_565
Na30 O89 2.505968 1_455
Na30 O86 2.539501 1_565
Na30 O85 2.547076 1_465
Na30 O72 2.553212 1_555
Na30 O75 2.713805 1_455
Na31 O77 2.375254 1_555
Na31 O87 2.508238 1_555
Na31 O73 2.520107 1_545
Na31 O84 2.590502 1_555
Na31 O88 2.627871 1_545
Na31 O74 2.707191 1_545
Na32 O80 2.395454 1_545
Na32 O94 2.515550 1_556
Na32 O78 2.563113 1_555
Na32 O91 2.570805 1_446
Na32 O83 2.574045 1_445
Na32 O93 2.601700 1_456
Na33 O90 2.456640 1_556
Na33 O81 2.480709 1_555
Na33 O92 2.529533 1_566
Na33 O82 2.585611 1_555
Na33 O79 2.601075 1_565
Na33 O95 2.620473 1_566
Na34 O96 2.280882 1_555
Na34 O110 2.495644 1_555
Na34 O112 2.509057 1_555
Na34 O108 2.667219 1_555
Na34 O98 2.714406 1_555
Na34 O100 2.735874 1_555
Na35 O97 2.291484 1_555
Na35 O99 2.405192 1_555
Na35 O113 2.417756 1_555
Na35 O101 2.597785 1_555
Na35 O111 2.687226 1_555
Na35 O109 2.704097 1_555
Na36 O106 2.355220 1_555
Na36 O102 2.390074 1_555
Na36 O116 2.474376 1_555
Na36 O104 2.514003 1_555
Na36 O114 2.642450 1_555
Na36 O118 2.753239 1_555
Na37 O107 2.383892 1_555
Na37 O117 2.409386 1_555
Na37 O103 2.469648 1_555
Na37 O115 2.573542 1_555
Na37 O119 2.678514 1_555
Na37 O105 2.740227 1_555
Na38 O134 2.358177 1_555
Na38 O124 2.446087 1_555
Na38 O120 2.450656 1_555
Na38 O132 2.648604 1_555
Na38 O136 2.676014 1_555
Na38 O122 2.728106 1_555
Na39 O121 2.451738 1_555
Na39 O123 2.510249 1_555
Na39 O135 2.537335 1_555
Na39 O133 2.541080 1_555
Na39 O125 2.541795 1_555
Na39 O137 2.544701 1_555
Na40 O126 2.447179 1_555
Na40 O140 2.471310 1_555
Na40 O130 2.486371 1_555
Na40 O142 2.500604 1_555
Na40 O138 2.529463 1_555
Na40 O128 2.616718 1_555
Na41 O129 2.370923 1_555
Na41 O127 2.479895 1_555
Na41 O143 2.497564 1_555
Na41 O131 2.556117 1_555
Na41 O141 2.557673 1_555
Na41 O139 2.594587 1_555
Ge0 O13 1.842508 1_445
Ge0 O14 1.878909 1_555
Ge0 O89 1.896109 1_445
Ge0 O86 1.908357 1_555
Ge0 O85 2.083260 1_455
Ge0 O16 2.156666 1_545
Ge1 O15 1.779426 1_555
Ge1 O12 1.817295 1_545
Ge1 O87 1.851643 1_555
Ge1 O17 2.061229 1_545
Ge1 O84 2.154187 1_555
Ge1 O88 2.465727 1_545
Ge2 O19 1.804335 1_455
Ge2 O22 1.807887 1_555
Ge2 O94 1.884669 1_565
Ge2 O20 2.001435 1_565
Ge2 O91 2.171083 1_455
Ge2 O93 2.430888 1_465
Ge3 O18 1.786171 1_555
Ge3 O23 1.820151 1_555
Ge3 O90 1.833542 1_555
Ge3 O95 1.861129 1_565
Ge4 O36 1.831917 1_556
Ge4 O38 1.834239 1_556
Ge4 O112 1.881869 1_555
Ge4 O40 1.888183 1_556
Ge4 O108 2.375382 1_555
Ge4 O110 2.409588 1_555
Ge5 O64 1.798275 1_555
Ge5 O134 1.807612 1_555
Ge5 O132 1.835455 1_555
Ge5 O62 1.919480 1_555
Ge5 O60 2.308337 1_555
Ge5 O136 2.351453 1_555
Ge6 O65 1.791308 1_555
Ge6 O133 1.820689 1_555
Ge6 O135 1.827788 1_555
Ge6 O63 1.967659 1_555
Ge6 O137 2.190783 1_555
Ge6 O61 2.391330 1_555
Ge7 O68 1.838288 1_555
Ge7 O142 1.849852 1_555
Ge7 O138 1.857447 1_555
Ge7 O70 2.017467 1_555
Ge7 O140 2.149474 1_555
Ge7 O66 2.241326 1_555
Ge8 O69 1.777365 1_555
Ge8 O139 1.799987 1_555
Ge8 O143 1.834931 1_555
Ge8 O71 2.032898 1_555
Ge8 O141 2.263103 1_555
Ge8 O67 2.295908 1_555
O0 Si0 1.603213 1_545
O0 Zn0 1.927648 1_555
O1 Si1 1.599786 1_545
O1 Zn1 1.914718 1_555
O2 Si2 1.602362 1_555
O2 Zn1 1.920794 1_565
O3 Si3 1.597808 1_555
O3 Zn0 1.934818 1_665
O4 S1 1.476354 1_555
O4 Zn1 2.069737 1_555
O5 S0 1.461360 1_655
O5 Zn0 2.120041 1_655
O6 Si4 1.608685 1_555
O6 Zn2 1.899929 1_555
O7 Si5 1.588669 1_555
O7 Zn3 1.910166 1_555
O8 S3 1.462170 1_555
O8 Zn3 2.193160 1_565
O9 S2 1.483434 1_655
O9 Zn2 2.107140 1_665
O10 Si6 1.570260 1_565
O10 Zn3 1.893729 1_565
O11 Si7 1.606788 1_555
O11 Zn2 1.927941 1_655
O12 Si6 1.743087 1_565
O13 Si7 1.679739 1_565
O14 Si4 1.679410 1_555
O15 Si5 1.693432 1_555
O16 S2 1.515422 1_555
O17 S3 1.544251 1_555
O18 Si2 1.683582 1_555
O19 Si3 1.723322 1_555
O20 S0 1.546063 1_555
O21 S1 1.485193 1_555
O22 Si0 1.729583 1_555
O23 Si1 1.701953 1_555
O24 S4 1.459152 1_555
O24 Zn4 2.120864 1_555
O25 S5 1.447276 1_555
O25 Zn5 2.194869 1_555
O26 Si8 1.609699 1_555
O26 Zn4 1.940913 1_555
O27 Si9 1.601833 1_555
O27 Zn5 1.959845 1_555
O28 S6 1.469245 1_555
O28 Zn4 2.266242 1_555
O29 Si10 1.604692 1_555
O29 Zn5 1.972101 1_555
O30 Si11 1.591444 1_555
O30 Zn6 1.932926 1_555
O31 S7 1.468855 1_555
O31 Zn7 2.207771 1_555
O32 S8 1.439364 1_555
O32 Zn6 2.202531 1_555
O33 S9 1.455988 1_555
O33 Zn7 2.158329 1_555
O34 Si12 1.575249 1_555
O34 Zn6 1.965881 1_555
O35 Si13 1.608853 1_555
O35 Zn7 1.934452 1_555
O36 Si12 1.700691 1_555
O37 Si13 1.638410 1_555
O37 Zn8 1.927812 1_554
O38 Si11 1.744475 1_555
O39 S7 1.485584 1_555
O39 Zn8 2.456326 1_554
O40 S8 1.561593 1_555
O41 S9 1.511084 1_555
O41 Zn8 2.070660 1_554
O42 Si8 1.641129 1_555
O42 Zn9 1.931137 1_555
O43 Si9 1.639215 1_555
O43 Zn10 1.942488 1_555
O44 S6 1.499154 1_555
O44 Zn9 2.059330 1_555
O45 Si10 1.649915 1_555
O45 Zn10 1.920278 1_555
O46 S4 1.491428 1_555
O46 Zn9 2.421968 1_555
O47 S5 1.484932 1_555
O48 S10 1.457539 1_555
O48 Zn11 2.015471 1_556
O49 S11 1.465840 1_555
O49 Zn12 2.248406 1_556
O50 S12 1.483373 1_555
O50 Zn11 2.090892 1_556
O51 S13 1.485447 1_555
O51 Zn12 2.035337 1_556
O52 Si14 1.606928 1_555
O52 Zn11 1.938657 1_556
O53 Si15 1.605041 1_555
O53 Zn12 1.931332 1_556
O54 S14 1.471052 1_555
O54 Zn13 2.100631 1_555
O55 S15 1.469646 1_555
O55 Zn14 2.088127 1_555
O56 Si16 1.616633 1_555
O56 Zn13 1.912177 1_555
O57 Si17 1.612179 1_555
O57 Zn14 1.934620 1_555
O58 S16 1.483007 1_555
O58 Zn13 2.048172 1_555
O59 S17 1.475511 1_555
O59 Zn14 2.206052 1_555
O60 S16 1.499425 1_555
O61 S17 1.492746 1_555
O62 S14 1.534932 1_555
O63 S15 1.533073 1_555
O64 Si16 1.733224 1_555
O65 Si17 1.729335 1_555
O66 S12 1.494147 1_555
O67 S13 1.498598 1_555
O68 Si14 1.717499 1_555
O69 Si15 1.728294 1_555
O70 S10 1.539788 1_555
O71 S11 1.532933 1_555
O72 S16 1.490934 1_555
O72 Zn0 2.287962 1_565
O73 S17 1.494537 1_555
O73 Zn1 2.381032 1_565
O74 S14 1.466676 1_555
O74 Zn1 2.410416 1_565
O75 S15 1.479235 1_555
O75 Zn0 2.349068 1_665
O76 Si16 1.642355 1_555
O76 Zn0 2.082172 1_555
O77 Si17 1.640402 1_555
O77 Zn1 2.072684 1_555
O78 S12 1.494069 1_555
O78 Zn2 2.295091 1_555
O79 S13 1.472766 1_555
O79 Zn3 2.182107 1_555
O80 Si14 1.639922 1_555
O80 Zn2 2.272503 1_565
O81 Si15 1.634975 1_555
O81 Zn3 2.126906 1_565
O82 S10 1.456971 1_555
O82 Zn3 2.316530 1_565
O83 S11 1.486680 1_555
O83 Zn2 2.405835 1_665
O84 S4 1.538302 1_555
O85 S5 1.538999 1_555
O86 Si8 1.689839 1_555
O87 Si9 1.763909 1_555
O88 S6 1.496908 1_555
O89 Si10 1.693906 1_555
O90 Si11 1.686503 1_555
O91 S7 1.538927 1_555
O92 S8 1.476394 1_555
O93 S9 1.505842 1_555
O94 Si12 1.770943 1_555
O95 Si13 1.732703 1_555
O96 Si6 1.604644 1_555
O96 Zn4 2.011630 1_555
O97 Si7 1.600746 1_555
O97 Zn5 2.112639 1_555
O98 Si4 1.634154 1_555
O98 Zn4 2.030277 1_555
O99 Si5 1.615221 1_555
O99 Zn5 2.085287 1_555
O100 S3 1.466551 1_555
O100 Zn4 2.301982 1_555
O101 S2 1.449979 1_655
O101 Zn5 2.401198 1_555
O102 Si2 1.618861 1_555
O102 Zn6 2.088361 1_555
O103 Si3 1.627355 1_555
O103 Zn7 2.065060 1_555
O104 S1 1.463275 1_555
O104 Zn6 2.406139 1_555
O105 S0 1.463053 1_655
O105 Zn7 2.355881 1_555
O106 Si0 1.590246 1_545
O106 Zn6 2.031192 1_555
O107 Si1 1.600278 1_545
O107 Zn7 1.957581 1_555
O108 S10 1.512695 1_555
O109 S11 1.491406 1_555
O109 Zn8 2.362676 1_555
O110 S13 1.506027 1_555
O111 S12 1.493005 1_655
O111 Zn8 2.483810 1_555
O112 Si14 1.732949 1_545
O113 Si15 1.653811 1_545
O113 Zn8 2.001858 1_555
O114 S14 1.486118 1_545
O114 Zn9 2.294152 1_555
O115 S15 1.482359 1_545
O116 Si16 1.649756 1_555
O116 Zn9 2.047357 1_555
O117 Si17 1.647319 1_555
O117 Zn10 2.057749 1_555
O118 S17 1.507572 1_555
O118 Zn9 2.347651 1_555
O119 S16 1.485113 1_655
O120 Si12 1.617124 1_555
O120 Zn11 2.016579 1_555
O121 Si13 1.632886 1_555
O121 Zn12 2.041883 1_555
O122 S7 1.483565 1_455
O122 Zn11 2.357089 1_555
O123 Si11 1.626720 1_555
O123 Zn12 2.020203 1_555
O124 S8 1.484587 1_565
O124 Zn11 2.178872 1_555
O125 S9 1.488648 1_565
O125 Zn12 2.373302 1_555
O126 Si8 1.648690 1_565
O126 Zn13 1.991277 1_555
O127 Si9 1.626393 1_565
O127 Zn14 2.048496 1_555
O128 S6 1.493628 1_555
O128 Zn13 2.341648 1_555
O129 Si10 1.639467 1_555
O129 Zn14 2.056032 1_555
O130 S5 1.494780 1_455
O130 Zn13 2.245833 1_555
O131 S4 1.480070 1_555
O131 Zn14 2.295703 1_555
O132 Si0 1.706430 1_555
O133 Si1 1.697513 1_555
O134 Si2 1.702618 1_555
O135 Si3 1.683551 1_555
O136 S0 1.501078 1_555
O137 S1 1.540461 1_555
O138 Si4 1.706696 1_555
O139 Si5 1.692020 1_555
O140 S2 1.518659 1_555
O141 S3 1.498587 1_555
O142 Si6 1.736428 1_565
O143 Si7 1.744428 1_565
