# generated using pymatgen
data_ReH4NO4
_symmetry_space_group_name_H-M   'P 1'
_cell_length_a   7.55560856
_cell_length_b   7.55560856
_cell_length_c   7.55560856
_cell_angle_alpha   131.14129432
_cell_angle_beta   131.14129432
_cell_angle_gamma   71.58868798
_symmetry_Int_Tables_number   1
_chemical_formula_structural   ReH4NO4
_chemical_formula_sum   'Re2 H8 N2 O8'
_cell_volume   239.36148966
_cell_formula_units_Z   2
loop_
 _symmetry_equiv_pos_site_id
 _symmetry_equiv_pos_as_xyz
  1  'x, y, z'
loop_
 _atom_site_type_symbol
 _atom_site_label
 _atom_site_symmetry_multiplicity
 _atom_site_fract_x
 _atom_site_fract_y
 _atom_site_fract_z
 _atom_site_occupancy
  Re  Re0  1  0.75000000  0.25000000  0.50000000  1
  Re  Re1  1  0.00000000  0.00000000  0.00000000  1
  H  H0  1  0.15653500  0.57307400  0.32951800  1
  H  H1  1  0.32307400  0.49355600  0.91653800  1
  H  H2  1  0.59346500  0.67692600  0.17048200  1
  H  H3  1  0.42692600  0.75644400  0.58346200  1
  H  H4  1  0.24355600  0.82701800  0.67048200  1
  H  H5  1  0.50644400  0.42298200  0.82951800  1
  H  H6  1  0.57701800  0.40653500  0.08346200  1
  H  H7  1  0.17298200  0.84346500  0.41653800  1
  N  N0  1  0.50000000  0.50000000  0.00000000  1
  N  N1  1  0.25000000  0.75000000  0.50000000  1
  O  O0  1  0.03321900  0.44415600  0.81312500  1
  O  O1  1  0.97009400  0.28321900  0.08906300  1
  O  O2  1  0.71678100  0.80584400  0.68687500  1
  O  O3  1  0.55584400  0.36896900  0.58906300  1
  O  O4  1  0.77990600  0.96678100  0.41093700  1
  O  O5  1  0.63103100  0.22009400  0.18687500  1
  O  O6  1  0.19415600  0.88103100  0.91093700  1
  O  O7  1  0.11896900  0.02990600  0.31312500  1
loop_
_geom_bond_atom_site_label_1
_geom_bond_atom_site_label_2
_geom_bond_distance
_geom_bond_site_symmetry_2
H0 N1 1.038515 1_555
H1 N0 1.038513 1_556
H2 N0 1.038515 1_555
H3 N1 1.038513 1_555
H4 N1 1.038513 1_555
H5 N0 1.038513 1_556
H6 N0 1.038520 1_555
H7 N1 1.038520 1_555
O0 Re0 1.755814 1_455
O1 Re1 1.755814 1_655
O2 Re1 1.755814 1_666
O3 Re0 1.755814 1_555
O4 Re0 1.755814 1_565
O5 Re0 1.755814 1_555
O6 Re1 1.755814 1_566
O7 Re1 1.755814 1_555
