# generated using pymatgen
data_Ge(Bi3O5)4
_symmetry_space_group_name_H-M   'P 1'
_cell_length_a   8.79248957
_cell_length_b   8.79249264
_cell_length_c   8.79249604
_cell_angle_alpha   109.47122138
_cell_angle_beta   109.47121196
_cell_angle_gamma   109.47121202
_symmetry_Int_Tables_number   1
_chemical_formula_structural   Ge(Bi3O5)4
_chemical_formula_sum   'Ge1 Bi12 O20'
_cell_volume   523.25604485
_cell_formula_units_Z   1
loop_
 _symmetry_equiv_pos_site_id
 _symmetry_equiv_pos_as_xyz
  1  'x, y, z'
loop_
 _atom_site_type_symbol
 _atom_site_label
 _atom_site_symmetry_multiplicity
 _atom_site_fract_x
 _atom_site_fract_y
 _atom_site_fract_z
 _atom_site_occupancy
  Ge  Ge0  1  -0.00000045  -0.00000073  -0.00000059  1
  Bi  Bi0  1  0.19148223  0.69623130  0.85650232  1
  Bi  Bi1  1  0.83973025  0.33498053  0.14349958  1
  Bi  Bi2  1  0.80851723  0.66502048  0.50474896  1
  Bi  Bi3  1  0.14349686  0.83972902  0.33497962  1
  Bi  Bi4  1  0.69623104  0.85650268  0.19148198  1
  Bi  Bi5  1  0.30376863  0.49525076  0.16027109  1
  Bi  Bi6  1  0.49525092  0.16027112  0.30376861  1
  Bi  Bi7  1  0.33498020  0.14349754  0.83972912  1
  Bi  Bi8  1  0.50474907  0.80851804  0.66501879  1
  Bi  Bi9  1  0.66502035  0.50474913  0.80851821  1
  Bi  Bi10  1  0.85650266  0.19148265  0.69623207  1
  Bi  Bi11  1  0.16027151  0.30376868  0.49525105  1
  O  O0  1  0.79820927  -0.00000000  0.00000001  1
  O  O1  1  0.20178927  0.20178922  0.20178948  1
  O  O2  1  -0.00000007  0.79820939  -0.00000020  1
  O  O3  1  -0.00000031  -0.00000031  0.79820952  1
  O  O4  1  0.39194066  -0.00000034  0.00000003  1
  O  O5  1  0.60805884  0.60805876  0.60805904  1
  O  O6  1  0.00000011  0.39194111  -0.00000001  1
  O  O7  1  -0.00000014  0.00000010  0.39194101  1
  O  O8  1  0.62099593  0.23617242  0.87994704  1
  O  O9  1  0.35622581  0.74105032  0.12005517  1
  O  O10  1  0.37900532  0.25894958  0.61517585  1
  O  O11  1  0.12005554  0.35622605  0.74105049  1
  O  O12  1  0.23617091  0.87994495  0.62099502  1
  O  O13  1  0.64377352  0.76382935  0.38482430  1
  O  O14  1  0.87994454  0.62099534  0.23617066  1
  O  O15  1  0.25894937  0.61517487  0.37900468  1
  O  O16  1  0.61517549  0.37900480  0.25894967  1
  O  O17  1  0.74104981  0.12005509  0.35622551  1
  O  O18  1  0.38482328  0.64377406  0.76382771  1
  O  O19  1  0.76382934  0.38482403  0.64377420  1
loop_
_geom_bond_atom_site_label_1
_geom_bond_atom_site_label_2
_geom_bond_distance
_geom_bond_site_symmetry_2
Ge0 O1 1.774237 1_555
Ge0 O2 1.774238 1_545
Ge0 O3 1.774238 1_554
Ge0 O0 1.774243 1_455
Bi0 O9 2.096717 1_556
Bi0 O18 2.227587 1_555
Bi0 O4 2.228133 1_566
Bi0 O11 2.581119 1_555
Bi0 O2 2.626542 1_556
Bi1 O8 2.096719 1_554
Bi1 O14 2.227592 1_555
Bi1 O6 2.228141 1_655
Bi1 O16 2.581118 1_555
Bi1 O0 2.626544 1_555
Bi2 O13 2.096714 1_555
Bi2 O16 2.227592 1_555
Bi2 O5 2.228134 1_555
Bi2 O14 2.581121 1_555
Bi2 O3 2.626541 1_665
Bi3 O14 2.096713 1_455
Bi3 O12 2.227591 1_555
Bi3 O7 2.228131 1_565
Bi3 O15 2.581128 1_555
Bi3 O2 2.626543 1_555
Bi4 O17 2.096714 1_565
Bi4 O13 2.227593 1_555
Bi4 O7 2.228137 1_665
Bi4 O9 2.581117 1_555
Bi4 O0 2.626540 1_565
Bi5 O15 2.096715 1_555
Bi5 O9 2.227591 1_555
Bi5 O6 2.228134 1_555
Bi5 O13 2.581117 1_555
Bi5 O1 2.626547 1_555
Bi6 O16 2.096714 1_555
Bi6 O17 2.227585 1_555
Bi6 O4 2.228135 1_555
Bi6 O19 2.581121 1_555
Bi6 O1 2.626545 1_555
Bi7 O12 2.096716 1_545
Bi7 O8 2.227586 1_555
Bi7 O4 2.228135 1_556
Bi7 O10 2.581119 1_555
Bi7 O3 2.626547 1_555
Bi8 O18 2.096720 1_555
Bi8 O15 2.227586 1_555
Bi8 O5 2.228137 1_555
Bi8 O12 2.581117 1_555
Bi8 O0 2.626550 1_566
Bi9 O19 2.096718 1_555
Bi9 O10 2.227589 1_555
Bi9 O5 2.228137 1_555
Bi9 O8 2.581115 1_555
Bi9 O2 2.626541 1_656
Bi10 O11 2.096717 1_655
Bi10 O19 2.227586 1_555
Bi10 O6 2.228131 1_656
Bi10 O17 2.581128 1_555
Bi10 O3 2.626543 1_655
Bi11 O10 2.096716 1_555
Bi11 O11 2.227591 1_555
Bi11 O7 2.228135 1_555
Bi11 O18 2.581115 1_555
Bi11 O1 2.626545 1_555
