# generated using pymatgen
data_Nb(SCl)2
_symmetry_space_group_name_H-M   'P 1'
_cell_length_a   6.32291907
_cell_length_b   6.42775500
_cell_length_c   7.03413439
_cell_angle_alpha   79.78236948
_cell_angle_beta   68.85944313
_cell_angle_gamma   60.53807182
_symmetry_Int_Tables_number   1
_chemical_formula_structural   Nb(SCl)2
_chemical_formula_sum   'Nb2 S4 Cl4'
_cell_volume   232.16074394
_cell_formula_units_Z   2
loop_
 _symmetry_equiv_pos_site_id
 _symmetry_equiv_pos_as_xyz
  1  'x, y, z'
loop_
 _atom_site_type_symbol
 _atom_site_label
 _atom_site_symmetry_multiplicity
 _atom_site_fract_x
 _atom_site_fract_y
 _atom_site_fract_z
 _atom_site_occupancy
  Nb  Nb0  1  0.87092645  0.25814709  -0.00000000  1
  Nb  Nb1  1  0.12907355  0.74185291  0.00000000  1
  S  S0  1  0.84769983  -0.00000000  0.31041269  1
  S  S1  1  0.15230017  0.00000000  0.68958731  1
  S  S2  1  0.34295101  -0.00000000  0.86374711  1
  S  S3  1  0.65704899  0.00000000  0.13625289  1
  Cl  Cl0  1  0.01451022  0.41427750  0.22020828  1
  Cl  Cl1  1  0.57121228  0.41427750  0.77979172  1
  Cl  Cl2  1  0.98548978  0.58572250  0.77979172  1
  Cl  Cl3  1  0.42878772  0.58572250  0.22020828  1
loop_
_geom_bond_atom_site_label_1
_geom_bond_atom_site_label_2
_geom_bond_distance
_geom_bond_site_symmetry_2
Nb0 S3 2.491766 1_555
Nb0 S2 2.491766 1_654
Nb0 S0 2.503099 1_555
Nb0 S1 2.503099 1_654
Nb1 S2 2.491766 1_564
Nb1 S3 2.491766 1_465
Nb1 S1 2.503099 1_564
Nb1 S0 2.503099 1_465
S0 S3 2.004784 1_555
S1 S2 2.004784 1_555
Cl0 Nb0 2.587045 1_455
Cl0 Nb1 2.625147 1_555
Cl1 Nb0 2.587045 1_556
Cl1 Nb1 2.625148 1_556
Cl2 Nb1 2.587045 1_656
Cl2 Nb0 2.625147 1_556
Cl3 Nb1 2.587045 1_555
Cl3 Nb0 2.625148 1_555
