# generated using pymatgen
data_CsCrCl3
_symmetry_space_group_name_H-M   'P 1'
_cell_length_a   6.25959366
_cell_length_b   7.25528116
_cell_length_c   7.29084981
_cell_angle_alpha   119.83857694
_cell_angle_beta   88.50767167
_cell_angle_gamma   89.99987157
_symmetry_Int_Tables_number   1
_chemical_formula_structural   CsCrCl3
_chemical_formula_sum   'Cs2 Cr2 Cl6'
_cell_volume   287.08960140
_cell_formula_units_Z   2
loop_
 _symmetry_equiv_pos_site_id
 _symmetry_equiv_pos_as_xyz
  1  'x, y, z'
loop_
 _atom_site_type_symbol
 _atom_site_label
 _atom_site_symmetry_multiplicity
 _atom_site_fract_x
 _atom_site_fract_y
 _atom_site_fract_z
 _atom_site_occupancy
  Cs  Cs0  1  0.74935311  0.33256882  0.66513564  1
  Cs  Cs1  1  0.25064689  0.66743118  0.33486436  1
  Cr  Cr0  1  0.00000000  0.00000000  -0.00000000  1
  Cr  Cr1  1  0.50000000  0.00000000  -0.00000000  1
  Cl  Cl0  1  0.29109094  0.16037812  0.32075425  1
  Cl  Cl1  1  0.70890906  0.83962188  0.67924575  1
  Cl  Cl2  1  0.76760447  0.84374615  0.15293355  1
  Cl  Cl3  1  0.23239453  0.69081260  0.84706645  1
  Cl  Cl4  1  0.23239553  0.15625385  0.84706645  1
  Cl  Cl5  1  0.76760547  0.30918740  0.15293355  1
loop_
_geom_bond_atom_site_label_1
_geom_bond_atom_site_label_2
_geom_bond_distance
_geom_bond_site_symmetry_2
Cl0 Cr1 2.380285 1_555
Cl0 Cr0 2.767138 1_555
Cl0 Cs1 3.637357 1_555
Cl0 Cs1 3.637387 1_545
Cl0 Cs0 3.653385 1_555
Cl0 Cs0 3.974839 1_455
Cl1 Cr1 2.380285 1_566
Cl1 Cr0 2.767138 1_666
Cl1 Cs0 3.637357 1_555
Cl1 Cs0 3.637387 1_565
Cl1 Cs1 3.653385 1_555
Cl1 Cs1 3.974839 1_655
Cl2 Cr0 2.412057 1_665
Cl2 Cr1 2.586418 1_565
Cl2 Cs0 3.648533 1_554
Cl2 Cs0 3.651709 1_565
Cl2 Cs1 3.799427 1_655
Cl2 Cs1 3.915622 1_555
Cl3 Cr0 2.412053 1_566
Cl3 Cr1 2.586431 1_566
Cl3 Cs1 3.648531 1_556
Cl3 Cs1 3.651693 1_555
Cl3 Cs0 3.799425 1_455
Cl3 Cs0 3.915616 1_555
Cl4 Cr0 2.412057 1_556
Cl4 Cr1 2.586418 1_556
Cl4 Cs1 3.648533 1_556
Cl4 Cs1 3.651709 1_545
Cl4 Cs0 3.799427 1_455
Cl4 Cs0 3.915622 1_555
Cl5 Cr0 2.412053 1_655
Cl5 Cr1 2.586431 1_555
Cl5 Cs0 3.648531 1_554
Cl5 Cs0 3.651693 1_555
Cl5 Cs1 3.799425 1_655
Cl5 Cs1 3.915616 1_555
