# generated using pymatgen
data_NaYMg(SO4)3
_symmetry_space_group_name_H-M   'P 1'
_cell_length_a   8.91034395
_cell_length_b   8.91034365
_cell_length_c   23.72880147
_cell_angle_alpha   90.00000000
_cell_angle_beta   90.00000000
_cell_angle_gamma   120.00000114
_symmetry_Int_Tables_number   1
_chemical_formula_structural   NaYMg(SO4)3
_chemical_formula_sum   'Na6 Y6 Mg6 S18 O72'
_cell_volume   1631.53108336
_cell_formula_units_Z   6
loop_
 _symmetry_equiv_pos_site_id
 _symmetry_equiv_pos_as_xyz
  1  'x, y, z'
loop_
 _atom_site_type_symbol
 _atom_site_label
 _atom_site_symmetry_multiplicity
 _atom_site_fract_x
 _atom_site_fract_y
 _atom_site_fract_z
 _atom_site_occupancy
  Na  Na0  1  -0.00000000  0.00000000  0.49416019  1
  Na  Na1  1  -0.00000000  0.00000000  0.99416019  1
  Na  Na2  1  0.66666700  0.33333300  0.82749319  1
  Na  Na3  1  0.66666700  0.33333300  0.32749319  1
  Na  Na4  1  0.33333300  0.66666700  0.16082719  1
  Na  Na5  1  0.33333300  0.66666700  0.66082719  1
  Y  Y0  1  -0.00000000  0.00000000  0.64841743  1
  Y  Y1  1  -0.00000000  0.00000000  0.14841743  1
  Y  Y2  1  0.66666700  0.33333300  0.98175043  1
  Y  Y3  1  0.66666700  0.33333300  0.48175043  1
  Y  Y4  1  0.33333300  0.66666700  0.31508443  1
  Y  Y5  1  0.33333300  0.66666700  0.81508443  1
  Mg  Mg0  1  -0.00000000  0.00000000  0.34958921  1
  Mg  Mg1  1  -0.00000000  0.00000000  0.84958921  1
  Mg  Mg2  1  0.66666700  0.33333300  0.68292221  1
  Mg  Mg3  1  0.66666700  0.33333300  0.18292221  1
  Mg  Mg4  1  0.33333300  0.66666700  0.01625621  1
  Mg  Mg5  1  0.33333300  0.66666700  0.51625621  1
  S  S0  1  0.30166056  0.01205838  0.25133698  1
  S  S1  1  0.71039782  0.69833944  0.25133698  1
  S  S2  1  0.98794162  0.28960218  0.25133698  1
  S  S3  1  0.30166056  0.28960218  0.75133698  1
  S  S4  1  0.98794162  0.69833944  0.75133698  1
  S  S5  1  0.71039782  0.01205838  0.75133698  1
  S  S6  1  0.96832756  0.34539138  0.58466998  1
  S  S7  1  0.37706482  0.03167244  0.58466998  1
  S  S8  1  0.65460862  0.62293518  0.58466998  1
  S  S9  1  0.96832756  0.62293518  0.08466998  1
  S  S10  1  0.65460862  0.03167244  0.08466998  1
  S  S11  1  0.37706482  0.34539138  0.08466998  1
  S  S12  1  0.63499356  0.67872538  0.91800398  1
  S  S13  1  0.04373082  0.36500644  0.91800398  1
  S  S14  1  0.32127462  0.95626918  0.91800398  1
  S  S15  1  0.63499356  0.95626918  0.41800398  1
  S  S16  1  0.32127462  0.36500644  0.41800398  1
  S  S17  1  0.04373082  0.67872538  0.41800398  1
  O  O0  1  0.21272237  0.02646016  0.30145175  1
  O  O1  1  0.81373779  0.78727763  0.30145175  1
  O  O2  1  0.97353984  0.18626221  0.30145175  1
  O  O3  1  0.21272237  0.18626221  0.80145175  1
  O  O4  1  0.97353984  0.78727763  0.80145175  1
  O  O5  1  0.81373779  0.02646016  0.80145175  1
  O  O6  1  0.78855135  0.98601907  0.69962366  1
  O  O7  1  0.19746772  0.21144865  0.69962366  1
  O  O8  1  0.01398093  0.80253228  0.69962366  1
  O  O9  1  0.78855135  0.80253228  0.19962366  1
  O  O10  1  0.01398093  0.21144865  0.19962366  1
  O  O11  1  0.19746772  0.98601907  0.19962366  1
  O  O12  1  0.87938937  0.35979316  0.63478475  1
  O  O13  1  0.48040479  0.12061063  0.63478475  1
  O  O14  1  0.64020684  0.51959521  0.63478475  1
  O  O15  1  0.87938937  0.51959521  0.13478475  1
  O  O16  1  0.64020684  0.12061063  0.13478475  1
  O  O17  1  0.48040479  0.35979316  0.13478475  1
  O  O18  1  0.45521835  0.31935207  0.03295666  1
  O  O19  1  0.86413472  0.54478165  0.03295666  1
  O  O20  1  0.68064793  0.13586528  0.03295666  1
  O  O21  1  0.45521835  0.13586528  0.53295666  1
  O  O22  1  0.68064793  0.54478165  0.53295666  1
  O  O23  1  0.86413472  0.31935207  0.53295666  1
  O  O24  1  0.54605537  0.69312716  0.96811875  1
  O  O25  1  0.14707079  0.45394463  0.96811875  1
  O  O26  1  0.30687284  0.85292921  0.96811875  1
  O  O27  1  0.54605537  0.85292921  0.46811875  1
  O  O28  1  0.30687284  0.45394463  0.46811875  1
  O  O29  1  0.14707079  0.69312716  0.46811875  1
  O  O30  1  0.12188435  0.65268607  0.36629066  1
  O  O31  1  0.53080072  0.87811565  0.36629066  1
  O  O32  1  0.34731393  0.46919928  0.36629066  1
  O  O33  1  0.12188435  0.46919928  0.86629066  1
  O  O34  1  0.34731393  0.87811565  0.86629066  1
  O  O35  1  0.53080072  0.65268607  0.86629066  1
  O  O36  1  0.02685831  0.83458697  0.41172328  1
  O  O37  1  0.80772866  0.97314169  0.41172328  1
  O  O38  1  0.16541303  0.19227134  0.41172328  1
  O  O39  1  0.02685831  0.19227134  0.91172328  1
  O  O40  1  0.16541303  0.97314169  0.91172328  1
  O  O41  1  0.80772866  0.83458697  0.91172328  1
  O  O42  1  0.98827910  0.18835347  0.58847538  1
  O  O43  1  0.20007437  0.01172090  0.58847538  1
  O  O44  1  0.81164653  0.79992563  0.58847538  1
  O  O45  1  0.98827910  0.79992563  0.08847538  1
  O  O46  1  0.81164653  0.01172090  0.08847538  1
  O  O47  1  0.20007437  0.18835347  0.08847538  1
  O  O48  1  0.69352531  0.16791997  0.74505628  1
  O  O49  1  0.47439566  0.30647469  0.74505628  1
  O  O50  1  0.83208003  0.52560434  0.74505628  1
  O  O51  1  0.69352531  0.52560434  0.24505628  1
  O  O52  1  0.83208003  0.30647469  0.24505628  1
  O  O53  1  0.47439566  0.16791997  0.24505628  1
  O  O54  1  0.65494610  0.52168647  0.92180838  1
  O  O55  1  0.86674137  0.34505390  0.92180838  1
  O  O56  1  0.47831353  0.13325863  0.92180838  1
  O  O57  1  0.65494610  0.13325863  0.42180838  1
  O  O58  1  0.47831353  0.34505390  0.42180838  1
  O  O59  1  0.86674137  0.52168647  0.42180838  1
  O  O60  1  0.36019131  0.50125397  0.07839028  1
  O  O61  1  0.14106166  0.63980869  0.07839028  1
  O  O62  1  0.49874603  0.85893834  0.07839028  1
  O  O63  1  0.36019131  0.85893834  0.57839028  1
  O  O64  1  0.49874603  0.63980869  0.57839028  1
  O  O65  1  0.14106166  0.50125397  0.57839028  1
  O  O66  1  0.32161210  0.85502047  0.25514238  1
  O  O67  1  0.53340737  0.67838790  0.25514238  1
  O  O68  1  0.14497953  0.46659263  0.25514238  1
  O  O69  1  0.32161210  0.46659263  0.75514238  1
  O  O70  1  0.14497953  0.67838790  0.75514238  1
  O  O71  1  0.53340737  0.85502047  0.75514238  1
loop_
_geom_bond_atom_site_label_1
_geom_bond_atom_site_label_2
_geom_bond_distance
_geom_bond_site_symmetry_2
Na0 O38 2.531557 1_555
Na0 O36 2.531557 1_545
Na0 O37 2.531557 1_445
Na0 O44 2.830448 1_445
Na0 O42 2.830448 1_455
Na0 O43 2.830448 1_555
Na1 O39 2.531557 1_555
Na1 O41 2.531557 1_445
Na1 O40 2.531557 1_545
Na1 O45 2.830448 1_446
Na1 O47 2.830448 1_556
Na1 O46 2.830448 1_456
Na2 O50 2.531557 1_555
Na2 O48 2.531557 1_555
Na2 O49 2.531557 1_555
Na2 O56 2.830448 1_555
Na2 O54 2.830448 1_555
Na2 O55 2.830448 1_555
Na3 O51 2.531557 1_555
Na3 O53 2.531557 1_555
Na3 O52 2.531557 1_555
Na3 O57 2.830448 1_555
Na3 O59 2.830448 1_555
Na3 O58 2.830448 1_555
Na4 O62 2.531557 1_555
Na4 O60 2.531557 1_555
Na4 O61 2.531557 1_555
Na4 O68 2.830448 1_555
Na4 O66 2.830448 1_555
Na4 O67 2.830448 1_555
Na5 O63 2.531557 1_555
Na5 O65 2.531557 1_555
Na5 O64 2.531557 1_555
Na5 O69 2.830448 1_555
Na5 O71 2.830448 1_555
Na5 O70 2.830448 1_555
Mg0 O1 2.122752 1_445
Mg0 O2 2.122752 1_455
Mg0 O0 2.122752 1_555
Mg0 O38 2.180848 1_555
Mg0 O36 2.180848 1_545
Mg0 O37 2.180848 1_445
Mg1 O4 2.122752 1_445
Mg1 O3 2.122752 1_555
Mg1 O5 2.122752 1_455
Mg1 O39 2.180848 1_555
Mg1 O41 2.180848 1_445
Mg1 O40 2.180848 1_545
Mg2 O13 2.122752 1_555
Mg2 O14 2.122752 1_555
Mg2 O12 2.122752 1_555
Mg2 O50 2.180848 1_555
Mg2 O48 2.180848 1_555
Mg2 O49 2.180848 1_555
Mg3 O16 2.122752 1_555
Mg3 O15 2.122752 1_555
Mg3 O17 2.122752 1_555
Mg3 O51 2.180848 1_555
Mg3 O53 2.180848 1_555
Mg3 O52 2.180848 1_555
Mg4 O25 2.122752 1_554
Mg4 O26 2.122752 1_554
Mg4 O24 2.122752 1_554
Mg4 O62 2.180848 1_555
Mg4 O60 2.180848 1_555
Mg4 O61 2.180848 1_555
Mg5 O28 2.122752 1_555
Mg5 O27 2.122752 1_555
Mg5 O29 2.122752 1_555
Mg5 O63 2.180848 1_555
Mg5 O65 2.180848 1_555
Mg5 O64 2.180848 1_555
O0 S0 1.469789 1_555
O1 S1 1.469789 1_555
O2 S2 1.469789 1_555
O3 S3 1.469789 1_555
O4 S4 1.469789 1_555
O5 S5 1.469789 1_555
O6 S5 1.485296 1_565
O6 Y0 2.192475 1_665
O7 S3 1.485296 1_555
O7 Y0 2.192475 1_555
O8 S4 1.485296 1_455
O8 Y0 2.192475 1_565
O9 S1 1.485296 1_555
O9 Y1 2.192475 1_665
O10 S2 1.485296 1_455
O10 Y1 2.192475 1_555
O11 S0 1.485296 1_565
O11 Y1 2.192475 1_565
O12 S6 1.469789 1_555
O13 S7 1.469789 1_555
O14 S8 1.469789 1_555
O15 S9 1.469789 1_555
O16 S10 1.469789 1_555
O17 S11 1.469789 1_555
O18 S11 1.485296 1_555
O18 Y2 2.192475 1_554
O19 S9 1.485296 1_555
O19 Y2 2.192475 1_554
O20 S10 1.485296 1_555
O20 Y2 2.192475 1_554
O21 S7 1.485296 1_555
O21 Y3 2.192475 1_555
O22 S8 1.485296 1_555
O22 Y3 2.192475 1_555
O23 S6 1.485296 1_555
O23 Y3 2.192475 1_555
O24 S12 1.469789 1_555
O25 S13 1.469789 1_555
O26 S14 1.469789 1_555
O27 S15 1.469789 1_555
O28 S16 1.469789 1_555
O29 S17 1.469789 1_555
O30 S17 1.485296 1_555
O30 Y4 2.192475 1_555
O31 S15 1.485296 1_555
O31 Y4 2.192475 1_555
O32 S16 1.485296 1_555
O32 Y4 2.192475 1_555
O33 S13 1.485296 1_555
O33 Y5 2.192475 1_555
O34 S14 1.485296 1_555
O34 Y5 2.192475 1_555
O35 S12 1.485296 1_555
O35 Y5 2.192475 1_555
O36 S17 1.477265 1_555
O37 S15 1.477274 1_555
O38 S16 1.477270 1_555
O39 S13 1.477274 1_555
O40 S14 1.477265 1_555
O41 S12 1.477270 1_555
O42 S6 1.498815 1_555
O42 Y0 2.241861 1_655
O43 S7 1.498823 1_555
O43 Y0 2.241862 1_555
O44 S8 1.498820 1_555
O44 Y0 2.241861 1_665
O45 S9 1.498823 1_555
O45 Y1 2.241861 1_665
O46 S10 1.498815 1_555
O46 Y1 2.241862 1_655
O47 S11 1.498820 1_555
O47 Y1 2.241861 1_555
O48 S5 1.477265 1_555
O49 S3 1.477274 1_555
O50 S4 1.477270 1_555
O51 S1 1.477274 1_555
O52 S2 1.477265 1_555
O53 S0 1.477270 1_555
O54 S12 1.498827 1_555
O54 Y2 2.241861 1_555
O55 S13 1.498809 1_655
O55 Y2 2.241862 1_555
O56 S14 1.498817 1_545
O56 Y2 2.241861 1_555
O57 S15 1.498809 1_545
O57 Y3 2.241861 1_555
O58 S16 1.498827 1_555
O58 Y3 2.241862 1_555
O59 S17 1.498817 1_655
O59 Y3 2.241861 1_555
O60 S11 1.477277 1_555
O61 S9 1.477259 1_455
O62 S10 1.477267 1_565
O63 S7 1.477259 1_565
O64 S8 1.477277 1_555
O65 S6 1.477267 1_455
O66 S0 1.498815 1_565
O66 Y4 2.241861 1_555
O67 S1 1.498823 1_555
O67 Y4 2.241862 1_555
O68 S2 1.498820 1_455
O68 Y4 2.241861 1_555
O69 S3 1.498823 1_555
O69 Y5 2.241861 1_555
O70 S4 1.498815 1_455
O70 Y5 2.241862 1_555
O71 S5 1.498820 1_565
O71 Y5 2.241861 1_555
