# generated using pymatgen
data_Ta6S
_symmetry_space_group_name_H-M   'P 1'
_cell_length_a   5.28177384
_cell_length_b   7.58168702
_cell_length_c   13.35901479
_cell_angle_alpha   85.54993046
_cell_angle_beta   78.59491380
_cell_angle_gamma   69.61287068
_symmetry_Int_Tables_number   1
_chemical_formula_structural   Ta6S
_chemical_formula_sum   'Ta24 S4'
_cell_volume   491.52498271
_cell_formula_units_Z   4
loop_
 _symmetry_equiv_pos_site_id
 _symmetry_equiv_pos_as_xyz
  1  'x, y, z'
loop_
 _atom_site_type_symbol
 _atom_site_label
 _atom_site_symmetry_multiplicity
 _atom_site_fract_x
 _atom_site_fract_y
 _atom_site_fract_z
 _atom_site_occupancy
  Ta  Ta0  1  0.00153879  0.22417179  0.45403801  1
  Ta  Ta1  1  0.67970577  0.27588410  0.04592202  1
  Ta  Ta2  1  0.99846121  0.77582821  0.54596199  1
  Ta  Ta3  1  0.32029423  0.72411590  0.95407798  1
  Ta  Ta4  1  0.40073633  0.46790562  0.40559148  1
  Ta  Ta5  1  0.27439443  0.03202779  0.09435849  1
  Ta  Ta6  1  0.59926367  0.53209438  0.59440852  1
  Ta  Ta7  1  0.72560557  0.96797221  0.90564151  1
  Ta  Ta8  1  0.81638292  0.89840110  0.17430335  1
  Ta  Ta9  1  0.88912300  0.60154251  0.32561672  1
  Ta  Ta10  1  0.18361708  0.10159890  0.82569665  1
  Ta  Ta11  1  0.11087700  0.39845749  0.67438328  1
  Ta  Ta12  1  0.64168566  0.02519200  0.39678825  1
  Ta  Ta13  1  0.06382385  0.47485847  0.10320961  1
  Ta  Ta14  1  0.35831434  0.97480800  0.60321175  1
  Ta  Ta15  1  0.93617615  0.52514153  0.89679039  1
  Ta  Ta16  1  0.21346437  0.89474415  0.31735571  1
  Ta  Ta17  1  0.42554958  0.60523526  0.18254842  1
  Ta  Ta18  1  0.78653563  0.10525585  0.68264429  1
  Ta  Ta19  1  0.57445042  0.39476474  0.81745158  1
  Ta  Ta20  1  0.15910467  0.74365110  0.75182118  1
  Ta  Ta21  1  0.65449376  0.75643586  0.74827352  1
  Ta  Ta22  1  0.84089533  0.25634890  0.24817882  1
  Ta  Ta23  1  0.34550624  0.24356414  0.25172648  1
  S  S0  1  0.52242715  0.23870399  0.54357061  1
  S  S1  1  0.30451583  0.26125122  0.95645907  1
  S  S2  1  0.47757285  0.76129601  0.45642939  1
  S  S3  1  0.69548417  0.73874878  0.04354093  1
loop_
_geom_bond_atom_site_label_1
_geom_bond_atom_site_label_2
_geom_bond_distance
_geom_bond_site_symmetry_2
Ta0 Ta23 2.968040 1_555
Ta0 Ta22 3.002808 1_455
Ta1 Ta22 2.967678 1_555
Ta1 Ta23 3.002039 1_555
Ta2 Ta21 2.968040 1_555
Ta2 Ta20 3.002808 1_655
Ta10 Ta21 2.995266 1_545
Ta10 Ta20 3.011091 1_545
Ta11 Ta20 2.995559 1_555
Ta11 Ta21 3.011260 1_455
Ta12 Ta23 2.800044 1_555
Ta12 Ta22 2.835240 1_555
Ta13 Ta22 2.800163 1_455
Ta13 Ta23 2.834572 1_555
Ta14 Ta21 2.800044 1_555
Ta14 Ta20 2.835240 1_555
Ta15 Ta20 2.800163 1_655
Ta15 Ta21 2.834572 1_555
Ta16 Ta22 2.968141 1_465
Ta16 Ta23 2.988748 1_565
Ta17 Ta23 2.968452 1_555
Ta17 Ta22 2.989303 1_555
Ta18 Ta20 2.968141 1_645
Ta18 Ta21 2.988748 1_545
Ta19 Ta21 2.968452 1_555
Ta19 Ta20 2.989303 1_555
Ta20 Ta21 2.642802 1_455
Ta20 Ta21 2.642884 1_555
Ta20 Ta7 2.885482 1_455
Ta20 Ta6 2.896806 1_555
Ta20 Ta3 2.967678 1_555
Ta21 Ta6 2.885914 1_555
Ta21 Ta7 2.896210 1_555
Ta21 Ta3 3.002039 1_555
Ta22 Ta23 2.642802 1_655
Ta22 Ta23 2.642884 1_555
Ta22 Ta5 2.885482 1_655
Ta22 Ta4 2.896806 1_555
Ta22 Ta9 2.995559 1_555
Ta22 Ta8 3.011091 1_545
Ta23 Ta4 2.885914 1_555
Ta23 Ta5 2.896210 1_555
Ta23 Ta8 2.995266 1_545
Ta23 Ta9 3.011260 1_455
S0 Ta4 2.454339 1_555
S0 Ta14 2.465172 1_545
S0 Ta12 2.481107 1_555
S0 Ta18 2.484205 1_555
S0 Ta11 2.497540 1_555
S0 Ta0 2.544722 1_655
S0 Ta6 2.558565 1_555
S1 Ta5 2.453409 1_556
S1 Ta15 2.465188 1_455
S1 Ta13 2.480899 1_556
S1 Ta19 2.484464 1_555
S1 Ta10 2.496441 1_555
S1 Ta1 2.545208 1_556
S1 Ta7 2.557968 1_545
S2 Ta6 2.454339 1_555
S2 Ta12 2.465172 1_565
S2 Ta14 2.481107 1_555
S2 Ta16 2.484205 1_555
S2 Ta9 2.497540 1_555
S2 Ta2 2.544722 1_455
S2 Ta4 2.558565 1_555
S3 Ta7 2.453409 1_554
S3 Ta13 2.465188 1_655
S3 Ta15 2.480899 1_554
S3 Ta17 2.484464 1_555
S3 Ta8 2.496441 1_555
S3 Ta3 2.545208 1_554
S3 Ta5 2.557968 1_565
