# generated using pymatgen
data_Na6S2ClO8F
_symmetry_space_group_name_H-M   'P 1'
_cell_length_a   7.06368572
_cell_length_b   7.06368572
_cell_length_c   7.06368572
_cell_angle_alpha   60.00000000
_cell_angle_beta   60.00000000
_cell_angle_gamma   60.00000000
_symmetry_Int_Tables_number   1
_chemical_formula_structural   Na6S2ClO8F
_chemical_formula_sum   'Na6 S2 Cl1 O8 F1'
_cell_volume   249.21782765
_cell_formula_units_Z   1
loop_
 _symmetry_equiv_pos_site_id
 _symmetry_equiv_pos_as_xyz
  1  'x, y, z'
loop_
 _atom_site_type_symbol
 _atom_site_label
 _atom_site_symmetry_multiplicity
 _atom_site_fract_x
 _atom_site_fract_y
 _atom_site_fract_z
 _atom_site_occupancy
  Na  Na0  1  0.77815925  0.22184075  0.22184075  1
  Na  Na1  1  0.22184075  0.77815925  0.22184075  1
  Na  Na2  1  0.22184075  0.22184075  0.77815925  1
  Na  Na3  1  0.22184075  0.77815925  0.77815925  1
  Na  Na4  1  0.77815925  0.77815925  0.22184075  1
  Na  Na5  1  0.77815925  0.22184075  0.77815925  1
  S  S0  1  0.75000000  0.75000000  0.75000000  1
  S  S1  1  0.25000000  0.25000000  0.25000000  1
  Cl  Cl0  1  0.50000000  0.50000000  0.50000000  1
  O  O0  1  0.16454780  0.50635659  0.16454780  1
  O  O1  1  0.83545220  0.83545220  0.49364341  1
  O  O2  1  0.83545220  0.83545220  0.83545220  1
  O  O3  1  0.49364341  0.83545220  0.83545220  1
  O  O4  1  0.16454780  0.16454780  0.16454780  1
  O  O5  1  0.50635659  0.16454780  0.16454780  1
  O  O6  1  0.16454780  0.16454780  0.50635659  1
  O  O7  1  0.83545220  0.49364341  0.83545220  1
  F  F0  1  -0.00000000  0.00000000  -0.00000000  1
loop_
_geom_bond_atom_site_label_1
_geom_bond_atom_site_label_2
_geom_bond_distance
_geom_bond_site_symmetry_2
Na0 O4 2.394046 1_655
Na0 O7 2.394046 1_554
Na0 O1 2.394046 1_545
Na0 O5 2.394046 1_555
Na1 O4 2.394046 1_565
Na1 O3 2.394046 1_554
Na1 O1 2.394046 1_455
Na1 O0 2.394046 1_555
Na2 O4 2.394046 1_556
Na2 O3 2.394046 1_545
Na2 O7 2.394046 1_455
Na2 O6 2.394046 1_555
Na3 O2 2.394046 1_455
Na3 O6 2.394046 1_565
Na3 O0 2.394046 1_556
Na3 O3 2.394046 1_555
Na4 O2 2.394046 1_554
Na4 O0 2.394046 1_655
Na4 O5 2.394046 1_565
Na4 O1 2.394046 1_555
Na5 O2 2.394046 1_545
Na5 O5 2.394046 1_556
Na5 O6 2.394046 1_655
Na5 O7 2.394046 1_555
Cl0 Na5 2.778689 1_555
Cl0 Na2 2.778689 1_555
Cl0 Na0 2.778689 1_555
Cl0 Na3 2.778689 1_555
Cl0 Na4 2.778689 1_555
Cl0 Na1 2.778689 1_555
O0 S1 1.478530 1_555
O1 S0 1.478530 1_555
O2 S0 1.478530 1_555
O3 S0 1.478530 1_555
O4 S1 1.478530 1_555
O5 S1 1.478530 1_555
O6 S1 1.478530 1_555
O7 S0 1.478530 1_555
F0 Na2 2.216092 1_554
F0 Na1 2.216092 1_545
F0 Na0 2.216092 1_455
F0 Na5 2.216092 1_454
F0 Na4 2.216092 1_445
F0 Na3 2.216092 1_544
