# generated using pymatgen
data_BiPS4
_symmetry_space_group_name_H-M   'P 1'
_cell_length_a   12.55768529
_cell_length_b   12.55792615
_cell_length_c   12.55743501
_cell_angle_alpha   129.83551933
_cell_angle_beta   127.04061140
_cell_angle_gamma   75.93651463
_symmetry_Int_Tables_number   1
_chemical_formula_structural   BiPS4
_chemical_formula_sum   'Bi8 P8 S32'
_cell_volume   1180.34685291
_cell_formula_units_Z   8
loop_
 _symmetry_equiv_pos_site_id
 _symmetry_equiv_pos_as_xyz
  1  'x, y, z'
loop_
 _atom_site_type_symbol
 _atom_site_label
 _atom_site_symmetry_multiplicity
 _atom_site_fract_x
 _atom_site_fract_y
 _atom_site_fract_z
 _atom_site_occupancy
  Bi  Bi0  1  0.14118206  0.89111894  0.25007743  1
  Bi  Bi1  1  0.35887361  0.60892777  0.75001535  1
  Bi  Bi2  1  0.85882329  0.10888343  0.74992767  1
  Bi  Bi3  1  0.64113485  0.39107220  0.24998948  1
  Bi  Bi4  1  0.39887527  0.14890129  0.25000132  1
  Bi  Bi5  1  0.10110987  0.35107994  0.74998744  1
  Bi  Bi6  1  0.60111821  0.85109591  0.74999220  1
  Bi  Bi7  1  0.89888370  0.64891484  0.25000598  1
  P  P0  1  0.74998987  0.28023964  0.53024903  1
  P  P1  1  0.28601858  0.74998980  0.03601913  1
  P  P2  1  0.21405658  0.25000170  0.46404885  1
  P  P3  1  0.71398116  0.25000934  0.96398005  1
  P  P4  1  0.78595195  0.75000052  0.53595376  1
  P  P5  1  0.74999403  0.78028004  0.03028222  1
  P  P6  1  0.25000546  0.71975818  0.46974716  1
  P  P7  1  0.25000439  0.21972256  0.96972121  1
  S  S0  1  0.39716057  0.60051062  0.98176245  1
  S  S1  1  0.88121632  0.58462915  0.48174311  1
  S  S2  1  0.89709085  0.91537787  0.79657691  1
  S  S3  1  0.61872203  0.10052481  0.70334956  1
  S  S4  1  0.60283952  0.39948902  0.01823792  1
  S  S5  1  0.11878852  0.41537069  0.51825709  1
  S  S6  1  0.10292170  0.08462467  0.20343205  1
  S  S7  1  0.38127825  0.89947336  0.29664825  1
  S  S8  1  0.60154002  0.39128404  0.48534337  1
  S  S9  1  0.09403674  0.10868060  0.71023029  1
  S  S10  1  0.89845443  0.38377061  0.78974759  1
  S  S11  1  0.40597548  0.11621129  0.01466522  1
  S  S12  1  0.39845687  0.60871487  0.51465508  1
  S  S13  1  0.90595852  0.89131802  0.28977060  1
  S  S14  1  0.10154108  0.61622776  0.21024779  1
  S  S15  1  0.59402323  0.88378969  0.98533447  1
  S  S16  1  0.84609034  0.26023196  0.43555855  1
  S  S17  1  0.17535421  0.23973006  0.08586258  1
  S  S18  1  0.65386762  0.08946091  0.41412552  1
  S  S19  1  0.32463339  0.41049635  0.06434003  1
  S  S20  1  0.15390508  0.73976676  0.56443870  1
  S  S21  1  0.82464478  0.76027322  0.91414068  1
  S  S22  1  0.34612473  0.91053722  0.58586969  1
  S  S23  1  0.67536068  0.58950176  0.93565468  1
  S  S24  1  0.73406564  0.16140297  0.06441430  1
  S  S25  1  0.90299286  0.33861114  0.07262831  1
  S  S26  1  0.76589916  0.83034199  0.42726493  1
  S  S27  1  0.59692593  0.66964552  0.43555749  1
  S  S28  1  0.26593698  0.83859760  0.93558660  1
  S  S29  1  0.09700704  0.66138719  0.92737007  1
  S  S30  1  0.23410480  0.16966019  0.57273733  1
  S  S31  1  0.40308177  0.33035897  0.56444957  1
loop_
_geom_bond_atom_site_label_1
_geom_bond_atom_site_label_2
_geom_bond_distance
_geom_bond_site_symmetry_2
Bi0 S7 2.719264 1_555
Bi0 S6 2.719580 1_565
Bi0 S30 2.853724 1_565
Bi0 S29 2.853743 1_554
Bi1 S0 2.719378 1_555
Bi1 S5 2.719428 1_555
Bi1 S28 2.853190 1_555
Bi1 S31 2.854266 1_555
Bi2 S3 2.719293 1_555
Bi2 S2 2.719596 1_545
Bi2 S25 2.853708 1_556
Bi2 S26 2.853736 1_545
Bi3 S4 2.719381 1_555
Bi3 S1 2.719406 1_555
Bi3 S24 2.853160 1_555
Bi3 S27 2.854311 1_555
Bi4 S8 2.766676 1_555
Bi4 S11 2.766797 1_555
Bi4 S17 2.813195 1_555
Bi4 S18 2.813695 1_555
Bi4 S31 3.011087 1_555
Bi4 S28 3.011594 1_544
Bi5 S9 2.766626 1_555
Bi5 S10 2.766714 1_455
Bi5 S19 2.813060 1_556
Bi5 S16 2.813888 1_455
Bi5 S30 3.011062 1_555
Bi5 S29 3.011564 1_555
Bi6 S12 2.766650 1_555
Bi6 S15 2.766806 1_555
Bi6 S21 2.813227 1_555
Bi6 S22 2.813705 1_555
Bi6 S27 3.011061 1_555
Bi6 S24 3.011642 1_566
Bi7 S13 2.766627 1_555
Bi7 S14 2.766731 1_655
Bi7 S23 2.813065 1_554
Bi7 S20 2.813908 1_655
Bi7 S26 3.011035 1_555
Bi7 S25 3.011544 1_555
P0 S16 2.032745 1_555
P0 S18 2.032780 1_555
P0 S8 2.053138 1_555
P0 S10 2.053232 1_555
P1 S0 2.041971 1_554
P1 S7 2.041978 1_555
P1 S29 2.042143 1_554
P1 S28 2.042233 1_554
P2 S6 2.041937 1_555
P2 S5 2.042022 1_555
P2 S30 2.042281 1_555
P2 S31 2.042310 1_555
P3 S4 2.041974 1_556
P3 S3 2.041991 1_555
P3 S25 2.042144 1_556
P3 S24 2.042222 1_556
P4 S2 2.041979 1_555
P4 S1 2.042018 1_555
P4 S26 2.042261 1_555
P4 S27 2.042331 1_555
P5 S21 2.032781 1_554
P5 S23 2.032821 1_554
P5 S15 2.053108 1_554
P5 S13 2.053156 1_555
P6 S20 2.032751 1_555
P6 S22 2.032771 1_555
P6 S12 2.053145 1_555
P6 S14 2.053239 1_555
P7 S17 2.032769 1_556
P7 S19 2.032797 1_556
P7 S11 2.053117 1_556
P7 S9 2.053176 1_555
