# generated using pymatgen
data_FeCu2Sn
_symmetry_space_group_name_H-M   'P 1'
_cell_length_a   4.34456730
_cell_length_b   4.34456730
_cell_length_c   4.34456730
_cell_angle_alpha   60.00000000
_cell_angle_beta   60.00000000
_cell_angle_gamma   60.00000000
_symmetry_Int_Tables_number   1
_chemical_formula_structural   FeCu2Sn
_chemical_formula_sum   'Fe1 Cu2 Sn1'
_cell_volume   57.98619208
_cell_formula_units_Z   1
loop_
 _symmetry_equiv_pos_site_id
 _symmetry_equiv_pos_as_xyz
  1  'x, y, z'
loop_
 _atom_site_type_symbol
 _atom_site_label
 _atom_site_symmetry_multiplicity
 _atom_site_fract_x
 _atom_site_fract_y
 _atom_site_fract_z
 _atom_site_occupancy
  Fe  Fe0  1  0.50000000  0.50000000  0.50000000  1
  Cu  Cu0  1  0.25000000  0.25000000  0.25000000  1
  Cu  Cu1  1  0.75000000  0.75000000  0.75000000  1
  Sn  Sn0  1  0.00000000  0.00000000  0.00000000  1
loop_
_geom_bond_atom_site_label_1
_geom_bond_atom_site_label_2
_geom_bond_distance
_geom_bond_site_symmetry_2
Cu0 Sn0 2.660493 1_556
Cu0 Fe0 2.660493 1_555
Cu0 Fe0 2.660493 1_545
Cu0 Sn0 2.660493 1_565
Cu0 Fe0 2.660493 1_554
Cu0 Sn0 2.660493 1_555
Cu0 Fe0 2.660493 1_455
Cu0 Sn0 2.660493 1_655
Cu1 Fe0 2.660493 1_565
Cu1 Fe0 2.660493 1_555
Cu1 Sn0 2.660493 1_665
Cu1 Sn0 2.660493 1_656
Cu1 Sn0 2.660493 1_666
Cu1 Fe0 2.660493 1_556
Cu1 Fe0 2.660493 1_655
Cu1 Sn0 2.660493 1_566
