# generated using pymatgen
data_MgCoCuO2
_symmetry_space_group_name_H-M   'P 1'
_cell_length_a   7.74185454
_cell_length_b   7.74185587
_cell_length_c   7.70249297
_cell_angle_alpha   23.26218679
_cell_angle_beta   23.26219387
_cell_angle_gamma   22.84974224
_symmetry_Int_Tables_number   1
_chemical_formula_structural   MgCoCuO2
_chemical_formula_sum   'Mg1 Co1 Cu1 O2'
_cell_volume   62.48972090
_cell_formula_units_Z   1
loop_
 _symmetry_equiv_pos_site_id
 _symmetry_equiv_pos_as_xyz
  1  'x, y, z'
loop_
 _atom_site_type_symbol
 _atom_site_label
 _atom_site_symmetry_multiplicity
 _atom_site_fract_x
 _atom_site_fract_y
 _atom_site_fract_z
 _atom_site_occupancy
  Mg  Mg0  1  0.25845500  0.25845500  0.25376700  1
  Co  Co0  1  0.47323600  0.47323600  0.49365300  1
  Cu  Cu0  1  0.02859900  0.02859900  0.01847200  1
  O  O0  1  0.89239000  0.89239000  0.86977000  1
  O  O1  1  0.10773700  0.10773700  0.11433800  1
loop_
_geom_bond_atom_site_label_1
_geom_bond_atom_site_label_2
_geom_bond_distance
_geom_bond_site_symmetry_2
Mg0 O0 1.990364 1_454
Mg0 O0 1.990365 1_544
Mg0 O0 1.991081 1_445
Co0 O1 1.968473 1_565
Co0 O1 1.968474 1_655
Co0 O1 1.978371 1_556
Co0 O0 2.363612 1_545
Co0 O0 2.363614 1_455
Co0 O0 2.501174 1_554
Cu0 O1 1.910581 1_555
