# generated using pymatgen
data_MgCu4Ag2(PS4)2
_symmetry_space_group_name_H-M   'P 1'
_cell_length_a   6.41488460
_cell_length_b   6.56216471
_cell_length_c   8.04115528
_cell_angle_alpha   90.00000000
_cell_angle_beta   90.00000000
_cell_angle_gamma   94.56602790
_symmetry_Int_Tables_number   1
_chemical_formula_structural   MgCu4Ag2(PS4)2
_chemical_formula_sum   'Mg1 Cu4 Ag2 P2 S8'
_cell_volume   337.42238591
_cell_formula_units_Z   1
loop_
 _symmetry_equiv_pos_site_id
 _symmetry_equiv_pos_as_xyz
  1  'x, y, z'
loop_
 _atom_site_type_symbol
 _atom_site_label
 _atom_site_symmetry_multiplicity
 _atom_site_fract_x
 _atom_site_fract_y
 _atom_site_fract_z
 _atom_site_occupancy
  Mg  Mg0  1  0.66138853  0.90913023  0.50000000  1
  Cu  Cu0  1  0.99708762  0.16987272  0.24971814  1
  Cu  Cu1  1  0.99708762  0.16987272  0.75028186  1
  Cu  Cu2  1  0.52278202  0.90728491  0.17184975  1
  Cu  Cu3  1  0.52278202  0.90728491  0.82815025  1
  Ag  Ag0  1  0.00677666  0.65588853  0.50000000  1
  Ag  Ag1  1  0.55513115  0.31039416  0.00000000  1
  P  P0  1  0.48738061  0.32175246  0.50000000  1
  P  P1  1  0.05337766  0.66149417  0.00000000  1
  S  S0  1  0.35709234  0.16360748  0.28696820  1
  S  S1  1  0.35709234  0.16360748  0.71303180  1
  S  S2  1  0.85279694  0.84317647  0.24697567  1
  S  S3  1  0.85279694  0.84317647  0.75302433  1
  S  S4  1  0.81272309  0.29246860  0.50000000  1
  S  S5  1  0.38801213  0.65661803  0.00000000  1
  S  S6  1  0.38661144  0.60821762  0.50000000  1
  S  S7  1  0.95454988  0.34323605  0.00000000  1
loop_
_geom_bond_atom_site_label_1
_geom_bond_atom_site_label_2
_geom_bond_distance
_geom_bond_site_symmetry_2
Mg0 S2 2.432941 1_555
Mg0 S3 2.432941 1_555
Mg0 S6 2.540080 1_555
Mg0 S4 2.623264 1_565
Cu0 S2 2.266566 1_545
Cu0 S0 2.332339 1_655
Cu0 S7 2.334580 1_555
Cu0 S4 2.499560 1_555
Cu1 S3 2.266566 1_545
Cu1 S1 2.332339 1_655
Cu1 S7 2.334580 1_556
Cu1 S4 2.499560 1_555
Cu2 S0 2.258424 1_565
Cu2 S5 2.266345 1_555
Cu2 S2 2.272759 1_555
Cu3 S1 2.258424 1_565
Cu3 S5 2.266345 1_556
Cu3 S3 2.272759 1_555
Ag0 S6 2.481173 1_555
Ag0 S4 2.600830 1_455
Ag0 S2 2.611334 1_455
Ag0 S3 2.611334 1_455
Ag0 Mg0 2.873473 1_455
Ag1 S7 2.554119 1_555
Ag1 S5 2.588237 1_555
Ag1 S1 2.769786 1_554
Ag1 S0 2.769786 1_555
P0 S6 2.035952 1_555
P0 S4 2.111041 1_555
P0 S0 2.138190 1_555
P0 S1 2.138190 1_555
P1 S7 2.133726 1_455
P1 S5 2.149425 1_555
P1 S2 2.695428 1_455
P1 S3 2.695428 1_454
