# generated using pymatgen
data_Fe2Si
_symmetry_space_group_name_H-M   'P 1'
_cell_length_a   3.89993887
_cell_length_b   3.89993960
_cell_length_c   4.81744308
_cell_angle_alpha   90.00000000
_cell_angle_beta   90.00000000
_cell_angle_gamma   120.00000235
_symmetry_Int_Tables_number   1
_chemical_formula_structural   Fe2Si
_chemical_formula_sum   'Fe4 Si2'
_cell_volume   63.45456840
_cell_formula_units_Z   2
loop_
 _symmetry_equiv_pos_site_id
 _symmetry_equiv_pos_as_xyz
  1  'x, y, z'
loop_
 _atom_site_type_symbol
 _atom_site_label
 _atom_site_symmetry_multiplicity
 _atom_site_fract_x
 _atom_site_fract_y
 _atom_site_fract_z
 _atom_site_occupancy
  Fe  Fe0  1  0.33333300  0.66666700  0.67907210  1
  Fe  Fe1  1  0.66666700  0.33333300  0.32092790  1
  Fe  Fe2  1  -0.00000000  0.00000000  0.50000000  1
  Fe  Fe3  1  -0.00000000  0.00000000  -0.00000000  1
  Si  Si0  1  0.66666700  0.33333300  0.81881696  1
  Si  Si1  1  0.33333300  0.66666700  0.18118304  1
loop_
_geom_bond_atom_site_label_1
_geom_bond_atom_site_label_2
_geom_bond_distance
_geom_bond_site_symmetry_2
Fe0 Si0 2.350116 1_455
Fe0 Si0 2.350117 1_565
Fe0 Si0 2.350123 1_555
Fe0 Si1 2.398552 1_555
Fe0 Fe2 2.411230 1_565
Fe0 Fe2 2.411233 1_665
Fe0 Fe2 2.411233 1_555
Fe0 Si1 2.418891 1_556
Fe1 Si1 2.350116 1_655
Fe1 Si1 2.350117 1_545
Fe1 Si1 2.350123 1_555
Fe1 Si0 2.398552 1_555
Fe1 Fe2 2.411230 1_655
Fe1 Fe2 2.411233 1_555
Fe1 Fe2 2.411233 1_665
Fe1 Si0 2.418891 1_554
Fe2 Fe3 2.408722 1_556
Fe2 Fe3 2.408722 1_555
Fe2 Si0 2.725576 1_455
Fe2 Si1 2.725576 1_545
Fe2 Si0 2.725579 1_555
Fe2 Si1 2.725579 1_445
Fe2 Si0 2.725579 1_445
Fe2 Si1 2.725579 1_555
Fe3 Si1 2.414887 1_545
Fe3 Si0 2.414887 1_454
Fe3 Si0 2.414890 1_554
Fe3 Si1 2.414890 1_445
Fe3 Si1 2.414890 1_555
Fe3 Si0 2.414890 1_444
