# generated using pymatgen
data_HoGa3
_symmetry_space_group_name_H-M   'P 1'
_cell_length_a   4.22752208
_cell_length_b   4.22752208
_cell_length_c   4.22752208
_cell_angle_alpha   90.00000000
_cell_angle_beta   90.00000000
_cell_angle_gamma   90.00000000
_symmetry_Int_Tables_number   1
_chemical_formula_structural   HoGa3
_chemical_formula_sum   'Ho1 Ga3'
_cell_volume   75.55403338
_cell_formula_units_Z   1
loop_
 _symmetry_equiv_pos_site_id
 _symmetry_equiv_pos_as_xyz
  1  'x, y, z'
loop_
 _atom_site_type_symbol
 _atom_site_label
 _atom_site_symmetry_multiplicity
 _atom_site_fract_x
 _atom_site_fract_y
 _atom_site_fract_z
 _atom_site_occupancy
  Ho  Ho0  1  0.00000000  0.00000000  0.00000000  1
  Ga  Ga0  1  0.00000000  0.50000000  0.50000000  1
  Ga  Ga1  1  0.50000000  0.50000000  0.00000000  1
  Ga  Ga2  1  0.50000000  0.00000000  0.50000000  1
loop_
_geom_bond_atom_site_label_1
_geom_bond_atom_site_label_2
_geom_bond_distance
_geom_bond_site_symmetry_2
Ga0 Ga2 2.989310 1_555
Ga0 Ga1 2.989310 1_556
Ga0 Ho0 2.989310 1_555
Ga0 Ho0 2.989310 1_556
Ga0 Ga1 2.989310 1_555
Ga0 Ga2 2.989310 1_565
Ga0 Ho0 2.989310 1_565
Ga0 Ga1 2.989310 1_456
Ga0 Ho0 2.989310 1_566
Ga0 Ga1 2.989310 1_455
Ga0 Ga2 2.989310 1_465
Ga0 Ga2 2.989310 1_455
Ga1 Ga2 2.989310 1_555
Ga1 Ga2 2.989310 1_564
Ga1 Ga2 2.989310 1_554
Ga1 Ga2 2.989310 1_565
Ga1 Ho0 2.989310 1_565
Ga1 Ho0 2.989310 1_655
Ga1 Ho0 2.989310 1_665
Ga1 Ho0 2.989310 1_555
Ga2 Ho0 2.989310 1_556
Ga2 Ho0 2.989310 1_655
Ga2 Ho0 2.989310 1_656
Ga2 Ho0 2.989310 1_555
