# generated using pymatgen
data_Na4Zn2Ga2SiS5O24
_symmetry_space_group_name_H-M   'P 1'
_cell_length_a   8.79181532
_cell_length_b   8.75942671
_cell_length_c   22.26026443
_cell_angle_alpha   90.46088027
_cell_angle_beta   89.30989993
_cell_angle_gamma   119.91574807
_symmetry_Int_Tables_number   1
_chemical_formula_structural   Na4Zn2Ga2SiS5O24
_chemical_formula_sum   'Na12 Zn6 Ga6 Si3 S15 O72'
_cell_volume   1485.76652661
_cell_formula_units_Z   3
loop_
 _symmetry_equiv_pos_site_id
 _symmetry_equiv_pos_as_xyz
  1  'x, y, z'
loop_
 _atom_site_type_symbol
 _atom_site_label
 _atom_site_symmetry_multiplicity
 _atom_site_fract_x
 _atom_site_fract_y
 _atom_site_fract_z
 _atom_site_occupancy
  Na  Na0  1  0.99660959  0.62976613  0.24355857  1
  Na  Na1  1  0.99612585  0.35968110  0.75443343  1
  Na  Na2  1  0.37342966  0.99579216  0.75020304  1
  Na  Na3  1  0.66119396  0.97079039  0.58733117  1
  Na  Na4  1  0.67530019  0.69045900  0.08021807  1
  Na  Na5  1  0.33586396  0.03699890  0.42021217  1
  Na  Na6  1  0.00903003  0.00195776  0.50122927  1
  Na  Na7  1  0.00817076  0.99835318  0.00156747  1
  Na  Na8  1  0.66658601  0.33457858  0.83893863  1
  Na  Na9  1  0.66663578  0.33354143  0.33161661  1
  Na  Na10  1  0.32426064  0.66408784  0.16358052  1
  Na  Na11  1  0.34360813  0.67176611  0.66697074  1
  Zn  Zn0  1  0.99472674  0.00237968  0.34895863  1
  Zn  Zn1  1  0.67443912  0.33598072  0.17599597  1
  Zn  Zn2  1  0.67861384  0.34511107  0.98786834  1
  Zn  Zn3  1  0.65609775  0.32906143  0.48671437  1
  Zn  Zn4  1  0.33834644  0.66334140  0.31498088  1
  Zn  Zn5  1  0.35642925  0.68064658  0.81757790  1
  Ga  Ga0  1  0.98371047  0.00045079  0.85327407  1
  Ga  Ga1  1  0.00179631  0.99387375  0.64920660  1
  Ga  Ga2  1  0.00713291  0.99915782  0.14747957  1
  Ga  Ga3  1  0.65886965  0.31250334  0.68135873  1
  Ga  Ga4  1  0.31601288  0.66677729  0.01729980  1
  Ga  Ga5  1  0.32766166  0.67202515  0.51798712  1
  Si  Si0  1  0.71218443  0.99823457  0.74756694  1
  Si  Si1  1  0.36064770  0.03426552  0.58197209  1
  Si  Si2  1  0.96781946  0.63227767  0.08493061  1
  S  S0  1  0.29703659  0.00511690  0.25089187  1
  S  S1  1  0.70490351  0.70823644  0.25010387  1
  S  S2  1  0.99854283  0.28718442  0.24953787  1
  S  S3  1  0.29189960  0.28981097  0.75016543  1
  S  S4  1  0.99185811  0.70622773  0.75018600  1
  S  S5  1  0.96483492  0.33796752  0.58270665  1
  S  S6  1  0.66615363  0.62160914  0.58377380  1
  S  S7  1  0.66624016  0.03652683  0.08278149  1
  S  S8  1  0.36785851  0.33139798  0.08284765  1
  S  S9  1  0.62633054  0.66598520  0.91765241  1
  S  S10  1  0.04337340  0.37279373  0.91457991  1
  S  S11  1  0.32952663  0.96476723  0.91520726  1
  S  S12  1  0.62887777  0.95785953  0.41699625  1
  S  S13  1  0.33379108  0.37976862  0.41774730  1
  S  S14  1  0.03659694  0.66196759  0.41622628  1
  O  O0  1  0.21999667  0.02904115  0.30806551  1
  O  O1  1  0.81778580  0.78895359  0.30352773  1
  O  O2  1  0.97743274  0.18695424  0.30490072  1
  O  O3  1  0.21634515  0.17408743  0.80393241  1
  O  O4  1  0.96867839  0.78874437  0.80523936  1
  O  O5  1  0.84359595  0.04624022  0.80496079  1
  O  O6  1  0.80426009  0.97604518  0.68620738  1
  O  O7  1  0.18192330  0.20919705  0.69609869  1
  O  O8  1  0.03305744  0.82113738  0.69655686  1
  O  O9  1  0.78813430  0.81601880  0.19486949  1
  O  O10  1  0.02398500  0.20155687  0.19518174  1
  O  O11  1  0.17816540  0.97293072  0.19884233  1
  O  O12  1  0.88979801  0.37201525  0.63937182  1
  O  O13  1  0.49067932  0.11613904  0.64140999  1
  O  O14  1  0.64207776  0.51431626  0.63858421  1
  O  O15  1  0.89430308  0.52478543  0.14768099  1
  O  O16  1  0.62714540  0.10625515  0.13775982  1
  O  O17  1  0.47612412  0.36518362  0.13732578  1
  O  O18  1  0.44044854  0.29349756  0.02863767  1
  O  O19  1  0.83610638  0.55546474  0.02848872  1
  O  O20  1  0.69372351  0.14124751  0.02855355  1
  O  O21  1  0.44049967  0.14386359  0.52079841  1
  O  O22  1  0.69942191  0.54922285  0.52892903  1
  O  O23  1  0.85240215  0.30683242  0.53040846  1
  O  O24  1  0.54358892  0.69514065  0.97287168  1
  O  O25  1  0.15573809  0.45821573  0.96782684  1
  O  O26  1  0.30058201  0.84963425  0.96812958  1
  O  O27  1  0.54656155  0.85104671  0.47335232  1
  O  O28  1  0.30895181  0.46536554  0.47293433  1
  O  O29  1  0.15477229  0.69504322  0.46938310  1
  O  O30  1  0.11610480  0.63840970  0.36006131  1
  O  O31  1  0.51350295  0.87507444  0.36453359  1
  O  O32  1  0.35553522  0.48243397  0.36304418  1
  O  O33  1  0.12244545  0.47520333  0.85846503  1
  O  O34  1  0.35517991  0.88778370  0.85850586  1
  O  O35  1  0.52307622  0.64314784  0.86319375  1
  O  O36  1  0.02750968  0.82816126  0.41314272  1
  O  O37  1  0.80276377  0.97250611  0.41223607  1
  O  O38  1  0.17593022  0.19930638  0.41495478  1
  O  O39  1  0.03307951  0.19484307  0.91175585  1
  O  O40  1  0.16495183  0.97769640  0.90994671  1
  O  O41  1  0.80564101  0.83079719  0.91299700  1
  O  O42  1  0.97649985  0.17497803  0.58909474  1
  O  O43  1  0.16718354  0.01363970  0.59317080  1
  O  O44  1  0.81962441  0.80469687  0.58914127  1
  O  O45  1  0.98142344  0.82974088  0.09203557  1
  O  O46  1  0.82696275  0.01934085  0.09041904  1
  O  O47  1  0.18685504  0.17963948  0.09128220  1
  O  O48  1  0.69690782  0.18352419  0.74343997  1
  O  O49  1  0.47123986  0.31160027  0.74304277  1
  O  O50  1  0.83182073  0.53073179  0.74251274  1
  O  O51  1  0.68675659  0.53024501  0.24555858  1
  O  O52  1  0.84047807  0.30716636  0.24613697  1
  O  O53  1  0.47168745  0.16082349  0.24308626  1
  O  O54  1  0.64459659  0.50888135  0.92182986  1
  O  O55  1  0.86585596  0.34918581  0.92078505  1
  O  O56  1  0.48611414  0.13965814  0.92282212  1
  O  O57  1  0.64530096  0.13542879  0.42186973  1
  O  O58  1  0.49216292  0.35985621  0.42093343  1
  O  O59  1  0.86273657  0.50581863  0.42413200  1
  O  O60  1  0.36044480  0.49888054  0.07502697  1
  O  O61  1  0.16301888  0.65273297  0.07584591  1
  O  O62  1  0.51420360  0.85059496  0.07538102  1
  O  O63  1  0.35568542  0.84048767  0.57638786  1
  O  O64  1  0.50533652  0.63984675  0.57894501  1
  O  O65  1  0.14303748  0.49374738  0.57659449  1
  O  O66  1  0.30552628  0.83816775  0.25434069  1
  O  O67  1  0.53039827  0.69435500  0.25501767  1
  O  O68  1  0.15729900  0.46838549  0.25247837  1
  O  O69  1  0.30207942  0.46274782  0.75673203  1
  O  O70  1  0.14673021  0.67971480  0.75506375  1
  O  O71  1  0.51286773  0.83339691  0.75212458  1
loop_
_geom_bond_atom_site_label_1
_geom_bond_atom_site_label_2
_geom_bond_distance
_geom_bond_site_symmetry_2
Na0 O15 2.323653 1_555
Na0 O51 2.410808 1_555
Na0 O66 2.414477 1_655
Na0 O52 2.450371 1_555
Na0 O68 2.456993 1_655
Na0 O11 2.792541 1_655
Na0 O30 2.796106 1_655
Na0 O1 2.881716 1_555
Na1 O48 2.306908 1_555
Na1 O69 2.373496 1_655
Na1 O70 2.430927 1_655
Na1 O33 2.554105 1_655
Na1 O50 2.564471 1_555
Na1 O5 2.634842 1_555
Na1 O12 2.758385 1_555
Na1 O7 2.856772 1_655
Na2 O71 2.295608 1_555
Na2 O49 2.459333 1_565
Na2 O48 2.478672 1_565
Na2 O70 2.478929 1_555
Na2 O34 2.570796 1_555
Na2 O13 2.633602 1_565
Na2 O3 2.803296 1_565
Na2 O8 2.865623 1_555
Na3 O63 2.351581 1_555
Na3 O42 2.437444 1_565
Na3 O44 2.466188 1_555
Na3 O64 2.520180 1_555
Na3 O6 2.536920 1_555
Na3 O13 2.674543 1_565
Na3 O27 2.741831 1_555
Na3 O23 2.858144 1_565
Na4 O45 2.353272 1_555
Na4 O60 2.421410 1_555
Na4 O62 2.443948 1_555
Na4 O46 2.508765 1_565
Na4 O19 2.515821 1_555
Na4 O24 2.677348 1_554
Na4 O9 2.763125 1_555
Na4 O17 2.797957 1_555
Na5 O36 2.404090 1_545
Na5 O57 2.410022 1_555
Na5 O21 2.427539 1_555
Na5 O58 2.451516 1_555
Na5 O38 2.452094 1_555
Na5 O0 2.694864 1_555
Na5 O29 2.821156 1_545
Na5 O31 2.849851 1_545
Na6 O43 2.460863 1_555
Na6 O38 2.507015 1_555
Na6 O36 2.525833 1_545
Na6 O42 2.564268 1_455
Na6 O44 2.587298 1_445
Na6 O37 2.625120 1_445
Na7 O45 2.445864 1_455
Na7 O40 2.503475 1_554
Na7 O47 2.552279 1_565
Na7 O41 2.577437 1_454
Na7 O39 2.583806 1_564
Na7 O46 2.587321 1_465
Na8 O54 2.452278 1_555
Na8 O56 2.489411 1_555
Na8 O55 2.500926 1_555
Na8 O48 2.575627 1_555
Na8 O50 2.676641 1_555
Na8 O49 2.698804 1_555
Na9 O52 2.507005 1_555
Na9 O51 2.531953 1_555
Na9 O53 2.560697 1_555
Na9 O58 2.575058 1_555
Na9 O57 2.608694 1_555
Na9 O59 2.632741 1_555
Na10 O61 2.399296 1_555
Na10 O60 2.545444 1_555
Na10 O68 2.546376 1_555
Na10 O62 2.561989 1_555
Na10 O66 2.574296 1_555
Na10 O67 2.664326 1_555
Na11 O71 2.394850 1_555
Na11 O63 2.479435 1_555
Na11 O64 2.502018 1_555
Na11 O69 2.617705 1_555
Na11 O65 2.623104 1_555
Na11 O70 2.623467 1_555
Ga0 O5 1.834846 1_555
Ga0 O39 2.005816 1_655
Ga0 O41 2.021842 1_545
Ga0 O4 2.080082 1_545
Ga0 O40 2.130619 1_645
Ga0 O3 2.138406 1_655
Ga1 O43 1.846310 1_565
Ga1 O6 1.848243 1_455
Ga1 O8 1.980740 1_555
Ga1 O7 2.045421 1_565
Ga1 O44 2.113659 1_455
Ga1 O42 2.179401 1_465
Ga2 O45 1.849123 1_455
Ga2 O10 2.001044 1_565
Ga2 O11 2.002824 1_555
Ga2 O47 2.013323 1_565
Ga2 O9 2.071445 1_455
Ga2 O46 2.117818 1_465
Ga3 O13 1.845539 1_555
Ga3 O48 1.926431 1_555
Ga3 O12 2.042986 1_555
Ga3 O14 2.084274 1_555
Ga3 O49 2.130557 1_555
Ga3 O50 2.219924 1_555
Ga4 O61 1.821587 1_555
Ga4 O25 1.993288 1_554
Ga4 O26 2.007602 1_554
Ga4 O24 2.122145 1_554
Ga4 O62 2.126647 1_555
Ga4 O60 2.140633 1_555
Ga5 O63 1.882142 1_555
Ga5 O29 1.967357 1_555
Ga5 O28 1.996871 1_555
Ga5 O27 2.029488 1_555
Ga5 O65 2.056408 1_555
Ga5 O64 2.203911 1_555
O0 S0 1.496319 1_555
O0 Zn0 2.074684 1_455
O1 S1 1.487987 1_555
O1 Zn0 2.011062 1_565
O2 S2 1.474250 1_555
O2 Zn0 1.968046 1_555
O3 S3 1.493320 1_555
O4 S4 1.480704 1_555
O5 Si0 1.638975 1_545
O6 Si0 1.638521 1_555
O7 S3 1.488407 1_555
O8 S4 1.488201 1_455
O9 S1 1.498820 1_555
O10 S2 1.490935 1_455
O11 S0 1.498053 1_565
O12 S5 1.511754 1_555
O13 Si1 1.665909 1_555
O14 S6 1.493487 1_555
O15 Si2 1.627225 1_555
O15 Zn1 1.915105 1_555
O16 S7 1.475194 1_555
O16 Zn1 2.023105 1_555
O17 S8 1.485023 1_555
O17 Zn1 2.081093 1_555
O18 S8 1.469708 1_555
O18 Zn2 2.104527 1_554
O19 Si2 1.617568 1_555
O19 Zn2 1.894331 1_554
O20 S7 1.465155 1_555
O20 Zn2 2.071769 1_554
O21 Si1 1.610772 1_555
O21 Zn3 1.928278 1_555
O22 S6 1.463561 1_555
O22 Zn3 1.998496 1_555
O23 S5 1.469863 1_555
O23 Zn3 2.083568 1_555
O24 S9 1.504673 1_555
O25 S10 1.489077 1_555
O26 S11 1.491835 1_555
O27 S12 1.514772 1_555
O28 S13 1.503682 1_555
O29 S14 1.512423 1_555
O30 S14 1.487616 1_555
O30 Zn4 2.098365 1_555
O31 S12 1.483178 1_555
O31 Zn4 2.046249 1_555
O32 S13 1.472619 1_555
O32 Zn4 1.987124 1_555
O33 S10 1.491105 1_555
O33 Zn5 2.141816 1_555
O34 S11 1.493272 1_555
O34 Zn5 2.028611 1_555
O35 S9 1.474843 1_555
O35 Zn5 1.951102 1_555
O36 S14 1.499361 1_555
O36 Zn0 2.221929 1_465
O37 S12 1.471570 1_555
O37 Zn0 2.099774 1_565
O38 S13 1.497010 1_555
O38 Zn0 2.224024 1_455
O39 S10 1.516470 1_555
O40 S11 1.512559 1_555
O41 S9 1.519383 1_555
O42 S5 1.489535 1_555
O43 Si1 1.634577 1_555
O44 S6 1.499749 1_555
O45 Si2 1.679514 1_555
O46 S7 1.505534 1_555
O47 S8 1.490479 1_555
O48 Si0 1.697303 1_545
O49 S3 1.497307 1_555
O50 S4 1.488671 1_555
O51 S1 1.488702 1_555
O51 Zn1 2.254542 1_555
O52 S2 1.487592 1_555
O52 Zn1 2.249724 1_555
O53 S0 1.468545 1_555
O53 Zn1 2.237558 1_555
O54 S9 1.466646 1_555
O54 Zn2 2.186501 1_555
O55 S10 1.473424 1_655
O55 Zn2 2.196406 1_555
O56 S11 1.472639 1_545
O56 Zn2 2.275672 1_555
O57 S12 1.491829 1_545
O57 Zn3 2.184651 1_555
O58 S13 1.489625 1_555
O58 Zn3 2.176975 1_555
O59 S14 1.466373 1_655
O59 Zn3 2.192377 1_555
O60 S8 1.512136 1_555
O61 Si2 1.644295 1_455
O62 S7 1.515227 1_565
O63 Si1 1.679683 1_565
O64 S6 1.505106 1_555
O65 S5 1.483425 1_455
O66 S0 1.503607 1_565
O66 Zn4 2.175755 1_555
O67 S1 1.480091 1_555
O67 Zn4 2.049507 1_555
O68 S2 1.504155 1_455
O68 Zn4 2.165522 1_555
O69 S3 1.478378 1_555
O69 Zn5 2.184070 1_555
O70 S4 1.496354 1_455
O70 Zn5 2.319949 1_555
O71 Si0 1.624859 1_555
O71 Zn5 1.988042 1_555
