# generated using pymatgen
data_NaH4BrO2
_symmetry_space_group_name_H-M   'P 1'
_cell_length_a   10.47120300
_cell_length_b   6.64369700
_cell_length_c   6.80048985
_cell_angle_alpha   66.55402820
_cell_angle_beta   90.00000000
_cell_angle_gamma   90.00000000
_symmetry_Int_Tables_number   1
_chemical_formula_structural   NaH4BrO2
_chemical_formula_sum   'Na4 H16 Br4 O8'
_cell_volume   434.03246704
_cell_formula_units_Z   4
loop_
 _symmetry_equiv_pos_site_id
 _symmetry_equiv_pos_as_xyz
  1  'x, y, z'
loop_
 _atom_site_type_symbol
 _atom_site_label
 _atom_site_symmetry_multiplicity
 _atom_site_fract_x
 _atom_site_fract_y
 _atom_site_fract_z
 _atom_site_occupancy
  Na  Na0  1  0.66772300  0.01314200  0.04327100  1
  Na  Na1  1  0.33227700  0.98685800  0.95672900  1
  Na  Na2  1  0.16772300  0.98685800  0.45672900  1
  Na  Na3  1  0.83227700  0.01314200  0.54327100  1
  H  H0  1  0.96251900  0.23481000  0.13483600  1
  H  H1  1  0.46251900  0.76519000  0.36516400  1
  H  H2  1  0.03748100  0.76519000  0.86516400  1
  H  H3  1  0.53748100  0.23481000  0.63483600  1
  H  H4  1  0.01575200  0.36483000  0.26501400  1
  H  H5  1  0.51575200  0.63517000  0.23498600  1
  H  H6  1  0.98424800  0.63517000  0.73498600  1
  H  H7  1  0.48424800  0.36483000  0.76501400  1
  H  H8  1  0.78961300  0.64150600  0.41543700  1
  H  H9  1  0.28961300  0.35849400  0.08456300  1
  H  H10  1  0.21038700  0.35849400  0.58456300  1
  H  H11  1  0.71038700  0.64150600  0.91543700  1
  H  H12  1  0.59788800  0.77456900  0.77715000  1
  H  H13  1  0.09788800  0.22543100  0.72285000  1
  H  H14  1  0.40211200  0.22543100  0.22285000  1
  H  H15  1  0.90211200  0.77456900  0.27715000  1
  Br  Br0  1  0.88538600  0.29925900  0.78981600  1
  Br  Br1  1  0.38538600  0.70074100  0.71018400  1
  Br  Br2  1  0.11461400  0.70074100  0.21018400  1
  Br  Br3  1  0.61461400  0.29925900  0.28981600  1
  O  O0  1  0.01073000  0.78337300  0.71970200  1
  O  O1  1  0.31418400  0.20846600  0.17790900  1
  O  O2  1  0.18581600  0.20846600  0.67790900  1
  O  O3  1  0.68581600  0.79153400  0.82209100  1
  O  O4  1  0.51073000  0.21662700  0.78029800  1
  O  O5  1  0.98927000  0.21662700  0.28029800  1
  O  O6  1  0.48927000  0.78337300  0.21970200  1
  O  O7  1  0.81418400  0.79153400  0.32209100  1
loop_
_geom_bond_atom_site_label_1
_geom_bond_atom_site_label_2
_geom_bond_distance
_geom_bond_site_symmetry_2
Na0 O6 2.409162 1_545
Na0 O4 2.409217 1_554
Na0 O7 2.427633 1_545
Na0 O3 2.495639 1_544
Na1 O4 2.409162 1_565
Na1 O6 2.409217 1_556
Na1 O2 2.427633 1_565
Na1 O1 2.495639 1_566
Na2 O5 2.409162 1_465
Na2 O0 2.409217 1_555
Na2 O1 2.427633 1_565
Na2 O2 2.495639 1_565
Na3 O0 2.409162 1_645
Na3 O5 2.409217 1_555
Na3 O3 2.427633 1_545
Na3 O7 2.495639 1_545
H0 O5 0.988183 1_555
H1 O6 0.988183 1_555
H2 O0 0.988183 1_555
H3 O4 0.988183 1_555
H4 O5 0.987789 1_455
H5 O6 0.987789 1_555
H6 O0 0.987789 1_655
H7 O4 0.987789 1_555
H8 O7 0.979363 1_555
H9 O1 0.979363 1_555
H10 O2 0.979363 1_555
H11 O3 0.979363 1_555
H12 O3 0.990570 1_555
H13 O2 0.990570 1_555
H14 O1 0.990570 1_555
H15 O7 0.990570 1_555
Br0 Na0 3.028476 1_556
Br0 Na3 3.044639 1_555
Br1 Na2 3.028476 1_555
Br1 Na1 3.044639 1_555
Br2 Na1 3.028476 1_554
Br2 Na2 3.044639 1_555
Br3 Na3 3.028476 1_555
Br3 Na0 3.044639 1_555
