# generated using pymatgen
data_Hf3B2Ir5
_symmetry_space_group_name_H-M   'P 1'
_cell_length_a   9.28296100
_cell_length_b   9.28296100
_cell_length_c   3.39401900
_cell_angle_alpha   90.00000000
_cell_angle_beta   90.00000000
_cell_angle_gamma   90.00000000
_symmetry_Int_Tables_number   1
_chemical_formula_structural   Hf3B2Ir5
_chemical_formula_sum   'Hf6 B4 Ir10'
_cell_volume   292.47403786
_cell_formula_units_Z   2
loop_
 _symmetry_equiv_pos_site_id
 _symmetry_equiv_pos_as_xyz
  1  'x, y, z'
loop_
 _atom_site_type_symbol
 _atom_site_label
 _atom_site_symmetry_multiplicity
 _atom_site_fract_x
 _atom_site_fract_y
 _atom_site_fract_z
 _atom_site_occupancy
  Hf  Hf0  1  0.17587900  0.67587900  0.00000000  1
  Hf  Hf1  1  0.32412100  0.17587900  0.00000000  1
  Hf  Hf2  1  0.82412100  0.32412100  0.00000000  1
  Hf  Hf3  1  0.50000000  0.50000000  0.00000000  1
  Hf  Hf4  1  0.67587900  0.82412100  0.00000000  1
  Hf  Hf5  1  0.00000000  0.00000000  0.00000000  1
  B  B0  1  0.38072700  0.88072700  0.00000000  1
  B  B1  1  0.11927300  0.38072700  0.00000000  1
  B  B2  1  0.88072700  0.61927300  0.00000000  1
  B  B3  1  0.61927300  0.11927300  0.00000000  1
  Ir  Ir0  1  0.22003200  0.92737000  0.50000000  1
  Ir  Ir1  1  0.92737000  0.77996800  0.50000000  1
  Ir  Ir2  1  0.42737000  0.72003200  0.50000000  1
  Ir  Ir3  1  0.57263000  0.27996800  0.50000000  1
  Ir  Ir4  1  0.72003200  0.57263000  0.50000000  1
  Ir  Ir5  1  0.27996800  0.42737000  0.50000000  1
  Ir  Ir6  1  0.07263000  0.22003200  0.50000000  1
  Ir  Ir7  1  0.00000000  0.50000000  0.50000000  1
  Ir  Ir8  1  0.50000000  0.00000000  0.50000000  1
  Ir  Ir9  1  0.77996800  0.07263000  0.50000000  1
loop_
_geom_bond_atom_site_label_1
_geom_bond_atom_site_label_2
_geom_bond_distance
_geom_bond_site_symmetry_2
Hf0 Ir7 2.865504 1_555
Hf0 Ir7 2.865504 1_554
Hf0 Ir0 2.915151 1_555
Hf0 Ir0 2.915151 1_554
Hf0 Ir2 2.915151 1_555
Hf0 Ir2 2.915151 1_554
Hf0 Ir1 3.022461 1_454
Hf0 Ir1 3.022461 1_455
Hf0 Ir5 3.022461 1_555
Hf0 Ir5 3.022461 1_554
Hf1 Ir8 2.865504 1_554
Hf1 Ir8 2.865504 1_555
Hf1 Ir6 2.915151 1_555
Hf1 Ir6 2.915151 1_554
Hf1 Ir5 2.915151 1_554
Hf1 Ir5 2.915151 1_555
Hf1 Ir0 3.022461 1_545
Hf1 Ir0 3.022461 1_544
Hf1 Ir3 3.022461 1_555
Hf1 Ir3 3.022461 1_554
Hf2 Ir7 2.865504 1_655
Hf2 Ir7 2.865504 1_654
Hf2 Ir3 2.915151 1_555
Hf2 Ir3 2.915151 1_554
Hf2 Ir9 2.915151 1_554
Hf2 Ir9 2.915151 1_555
Hf2 Ir4 3.022461 1_555
Hf2 Ir4 3.022461 1_554
Hf2 Ir6 3.022461 1_654
Hf2 Ir6 3.022461 1_655
Hf3 Ir5 2.739785 1_555
Hf3 Ir2 2.739785 1_555
Hf3 Ir5 2.739785 1_554
Hf3 Ir2 2.739785 1_554
Hf3 Ir3 2.739785 1_555
Hf3 Ir3 2.739785 1_554
Hf3 Ir4 2.739785 1_555
Hf3 Ir4 2.739785 1_554
Hf4 Ir8 2.865504 1_565
Hf4 Ir8 2.865504 1_564
Hf4 Ir4 2.915151 1_555
Hf4 Ir4 2.915151 1_554
Hf4 Ir1 2.915151 1_555
Hf4 Ir1 2.915151 1_554
Hf4 Ir9 3.022461 1_565
Hf4 Ir9 3.022461 1_564
Hf4 Ir2 3.022461 1_555
Hf4 Ir2 3.022461 1_554
Hf5 Ir0 2.739785 1_544
Hf5 Ir6 2.739785 1_555
Hf5 Ir0 2.739785 1_545
Hf5 Ir6 2.739785 1_554
Hf5 Ir9 2.739785 1_455
Hf5 Ir1 2.739785 1_445
Hf5 Ir9 2.739785 1_454
Hf5 Ir1 2.739785 1_444
B0 Ir2 2.300557 1_555
B0 Ir2 2.300557 1_554
B0 Ir0 2.300557 1_555
B0 Ir0 2.300557 1_554
B0 Ir8 2.309038 1_565
B0 Ir8 2.309038 1_564
B0 Hf0 2.689263 1_555
B0 Hf4 2.789818 1_555
B0 Hf1 2.789818 1_565
B1 Ir6 2.300557 1_555
B1 Ir6 2.300557 1_554
B1 Ir5 2.300557 1_554
B1 Ir5 2.300557 1_555
B1 Ir7 2.309038 1_555
B1 Ir7 2.309038 1_554
B1 Hf1 2.689263 1_555
B1 Hf2 2.789818 1_455
B1 Hf0 2.789818 1_555
B2 Ir4 2.300557 1_555
B2 Ir4 2.300557 1_554
B2 Ir1 2.300557 1_555
B2 Ir1 2.300557 1_554
B2 Ir7 2.309038 1_654
B2 Ir7 2.309038 1_655
B2 Hf4 2.689263 1_555
B2 Hf2 2.789818 1_555
B2 Hf0 2.789818 1_655
B3 Ir9 2.300557 1_554
B3 Ir9 2.300557 1_555
B3 Ir3 2.300557 1_555
B3 Ir3 2.300557 1_554
B3 Ir8 2.309038 1_555
B3 Ir8 2.309038 1_554
B3 Hf2 2.689263 1_555
B3 Hf4 2.789818 1_545
B3 Hf1 2.789818 1_555
