# generated using pymatgen
data_MgNbVO4
_symmetry_space_group_name_H-M   'P 1'
_cell_length_a   5.37552251
_cell_length_b   5.37552107
_cell_length_c   5.37552165
_cell_angle_alpha   134.01667104
_cell_angle_beta   134.19509776
_cell_angle_gamma   66.92277280
_symmetry_Int_Tables_number   1
_chemical_formula_structural   MgNbVO4
_chemical_formula_sum   'Mg1 Nb1 V1 O4'
_cell_volume   78.79217857
_cell_formula_units_Z   1
loop_
 _symmetry_equiv_pos_site_id
 _symmetry_equiv_pos_as_xyz
  1  'x, y, z'
loop_
 _atom_site_type_symbol
 _atom_site_label
 _atom_site_symmetry_multiplicity
 _atom_site_fract_x
 _atom_site_fract_y
 _atom_site_fract_z
 _atom_site_occupancy
  Mg  Mg0  1  0.24202700  0.74202700  0.50000000  1
  Nb  Nb0  1  0.99420400  0.99420400  0.00000000  1
  V  V0  1  0.74900200  0.24900200  0.50000000  1
  O  O0  1  0.49041300  0.99041300  0.50000000  1
  O  O1  1  0.23138600  0.23138600  0.00000000  1
  O  O2  1  0.00000500  0.50000500  0.50000000  1
  O  O3  1  0.75725000  0.75725000  0.00000000  1
loop_
_geom_bond_atom_site_label_1
_geom_bond_atom_site_label_2
_geom_bond_distance
_geom_bond_site_symmetry_2
Mg0 O3 2.096407 1_455
Mg0 O3 2.096407 1_556
Mg0 O1 2.101832 1_555
Mg0 O1 2.101832 1_566
Mg0 O2 2.170729 1_555
Mg0 O0 2.227809 1_555
Nb0 O0 2.092233 1_655
Nb0 O0 2.092233 1_554
Nb0 O2 2.100308 1_665
Nb0 O2 2.100308 1_654
Nb0 O3 2.125274 1_555
Nb0 O1 2.127319 1_665
O0 V0 2.319321 1_565
O1 V0 2.097914 1_454
O1 V0 2.097914 1_555
O2 V0 2.251281 1_455
O3 V0 2.100966 1_554
O3 V0 2.100966 1_565
