# generated using pymatgen
data_LiFeP2O7
_symmetry_space_group_name_H-M   'P 1'
_cell_length_a   8.38501700
_cell_length_b   6.70051500
_cell_length_c   9.19989195
_cell_angle_alpha   76.32627001
_cell_angle_beta   90.00000000
_cell_angle_gamma   90.00000000
_symmetry_Int_Tables_number   1
_chemical_formula_structural   LiFeP2O7
_chemical_formula_sum   'Li4 Fe4 P8 O28'
_cell_volume   502.23631646
_cell_formula_units_Z   4
loop_
 _symmetry_equiv_pos_site_id
 _symmetry_equiv_pos_as_xyz
  1  'x, y, z'
loop_
 _atom_site_type_symbol
 _atom_site_label
 _atom_site_symmetry_multiplicity
 _atom_site_fract_x
 _atom_site_fract_y
 _atom_site_fract_z
 _atom_site_occupancy
  Li  Li0  1  0.07731900  0.73496500  0.24887400  1
  Li  Li1  1  0.92268100  0.26503500  0.75112600  1
  Li  Li2  1  0.57731900  0.26503500  0.75112600  1
  Li  Li3  1  0.42268100  0.73496500  0.24887400  1
  Fe  Fe0  1  0.44243500  0.75116500  0.75022000  1
  Fe  Fe1  1  0.05756500  0.75116500  0.75022000  1
  Fe  Fe2  1  0.94243500  0.24883500  0.24978000  1
  Fe  Fe3  1  0.55756500  0.24883500  0.24978000  1
  P  P0  1  0.75000000  0.50093800  0.44401300  1
  P  P1  1  0.25000000  0.49906200  0.55598700  1
  P  P2  1  0.75000000  0.92442600  0.52630000  1
  P  P3  1  0.75000000  0.57512000  0.97199700  1
  P  P4  1  0.75000000  0.00310300  0.05259100  1
  P  P5  1  0.25000000  0.42488000  0.02800300  1
  P  P6  1  0.25000000  0.99689700  0.94740900  1
  P  P7  1  0.25000000  0.07557400  0.47370000  1
  O  O0  1  0.25000000  0.25721900  0.55719300  1
  O  O1  1  0.25000000  0.23785500  0.94986800  1
  O  O2  1  0.09678400  0.97918700  0.85587900  1
  O  O3  1  0.40321600  0.97918700  0.85587900  1
  O  O4  1  0.59678400  0.02081300  0.14412100  1
  O  O5  1  0.90321600  0.02081300  0.14412100  1
  O  O6  1  0.75000000  0.76214500  0.05013200  1
  O  O7  1  0.75000000  0.38763400  0.10729300  1
  O  O8  1  0.09985400  0.42217200  0.12234000  1
  O  O9  1  0.40014600  0.42217200  0.12234000  1
  O  O10  1  0.25000000  0.86861800  0.10589200  1
  O  O11  1  0.09989500  0.08242900  0.37917400  1
  O  O12  1  0.40010500  0.08242900  0.37917400  1
  O  O13  1  0.75000000  0.11511800  0.39311400  1
  O  O14  1  0.59652500  0.48141900  0.35340200  1
  O  O15  1  0.90014600  0.57782800  0.87766000  1
  O  O16  1  0.25000000  0.62347800  0.39639900  1
  O  O17  1  0.75000000  0.74278100  0.44280700  1
  O  O18  1  0.90347500  0.48141900  0.35340200  1
  O  O19  1  0.75000000  0.37652200  0.60360100  1
  O  O20  1  0.09652500  0.51858100  0.64659800  1
  O  O21  1  0.40347500  0.51858100  0.64659800  1
  O  O22  1  0.25000000  0.88488200  0.60688600  1
  O  O23  1  0.59989500  0.91757100  0.62082600  1
  O  O24  1  0.90010500  0.91757100  0.62082600  1
  O  O25  1  0.75000000  0.13138200  0.89410800  1
  O  O26  1  0.59985400  0.57782800  0.87766000  1
  O  O27  1  0.25000000  0.61236600  0.89270700  1
loop_
_geom_bond_atom_site_label_1
_geom_bond_atom_site_label_2
_geom_bond_distance
_geom_bond_site_symmetry_2
Li0 O16 2.004305 1_555
Li0 O10 2.017892 1_555
Li0 O18 2.272318 1_455
Li0 O5 2.419862 1_465
Li0 O8 2.633823 1_555
Li1 O19 2.004305 1_555
Li1 O25 2.017892 1_555
Li1 O20 2.272318 1_655
Li1 O2 2.419862 1_645
Li1 O15 2.633823 1_555
Li2 O19 2.004305 1_555
Li2 O25 2.017892 1_555
Li2 O21 2.272318 1_555
Li2 O3 2.419862 1_545
Li2 O26 2.633823 1_555
Li3 O16 2.004305 1_555
Li3 O10 2.017892 1_555
Li3 O14 2.272318 1_555
Li3 O4 2.419862 1_565
Li3 O9 2.633823 1_555
Fe0 O23 1.943190 1_555
Fe0 O26 1.955008 1_555
Fe0 O3 2.022267 1_555
Fe0 O21 2.036330 1_555
Fe0 O22 2.141646 1_555
Fe0 O27 2.147215 1_555
Fe1 O24 1.943190 1_455
Fe1 O15 1.955008 1_455
Fe1 O2 2.022267 1_555
Fe1 O20 2.036330 1_555
Fe1 O22 2.141646 1_555
Fe1 O27 2.147215 1_555
Fe2 O11 1.943190 1_655
Fe2 O8 1.955008 1_655
Fe2 O5 2.022267 1_555
Fe2 O18 2.036330 1_555
Fe2 O13 2.141646 1_555
Fe2 O7 2.147215 1_555
Fe3 O12 1.943190 1_555
Fe3 O9 1.955008 1_555
Fe3 O4 2.022267 1_555
Fe3 O14 2.036330 1_555
Fe3 O13 2.141646 1_555
Fe3 O7 2.147215 1_555
O0 P7 1.585369 1_555
O0 P1 1.617886 1_555
O1 P5 1.585255 1_556
O1 P6 1.620040 1_545
O2 P6 1.555925 1_555
O3 P6 1.555925 1_555
O4 P4 1.555925 1_555
O5 P4 1.555925 1_555
O6 P3 1.585255 1_554
O6 P4 1.620040 1_565
O7 P3 1.545377 1_554
O8 P5 1.526807 1_555
O9 P5 1.526807 1_555
O10 P6 1.507361 1_554
O11 P7 1.524348 1_555
O12 P7 1.524348 1_555
O13 P2 1.547179 1_545
O14 P0 1.555521 1_555
O15 P3 1.526807 1_555
O16 P1 1.507280 1_555
O17 P2 1.585369 1_555
O17 P0 1.617886 1_555
O18 P0 1.555521 1_555
O19 P0 1.507280 1_555
O20 P1 1.555521 1_555
O21 P1 1.555521 1_555
O22 P7 1.547179 1_565
O23 P2 1.524348 1_555
O24 P2 1.524348 1_555
O25 P4 1.507361 1_556
O26 P3 1.526807 1_555
O27 P5 1.545377 1_556
