# generated using pymatgen
data_MgMn6(O2F)4
_symmetry_space_group_name_H-M   'P 1'
_cell_length_a   4.92587118
_cell_length_b   7.86954646
_cell_length_c   5.67829496
_cell_angle_alpha   96.37187813
_cell_angle_beta   90.57554936
_cell_angle_gamma   86.76093109
_symmetry_Int_Tables_number   1
_chemical_formula_structural   MgMn6(O2F)4
_chemical_formula_sum   'Mg1 Mn6 O8 F4'
_cell_volume   218.40472800
_cell_formula_units_Z   1
loop_
 _symmetry_equiv_pos_site_id
 _symmetry_equiv_pos_as_xyz
  1  'x, y, z'
loop_
 _atom_site_type_symbol
 _atom_site_label
 _atom_site_symmetry_multiplicity
 _atom_site_fract_x
 _atom_site_fract_y
 _atom_site_fract_z
 _atom_site_occupancy
  Mg  Mg0  1  0.49916970  0.99700681  0.99598545  1
  Mn  Mn0  1  0.49823795  0.99870536  0.49627356  1
  Mn  Mn1  1  0.52925122  0.64148780  0.17326508  1
  Mn  Mn2  1  0.47329648  0.35425140  0.82531207  1
  Mn  Mn3  1  0.99530458  0.68581675  0.66865160  1
  Mn  Mn4  1  0.00520610  0.31226669  0.32813209  1
  Mn  Mn5  1  0.99920245  0.99867460  0.99804873  1
  O  O0  1  0.79113151  0.80043137  0.93180389  1
  O  O1  1  0.75200225  0.08104171  0.26156262  1
  O  O2  1  0.70738243  0.76610263  0.45006644  1
  O  O3  1  0.70771756  0.42417015  0.10813024  1
  O  O4  1  0.29730566  0.57135820  0.89095570  1
  O  O5  1  0.29043841  0.23118946  0.54712976  1
  O  O6  1  0.20944133  0.19554096  0.06489909  1
  O  O7  1  0.24390827  0.91549239  0.73222246  1
  F  F0  1  0.80468085  0.43171971  0.60341290  1
  F  F1  1  0.70528199  0.13189537  0.78812297  1
  F  F2  1  0.29404088  0.86310693  0.20449809  1
  F  F3  1  0.19700037  0.56640872  0.39581325  1
loop_
_geom_bond_atom_site_label_1
_geom_bond_atom_site_label_2
_geom_bond_distance
_geom_bond_site_symmetry_2
Mg0 O7 2.018850 1_555
Mg0 O1 2.023990 1_566
Mg0 O0 2.056260 1_555
Mg0 O6 2.062639 1_566
Mn0 O1 2.018733 1_565
Mn0 O7 2.028428 1_555
Mn0 O5 2.038483 1_565
Mn0 O2 2.041217 1_555
Mn1 O3 1.878991 1_555
Mn1 O2 1.982285 1_555
Mn1 O4 2.004440 1_554
Mn1 O0 2.388937 1_554
Mn2 O4 1.872781 1_555
Mn2 O5 1.993687 1_555
Mn2 O3 2.013344 1_556
Mn2 O6 2.386659 1_556
Mn3 O0 1.919991 1_555
Mn3 O2 1.997164 1_555
Mn3 O4 2.163558 1_655
Mn3 O7 2.234546 1_655
Mn4 O6 1.926419 1_555
Mn4 O5 1.991796 1_555
Mn4 O3 2.131911 1_455
Mn4 O1 2.259185 1_455
Mn5 O6 1.913015 1_666
Mn5 O0 1.915341 1_555
Mn5 O1 1.968238 1_566
Mn5 O7 1.971788 1_655
F0 Mn4 1.975513 1_655
F0 Mn2 2.224444 1_555
F0 Mn3 2.249048 1_555
F1 Mg0 1.993662 1_545
F1 Mn2 2.027125 1_555
F1 Mn0 2.141583 1_545
F1 Mn5 2.165036 1_545
F2 Mg0 1.988582 1_554
F2 Mn1 2.030432 1_555
F2 Mn0 2.142607 1_555
F2 Mn5 2.165642 1_454
F3 Mn3 1.967890 1_455
F3 Mn1 2.222859 1_555
F3 Mn4 2.252956 1_555
