# generated using pymatgen
data_Na6Ca4Nb4Si5S7O48
_symmetry_space_group_name_H-M   'P 1'
_cell_length_a   18.31695031
_cell_length_b   9.14115159
_cell_length_c   23.33237669
_cell_angle_alpha   90.00041740
_cell_angle_beta   90.23088592
_cell_angle_gamma   119.97452871
_symmetry_Int_Tables_number   1
_chemical_formula_structural   Na6Ca4Nb4Si5S7O48
_chemical_formula_sum   'Na18 Ca12 Nb12 Si15 S21 O144'
_cell_volume   3384.15614371
_cell_formula_units_Z   3
loop_
 _symmetry_equiv_pos_site_id
 _symmetry_equiv_pos_as_xyz
  1  'x, y, z'
loop_
 _atom_site_type_symbol
 _atom_site_label
 _atom_site_symmetry_multiplicity
 _atom_site_fract_x
 _atom_site_fract_y
 _atom_site_fract_z
 _atom_site_occupancy
  Na  Na0  1  0.00026027  0.61636340  0.25001985  1
  Na  Na1  1  0.50016150  0.61371585  0.25016642  1
  Na  Na2  1  0.00091029  0.38068844  0.75021897  1
  Na  Na3  1  0.50022344  0.38267248  0.74979414  1
  Na  Na4  1  0.33053060  0.97031210  0.58073009  1
  Na  Na5  1  0.83020928  0.69143697  0.08407593  1
  Na  Na6  1  0.99134059  0.97959574  0.49561713  1
  Na  Na7  1  0.50361570  0.99869890  0.49744487  1
  Na  Na8  1  0.00468855  0.00677067  0.00265146  1
  Na  Na9  1  0.48938541  0.99738262  0.00052671  1
  Na  Na10  1  0.32486881  0.34942130  0.82976919  1
  Na  Na11  1  0.81654050  0.31455197  0.82830146  1
  Na  Na12  1  0.32727931  0.32045453  0.32119633  1
  Na  Na13  1  0.82309664  0.29821651  0.32743115  1
  Na  Na14  1  0.17294889  0.68360709  0.17006222  1
  Na  Na15  1  0.66664278  0.68315679  0.17282234  1
  Na  Na16  1  0.17845906  0.64916497  0.66426242  1
  Na  Na17  1  0.66898019  0.65736465  0.66874083  1
  Ca  Ca0  1  0.32905558  0.33806116  0.68822078  1
  Ca  Ca1  1  0.82452868  0.32615702  0.69172907  1
  Ca  Ca2  1  0.32811893  0.32291648  0.19267777  1
  Ca  Ca3  1  0.82827204  0.31922479  0.18865009  1
  Ca  Ca4  1  0.17249563  0.67232934  0.01561630  1
  Ca  Ca5  1  0.66196933  0.66377239  0.01281886  1
  Ca  Ca6  1  0.16271753  0.66216436  0.51174153  1
  Ca  Ca7  1  0.67211945  0.67256952  0.51494788  1
  Ca  Ca8  1  0.16864593  0.67444469  0.31345422  1
  Ca  Ca9  1  0.67216706  0.67888531  0.31403231  1
  Ca  Ca10  1  0.17726326  0.66716921  0.81654110  1
  Ca  Ca11  1  0.66653301  0.66122897  0.81349132  1
  Nb  Nb0  1  0.00315766  0.00022740  0.35573607  1
  Nb  Nb1  1  0.49848825  0.00169700  0.34547726  1
  Nb  Nb2  1  0.99943837  0.00777573  0.85001464  1
  Nb  Nb3  1  0.50299290  0.00516956  0.85626490  1
  Nb  Nb4  1  0.99798367  0.00763111  0.64755265  1
  Nb  Nb5  1  0.50436136  0.00767978  0.64134002  1
  Nb  Nb6  1  0.00467709  0.00178265  0.14195736  1
  Nb  Nb7  1  0.49789787  0.00092601  0.15249300  1
  Nb  Nb8  1  0.33852993  0.33949449  0.97956168  1
  Nb  Nb9  1  0.83739139  0.33214234  0.99028849  1
  Nb  Nb10  1  0.34029837  0.34766347  0.48788330  1
  Nb  Nb11  1  0.83494625  0.33503272  0.47702470  1
  Si  Si0  1  0.14237014  0.99824035  0.25018789  1
  Si  Si1  1  0.64652090  0.00264332  0.25017414  1
  Si  Si2  1  0.35061099  0.70700358  0.24926581  1
  Si  Si3  1  0.50404542  0.29924592  0.24932843  1
  Si  Si4  1  0.14691201  0.29287305  0.74991821  1
  Si  Si5  1  0.64261165  0.28590789  0.75036612  1
  Si  Si6  1  0.85161269  0.99628680  0.74938536  1
  Si  Si7  1  0.48584792  0.34367794  0.59061202  1
  Si  Si8  1  0.33147025  0.63314132  0.58748538  1
  Si  Si9  1  0.98590980  0.62981422  0.09080812  1
  Si  Si10  1  0.83226811  0.02869106  0.08759864  1
  Si  Si11  1  0.31815526  0.66850992  0.91662364  1
  Si  Si12  1  0.51725725  0.36812602  0.91328633  1
  Si  Si13  1  0.81824741  0.96338635  0.41673327  1
  Si  Si14  1  0.01780863  0.66776012  0.41370471  1
  S  S0  1  0.86138040  0.72568124  0.24856403  1
  S  S1  1  0.00088819  0.27992724  0.24954114  1
  S  S2  1  0.00267629  0.72348350  0.74953404  1
  S  S3  1  0.50075912  0.72161053  0.74935650  1
  S  S4  1  0.36039306  0.99629696  0.74842791  1
  S  S5  1  0.97727461  0.32686572  0.58548425  1
  S  S6  1  0.18392562  0.04404995  0.58269079  1
  S  S7  1  0.68653223  0.04486567  0.58284588  1
  S  S8  1  0.83929085  0.63172819  0.58498952  1
  S  S9  1  0.47687119  0.63051704  0.08416515  1
  S  S10  1  0.33916461  0.04642398  0.08351514  1
  S  S11  1  0.18703068  0.32758042  0.08292860  1
  S  S12  1  0.68411450  0.32357407  0.08177826  1
  S  S13  1  0.82350183  0.66442059  0.91752994  1
  S  S14  1  0.01026692  0.35891049  0.91541767  1
  S  S15  1  0.16533983  0.97385425  0.91692413  1
  S  S16  1  0.67130370  0.98162897  0.91658785  1
  S  S17  1  0.32331606  0.98170531  0.41968178  1
  S  S18  1  0.17089418  0.36052927  0.41738768  1
  S  S19  1  0.66415085  0.35512239  0.41812576  1
  S  S20  1  0.51137052  0.66634518  0.41730505  1
  O  O0  1  0.08382528  0.00376595  0.30465546  1
  O  O1  1  0.58627073  0.00060127  0.30637091  1
  O  O2  1  0.41040844  0.82464785  0.30630613  1
  O  O3  1  0.91126009  0.82273398  0.29980158  1
  O  O4  1  0.49962507  0.17797197  0.30588869  1
  O  O5  1  0.99638064  0.18151049  0.30157069  1
  O  O6  1  0.08498982  0.17077842  0.80579486  1
  O  O7  1  0.58471257  0.16280973  0.80453527  1
  O  O8  1  0.49653075  0.81083836  0.80140867  1
  O  O9  1  0.99720909  0.81299123  0.80220825  1
  O  O10  1  0.40951580  -0.00265728  0.79965273  1
  O  O11  1  0.91295119  0.99569301  0.80524914  1
  O  O12  1  0.40254031  0.98432439  0.69416259  1
  O  O13  1  0.91070790  0.98808061  0.69232113  1
  O  O14  1  0.08393759  0.17193964  0.69289505  1
  O  O15  1  0.58359943  0.16803349  0.69256621  1
  O  O16  1  0.00668027  0.82243392  0.69688215  1
  O  O17  1  0.50052400  0.81646263  0.69666561  1
  O  O18  1  0.40870442  0.83206623  0.19242245  1
  O  O19  1  0.90384105  0.82182136  0.19407635  1
  O  O20  1  0.00067537  0.18434031  0.19673892  1
  O  O21  1  0.50493947  0.18345027  0.19211906  1
  O  O22  1  0.08231962  0.99595183  0.19257135  1
  O  O23  1  0.58534587  0.99528388  0.19226050  1
  O  O24  1  0.43888006  0.34032918  0.64768257  1
  O  O25  1  0.94038421  0.34209899  0.63888627  1
  O  O26  1  0.23265458  0.11664109  0.63477818  1
  O  O27  1  0.73354243  0.11973747  0.63505625  1
  O  O28  1  0.31301818  0.51645481  0.64082063  1
  O  O29  1  0.83336501  0.53816135  0.63666292  1
  O  O30  1  0.43877278  0.53807249  0.13639858  1
  O  O31  1  0.93841053  0.53725056  0.14735930  1
  O  O32  1  0.33341093  0.12773566  0.13507448  1
  O  O33  1  0.81491857  0.11354651  0.13965169  1
  O  O34  1  0.23368835  0.34608662  0.13478244  1
  O  O35  1  0.73383571  0.34943723  0.13321886  1
  O  O36  1  0.22756216  0.29911324  0.03146645  1
  O  O37  1  0.73217115  0.30476132  0.02980733  1
  O  O38  1  0.42034681  0.53061696  0.03279295  1
  O  O39  1  0.91411159  0.52022303  0.03281390  1
  O  O40  1  0.34531644  0.15297870  0.03157513  1
  O  O41  1  0.84372946  0.16406314  0.02897474  1
  O  O42  1  0.22825221  0.15520313  0.53125721  1
  O  O43  1  0.72821120  0.15628505  0.53217961  1
  O  O44  1  0.34300525  0.52305115  0.52951350  1
  O  O45  1  0.84832847  0.54475080  0.53310074  1
  O  O46  1  0.41469649  0.30983184  0.53313431  1
  O  O47  1  0.92193818  0.30371217  0.53495180  1
  O  O48  1  0.28942292  0.72205876  0.97275475  1
  O  O49  1  0.79280238  0.70015139  0.97058253  1
  O  O50  1  0.06350430  0.43170148  0.96517854  1
  O  O51  1  0.57360337  0.43284904  0.96908459  1
  O  O52  1  0.14727844  0.86944239  0.96753760  1
  O  O53  1  0.65557761  0.88128933  0.96821076  1
  O  O54  1  0.28966236  0.88440765  0.47285992  1
  O  O55  1  0.79127046  0.85927089  0.47457535  1
  O  O56  1  0.15389192  0.42807713  0.46916605  1
  O  O57  1  0.64993431  0.42830766  0.46936150  1
  O  O58  1  0.07168318  0.71207840  0.47071837  1
  O  O59  1  0.56358525  0.69219846  0.46769017  1
  O  O60  1  0.04111441  0.61309973  0.35498853  1
  O  O61  1  0.54244483  0.63304521  0.36439187  1
  O  O62  1  0.27084756  0.90240350  0.36944535  1
  O  O63  1  0.76060538  0.90943346  0.36123890  1
  O  O64  1  0.18677804  0.46311945  0.36658434  1
  O  O65  1  0.68138181  0.45430643  0.36649622  1
  O  O66  1  0.04301118  0.45222539  0.86172182  1
  O  O67  1  0.54040413  0.46786475  0.85402657  1
  O  O68  1  0.18071337  0.90488830  0.86487502  1
  O  O69  1  0.68689400  0.91063471  0.86540736  1
  O  O70  1  0.26127300  0.60807084  0.86016398  1
  O  O71  1  0.77096264  0.64034399  0.86743173  1
  O  O72  1  0.99727119  0.82748154  0.40384573  1
  O  O73  1  0.49660315  0.81356725  0.41200808  1
  O  O74  1  0.41120125  0.00686013  0.41222790  1
  O  O75  1  0.91731512  0.01244704  0.40146154  1
  O  O76  1  0.09368179  0.18555715  0.40889362  1
  O  O77  1  0.59066648  0.17824947  0.41172449  1
  O  O78  1  0.99739203  0.17888768  0.90828826  1
  O  O79  1  0.49699949  0.16675170  0.90299576  1
  O  O80  1  0.08945157  0.99942265  0.90756497  1
  O  O81  1  0.59370363  0.00079687  0.90838361  1
  O  O82  1  0.41677588  0.82019425  0.90057932  1
  O  O83  1  0.91250580  0.81587204  0.90777474  1
  O  O84  1  0.48341886  0.15121791  0.59053883  1
  O  O85  1  0.98312473  0.16216409  0.58832848  1
  O  O86  1  0.09769790  0.02856605  0.58636841  1
  O  O87  1  0.59934127  0.03240794  0.58636416  1
  O  O88  1  0.42425687  0.81589179  0.59118481  1
  O  O89  1  0.92155602  0.80561791  0.58885460  1
  O  O90  1  0.48099378  0.79963899  0.08332893  1
  O  O91  1  0.98332742  0.81594897  0.08993047  1
  O  O92  1  0.42006544  0.03663512  0.08399752  1
  O  O93  1  0.92497256  0.03293294  0.09033667  1
  O  O94  1  0.09909498  0.16515886  0.08629149  1
  O  O95  1  0.60023107  0.16645986  0.08255880  1
  O  O96  1  0.35909097  0.15582967  0.74979603  1
  O  O97  1  0.86534636  0.18346057  0.75238243  1
  O  O98  1  0.23190300  0.29056025  0.75608776  1
  O  O99  1  0.73241645  0.29937472  0.75462980  1
  O  O100  1  0.42614731  0.55028250  0.75023056  1
  O  O101  1  0.92697746  0.55584801  0.74831008  1
  O  O102  1  0.36264242  0.54652946  0.25104984  1
  O  O103  1  0.86036848  0.56398283  0.24980376  1
  O  O104  1  0.42019682  0.30952028  0.25246073  1
  O  O105  1  0.92609613  0.30119074  0.25025545  1
  O  O106  1  0.22964733  0.16690817  0.25384095  1
  O  O107  1  0.73226025  0.17559228  0.25558526  1
  O  O108  1  0.33047330  0.49757908  0.93434048  1
  O  O109  1  0.83343256  0.51102393  0.92456186  1
  O  O110  1  0.41814024  0.33141718  0.93306497  1
  O  O111  1  0.92313239  0.33543218  0.92474128  1
  O  O112  1  0.24037281  0.14860893  0.92707734  1
  O  O113  1  0.74520503  0.15878910  0.92551282  1
  O  O114  1  0.33199675  0.15473752  0.42761226  1
  O  O115  1  0.83103857  0.16198213  0.43499250  1
  O  O116  1  0.24460427  0.33168983  0.42760281  1
  O  O117  1  0.74192314  0.33384593  0.42901232  1
  O  O118  1  0.42332348  0.50757305  0.42793313  1
  O  O119  1  0.91829611  0.50453716  0.43402612  1
  O  O120  1  0.17116879  0.46742315  0.07477523  1
  O  O121  1  0.67807167  0.47496639  0.07191794  1
  O  O122  1  0.07617703  0.65978367  0.07664766  1
  O  O123  1  0.56087403  0.65306306  0.07571318  1
  O  O124  1  0.26641548  0.87720241  0.07757863  1
  O  O125  1  0.76190363  0.83731500  0.07470248  1
  O  O126  1  0.17517500  0.87681740  0.57446955  1
  O  O127  1  0.67167329  0.87446269  0.57520890  1
  O  O128  1  0.26095452  0.68537297  0.57613226  1
  O  O129  1  0.76817447  0.66023679  0.57954928  1
  O  O130  1  0.06284171  0.46695591  0.57813452  1
  O  O131  1  0.57739041  0.49331442  0.57805289  1
  O  O132  1  0.13586807  0.81719584  0.24685268  1
  O  O133  1  0.63969762  0.82163717  0.24765052  1
  O  O134  1  0.26236357  0.69790617  0.24724174  1
  O  O135  1  0.77748858  0.70607362  0.24910041  1
  O  O136  1  0.07843970  0.44454423  0.24922246  1
  O  O137  1  0.58935688  0.47606213  0.24788871  1
  O  O138  1  0.13778815  0.45874383  0.74654924  1
  O  O139  1  0.63683229  0.45478791  0.74672570  1
  O  O140  1  0.07907569  0.70984567  0.75207528  1
  O  O141  1  0.57847729  0.71209555  0.74882758  1
  O  O142  1  0.27525812  0.84853132  0.74864161  1
  O  O143  1  0.76354268  0.82987134  0.74710447  1
loop_
_geom_bond_atom_site_label_1
_geom_bond_atom_site_label_2
_geom_bond_distance
_geom_bond_site_symmetry_2
Na0 O132 2.233953 1_555
Na0 O103 2.359886 1_455
Na0 O105 2.497026 1_455
Na0 O60 2.562585 1_555
Na0 O31 2.589098 1_455
Na0 O136 2.601055 1_555
Na1 O102 2.275348 1_555
Na1 O133 2.301203 1_555
Na1 O104 2.410680 1_555
Na1 O137 2.512045 1_555
Na1 O61 2.753310 1_555
Na1 O30 2.826261 1_555
Na2 O97 2.224074 1_455
Na2 O138 2.239778 1_555
Na2 O101 2.562381 1_455
Na2 O140 2.607677 1_555
Na2 O66 2.696420 1_555
Na2 O25 2.772609 1_455
Na3 O139 2.248148 1_555
Na3 O96 2.371979 1_555
Na3 O100 2.503203 1_555
Na3 O67 2.544710 1_555
Na3 O24 2.575367 1_555
Na3 O141 2.609654 1_555
Na4 O128 2.258755 1_555
Na4 O84 2.448855 1_565
Na4 O126 2.532969 1_555
Na4 O54 2.628506 1_555
Na4 O88 2.723514 1_555
Na4 O46 2.911212 1_565
Na4 O12 2.926424 1_555
Na4 O26 3.001337 1_565
Na5 O125 2.248629 1_555
Na5 O91 2.446912 1_555
Na5 O121 2.499068 1_555
Na5 O93 2.713423 1_565
Na5 O49 2.743723 1_554
Na5 O19 2.862283 1_555
Na5 O39 2.942817 1_555
Na5 O35 2.950660 1_555
Na6 O72 2.585147 1_555
Na6 O89 2.624289 1_555
Na6 O75 2.671671 1_565
Na6 O86 2.752189 1_665
Na6 O76 2.767154 1_665
Na6 O85 2.782208 1_565
Na7 O73 2.575836 1_555
Na7 O77 2.578227 1_565
Na7 O87 2.627648 1_565
Na7 O74 2.631241 1_565
Na7 O88 2.699566 1_555
Na7 O84 2.705641 1_565
Na8 O94 2.523089 1_555
Na8 O91 2.582113 1_445
Na8 O93 2.597685 1_455
Na8 O80 2.732984 1_544
Na8 O78 2.747479 1_454
Na8 O83 2.796828 1_444
Na9 O92 2.451360 1_565
Na9 O90 2.597767 1_555
Na9 O95 2.647173 1_565
Na9 O79 2.716946 1_564
Na9 O82 2.766406 1_554
Na9 O81 2.871892 1_564
Na10 O98 2.281577 1_555
Na10 O100 2.623175 1_555
Na10 O108 2.767103 1_555
Na10 O112 2.847701 1_555
Na10 O96 2.850305 1_555
Na10 O110 3.000402 1_555
Na11 O99 2.261278 1_555
Na11 O97 2.540888 1_555
Na11 O113 2.654088 1_555
Na11 O109 2.793706 1_555
Na11 O101 2.830664 1_555
Na11 O111 2.916149 1_555
Na12 O106 2.259898 1_555
Na12 O104 2.381327 1_555
Na12 O102 2.457659 1_555
Na13 O107 2.224599 1_555
Na13 O105 2.603605 1_555
Na13 O103 2.828677 1_555
Na13 O115 2.836998 1_555
Na13 O117 2.906303 1_555
Na14 O134 2.388434 1_555
Na14 O132 2.449755 1_555
Na14 O136 2.725703 1_555
Na14 O122 2.742833 1_555
Na14 O124 2.778776 1_555
Na14 O120 2.963818 1_555
Na15 O133 2.350630 1_555
Na15 O137 2.449009 1_555
Na15 O135 2.622900 1_555
Na15 O125 2.801234 1_555
Na15 O123 2.897397 1_555
Na16 O138 2.446821 1_555
Na16 O128 2.479210 1_555
Na16 O142 2.661594 1_555
Na16 O130 2.781819 1_555
Na16 O126 2.974508 1_555
Na16 O140 2.976321 1_555
Na17 O139 2.450672 1_555
Na17 O143 2.464764 1_555
Na17 O131 2.645392 1_555
Na17 O141 2.709945 1_555
Na17 O129 2.759625 1_555
Na17 O127 2.933670 1_555
Ca0 O28 2.108262 1_555
Ca0 O24 2.217084 1_555
Ca0 O98 2.261279 1_555
Ca0 O26 2.276076 1_555
Ca0 O100 2.356131 1_555
Ca0 O96 2.459897 1_555
Ca1 O99 2.160501 1_555
Ca1 O27 2.219546 1_555
Ca1 O29 2.262954 1_555
Ca1 O97 2.286750 1_555
Ca1 O101 2.390758 1_555
Ca1 O25 2.399347 1_555
Ca2 O106 2.184983 1_555
Ca2 O104 2.234429 1_555
Ca2 O102 2.265941 1_555
Ca2 O32 2.274403 1_555
Ca2 O34 2.282247 1_555
Ca2 O30 2.395581 1_555
Ca3 O33 2.107120 1_555
Ca3 O31 2.228955 1_555
Ca3 O107 2.229506 1_555
Ca3 O35 2.280460 1_555
Ca3 O105 2.361861 1_555
Ca3 O103 2.462972 1_555
Ca4 O48 2.199609 1_554
Ca4 O122 2.229719 1_555
Ca4 O124 2.305982 1_555
Ca4 O120 2.317135 1_555
Ca4 O52 2.354970 1_554
Ca4 O50 2.408720 1_554
Ca5 O51 2.165554 1_554
Ca5 O125 2.242581 1_555
Ca5 O53 2.298307 1_554
Ca5 O123 2.330844 1_555
Ca5 O121 2.339354 1_555
Ca5 O49 2.459166 1_554
Ca6 O58 2.156894 1_555
Ca6 O128 2.266447 1_555
Ca6 O56 2.290160 1_555
Ca6 O126 2.365203 1_555
Ca6 O54 2.377771 1_555
Ca6 O130 2.385712 1_555
Ca7 O55 2.204081 1_555
Ca7 O131 2.245724 1_555
Ca7 O57 2.317724 1_555
Ca7 O127 2.323386 1_555
Ca7 O59 2.353503 1_555
Ca7 O129 2.357353 1_555
Ca8 O134 2.243433 1_555
Ca8 O132 2.292041 1_555
Ca8 O60 2.328039 1_555
Ca8 O62 2.373970 1_555
Ca8 O136 2.429598 1_555
Ca8 O64 2.452862 1_555
Ca9 O63 2.202962 1_555
Ca9 O133 2.285506 1_555
Ca9 O137 2.300209 1_555
Ca9 O135 2.371329 1_555
Ca9 O65 2.466977 1_555
Ca9 O61 2.495950 1_555
Ca10 O70 2.124564 1_555
Ca10 O138 2.331011 1_555
Ca10 O142 2.351535 1_555
Ca10 O68 2.420747 1_555
Ca10 O66 2.492371 1_555
Ca10 O140 2.515651 1_555
Ca11 O143 2.284354 1_555
Ca11 O139 2.291543 1_555
Ca11 O67 2.300750 1_555
Ca11 O71 2.371676 1_555
Ca11 O141 2.413262 1_555
Ca11 O69 2.439434 1_555
Nb0 O0 1.889763 1_555
Nb0 O72 1.896332 1_445
Nb0 O75 1.952459 1_455
Nb0 O76 2.081887 1_555
Nb0 O3 2.102956 1_445
Nb0 O5 2.136126 1_455
Nb1 O4 1.848449 1_555
Nb1 O2 1.853794 1_545
Nb1 O1 1.856324 1_555
Nb1 O74 2.253800 1_555
Nb1 O77 2.258478 1_555
Nb1 O73 2.304230 1_545
Nb2 O6 1.849388 1_655
Nb2 O11 1.850569 1_545
Nb2 O9 2.084033 1_545
Nb2 O78 2.087019 1_555
Nb2 O80 2.152973 1_645
Nb2 O83 2.157601 1_545
Nb3 O79 1.882959 1_555
Nb3 O7 1.906080 1_555
Nb3 O82 1.940899 1_545
Nb3 O81 2.071519 1_555
Nb3 O10 2.130946 1_555
Nb3 O8 2.143944 1_545
Nb4 O13 1.845704 1_545
Nb4 O14 1.864830 1_655
Nb4 O85 2.088109 1_555
Nb4 O16 2.117569 1_645
Nb4 O89 2.155668 1_545
Nb4 O86 2.254397 1_655
Nb5 O15 1.882525 1_555
Nb5 O84 1.942429 1_555
Nb5 O88 2.002916 1_545
Nb5 O87 2.085233 1_555
Nb5 O17 2.145837 1_545
Nb5 O12 2.159549 1_545
Nb6 O22 1.866082 1_545
Nb6 O91 1.960753 1_445
Nb6 O93 2.016038 1_455
Nb6 O94 2.084606 1_555
Nb6 O20 2.132353 1_555
Nb6 O19 2.139740 1_445
Nb7 O18 1.847200 1_545
Nb7 O21 1.854529 1_555
Nb7 O23 1.870796 1_545
Nb7 O92 2.267115 1_555
Nb7 O90 2.347835 1_545
Nb7 O95 2.378290 1_555
Nb8 O110 1.851796 1_555
Nb8 O108 1.853416 1_555
Nb8 O38 2.051716 1_556
Nb8 O40 2.146109 1_556
Nb8 O112 2.150420 1_555
Nb8 O36 2.237071 1_556
Nb9 O41 1.834745 1_556
Nb9 O39 1.868087 1_556
Nb9 O37 2.039534 1_556
Nb9 O111 2.185992 1_555
Nb9 O113 2.225375 1_555
Nb9 O109 2.269032 1_555
Nb10 O44 1.853779 1_555
Nb10 O46 1.884339 1_555
Nb10 O118 2.049865 1_555
Nb10 O42 2.177223 1_555
Nb10 O116 2.190046 1_555
Nb10 O114 2.200261 1_555
Nb11 O115 1.831813 1_555
Nb11 O119 1.840334 1_555
Nb11 O117 2.030882 1_555
Nb11 O47 2.210485 1_555
Nb11 O45 2.230454 1_555
Nb11 O43 2.230799 1_555
O0 Si0 1.683063 1_545
O1 Si1 1.711320 1_555
O2 Si2 1.714261 1_555
O3 S0 1.494079 1_555
O4 Si3 1.699493 1_555
O5 S1 1.488794 1_655
O6 Si4 1.725938 1_555
O7 Si5 1.675332 1_555
O8 S3 1.486659 1_555
O9 S2 1.507585 1_655
O10 S4 1.490277 1_545
O11 Si6 1.719184 1_555
O12 S4 1.517691 1_555
O13 Si6 1.744364 1_555
O14 Si4 1.742484 1_555
O15 Si5 1.724120 1_555
O16 S2 1.505719 1_555
O17 S3 1.505638 1_555
O18 Si2 1.730356 1_555
O19 S0 1.522666 1_555
O20 S1 1.509260 1_555
O21 Si3 1.708787 1_555
O22 Si0 1.727028 1_555
O23 Si1 1.731623 1_565
O24 Si7 1.580228 1_555
O25 S5 1.459211 1_555
O26 S6 1.453764 1_555
O27 S7 1.447940 1_555
O28 Si8 1.563258 1_555
O29 S8 1.450952 1_555
O30 S9 1.450521 1_555
O31 Si9 1.577210 1_555
O32 S10 1.445708 1_555
O33 Si10 1.557927 1_555
O34 S11 1.438748 1_555
O35 S12 1.449805 1_555
O36 S11 1.503622 1_555
O37 S12 1.560349 1_555
O38 S9 1.545266 1_555
O39 Si9 1.798139 1_555
O40 S10 1.523662 1_555
O41 Si10 1.785804 1_555
O42 S6 1.521616 1_555
O43 S7 1.499340 1_555
O44 Si8 1.761169 1_555
O45 S8 1.502807 1_555
O46 Si7 1.782071 1_555
O47 S5 1.496099 1_555
O48 Si11 1.579492 1_555
O49 S13 1.464332 1_555
O50 S14 1.443669 1_555
O51 Si12 1.577723 1_555
O52 S15 1.450057 1_555
O53 S16 1.453912 1_555
O54 S17 1.472719 1_555
O55 Si13 1.583301 1_555
O56 S18 1.460465 1_555
O57 S19 1.456381 1_555
O58 Si14 1.580340 1_555
O59 S20 1.455234 1_555
O60 Si14 1.589529 1_555
O61 S20 1.455895 1_555
O62 S17 1.455266 1_555
O63 Si13 1.582151 1_555
O64 S18 1.448913 1_555
O65 S19 1.445663 1_555
O66 S14 1.466915 1_555
O67 Si12 1.594136 1_555
O68 S15 1.460038 1_555
O69 S16 1.454872 1_555
O70 Si11 1.593715 1_555
O71 S13 1.456095 1_555
O72 Si14 1.695366 1_655
O73 S20 1.504340 1_555
O74 S17 1.518855 1_545
O75 Si13 1.677191 1_545
O76 S18 1.528112 1_555
O77 S19 1.507301 1_555
O78 S14 1.550236 1_655
O79 Si12 1.703118 1_555
O80 S15 1.535161 1_555
O81 S16 1.527868 1_545
O82 Si11 1.681829 1_555
O83 S13 1.540781 1_555
O84 Si7 1.737505 1_555
O85 S5 1.563252 1_555
O86 S6 1.516477 1_555
O87 S7 1.545857 1_555
O88 Si8 1.687752 1_555
O89 S8 1.552718 1_555
O90 S9 1.509790 1_555
O91 Si9 1.725724 1_555
O92 S10 1.528527 1_555
O93 Si10 1.679981 1_555
O94 S11 1.554462 1_555
O95 S12 1.489640 1_555
O96 S4 1.470722 1_545
O97 Si6 1.601690 1_545
O98 Si4 1.573468 1_555
O99 Si5 1.589733 1_555
O100 S3 1.477314 1_555
O101 S2 1.465657 1_655
O102 Si2 1.589058 1_555
O103 S0 1.469223 1_555
O104 Si3 1.586833 1_555
O105 S1 1.476861 1_655
O106 Si0 1.573570 1_545
O107 Si1 1.580892 1_555
O108 Si11 1.736301 1_555
O109 S13 1.510254 1_555
O110 Si12 1.737726 1_555
O111 S14 1.516987 1_655
O112 S15 1.516726 1_545
O113 S16 1.518416 1_545
O114 S17 1.519800 1_545
O115 Si13 1.762449 1_545
O116 S18 1.517320 1_555
O117 S19 1.551009 1_555
O118 S20 1.559890 1_555
O119 Si14 1.750118 1_655
O120 S11 1.457873 1_555
O121 S12 1.460555 1_555
O122 Si9 1.571560 1_455
O123 S9 1.460980 1_555
O124 S10 1.458254 1_565
O125 Si10 1.598740 1_565
O126 S6 1.467758 1_565
O127 S7 1.451954 1_565
O128 Si8 1.606213 1_555
O129 S8 1.455596 1_555
O130 S5 1.456860 1_455
O131 Si7 1.574999 1_555
O132 Si0 1.600653 1_555
O133 Si1 1.596906 1_565
O134 Si2 1.577034 1_555
O135 S0 1.455506 1_555
O136 S1 1.465078 1_555
O137 Si3 1.591253 1_555
O138 Si4 1.608173 1_555
O139 Si5 1.601510 1_555
O140 S2 1.466643 1_555
O141 S3 1.469049 1_555
O142 S4 1.466842 1_555
O143 Si6 1.570506 1_555
