# generated using pymatgen
data_Na2YInP2SO12
_symmetry_space_group_name_H-M   'P 1'
_cell_length_a   9.13871688
_cell_length_b   9.12123869
_cell_length_c   23.49223705
_cell_angle_alpha   90.42786488
_cell_angle_beta   89.58965542
_cell_angle_gamma   119.83171389
_symmetry_Int_Tables_number   1
_chemical_formula_structural   Na2YInP2SO12
_chemical_formula_sum   'Na12 Y6 In6 P12 S6 O72'
_cell_volume   1698.68353371
_cell_formula_units_Z   6
loop_
 _symmetry_equiv_pos_site_id
 _symmetry_equiv_pos_as_xyz
  1  'x, y, z'
loop_
 _atom_site_type_symbol
 _atom_site_label
 _atom_site_symmetry_multiplicity
 _atom_site_fract_x
 _atom_site_fract_y
 _atom_site_fract_z
 _atom_site_occupancy
  Na  Na0  1  0.99356194  0.62735686  0.25141889  1
  Na  Na1  1  0.37111114  0.00442215  0.75452100  1
  Na  Na2  1  0.65731469  0.96187303  0.58452338  1
  Na  Na3  1  0.03727503  0.33933217  0.08476083  1
  Na  Na4  1  0.32771827  0.29458174  0.91912632  1
  Na  Na5  1  0.70607165  0.67300980  0.42030270  1
  Na  Na6  1  0.01665396  0.99124458  0.50109815  1
  Na  Na7  1  0.00476134  0.98203651  0.00040860  1
  Na  Na8  1  0.68425652  0.32681315  0.83586366  1
  Na  Na9  1  0.67573627  0.31592800  0.33356898  1
  Na  Na10  1  0.35114212  0.66030268  0.16463539  1
  Na  Na11  1  0.33995539  0.64985249  0.66729486  1
  Y  Y0  1  0.99627594  0.00666247  0.35117424  1
  Y  Y1  1  0.00122262  0.00017463  0.65090448  1
  Y  Y2  1  0.66101364  0.33952935  0.68432462  1
  Y  Y3  1  0.66054517  0.33800215  0.18125485  1
  Y  Y4  1  0.66722278  0.33067648  0.48325229  1
  Y  Y5  1  0.33660839  0.66530933  0.31416167  1
  In  In0  1  0.99673226  0.00828043  0.85081267  1
  In  In1  1  0.00149094  0.99862586  0.14789045  1
  In  In2  1  0.66857952  0.33334262  0.98349709  1
  In  In3  1  0.32466975  0.66933844  0.01446163  1
  In  In4  1  0.32984577  0.67519709  0.51616876  1
  In  In5  1  0.33363623  0.66525718  0.81911090  1
  P  P0  1  0.70890045  0.70931881  0.24860207  1
  P  P1  1  0.99947421  0.29673862  0.24543456  1
  P  P2  1  0.29410871  0.30013495  0.75417495  1
  P  P3  1  0.69714717  0.99476914  0.75180427  1
  P  P4  1  0.36699914  0.03031033  0.58406503  1
  P  P5  1  0.65983796  0.63515504  0.58015287  1
  P  P6  1  0.96451402  0.63297396  0.08227777  1
  P  P7  1  0.36433323  0.33418270  0.07890882  1
  P  P8  1  0.03603972  0.37217003  0.91761055  1
  P  P9  1  0.33316778  0.96517189  0.91532374  1
  P  P10  1  0.62739718  0.96021340  0.41864249  1
  P  P11  1  0.03688027  0.66760299  0.41608635  1
  S  S0  1  0.29388309  0.00016218  0.24884866  1
  S  S1  1  0.00329781  0.70615440  0.75377719  1
  S  S2  1  0.97002411  0.33876181  0.58326209  1
  S  S3  1  0.66498645  0.03250141  0.08151233  1
  S  S4  1  0.62939099  0.66799318  0.91755764  1
  S  S5  1  0.33272257  0.37356313  0.41911604  1
  O  O0  1  0.21524858  0.02116302  0.30048147  1
  O  O1  1  0.81183826  0.78600814  0.30392884  1
  O  O2  1  0.98641217  0.19362099  0.29810434  1
  O  O3  1  0.21950934  0.18960294  0.80851210  1
  O  O4  1  0.97843216  0.78564320  0.80496225  1
  O  O5  1  0.80580525  0.01435057  0.80393444  1
  O  O6  1  0.77391821  0.97232551  0.69590152  1
  O  O7  1  0.18671129  0.21166228  0.70170686  1
  O  O8  1  0.02738143  0.80888595  0.70245088  1
  O  O9  1  0.79931047  0.81704842  0.19632011  1
  O  O10  1  0.02156964  0.21753635  0.18949764  1
  O  O11  1  0.19092140  0.97576157  0.19756218  1
  O  O12  1  0.88971686  0.36085644  0.63461926  1
  O  O13  1  0.47473181  0.11128340  0.63846634  1
  O  O14  1  0.64521481  0.52815690  0.63226747  1
  O  O15  1  0.88856782  0.52533160  0.13673106  1
  O  O16  1  0.64039019  0.10976598  0.13300217  1
  O  O17  1  0.47036765  0.35388569  0.13125386  1
  O  O18  1  0.44262484  0.30734748  0.02360575  1
  O  O19  1  0.85330255  0.54418989  0.03021895  1
  O  O20  1  0.69406596  0.14036335  0.03091383  1
  O  O21  1  0.45910368  0.13827528  0.53216266  1
  O  O22  1  0.68419981  0.55785714  0.52486537  1
  O  O23  1  0.86512693  0.31336818  0.53264722  1
  O  O24  1  0.55168368  0.69442389  0.96895838  1
  O  O25  1  0.14529391  0.44522505  0.97226850  1
  O  O26  1  0.31192882  0.85783550  0.96786051  1
  O  O27  1  0.55192904  0.85515706  0.47394898  1
  O  O28  1  0.31076329  0.45322629  0.47074061  1
  O  O29  1  0.14015921  0.68153397  0.46912678  1
  O  O30  1  0.11611616  0.64786290  0.36039789  1
  O  O31  1  0.52102910  0.86762902  0.36660729  1
  O  O32  1  0.35391058  0.47429013  0.36781392  1
  O  O33  1  0.12194485  0.48177173  0.86528469  1
  O  O34  1  0.35997891  0.88962641  0.85948347  1
  O  O35  1  0.52411175  0.63791264  0.86632612  1
  O  O36  1  0.01639918  0.82750267  0.41456350  1
  O  O37  1  0.80342344  0.97189211  0.41468728  1
  O  O38  1  0.18622195  0.20254585  0.41474327  1
  O  O39  1  0.02477644  0.19494796  0.91234998  1
  O  O40  1  0.17317689  0.98696599  0.91127937  1
  O  O41  1  0.80079443  0.81609848  0.91153374  1
  O  O42  1  0.97914039  0.18028218  0.58753853  1
  O  O43  1  0.19012142  0.00990396  0.58796256  1
  O  O44  1  0.81382288  0.81795323  0.58578686  1
  O  O45  1  0.98536672  0.81189932  0.08739730  1
  O  O46  1  0.82353897  0.02247124  0.08608256  1
  O  O47  1  0.18099193  0.17804319  0.08483777  1
  O  O48  1  0.67542072  0.15413896  0.74816270  1
  O  O49  1  0.47002556  0.31191387  0.74796793  1
  O  O50  1  0.85643776  0.53537115  0.74794161  1
  O  O51  1  0.69791454  0.53290628  0.24452489  1
  O  O52  1  0.83977420  0.31699343  0.24376190  1
  O  O53  1  0.46449401  0.14737508  0.24432704  1
  O  O54  1  0.63945835  0.50887766  0.92243345  1
  O  O55  1  0.85759463  0.35179296  0.92329478  1
  O  O56  1  0.48932795  0.14895036  0.92121763  1
  O  O57  1  0.64800683  0.13768283  0.42102789  1
  O  O58  1  0.49105991  0.36430631  0.42199042  1
  O  O59  1  0.85413925  0.51280685  0.41953105  1
  O  O60  1  0.34378405  0.49483037  0.07506099  1
  O  O61  1  0.14065494  0.64308826  0.07704398  1
  O  O62  1  0.51621916  0.86149856  0.07533640  1
  O  O63  1  0.35770351  0.85434121  0.58033346  1
  O  O64  1  0.49771687  0.65235421  0.57796622  1
  O  O65  1  0.14030762  0.48705139  0.57784640  1
  O  O66  1  0.30358116  0.84168600  0.25248548  1
  O  O67  1  0.53110894  0.68701913  0.25176632  1
  O  O68  1  0.15398054  0.47930485  0.24940276  1
  O  O69  1  0.31287416  0.47776871  0.75888564  1
  O  O70  1  0.16235157  0.69750455  0.75746008  1
  O  O71  1  0.51436257  0.83821880  0.75684065  1
loop_
_geom_bond_atom_site_label_1
_geom_bond_atom_site_label_2
_geom_bond_distance
_geom_bond_site_symmetry_2
Na0 O51 2.399320 1_555
Na0 O68 2.437785 1_655
Na0 O52 2.461549 1_555
Na0 O66 2.517760 1_655
Na0 O30 2.769347 1_655
Na0 O15 2.856045 1_555
Na1 O48 2.416574 1_555
Na1 O71 2.447810 1_545
Na1 O70 2.483718 1_545
Na1 O49 2.487820 1_555
Na1 O34 2.667564 1_545
Na1 O13 2.892119 1_555
Na1 O3 2.941472 1_555
Na1 O8 2.998869 1_545
Na2 O44 2.374668 1_555
Na2 O63 2.408157 1_555
Na2 O64 2.453863 1_555
Na2 O42 2.606771 1_565
Na2 O27 2.772749 1_555
Na2 O6 2.815302 1_555
Na2 O13 2.907502 1_565
Na3 O47 2.410752 1_555
Na3 O60 2.439830 1_555
Na3 O61 2.450027 1_555
Na3 O46 2.559927 1_455
Na3 O10 2.680664 1_555
Na3 O25 2.818399 1_554
Na3 O15 2.907726 1_455
Na3 O20 3.015080 1_455
Na4 O56 2.429403 1_555
Na4 O40 2.440244 1_545
Na4 O39 2.452920 1_555
Na4 O54 2.530531 1_555
Na4 O18 2.655488 1_556
Na4 O3 2.775778 1_555
Na4 O25 2.906807 1_555
Na4 O35 3.000160 1_555
Na5 O37 2.414870 1_555
Na5 O59 2.435787 1_555
Na5 O36 2.463355 1_655
Na5 O58 2.507384 1_555
Na5 O22 2.645702 1_555
Na5 O1 2.912689 1_555
Na5 O27 2.933369 1_555
Na6 O36 2.512877 1_555
Na6 O43 2.545382 1_565
Na6 O44 2.640395 1_455
Na6 O38 2.696921 1_565
Na6 O37 2.767369 1_455
Na6 O42 2.782102 1_465
Na7 O45 2.526726 1_455
Na7 O40 2.577099 1_554
Na7 O47 2.617673 1_565
Na7 O41 2.706693 1_454
Na7 O46 2.734693 1_465
Na7 O39 2.790260 1_564
Na8 O55 2.541750 1_555
Na8 O48 2.561122 1_555
Na8 O56 2.635925 1_555
Na8 O50 2.719378 1_555
Na8 O54 2.770456 1_555
Na8 O49 2.811426 1_555
Na9 O57 2.561529 1_555
Na9 O52 2.576630 1_555
Na9 O59 2.653526 1_555
Na9 O53 2.746394 1_555
Na9 O51 2.826738 1_555
Na9 O58 2.834596 1_555
Na10 O60 2.562080 1_555
Na10 O67 2.568295 1_555
Na10 O68 2.641180 1_555
Na10 O62 2.702279 1_555
Na10 O61 2.776761 1_555
Na10 O66 2.799452 1_555
Na11 O64 2.531324 1_555
Na11 O69 2.609784 1_555
Na11 O71 2.680887 1_555
Na11 O65 2.694882 1_555
Na11 O63 2.725791 1_555
Na11 O70 2.819370 1_555
In0 O5 2.094002 1_555
In0 O3 2.124451 1_655
In0 O39 2.142187 1_655
In0 O4 2.223523 1_545
In0 O40 2.237079 1_645
In0 O41 2.278560 1_545
In1 O9 2.098764 1_455
In1 O10 2.141242 1_565
In1 O45 2.158533 1_455
In1 O11 2.189474 1_555
In1 O47 2.212176 1_565
In1 O46 2.278326 1_465
In2 O19 2.125587 1_556
In2 O55 2.166018 1_555
In2 O18 2.167106 1_556
In2 O20 2.198706 1_556
In2 O56 2.215690 1_555
In2 O54 2.270659 1_555
In3 O26 2.096965 1_554
In3 O25 2.123090 1_554
In3 O61 2.148497 1_555
In3 O60 2.214685 1_555
In3 O24 2.235777 1_554
In3 O62 2.264373 1_555
In4 O29 2.087512 1_555
In4 O27 2.116184 1_555
In4 O63 2.135844 1_555
In4 O64 2.204314 1_555
In4 O28 2.210806 1_555
In4 O65 2.255788 1_555
In5 O33 2.120385 1_555
In5 O69 2.146428 1_555
In5 O34 2.151715 1_555
In5 O71 2.182704 1_555
In5 O35 2.187760 1_555
In5 O70 2.265232 1_555
O0 S0 1.464718 1_555
O0 Y0 2.268284 1_455
O1 P0 1.553337 1_555
O1 Y0 2.177600 1_565
O2 P1 1.527565 1_555
O2 Y0 2.157959 1_555
O3 P2 1.560001 1_555
O4 S1 1.473156 1_655
O5 P3 1.534737 1_545
O6 P3 1.544190 1_555
O6 Y1 2.223641 1_665
O7 P2 1.532406 1_555
O7 Y1 2.181801 1_555
O8 S1 1.479274 1_555
O8 Y1 2.240201 1_565
O9 P0 1.533781 1_555
O10 P1 1.554553 1_455
O11 S0 1.480002 1_565
O12 S2 1.471631 1_555
O12 Y2 2.309458 1_555
O13 P4 1.558392 1_555
O13 Y2 2.204451 1_555
O14 P5 1.534592 1_555
O14 Y2 2.181216 1_555
O15 P6 1.552481 1_555
O15 Y3 2.192939 1_555
O16 S3 1.466743 1_555
O16 Y3 2.288891 1_555
O17 P7 1.524457 1_555
O17 Y3 2.168783 1_555
O18 P7 1.554319 1_555
O19 P6 1.539016 1_555
O20 S3 1.484693 1_555
O21 P4 1.530856 1_555
O21 Y4 2.166896 1_555
O22 P5 1.540120 1_555
O22 Y4 2.219389 1_555
O23 S2 1.475728 1_555
O23 Y4 2.226952 1_555
O24 S4 1.474526 1_555
O25 P8 1.559911 1_555
O26 P9 1.531344 1_555
O27 P10 1.558924 1_555
O28 S5 1.472248 1_555
O29 P11 1.534518 1_555
O30 P11 1.543016 1_555
O30 Y5 2.217574 1_555
O31 P10 1.528815 1_555
O31 Y5 2.159955 1_555
O32 S5 1.473199 1_555
O32 Y5 2.226905 1_555
O33 P8 1.533130 1_555
O34 P9 1.550991 1_555
O35 S4 1.482729 1_555
O36 P11 1.560755 1_555
O36 Y0 2.293718 1_465
O37 P10 1.560534 1_555
O37 Y0 2.201425 1_565
O38 S5 1.469032 1_555
O38 Y0 2.312423 1_455
O39 P8 1.571798 1_555
O40 P9 1.574090 1_555
O41 S4 1.480874 1_555
O42 S2 1.492882 1_555
O42 Y1 2.307844 1_655
O43 P4 1.534500 1_555
O43 Y1 2.233235 1_555
O44 P5 1.562955 1_555
O44 Y1 2.281060 1_665
O45 P6 1.549917 1_555
O46 S3 1.501221 1_555
O47 P7 1.574979 1_555
O48 P3 1.564959 1_545
O48 Y2 2.321226 1_555
O49 P2 1.562815 1_555
O49 Y2 2.208180 1_555
O50 S1 1.471757 1_655
O50 Y2 2.332034 1_555
O51 P0 1.563831 1_555
O51 Y3 2.202296 1_555
O52 P1 1.560407 1_555
O52 Y3 2.286203 1_555
O53 S0 1.470415 1_555
O53 Y3 2.308640 1_555
O54 S4 1.504469 1_555
O55 P8 1.551595 1_655
O56 P9 1.576402 1_545
O57 P10 1.534406 1_545
O57 Y4 2.219044 1_555
O58 S5 1.492828 1_555
O58 Y4 2.299611 1_555
O59 P11 1.562974 1_655
O59 Y4 2.257378 1_555
O60 P7 1.570526 1_555
O61 P6 1.569827 1_455
O62 S3 1.480519 1_565
O63 P4 1.566351 1_565
O64 P5 1.566773 1_555
O65 S2 1.474090 1_455
O66 S0 1.494669 1_565
O66 Y5 2.302775 1_555
O67 P0 1.535097 1_555
O67 Y5 2.228023 1_555
O68 P1 1.560656 1_455
O68 Y5 2.271351 1_555
O69 P2 1.545310 1_555
O70 S1 1.497501 1_555
O71 P3 1.571584 1_555
