# generated using pymatgen
data_MgNb2V2O8
_symmetry_space_group_name_H-M   'P 1'
_cell_length_a   7.65834645
_cell_length_b   7.65869353
_cell_length_c   8.05672003
_cell_angle_alpha   142.99420898
_cell_angle_beta   142.15543453
_cell_angle_gamma   47.86959506
_symmetry_Int_Tables_number   1
_chemical_formula_structural   MgNb2V2O8
_chemical_formula_sum   'Mg1 Nb2 V2 O8'
_cell_volume   173.46418184
_cell_formula_units_Z   1
loop_
 _symmetry_equiv_pos_site_id
 _symmetry_equiv_pos_as_xyz
  1  'x, y, z'
loop_
 _atom_site_type_symbol
 _atom_site_label
 _atom_site_symmetry_multiplicity
 _atom_site_fract_x
 _atom_site_fract_y
 _atom_site_fract_z
 _atom_site_occupancy
  Mg  Mg0  1  0.23355635  0.98354814  0.24994575  1
  Nb  Nb0  1  0.90475629  0.65486493  0.25001790  1
  Nb  Nb1  1  0.07567803  0.32556704  0.74997314  1
  V  V0  1  0.43146492  0.18145321  0.25001453  1
  V  V1  1  0.56368788  0.81372364  0.75001163  1
  O  O0  1  0.72236818  0.47148775  0.78182550  1
  O  O1  1  0.78999116  0.05073830  0.27377527  1
  O  O2  1  0.35764525  0.14016947  0.67566059  1
  O  O3  1  0.06886823  0.32617684  0.24392655  1
  O  O4  1  0.96444045  0.68198848  0.82429003  1
  O  O5  1  0.58231367  0.82493069  0.25610592  1
  O  O6  1  0.18967629  0.94057849  0.71821540  1
  O  O7  1  0.27701129  0.51623102  0.22623779  1
loop_
_geom_bond_atom_site_label_1
_geom_bond_atom_site_label_2
_geom_bond_distance
_geom_bond_site_symmetry_2
Mg0 O4 1.978837 1_454
Mg0 O2 1.979010 1_565
Mg0 O3 2.035992 1_565
Mg0 O5 2.036114 1_555
Nb0 O5 1.889657 1_555
Nb0 O3 1.890582 1_655
Nb0 O0 2.000389 1_554
Nb0 O6 2.000424 1_655
Nb0 O1 2.401058 1_565
Nb0 O7 2.401694 1_655
Nb1 O2 1.899494 1_555
Nb1 O4 1.900232 1_455
Nb1 O1 1.990047 1_455
Nb1 O7 1.990191 1_556
Nb1 O6 2.283780 1_545
Nb1 O0 2.284218 1_455
O0 V0 2.149050 1_555
O0 V1 2.172600 1_555
O1 V0 2.089480 1_555
O1 V1 2.131160 1_544
O2 V1 2.169263 1_545
O3 V0 2.164339 1_555
O4 V1 2.169018 1_555
O5 V0 2.164491 1_565
O6 V0 2.149026 1_566
O6 V1 2.172306 1_555
O7 V0 2.089832 1_555
O7 V1 2.131118 1_555
