# generated using pymatgen
data_MgMo2(SeS)2
_symmetry_space_group_name_H-M   'P 1'
_cell_length_a   4.67525125
_cell_length_b   3.64227685
_cell_length_c   17.63032253
_cell_angle_alpha   90.00000000
_cell_angle_beta   90.00000000
_cell_angle_gamma   129.92644128
_symmetry_Int_Tables_number   1
_chemical_formula_structural   MgMo2(SeS)2
_chemical_formula_sum   'Mg1 Mo2 Se2 S2'
_cell_volume   230.22865477
_cell_formula_units_Z   1
loop_
 _symmetry_equiv_pos_site_id
 _symmetry_equiv_pos_as_xyz
  1  'x, y, z'
loop_
 _atom_site_type_symbol
 _atom_site_label
 _atom_site_symmetry_multiplicity
 _atom_site_fract_x
 _atom_site_fract_y
 _atom_site_fract_z
 _atom_site_occupancy
  Mg  Mg0  1  0.85547091  0.71094080  0.50000000  1
  Mo  Mo0  1  0.55044422  0.10088743  -0.00000000  1
  Mo  Mo1  1  0.32439869  0.64879740  0.50000000  1
  Se  Se0  1  0.57450933  0.14901866  0.61111802  1
  Se  Se1  1  0.57450933  0.14901866  0.38888198  1
  S  S0  1  0.22696776  0.45393453  0.08189958  1
  S  S1  1  0.22696776  0.45393453  0.91810042  1
loop_
_geom_bond_atom_site_label_1
_geom_bond_atom_site_label_2
_geom_bond_distance
_geom_bond_site_symmetry_2
Mg0 Mo1 2.344059 1_655
Mg0 Mo1 2.344063 1_555
Mg0 Se1 2.510238 1_555
Mg0 Se0 2.510238 1_555
Mg0 Mo1 2.619574 1_665
Mo0 S1 2.313066 1_544
Mo0 S0 2.313066 1_545
Mo0 S0 2.919213 1_655
Mo0 S1 2.919213 1_654
Mo0 S1 2.919214 1_554
Mo0 S0 2.919214 1_555
Mo1 Se1 2.406244 1_565
Mo1 Se0 2.406244 1_565
