# generated using pymatgen
data_MgMoW3(Se3S)2
_symmetry_space_group_name_H-M   'P 1'
_cell_length_a   6.57350200
_cell_length_b   6.57333202
_cell_length_c   75.73042200
_cell_angle_alpha   90.00114900
_cell_angle_beta   89.99965923
_cell_angle_gamma   120.00187427
_symmetry_Int_Tables_number   1
_chemical_formula_structural   MgMoW3(Se3S)2
_chemical_formula_sum   'Mg8 Mo8 W24 Se48 S16'
_cell_volume   2833.83901051
_cell_formula_units_Z   8
loop_
 _symmetry_equiv_pos_site_id
 _symmetry_equiv_pos_as_xyz
  1  'x, y, z'
loop_
 _atom_site_type_symbol
 _atom_site_label
 _atom_site_symmetry_multiplicity
 _atom_site_fract_x
 _atom_site_fract_y
 _atom_site_fract_z
 _atom_site_occupancy
  Mg  Mg0_0  1  0.21802700  0.29318800  0.43645050  1
  Mg  Mg0_1  1  0.21802700  0.29318800  0.93645050  1
  Mg  Mg0_2  1  0.21802700  0.79318800  0.43645050  1
  Mg  Mg0_3  1  0.21802700  0.79318800  0.93645050  1
  Mg  Mg0_4  1  0.71802700  0.29318800  0.43645050  1
  Mg  Mg0_5  1  0.71802700  0.29318800  0.93645050  1
  Mg  Mg0_6  1  0.71802700  0.79318800  0.43645050  1
  Mg  Mg0_7  1  0.71802700  0.79318800  0.93645050  1
  Mo  Mo0_0  1  0.33334650  0.16669450  0.14089650  1
  Mo  Mo0_1  1  0.33334650  0.16669450  0.64089650  1
  Mo  Mo0_2  1  0.33334650  0.66669450  0.14089650  1
  Mo  Mo0_3  1  0.33334650  0.66669450  0.64089650  1
  Mo  Mo0_4  1  0.83334650  0.16669450  0.14089650  1
  Mo  Mo0_5  1  0.83334650  0.16669450  0.64089650  1
  Mo  Mo0_6  1  0.83334650  0.66669450  0.14089650  1
  Mo  Mo0_7  1  0.83334650  0.66669450  0.64089650  1
  W  W0_0  1  0.16665550  0.33331100  0.04694350  1
  W  W0_1  1  0.16665550  0.33331100  0.54694350  1
  W  W0_2  1  0.16665550  0.83331100  0.04694350  1
  W  W0_3  1  0.16665550  0.83331100  0.54694350  1
  W  W0_4  1  0.66665550  0.33331100  0.04694350  1
  W  W0_5  1  0.66665550  0.33331100  0.54694350  1
  W  W0_6  1  0.66665550  0.83331100  0.04694350  1
  W  W0_7  1  0.66665550  0.83331100  0.54694350  1
  W  W1_0  1  0.16666200  0.33331800  0.23482800  1
  W  W1_1  1  0.16666200  0.33331800  0.73482800  1
  W  W1_2  1  0.16666200  0.83331800  0.23482800  1
  W  W1_3  1  0.16666200  0.83331800  0.73482800  1
  W  W1_4  1  0.66666200  0.33331800  0.23482800  1
  W  W1_5  1  0.66666200  0.33331800  0.73482800  1
  W  W1_6  1  0.66666200  0.83331800  0.23482800  1
  W  W1_7  1  0.66666200  0.83331800  0.73482800  1
  W  W2_0  1  0.33334700  0.16669450  0.32876350  1
  W  W2_1  1  0.33334700  0.16669450  0.82876350  1
  W  W2_2  1  0.33334700  0.66669450  0.32876350  1
  W  W2_3  1  0.33334700  0.66669450  0.82876350  1
  W  W2_4  1  0.83334700  0.16669450  0.32876350  1
  W  W2_5  1  0.83334700  0.16669450  0.82876350  1
  W  W2_6  1  0.83334700  0.66669450  0.32876350  1
  W  W2_7  1  0.83334700  0.66669450  0.82876350  1
  Se  Se0_0  1  0.16667800  0.33335600  0.16314350  1
  Se  Se0_1  1  0.16667800  0.33335600  0.66314350  1
  Se  Se0_2  1  0.16667800  0.83335600  0.16314350  1
  Se  Se0_3  1  0.16667800  0.83335600  0.66314350  1
  Se  Se0_4  1  0.66667800  0.33335600  0.16314350  1
  Se  Se0_5  1  0.66667800  0.33335600  0.66314350  1
  Se  Se0_6  1  0.66667800  0.83335600  0.16314350  1
  Se  Se0_7  1  0.66667800  0.83335600  0.66314350  1
  Se  Se1_0  1  0.16667900  0.33335950  0.35113250  1
  Se  Se1_1  1  0.16667900  0.33335950  0.85113250  1
  Se  Se1_2  1  0.16667900  0.83335950  0.35113250  1
  Se  Se1_3  1  0.16667900  0.83335950  0.85113250  1
  Se  Se1_4  1  0.66667900  0.33335950  0.35113250  1
  Se  Se1_5  1  0.66667900  0.33335950  0.85113250  1
  Se  Se1_6  1  0.66667900  0.83335950  0.35113250  1
  Se  Se1_7  1  0.66667900  0.83335950  0.85113250  1
  Se  Se2_0  1  0.33332350  0.16664750  0.02459000  1
  Se  Se2_1  1  0.33332350  0.16664750  0.52459000  1
  Se  Se2_2  1  0.33332350  0.66664750  0.02459000  1
  Se  Se2_3  1  0.33332350  0.66664750  0.52459000  1
  Se  Se2_4  1  0.83332350  0.16664750  0.02459000  1
  Se  Se2_5  1  0.83332350  0.16664750  0.52459000  1
  Se  Se2_6  1  0.83332350  0.66664750  0.02459000  1
  Se  Se2_7  1  0.83332350  0.66664750  0.52459000  1
  Se  Se3_0  1  0.33331500  0.16663100  0.06932300  1
  Se  Se3_1  1  0.33331500  0.16663100  0.56932300  1
  Se  Se3_2  1  0.33331500  0.66663100  0.06932300  1
  Se  Se3_3  1  0.33331500  0.66663100  0.56932300  1
  Se  Se3_4  1  0.83331500  0.16663100  0.06932300  1
  Se  Se3_5  1  0.83331500  0.16663100  0.56932300  1
  Se  Se3_6  1  0.83331500  0.66663100  0.06932300  1
  Se  Se3_7  1  0.83331500  0.66663100  0.56932300  1
  Se  Se4_0  1  0.16667650  0.33335350  0.11865300  1
  Se  Se4_1  1  0.16667650  0.33335350  0.61865300  1
  Se  Se4_2  1  0.16667650  0.83335350  0.11865300  1
  Se  Se4_3  1  0.16667650  0.83335350  0.61865300  1
  Se  Se4_4  1  0.66667650  0.33335350  0.11865300  1
  Se  Se4_5  1  0.66667650  0.33335350  0.61865300  1
  Se  Se4_6  1  0.66667650  0.83335350  0.11865300  1
  Se  Se4_7  1  0.66667650  0.83335350  0.61865300  1
  Se  Se5_0  1  0.16667750  0.33335550  0.30639050  1
  Se  Se5_1  1  0.16667750  0.33335550  0.80639050  1
  Se  Se5_2  1  0.16667750  0.83335550  0.30639050  1
  Se  Se5_3  1  0.16667750  0.83335550  0.80639050  1
  Se  Se5_4  1  0.66667750  0.33335550  0.30639050  1
  Se  Se5_5  1  0.66667750  0.33335550  0.80639050  1
  Se  Se5_6  1  0.66667750  0.83335550  0.30639050  1
  Se  Se5_7  1  0.66667750  0.83335550  0.80639050  1
  S  S0_0  1  0.33331950  0.16664250  0.21451250  1
  S  S0_1  1  0.33331950  0.16664250  0.71451250  1
  S  S0_2  1  0.33331950  0.66664250  0.21451250  1
  S  S0_3  1  0.33331950  0.66664250  0.71451250  1
  S  S0_4  1  0.83331950  0.16664250  0.21451250  1
  S  S0_5  1  0.83331950  0.16664250  0.71451250  1
  S  S0_6  1  0.83331950  0.66664250  0.21451250  1
  S  S0_7  1  0.83331950  0.66664250  0.71451250  1
  S  S1_0  1  0.33332050  0.16664550  0.25514050  1
  S  S1_1  1  0.33332050  0.16664550  0.75514050  1
  S  S1_2  1  0.33332050  0.66664550  0.25514050  1
  S  S1_3  1  0.33332050  0.66664550  0.75514050  1
  S  S1_4  1  0.83332050  0.16664550  0.25514050  1
  S  S1_5  1  0.83332050  0.16664550  0.75514050  1
  S  S1_6  1  0.83332050  0.66664550  0.25514050  1
  S  S1_7  1  0.83332050  0.66664550  0.75514050  1
loop_
_geom_bond_atom_site_label_1
_geom_bond_atom_site_label_2
_geom_bond_distance
_geom_bond_site_symmetry_2
Mg0_0 Mg0_6 3.286615 1_555
Mg0_0 Mg0_6 3.286615 1_445
Mg0_0 Mg0_2 3.286666 1_555
Mg0_0 Mg0_2 3.286666 1_545
Mg0_0 Mg0_4 3.286751 1_555
Mg0_0 Mg0_4 3.286751 1_455
Mg0_1 Mg0_7 3.286615 1_555
Mg0_1 Mg0_7 3.286615 1_445
Mg0_1 Mg0_3 3.286666 1_555
Mg0_1 Mg0_3 3.286666 1_545
Mg0_1 Mg0_5 3.286751 1_555
Mg0_1 Mg0_5 3.286751 1_455
Mg0_2 Mg0_4 3.286615 1_565
Mg0_2 Mg0_4 3.286615 1_455
Mg0_2 Mg0_6 3.286751 1_555
Mg0_2 Mg0_6 3.286751 1_455
Mg0_3 Mg0_5 3.286615 1_565
Mg0_3 Mg0_5 3.286615 1_455
Mg0_3 Mg0_7 3.286751 1_555
Mg0_3 Mg0_7 3.286751 1_455
Mg0_4 Mg0_6 3.286666 1_555
Mg0_4 Mg0_6 3.286666 1_545
Mg0_5 Mg0_7 3.286666 1_555
Mg0_5 Mg0_7 3.286666 1_545
Mo0_0 Se4_2 2.537361 1_545
Mo0_0 Se4_4 2.537382 1_555
Mo0_0 Se4_0 2.537412 1_555
Mo0_0 Se0_4 2.537552 1_555
Mo0_0 Se0_0 2.537555 1_555
Mo0_0 Se0_2 2.537576 1_545
Mo0_1 Se4_3 2.537361 1_545
Mo0_1 Se4_5 2.537382 1_555
Mo0_1 Se4_1 2.537412 1_555
Mo0_1 Se0_5 2.537552 1_555
Mo0_1 Se0_1 2.537555 1_555
Mo0_1 Se0_3 2.537576 1_545
Mo0_2 Se4_0 2.537361 1_555
Mo0_2 Se4_6 2.537382 1_555
Mo0_2 Se4_2 2.537412 1_555
Mo0_2 Se0_6 2.537552 1_555
Mo0_2 Se0_2 2.537555 1_555
Mo0_2 Se0_0 2.537576 1_555
Mo0_3 Se4_1 2.537361 1_555
Mo0_3 Se4_7 2.537382 1_555
Mo0_3 Se4_3 2.537412 1_555
Mo0_3 Se0_7 2.537552 1_555
Mo0_3 Se0_3 2.537555 1_555
Mo0_3 Se0_1 2.537576 1_555
Mo0_4 Se4_6 2.537361 1_545
Mo0_4 Se4_0 2.537382 1_655
Mo0_4 Se4_4 2.537412 1_555
Mo0_4 Se0_0 2.537552 1_655
Mo0_4 Se0_4 2.537555 1_555
Mo0_4 Se0_6 2.537576 1_545
Mo0_5 Se4_7 2.537361 1_545
Mo0_5 Se4_1 2.537382 1_655
Mo0_5 Se4_5 2.537412 1_555
Mo0_5 Se0_1 2.537552 1_655
Mo0_5 Se0_5 2.537555 1_555
Mo0_5 Se0_7 2.537576 1_545
Mo0_6 Se4_4 2.537361 1_555
Mo0_6 Se4_2 2.537382 1_655
Mo0_6 Se4_6 2.537412 1_555
Mo0_6 Se0_2 2.537552 1_655
Mo0_6 Se0_6 2.537555 1_555
Mo0_6 Se0_4 2.537576 1_555
Mo0_7 Se4_5 2.537361 1_555
Mo0_7 Se4_3 2.537382 1_655
Mo0_7 Se4_7 2.537412 1_555
Mo0_7 Se0_3 2.537552 1_655
Mo0_7 Se0_7 2.537555 1_555
Mo0_7 Se0_5 2.537576 1_555
Se1_0 W2_4 2.543698 1_455
Se1_0 W2_2 2.543705 1_555
Se1_0 W2_0 2.543711 1_555
Se1_1 W2_5 2.543698 1_455
Se1_1 W2_3 2.543705 1_555
Se1_1 W2_1 2.543711 1_555
Se1_2 W2_6 2.543698 1_455
Se1_2 W2_0 2.543705 1_565
Se1_2 W2_2 2.543711 1_555
Se1_3 W2_7 2.543698 1_455
Se1_3 W2_1 2.543705 1_565
Se1_3 W2_3 2.543711 1_555
Se1_4 W2_0 2.543698 1_555
Se1_4 W2_6 2.543705 1_555
Se1_4 W2_4 2.543711 1_555
Se1_5 W2_1 2.543698 1_555
Se1_5 W2_7 2.543705 1_555
Se1_5 W2_5 2.543711 1_555
Se1_6 W2_2 2.543698 1_555
Se1_6 W2_4 2.543705 1_565
Se1_6 W2_6 2.543711 1_555
Se1_7 W2_3 2.543698 1_555
Se1_7 W2_5 2.543705 1_565
Se1_7 W2_7 2.543711 1_555
Se2_0 W0_4 2.542916 1_555
Se2_0 W0_0 2.542923 1_555
Se2_0 W0_2 2.542930 1_545
Se2_1 W0_5 2.542916 1_555
Se2_1 W0_1 2.542923 1_555
Se2_1 W0_3 2.542930 1_545
Se2_2 W0_6 2.542916 1_555
Se2_2 W0_2 2.542923 1_555
Se2_2 W0_0 2.542930 1_555
Se2_3 W0_7 2.542916 1_555
Se2_3 W0_3 2.542923 1_555
Se2_3 W0_1 2.542930 1_555
Se2_4 W0_0 2.542916 1_655
Se2_4 W0_4 2.542923 1_555
Se2_4 W0_6 2.542930 1_545
Se2_5 W0_1 2.542916 1_655
Se2_5 W0_5 2.542923 1_555
Se2_5 W0_7 2.542930 1_545
Se2_6 W0_2 2.542916 1_655
Se2_6 W0_6 2.542923 1_555
Se2_6 W0_4 2.542930 1_555
Se2_7 W0_3 2.542916 1_655
Se2_7 W0_7 2.542923 1_555
Se2_7 W0_5 2.542930 1_555
Se3_0 W0_2 2.544121 1_545
Se3_0 W0_4 2.544275 1_555
Se3_0 W0_0 2.544306 1_555
Se3_1 W0_3 2.544121 1_545
Se3_1 W0_5 2.544275 1_555
Se3_1 W0_1 2.544306 1_555
Se3_2 W0_0 2.544121 1_555
Se3_2 W0_6 2.544275 1_555
Se3_2 W0_2 2.544306 1_555
Se3_3 W0_1 2.544121 1_555
Se3_3 W0_7 2.544275 1_555
Se3_3 W0_3 2.544306 1_555
Se3_4 W0_6 2.544121 1_545
Se3_4 W0_0 2.544275 1_655
Se3_4 W0_4 2.544306 1_555
Se3_5 W0_7 2.544121 1_545
Se3_5 W0_1 2.544275 1_655
Se3_5 W0_5 2.544306 1_555
Se3_6 W0_4 2.544121 1_555
Se3_6 W0_2 2.544275 1_655
Se3_6 W0_6 2.544306 1_555
Se3_7 W0_5 2.544121 1_555
Se3_7 W0_3 2.544275 1_655
Se3_7 W0_7 2.544306 1_555
Se5_0 W2_2 2.543874 1_555
Se5_0 W2_4 2.543905 1_455
Se5_0 W2_0 2.543940 1_555
Se5_1 W2_3 2.543874 1_555
Se5_1 W2_5 2.543905 1_455
Se5_1 W2_1 2.543940 1_555
Se5_2 W2_0 2.543874 1_565
Se5_2 W2_6 2.543905 1_455
Se5_2 W2_2 2.543940 1_555
Se5_3 W2_1 2.543874 1_565
Se5_3 W2_7 2.543905 1_455
Se5_3 W2_3 2.543940 1_555
Se5_4 W2_6 2.543874 1_555
Se5_4 W2_0 2.543905 1_555
Se5_4 W2_4 2.543940 1_555
Se5_5 W2_7 2.543874 1_555
Se5_5 W2_1 2.543905 1_555
Se5_5 W2_5 2.543940 1_555
Se5_6 W2_4 2.543874 1_565
Se5_6 W2_2 2.543905 1_555
Se5_6 W2_6 2.543940 1_555
Se5_7 W2_5 2.543874 1_565
Se5_7 W2_3 2.543905 1_555
Se5_7 W2_7 2.543940 1_555
S0_0 W1_2 2.442847 1_545
S0_0 W1_0 2.442903 1_555
S0_0 W1_4 2.442935 1_555
S0_1 W1_3 2.442847 1_545
S0_1 W1_1 2.442903 1_555
S0_1 W1_5 2.442935 1_555
S0_2 W1_0 2.442847 1_555
S0_2 W1_2 2.442903 1_555
S0_2 W1_6 2.442935 1_555
S0_3 W1_1 2.442847 1_555
S0_3 W1_3 2.442903 1_555
S0_3 W1_7 2.442935 1_555
S0_4 W1_6 2.442847 1_545
S0_4 W1_4 2.442903 1_555
S0_4 W1_0 2.442935 1_655
S0_5 W1_7 2.442847 1_545
S0_5 W1_5 2.442903 1_555
S0_5 W1_1 2.442935 1_655
S0_6 W1_4 2.442847 1_555
S0_6 W1_6 2.442903 1_555
S0_6 W1_2 2.442935 1_655
S0_7 W1_5 2.442847 1_555
S0_7 W1_7 2.442903 1_555
S0_7 W1_3 2.442935 1_655
S1_0 W1_2 2.442670 1_545
S1_0 W1_0 2.442787 1_555
S1_0 W1_4 2.442799 1_555
S1_1 W1_3 2.442670 1_545
S1_1 W1_1 2.442787 1_555
S1_1 W1_5 2.442799 1_555
S1_2 W1_0 2.442670 1_555
S1_2 W1_2 2.442787 1_555
S1_2 W1_6 2.442799 1_555
S1_3 W1_1 2.442670 1_555
S1_3 W1_3 2.442787 1_555
S1_3 W1_7 2.442799 1_555
S1_4 W1_6 2.442670 1_545
S1_4 W1_4 2.442787 1_555
S1_4 W1_0 2.442799 1_655
S1_5 W1_7 2.442670 1_545
S1_5 W1_5 2.442787 1_555
S1_5 W1_1 2.442799 1_655
S1_6 W1_4 2.442670 1_555
S1_6 W1_6 2.442787 1_555
S1_6 W1_2 2.442799 1_655
S1_7 W1_5 2.442670 1_555
S1_7 W1_7 2.442787 1_555
S1_7 W1_3 2.442799 1_655
