# generated using pymatgen
data_SrPrO3
_symmetry_space_group_name_H-M   'P 1'
_cell_length_a   6.17982200
_cell_length_b   6.39369400
_cell_length_c   8.88746600
_cell_angle_alpha   90.00000000
_cell_angle_beta   90.00000000
_cell_angle_gamma   90.00000000
_symmetry_Int_Tables_number   1
_chemical_formula_structural   SrPrO3
_chemical_formula_sum   'Sr4 Pr4 O12'
_cell_volume   351.16058646
_cell_formula_units_Z   4
loop_
 _symmetry_equiv_pos_site_id
 _symmetry_equiv_pos_as_xyz
  1  'x, y, z'
loop_
 _atom_site_type_symbol
 _atom_site_label
 _atom_site_symmetry_multiplicity
 _atom_site_fract_x
 _atom_site_fract_y
 _atom_site_fract_z
 _atom_site_occupancy
  Sr  Sr0  1  0.97742900  0.05323500  0.25000000  1
  Sr  Sr1  1  0.47742900  0.44676500  0.75000000  1
  Sr  Sr2  1  0.52257100  0.55323500  0.25000000  1
  Sr  Sr3  1  0.02257100  0.94676500  0.75000000  1
  Pr  Pr0  1  0.00000000  0.50000000  0.00000000  1
  Pr  Pr1  1  0.50000000  0.00000000  0.00000000  1
  Pr  Pr2  1  0.50000000  0.00000000  0.50000000  1
  Pr  Pr3  1  0.00000000  0.50000000  0.50000000  1
  O  O0  1  0.70303900  0.29577400  0.42799400  1
  O  O1  1  0.20303900  0.20422600  0.57200600  1
  O  O2  1  0.79696100  0.79577400  0.07200600  1
  O  O3  1  0.29696100  0.70422600  0.92799400  1
  O  O4  1  0.29696100  0.70422600  0.57200600  1
  O  O5  1  0.79696100  0.79577400  0.42799400  1
  O  O6  1  0.20303900  0.20422600  0.92799400  1
  O  O7  1  0.70303900  0.29577400  0.07200600  1
  O  O8  1  0.13119500  0.43624000  0.25000000  1
  O  O9  1  0.63119500  0.06376000  0.75000000  1
  O  O10  1  0.36880500  0.93624000  0.25000000  1
  O  O11  1  0.86880500  0.56376000  0.75000000  1
loop_
_geom_bond_atom_site_label_1
_geom_bond_atom_site_label_2
_geom_bond_distance
_geom_bond_site_symmetry_2
O0 Pr3 2.341448 1_655
O0 Pr2 2.357994 1_555
O0 Sr2 2.540865 1_555
O0 Sr0 2.789718 1_555
O1 Pr2 2.341448 1_555
O1 Pr3 2.357994 1_555
O1 Sr3 2.540865 1_545
O1 Sr1 2.789718 1_555
O2 Pr1 2.341448 1_565
O2 Pr0 2.357994 1_655
O2 Sr0 2.540865 1_565
O2 Sr2 2.789718 1_555
O3 Pr0 2.341448 1_556
O3 Pr1 2.357994 1_566
O3 Sr1 2.540865 1_555
O3 Sr3 2.789718 1_555
O4 Pr3 2.341448 1_555
O4 Pr2 2.357994 1_565
O4 Sr1 2.540865 1_555
O4 Sr3 2.789718 1_555
O5 Pr2 2.341448 1_565
O5 Pr3 2.357994 1_655
O5 Sr0 2.540865 1_565
O5 Sr2 2.789718 1_555
O6 Pr1 2.341448 1_556
O6 Pr0 2.357994 1_556
O6 Sr3 2.540865 1_545
O6 Sr1 2.789718 1_555
O7 Pr0 2.341448 1_655
O7 Pr1 2.357994 1_555
O7 Sr2 2.540865 1_555
O7 Sr0 2.789718 1_555
O8 Pr0 2.400045 1_555
O8 Pr3 2.400045 1_555
O8 Sr2 2.531667 1_555
O8 Sr0 2.626723 1_455
O9 Pr2 2.400045 1_555
O9 Pr1 2.400045 1_556
O9 Sr3 2.531667 1_645
O9 Sr1 2.626723 1_555
O10 Pr1 2.400045 1_565
O10 Pr2 2.400045 1_565
O10 Sr0 2.531667 1_465
O10 Sr2 2.626723 1_555
O11 Pr3 2.400045 1_655
O11 Pr0 2.400045 1_656
O11 Sr1 2.531667 1_555
O11 Sr3 2.626723 1_655
