# generated using pymatgen
data_Rb4Mg3H10
_symmetry_space_group_name_H-M   'P 1'
_cell_length_a   7.64768220
_cell_length_b   7.64768220
_cell_length_c   13.42250755
_cell_angle_alpha   90.00000000
_cell_angle_beta   90.00000000
_cell_angle_gamma   133.86905769
_symmetry_Int_Tables_number   1
_chemical_formula_structural   Rb4Mg3H10
_chemical_formula_sum   'Rb8 Mg6 H20'
_cell_volume   565.95733599
_cell_formula_units_Z   2
loop_
 _symmetry_equiv_pos_site_id
 _symmetry_equiv_pos_as_xyz
  1  'x, y, z'
loop_
 _atom_site_type_symbol
 _atom_site_label
 _atom_site_symmetry_multiplicity
 _atom_site_fract_x
 _atom_site_fract_y
 _atom_site_fract_z
 _atom_site_occupancy
  Rb  Rb0  1  0.04080171  0.95919829  0.63915700  1
  Rb  Rb1  1  0.95919829  0.04080171  0.36084300  1
  Rb  Rb2  1  0.45919829  0.54080171  0.13915700  1
  Rb  Rb3  1  0.54080171  0.45919829  0.86084300  1
  Rb  Rb4  1  0.24282781  0.75717219  0.89483862  1
  Rb  Rb5  1  0.75717219  0.24282781  0.10516138  1
  Rb  Rb6  1  0.25717219  0.74282781  0.39483862  1
  Rb  Rb7  1  0.74282781  0.25717219  0.60516138  1
  Mg  Mg0  1  0.50000000  0.50000000  0.50000000  1
  Mg  Mg1  1  0.00000000  -0.00000000  -0.00000000  1
  Mg  Mg2  1  0.37682101  0.62317899  0.65628437  1
  Mg  Mg3  1  0.62317899  0.37682101  0.34371563  1
  Mg  Mg4  1  0.12317899  0.87682101  0.15628437  1
  Mg  Mg5  1  0.87682101  0.12317899  0.84371563  1
  H  H0  1  0.24291749  0.75708251  0.64753975  1
  H  H1  1  0.75708251  0.24291749  0.35246025  1
  H  H2  1  0.25708251  0.74291749  0.14753975  1
  H  H3  1  0.74291749  0.25708251  0.85246025  1
  H  H4  1  0.02661730  0.97338270  0.85627029  1
  H  H5  1  0.97338270  0.02661730  0.14372971  1
  H  H6  1  0.47338270  0.52661730  0.35627029  1
  H  H7  1  0.52661730  0.47338270  0.64372971  1
  H  H8  1  0.13809209  0.36190791  0.75000000  1
  H  H9  1  0.36190791  0.13809209  0.25000000  1
  H  H10  1  0.86190791  0.63809209  0.25000000  1
  H  H11  1  0.63809209  0.86190791  0.75000000  1
  H  H12  1  0.38501235  0.18736583  0.46096496  1
  H  H13  1  0.18736583  0.38501235  0.53903504  1
  H  H14  1  0.68736583  0.88501235  0.96096496  1
  H  H15  1  0.88501235  0.68736583  0.03903504  1
  H  H16  1  0.81263417  0.61498765  0.46096496  1
  H  H17  1  0.61498765  0.81263417  0.53903504  1
  H  H18  1  0.31263417  0.11498765  0.03903504  1
  H  H19  1  0.11498765  0.31263417  0.96096496  1
loop_
_geom_bond_atom_site_label_1
_geom_bond_atom_site_label_2
_geom_bond_distance
_geom_bond_site_symmetry_2
H0 Mg2 1.888025 1_555
H0 Rb0 2.846523 1_555
H0 Rb7 3.049747 1_565
H0 Rb7 3.049747 1_455
H1 Mg3 1.888025 1_555
H1 Rb1 2.846523 1_555
H1 Rb6 3.049747 1_655
H1 Rb6 3.049747 1_545
H2 Mg4 1.888025 1_555
H2 Rb2 2.846523 1_555
H2 Rb5 3.049747 1_455
H2 Rb5 3.049747 1_565
H3 Mg5 1.888025 1_555
H3 Rb3 2.846523 1_555
H3 Rb4 3.049747 1_545
H3 Rb4 3.049747 1_655
H4 Mg1 1.965240 1_566
H4 Mg5 2.114751 1_465
H4 Rb0 2.921033 1_555
H4 Rb3 3.003499 1_455
H4 Rb3 3.003499 1_565
H4 Rb4 3.086374 1_555
H5 Mg1 1.965240 1_655
H5 Mg4 2.114751 1_645
H5 Rb1 2.921033 1_555
H5 Rb2 3.003499 1_655
H5 Rb2 3.003499 1_545
H5 Rb5 3.086374 1_555
H6 Mg0 1.965240 1_555
H6 Mg3 2.114751 1_555
H6 Rb2 2.921033 1_555
H6 Rb1 3.003499 1_455
H6 Rb1 3.003499 1_565
H6 Rb6 3.086374 1_555
H7 Mg0 1.965240 1_555
H7 Mg2 2.114751 1_555
H7 Rb3 2.921033 1_555
H7 Rb0 3.003499 1_545
H7 Rb0 3.003499 1_655
H7 Rb7 3.086374 1_555
H8 Mg2 1.962604 1_555
H8 Mg5 1.962604 1_455
H8 Rb0 3.012669 1_545
H8 Rb3 3.012669 1_555
H9 Mg3 1.962604 1_555
H9 Mg4 1.962604 1_545
H9 Rb1 3.012669 1_455
H9 Rb2 3.012669 1_555
H10 Mg4 1.962604 1_655
H10 Mg3 1.962604 1_555
H10 Rb2 3.012669 1_555
H10 Rb1 3.012669 1_565
H11 Mg2 1.962604 1_555
H11 Mg5 1.962604 1_565
H11 Rb3 3.012669 1_555
H11 Rb0 3.012669 1_655
H12 Mg0 1.962188 1_555
H12 Mg3 2.058123 1_555
H12 Rb1 2.933934 1_455
H12 Rb6 2.948668 1_545
H12 Rb0 3.054255 1_545
H12 Rb7 3.081310 1_555
H13 Mg0 1.962188 1_555
H13 Mg2 2.058123 1_555
H13 Rb0 2.933934 1_545
H13 Rb7 2.948668 1_455
H13 Rb1 3.054255 1_455
H13 Rb6 3.081310 1_555
H14 Mg1 1.962188 1_666
H14 Mg5 2.058123 1_565
H14 Rb3 2.933934 1_555
H14 Rb4 2.948668 1_555
H14 Rb2 3.054255 1_556
H14 Rb5 3.081310 1_566
H15 Mg1 1.962188 1_665
H15 Mg4 2.058123 1_655
H15 Rb2 2.933934 1_555
H15 Rb5 2.948668 1_555
H15 Rb3 3.054255 1_554
H15 Rb4 3.081310 1_654
H16 Mg0 1.962188 1_555
H16 Mg3 2.058123 1_555
H16 Rb1 2.933934 1_565
H16 Rb6 2.948668 1_655
H16 Rb0 3.054255 1_655
H16 Rb7 3.081310 1_555
H17 Mg0 1.962188 1_555
H17 Mg2 2.058123 1_555
H17 Rb0 2.933934 1_655
H17 Rb7 2.948668 1_565
H17 Rb1 3.054255 1_565
H17 Rb6 3.081310 1_555
H18 Mg1 1.962188 1_555
H18 Mg4 2.058123 1_545
H18 Rb2 2.933934 1_555
H18 Rb5 2.948668 1_555
H18 Rb3 3.054255 1_554
H18 Rb4 3.081310 1_544
H19 Mg1 1.962188 1_556
H19 Mg5 2.058123 1_455
H19 Rb3 2.933934 1_555
H19 Rb4 2.948668 1_555
H19 Rb2 3.054255 1_556
H19 Rb5 3.081310 1_456
