# generated using pymatgen
data_SrMnGe
_symmetry_space_group_name_H-M   'P 1'
_cell_length_a   4.47830200
_cell_length_b   4.47830200
_cell_length_c   7.32103900
_cell_angle_alpha   90.00000000
_cell_angle_beta   90.00000000
_cell_angle_gamma   90.00000000
_symmetry_Int_Tables_number   1
_chemical_formula_structural   SrMnGe
_chemical_formula_sum   'Sr2 Mn2 Ge2'
_cell_volume   146.82481938
_cell_formula_units_Z   2
loop_
 _symmetry_equiv_pos_site_id
 _symmetry_equiv_pos_as_xyz
  1  'x, y, z'
loop_
 _atom_site_type_symbol
 _atom_site_label
 _atom_site_symmetry_multiplicity
 _atom_site_fract_x
 _atom_site_fract_y
 _atom_site_fract_z
 _atom_site_occupancy
  Sr  Sr0  1  0.00000000  0.50000000  0.32519100  1
  Sr  Sr1  1  0.50000000  0.00000000  0.67480900  1
  Mn  Mn0  1  0.50000000  0.50000000  0.00000000  1
  Mn  Mn1  1  0.00000000  0.00000000  0.00000000  1
  Ge  Ge0  1  0.00000000  0.50000000  0.81646300  1
  Ge  Ge1  1  0.50000000  0.00000000  0.18353700  1
loop_
_geom_bond_atom_site_label_1
_geom_bond_atom_site_label_2
_geom_bond_distance
_geom_bond_site_symmetry_2
Mn0 Sr0 3.268287 1_655
Mn0 Sr1 3.268287 1_564
Mn0 Sr0 3.268287 1_555
Mn0 Sr1 3.268287 1_554
Mn1 Sr0 3.268287 1_545
Mn1 Sr1 3.268287 1_454
Mn1 Sr0 3.268287 1_555
Mn1 Sr1 3.268287 1_554
Ge0 Mn1 2.611375 1_566
Ge0 Mn0 2.611375 1_556
Ge0 Mn1 2.611375 1_556
Ge0 Mn0 2.611375 1_456
Ge0 Sr1 3.332128 1_455
Ge0 Sr1 3.332128 1_565
Ge0 Sr1 3.332128 1_555
Ge0 Sr1 3.332128 1_465
Ge0 Sr0 3.596621 1_555
Ge1 Mn1 2.611375 1_655
Ge1 Mn0 2.611375 1_555
Ge1 Mn0 2.611375 1_545
Ge1 Mn1 2.611375 1_555
Ge1 Sr0 3.332128 1_555
Ge1 Sr0 3.332128 1_655
Ge1 Sr0 3.332128 1_545
Ge1 Sr0 3.332128 1_645
Ge1 Sr1 3.596621 1_555
