# generated using pymatgen
data_Na2Mg(NiO2)5
_symmetry_space_group_name_H-M   'P 1'
_cell_length_a   6.73380967
_cell_length_b   4.93663593
_cell_length_c   6.20629507
_cell_angle_alpha   76.93558772
_cell_angle_beta   107.32742691
_cell_angle_gamma   84.06821983
_symmetry_Int_Tables_number   1
_chemical_formula_structural   Na2Mg(NiO2)5
_chemical_formula_sum   'Na2 Mg1 Ni5 O10'
_cell_volume   188.59260182
_cell_formula_units_Z   1
loop_
 _symmetry_equiv_pos_site_id
 _symmetry_equiv_pos_as_xyz
  1  'x, y, z'
loop_
 _atom_site_type_symbol
 _atom_site_label
 _atom_site_symmetry_multiplicity
 _atom_site_fract_x
 _atom_site_fract_y
 _atom_site_fract_z
 _atom_site_occupancy
  Na  Na0  1  0.00751144  0.99325004  0.50746100  1
  Na  Na1  1  0.38415409  0.80420138  0.88113857  1
  Mg  Mg0  1  0.60630535  0.20854383  0.10693930  1
  Ni  Ni0  1  0.99748553  0.00242147  0.00148901  1
  Ni  Ni1  1  0.19652982  0.40209682  0.19644128  1
  Ni  Ni2  1  0.40376995  0.80266727  0.38596514  1
  Ni  Ni3  1  0.59998255  0.19906009  0.60148138  1
  Ni  Ni4  1  0.79935280  0.59661369  0.81065047  1
  O  O0  1  0.27432379  0.11339290  0.06656927  1
  O  O1  1  0.12512977  0.71955937  0.29862545  1
  O  O2  1  0.33156510  0.09375413  0.51717627  1
  O  O3  1  0.47585939  0.49418355  0.25883855  1
  O  O4  1  0.06193418  0.71024661  0.87399536  1
  O  O5  1  0.91730262  0.28547563  0.13245917  1
  O  O6  1  0.53591962  0.47762686  0.75139567  1
  O  O7  1  0.66859669  0.92060002  0.45351458  1
  O  O8  1  0.88051765  0.27757883  0.70591790  1
  O  O9  1  0.72635267  0.90706051  0.93994163  1
loop_
_geom_bond_atom_site_label_1
_geom_bond_atom_site_label_2
_geom_bond_distance
_geom_bond_site_symmetry_2
Na0 O2 2.273842 1_565
Na0 O7 2.284167 1_455
Na0 O4 2.285115 1_555
Na0 O1 2.305350 1_555
Na0 O5 2.307734 1_465
Na0 O8 2.319351 1_465
Na1 O6 2.242418 1_555
Na1 O4 2.254993 1_555
Na1 O2 2.286969 1_565
Na1 O0 2.295431 1_566
Na1 O9 2.350642 1_555
Na1 O3 2.353506 1_556
Mg0 O3 2.118242 1_555
Mg0 O5 2.132836 1_555
Mg0 O6 2.186331 1_554
Mg0 O7 2.186359 1_545
Mg0 O9 2.211451 1_544
Mg0 O0 2.284183 1_555
Ni0 O4 1.867079 1_644
Ni0 O5 1.877168 1_555
Ni0 O9 1.882669 1_544
Ni0 O8 1.903218 1_554
Ni0 O1 1.932104 1_645
Ni0 O0 1.949619 1_655
Ni1 O1 1.888035 1_555
Ni1 O0 1.889949 1_555
Ni1 O3 1.927964 1_555
Ni1 O5 1.976580 1_455
Ni1 O2 2.090967 1_555
Ni1 O4 2.097308 1_554
Ni2 O7 1.890619 1_555
Ni2 O2 1.893398 1_565
Ni2 O1 1.906963 1_555
Ni2 O3 1.948289 1_555
Ni2 O0 2.088514 1_565
Ni2 O6 2.316844 1_555
Ni3 O2 1.888074 1_555
Ni3 O6 1.907302 1_555
Ni3 O7 1.907526 1_545
Ni3 O8 1.916907 1_555
Ni3 O9 2.127739 1_545
Ni3 O3 2.152275 1_555
Ni4 O4 1.867169 1_655
Ni4 O6 1.884533 1_555
Ni4 O8 1.923078 1_555
Ni4 O9 1.967098 1_555
Ni4 O5 2.096443 1_556
Ni4 O7 2.278139 1_555
