# generated using pymatgen
data_MgV2In2O8
_symmetry_space_group_name_H-M   'P 1'
_cell_length_a   4.95627730
_cell_length_b   5.11500506
_cell_length_c   6.02375700
_cell_angle_alpha   90.00000000
_cell_angle_beta   90.00000000
_cell_angle_gamma   91.12373686
_symmetry_Int_Tables_number   1
_chemical_formula_structural   MgV2In2O8
_chemical_formula_sum   'Mg1 V2 In2 O8'
_cell_volume   152.68120329
_cell_formula_units_Z   1
loop_
 _symmetry_equiv_pos_site_id
 _symmetry_equiv_pos_as_xyz
  1  'x, y, z'
loop_
 _atom_site_type_symbol
 _atom_site_label
 _atom_site_symmetry_multiplicity
 _atom_site_fract_x
 _atom_site_fract_y
 _atom_site_fract_z
 _atom_site_occupancy
  Mg  Mg0  1  0.50000000  0.75000000  0.89424800  1
  V  V0  1  0.00000000  0.25000000  0.16175700  1
  V  V1  1  0.00000000  0.75000000  0.85343400  1
  In  In0  1  0.50000000  0.25000000  0.64617500  1
  In  In1  1  0.50000000  0.75000000  0.35098100  1
  O  O0  1  0.78642300  0.04853400  0.89132400  1
  O  O1  1  0.21357700  0.45146600  0.89132400  1
  O  O2  1  0.23022700  0.93575300  0.09461700  1
  O  O3  1  0.76977300  0.56424700  0.09461700  1
  O  O4  1  0.74871000  0.10683200  0.36147900  1
  O  O5  1  0.25129000  0.39316800  0.36147900  1
  O  O6  1  0.27174300  0.89415500  0.64199100  1
  O  O7  1  0.72825700  0.60584500  0.64199100  1
loop_
_geom_bond_atom_site_label_1
_geom_bond_atom_site_label_2
_geom_bond_distance
_geom_bond_site_symmetry_2
Mg0 O7 2.040894 1_555
Mg0 O6 2.040894 1_555
Mg0 O3 2.048686 1_556
Mg0 O2 2.048686 1_556
Mg0 O1 2.064525 1_555
Mg0 O0 2.064525 1_565
In0 O7 2.124303 1_555
In0 O6 2.124303 1_545
In0 O5 2.243253 1_555
In0 O4 2.243253 1_555
In0 O0 2.305482 1_555
In0 O1 2.305482 1_555
In1 O4 2.183251 1_565
In1 O5 2.183251 1_555
In1 O7 2.220175 1_555
In1 O6 2.220175 1_555
In1 O3 2.263871 1_555
In1 O2 2.263871 1_555
O0 V1 1.888850 1_645
O0 V0 2.189379 1_656
O1 V1 1.888850 1_555
O1 V0 2.189379 1_556
O2 V0 2.030074 1_565
O2 V1 2.067115 1_554
O3 V0 2.030074 1_655
O3 V1 2.067115 1_654
O4 V0 1.870580 1_655
O5 V0 1.870580 1_555
O6 V1 1.985186 1_555
O7 V1 1.985186 1_655
