# generated using pymatgen
data_Fe12N5
_symmetry_space_group_name_H-M   'P 1'
_cell_length_a   9.41145378
_cell_length_b   9.41145378
_cell_length_c   4.30781700
_cell_angle_alpha   90.00000000
_cell_angle_beta   90.00000000
_cell_angle_gamma   119.99999847
_symmetry_Int_Tables_number   1
_chemical_formula_structural   Fe12N5
_chemical_formula_sum   'Fe24 N10'
_cell_volume   330.44661841
_cell_formula_units_Z   2
loop_
 _symmetry_equiv_pos_site_id
 _symmetry_equiv_pos_as_xyz
  1  'x, y, z'
loop_
 _atom_site_type_symbol
 _atom_site_label
 _atom_site_symmetry_multiplicity
 _atom_site_fract_x
 _atom_site_fract_y
 _atom_site_fract_z
 _atom_site_occupancy
  Fe  Fe0  1  0.49284000  0.66561400  0.74768500  1
  Fe  Fe1  1  0.17277500  0.50716000  0.74768500  1
  Fe  Fe2  1  0.66561400  0.17277500  0.25231500  1
  Fe  Fe3  1  0.82722500  0.49284000  0.25231500  1
  Fe  Fe4  1  0.50716000  0.33438600  0.25231500  1
  Fe  Fe5  1  0.82722500  0.33438600  0.74768500  1
  Fe  Fe6  1  0.50716000  0.17277500  0.74768500  1
  Fe  Fe7  1  0.66561400  0.49284000  0.74768500  1
  Fe  Fe8  1  0.16576700  0.16576700  0.24603900  1
  Fe  Fe9  1  0.83423300  0.00000000  0.24603900  1
  Fe  Fe10  1  0.00000000  0.83423300  0.24603900  1
  Fe  Fe11  1  0.83423300  0.83423300  0.75396100  1
  Fe  Fe12  1  0.00000000  0.16576700  0.75396100  1
  Fe  Fe13  1  0.16576700  0.00000000  0.75396100  1
  Fe  Fe14  1  0.33438600  0.82722500  0.74768500  1
  Fe  Fe15  1  0.49284000  0.82722500  0.25231500  1
  Fe  Fe16  1  0.33438600  0.50716000  0.25231500  1
  Fe  Fe17  1  0.17277500  0.66561400  0.25231500  1
  Fe  Fe18  1  0.66372100  0.00000000  0.75472000  1
  Fe  Fe19  1  0.00000000  0.66372100  0.75472000  1
  Fe  Fe20  1  0.33627900  0.33627900  0.75472000  1
  Fe  Fe21  1  0.00000000  0.33627900  0.24528000  1
  Fe  Fe22  1  0.33627900  0.00000000  0.24528000  1
  Fe  Fe23  1  0.66372100  0.66372100  0.24528000  1
  N  N0  1  0.34266700  0.17133400  0.00000000  1
  N  N1  1  0.82866600  0.65733300  0.00000000  1
  N  N2  1  0.82866600  0.17133400  0.00000000  1
  N  N3  1  0.65733300  0.82866600  0.00000000  1
  N  N4  1  0.17133400  0.34266700  0.00000000  1
  N  N5  1  0.17133400  0.82866600  0.00000000  1
  N  N6  1  0.00000000  0.50000000  0.50000000  1
  N  N7  1  0.50000000  0.00000000  0.50000000  1
  N  N8  1  0.50000000  0.50000000  0.50000000  1
  N  N9  1  0.00000000  0.00000000  0.50000000  1
loop_
_geom_bond_atom_site_label_1
_geom_bond_atom_site_label_2
_geom_bond_distance
_geom_bond_site_symmetry_2
Fe0 N3 1.886072 1_556
Fe0 N8 1.917673 1_555
Fe1 N4 1.886072 1_556
Fe1 N6 1.917681 1_555
Fe2 N2 1.886072 1_555
Fe2 N7 1.917677 1_555
Fe3 N1 1.886072 1_555
Fe3 N6 1.917681 1_655
Fe4 N0 1.886072 1_555
Fe4 N8 1.917673 1_555
Fe5 N2 1.886072 1_556
Fe5 N6 1.917677 1_655
Fe6 N0 1.886072 1_556
Fe6 N7 1.917681 1_555
Fe7 N1 1.886072 1_556
Fe7 N8 1.917673 1_555
Fe8 N9 1.905469 1_555
Fe8 N0 1.952109 1_555
Fe8 N4 1.952109 1_555
Fe9 N9 1.905469 1_655
Fe9 N3 1.952113 1_545
Fe9 N2 1.952117 1_555
Fe10 N9 1.905469 1_565
Fe10 N1 1.952113 1_455
Fe10 N5 1.952117 1_555
Fe11 N9 1.905469 1_665
Fe11 N1 1.952109 1_556
Fe11 N3 1.952109 1_556
Fe12 N9 1.905469 1_555
Fe12 N4 1.952113 1_556
Fe12 N2 1.952117 1_456
Fe13 N9 1.905469 1_555
Fe13 N0 1.952113 1_556
Fe13 N5 1.952117 1_546
Fe14 N5 1.886072 1_556
Fe14 N7 1.917677 1_565
Fe15 N3 1.886072 1_555
Fe15 N7 1.917681 1_565
Fe16 N4 1.886072 1_555
Fe16 N8 1.917673 1_555
Fe17 N5 1.886072 1_555
Fe17 N6 1.917677 1_555
Fe18 N7 1.891630 1_555
Fe18 N2 1.903488 1_556
Fe18 N3 1.903492 1_546
Fe19 N6 1.891630 1_555
Fe19 N5 1.903488 1_556
Fe19 N1 1.903492 1_456
Fe20 N8 1.891631 1_555
Fe20 N0 1.903484 1_556
Fe20 N4 1.903484 1_556
Fe21 N6 1.891630 1_555
Fe21 N2 1.903488 1_455
Fe21 N4 1.903492 1_555
Fe22 N7 1.891630 1_555
Fe22 N5 1.903488 1_545
Fe22 N0 1.903492 1_555
Fe23 N8 1.891631 1_555
Fe23 N3 1.903484 1_555
Fe23 N1 1.903484 1_555
