# generated using pymatgen
data_NaPr2OsO6
_symmetry_space_group_name_H-M   'P 1'
_cell_length_a   6.01225400
_cell_length_b   5.60208500
_cell_length_c   9.75332335
_cell_angle_alpha   55.87280608
_cell_angle_beta   90.00000000
_cell_angle_gamma   90.00000000
_symmetry_Int_Tables_number   1
_chemical_formula_structural   NaPr2OsO6
_chemical_formula_sum   'Na2 Pr4 Os2 O12'
_cell_volume   271.93304691
_cell_formula_units_Z   2
loop_
 _symmetry_equiv_pos_site_id
 _symmetry_equiv_pos_as_xyz
  1  'x, y, z'
loop_
 _atom_site_type_symbol
 _atom_site_label
 _atom_site_symmetry_multiplicity
 _atom_site_fract_x
 _atom_site_fract_y
 _atom_site_fract_z
 _atom_site_occupancy
  Na  Na0  1  0.50000000  0.00000000  0.50000000  1
  Na  Na1  1  0.00000000  0.00000000  0.00000000  1
  Pr  Pr0  1  0.42956900  0.77373300  0.24657100  1
  Pr  Pr1  1  0.07043100  0.77373300  0.74657100  1
  Pr  Pr2  1  0.92956900  0.22626700  0.25342900  1
  Pr  Pr3  1  0.57043100  0.22626700  0.75342900  1
  Os  Os0  1  0.00000000  0.50000000  0.50000000  1
  Os  Os1  1  0.50000000  0.50000000  0.00000000  1
  O  O0  1  0.71922100  0.73231400  0.43188200  1
  O  O1  1  0.21922100  0.26768600  0.06811800  1
  O  O2  1  0.28077900  0.26768600  0.56811800  1
  O  O3  1  0.78077900  0.73231400  0.93188200  1
  O  O4  1  0.04961200  0.61208600  0.26946900  1
  O  O5  1  0.54961200  0.38791400  0.23053100  1
  O  O6  1  0.95038800  0.38791400  0.73053100  1
  O  O7  1  0.45038800  0.61208600  0.76946900  1
  O  O8  1  0.32672300  0.84350600  0.94858100  1
  O  O9  1  0.82672300  0.15649400  0.55141900  1
  O  O10  1  0.67327700  0.15649400  0.05141900  1
  O  O11  1  0.17327700  0.84350600  0.44858100  1
loop_
_geom_bond_atom_site_label_1
_geom_bond_atom_site_label_2
_geom_bond_distance
_geom_bond_site_symmetry_2
Na0 O7 2.304424 1_545
Na0 O5 2.304424 1_555
Na0 O9 2.317773 1_555
Na0 O11 2.317773 1_545
Na0 O0 2.354838 1_545
Na0 O2 2.354838 1_555
Na1 O6 2.304424 1_454
Na1 O4 2.304424 1_545
Na1 O10 2.317773 1_455
Na1 O8 2.317773 1_544
Na1 O1 2.354838 1_555
Na1 O3 2.354838 1_444
O0 Os0 2.003669 1_655
O0 Pr0 2.425417 1_555
O0 Pr2 2.623317 1_565
O0 Pr3 2.948980 1_555
O1 Os1 2.003669 1_555
O1 Pr2 2.425417 1_455
O1 Pr0 2.623317 1_545
O1 Pr1 2.948980 1_554
O2 Os0 2.003669 1_555
O2 Pr3 2.425417 1_555
O2 Pr1 2.623317 1_545
O2 Pr0 2.948980 1_555
O3 Os1 2.003669 1_556
O3 Pr1 2.425417 1_655
O3 Pr3 2.623317 1_565
O3 Pr2 2.948980 1_556
O4 Os0 1.988613 1_555
O4 Pr2 2.365668 1_455
O4 Pr0 2.421046 1_555
O5 Os1 1.988613 1_555
O5 Pr0 2.365668 1_555
O5 Pr2 2.421046 1_555
O6 Os0 1.988613 1_655
O6 Pr1 2.365668 1_655
O6 Pr3 2.421046 1_555
O7 Os1 1.988613 1_556
O7 Pr3 2.365668 1_555
O7 Pr1 2.421046 1_555
O8 Os1 1.989239 1_556
O8 Pr3 2.405845 1_565
O8 Pr1 2.696892 1_555
O8 Pr0 2.776245 1_556
O9 Os0 1.989239 1_655
O9 Pr1 2.405845 1_645
O9 Pr3 2.696892 1_555
O9 Pr2 2.776245 1_555
O10 Os1 1.989239 1_555
O10 Pr0 2.405845 1_545
O10 Pr2 2.696892 1_555
O10 Pr3 2.776245 1_554
O11 Os0 1.989239 1_555
O11 Pr2 2.405845 1_465
O11 Pr0 2.696892 1_555
O11 Pr1 2.776245 1_555
