# generated using pymatgen
data_Zr2P2O9
_symmetry_space_group_name_H-M   'P 1'
_cell_length_a   5.47496606
_cell_length_b   5.47496606
_cell_length_c   11.91201341
_cell_angle_alpha   90.00000000
_cell_angle_beta   90.00000000
_cell_angle_gamma   105.15712265
_symmetry_Int_Tables_number   1
_chemical_formula_structural   Zr2P2O9
_chemical_formula_sum   'Zr4 P4 O18'
_cell_volume   344.64417577
_cell_formula_units_Z   2
loop_
 _symmetry_equiv_pos_site_id
 _symmetry_equiv_pos_as_xyz
  1  'x, y, z'
loop_
 _atom_site_type_symbol
 _atom_site_label
 _atom_site_symmetry_multiplicity
 _atom_site_fract_x
 _atom_site_fract_y
 _atom_site_fract_z
 _atom_site_occupancy
  Zr  Zr0  1  0.70601463  0.29398537  0.93713693  1
  Zr  Zr1  1  0.79398537  0.20601463  0.43713693  1
  Zr  Zr2  1  0.29398537  0.70601463  0.06286307  1
  Zr  Zr3  1  0.20601463  0.79398537  0.56286307  1
  P  P0  1  0.60676137  0.39323863  0.64677451  1
  P  P1  1  0.89323863  0.10676137  0.14677451  1
  P  P2  1  0.39323863  0.60676137  0.35322549  1
  P  P3  1  0.10676137  0.89323863  0.85322549  1
  O  O0  1  0.43700663  0.56299337  0.62315257  1
  O  O1  1  0.06299337  0.93700663  0.12315257  1
  O  O2  1  0.56299337  0.43700663  0.37684743  1
  O  O3  1  0.93700663  0.06299337  0.87684743  1
  O  O4  1  0.00000000  0.00000000  0.50000000  1
  O  O5  1  0.50000000  0.50000000  -0.00000000  1
  O  O6  1  0.13872015  0.86127985  0.72919168  1
  O  O7  1  0.36127985  0.63872015  0.22919168  1
  O  O8  1  0.36532078  0.98538963  0.91486549  1
  O  O9  1  0.13467922  0.51461037  0.41486549  1
  O  O10  1  0.98538963  0.36532078  0.08513451  1
  O  O11  1  0.51461037  0.13467922  0.58513451  1
  O  O12  1  0.63467922  0.01461037  0.08513451  1
  O  O13  1  0.86532078  0.48538963  0.58513451  1
  O  O14  1  0.01461037  0.63467922  0.91486549  1
  O  O15  1  0.48538963  0.86532078  0.41486549  1
  O  O16  1  0.63872015  0.36127985  0.77080832  1
  O  O17  1  0.86127985  0.13872015  0.27080832  1
loop_
_geom_bond_atom_site_label_1
_geom_bond_atom_site_label_2
_geom_bond_distance
_geom_bond_site_symmetry_2
O0 P0 1.502816 1_555
O0 Zr3 2.133294 1_555
O1 P1 1.502816 1_465
O1 Zr2 2.133294 1_555
O2 P2 1.502816 1_555
O2 Zr1 2.133294 1_555
O3 P3 1.502816 1_645
O3 Zr0 2.133294 1_555
O4 Zr1 1.941763 1_455
O4 Zr3 1.941763 1_545
O5 Zr0 1.941763 1_554
O5 Zr2 1.941763 1_555
O6 P3 1.503404 1_555
O6 Zr3 2.065928 1_555
O7 P2 1.503404 1_555
O7 Zr2 2.065928 1_555
O8 P3 1.556961 1_555
O8 Zr0 2.180880 1_565
O8 Zr2 2.299503 1_556
O9 P2 1.556961 1_555
O9 Zr1 2.180880 1_455
O9 Zr3 2.299503 1_555
O10 P1 1.556961 1_555
O10 Zr2 2.180880 1_655
O10 Zr0 2.299503 1_554
O11 P0 1.556961 1_555
O11 Zr3 2.180880 1_545
O11 Zr1 2.299503 1_555
O12 P1 1.556961 1_555
O12 Zr2 2.180880 1_545
O12 Zr0 2.299503 1_554
O13 P0 1.556961 1_555
O13 Zr3 2.180880 1_655
O13 Zr1 2.299503 1_555
O14 P3 1.556961 1_555
O14 Zr0 2.180880 1_455
O14 Zr2 2.299503 1_556
O15 P2 1.556961 1_555
O15 Zr1 2.180880 1_565
O15 Zr3 2.299503 1_555
O16 P0 1.503404 1_555
O16 Zr0 2.065928 1_555
O17 P1 1.503404 1_555
O17 Zr1 2.065928 1_555
