# generated using pymatgen
data_Na6Ta8Zn16Si3(S11O48)3
_symmetry_space_group_name_H-M   'P 1'
_cell_length_a   17.49471089
_cell_length_b   8.74329212
_cell_length_c   22.61968571
_cell_angle_alpha   90.17527101
_cell_angle_beta   89.87317590
_cell_angle_gamma   119.98222859
_symmetry_Int_Tables_number   1
_chemical_formula_structural   Na6Ta8Zn16Si3(S11O48)3
_chemical_formula_sum   'Na6 Ta8 Zn16 Si3 S33 O144'
_cell_volume   2996.91574207
_cell_formula_units_Z   1
loop_
 _symmetry_equiv_pos_site_id
 _symmetry_equiv_pos_as_xyz
  1  'x, y, z'
loop_
 _atom_site_type_symbol
 _atom_site_label
 _atom_site_symmetry_multiplicity
 _atom_site_fract_x
 _atom_site_fract_y
 _atom_site_fract_z
 _atom_site_occupancy
  Na  Na0  1  0.00111217  0.99136331  0.49132733  1
  Na  Na1  1  0.49332690  0.00256629  0.99931640  1
  Na  Na2  1  0.33341328  0.33276924  0.83878802  1
  Na  Na3  1  0.84161440  0.34717887  0.82911678  1
  Na  Na4  1  0.33455077  0.33717786  0.33361023  1
  Na  Na5  1  0.83620399  0.33852339  0.33902335  1
  Ta  Ta0  1  0.00137192  0.99240768  0.64588120  1
  Ta  Ta1  1  0.49969806  -0.00004770  0.64078921  1
  Ta  Ta2  1  0.00320463  0.00159195  0.14387968  1
  Ta  Ta3  1  0.66086304  0.65065637  0.02225349  1
  Ta  Ta4  1  0.16431211  0.66556325  0.31581795  1
  Ta  Ta5  1  0.66489730  0.66527973  0.31310335  1
  Ta  Ta6  1  0.16215758  0.66739125  0.81147585  1
  Ta  Ta7  1  0.66295185  0.65884609  0.81082935  1
  Zn  Zn0  1  0.00045841  0.99036101  0.35572732  1
  Zn  Zn1  1  0.49839940  0.99750401  0.35248336  1
  Zn  Zn2  1  0.00188636  0.99433144  0.85288474  1
  Zn  Zn3  1  0.49584722  0.00436992  0.85614113  1
  Zn  Zn4  1  0.49234440  0.99723831  0.15085988  1
  Zn  Zn5  1  0.33116149  0.33108044  0.68112286  1
  Zn  Zn6  1  0.84172695  0.34678442  0.68267544  1
  Zn  Zn7  1  0.33695920  0.33311961  0.18096623  1
  Zn  Zn8  1  0.83030134  0.33092827  0.18407850  1
  Zn  Zn9  1  0.33529804  0.32313722  0.98009486  1
  Zn  Zn10  1  0.83942219  0.34114763  0.98224141  1
  Zn  Zn11  1  0.33151057  0.32921793  0.48095641  1
  Zn  Zn12  1  0.84423042  0.34900242  0.47872561  1
  Zn  Zn13  1  0.17261968  0.67789461  0.02118710  1
  Zn  Zn14  1  0.15939344  0.66622833  0.51822376  1
  Zn  Zn15  1  0.66782148  0.66713015  0.51976675  1
  Si  Si0  1  0.99230454  0.70115281  0.75341199  1
  Si  Si1  1  0.51466440  0.36358058  0.91593913  1
  Si  Si2  1  0.01561390  0.66613944  0.42064333  1
  S  S0  1  0.14709903  0.00384750  0.25061847  1
  S  S1  1  0.64654231  0.00472625  0.25057449  1
  S  S2  1  0.35441199  0.70401977  0.25086255  1
  S  S3  1  0.85525107  0.70861646  0.25026401  1
  S  S4  1  0.99877895  0.28658445  0.25126588  1
  S  S5  1  0.49810233  0.28927204  0.25114460  1
  S  S6  1  0.14752152  0.29076421  0.75109405  1
  S  S7  1  0.64405812  0.28268917  0.75064326  1
  S  S8  1  0.49813015  0.71161565  0.75102429  1
  S  S9  1  0.35607114  0.00330820  0.75030488  1
  S  S10  1  0.85555796  0.00259232  0.75181664  1
  S  S11  1  0.47949354  0.34117858  0.58351224  1
  S  S12  1  0.98058572  0.33363646  0.58363389  1
  S  S13  1  0.19050584  0.04259042  0.58352937  1
  S  S14  1  0.69277760  0.04460414  0.58360052  1
  S  S15  1  0.32892856  0.61800736  0.58308633  1
  S  S16  1  0.82937660  0.62206012  0.58337089  1
  S  S17  1  0.47747949  0.63040575  0.08280864  1
  S  S18  1  0.97921124  0.61888555  0.08421539  1
  S  S19  1  0.33383051  0.04017377  0.08345840  1
  S  S20  1  0.83319559  0.04309646  0.08333578  1
  S  S21  1  0.19143402  0.34191316  0.08324671  1
  S  S22  1  0.68763650  0.32585923  0.08265391  1
  S  S23  1  0.31098028  0.66417289  0.91678420  1
  S  S24  1  0.81098980  0.66778754  0.91706775  1
  S  S25  1  0.02087860  0.37249544  0.91780886  1
  S  S26  1  0.16496483  0.95695509  0.91816351  1
  S  S27  1  0.66864175  0.95585484  0.91715535  1
  S  S28  1  0.31443638  0.95991914  0.41787702  1
  S  S29  1  0.81043685  0.95590291  0.41765442  1
  S  S30  1  0.16819081  0.37616448  0.41784941  1
  S  S31  1  0.66398210  0.37203631  0.41729176  1
  S  S32  1  0.52064234  0.66795735  0.41810459  1
  O  O0  1  0.10558746  0.03160217  0.30171297  1
  O  O1  1  0.60731893  0.03031065  0.30397012  1
  O  O2  1  0.40845740  0.78436866  0.30370803  1
  O  O3  1  0.90822462  0.79013061  0.30225091  1
  O  O4  1  0.48599163  0.18557187  0.30415515  1
  O  O5  1  0.98600304  0.17913211  0.30304980  1
  O  O6  1  0.10802032  0.18753229  0.80380609  1
  O  O7  1  0.60353600  0.18013531  0.80334452  1
  O  O8  1  0.48762033  0.79296914  0.80395978  1
  O  O9  1  0.98178561  0.79408670  0.80971640  1
  O  O10  1  0.40980917  0.03205590  0.80250836  1
  O  O11  1  0.90797822  0.03185736  0.80447004  1
  O  O12  1  0.39895536  0.97360140  0.69651289  1
  O  O13  1  0.89700015  0.97153002  0.69773465  1
  O  O14  1  0.09024114  0.21039864  0.69700576  1
  O  O15  1  0.58614944  0.20393890  0.69708637  1
  O  O16  1  0.01346365  0.83483193  0.69408144  1
  O  O17  1  0.51364886  0.82445289  0.69720818  1
  O  O18  1  0.39013148  0.81092647  0.19726530  1
  O  O19  1  0.89732283  0.82264179  0.19615076  1
  O  O20  1  0.01133232  0.19703921  0.19657842  1
  O  O21  1  0.51968996  0.22492053  0.19753894  1
  O  O22  1  0.08780190  0.97344369  0.19638521  1
  O  O23  1  0.59398527  0.96642904  0.19685973  1
  O  O24  1  0.44031174  0.36295676  0.63778232  1
  O  O25  1  0.94053185  0.35681277  0.63704879  1
  O  O26  1  0.23920955  0.12380271  0.63788979  1
  O  O27  1  0.74162224  0.12364929  0.63786761  1
  O  O28  1  0.31949773  0.52058323  0.63753169  1
  O  O29  1  0.81781726  0.52207847  0.63724276  1
  O  O30  1  0.44658701  0.52428275  0.13637436  1
  O  O31  1  0.93823009  0.51504407  0.13739223  1
  O  O32  1  0.32014185  0.11921770  0.13757193  1
  O  O33  1  0.81623283  0.11434418  0.13669233  1
  O  O34  1  0.24090174  0.36219970  0.13733988  1
  O  O35  1  0.74125725  0.36666609  0.13595531  1
  O  O36  1  0.22257828  0.29378170  0.03064054  1
  O  O37  1  0.72820163  0.30405021  0.02872402  1
  O  O38  1  0.42569639  0.54977355  0.02975868  1
  O  O39  1  0.92342978  0.55693938  0.03132179  1
  O  O40  1  0.34996749  0.15115355  0.03035679  1
  O  O41  1  0.85308792  0.15074179  0.03046099  1
  O  O42  1  0.22463691  0.15377014  0.53079929  1
  O  O43  1  0.72379908  0.15444931  0.53100039  1
  O  O44  1  0.35424675  0.55373548  0.53116356  1
  O  O45  1  0.85245530  0.55704446  0.53070659  1
  O  O46  1  0.42362896  0.29317409  0.53114604  1
  O  O47  1  0.92406165  0.28734743  0.53106387  1
  O  O48  1  0.27187227  0.69434557  0.96959123  1
  O  O49  1  0.76430238  0.68706827  0.97046293  1
  O  O50  1  0.07395354  0.45635585  0.96992064  1
  O  O51  1  0.58300156  0.47946764  0.97227982  1
  O  O52  1  0.15249537  0.84732849  0.96950259  1
  O  O53  1  0.65953313  0.84502681  0.97044707  1
  O  O54  1  0.27547486  0.85367066  0.47009270  1
  O  O55  1  0.77045734  0.84626832  0.46967871  1
  O  O56  1  0.15774475  0.45718276  0.47097654  1
  O  O57  1  0.65154680  0.45646894  0.46912878  1
  O  O58  1  0.08007297  0.70280204  0.47456728  1
  O  O59  1  0.57462446  0.69243876  0.46982367  1
  O  O60  1  0.07234624  0.64350626  0.35978960  1
  O  O61  1  0.56862910  0.64274622  0.36288313  1
  O  O62  1  0.25387208  0.86380191  0.36235313  1
  O  O63  1  0.75315000  0.85784283  0.36249297  1
  O  O64  1  0.18130706  0.49291873  0.36221253  1
  O  O65  1  0.67682589  0.49557621  0.36245258  1
  O  O66  1  0.06787561  0.49315983  0.86272437  1
  O  O67  1  0.57441835  0.50270961  0.85982736  1
  O  O68  1  0.17794591  0.86050954  0.86314048  1
  O  O69  1  0.68121920  0.86764171  0.86238991  1
  O  O70  1  0.25544098  0.64642292  0.86208473  1
  O  O71  1  0.75287072  0.64411249  0.86318046  1
  O  O72  1  0.01073143  0.84308814  0.41179109  1
  O  O73  1  0.51378614  0.82389772  0.40681325  1
  O  O74  1  0.40003053  0.97712401  0.40598107  1
  O  O75  1  0.89750385  0.97614198  0.40844777  1
  O  O76  1  0.08831649  0.20682369  0.40797554  1
  O  O77  1  0.58522961  0.20343627  0.40583253  1
  O  O78  1  0.01234442  0.20172513  0.90589949  1
  O  O79  1  0.51928682  0.18692571  0.91472154  1
  O  O80  1  0.08771409  0.97397980  0.90931349  1
  O  O81  1  0.58767277  0.96162358  0.91195796  1
  O  O82  1  0.39948260  0.82044651  0.90945681  1
  O  O83  1  0.89436334  0.82709995  0.91273341  1
  O  O84  1  0.48813779  0.17163850  0.59556308  1
  O  O85  1  0.98901703  0.16650261  0.59431026  1
  O  O86  1  0.09757558  0.02991533  0.59145365  1
  O  O87  1  0.59727647  0.02402353  0.59666319  1
  O  O88  1  0.41439014  0.80544138  0.59562211  1
  O  O89  1  0.91377898  0.81186608  0.59282603  1
  O  O90  1  0.49481628  0.81176100  0.08909688  1
  O  O91  1  0.98762793  0.80460266  0.09653502  1
  O  O92  1  0.41484546  0.02322945  0.08881792  1
  O  O93  1  0.91268035  0.01877229  0.09480382  1
  O  O94  1  0.09677025  0.16996110  0.09635001  1
  O  O95  1  0.59777497  0.17847814  0.08849090  1
  O  O96  1  0.34339912  0.15485578  0.74149734  1
  O  O97  1  0.83784470  0.14623831  0.74221001  1
  O  O98  1  0.23582881  0.31516735  0.74195574  1
  O  O99  1  0.73197376  0.31031564  0.74161407  1
  O  O100  1  0.42412444  0.53327796  0.74253851  1
  O  O101  1  0.91256459  0.50566701  0.74499058  1
  O  O102  1  0.34173375  0.52432652  0.24389138  1
  O  O103  1  0.84248689  0.53167607  0.24131654  1
  O  O104  1  0.42300271  0.31963154  0.24504196  1
  O  O105  1  0.92329762  0.31183517  0.24155697  1
  O  O106  1  0.23429698  0.15574159  0.24106721  1
  O  O107  1  0.73755580  0.15544245  0.24438039  1
  O  O108  1  0.31443917  0.50019216  0.91942683  1
  O  O109  1  0.81418582  0.50370855  0.92107980  1
  O  O110  1  0.42552279  0.36831049  0.91772756  1
  O  O111  1  0.93354816  0.36359722  0.91939334  1
  O  O112  1  0.24685174  0.12847916  0.91813210  1
  O  O113  1  0.74844021  0.12877608  0.92183380  1
  O  O114  1  0.31808416  0.13285225  0.41864607  1
  O  O115  1  0.81061755  0.12299185  0.41850559  1
  O  O116  1  0.24945437  0.36352484  0.41835084  1
  O  O117  1  0.74485757  0.36275050  0.41824305  1
  O  O118  1  0.43453500  0.50336739  0.41922005  1
  O  O119  1  0.92276028  0.48325574  0.41552208  1
  O  O120  1  0.17183480  0.48318046  0.07612681  1
  O  O121  1  0.68121725  0.49687584  0.07379819  1
  O  O122  1  0.06773377  0.65051896  0.07636365  1
  O  O123  1  0.57128923  0.64979981  0.07240499  1
  O  O124  1  0.25485312  0.86479082  0.07704186  1
  O  O125  1  0.75687818  0.86242813  0.07284831  1
  O  O126  1  0.17697655  0.86593002  0.57898507  1
  O  O127  1  0.67343109  0.86357459  0.57647153  1
  O  O128  1  0.25694566  0.65229312  0.57523713  1
  O  O129  1  0.75576303  0.65339595  0.57634220  1
  O  O130  1  0.06961352  0.48108991  0.57753834  1
  O  O131  1  0.56880948  0.48582854  0.57631294  1
  O  O132  1  0.15270064  0.83825430  0.25522802  1
  O  O133  1  0.65604591  0.83953536  0.26179954  1
  O  O134  1  0.26442421  0.68764426  0.26085143  1
  O  O135  1  0.76602465  0.69509433  0.25674187  1
  O  O136  1  0.08268496  0.46166204  0.25550664  1
  O  O137  1  0.58077768  0.47384817  0.26169589  1
  O  O138  1  0.15513385  0.46988436  0.75828799  1
  O  O139  1  0.65205897  0.46592398  0.75725958  1
  O  O140  1  0.08662457  0.69316361  0.76107910  1
  O  O141  1  0.58302720  0.70151064  0.75717482  1
  O  O142  1  0.26836793  0.83721125  0.75701214  1
  O  O143  1  0.76662460  0.83321974  0.75956675  1
loop_
_geom_bond_atom_site_label_1
_geom_bond_atom_site_label_2
_geom_bond_distance
_geom_bond_site_symmetry_2
Na0 O72 2.268954 1_555
Na0 O76 2.562726 1_565
Na0 O75 2.567134 1_455
Na0 O86 2.744952 1_565
Na0 O89 2.770988 1_455
Na0 O85 2.848820 1_465
Na1 O79 2.397786 1_555
Na1 O92 2.499952 1_556
Na1 O82 2.597020 1_545
Na1 O95 2.638495 1_556
Na1 O90 2.640525 1_546
Na1 O81 2.707194 1_545
Na2 O110 2.321736 1_555
Na2 O112 2.451308 1_555
Na2 O108 2.459000 1_555
Na2 O98 2.736355 1_555
Na2 O96 2.746312 1_555
Na2 O100 2.749397 1_555
Na3 O101 2.317011 1_555
Na3 O111 2.561109 1_555
Na3 O97 2.611323 1_555
Na3 O109 2.657996 1_555
Na3 O99 2.663773 1_555
Na3 O113 2.756850 1_555
Na4 O116 2.504191 1_555
Na4 O118 2.525552 1_555
Na4 O114 2.545287 1_555
Na4 O102 2.573993 1_555
Na4 O104 2.579405 1_555
Na4 O106 2.681363 1_555
Na5 O119 2.229705 1_555
Na5 O117 2.476500 1_555
Na5 O115 2.481519 1_555
Na5 O107 2.712581 1_555
Na5 O105 2.752071 1_555
Na5 O103 2.754062 1_555
O0 S0 1.446633 1_555
O0 Zn0 2.082155 1_545
O1 S1 1.458687 1_555
O1 Zn1 2.088981 1_545
O2 S2 1.467092 1_555
O2 Zn1 2.056758 1_555
O3 S3 1.445399 1_555
O3 Zn0 2.074623 1_655
O4 S5 1.455434 1_555
O4 Zn1 2.077200 1_545
O5 S4 1.449249 1_555
O5 Zn0 2.153687 1_645
O6 S6 1.446861 1_555
O6 Zn2 2.097863 1_545
O7 S7 1.447451 1_555
O7 Zn3 2.108280 1_555
O8 S8 1.448450 1_555
O8 Zn3 2.133486 1_565
O9 Si0 1.567867 1_555
O9 Zn2 1.875668 1_655
O10 S9 1.451998 1_555
O10 Zn3 2.042070 1_555
O11 S10 1.446870 1_555
O11 Zn2 2.134236 1_645
O12 S9 1.516449 1_565
O12 Ta1 2.081874 1_565
O13 S10 1.512203 1_565
O13 Ta0 2.098057 1_655
O14 S6 1.513673 1_555
O14 Ta0 2.102380 1_545
O15 S7 1.507045 1_555
O15 Ta1 2.094906 1_555
O16 Si0 1.696806 1_455
O16 Ta0 1.852860 1_555
O17 S8 1.505668 1_555
O17 Ta1 2.104846 1_565
O18 S2 1.467578 1_555
O18 Zn4 2.010920 1_555
O19 S3 1.517888 1_555
O19 Ta2 2.093369 1_665
O20 S4 1.534966 1_455
O20 Ta2 2.026515 1_555
O21 S5 1.461383 1_555
O21 Zn4 2.084253 1_545
O22 S0 1.542642 1_565
O22 Ta2 2.008764 1_565
O23 S1 1.458952 1_565
O23 Zn4 2.192206 1_555
O24 S11 1.462314 1_555
O24 Zn5 2.036325 1_555
O25 S12 1.458963 1_555
O25 Zn6 1.975334 1_555
O26 S13 1.461764 1_555
O26 Zn5 1.977588 1_555
O27 S14 1.457331 1_555
O27 Zn6 2.116929 1_555
O28 S15 1.461005 1_555
O28 Zn5 2.026799 1_555
O29 S16 1.455578 1_555
O29 Zn6 2.057275 1_555
O30 S17 1.457352 1_555
O30 Zn7 2.070556 1_555
O31 S18 1.462001 1_555
O31 Zn8 2.058025 1_555
O32 S19 1.480598 1_555
O32 Zn7 1.996950 1_555
O33 S20 1.453040 1_555
O33 Zn8 2.078058 1_555
O34 S21 1.458590 1_555
O34 Zn7 2.073269 1_555
O35 S22 1.459030 1_555
O35 Zn8 2.050699 1_555
O36 S21 1.453667 1_555
O36 Zn9 2.178945 1_554
O37 S22 1.469045 1_555
O37 Zn10 2.087815 1_554
O38 S17 1.455667 1_555
O38 Zn9 2.133485 1_554
O39 S18 1.466317 1_555
O39 Zn10 2.043339 1_554
O40 S19 1.481830 1_555
O40 Zn9 2.004246 1_554
O41 S20 1.454319 1_555
O41 Zn10 2.104363 1_554
O42 S13 1.465576 1_555
O42 Zn11 2.062703 1_555
O43 S14 1.454554 1_555
O43 Zn12 2.269368 1_555
O44 S15 1.460754 1_555
O44 Zn11 2.123530 1_555
O45 S16 1.458887 1_555
O45 Zn12 2.106638 1_555
O46 S11 1.458253 1_555
O46 Zn11 2.122088 1_555
O47 S12 1.468988 1_555
O47 Zn12 2.099145 1_555
O48 S23 1.462645 1_555
O48 Zn13 2.034766 1_556
O49 S24 1.512050 1_555
O49 Ta3 2.040986 1_556
O50 S25 1.452013 1_555
O50 Zn13 2.174765 1_556
O51 Si1 1.693579 1_555
O51 Ta3 1.825452 1_556
O52 S26 1.453124 1_555
O52 Zn13 2.054018 1_556
O53 S27 1.506457 1_555
O53 Ta3 2.076938 1_556
O54 S28 1.446675 1_555
O54 Zn14 2.161030 1_555
O55 S29 1.458086 1_555
O55 Zn15 2.037630 1_555
O56 S30 1.450005 1_555
O56 Zn14 2.102175 1_555
O57 S31 1.456444 1_555
O57 Zn15 2.061537 1_555
O58 Si2 1.582601 1_555
O58 Zn14 1.858653 1_555
O59 S32 1.451766 1_555
O59 Zn15 2.086586 1_555
O60 Si2 1.762829 1_555
O60 Ta4 1.816331 1_555
O61 S32 1.578680 1_555
O61 Ta5 1.950513 1_555
O62 S28 1.586111 1_555
O62 Ta4 1.961887 1_555
O63 S29 1.560943 1_555
O63 Ta5 1.965853 1_555
O64 S30 1.565561 1_555
O64 Ta4 1.981886 1_555
O65 S31 1.587543 1_555
O65 Ta5 1.952384 1_555
O66 S25 1.574197 1_555
O66 Ta6 1.968773 1_555
O67 Si1 1.707663 1_555
O67 Ta7 1.838301 1_555
O68 S26 1.579688 1_555
O68 Ta6 1.953517 1_555
O69 S27 1.529841 1_555
O69 Ta7 2.049523 1_555
O70 S23 1.533782 1_555
O70 Ta6 2.077493 1_555
O71 S24 1.534933 1_555
O71 Ta7 2.026134 1_555
O72 Si2 1.604682 1_555
O72 Zn0 1.881709 1_555
O73 S32 1.450616 1_555
O73 Zn1 2.075563 1_555
O74 S28 1.452826 1_555
O74 Zn1 2.035517 1_555
O75 S29 1.457491 1_555
O75 Zn0 2.109345 1_655
O76 S30 1.458160 1_555
O76 Zn0 2.104303 1_545
O77 S31 1.451819 1_555
O77 Zn1 2.065637 1_545
O78 S25 1.448829 1_555
O78 Zn2 2.101345 1_545
O79 Si1 1.586658 1_555
O79 Zn3 1.951132 1_555
O80 S26 1.446088 1_555
O80 Zn2 2.047528 1_555
O81 S27 1.447446 1_555
O81 Zn3 2.219551 1_565
O82 S23 1.475641 1_555
O82 Zn3 2.043480 1_565
O83 S24 1.430706 1_555
O83 Zn2 2.181952 1_655
O84 S11 1.587831 1_555
O84 Ta1 1.911669 1_555
O85 S12 1.559879 1_555
O85 Ta0 2.016253 1_645
O86 S13 1.583146 1_555
O86 Ta0 1.974225 1_545
O87 S14 1.615178 1_555
O87 Ta1 1.894570 1_555
O88 S15 1.597370 1_555
O88 Ta1 1.903360 1_565
O89 S16 1.590661 1_555
O89 Ta0 1.964473 1_655
O90 S17 1.464454 1_555
O90 Zn4 2.153941 1_555
O91 S18 1.579379 1_555
O91 Ta2 1.925741 1_665
O92 S19 1.502069 1_555
O92 Zn4 2.043932 1_545
O93 S20 1.530914 1_555
O93 Ta2 2.002374 1_655
O94 S21 1.613351 1_555
O94 Ta2 1.896282 1_555
O95 S22 1.457677 1_555
O95 Zn4 2.232561 1_545
O96 S9 1.462850 1_555
O96 Zn5 2.151446 1_555
O97 S10 1.453132 1_555
O97 Zn6 2.188065 1_555
O98 S6 1.464379 1_555
O98 Zn5 2.110330 1_555
O99 S7 1.446817 1_555
O99 Zn6 2.223773 1_555
O100 S8 1.458070 1_555
O100 Zn5 2.195820 1_555
O101 Si0 1.587393 1_555
O101 Zn6 1.930681 1_555
O102 S2 1.480811 1_555
O102 Zn7 2.161975 1_555
O103 S3 1.461907 1_555
O103 Zn8 2.101373 1_555
O104 S5 1.471494 1_555
O104 Zn7 2.137444 1_555
O105 S4 1.460725 1_555
O105 Zn8 2.155767 1_555
O106 S0 1.453615 1_555
O106 Zn7 2.167320 1_555
O107 S1 1.481368 1_555
O107 Zn8 2.088583 1_555
O108 S23 1.466313 1_555
O108 Zn9 2.234415 1_555
O109 S24 1.466425 1_555
O109 Zn10 2.184247 1_555
O110 Si1 1.581005 1_555
O110 Zn9 2.002031 1_555
O111 S25 1.490821 1_655
O111 Zn10 2.106994 1_555
O112 S26 1.467682 1_545
O112 Zn9 2.149011 1_555
O113 S27 1.461547 1_545
O113 Zn10 2.211007 1_555
O114 S28 1.481195 1_545
O114 Zn11 2.138452 1_555
O115 S29 1.459398 1_545
O115 Zn12 2.220772 1_555
O116 S30 1.480078 1_555
O116 Zn11 2.144326 1_555
O117 S31 1.457372 1_555
O117 Zn12 2.264710 1_555
O118 S32 1.474525 1_555
O118 Zn11 2.185422 1_555
O119 Si2 1.616373 1_655
O119 Zn12 1.923276 1_555
O120 S21 1.447005 1_555
O120 Zn13 2.105316 1_555
O121 S22 1.567886 1_555
O121 Ta3 1.945236 1_555
O122 S18 1.441325 1_455
O122 Zn13 2.129494 1_555
O123 S17 1.580499 1_555
O123 Ta3 1.929533 1_555
O124 S19 1.470873 1_565
O124 Zn13 1.995490 1_555
O125 S20 1.491758 1_565
O125 Ta3 2.108718 1_555
O126 S13 1.444333 1_565
O126 Zn14 2.117232 1_555
O127 S14 1.452257 1_565
O127 Zn15 2.103204 1_555
O128 S15 1.444262 1_555
O128 Zn14 2.192978 1_555
O129 S16 1.453520 1_555
O129 Zn15 2.052663 1_555
O130 S12 1.449206 1_455
O130 Zn14 2.085716 1_555
O131 S11 1.446587 1_555
O131 Zn15 2.099401 1_555
O132 S0 1.503151 1_565
O132 Ta4 2.125985 1_555
O133 S1 1.555823 1_565
O133 Ta5 1.984781 1_555
O134 S2 1.524252 1_555
O134 Ta4 2.074734 1_555
O135 S3 1.512210 1_555
O135 Ta5 2.086725 1_555
O136 S4 1.503694 1_455
O136 Ta4 2.127890 1_555
O137 S5 1.555504 1_555
O137 Ta5 1.962943 1_555
O138 S6 1.512272 1_555
O138 Ta6 2.054372 1_555
O139 S7 1.543741 1_555
O139 Ta7 2.004261 1_555
O140 Si0 1.695386 1_455
O140 Ta6 1.844532 1_555
O141 S8 1.537943 1_555
O141 Ta7 2.024553 1_555
O142 S9 1.503163 1_565
O142 Ta6 2.102031 1_555
O143 S10 1.530363 1_565
O143 Ta7 2.048495 1_555
