# generated using pymatgen
data_NaHf2Mg2PS5O24
_symmetry_space_group_name_H-M   'P 1'
_cell_length_a   8.78226019
_cell_length_b   8.79121595
_cell_length_c   22.73773125
_cell_angle_alpha   90.00066510
_cell_angle_beta   89.92604354
_cell_angle_gamma   120.05867144
_symmetry_Int_Tables_number   1
_chemical_formula_structural   NaHf2Mg2PS5O24
_chemical_formula_sum   'Na3 Hf6 Mg6 P3 S15 O72'
_cell_volume   1519.41169962
_cell_formula_units_Z   3
loop_
 _symmetry_equiv_pos_site_id
 _symmetry_equiv_pos_as_xyz
  1  'x, y, z'
loop_
 _atom_site_type_symbol
 _atom_site_label
 _atom_site_symmetry_multiplicity
 _atom_site_fract_x
 _atom_site_fract_y
 _atom_site_fract_z
 _atom_site_occupancy
  Na  Na0  1  0.66970817  0.33334017  0.82919720  1
  Na  Na1  1  0.66253112  0.33403604  0.33257342  1
  Na  Na2  1  0.33640144  0.66952585  0.16372077  1
  Hf  Hf0  1  0.00205248  0.99367465  0.35549702  1
  Hf  Hf1  1  0.99903562  0.99993019  0.64166409  1
  Hf  Hf2  1  0.99878065  0.99269653  0.14419308  1
  Hf  Hf3  1  0.67155557  0.33314983  0.97714772  1
  Hf  Hf4  1  0.33937501  0.67264985  0.31352050  1
  Hf  Hf5  1  0.32470143  0.66006371  0.81106086  1
  Mg  Mg0  1  0.99989134  0.00598173  0.85491170  1
  Mg  Mg1  1  0.66658289  0.33277305  0.68187398  1
  Mg  Mg2  1  0.66002909  0.33358411  0.18655346  1
  Mg  Mg3  1  0.66634509  0.33350669  0.48705293  1
  Mg  Mg4  1  0.32943134  0.66079244  0.01543403  1
  Mg  Mg5  1  0.33332220  0.66625796  0.52641825  1
  P  P0  1  0.29489823  0.00490174  0.24951683  1
  P  P1  1  0.71112954  0.70523932  0.24961800  1
  P  P2  1  0.04847571  0.37245370  0.91780115  1
  S  S0  1  0.99643800  0.28907138  0.24978231  1
  S  S1  1  0.29209299  0.28520617  0.75072014  1
  S  S2  1  0.99375137  0.70965104  0.75103853  1
  S  S3  1  0.71260170  0.00439680  0.75103856  1
  S  S4  1  0.95660700  0.33883271  0.58295808  1
  S  S5  1  0.38206520  0.04313903  0.58300919  1
  S  S6  1  0.66102227  0.61764906  0.58301698  1
  S  S7  1  0.95881827  0.61835034  0.08455490  1
  S  S8  1  0.66128955  0.04093635  0.08471304  1
  S  S9  1  0.37943463  0.33908875  0.08429043  1
  S  S10  1  0.62544924  0.67243533  0.91712370  1
  S  S11  1  0.32717499  0.95273647  0.91717514  1
  S  S12  1  0.62285715  0.96069154  0.41911142  1
  S  S13  1  0.33724167  0.37884061  0.41854635  1
  S  S14  1  0.04101622  0.65992051  0.41885273  1
  O  O0  1  0.20238696  0.02707711  0.30439881  1
  O  O1  1  0.82355040  0.79992279  0.30451640  1
  O  O2  1  0.97322500  0.18176358  0.30302436  1
  O  O3  1  0.21068290  0.17954127  0.80296944  1
  O  O4  1  0.97089781  0.79136639  0.80350771  1
  O  O5  1  0.81952476  0.02886096  0.80293849  1
  O  O6  1  0.79253683  0.97267670  0.69752702  1
  O  O7  1  0.18013763  0.20754498  0.69752255  1
  O  O8  1  0.02683776  0.82062126  0.69761206  1
  O  O9  1  0.79542605  0.82716384  0.19534983  1
  O  O10  1  0.02988148  0.20996152  0.19704259  1
  O  O11  1  0.17387376  0.97114977  0.19538421  1
  O  O12  1  0.87650312  0.36251103  0.63604864  1
  O  O13  1  0.48590803  0.12338814  0.63600638  1
  O  O14  1  0.63740278  0.51390375  0.63608084  1
  O  O15  1  0.87597005  0.51246946  0.13669148  1
  O  O16  1  0.63787343  0.12433956  0.13666522  1
  O  O17  1  0.48610674  0.36277396  0.13634440  1
  O  O18  1  0.45826811  0.30591632  0.03107948  1
  O  O19  1  0.84646426  0.54060491  0.03126402  1
  O  O20  1  0.69322236  0.15289603  0.03112206  1
  O  O21  1  0.45365557  0.15350019  0.53031080  1
  O  O22  1  0.70021432  0.54651977  0.53032352  1
  O  O23  1  0.84630677  0.29987746  0.53031104  1
  O  O24  1  0.54442278  0.69487075  0.96989348  1
  O  O25  1  0.15430060  0.46182138  0.97188179  1
  O  O26  1  0.30854763  0.85120914  0.97005706  1
  O  O27  1  0.54248461  0.84704368  0.46907814  1
  O  O28  1  0.30497042  0.45827631  0.46903506  1
  O  O29  1  0.15353798  0.69463002  0.46921224  1
  O  O30  1  0.12546128  0.63821225  0.36358003  1
  O  O31  1  0.51318016  0.87510837  0.36385630  1
  O  O32  1  0.36043399  0.48743449  0.36344420  1
  O  O33  1  0.13038003  0.49667501  0.86236633  1
  O  O34  1  0.36740613  0.87717699  0.86408291  1
  O  O35  1  0.51067173  0.63538379  0.86410449  1
  O  O36  1  0.02479301  0.82088324  0.40837581  1
  O  O37  1  0.79814580  0.97727533  0.40706306  1
  O  O38  1  0.17676922  0.20332443  0.40709969  1
  O  O39  1  0.02009760  0.19303506  0.90626690  1
  O  O40  1  0.17761800  0.97554706  0.90741949  1
  O  O41  1  0.79967177  0.81978197  0.90742529  1
  O  O42  1  0.97540848  0.17700894  0.59284521  1
  O  O43  1  0.20129682  0.02452941  0.59301382  1
  O  O44  1  0.82327703  0.79843692  0.59285896  1
  O  O45  1  0.97319311  0.79575252  0.09068925  1
  O  O46  1  0.82370669  0.02717212  0.09161401  1
  O  O47  1  0.20154821  0.17821358  0.09203984  1
  O  O48  1  0.68905335  0.15761032  0.74265510  1
  O  O49  1  0.46981347  0.31123558  0.74253185  1
  O  O50  1  0.84246060  0.53167692  0.74290934  1
  O  O51  1  0.69281604  0.52640136  0.24336568  1
  O  O52  1  0.84318922  0.30887005  0.24292479  1
  O  O53  1  0.47604934  0.16293474  0.24342595  1
  O  O54  1  0.63877657  0.50633332  0.92430657  1
  O  O55  1  0.85995982  0.35933695  0.92448443  1
  O  O56  1  0.49171816  0.13396246  0.92410489  1
  O  O57  1  0.64275673  0.13625763  0.42266310  1
  O  O58  1  0.49215592  0.35697838  0.42239313  1
  O  O59  1  0.86358891  0.50648224  0.42265816  1
  O  O60  1  0.35706779  0.49283583  0.07690096  1
  O  O61  1  0.13648547  0.64566434  0.07682057  1
  O  O62  1  0.50861484  0.86458716  0.07608018  1
  O  O63  1  0.35539858  0.86741436  0.57411372  1
  O  O64  1  0.51200818  0.64455166  0.57421112  1
  O  O65  1  0.13267555  0.48804384  0.57414664  1
  O  O66  1  0.30463848  0.83332584  0.25766095  1
  O  O67  1  0.52716983  0.69067430  0.25752948  1
  O  O68  1  0.15852504  0.46547760  0.25716649  1
  O  O69  1  0.30934698  0.46384324  0.75824263  1
  O  O70  1  0.15684704  0.69474984  0.75794888  1
  O  O71  1  0.53526398  0.84342790  0.75905717  1
loop_
_geom_bond_atom_site_label_1
_geom_bond_atom_site_label_2
_geom_bond_distance
_geom_bond_site_symmetry_2
Na0 O50 2.556119 1_555
Na0 O48 2.559226 1_555
Na0 O49 2.582629 1_555
Na0 O55 2.676744 1_555
Na0 O56 2.723827 1_555
Na0 O54 2.734167 1_555
Na1 O51 2.567699 1_555
Na1 O53 2.567917 1_555
Na1 O58 2.597100 1_555
Na1 O59 2.634273 1_555
Na1 O57 2.635535 1_555
Na1 O52 2.657928 1_555
Na2 O62 2.567733 1_555
Na2 O60 2.573749 1_555
Na2 O61 2.582782 1_555
Na2 O67 2.662388 1_555
Na2 O66 2.667330 1_555
Na2 O68 2.712380 1_555
Hf0 O0 2.002190 1_565
Hf0 O1 2.008040 1_455
Hf0 O36 2.024251 1_555
Hf0 O38 2.073545 1_565
Hf0 O37 2.082860 1_455
Hf0 O2 2.154521 1_465
Hf1 O44 2.004274 1_555
Hf1 O42 2.005713 1_565
Hf1 O43 2.008937 1_665
Hf1 O6 2.125668 1_555
Hf1 O8 2.132888 1_655
Hf1 O7 2.138030 1_665
Hf2 O9 2.012795 1_555
Hf2 O11 2.012881 1_655
Hf2 O45 2.034471 1_555
Hf2 O47 2.079038 1_665
Hf2 O46 2.087289 1_565
Hf2 O10 2.155225 1_665
Hf3 O55 1.959061 1_555
Hf3 O56 2.061484 1_555
Hf3 O54 2.069886 1_555
Hf3 O20 2.087149 1_556
Hf3 O19 2.097191 1_556
Hf3 O18 2.148161 1_556
Hf4 O31 2.022521 1_555
Hf4 O67 2.024541 1_555
Hf4 O66 2.033286 1_555
Hf4 O32 2.067920 1_555
Hf4 O30 2.083574 1_555
Hf4 O68 2.142189 1_555
Hf5 O33 1.968693 1_555
Hf5 O70 2.044358 1_555
Hf5 O69 2.050252 1_555
Hf5 O71 2.103447 1_555
Hf5 O34 2.126319 1_555
Hf5 O35 2.128211 1_555
Mg0 O39 1.951233 1_655
Mg0 O5 2.066432 1_555
Mg0 O41 2.075653 1_545
Mg0 O3 2.077202 1_655
Mg0 O40 2.087200 1_645
Mg0 O4 2.123712 1_545
Mg1 O12 2.016190 1_555
Mg1 O13 2.017930 1_555
Mg1 O14 2.023602 1_555
Mg1 O49 2.142532 1_555
Mg1 O48 2.150671 1_555
Mg1 O50 2.160837 1_555
Mg2 O17 2.024698 1_555
Mg2 O53 2.024828 1_555
Mg2 O51 2.033942 1_555
Mg2 O16 2.085754 1_555
Mg2 O15 2.088504 1_555
Mg2 O52 2.152441 1_555
Mg3 O21 1.998713 1_555
Mg3 O22 2.001497 1_555
Mg3 O23 2.006201 1_555
Mg3 O59 2.193541 1_555
Mg3 O57 2.198696 1_555
Mg3 O58 2.205983 1_555
Mg4 O25 1.927356 1_554
Mg4 O24 2.038443 1_554
Mg4 O26 2.051472 1_554
Mg4 O60 2.133625 1_555
Mg4 O61 2.146018 1_555
Mg4 O62 2.183783 1_555
Mg5 O65 1.991706 1_555
Mg5 O64 1.996078 1_555
Mg5 O63 1.999501 1_555
Mg5 O29 2.155670 1_555
Mg5 O28 2.156898 1_555
Mg5 O27 2.160858 1_555
O0 P0 1.552859 1_555
O1 P1 1.551028 1_555
O2 S0 1.484517 1_555
O3 S1 1.455334 1_555
O4 S2 1.457213 1_555
O5 S3 1.456424 1_555
O6 S3 1.498303 1_565
O7 S1 1.492162 1_555
O8 S2 1.492323 1_455
O9 P1 1.556375 1_555
O10 S0 1.487173 1_455
O11 P0 1.555688 1_565
O12 S4 1.462863 1_555
O13 S5 1.462809 1_555
O14 S6 1.463039 1_555
O15 S7 1.456191 1_555
O16 S8 1.457981 1_555
O17 S9 1.459219 1_555
O18 S9 1.492754 1_555
O19 S7 1.495487 1_555
O20 S8 1.501626 1_555
O21 S5 1.469486 1_555
O22 S6 1.469534 1_555
O23 S4 1.469447 1_555
O24 S10 1.457167 1_555
O25 P2 1.504843 1_555
O26 S11 1.456864 1_555
O27 S12 1.441774 1_555
O28 S13 1.443367 1_555
O29 S14 1.442791 1_555
O30 S14 1.518313 1_555
O31 S12 1.532791 1_555
O32 S13 1.525521 1_555
O33 P2 1.584149 1_555
O34 S11 1.502462 1_555
O35 S10 1.499901 1_555
O36 S14 1.510465 1_555
O37 S12 1.496740 1_555
O38 S13 1.502419 1_555
O39 P2 1.491695 1_555
O40 S11 1.441934 1_555
O41 S10 1.442679 1_555
O42 S4 1.528757 1_555
O43 S5 1.528963 1_555
O44 S6 1.529267 1_555
O45 S7 1.506814 1_555
O46 S8 1.499111 1_555
O47 S9 1.502591 1_555
O48 S3 1.473938 1_555
O49 S1 1.471240 1_555
O50 S2 1.471607 1_555
O51 P1 1.504873 1_555
O52 S0 1.449547 1_555
O53 P0 1.505194 1_555
O54 S10 1.530993 1_555
O55 P2 1.607945 1_655
O56 S11 1.531515 1_545
O57 S12 1.465977 1_545
O58 S13 1.468944 1_555
O59 S14 1.465984 1_655
O60 S9 1.469614 1_555
O61 S7 1.465313 1_455
O62 S8 1.469056 1_565
O63 S5 1.456005 1_565
O64 S6 1.455819 1_555
O65 S4 1.455708 1_455
O66 P0 1.563990 1_565
O67 P1 1.565528 1_555
O68 S0 1.499562 1_455
O69 S1 1.510020 1_555
O70 S2 1.510637 1_455
O71 S3 1.500931 1_565
