# generated using pymatgen
data_Ho2MgMo2(ClO4)2
_symmetry_space_group_name_H-M   'P 1'
_cell_length_a   6.32454336
_cell_length_b   6.32454304
_cell_length_c   6.66409714
_cell_angle_alpha   86.16522947
_cell_angle_beta   86.16523430
_cell_angle_gamma   66.82343777
_symmetry_Int_Tables_number   1
_chemical_formula_structural   Ho2MgMo2(ClO4)2
_chemical_formula_sum   'Ho2 Mg1 Mo2 Cl2 O8'
_cell_volume   244.26249372
_cell_formula_units_Z   1
loop_
 _symmetry_equiv_pos_site_id
 _symmetry_equiv_pos_as_xyz
  1  'x, y, z'
loop_
 _atom_site_type_symbol
 _atom_site_label
 _atom_site_symmetry_multiplicity
 _atom_site_fract_x
 _atom_site_fract_y
 _atom_site_fract_z
 _atom_site_occupancy
  Ho  Ho0  1  0.23302377  0.23302377  0.88307451  1
  Ho  Ho1  1  0.82035063  0.82035063  0.05721437  1
  Mg  Mg0  1  0.52770761  0.52770761  0.03494026  1
  Mo  Mo0  1  0.62764312  0.62764312  0.64152318  1
  Mo  Mo1  1  0.33126817  0.33126817  0.32323444  1
  Cl  Cl0  1  0.08310385  0.08310385  0.23053034  1
  Cl  Cl1  1  0.98410742  0.98410742  0.75127928  1
  O  O0  1  0.51163595  0.51163595  0.35352951  1
  O  O1  1  0.74602451  0.74602451  0.42642581  1
  O  O2  1  0.50583580  0.85437949  0.86634842  1
  O  O3  1  0.85437949  0.50583580  0.86634842  1
  O  O4  1  0.25117481  0.25117481  0.56513257  1
  O  O5  1  0.54439023  0.16518333  0.11556748  1
  O  O6  1  0.16518333  0.54439023  0.11556748  1
  O  O7  1  0.46000430  0.46000430  0.76002491  1
loop_
_geom_bond_atom_site_label_1
_geom_bond_atom_site_label_2
_geom_bond_distance
_geom_bond_site_symmetry_2
Ho0 O4 2.112098 1_555
Ho0 O2 2.341348 1_545
Ho0 O3 2.341348 1_455
Ho0 O7 2.470066 1_555
Ho0 O5 2.473189 1_556
Ho0 O6 2.473189 1_556
Ho1 O6 2.231651 1_655
Ho1 O5 2.231651 1_565
Ho1 O2 2.363425 1_554
Ho1 O3 2.363425 1_554
Ho1 O1 2.521971 1_555
Mg0 O7 2.019240 1_554
Mg0 O0 2.116284 1_555
Mg0 O2 2.243953 1_554
Mg0 O3 2.243953 1_554
Mg0 O5 2.282356 1_555
Mg0 O6 2.282356 1_555
Mo0 O1 1.824824 1_555
Mo0 O7 1.879544 1_555
Mo0 O3 2.039131 1_555
Mo0 O2 2.039131 1_555
Mo0 O0 2.358054 1_555
Mo1 O4 1.759366 1_555
Mo1 O6 1.914650 1_555
Mo1 O5 1.914650 1_555
Mo1 O0 1.931128 1_555
Cl0 Ho0 2.698119 1_554
Cl0 Mo1 2.739874 1_555
Cl0 Ho1 3.089386 1_445
Cl1 Ho1 2.565417 1_556
Cl1 Ho0 2.837045 1_665
