# generated using pymatgen
data_Sr2Nb5O9
_symmetry_space_group_name_H-M   'P 1'
_cell_length_a   4.19962800
_cell_length_b   4.19962800
_cell_length_c   12.18683600
_cell_angle_alpha   90.00000000
_cell_angle_beta   90.00000000
_cell_angle_gamma   90.00000000
_symmetry_Int_Tables_number   1
_chemical_formula_structural   Sr2Nb5O9
_chemical_formula_sum   'Sr2 Nb5 O9'
_cell_volume   214.93770730
_cell_formula_units_Z   1
loop_
 _symmetry_equiv_pos_site_id
 _symmetry_equiv_pos_as_xyz
  1  'x, y, z'
loop_
 _atom_site_type_symbol
 _atom_site_label
 _atom_site_symmetry_multiplicity
 _atom_site_fract_x
 _atom_site_fract_y
 _atom_site_fract_z
 _atom_site_occupancy
  Sr  Sr0  1  0.00000000  0.00000000  0.16929400  1
  Sr  Sr1  1  0.00000000  0.00000000  0.83070600  1
  Nb  Nb0  1  0.50000000  0.50000000  0.33541100  1
  Nb  Nb1  1  0.50000000  0.00000000  0.50000000  1
  Nb  Nb2  1  0.00000000  0.50000000  0.50000000  1
  Nb  Nb3  1  0.50000000  0.50000000  0.66458900  1
  Nb  Nb4  1  0.50000000  0.50000000  0.00000000  1
  O  O0  1  0.00000000  0.00000000  0.50000000  1
  O  O1  1  0.00000000  0.50000000  0.67711100  1
  O  O2  1  0.50000000  0.00000000  0.67711100  1
  O  O3  1  0.00000000  0.50000000  0.32288900  1
  O  O4  1  0.50000000  0.00000000  0.32288900  1
  O  O5  1  0.50000000  0.50000000  0.83811600  1
  O  O6  1  0.50000000  0.50000000  0.16188400  1
  O  O7  1  0.50000000  0.00000000  0.00000000  1
  O  O8  1  0.00000000  0.50000000  0.00000000  1
loop_
_geom_bond_atom_site_label_1
_geom_bond_atom_site_label_2
_geom_bond_distance
_geom_bond_site_symmetry_2
Nb0 O3 2.105352 1_655
Nb0 O3 2.105352 1_555
Nb0 O4 2.105352 1_555
Nb0 O4 2.105352 1_565
Nb0 O6 2.114745 1_555
Nb1 O0 2.099814 1_555
Nb1 O0 2.099814 1_655
Nb1 O2 2.158423 1_555
Nb1 O4 2.158423 1_555
Nb2 O0 2.099814 1_565
Nb2 O0 2.099814 1_555
Nb2 O3 2.158423 1_555
Nb2 O1 2.158423 1_555
Nb3 O1 2.105352 1_655
Nb3 O2 2.105352 1_555
Nb3 O2 2.105352 1_565
Nb3 O1 2.105352 1_555
Nb3 O5 2.114745 1_555
Nb4 O6 1.972854 1_555
Nb4 O5 1.972854 1_554
Nb4 O8 2.099814 1_555
Nb4 O7 2.099814 1_555
Nb4 O7 2.099814 1_565
Nb4 O8 2.099814 1_655
O1 Sr1 2.813004 1_555
O1 Sr1 2.813004 1_565
O2 Sr1 2.813004 1_555
O2 Sr1 2.813004 1_655
O3 Sr0 2.813004 1_565
O3 Sr0 2.813004 1_555
O4 Sr0 2.813004 1_655
O4 Sr0 2.813004 1_555
O5 Sr1 2.970958 1_655
O5 Sr1 2.970958 1_565
O5 Sr1 2.970958 1_555
O5 Sr1 2.970958 1_665
O6 Sr0 2.970958 1_665
O6 Sr0 2.970958 1_655
O6 Sr0 2.970958 1_565
O6 Sr0 2.970958 1_555
O7 Sr1 2.943780 1_554
O7 Sr1 2.943780 1_654
O7 Sr0 2.943780 1_555
O7 Sr0 2.943780 1_655
O8 Sr1 2.943780 1_554
O8 Sr1 2.943780 1_564
O8 Sr0 2.943780 1_555
O8 Sr0 2.943780 1_565
