# generated using pymatgen
data_RbMgV2Fe(AgO4)2
_symmetry_space_group_name_H-M   'P 1'
_cell_length_a   5.79495935
_cell_length_b   5.72796727
_cell_length_c   7.88769830
_cell_angle_alpha   94.41424403
_cell_angle_beta   82.01304149
_cell_angle_gamma   120.57813125
_symmetry_Int_Tables_number   1
_chemical_formula_structural   RbMgV2Fe(AgO4)2
_chemical_formula_sum   'Rb1 Mg1 V2 Fe1 Ag2 O8'
_cell_volume   223.21690182
_cell_formula_units_Z   1
loop_
 _symmetry_equiv_pos_site_id
 _symmetry_equiv_pos_as_xyz
  1  'x, y, z'
loop_
 _atom_site_type_symbol
 _atom_site_label
 _atom_site_symmetry_multiplicity
 _atom_site_fract_x
 _atom_site_fract_y
 _atom_site_fract_z
 _atom_site_occupancy
  Rb  Rb0  1  0.90810245  -0.00060799  0.94207848  1
  Mg  Mg0  1  0.29739528  0.94814197  0.13945239  1
  V  V0  1  0.31144308  0.67926843  0.72678220  1
  V  V1  1  0.73029609  0.35117410  0.26843723  1
  Fe  Fe0  1  0.00848003  0.00614859  0.49596289  1
  Ag  Ag0  1  0.42324770  0.64479165  0.34259622  1
  Ag  Ag1  1  0.64003321  0.34293477  0.74262629  1
  O  O0  1  0.25573240  0.92705728  0.65918923  1
  O  O1  1  0.06649187  0.35989981  0.65791522  1
  O  O2  1  0.64132078  0.73694658  0.64806983  1
  O  O3  1  0.76220147  0.07309544  0.32224674  1
  O  O4  1  0.99359600  0.69619419  0.30142598  1
  O  O5  1  0.35761502  0.23188961  0.33857393  1
  O  O6  1  0.28527085  0.69392117  0.95000262  1
  O  O7  1  0.64020277  0.27343040  0.04499774  1
loop_
_geom_bond_atom_site_label_1
_geom_bond_atom_site_label_2
_geom_bond_distance
_geom_bond_site_symmetry_2
Mg0 O4 1.971837 1_455
Mg0 O6 1.987080 1_554
Mg0 O7 2.002398 1_565
Mg0 O5 2.100593 1_565
Mg0 Rb0 3.052748 1_464
Fe0 O5 2.047916 1_555
Fe0 O2 2.140454 1_445
Fe0 O1 2.208727 1_555
Fe0 O4 2.230620 1_445
Fe0 O0 2.275667 1_545
Fe0 O3 2.289653 1_455
Ag0 O5 2.194517 1_555
Ag0 O3 2.229988 1_565
Ag0 O4 2.715986 1_455
Ag0 O2 2.766395 1_555
Ag1 O0 2.415729 1_545
Ag1 O1 2.422820 1_655
Ag1 O2 2.426992 1_555
Ag1 O7 2.448266 1_556
O0 V0 1.741690 1_555
O0 Rb0 2.943898 1_465
O1 V0 1.753800 1_555
O1 Rb0 2.888394 1_455
O2 V0 1.791124 1_555
O2 Rb0 2.850097 1_565
O3 V1 1.782393 1_555
O3 Rb0 3.057570 1_554
O4 V1 1.806834 1_555
O5 V1 1.913612 1_555
O6 V0 1.745305 1_555
O6 Rb0 3.101808 1_565
O6 Rb0 3.429359 1_455
O7 V1 1.864232 1_555
O7 Rb0 2.732406 1_554
