# generated using pymatgen
data_Na3MgNb5Si3(PO6)6
_symmetry_space_group_name_H-M   'P 1'
_cell_length_a   8.80882754
_cell_length_b   8.80882725
_cell_length_c   22.90343170
_cell_angle_alpha   90.00000000
_cell_angle_beta   90.00000000
_cell_angle_gamma   120.00000110
_symmetry_Int_Tables_number   1
_chemical_formula_structural   Na3MgNb5Si3(PO6)6
_chemical_formula_sum   'Na6 Mg2 Nb10 Si6 P12 O72'
_cell_volume   1539.10194277
_cell_formula_units_Z   2
loop_
 _symmetry_equiv_pos_site_id
 _symmetry_equiv_pos_as_xyz
  1  'x, y, z'
loop_
 _atom_site_type_symbol
 _atom_site_label
 _atom_site_symmetry_multiplicity
 _atom_site_fract_x
 _atom_site_fract_y
 _atom_site_fract_z
 _atom_site_occupancy
  Na  Na0  1  0.00000000  -0.00000000  0.49941187  1
  Na  Na1  1  0.00000000  -0.00000000  0.99941187  1
  Na  Na2  1  0.66666700  0.33333300  0.82827482  1
  Na  Na3  1  0.66666700  0.33333300  0.32827482  1
  Na  Na4  1  0.33333300  0.66666700  0.16668630  1
  Na  Na5  1  0.33333300  0.66666700  0.66668630  1
  Mg  Mg0  1  0.66666700  0.33333300  0.68667536  1
  Mg  Mg1  1  0.66666700  0.33333300  0.18667536  1
  Nb  Nb0  1  0.00000000  -0.00000000  0.35528828  1
  Nb  Nb1  1  0.00000000  -0.00000000  0.85528828  1
  Nb  Nb2  1  0.00000000  -0.00000000  0.64584889  1
  Nb  Nb3  1  0.00000000  -0.00000000  0.14584889  1
  Nb  Nb4  1  0.66666700  0.33333300  0.97807558  1
  Nb  Nb5  1  0.66666700  0.33333300  0.47807558  1
  Nb  Nb6  1  0.33333300  0.66666700  0.02022543  1
  Nb  Nb7  1  0.33333300  0.66666700  0.52022543  1
  Nb  Nb8  1  0.33333300  0.66666700  0.31243054  1
  Nb  Nb9  1  0.33333300  0.66666700  0.81243054  1
  Si  Si0  1  0.61984697  0.66628968  0.91650440  1
  Si  Si1  1  0.04644171  0.38015303  0.91650440  1
  Si  Si2  1  0.33371032  0.95355829  0.91650440  1
  Si  Si3  1  0.61984697  0.95355829  0.41650440  1
  Si  Si4  1  0.33371032  0.38015303  0.41650440  1
  Si  Si5  1  0.04644171  0.66628968  0.41650440  1
  P  P0  1  0.29311770  0.00463111  0.24970317  1
  P  P1  1  0.71151341  0.70688230  0.24970317  1
  P  P2  1  0.99536889  0.28848659  0.24970317  1
  P  P3  1  0.29311770  0.28848659  0.74970317  1
  P  P4  1  0.99536889  0.70688230  0.74970317  1
  P  P5  1  0.71151341  0.00463111  0.74970317  1
  P  P6  1  0.95250313  0.33475932  0.58574515  1
  P  P7  1  0.38225719  0.04749687  0.58574515  1
  P  P8  1  0.66524068  0.61774281  0.58574515  1
  P  P9  1  0.95250313  0.61774281  0.08574515  1
  P  P10  1  0.66524068  0.04749687  0.08574515  1
  P  P11  1  0.38225719  0.33475932  0.08574515  1
  O  O0  1  0.19523055  0.02106033  0.30395408  1
  O  O1  1  0.82582978  0.80476945  0.30395408  1
  O  O2  1  0.97893967  0.17417022  0.30395408  1
  O  O3  1  0.19523055  0.17417022  0.80395408  1
  O  O4  1  0.97893967  0.80476945  0.80395408  1
  O  O5  1  0.82582978  0.02106033  0.80395408  1
  O  O6  1  0.80288101  0.97248518  0.69546518  1
  O  O7  1  0.16960416  0.19711899  0.69546518  1
  O  O8  1  0.02751482  0.83039584  0.69546518  1
  O  O9  1  0.80288101  0.83039584  0.19546518  1
  O  O10  1  0.02751482  0.19711899  0.19546518  1
  O  O11  1  0.16960416  0.97248518  0.19546518  1
  O  O12  1  0.87575082  0.36497948  0.63915421  1
  O  O13  1  0.48922966  0.12424918  0.63915421  1
  O  O14  1  0.63502052  0.51077034  0.63915421  1
  O  O15  1  0.87575082  0.51077034  0.13915421  1
  O  O16  1  0.63502052  0.12424918  0.13915421  1
  O  O17  1  0.48922966  0.36497948  0.13915421  1
  O  O18  1  0.46232628  0.30391220  0.02896682  1
  O  O19  1  0.84158693  0.53767372  0.02896682  1
  O  O20  1  0.69608780  0.15841307  0.02896682  1
  O  O21  1  0.46232628  0.15841307  0.52896682  1
  O  O22  1  0.69608780  0.53767372  0.52896682  1
  O  O23  1  0.84158693  0.30391220  0.52896682  1
  O  O24  1  0.53148875  0.69893985  0.97397042  1
  O  O25  1  0.16745010  0.46851125  0.97397042  1
  O  O26  1  0.30106015  0.83254990  0.97397042  1
  O  O27  1  0.53148875  0.83254990  0.47397042  1
  O  O28  1  0.30106015  0.46851125  0.47397042  1
  O  O29  1  0.16745010  0.69893985  0.47397042  1
  O  O30  1  0.13560061  0.63383359  0.35885057  1
  O  O31  1  0.49823198  0.86439939  0.35885057  1
  O  O32  1  0.36616641  0.50176802  0.35885057  1
  O  O33  1  0.13560061  0.50176802  0.85885057  1
  O  O34  1  0.36616641  0.86439939  0.85885057  1
  O  O35  1  0.49823198  0.63383359  0.85885057  1
  O  O36  1  0.02450221  0.83735743  0.40783584  1
  O  O37  1  0.81285521  0.97549779  0.40783584  1
  O  O38  1  0.16264257  0.18714479  0.40783584  1
  O  O39  1  0.02450221  0.18714479  0.90783584  1
  O  O40  1  0.16264257  0.97549779  0.90783584  1
  O  O41  1  0.81285521  0.83735743  0.90783584  1
  O  O42  1  0.97635981  0.16809139  0.59092192  1
  O  O43  1  0.19173159  0.02364019  0.59092192  1
  O  O44  1  0.83190861  0.80826841  0.59092192  1
  O  O45  1  0.97635981  0.80826841  0.09092192  1
  O  O46  1  0.83190861  0.02364019  0.09092192  1
  O  O47  1  0.19173159  0.16809139  0.09092192  1
  O  O48  1  0.69361114  0.16393071  0.74443197  1
  O  O49  1  0.47032057  0.30638886  0.74443197  1
  O  O50  1  0.83606929  0.52967943  0.74443197  1
  O  O51  1  0.69361114  0.52967943  0.24443197  1
  O  O52  1  0.83606929  0.30638886  0.24443197  1
  O  O53  1  0.47032057  0.16393071  0.24443197  1
  O  O54  1  0.64147932  0.49518669  0.92585642  1
  O  O55  1  0.85370836  0.35852068  0.92585642  1
  O  O56  1  0.50481331  0.14629164  0.92585642  1
  O  O57  1  0.64147932  0.14629164  0.42585642  1
  O  O58  1  0.50481331  0.35852068  0.42585642  1
  O  O59  1  0.85370836  0.49518669  0.42585642  1
  O  O60  1  0.35266804  0.49373012  0.07536937  1
  O  O61  1  0.14106108  0.64733196  0.07536937  1
  O  O62  1  0.50626988  0.85893892  0.07536937  1
  O  O63  1  0.35266804  0.85893892  0.57536937  1
  O  O64  1  0.50626988  0.64733196  0.57536937  1
  O  O65  1  0.14106108  0.49373012  0.57536937  1
  O  O66  1  0.30019684  0.83139564  0.25563146  1
  O  O67  1  0.53119780  0.69980316  0.25563146  1
  O  O68  1  0.16860436  0.46880220  0.25563146  1
  O  O69  1  0.30019684  0.46880220  0.75563146  1
  O  O70  1  0.16860436  0.69980316  0.75563146  1
  O  O71  1  0.53119780  0.83139564  0.75563146  1
loop_
_geom_bond_atom_site_label_1
_geom_bond_atom_site_label_2
_geom_bond_distance
_geom_bond_site_symmetry_2
Na0 O36 2.609123 1_545
Na0 O38 2.609123 1_555
Na0 O37 2.609123 1_445
Na0 O42 2.633803 1_455
Na0 O44 2.633803 1_445
Na0 O43 2.633803 1_555
Na1 O40 2.609123 1_545
Na1 O41 2.609123 1_445
Na1 O39 2.609123 1_555
Na1 O46 2.633803 1_456
Na1 O47 2.633803 1_556
Na1 O45 2.633803 1_446
Na2 O50 2.514913 1_555
Na2 O48 2.514913 1_555
Na2 O49 2.514913 1_555
Na2 O56 2.719066 1_555
Na2 O55 2.719066 1_555
Na2 O54 2.719066 1_555
Na3 O51 2.514913 1_555
Na3 O53 2.514913 1_555
Na3 O52 2.514913 1_555
Na3 O57 2.719066 1_555
Na3 O59 2.719066 1_555
Na3 O58 2.719066 1_555
Na4 O68 2.600831 1_555
Na4 O66 2.600831 1_555
Na4 O67 2.600831 1_555
Na4 O62 2.642608 1_555
Na4 O60 2.642608 1_555
Na4 O61 2.642608 1_555
Na5 O69 2.600831 1_555
Na5 O71 2.600831 1_555
Na5 O70 2.600831 1_555
Na5 O63 2.642608 1_555
Na5 O65 2.642608 1_555
Na5 O64 2.642608 1_555
Mg0 O13 2.034958 1_555
Mg0 O14 2.034958 1_555
Mg0 O12 2.034958 1_555
Mg0 O50 2.094550 1_555
Mg0 O48 2.094550 1_555
Mg0 O49 2.094550 1_555
Mg1 O16 2.034958 1_555
Mg1 O15 2.034958 1_555
Mg1 O17 2.034958 1_555
Mg1 O51 2.094550 1_555
Mg1 O53 2.094550 1_555
Mg1 O52 2.094550 1_555
Nb0 O36 1.963892 1_545
Nb0 O38 1.963892 1_555
Nb0 O37 1.963892 1_445
Nb0 O1 2.013768 1_445
Nb0 O2 2.013768 1_455
Nb0 O0 2.013768 1_555
Nb1 O40 1.963892 1_545
Nb1 O41 1.963892 1_445
Nb1 O39 1.963892 1_555
Nb1 O4 2.013768 1_445
Nb1 O3 2.013768 1_555
Nb1 O5 2.013768 1_455
Nb2 O8 1.986026 1_545
Nb2 O7 1.986026 1_555
Nb2 O6 1.986026 1_445
Nb2 O42 2.031440 1_455
Nb2 O44 2.031440 1_445
Nb2 O43 2.031440 1_555
Nb3 O11 1.986026 1_545
Nb3 O9 1.986026 1_445
Nb3 O10 1.986026 1_555
Nb3 O46 2.031440 1_455
Nb3 O47 2.031440 1_555
Nb3 O45 2.031440 1_445
Nb4 O56 1.956709 1_555
Nb4 O55 1.956709 1_555
Nb4 O54 1.956709 1_555
Nb4 O19 2.049211 1_556
Nb4 O18 2.049211 1_556
Nb4 O20 2.049211 1_556
Nb5 O57 1.956709 1_555
Nb5 O59 1.956709 1_555
Nb5 O58 1.956710 1_555
Nb5 O22 2.049211 1_555
Nb5 O21 2.049211 1_555
Nb5 O23 2.049211 1_555
Nb6 O25 1.937461 1_554
Nb6 O26 1.937461 1_554
Nb6 O24 1.937461 1_554
Nb6 O62 2.050429 1_555
Nb6 O60 2.050429 1_555
Nb6 O61 2.050429 1_555
Nb7 O28 1.937461 1_555
Nb7 O27 1.937461 1_555
Nb7 O29 1.937461 1_555
Nb7 O63 2.050429 1_555
Nb7 O65 2.050429 1_555
Nb7 O64 2.050429 1_555
Nb8 O31 1.934959 1_555
Nb8 O32 1.934959 1_555
Nb8 O30 1.934959 1_555
Nb8 O68 2.075252 1_555
Nb8 O66 2.075252 1_555
Nb8 O67 2.075252 1_555
Nb9 O34 1.934959 1_555
Nb9 O33 1.934959 1_555
Nb9 O35 1.934959 1_555
Nb9 O69 2.075252 1_555
Nb9 O71 2.075252 1_555
Nb9 O70 2.075252 1_555
O0 P0 1.559850 1_555
O1 P1 1.559850 1_555
O2 P2 1.559850 1_555
O3 P3 1.559850 1_555
O4 P4 1.559850 1_555
O5 P5 1.559850 1_555
O6 P5 1.580826 1_565
O7 P3 1.580826 1_555
O8 P4 1.580826 1_455
O9 P1 1.580826 1_555
O10 P2 1.580826 1_455
O11 P0 1.580826 1_565
O12 P6 1.484687 1_555
O13 P7 1.484687 1_555
O14 P8 1.484687 1_555
O15 P9 1.484687 1_555
O16 P10 1.484687 1_555
O17 P11 1.484687 1_555
O18 P11 1.566540 1_555
O19 P9 1.566539 1_555
O20 P10 1.566539 1_555
O21 P7 1.566539 1_555
O22 P8 1.566540 1_555
O23 P6 1.566539 1_555
O24 Si0 1.626246 1_555
O25 Si1 1.626246 1_555
O26 Si2 1.626246 1_555
O27 Si3 1.626246 1_555
O28 Si4 1.626246 1_555
O29 Si5 1.626246 1_555
O30 Si5 1.633020 1_555
O31 Si3 1.633020 1_555
O32 Si4 1.633020 1_555
O33 Si1 1.633020 1_555
O34 Si2 1.633020 1_555
O35 Si0 1.633020 1_555
O36 Si5 1.624426 1_555
O37 Si3 1.624435 1_555
O38 Si4 1.624431 1_555
O39 Si1 1.624435 1_555
O40 Si2 1.624426 1_555
O41 Si0 1.624431 1_555
O42 P6 1.588148 1_555
O43 P7 1.588156 1_555
O44 P8 1.588153 1_555
O45 P9 1.588156 1_555
O46 P10 1.588148 1_555
O47 P11 1.588153 1_555
O48 P5 1.493259 1_555
O49 P3 1.493268 1_555
O50 P4 1.493264 1_555
O51 P1 1.493268 1_555
O52 P2 1.493259 1_555
O53 P0 1.493264 1_555
O54 Si0 1.625146 1_555
O55 Si1 1.625129 1_655
O56 Si2 1.625136 1_545
O57 Si3 1.625129 1_545
O58 Si4 1.625147 1_555
O59 Si5 1.625136 1_655
O60 P11 1.565367 1_555
O61 P9 1.565350 1_455
O62 P10 1.565356 1_565
O63 P7 1.565350 1_565
O64 P8 1.565367 1_555
O65 P6 1.565356 1_455
O66 P0 1.564022 1_565
O67 P1 1.564031 1_555
O68 P2 1.564026 1_455
O69 P3 1.564031 1_555
O70 P4 1.564022 1_455
O71 P5 1.564026 1_565
