# generated using pymatgen
data_Na3ZrSi2SnPO12
_symmetry_space_group_name_H-M   'P 1'
_cell_length_a   15.80930235
_cell_length_b   9.12113413
_cell_length_c   9.16076048
_cell_angle_alpha   89.95736308
_cell_angle_beta   124.88498988
_cell_angle_gamma   90.08180430
_symmetry_Int_Tables_number   1
_chemical_formula_structural   Na3ZrSi2SnPO12
_chemical_formula_sum   'Na12 Zr4 Si8 Sn4 P4 O48'
_cell_volume   1083.59317743
_cell_formula_units_Z   4
loop_
 _symmetry_equiv_pos_site_id
 _symmetry_equiv_pos_as_xyz
  1  'x, y, z'
loop_
 _atom_site_type_symbol
 _atom_site_label
 _atom_site_symmetry_multiplicity
 _atom_site_fract_x
 _atom_site_fract_y
 _atom_site_fract_z
 _atom_site_occupancy
  Na  Na0  1  0.24654015  0.76401752  0.99679400  1
  Na  Na1  1  0.74431132  0.73819974  0.49454834  1
  Na  Na2  1  0.74393113  0.26205415  0.99418742  1
  Na  Na3  1  0.24616997  0.23550524  0.49711764  1
  Na  Na4  1  0.50082577  0.08424462  0.74896401  1
  Na  Na5  1  0.50258442  0.91281934  0.25159547  1
  Na  Na6  1  0.00117139  0.58346382  0.74967046  1
  Na  Na7  1  0.00313724  0.41922917  0.25223523  1
  Na  Na8  1  0.81363888  0.92357712  0.20293968  1
  Na  Na9  1  0.81494349  0.07642286  0.70377154  1
  Na  Na10  1  0.31633666  0.42134628  0.20632902  1
  Na  Na11  1  0.31508507  0.57628934  0.70501882  1
  Zr  Zr0  1  0.89499221  0.74534104  0.93445598  1
  Zr  Zr1  1  0.89405232  0.25529831  0.43345860  1
  Zr  Zr2  1  0.10460164  0.24987758  0.06087153  1
  Zr  Zr3  1  0.39465936  0.24382603  0.93530614  1
  Si  Si0  1  0.35211144  0.89260355  0.74996694  1
  Si  Si1  1  0.64641255  0.89705810  0.74393557  1
  Si  Si2  1  0.64816003  0.10125668  0.24607139  1
  Si  Si3  1  0.35485418  0.10147932  0.25919827  1
  Si  Si4  1  0.84936131  0.39557888  0.75136617  1
  Si  Si5  1  0.14873216  0.39990082  0.74370927  1
  Si  Si6  1  0.15152965  0.60658673  0.25097178  1
  Si  Si7  1  0.85111454  0.60618081  0.25332583  1
  Sn  Sn0  1  0.10362675  0.75059932  0.56052261  1
  Sn  Sn1  1  0.60371057  0.24986281  0.55954929  1
  Sn  Sn2  1  0.39695147  0.75315180  0.43618145  1
  Sn  Sn3  1  0.60268332  0.74978411  0.05868589  1
  P  P0  1  0.00241924  0.95632406  0.74572864  1
  P  P1  1  0.00349963  0.04033392  0.25283575  1
  P  P2  1  0.50294097  0.46057799  0.74751275  1
  P  P3  1  0.50332044  0.54240573  0.25250032  1
  O  O0  1  0.14968539  0.58126044  0.74393284  1
  O  O1  1  0.84948623  0.57450346  0.75123211  1
  O  O2  1  0.85021096  0.42697590  0.25239891  1
  O  O3  1  0.15238679  0.42550461  0.24090706  1
  O  O4  1  0.64859493  0.07911571  0.74162036  1
  O  O5  1  0.35109612  0.07233794  0.75605780  1
  O  O6  1  0.35374576  0.92193164  0.25519209  1
  O  O7  1  0.64919659  0.91953381  0.24198973  1
  O  O8  1  0.43305082  0.55333582  0.57685112  1
  O  O9  1  0.56580377  0.55694847  0.91501381  1
  O  O10  1  0.56642399  0.44698625  0.42071443  1
  O  O11  1  0.43635691  0.44711104  0.08470457  1
  O  O12  1  0.93699396  0.05075850  0.57731369  1
  O  O13  1  0.06234140  0.05584807  0.91065304  1
  O  O14  1  0.06609962  0.94476863  0.42111922  1
  O  O15  1  0.93881885  0.94522081  0.08435155  1
  O  O16  1  0.25506011  0.81625701  0.73917715  1
  O  O17  1  0.74810207  0.83961866  0.75608639  1
  O  O18  1  0.74811292  0.15984891  0.25393055  1
  O  O19  1  0.25728226  0.17810596  0.24357842  1
  O  O20  1  0.75344364  0.31702535  0.74123824  1
  O  O21  1  0.24904196  0.34124236  0.75312952  1
  O  O22  1  0.25225288  0.66512758  0.25890113  1
  O  O23  1  0.75362872  0.68275923  0.23999259  1
  O  O24  1  0.35711761  0.85505277  0.58153681  1
  O  O25  1  0.64817179  0.86623412  0.92333862  1
  O  O26  1  0.65088293  0.13327879  0.42627186  1
  O  O27  1  0.35886652  0.14913893  0.09014671  1
  O  O28  1  0.85424734  0.34662712  0.58408955  1
  O  O29  1  0.14998730  0.36113507  0.92125326  1
  O  O30  1  0.15128460  0.63386480  0.42867854  1
  O  O31  1  0.85681986  0.65276867  0.08654261  1
  O  O32  1  0.45457135  0.82324285  0.93300333  1
  O  O33  1  0.54308560  0.83139229  0.56387619  1
  O  O34  1  0.54270694  0.16606840  0.07041796  1
  O  O35  1  0.45734558  0.17286320  0.43877890  1
  O  O36  1  0.95499935  0.33083097  0.93050113  1
  O  O37  1  0.04222523  0.33699577  0.56764868  1
  O  O38  1  0.04505416  0.66873060  0.07343876  1
  O  O39  1  0.95484775  0.67374395  0.43524681  1
  O  O40  1  0.07996653  0.85481817  0.74381683  1
  O  O41  1  0.92394229  0.86112553  0.75457613  1
  O  O42  1  0.92365771  0.13471704  0.25813756  1
  O  O43  1  0.07844822  0.14376765  0.24686883  1
  O  O44  1  0.57889871  0.35962720  0.74083910  1
  O  O45  1  0.42560868  0.36390448  0.75820305  1
  O  O46  1  0.42341416  0.63777574  0.25937840  1
  O  O47  1  0.57822392  0.64497296  0.24399824  1
loop_
_geom_bond_atom_site_label_1
_geom_bond_atom_site_label_2
_geom_bond_distance
_geom_bond_site_symmetry_2
Na0 O6 2.441195 1_556
Na0 O40 2.452344 1_555
Na0 O16 2.485230 1_555
Na0 O22 2.517138 1_556
Na0 O0 2.535812 1_555
Na0 O46 2.691155 1_556
Na1 O47 2.447134 1_555
Na1 O1 2.460245 1_555
Na1 O23 2.471874 1_555
Na1 O7 2.524188 1_555
Na1 O17 2.537419 1_555
Na1 O41 2.693152 1_555
Na2 O20 2.457667 1_555
Na2 O44 2.462273 1_555
Na2 O2 2.476499 1_556
Na2 O18 2.520340 1_556
Na2 O4 2.533536 1_555
Na2 O42 2.723129 1_556
Na3 O43 2.455558 1_555
Na3 O5 2.468660 1_555
Na3 O19 2.483605 1_555
Na3 O21 2.512749 1_555
Na3 O3 2.594442 1_555
Na3 O45 2.715354 1_555
Na4 O4 2.375772 1_555
Na4 O5 2.407175 1_555
Na4 O35 2.638956 1_555
Na4 O34 2.727384 1_556
Na4 O25 2.772048 1_545
Na4 O24 2.808832 1_545
Na4 O44 2.816750 1_555
Na4 O45 2.837597 1_555
Na5 O7 2.369968 1_555
Na5 O6 2.373607 1_555
Na5 O33 2.654870 1_555
Na5 O32 2.688749 1_554
Na5 O47 2.739917 1_555
Na5 O26 2.792974 1_565
Na5 O46 2.821014 1_555
Na5 O27 2.856812 1_565
Na6 O0 2.378468 1_555
Na6 O1 2.407518 1_455
Na6 O39 2.663868 1_455
Na6 O38 2.744325 1_556
Na6 O40 2.783516 1_555
Na6 O29 2.810150 1_555
Na6 O41 2.824621 1_455
Na6 O28 2.884964 1_455
Na7 O2 2.419648 1_455
Na7 O3 2.420976 1_555
Na7 O37 2.692386 1_555
Na7 O36 2.711480 1_454
Na7 O30 2.755370 1_555
Na7 O43 2.794355 1_555
Na7 O31 2.860992 1_455
Na7 O42 2.895575 1_455
Na8 O42 2.444510 1_565
Na8 O25 2.451737 1_554
Na8 O23 2.490247 1_555
Na8 O18 2.548925 1_565
Na8 O7 2.819814 1_555
Na9 O26 2.432767 1_555
Na9 O41 2.476546 1_545
Na9 O20 2.503630 1_555
Na9 O17 2.565699 1_545
Na9 O12 2.770998 1_555
Na9 O4 2.842563 1_555
Na9 O28 2.903981 1_555
Na10 O46 2.459610 1_555
Na10 O29 2.485931 1_554
Na10 O19 2.503546 1_555
Na10 O22 2.601676 1_555
Na10 O11 2.704333 1_555
Na10 O3 2.785557 1_555
Na11 O30 2.427643 1_555
Na11 O45 2.465286 1_555
Na11 O16 2.477052 1_555
Na11 O21 2.529670 1_555
Na11 O8 2.721507 1_555
Na11 O0 2.834291 1_555
O0 Si5 1.654245 1_555
O0 Sn0 2.082977 1_555
O1 Si4 1.631994 1_555
O1 Zr0 2.093410 1_555
O2 Si7 1.634580 1_555
O2 Zr1 2.089918 1_555
O3 Si6 1.654821 1_555
O3 Zr2 2.105281 1_555
O4 Si1 1.661253 1_545
O4 Sn1 2.087211 1_555
O5 Si0 1.640786 1_545
O5 Zr3 2.079526 1_555
O6 Si3 1.637961 1_565
O6 Sn2 2.071051 1_555
O7 Si2 1.658284 1_565
O7 Sn3 2.084683 1_555
O8 P2 1.551005 1_555
O8 Sn2 2.113344 1_555
O9 P2 1.539482 1_555
O9 Sn3 2.070891 1_556
O10 P3 1.539265 1_555
O10 Sn1 2.083233 1_555
O11 P3 1.541751 1_555
O11 Zr3 2.171163 1_554
O12 P0 1.538584 1_645
O12 Zr1 2.157484 1_555
O13 P0 1.538351 1_545
O13 Zr2 2.102554 1_556
O14 P1 1.539832 1_565
O14 Sn0 2.062137 1_555
O15 P1 1.540978 1_665
O15 Zr0 2.145055 1_554
O16 Si0 1.634746 1_555
O16 Sn0 2.069832 1_555
O17 Si1 1.633710 1_555
O17 Zr0 2.113142 1_555
O18 Si2 1.629507 1_555
O18 Zr1 2.107593 1_555
O19 Si3 1.624458 1_555
O19 Zr2 2.106633 1_555
O20 Si4 1.630180 1_555
O20 Sn1 2.059047 1_555
O21 Si5 1.629224 1_555
O21 Zr3 2.117395 1_555
O22 Si6 1.640529 1_555
O22 Sn2 2.064523 1_555
O23 Si7 1.632686 1_555
O23 Sn3 2.072666 1_555
O24 Si0 1.626287 1_555
O24 Sn2 1.999056 1_555
O25 Si1 1.651623 1_555
O25 Sn3 2.049009 1_556
O26 Si2 1.652759 1_555
O26 Sn1 2.055065 1_555
O27 Si3 1.643949 1_555
O27 Zr3 1.998253 1_554
O28 Si4 1.640131 1_555
O28 Zr1 1.997629 1_555
O29 Si5 1.653169 1_555
O29 Zr2 2.055778 1_556
O30 Si6 1.649210 1_555
O30 Sn0 2.050668 1_555
O31 Si7 1.636955 1_555
O31 Zr0 1.994182 1_554
O32 Si0 1.652312 1_555
O32 Sn3 2.043755 1_556
O33 Si1 1.632332 1_555
O33 Sn2 2.029848 1_555
O34 Si2 1.628167 1_555
O34 Zr3 2.050073 1_554
O35 Si3 1.644759 1_555
O35 Sn1 2.034637 1_555
O36 Si4 1.642353 1_555
O36 Zr2 2.082780 1_656
O37 Si5 1.630303 1_555
O37 Zr1 2.063075 1_455
O38 Si6 1.633911 1_555
O38 Zr0 2.070230 1_454
O39 Si7 1.648930 1_555
O39 Sn0 2.061464 1_655
O40 P0 1.545421 1_555
O40 Sn0 2.141213 1_555
O41 P0 1.552945 1_655
O41 Zr0 2.213338 1_555
O42 P1 1.552426 1_655
O42 Zr1 2.207290 1_555
O43 P1 1.538773 1_555
O43 Zr2 2.193883 1_555
O44 P2 1.542989 1_555
O44 Sn1 2.159416 1_555
O45 P2 1.554199 1_555
O45 Zr3 2.230471 1_555
O46 P3 1.565492 1_555
O46 Sn2 2.164398 1_555
O47 P3 1.544594 1_555
O47 Sn3 2.166267 1_555
