# generated using pymatgen
data_MgV4FeNiO12
_symmetry_space_group_name_H-M   'P 1'
_cell_length_a   6.94758486
_cell_length_b   6.89025096
_cell_length_c   5.75984027
_cell_angle_alpha   71.65772529
_cell_angle_beta   105.84172314
_cell_angle_gamma   100.97794891
_symmetry_Int_Tables_number   1
_chemical_formula_structural   MgV4FeNiO12
_chemical_formula_sum   'Mg1 V4 Fe1 Ni1 O12'
_cell_volume   250.12314553
_cell_formula_units_Z   1
loop_
 _symmetry_equiv_pos_site_id
 _symmetry_equiv_pos_as_xyz
  1  'x, y, z'
loop_
 _atom_site_type_symbol
 _atom_site_label
 _atom_site_symmetry_multiplicity
 _atom_site_fract_x
 _atom_site_fract_y
 _atom_site_fract_z
 _atom_site_occupancy
  Mg  Mg0  1  0.26091400  0.29353800  0.20000200  1
  V  V0  1  0.21520500  0.63312200  0.74532200  1
  V  V1  1  0.40665100  0.84778900  0.20506000  1
  V  V2  1  0.60822500  0.17833900  0.75174700  1
  V  V3  1  0.79767000  0.37668700  0.24596300  1
  Fe  Fe0  1  0.08004600  0.07556200  0.75105100  1
  Ni  Ni0  1  0.92486000  0.91952300  0.25790900  1
  O  O0  1  0.03238100  0.80202900  0.63956300  1
  O  O1  1  0.12132100  0.37422900  0.80183700  1
  O  O2  1  0.19842100  0.00308700  0.15648700  1
  O  O3  1  0.36512400  0.68293600  0.53687200  1
  O  O4  1  0.39080300  0.01751500  0.81601200  1
  O  O5  1  0.33433400  0.61092200  0.07519900  1
  O  O6  1  0.65248000  0.36104500  0.91800200  1
  O  O7  1  0.65052500  0.94005200  0.29380000  1
  O  O8  1  0.56498900  0.28962900  0.41626400  1
  O  O9  1  0.80718200  0.03586100  0.86034700  1
  O  O10  1  0.86786800  0.62535100  0.23422100  1
  O  O11  1  0.00804100  0.21982200  0.34434400  1
loop_
_geom_bond_atom_site_label_1
_geom_bond_atom_site_label_2
_geom_bond_distance
_geom_bond_site_symmetry_2
Mg0 O2 2.044946 1_555
Mg0 O11 2.056099 1_555
Mg0 O5 2.084516 1_555
Mg0 O8 2.139908 1_555
Mg0 O1 2.167431 1_554
Fe0 O9 2.100157 1_455
Fe0 O0 2.117092 1_545
Fe0 O1 2.123919 1_555
Fe0 O2 2.180145 1_556
Fe0 O4 2.180583 1_555
Fe0 O11 2.193161 1_555
Ni0 O7 2.007897 1_555
Ni0 O10 2.030441 1_555
Ni0 O0 2.063856 1_655
Ni0 O2 2.064631 1_665
Ni0 O9 2.150999 1_564
Ni0 O11 2.213368 1_665
O0 V0 1.741631 1_555
O1 V0 1.738044 1_555
O2 V1 1.869861 1_545
O3 V0 1.712147 1_555
O3 V1 1.958570 1_555
O4 V2 1.748233 1_555
O4 V1 2.160129 1_546
O5 V0 1.823538 1_554
O5 V1 1.930392 1_555
O6 V2 1.745540 1_555
O6 V3 1.908895 1_556
O7 V1 1.690449 1_555
O8 V2 1.802879 1_555
O8 V3 2.015287 1_555
O9 V2 1.709963 1_555
O10 V3 1.674768 1_555
O11 V3 1.841062 1_455
