# generated using pymatgen
data_Na2HfSi2SnSO12
_symmetry_space_group_name_H-M   'P 1'
_cell_length_a   9.00306265
_cell_length_b   8.99804223
_cell_length_c   23.01771688
_cell_angle_alpha   90.18300114
_cell_angle_beta   89.72489038
_cell_angle_gamma   119.97143403
_symmetry_Int_Tables_number   1
_chemical_formula_structural   Na2HfSi2SnSO12
_chemical_formula_sum   'Na12 Hf6 Si12 Sn6 S6 O72'
_cell_volume   1615.29156411
_cell_formula_units_Z   6
loop_
 _symmetry_equiv_pos_site_id
 _symmetry_equiv_pos_as_xyz
  1  'x, y, z'
loop_
 _atom_site_type_symbol
 _atom_site_label
 _atom_site_symmetry_multiplicity
 _atom_site_fract_x
 _atom_site_fract_y
 _atom_site_fract_z
 _atom_site_occupancy
  Na  Na0  1  0.99514376  0.62715698  0.25302630  1
  Na  Na1  1  0.37351706  0.00579341  0.75211119  1
  Na  Na2  1  0.66200883  0.96058098  0.58626593  1
  Na  Na3  1  0.03905200  0.33813168  0.08609073  1
  Na  Na4  1  0.32771507  0.29351470  0.91914587  1
  Na  Na5  1  0.70582247  0.67167984  0.41894297  1
  Na  Na6  1  0.00901997  0.99267298  0.50038753  1
  Na  Na7  1  0.00834153  0.99054026  0.00096922  1
  Na  Na8  1  0.67501667  0.32478733  0.83346620  1
  Na  Na9  1  0.67480519  0.32367924  0.33437063  1
  Na  Na10  1  0.34341095  0.65848149  0.16764042  1
  Na  Na11  1  0.34247091  0.65690699  0.66724337  1
  Hf  Hf0  1  0.00461033  0.01550513  0.85281667  1
  Hf  Hf1  1  0.67174239  0.34822395  0.18712144  1
  Hf  Hf2  1  0.66624596  0.33277197  0.98131462  1
  Hf  Hf3  1  0.31750526  0.66185917  0.02002996  1
  Hf  Hf4  1  0.33822817  0.68162011  0.51997488  1
  Hf  Hf5  1  0.33545915  0.66659408  0.81365513  1
  Si  Si0  1  0.70440645  0.71305127  0.25017921  1
  Si  Si1  1  0.00164960  0.29039789  0.25016359  1
  Si  Si2  1  0.28965097  0.29423668  0.74856390  1
  Si  Si3  1  0.71120562  0.00391418  0.74762012  1
  Si  Si4  1  0.37142820  0.04625155  0.58326238  1
  Si  Si5  1  0.66791946  0.62305628  0.58316590  1
  Si  Si6  1  0.95565838  0.63160610  0.08394729  1
  Si  Si7  1  0.37323111  0.33236534  0.08354347  1
  Si  Si8  1  0.03750618  0.37778611  0.91639340  1
  Si  Si9  1  0.33211954  0.95856251  0.91567969  1
  Si  Si10  1  0.62304333  0.96350643  0.41625827  1
  Si  Si11  1  0.04256155  0.66809008  0.41528113  1
  Sn  Sn0  1  0.98400589  0.99302338  0.35276098  1
  Sn  Sn1  1  0.00071606  0.99674143  0.64778052  1
  Sn  Sn2  1  0.00175327  0.00053268  0.14842718  1
  Sn  Sn3  1  0.65091502  0.32637169  0.68576292  1
  Sn  Sn4  1  0.66903078  0.33348759  0.48131509  1
  Sn  Sn5  1  0.33393654  0.66465784  0.31505305  1
  S  S0  1  0.29290989  0.00241142  0.25086059  1
  S  S1  1  0.99675565  0.70561165  0.75064536  1
  S  S2  1  0.95967130  0.33596043  0.58407394  1
  S  S3  1  0.66414999  0.04138512  0.08377434  1
  S  S4  1  0.62516557  0.66921658  0.91721426  1
  S  S5  1  0.33000149  0.37239097  0.41711367  1
  O  O0  1  0.21647164  0.03226108  0.30359053  1
  O  O1  1  0.82782231  0.78024671  0.30820488  1
  O  O2  1  0.97591435  0.17482965  0.30777421  1
  O  O3  1  0.20774957  0.17074074  0.80627340  1
  O  O4  1  0.97048935  0.78590766  0.80213702  1
  O  O5  1  0.82779224  0.02438976  0.80411256  1
  O  O6  1  0.78865219  0.96762398  0.68793945  1
  O  O7  1  0.17186511  0.20222158  0.69188551  1
  O  O8  1  0.03370588  0.81319055  0.69758529  1
  O  O9  1  0.79591510  0.82976978  0.19311240  1
  O  O10  1  0.03579604  0.21304896  0.18993659  1
  O  O11  1  0.18377120  0.96716757  0.19855807  1
  O  O12  1  0.88351638  0.36580521  0.63674230  1
  O  O13  1  0.49417697  0.11303639  0.64142315  1
  O  O14  1  0.64259469  0.50841683  0.64097468  1
  O  O15  1  0.87621025  0.50703996  0.14130843  1
  O  O16  1  0.63851328  0.11999144  0.13620662  1
  O  O17  1  0.49183877  0.35181554  0.13937249  1
  O  O18  1  0.45747644  0.30304721  0.02449788  1
  O  O19  1  0.83777821  0.53227358  0.02801070  1
  O  O20  1  0.69370250  0.15097549  0.03180592  1
  O  O21  1  0.46336700  0.16342620  0.52635168  1
  O  O22  1  0.70228857  0.54535271  0.52304075  1
  O  O23  1  0.85032477  0.30078477  0.53173440  1
  O  O24  1  0.54637729  0.69536781  0.96939223  1
  O  O25  1  0.16109509  0.45731361  0.97406452  1
  O  O26  1  0.31284892  0.84044767  0.97198425  1
  O  O27  1  0.54110918  0.83917684  0.47359764  1
  O  O28  1  0.30436370  0.45275151  0.46891902  1
  O  O29  1  0.16006692  0.68898736  0.47140077  1
  O  O30  1  0.12010400  0.63353697  0.35526859  1
  O  O31  1  0.50616754  0.87141611  0.35927769  1
  O  O32  1  0.36469363  0.47980023  0.36417759  1
  O  O33  1  0.13842746  0.49624518  0.86069738  1
  O  O34  1  0.36184003  0.87312781  0.85699815  1
  O  O35  1  0.51602312  0.63765665  0.86507585  1
  O  O36  1  0.02435777  0.84284058  0.41026970  1
  O  O37  1  0.81132188  0.97223177  0.41367879  1
  O  O38  1  0.17818445  0.19963514  0.41063329  1
  O  O39  1  0.02641173  0.18922441  0.91111171  1
  O  O40  1  0.15996906  0.97714601  0.90997607  1
  O  O41  1  0.79704528  0.81785421  0.90933593  1
  O  O42  1  0.97023254  0.17572141  0.58857120  1
  O  O43  1  0.18081070  0.02341138  0.58941435  1
  O  O44  1  0.83283916  0.82201314  0.58836106  1
  O  O45  1  0.97647022  0.82114886  0.08996649  1
  O  O46  1  0.82482006  0.03179788  0.08745952  1
  O  O47  1  0.17490849  0.16649037  0.08856024  1
  O  O48  1  0.69346414  0.17891924  0.74326855  1
  O  O49  1  0.47848922  0.30405735  0.74676399  1
  O  O50  1  0.84575635  0.53292555  0.74383304  1
  O  O51  1  0.69140722  0.52365862  0.24391561  1
  O  O52  1  0.83051815  0.31067709  0.24374428  1
  O  O53  1  0.46450221  0.15167286  0.24340374  1
  O  O54  1  0.63598006  0.50925044  0.92236350  1
  O  O55  1  0.84875698  0.35520573  0.92352238  1
  O  O56  1  0.49622036  0.15489825  0.92227517  1
  O  O57  1  0.64406482  0.15366226  0.42299762  1
  O  O58  1  0.48984323  0.36106232  0.42165520  1
  O  O59  1  0.84377108  0.50359073  0.42151992  1
  O  O60  1  0.35391671  0.50401726  0.07735373  1
  O  O61  1  0.14359053  0.64194385  0.07812258  1
  O  O62  1  0.51495731  0.86922564  0.07637600  1
  O  O63  1  0.35803930  0.85655393  0.57698530  1
  O  O64  1  0.49703099  0.64395015  0.57663080  1
  O  O65  1  0.13113277  0.48546089  0.57643196  1
  O  O66  1  0.30340229  0.84208708  0.25549111  1
  O  O67  1  0.51398092  0.69071307  0.25656770  1
  O  O68  1  0.16650758  0.48945073  0.25539545  1
  O  O69  1  0.31207643  0.48347154  0.75601791  1
  O  O70  1  0.15595101  0.69320675  0.75635666  1
  O  O71  1  0.51481182  0.84061688  0.75482357  1
loop_
_geom_bond_atom_site_label_1
_geom_bond_atom_site_label_2
_geom_bond_distance
_geom_bond_site_symmetry_2
Na0 O68 2.414496 1_655
Na0 O51 2.418448 1_555
Na0 O66 2.466520 1_655
Na0 O52 2.476669 1_555
Na0 O30 2.601428 1_655
Na0 O15 2.789203 1_555
Na0 O1 2.797078 1_555
Na0 O11 2.937494 1_655
Na1 O49 2.361748 1_555
Na1 O71 2.391958 1_545
Na1 O70 2.500545 1_545
Na1 O48 2.505692 1_555
Na1 O34 2.674934 1_545
Na1 O13 2.746676 1_555
Na1 O3 2.857944 1_555
Na1 O8 2.943429 1_545
Na2 O44 2.416493 1_555
Na2 O63 2.419922 1_555
Na2 O42 2.466619 1_565
Na2 O64 2.478610 1_555
Na2 O6 2.594894 1_555
Na2 O13 2.796119 1_565
Na2 O27 2.815075 1_555
Na2 O23 2.939274 1_565
Na3 O47 2.402744 1_555
Na3 O61 2.413196 1_555
Na3 O46 2.450913 1_455
Na3 O60 2.464356 1_555
Na3 O10 2.639065 1_555
Na3 O25 2.796355 1_554
Na3 O15 2.875891 1_455
Na3 O20 2.976035 1_455
Na4 O39 2.394499 1_555
Na4 O56 2.398866 1_555
Na4 O54 2.468691 1_555
Na4 O40 2.476450 1_545
Na4 O18 2.679247 1_556
Na4 O3 2.820172 1_555
Na4 O25 2.863465 1_555
Na4 O35 2.961618 1_555
Na5 O37 2.380135 1_555
Na5 O59 2.389905 1_555
Na5 O58 2.483255 1_555
Na5 O36 2.493912 1_655
Na5 O22 2.648563 1_555
Na5 O1 2.752232 1_555
Na5 O27 2.873361 1_555
Na5 O32 2.954248 1_555
Na6 O43 2.503439 1_565
Na6 O36 2.510946 1_555
Na6 O44 2.555352 1_455
Na6 O37 2.624857 1_455
Na6 O38 2.686301 1_565
Na6 O42 2.738860 1_465
Na7 O45 2.485806 1_455
Na7 O40 2.529844 1_554
Na7 O47 2.541008 1_565
Na7 O39 2.688922 1_564
Na7 O46 2.721696 1_465
Na7 O41 2.747025 1_454
Na8 O48 2.501553 1_555
Na8 O55 2.533424 1_555
Na8 O56 2.576130 1_555
Na8 O49 2.617238 1_555
Na8 O50 2.691627 1_555
Na8 O54 2.760379 1_555
Na9 O57 2.483948 1_555
Na9 O52 2.542571 1_555
Na9 O59 2.550839 1_555
Na9 O51 2.710625 1_555
Na9 O58 2.728695 1_555
Na9 O53 2.730200 1_555
Na10 O67 2.492701 1_555
Na10 O60 2.524004 1_555
Na10 O68 2.549199 1_555
Na10 O61 2.696357 1_555
Na10 O62 2.731712 1_555
Na10 O66 2.741234 1_555
Na11 O69 2.504805 1_555
Na11 O64 2.536275 1_555
Na11 O71 2.578745 1_555
Na11 O63 2.707846 1_555
Na11 O65 2.730240 1_555
Na11 O70 2.764884 1_555
Hf0 O3 1.970268 1_555
Hf0 O5 1.985493 1_455
Hf0 O39 1.991224 1_555
Hf0 O40 2.075921 1_545
Hf0 O41 2.240172 1_445
Hf0 O4 2.253258 1_445
Hf1 O17 1.975348 1_555
Hf1 O15 1.976221 1_555
Hf1 O51 1.985444 1_555
Hf1 O52 2.087921 1_555
Hf1 O53 2.231999 1_555
Hf1 O16 2.248234 1_555
Hf2 O19 1.999106 1_556
Hf2 O18 2.018359 1_556
Hf2 O55 2.039508 1_555
Hf2 O56 2.076008 1_555
Hf2 O20 2.122875 1_556
Hf2 O54 2.210597 1_555
Hf3 O26 1.971335 1_554
Hf3 O25 1.975394 1_554
Hf3 O61 1.993191 1_555
Hf3 O60 2.084925 1_555
Hf3 O62 2.239726 1_555
Hf3 O24 2.248055 1_554
Hf4 O27 1.972154 1_555
Hf4 O63 1.984950 1_555
Hf4 O29 1.987764 1_555
Hf4 O64 2.089147 1_555
Hf4 O65 2.232436 1_555
Hf4 O28 2.252927 1_555
Hf5 O33 1.985981 1_555
Hf5 O34 2.013655 1_555
Hf5 O69 2.039998 1_555
Hf5 O71 2.087900 1_555
Hf5 O35 2.134176 1_555
Hf5 O70 2.194947 1_555
O0 S0 1.481022 1_555
O0 Sn0 2.242179 1_445
O1 Si0 1.649818 1_555
O1 Sn0 2.001524 1_555
O2 Si1 1.630530 1_655
O2 Sn0 1.970872 1_545
O3 Si2 1.650565 1_555
O4 S1 1.464661 1_555
O5 Si3 1.626312 1_555
O6 Si3 1.641738 1_565
O6 Sn1 2.013219 1_655
O7 Si2 1.625171 1_555
O7 Sn1 1.994981 1_545
O8 S1 1.490377 1_455
O8 Sn1 2.153065 1_555
O9 Si0 1.625137 1_555
O9 Sn2 1.999973 1_665
O10 Si1 1.644453 1_555
O10 Sn2 2.017181 1_555
O11 S0 1.487603 1_565
O11 Sn2 2.149171 1_565
O12 S2 1.478441 1_555
O12 Sn3 2.240955 1_555
O13 Si4 1.649283 1_555
O13 Sn3 2.003153 1_555
O14 Si5 1.630176 1_555
O14 Sn3 1.971230 1_555
O15 Si6 1.646371 1_555
O16 S3 1.471418 1_555
O17 Si7 1.627047 1_555
O18 Si7 1.636987 1_555
O19 Si6 1.625101 1_555
O20 S3 1.488759 1_555
O21 Si4 1.624564 1_555
O21 Sn4 2.001354 1_555
O22 Si5 1.644920 1_555
O22 Sn4 2.016700 1_555
O23 S2 1.489413 1_555
O23 Sn4 2.144241 1_555
O24 S4 1.468930 1_555
O25 Si8 1.650712 1_555
O26 Si9 1.631465 1_555
O27 Si10 1.647170 1_555
O28 S5 1.468555 1_555
O29 Si11 1.623562 1_555
O30 Si11 1.642264 1_555
O30 Sn5 2.021729 1_555
O31 Si10 1.627631 1_555
O31 Sn5 2.005626 1_555
O32 S5 1.489480 1_555
O32 Sn5 2.144112 1_555
O33 Si8 1.623303 1_555
O34 Si9 1.637807 1_555
O35 S4 1.488886 1_555
O36 Si11 1.664772 1_555
O36 Sn0 2.053513 1_455
O37 Si10 1.658039 1_555
O37 Sn0 2.026898 1_555
O38 S5 1.477986 1_555
O38 Sn0 2.246373 1_445
O39 Si8 1.653171 1_555
O40 Si9 1.645711 1_555
O41 S4 1.465350 1_555
O42 S2 1.495552 1_555
O42 Sn1 2.232833 1_645
O43 Si4 1.628770 1_555
O43 Sn1 2.020839 1_545
O44 Si5 1.663826 1_555
O44 Sn1 2.063667 1_655
O45 Si6 1.625587 1_555
O45 Sn2 2.022335 1_665
O46 S3 1.494312 1_555
O46 Sn2 2.248932 1_655
O47 Si7 1.662994 1_555
O47 Sn2 2.055640 1_555
O48 Si3 1.663641 1_555
O48 Sn3 2.045250 1_555
O49 Si2 1.658066 1_555
O49 Sn3 2.022646 1_555
O50 S1 1.475486 1_555
O50 Sn3 2.251053 1_555
O51 Si0 1.654683 1_555
O52 Si1 1.646864 1_655
O53 S0 1.464833 1_555
O54 S4 1.495517 1_555
O55 Si8 1.615075 1_655
O56 Si9 1.649073 1_545
O57 Si10 1.631731 1_545
O57 Sn4 2.023906 1_555
O58 S5 1.496765 1_555
O58 Sn4 2.230078 1_555
O59 Si11 1.663346 1_655
O59 Sn4 2.073360 1_555
O60 Si7 1.645023 1_555
O61 Si6 1.652279 1_455
O62 S3 1.467801 1_565
O63 Si4 1.655885 1_565
O64 Si5 1.648155 1_555
O65 S2 1.465470 1_455
O66 S0 1.496205 1_565
O66 Sn5 2.227134 1_555
O67 Si0 1.629326 1_555
O67 Sn5 2.023873 1_555
O68 Si1 1.664235 1_555
O68 Sn5 2.067587 1_555
O69 Si2 1.620037 1_555
O70 S1 1.498559 1_455
O71 Si3 1.647965 1_565
