# generated using pymatgen
data_La4RuI5
_symmetry_space_group_name_H-M   'P 1'
_cell_length_a   4.44322233
_cell_length_b   9.33615630
_cell_length_c   10.13393720
_cell_angle_alpha   103.70890707
_cell_angle_beta   102.71188069
_cell_angle_gamma   88.96383713
_symmetry_Int_Tables_number   1
_chemical_formula_structural   La4RuI5
_chemical_formula_sum   'La4 Ru1 I5'
_cell_volume   398.13857740
_cell_formula_units_Z   1
loop_
 _symmetry_equiv_pos_site_id
 _symmetry_equiv_pos_as_xyz
  1  'x, y, z'
loop_
 _atom_site_type_symbol
 _atom_site_label
 _atom_site_symmetry_multiplicity
 _atom_site_fract_x
 _atom_site_fract_y
 _atom_site_fract_z
 _atom_site_occupancy
  La  La0  1  0.13856507  0.07376551  0.27696638  1
  La  La1  1  0.86100871  0.92587439  0.72253564  1
  La  La2  1  0.52428801  0.21045508  0.99962676  1
  La  La3  1  0.47570852  0.78960577  -0.00017938  1
  Ru  Ru0  1  0.00016756  0.00016321  -0.00022282  1
  I  I0  1  0.32498589  0.16813757  0.65241970  1
  I  I1  1  0.67493091  0.83175351  0.34736749  1
  I  I2  1  0.33284291  0.65563291  0.66079267  1
  I  I3  1  0.66656476  0.34362120  0.33917846  1
  I  I4  1  0.00093866  0.50099185  0.00151710  1
loop_
_geom_bond_atom_site_label_1
_geom_bond_atom_site_label_2
_geom_bond_distance
_geom_bond_site_symmetry_2
La0 Ru0 2.661033 1_555
La1 Ru0 2.661633 1_666
La2 Ru0 2.859253 1_656
La2 Ru0 3.073466 1_556
La3 Ru0 2.859830 1_565
La3 Ru0 3.075896 1_665
I0 La1 3.333938 1_545
I0 La2 3.362013 1_555
I0 La1 3.383151 1_445
I0 La0 3.604097 1_555
I1 La0 3.333885 1_565
I1 La3 3.365509 1_555
I1 La0 3.381877 1_665
I1 La1 3.601361 1_555
I2 La1 3.284818 1_455
I2 La3 3.286859 1_556
I2 La1 3.329273 1_555
I3 La0 3.283462 1_655
I3 La2 3.290770 1_554
I3 La0 3.325465 1_555
I4 La3 3.457512 1_555
I4 La2 3.465349 1_454
I4 La3 3.533265 1_455
I4 La2 3.540077 1_554
