# generated using pymatgen
data_ZrFeCl6
_symmetry_space_group_name_H-M   'P 1'
_cell_length_a   6.36425208
_cell_length_b   6.36425208
_cell_length_c   13.33921600
_cell_angle_alpha   90.00000000
_cell_angle_beta   90.00000000
_cell_angle_gamma   120.00000083
_symmetry_Int_Tables_number   1
_chemical_formula_structural   ZrFeCl6
_chemical_formula_sum   'Zr2 Fe2 Cl12'
_cell_volume   467.90283809
_cell_formula_units_Z   2
loop_
 _symmetry_equiv_pos_site_id
 _symmetry_equiv_pos_as_xyz
  1  'x, y, z'
loop_
 _atom_site_type_symbol
 _atom_site_label
 _atom_site_symmetry_multiplicity
 _atom_site_fract_x
 _atom_site_fract_y
 _atom_site_fract_z
 _atom_site_occupancy
  Zr  Zr0  1  0.33333300  0.66666700  0.25000000  1
  Zr  Zr1  1  0.66666700  0.33333300  0.75000000  1
  Fe  Fe0  1  0.00000000  0.00000000  0.25000000  1
  Fe  Fe1  1  0.00000000  0.00000000  0.75000000  1
  Cl  Cl0  1  0.66872200  0.97522800  0.14331800  1
  Cl  Cl1  1  0.02477200  0.69349400  0.14331800  1
  Cl  Cl2  1  0.30650600  0.33127800  0.14331800  1
  Cl  Cl3  1  0.02477200  0.33127800  0.35668200  1
  Cl  Cl4  1  0.33127800  0.30650600  0.64331800  1
  Cl  Cl5  1  0.69349400  0.02477200  0.64331800  1
  Cl  Cl6  1  0.97522800  0.66872200  0.64331800  1
  Cl  Cl7  1  0.69349400  0.66872200  0.85668200  1
  Cl  Cl8  1  0.97522800  0.30650600  0.85668200  1
  Cl  Cl9  1  0.33127800  0.02477200  0.85668200  1
  Cl  Cl10  1  0.66872200  0.69349400  0.35668200  1
  Cl  Cl11  1  0.30650600  0.97522800  0.35668200  1
loop_
_geom_bond_atom_site_label_1
_geom_bond_atom_site_label_2
_geom_bond_distance
_geom_bond_site_symmetry_2
Cl0 Fe0 2.482465 1_665
Cl0 Zr0 2.499176 1_555
Cl1 Fe0 2.482465 1_565
Cl1 Zr0 2.499173 1_555
Cl2 Fe0 2.482465 1_555
Cl2 Zr0 2.499178 1_555
Cl3 Fe0 2.482465 1_555
Cl3 Zr0 2.499176 1_555
Cl4 Fe1 2.482465 1_555
Cl4 Zr1 2.499178 1_555
Cl5 Fe1 2.482465 1_655
Cl5 Zr1 2.499173 1_555
Cl6 Fe1 2.482465 1_665
Cl6 Zr1 2.499176 1_555
Cl7 Fe1 2.482465 1_665
Cl7 Zr1 2.499178 1_555
Cl8 Fe1 2.482465 1_655
Cl8 Zr1 2.499173 1_555
Cl9 Fe1 2.482465 1_555
Cl9 Zr1 2.499176 1_555
Cl10 Fe0 2.482465 1_665
Cl10 Zr0 2.499178 1_555
Cl11 Fe0 2.482465 1_565
Cl11 Zr0 2.499173 1_555
