# generated using pymatgen
data_SbSeCl9
_symmetry_space_group_name_H-M   'P 1'
_cell_length_a   10.94594565
_cell_length_b   9.49248231
_cell_length_c   12.72572698
_cell_angle_alpha   76.76985154
_cell_angle_beta   90.00000000
_cell_angle_gamma   90.00000000
_symmetry_Int_Tables_number   1
_chemical_formula_structural   SbSeCl9
_chemical_formula_sum   'Sb4 Se4 Cl36'
_cell_volume   1287.16190255
_cell_formula_units_Z   4
loop_
 _symmetry_equiv_pos_site_id
 _symmetry_equiv_pos_as_xyz
  1  'x, y, z'
loop_
 _atom_site_type_symbol
 _atom_site_label
 _atom_site_symmetry_multiplicity
 _atom_site_fract_x
 _atom_site_fract_y
 _atom_site_fract_z
 _atom_site_occupancy
  Sb  Sb0  1  0.25000000  0.97719647  0.37856134  1
  Sb  Sb1  1  0.75000000  0.02280353  0.62143866  1
  Sb  Sb2  1  0.25000000  0.33276796  0.83064055  1
  Sb  Sb3  1  0.75000000  0.66723204  0.16935945  1
  Se  Se0  1  0.75000000  0.62771059  0.68016681  1
  Se  Se1  1  0.25000000  0.37228941  0.31983319  1
  Se  Se2  1  0.25000000  0.93554949  0.88218266  1
  Se  Se3  1  0.75000000  0.06445051  0.11781734  1
  Cl  Cl0  1  0.59946413  0.51817256  0.62316473  1
  Cl  Cl1  1  0.09946413  0.48182744  0.37683527  1
  Cl  Cl2  1  0.75000000  0.84029721  0.99488199  1
  Cl  Cl3  1  0.25000000  0.15970279  0.00511801  1
  Cl  Cl4  1  0.90382836  0.81879136  0.22651698  1
  Cl  Cl5  1  0.40382836  0.18120864  0.77348302  1
  Cl  Cl6  1  0.09617164  0.18120864  0.77348302  1
  Cl  Cl7  1  0.59617164  0.81879136  0.22651698  1
  Cl  Cl8  1  0.75000000  0.51111066  0.34223793  1
  Cl  Cl9  1  0.25000000  0.48888934  0.65776207  1
  Cl  Cl10  1  0.90588568  0.53550715  0.10611056  1
  Cl  Cl11  1  0.40588568  0.46449285  0.89388944  1
  Cl  Cl12  1  0.09411432  0.46449285  0.89388944  1
  Cl  Cl13  1  0.59411432  0.53550715  0.10611056  1
  Cl  Cl14  1  0.40053587  0.48182744  0.37683527  1
  Cl  Cl15  1  0.90053587  0.51817256  0.62316473  1
  Cl  Cl16  1  0.75000000  0.86595418  0.49357811  1
  Cl  Cl17  1  0.25000000  0.13404582  0.50642189  1
  Cl  Cl18  1  0.59680508  0.85779440  0.72265462  1
  Cl  Cl19  1  0.09680508  0.14220560  0.27734538  1
  Cl  Cl20  1  0.40319492  0.14220560  0.27734538  1
  Cl  Cl21  1  0.90319492  0.85779440  0.72265462  1
  Cl  Cl22  1  0.75000000  0.15247836  0.75867255  1
  Cl  Cl23  1  0.25000000  0.84752164  0.24132745  1
  Cl  Cl24  1  0.59474218  0.16468412  0.52313345  1
  Cl  Cl25  1  0.09474218  0.83531588  0.47686655  1
  Cl  Cl26  1  0.40525782  0.83531588  0.47686655  1
  Cl  Cl27  1  0.90525782  0.16468412  0.52313345  1
  Cl  Cl28  1  0.25000000  0.48843363  0.15220725  1
  Cl  Cl29  1  0.75000000  0.51156637  0.84779275  1
  Cl  Cl30  1  0.75000000  0.16921319  0.25088570  1
  Cl  Cl31  1  0.25000000  0.83078681  0.74911430  1
  Cl  Cl32  1  0.90014524  0.17868854  0.02578129  1
  Cl  Cl33  1  0.40014524  0.82131146  0.97421871  1
  Cl  Cl34  1  0.09985476  0.82131146  0.97421871  1
  Cl  Cl35  1  0.59985476  0.17868854  0.02578129  1
loop_
_geom_bond_atom_site_label_1
_geom_bond_atom_site_label_2
_geom_bond_distance
_geom_bond_site_symmetry_2
Cl0 Se0 2.160486 1_555
Cl1 Se1 2.160486 1_555
Cl2 Sb3 2.441147 1_556
Cl3 Sb2 2.441147 1_554
Cl4 Sb3 2.431668 1_555
Cl5 Sb2 2.431668 1_555
Cl6 Sb2 2.431668 1_555
Cl7 Sb3 2.431668 1_555
Cl8 Sb3 2.354555 1_555
Cl9 Sb2 2.354555 1_555
Cl10 Sb3 2.362947 1_555
Cl11 Sb2 2.362947 1_555
Cl12 Sb2 2.362947 1_555
Cl13 Sb3 2.362947 1_555
Cl14 Se1 2.160486 1_555
Cl15 Se0 2.160486 1_555
Cl16 Sb1 2.444012 1_565
Cl16 Se0 2.880046 1_555
Cl17 Sb0 2.444012 1_545
Cl17 Se1 2.880046 1_555
Cl18 Sb1 2.449673 1_565
Cl19 Sb0 2.449673 1_545
Cl20 Sb0 2.449673 1_545
Cl21 Sb1 2.449673 1_565
Cl22 Sb1 2.355652 1_555
Cl23 Sb0 2.355652 1_555
Cl24 Sb1 2.344310 1_555
Cl25 Sb0 2.344310 1_555
Cl26 Sb0 2.344310 1_555
Cl27 Sb1 2.344310 1_555
Cl28 Se1 2.165501 1_555
Cl29 Se0 2.165501 1_555
Cl30 Se3 2.151124 1_555
Cl31 Se2 2.151124 1_555
Cl32 Se3 2.160412 1_555
Cl33 Se2 2.160412 1_555
Cl34 Se2 2.160412 1_555
Cl35 Se3 2.160412 1_555
