# generated using pymatgen
data_NdRh2
_symmetry_space_group_name_H-M   'P 1'
_cell_length_a   5.38073270
_cell_length_b   5.38073125
_cell_length_c   5.38073151
_cell_angle_alpha   59.99999217
_cell_angle_beta   60.00000099
_cell_angle_gamma   59.99999188
_symmetry_Int_Tables_number   1
_chemical_formula_structural   NdRh2
_chemical_formula_sum   'Nd2 Rh4'
_cell_volume   110.15621226
_cell_formula_units_Z   2
loop_
 _symmetry_equiv_pos_site_id
 _symmetry_equiv_pos_as_xyz
  1  'x, y, z'
loop_
 _atom_site_type_symbol
 _atom_site_label
 _atom_site_symmetry_multiplicity
 _atom_site_fract_x
 _atom_site_fract_y
 _atom_site_fract_z
 _atom_site_occupancy
  Nd  Nd0  1  0.12500000  0.12500000  0.12500000  1
  Nd  Nd1  1  0.87500000  0.87500000  0.87500000  1
  Rh  Rh0  1  0.50000000  -0.00000000  0.50000000  1
  Rh  Rh1  1  0.00000000  0.50000000  0.50000000  1
  Rh  Rh2  1  0.50000000  0.50000000  0.50000000  1
  Rh  Rh3  1  0.50000000  0.50000000  0.00000000  1
loop_
_geom_bond_atom_site_label_1
_geom_bond_atom_site_label_2
_geom_bond_distance
_geom_bond_site_symmetry_2
Nd0 Rh2 3.154733 1_545
Nd0 Rh3 3.154733 1_545
Nd0 Rh1 3.154733 1_554
Nd0 Rh1 3.154733 1_545
Nd0 Rh1 3.154733 1_555
Nd0 Rh0 3.154734 1_554
Nd0 Rh2 3.154734 1_554
Nd0 Rh2 3.154734 1_455
Nd0 Rh0 3.154734 1_555
Nd0 Rh3 3.154734 1_455
Nd0 Rh3 3.154734 1_555
Nd0 Rh0 3.154734 1_455
Nd1 Rh2 3.154733 1_565
Nd1 Rh3 3.154733 1_566
Nd1 Rh1 3.154733 1_656
Nd1 Rh1 3.154733 1_665
Nd1 Rh1 3.154733 1_655
Nd1 Rh0 3.154734 1_566
Nd1 Rh2 3.154734 1_556
Nd1 Rh2 3.154734 1_655
Nd1 Rh0 3.154734 1_565
Nd1 Rh3 3.154734 1_656
Nd1 Rh3 3.154734 1_556
Nd1 Rh0 3.154734 1_665
Rh0 Rh3 2.690365 1_546
Rh0 Rh3 2.690365 1_555
Rh0 Rh2 2.690366 1_555
Rh0 Rh2 2.690366 1_545
Rh0 Rh1 2.690366 1_645
Rh0 Rh1 2.690366 1_555
Rh1 Rh3 2.690366 1_555
Rh1 Rh3 2.690366 1_456
Rh1 Rh2 2.690366 1_455
Rh1 Rh2 2.690366 1_555
Rh2 Rh3 2.690366 1_555
Rh2 Rh3 2.690366 1_556
