# generated using pymatgen
data_Na6ZrZn3P4(SO12)2
_symmetry_space_group_name_H-M   'P 1'
_cell_length_a   9.07153216
_cell_length_b   9.02750465
_cell_length_c   22.30005166
_cell_angle_alpha   89.77924574
_cell_angle_beta   89.87402743
_cell_angle_gamma   120.10701298
_symmetry_Int_Tables_number   1
_chemical_formula_structural   Na6ZrZn3P4(SO12)2
_chemical_formula_sum   'Na18 Zr3 Zn9 P12 S6 O72'
_cell_volume   1579.81911809
_cell_formula_units_Z   3
loop_
 _symmetry_equiv_pos_site_id
 _symmetry_equiv_pos_as_xyz
  1  'x, y, z'
loop_
 _atom_site_type_symbol
 _atom_site_label
 _atom_site_symmetry_multiplicity
 _atom_site_fract_x
 _atom_site_fract_y
 _atom_site_fract_z
 _atom_site_occupancy
  Na  Na0  1  0.36560900  0.36763409  0.25218223  1
  Na  Na1  1  0.63894380  0.63180099  0.74454402  1
  Na  Na2  1  0.99328955  0.34977519  0.74777313  1
  Na  Na3  1  0.29603809  0.34168993  0.58458670  1
  Na  Na4  1  0.03035684  0.69513441  0.58067737  1
  Na  Na5  1  0.67211451  0.95970450  0.58213147  1
  Na  Na6  1  0.29033410  0.96072824  0.08104547  1
  Na  Na7  1  0.66284573  0.69491244  0.08286358  1
  Na  Na8  1  0.04509422  0.34267552  0.08396995  1
  Na  Na9  1  0.31963714  0.29253408  0.91168971  1
  Na  Na10  1  0.97826357  0.30099347  0.41125268  1
  Na  Na11  1  0.69936633  0.67990532  0.41171276  1
  Na  Na12  1  0.00476786  0.99973887  0.49441236  1
  Na  Na13  1  0.99405948  0.98780864  0.99202714  1
  Na  Na14  1  0.65629028  0.30948499  0.82803437  1
  Na  Na15  1  0.66607429  0.31883078  0.32604810  1
  Na  Na16  1  0.32503081  0.67076922  0.17125813  1
  Na  Na17  1  0.33836591  0.66831549  0.66259430  1
  Zr  Zr0  1  0.67100730  0.34067651  0.97955785  1
  Zr  Zr1  1  0.66739819  0.33373944  0.48015705  1
  Zr  Zr2  1  0.33705159  0.67483063  0.81774207  1
  Zn  Zn0  1  0.00863589  0.99797713  0.35078678  1
  Zn  Zn1  1  0.99536745  0.00575480  0.85078945  1
  Zn  Zn2  1  0.99131777  0.01029171  0.65626157  1
  Zn  Zn3  1  0.00794087  0.99558146  0.15532646  1
  Zn  Zn4  1  0.65720082  0.32449373  0.68273884  1
  Zn  Zn5  1  0.67448369  0.34481960  0.18085844  1
  Zn  Zn6  1  0.32671558  0.66262829  0.00893927  1
  Zn  Zn7  1  0.33144990  0.66117747  0.50513807  1
  Zn  Zn8  1  0.33267588  0.67781922  0.32453620  1
  P  P0  1  0.29852312  0.29457539  0.75047546  1
  P  P1  1  0.70565809  0.00303150  0.74879718  1
  P  P2  1  0.96558162  0.33620151  0.58598684  1
  P  P3  1  0.66776887  0.63155342  0.58624040  1
  P  P4  1  0.96472917  0.63009443  0.08616886  1
  P  P5  1  0.36893034  0.33369820  0.08634383  1
  P  P6  1  0.63453049  0.67551768  0.91919390  1
  P  P7  1  0.03636880  0.36617090  0.91796810  1
  P  P8  1  0.32800916  0.96325641  0.92094571  1
  P  P9  1  0.62982133  0.96006461  0.41702846  1
  P  P10  1  0.32998756  0.36841212  0.41498532  1
  P  P11  1  0.04245076  0.67218711  0.41792654  1
  S  S0  1  0.29937771  -0.00054039  0.24895527  1
  S  S1  1  0.70112735  0.70310749  0.24970483  1
  S  S2  1  0.99803381  0.29545385  0.24932160  1
  S  S3  1  0.00098482  0.70796715  0.74912296  1
  S  S4  1  0.36934165  0.03543739  0.58520346  1
  S  S5  1  0.66653196  0.03949441  0.08593242  1
  O  O0  1  0.21140084  0.02654942  0.30023431  1
  O  O1  1  0.80280587  0.78748881  0.30385459  1
  O  O2  1  0.97943759  0.19290922  0.30428846  1
  O  O3  1  0.21483328  0.19055116  0.80710874  1
  O  O4  1  0.98075741  0.79290426  0.80107876  1
  O  O5  1  0.82145225  0.02969950  0.80179490  1
  O  O6  1  0.76823071  0.95841393  0.69007079  1
  O  O7  1  0.19102051  0.21928174  0.69278558  1
  O  O8  1  0.02676765  0.80447885  0.69225566  1
  O  O9  1  0.78423472  0.80266315  0.19394452  1
  O  O10  1  0.02050882  0.21225633  0.19423595  1
  O  O11  1  0.20397912  0.97814598  0.19167484  1
  O  O12  1  0.88026659  0.36035424  0.64175638  1
  O  O13  1  0.47563953  0.11505906  0.63800019  1
  O  O14  1  0.63895474  0.51854265  0.64185205  1
  O  O15  1  0.88270145  0.51106378  0.13983020  1
  O  O16  1  0.63925060  0.11972936  0.13855230  1
  O  O17  1  0.47908274  0.35905282  0.14195497  1
  O  O18  1  0.45978436  0.30710900  0.03008769  1
  O  O19  1  0.84726096  0.53814319  0.03020627  1
  O  O20  1  0.69204283  0.14933552  0.03133735  1
  O  O21  1  0.45501845  0.14560573  0.53106381  1
  O  O22  1  0.68598140  0.53686678  0.52967129  1
  O  O23  1  0.84867892  0.31120451  0.53013382  1
  O  O24  1  0.55108437  0.69252985  0.97654259  1
  O  O25  1  0.14276866  0.44690708  0.97454154  1
  O  O26  1  0.31090061  0.86455004  0.97887703  1
  O  O27  1  0.55445876  0.85651732  0.47592439  1
  O  O28  1  0.29994789  0.44340003  0.47319280  1
  O  O29  1  0.13891997  0.69565939  0.47723867  1
  O  O30  1  0.11852898  0.62804993  0.36482600  1
  O  O31  1  0.51959896  0.88022380  0.36266240  1
  O  O32  1  0.36940975  0.48381857  0.35934144  1
  O  O33  1  0.12517261  0.48058847  0.86130497  1
  O  O34  1  0.35321042  0.87001971  0.86624599  1
  O  O35  1  0.51533315  0.64383225  0.86330438  1
  O  O36  1  0.00644252  0.82100227  0.41103031  1
  O  O37  1  0.81188912  0.98375582  0.41162697  1
  O  O38  1  0.16834146  0.19133833  0.40911054  1
  O  O39  1  0.02468729  0.19212971  0.91182860  1
  O  O40  1  0.17638722  0.99054151  0.91317094  1
  O  O41  1  0.81219584  0.82574464  0.91051732  1
  O  O42  1  0.98130573  0.17238148  0.58642572  1
  O  O43  1  0.19942853  0.02138327  0.58831693  1
  O  O44  1  0.83596467  0.80685062  0.58703004  1
  O  O45  1  0.97221155  0.80599825  0.08896007  1
  O  O46  1  0.82282077  0.02493152  0.08906504  1
  O  O47  1  0.18900546  0.17037696  0.08863880  1
  O  O48  1  0.69185251  0.16624802  0.74353133  1
  O  O49  1  0.48387040  0.33076095  0.74592285  1
  O  O50  1  0.84787360  0.53201660  0.74623602  1
  O  O51  1  0.68039106  0.52673439  0.24741724  1
  O  O52  1  0.84474700  0.31272022  0.24494450  1
  O  O53  1  0.46997377  0.16112139  0.24516443  1
  O  O54  1  0.63506581  0.50001780  0.92127335  1
  O  O55  1  0.85816931  0.35151452  0.92157334  1
  O  O56  1  0.49401082  0.14563383  0.92210882  1
  O  O57  1  0.65652331  0.14682259  0.42292668  1
  O  O58  1  0.49573054  0.35485915  0.42311250  1
  O  O59  1  0.85656291  0.50375393  0.42326306  1
  O  O60  1  0.35394593  0.49650652  0.07960538  1
  O  O61  1  0.14527176  0.65431628  0.07927867  1
  O  O62  1  0.51426274  0.86666425  0.07941269  1
  O  O63  1  0.35137069  0.86372603  0.57873556  1
  O  O64  1  0.50968641  0.65333116  0.58028607  1
  O  O65  1  0.14377691  0.49854038  0.57937874  1
  O  O66  1  0.31619163  0.84612972  0.25525787  1
  O  O67  1  0.52675567  0.68079939  0.25238506  1
  O  O68  1  0.15849294  0.46588612  0.25261607  1
  O  O69  1  0.31230950  0.47939264  0.75524619  1
  O  O70  1  0.15360469  0.68172805  0.75431176  1
  O  O71  1  0.52397237  0.83762594  0.75657724  1
loop_
_geom_bond_atom_site_label_1
_geom_bond_atom_site_label_2
_geom_bond_distance
_geom_bond_site_symmetry_2
Na0 O67 2.446118 1_555
Na0 O68 2.447201 1_555
Na0 O51 2.472092 1_555
Na0 O53 2.483695 1_555
Na0 O32 2.606749 1_555
Na0 O17 2.679196 1_555
Na0 O0 2.869309 1_555
Na0 O10 3.010686 1_555
Na1 O49 2.351430 1_555
Na1 O50 2.473452 1_555
Na1 O14 2.511532 1_555
Na1 O71 2.561068 1_555
Na1 O69 2.575686 1_555
Na1 O6 2.835785 1_555
Na1 O35 2.897302 1_555
Na1 O4 2.970941 1_555
Na2 O48 2.385075 1_555
Na2 O69 2.525576 1_655
Na2 O50 2.573902 1_555
Na2 O70 2.597806 1_655
Na2 O12 2.599392 1_555
Na2 O5 2.770647 1_555
Na2 O33 2.802623 1_655
Na2 O7 2.868828 1_655
Na3 O65 2.426487 1_555
Na3 O42 2.471936 1_455
Na3 O64 2.491441 1_555
Na3 O43 2.567418 1_555
Na3 O7 2.619866 1_555
Na3 O28 2.639014 1_555
Na4 O44 2.435383 1_455
Na4 O65 2.457929 1_555
Na4 O29 2.505190 1_555
Na4 O63 2.520123 1_555
Na4 O43 2.555167 1_565
Na4 O8 2.686522 1_555
Na4 O22 2.940209 1_455
Na4 O12 2.945304 1_455
Na5 O64 2.394796 1_555
Na5 O42 2.482443 1_565
Na5 O44 2.486472 1_555
Na5 O6 2.563881 1_555
Na5 O27 2.578178 1_555
Na5 O63 2.587419 1_555
Na6 O61 2.394574 1_555
Na6 O26 2.481025 1_554
Na6 O47 2.490516 1_565
Na6 O45 2.502447 1_455
Na6 O62 2.565025 1_555
Na6 O11 2.615865 1_555
Na7 O60 2.456070 1_555
Na7 O45 2.465648 1_555
Na7 O62 2.514532 1_555
Na7 O24 2.576607 1_554
Na7 O46 2.582174 1_565
Na7 O9 2.692735 1_555
Na7 O19 2.925727 1_555
Na7 O17 2.932083 1_555
Na8 O60 2.425322 1_555
Na8 O47 2.484155 1_555
Na8 O61 2.486776 1_555
Na8 O46 2.549612 1_455
Na8 O25 2.600330 1_554
Na8 O10 2.682189 1_555
Na8 O15 2.878512 1_455
Na8 O20 3.017553 1_455
Na9 O39 2.355324 1_555
Na9 O40 2.359468 1_545
Na9 O3 2.517665 1_555
Na9 O54 2.524003 1_555
Na9 O56 2.533498 1_555
Na9 O18 2.907636 1_556
Na9 O35 2.947924 1_555
Na9 O25 2.954541 1_555
Na10 O38 2.380722 1_655
Na10 O37 2.478533 1_545
Na10 O57 2.538125 1_555
Na10 O2 2.582655 1_555
Na10 O59 2.582796 1_555
Na10 O30 2.758603 1_655
Na10 O28 2.888610 1_655
Na10 O23 2.918108 1_555
Na11 O37 2.399378 1_555
Na11 O36 2.412984 1_655
Na11 O58 2.577131 1_555
Na11 O1 2.582003 1_555
Na11 O59 2.627179 1_555
Na11 O32 2.858749 1_555
Na11 O22 2.901156 1_555
Na11 O27 2.903850 1_555
Na12 O36 2.471600 1_555
Na12 O38 2.489867 1_565
Na12 O37 2.500684 1_455
Na12 O44 2.631749 1_455
Na12 O42 2.653325 1_465
Na12 O43 2.686055 1_565
Na13 O40 2.403029 1_655
Na13 O41 2.403824 1_555
Na13 O39 2.477127 1_665
Na13 O45 2.655205 1_556
Na13 O47 2.757801 1_666
Na13 O46 2.778688 1_566
Na14 O48 2.400366 1_555
Na14 O49 2.479416 1_555
Na14 O56 2.556183 1_555
Na14 O50 2.615091 1_555
Na14 O55 2.678560 1_555
Na14 O54 2.770713 1_555
Na15 O53 2.436793 1_555
Na15 O52 2.445161 1_555
Na15 O51 2.518570 1_555
Na15 O57 2.631422 1_555
Na15 O59 2.760980 1_555
Na15 O58 2.770171 1_555
Na16 O68 2.480677 1_555
Na16 O66 2.484139 1_555
Na16 O67 2.545483 1_555
Na16 O61 2.581178 1_555
Na16 O60 2.675331 1_555
Na16 O62 2.679590 1_555
Na17 O64 2.450083 1_555
Na17 O65 2.496154 1_555
Na17 O63 2.527407 1_555
Na17 O69 2.607645 1_555
Na17 O71 2.649902 1_555
Na17 O70 2.682827 1_555
O0 S0 1.482681 1_555
O0 Zn0 2.057523 1_545
O1 S1 1.481992 1_555
O1 Zn0 2.157985 1_655
O2 S2 1.490501 1_555
O2 Zn0 2.167219 1_645
O3 P0 1.524671 1_555
O3 Zn1 2.083855 1_455
O4 S3 1.452950 1_655
O4 Zn1 2.167998 1_565
O5 P1 1.520554 1_555
O5 Zn1 2.019262 1_555
O6 P1 1.558738 1_565
O6 Zn2 1.980664 1_565
O7 P0 1.554139 1_555
O7 Zn2 2.023410 1_455
O8 S3 1.485843 1_555
O8 Zn2 2.188343 1_465
O9 S1 1.493254 1_555
O9 Zn3 2.080399 1_655
O10 S2 1.508078 1_455
O10 Zn3 2.093257 1_545
O11 S0 1.502432 1_565
O11 Zn3 2.032379 1_555
O12 P2 1.536350 1_555
O12 Zn4 2.089777 1_555
O13 S4 1.465898 1_555
O13 Zn4 2.044606 1_555
O14 P3 1.538957 1_555
O14 Zn4 2.051026 1_555
O15 P4 1.524579 1_555
O15 Zn5 1.948102 1_555
O16 S5 1.465581 1_555
O16 Zn5 2.117967 1_555
O17 P5 1.538505 1_555
O17 Zn5 2.036078 1_555
O18 P5 1.583335 1_555
O18 Zr0 2.106751 1_554
O19 P4 1.583801 1_555
O19 Zr0 2.043017 1_554
O20 S5 1.509400 1_555
O20 Zr0 2.160942 1_554
O21 S4 1.503977 1_555
O21 Zr1 2.139598 1_555
O22 P3 1.580630 1_555
O22 Zr1 2.077614 1_555
O23 P2 1.579487 1_555
O23 Zr1 2.080808 1_555
O24 P6 1.531676 1_555
O24 Zn6 2.044103 1_556
O25 P7 1.536598 1_555
O25 Zn6 1.980494 1_556
O26 P8 1.529227 1_555
O26 Zn6 2.011505 1_556
O27 P9 1.552939 1_555
O27 Zn7 2.008257 1_555
O28 P10 1.551674 1_555
O28 Zn7 1.975425 1_555
O29 P11 1.543177 1_555
O29 Zn7 2.020669 1_555
O30 P11 1.520914 1_555
O30 Zn8 1.973964 1_555
O31 P9 1.509356 1_555
O31 Zn8 1.961331 1_555
O32 P10 1.538618 1_555
O32 Zn8 2.087299 1_555
O33 P7 1.569460 1_555
O33 Zr2 2.076122 1_555
O34 P8 1.564728 1_555
O34 Zr2 2.013102 1_555
O35 P6 1.582015 1_555
O35 Zr2 2.045811 1_555
O36 P11 1.540789 1_555
O36 Zn0 2.075842 1_555
O37 P9 1.559708 1_555
O37 Zn0 2.191084 1_655
O38 P10 1.540637 1_555
O38 Zn0 2.079963 1_545
O39 P7 1.527481 1_555
O39 Zn1 2.079577 1_455
O40 P8 1.524200 1_555
O40 Zn1 2.210307 1_465
O41 P6 1.509308 1_555
O41 Zn1 2.107248 1_565
O42 P2 1.555337 1_555
O42 Zn2 2.165896 1_555
O43 S4 1.483245 1_555
O43 Zn2 2.380436 1_455
O44 P3 1.552615 1_555
O44 Zn2 2.275388 1_565
O45 P4 1.556529 1_555
O45 Zn3 2.165548 1_655
O46 S5 1.489838 1_555
O46 Zn3 2.351172 1_645
O47 P5 1.557329 1_555
O47 Zn3 2.184126 1_545
O48 P1 1.544134 1_555
O48 Zn4 2.101173 1_555
O49 P0 1.546621 1_555
O49 Zn4 2.130957 1_555
O50 S3 1.498057 1_655
O50 Zn4 2.299315 1_555
O51 S1 1.507749 1_555
O51 Zn5 2.198567 1_555
O52 S2 1.478300 1_555
O52 Zn5 2.228796 1_555
O53 S0 1.504864 1_555
O53 Zn5 2.265348 1_555
O54 P6 1.587267 1_555
O54 Zr0 2.079128 1_555
O55 P7 1.556261 1_655
O55 Zr0 2.094509 1_555
O56 P8 1.578677 1_545
O56 Zr0 2.123609 1_555
O57 P9 1.584479 1_545
O57 Zr1 2.082297 1_555
O58 P10 1.579252 1_555
O58 Zr1 2.093905 1_555
O59 P11 1.610939 1_655
O59 Zr1 2.059900 1_555
O60 P5 1.549210 1_555
O60 Zn6 2.269028 1_555
O61 P4 1.546983 1_455
O61 Zn6 2.244796 1_555
O62 S5 1.484578 1_565
O62 Zn6 2.376397 1_555
O63 S4 1.482757 1_565
O63 Zn7 2.400553 1_555
O64 P3 1.547986 1_555
O64 Zn7 2.356593 1_555
O65 P2 1.550211 1_455
O65 Zn7 2.292638 1_555
O66 S0 1.472887 1_565
O66 Zn8 2.220052 1_555
O67 S1 1.492040 1_555
O67 Zn8 2.372536 1_555
O68 S2 1.498650 1_455
O68 Zn8 2.394020 1_555
O69 P0 1.613300 1_555
O69 Zr2 2.174518 1_555
O70 S3 1.521786 1_555
O70 Zr2 2.210812 1_555
O71 P1 1.582387 1_565
O71 Zr2 2.090418 1_555
