# generated using pymatgen
data_Na2CaH10C2O11
_symmetry_space_group_name_H-M   'P 1'
_cell_length_a   8.25928848
_cell_length_b   8.25928848
_cell_length_c   11.28662229
_cell_angle_alpha   57.41871539
_cell_angle_beta   57.41871539
_cell_angle_gamma   55.65909483
_symmetry_Int_Tables_number   1
_chemical_formula_structural   Na2CaH10C2O11
_chemical_formula_sum   'Na4 Ca2 H20 C4 O22'
_cell_volume   504.27553377
_cell_formula_units_Z   2
loop_
 _symmetry_equiv_pos_site_id
 _symmetry_equiv_pos_as_xyz
  1  'x, y, z'
loop_
 _atom_site_type_symbol
 _atom_site_label
 _atom_site_symmetry_multiplicity
 _atom_site_fract_x
 _atom_site_fract_y
 _atom_site_fract_z
 _atom_site_occupancy
  Na  Na0  1  0.10251900  0.72144900  0.48631400  1
  Na  Na1  1  0.27855100  0.89748100  0.01368600  1
  Na  Na2  1  0.89748100  0.27855100  0.51368600  1
  Na  Na3  1  0.72144900  0.10251900  0.98631400  1
  Ca  Ca0  1  0.19312200  0.80687800  0.75000000  1
  Ca  Ca1  1  0.80687800  0.19312200  0.25000000  1
  H  H0  1  0.23911900  0.40770200  0.75071200  1
  H  H1  1  0.59229800  0.76088100  0.74928800  1
  H  H2  1  0.76088100  0.59229800  0.24928800  1
  H  H3  1  0.40770200  0.23911900  0.25071200  1
  H  H4  1  0.21992600  0.34909300  0.91810600  1
  H  H5  1  0.65090700  0.78007400  0.58189400  1
  H  H6  1  0.27449400  0.49324800  0.04735800  1
  H  H7  1  0.50675200  0.72550600  0.45264200  1
  H  H8  1  0.72550600  0.50675200  0.95264200  1
  H  H9  1  0.49324800  0.27449400  0.54735800  1
  H  H10  1  0.08684400  0.70586100  0.07402000  1
  H  H11  1  0.34909300  0.21992600  0.41810600  1
  H  H12  1  0.91315600  0.29413900  0.92598000  1
  H  H13  1  0.70586100  0.08684400  0.57402000  1
  H  H14  1  0.52882800  0.34975300  0.77017600  1
  H  H15  1  0.65024700  0.47117200  0.72982400  1
  H  H16  1  0.47117200  0.65024700  0.22982400  1
  H  H17  1  0.34975300  0.52882800  0.27017600  1
  H  H18  1  0.78007400  0.65090700  0.08189400  1
  H  H19  1  0.29413900  0.91315600  0.42598000  1
  C  C0  1  0.78738100  0.83505700  0.81654600  1
  C  C1  1  0.83505700  0.78738100  0.31654600  1
  C  C2  1  0.16494300  0.21261900  0.68345400  1
  C  C3  1  0.21261900  0.16494300  0.18345400  1
  O  O0  1  0.89118900  0.89766600  0.67488500  1
  O  O1  1  0.77982200  0.35258100  0.00006300  1
  O  O2  1  0.35258100  0.77982200  0.50006300  1
  O  O3  1  0.22017800  0.64741900  0.99993700  1
  O  O4  1  0.44293900  0.26271900  0.31181700  1
  O  O5  1  0.73728100  0.55706100  0.18818300  1
  O  O6  1  0.55706100  0.73728100  0.68818300  1
  O  O7  1  0.26271900  0.44293900  0.81181700  1
  O  O8  1  0.64741900  0.22017800  0.49993700  1
  O  O9  1  0.10233400  0.10881100  0.82511500  1
  O  O10  1  0.10881100  0.10233400  0.32511500  1
  O  O11  1  0.89766600  0.89118900  0.17488500  1
  O  O12  1  0.63598600  0.78175000  0.86434800  1
  O  O13  1  0.21825000  0.36401400  0.63565200  1
  O  O14  1  0.36401400  0.21825000  0.13565200  1
  O  O15  1  0.78175000  0.63598600  0.36434800  1
  O  O16  1  0.17786900  0.15815200  0.58849100  1
  O  O17  1  0.67191800  0.32808200  0.75000000  1
  O  O18  1  0.15815200  0.17786900  0.08849100  1
  O  O19  1  0.84184800  0.82213100  0.91150900  1
  O  O20  1  0.32808200  0.67191800  0.25000000  1
  O  O21  1  0.82213100  0.84184800  0.41150900  1
loop_
_geom_bond_atom_site_label_1
_geom_bond_atom_site_label_2
_geom_bond_distance
_geom_bond_site_symmetry_2
Na0 O13 2.379564 1_555
Na0 O21 2.380762 1_455
Na0 O20 2.390760 1_555
Na0 O2 2.464000 1_555
Na0 O0 2.482688 1_455
Na0 O10 2.669763 1_565
Na1 O12 2.379564 1_554
Na1 O18 2.380762 1_565
Na1 O20 2.390760 1_555
Na1 O3 2.464000 1_554
Na1 O9 2.482688 1_564
Na1 O11 2.669763 1_455
Na2 O15 2.379564 1_555
Na2 O16 2.380762 1_655
Na2 O17 2.390760 1_555
Na2 O8 2.464000 1_555
Na2 O10 2.482688 1_655
Na2 O0 2.669763 1_545
Na3 O14 2.379564 1_556
Na3 O19 2.380762 1_545
Na3 O17 2.390760 1_555
Na3 O1 2.464000 1_556
Na3 O11 2.482688 1_546
Na3 O9 2.669763 1_655
Ca0 O19 2.428016 1_455
Ca0 O16 2.428016 1_565
Ca0 O6 2.465026 1_555
Ca0 O7 2.465026 1_555
Ca0 O2 2.467345 1_555
Ca0 O3 2.467345 1_555
Ca0 O9 2.642426 1_565
Ca0 O0 2.642426 1_455
Ca1 O21 2.428016 1_545
Ca1 O18 2.428016 1_655
Ca1 O4 2.465026 1_555
Ca1 O5 2.465026 1_555
Ca1 O1 2.467345 1_555
Ca1 O8 2.467345 1_555
Ca1 O10 2.642426 1_655
Ca1 O11 2.642426 1_545
H0 O7 1.011577 1_555
H0 O13 1.631649 1_555
H1 O6 1.011577 1_555
H1 O12 1.631649 1_555
H2 O5 1.011577 1_555
H2 O15 1.631649 1_555
H3 O4 1.011577 1_555
H3 O14 1.631649 1_555
H4 O7 1.007892 1_555
H4 O18 1.669377 1_556
H5 O6 1.007892 1_555
H5 O21 1.669377 1_555
H6 O3 0.994601 1_554
H7 O2 0.994601 1_555
H8 O1 0.994601 1_556
H9 O8 0.994601 1_555
H10 O3 0.994045 1_554
H10 Na1 2.445572 1_555
H11 O4 1.007892 1_555
H11 O16 1.669377 1_555
H12 O1 0.994045 1_556
H12 Na3 2.445572 1_555
H13 O8 0.994045 1_555
H13 Na2 2.445572 1_555
H14 O17 0.997994 1_555
H15 O17 0.997994 1_555
H16 O20 0.997994 1_555
H17 O20 0.997994 1_555
H18 O5 1.007892 1_555
H18 O19 1.669377 1_554
H19 O2 0.994045 1_555
H19 Na0 2.445572 1_555
C0 O12 1.298921 1_555
C0 O0 1.300876 1_555
C0 O19 1.305533 1_555
C1 O15 1.298921 1_555
C1 O11 1.300876 1_555
C1 O21 1.305533 1_555
C2 O13 1.298921 1_555
C2 O9 1.300876 1_555
C2 O16 1.305533 1_555
C3 O14 1.298921 1_555
C3 O10 1.300876 1_555
C3 O18 1.305533 1_555
