# generated using pymatgen
data_Na6Nb3In5(PO4)12
_symmetry_space_group_name_H-M   'P 1'
_cell_length_a   17.88014253
_cell_length_b   8.94537465
_cell_length_c   22.79012867
_cell_angle_alpha   90.03344341
_cell_angle_beta   90.02266720
_cell_angle_gamma   120.01183269
_symmetry_Int_Tables_number   1
_chemical_formula_structural   Na6Nb3In5(PO4)12
_chemical_formula_sum   'Na18 Nb9 In15 P36 O144'
_cell_volume   3156.42092336
_cell_formula_units_Z   3
loop_
 _symmetry_equiv_pos_site_id
 _symmetry_equiv_pos_as_xyz
  1  'x, y, z'
loop_
 _atom_site_type_symbol
 _atom_site_label
 _atom_site_symmetry_multiplicity
 _atom_site_fract_x
 _atom_site_fract_y
 _atom_site_fract_z
 _atom_site_occupancy
  Na  Na0  1  0.68294709  0.37104876  0.24952210  1
  Na  Na1  1  0.00122402  0.63225221  0.25001553  1
  Na  Na2  1  0.00071425  0.36973940  0.74631889  1
  Na  Na3  1  0.50078205  0.36973082  0.74659587  1
  Na  Na4  1  0.18288239  0.99476775  0.74640216  1
  Na  Na5  1  0.68288235  0.99487654  0.74677134  1
  Na  Na6  1  0.00029652  0.99945817  0.50656561  1
  Na  Na7  1  0.49977251  0.99989644  0.50689860  1
  Na  Na8  1  0.99886288  0.99780620  0.00750119  1
  Na  Na9  1  0.50145822  0.00302313  0.00729455  1
  Na  Na10  1  0.33300185  0.34621504  0.83731038  1
  Na  Na11  1  0.83249787  0.34547462  0.83811791  1
  Na  Na12  1  0.33312326  0.33339655  0.34151439  1
  Na  Na13  1  0.83288150  0.31818228  0.33819120  1
  Na  Na14  1  0.17288577  0.66411592  0.17211183  1
  Na  Na15  1  0.66890473  0.68750495  0.17159761  1
  Na  Na16  1  0.17557057  0.66552093  0.66516618  1
  Na  Na17  1  0.67545182  0.66524713  0.66557883  1
  Nb  Nb0  1  0.00093648  0.00466586  0.35559230  1
  Nb  Nb1  1  0.49803569  0.99608028  0.35546677  1
  Nb  Nb2  1  0.99876719  0.99771674  0.85694416  1
  Nb  Nb3  1  0.49894520  0.99747354  0.85658902  1
  Nb  Nb4  1  0.33366690  0.33545655  0.18685003  1
  Nb  Nb5  1  0.16753718  0.66851345  0.02075498  1
  Nb  Nb6  1  0.66561645  0.66351025  0.01999791  1
  Nb  Nb7  1  0.16611882  0.66683841  0.51857891  1
  Nb  Nb8  1  0.66628061  0.66776472  0.51856364  1
  In  In0  1  0.99830348  0.99664038  0.64578919  1
  In  In1  1  0.49840102  0.99655753  0.64579511  1
  In  In2  1  0.99797391  0.00095061  0.14780521  1
  In  In3  1  0.50066274  0.99979881  0.14762421  1
  In  In4  1  0.33290847  0.34098532  0.68081574  1
  In  In5  1  0.83295050  0.34088392  0.68086106  1
  In  In6  1  0.83256316  0.32302008  0.18339997  1
  In  In7  1  0.33338533  0.33201468  0.98162474  1
  In  In8  1  0.83343161  0.33247212  0.98325945  1
  In  In9  1  0.33319721  0.33286891  0.48337531  1
  In  In10  1  0.83348098  0.33456671  0.48234889  1
  In  In11  1  0.17023840  0.66655281  0.31667756  1
  In  In12  1  0.66631332  0.67280424  0.31719540  1
  In  In13  1  0.16957449  0.66632321  0.81852537  1
  In  In14  1  0.66980587  0.66679087  0.81872206  1
  P  P0  1  0.14606708  0.00248516  0.24975234  1
  P  P1  1  0.64551548  0.99952582  0.25034062  1
  P  P2  1  0.35477506  0.70806896  0.24882057  1
  P  P3  1  0.85371755  0.70834881  0.25060294  1
  P  P4  1  0.00007442  0.29321538  0.25054036  1
  P  P5  1  0.49815247  0.28878224  0.25015684  1
  P  P6  1  0.14501039  0.28979198  0.75118108  1
  P  P7  1  0.64508793  0.29005381  0.75107167  1
  P  P8  1  0.99880384  0.70759249  0.75165284  1
  P  P9  1  0.49884168  0.70731368  0.75155271  1
  P  P10  1  0.35391073  0.99926639  0.75061253  1
  P  P11  1  0.85392696  0.99918533  0.75065375  1
  P  P12  1  0.48305155  0.33491977  0.58361463  1
  P  P13  1  0.98271723  0.33505318  0.58350377  1
  P  P14  1  0.18460929  0.03442795  0.58377595  1
  P  P15  1  0.68497911  0.03537497  0.58351388  1
  P  P16  1  0.33240803  0.63064998  0.58120759  1
  P  P17  1  0.83238743  0.63032735  0.58108889  1
  P  P18  1  0.47968380  0.62466294  0.08204348  1
  P  P19  1  0.98195047  0.63108861  0.08365758  1
  P  P20  1  0.33277685  0.04140977  0.08251806  1
  P  P21  1  0.83316877  0.03523044  0.08092850  1
  P  P22  1  0.18796583  0.33584257  0.08235869  1
  P  P23  1  0.68435294  0.33164381  0.08337695  1
  P  P24  1  0.31434207  0.66698481  0.91716205  1
  P  P25  1  0.81367713  0.66530783  0.91703138  1
  P  P26  1  0.02022172  0.37353351  0.91554459  1
  P  P27  1  0.51916291  0.37177529  0.91431038  1
  P  P28  1  0.16662232  0.96038093  0.91509139  1
  P  P29  1  0.66646749  0.96073856  0.91528916  1
  P  P30  1  0.31315447  0.96088582  0.41554377  1
  P  P31  1  0.81425557  0.96166381  0.41582700  1
  P  P32  1  0.16720432  0.37249298  0.41595980  1
  P  P33  1  0.66628449  0.37259230  0.41358306  1
  P  P34  1  0.01988463  0.66736642  0.41342970  1
  P  P35  1  0.51878103  0.66553239  0.41557568  1
  O  O0  1  0.10122438  0.02769428  0.30539171  1
  O  O1  1  0.59283350  0.01533968  0.30461422  1
  O  O2  1  0.41154663  0.79806155  0.30474931  1
  O  O3  1  0.91361166  0.81191970  0.30496033  1
  O  O4  1  0.48434395  0.16991139  0.30491919  1
  O  O5  1  0.99473836  0.18000457  0.30600994  1
  O  O6  1  0.09498319  0.17232655  0.80663486  1
  O  O7  1  0.59503929  0.17246598  0.80645510  1
  O  O8  1  0.49154499  0.80577479  0.80744359  1
  O  O9  1  0.99161468  0.80623110  0.80759339  1
  O  O10  1  0.41129891  0.01340199  0.80625153  1
  O  O11  1  0.91140967  0.01353668  0.80636683  1
  O  O12  1  0.39407075  0.97587718  0.69552111  1
  O  O13  1  0.89399917  0.97552903  0.69557888  1
  O  O14  1  0.08947204  0.20971879  0.69689503  1
  O  O15  1  0.58941856  0.20982843  0.69683939  1
  O  O16  1  0.01610966  0.81966491  0.69755935  1
  O  O17  1  0.51606607  0.81958512  0.69753063  1
  O  O18  1  0.39403755  0.81277403  0.19398884  1
  O  O19  1  0.89247662  0.80965150  0.19476873  1
  O  O20  1  0.01190921  0.21452663  0.19498564  1
  O  O21  1  0.51594749  0.21339762  0.19577539  1
  O  O22  1  0.08926632  0.96701782  0.19598823  1
  O  O23  1  0.59563910  0.97900028  0.19423128  1
  O  O24  1  0.45059215  0.37014422  0.64276317  1
  O  O25  1  0.95044162  0.36998781  0.64282485  1
  O  O26  1  0.23486798  0.09994164  0.64292544  1
  O  O27  1  0.73499707  0.10041375  0.64276821  1
  O  O28  1  0.31222750  0.52487930  0.63847678  1
  O  O29  1  0.81232463  0.52466444  0.63836677  1
  O  O30  1  0.43211317  0.50556425  0.13732494  1
  O  O31  1  0.94939806  0.52900789  0.14190470  1
  O  O32  1  0.32035667  0.13679285  0.13729402  1
  O  O33  1  0.81249711  0.10145998  0.13750878  1
  O  O34  1  0.24802802  0.36126305  0.13751337  1
  O  O35  1  0.73518103  0.36786137  0.14182130  1
  O  O36  1  0.22693071  0.30901575  0.02744114  1
  O  O37  1  0.72810278  0.30723436  0.03038877  1
  O  O38  1  0.42742972  0.54545396  0.02713251  1
  O  O39  1  0.92592986  0.54368627  0.03068805  1
  O  O40  1  0.34601747  0.14439524  0.02713621  1
  O  O41  1  0.84655476  0.14316995  0.02665433  1
  O  O42  1  0.22948718  0.14896463  0.53175174  1
  O  O43  1  0.72989570  0.14983310  0.53148017  1
  O  O44  1  0.34548244  0.54664072  0.52771618  1
  O  O45  1  0.84563512  0.54689522  0.52750866  1
  O  O46  1  0.42559311  0.31034103  0.53165325  1
  O  O47  1  0.92522413  0.31084888  0.53162504  1
  O  O48  1  0.26717875  0.69253758  0.97110437  1
  O  O49  1  0.76522153  0.68984045  0.97004597  1
  O  O50  1  0.08274176  0.47296879  0.96826495  1
  O  O51  1  0.58001440  0.47086702  0.96717240  1
  O  O52  1  0.15660355  0.83847695  0.96786122  1
  O  O53  1  0.65388359  0.83670392  0.96766196  1
  O  O54  1  0.26628407  0.84090142  0.46917036  1
  O  O55  1  0.76680266  0.84177810  0.46942257  1
  O  O56  1  0.15446128  0.46761330  0.46948768  1
  O  O57  1  0.65397829  0.47126211  0.46619369  1
  O  O58  1  0.08119594  0.69133856  0.46635727  1
  O  O59  1  0.57912458  0.69325698  0.46938886  1
  O  O60  1  0.05704213  0.64448728  0.35584051  1
  O  O61  1  0.55665949  0.63796521  0.35994288  1
  O  O62  1  0.26196668  0.88659592  0.35943332  1
  O  O63  1  0.76340307  0.88563145  0.35980999  1
  O  O64  1  0.17980891  0.47341485  0.35985487  1
  O  O65  1  0.67782386  0.46889290  0.35582209  1
  O  O66  1  0.05642155  0.46998749  0.85769212  1
  O  O67  1  0.55573913  0.46867249  0.85655486  1
  O  O68  1  0.17753033  0.88715398  0.85706650  1
  O  O69  1  0.67775627  0.88817676  0.85708856  1
  O  O70  1  0.26341381  0.63949861  0.86086632  1
  O  O71  1  0.76360110  0.63800222  0.86031357  1
  O  O72  1  0.01638048  0.84043341  0.40916083  1
  O  O73  1  0.51485290  0.83857149  0.40998237  1
  O  O74  1  0.40295202  0.96628931  0.40971588  1
  O  O75  1  0.90484358  0.97029846  0.41022681  1
  O  O76  1  0.08062321  0.19196495  0.41119652  1
  O  O77  1  0.57946517  0.19146308  0.40875197  1
  O  O78  1  0.01611114  0.19287251  0.91136139  1
  O  O79  1  0.51562338  0.19178754  0.91082534  1
  O  O80  1  0.08006268  0.96732680  0.91196831  1
  O  O81  1  0.58014944  0.96903135  0.91148220  1
  O  O82  1  0.40399601  0.84015034  0.91209686  1
  O  O83  1  0.90353200  0.83904107  0.91190067  1
  O  O84  1  0.49943144  0.18284750  0.58644419  1
  O  O85  1  0.99951743  0.18344959  0.58638557  1
  O  O86  1  0.09223597  0.00216043  0.58682268  1
  O  O87  1  0.59247558  0.00249086  0.58661858  1
  O  O88  1  0.40905034  0.81459760  0.58567588  1
  O  O89  1  0.90893411  0.81437347  0.58565098  1
  O  O90  1  0.49451144  0.80642848  0.08908845  1
  O  O91  1  0.00069179  0.81742258  0.08671451  1
  O  O92  1  0.40795383  0.00950562  0.09010900  1
  O  O93  1  0.90943046  0.00314617  0.08530625  1
  O  O94  1  0.09698114  0.18554195  0.09032522  1
  O  O95  1  0.59142782  0.18022106  0.08591310  1
  O  O96  1  0.35121177  0.17095372  0.75069507  1
  O  O97  1  0.85117496  0.17075180  0.75071780  1
  O  O98  1  0.23223985  0.29297110  0.74985836  1
  O  O99  1  0.73227255  0.29295491  0.74981670  1
  O  O100  1  0.41715079  0.52701349  0.74997446  1
  O  O101  1  0.91720973  0.52711834  0.75001523  1
  O  O102  1  0.35016166  0.52634417  0.24245664  1
  O  O103  1  0.85163067  0.53169185  0.25075334  1
  O  O104  1  0.41430216  0.30263323  0.24273551  1
  O  O105  1  0.91621163  0.30481579  0.25140205  1
  O  O106  1  0.23658243  0.17125475  0.24205288  1
  O  O107  1  0.73218112  0.17445761  0.25152198  1
  O  O108  1  0.33039480  0.51655272  0.92318096  1
  O  O109  1  0.83054589  0.51593271  0.92366159  1
  O  O110  1  0.42824264  0.34182686  0.92107257  1
  O  O111  1  0.92954794  0.34467957  0.92264087  1
  O  O112  1  0.24260738  0.14219832  0.92163351  1
  O  O113  1  0.74262842  0.14280416  0.92210657  1
  O  O114  1  0.33058194  0.14465006  0.42275591  1
  O  O115  1  0.83018850  0.14438296  0.42293795  1
  O  O116  1  0.24226128  0.33918596  0.42264193  1
  O  O117  1  0.74194723  0.34140545  0.42123455  1
  O  O118  1  0.42739392  0.51499654  0.42267747  1
  O  O119  1  0.92907752  0.51480965  0.42103643  1
  O  O120  1  0.18430914  0.50893726  0.07663230  1
  O  O121  1  0.67626326  0.49983152  0.07174118  1
  O  O122  1  0.07391023  0.64372813  0.07135409  1
  O  O123  1  0.56991048  0.63365309  0.07674042  1
  O  O124  1  0.24636516  0.86117830  0.07662039  1
  O  O125  1  0.74846595  0.85021961  0.07071249  1
  O  O126  1  0.17671775  0.85137155  0.57262793  1
  O  O127  1  0.67721260  0.85194849  0.57264943  1
  O  O128  1  0.24917043  0.64884488  0.57138393  1
  O  O129  1  0.74883229  0.64750905  0.57110648  1
  O  O130  1  0.07416625  0.50344044  0.57238210  1
  O  O131  1  0.57475137  0.50244917  0.57230455  1
  O  O132  1  0.15732520  0.84386504  0.25609053  1
  O  O133  1  0.65801066  0.84341514  0.25576148  1
  O  O134  1  0.26296630  0.67636300  0.25472701  1
  O  O135  1  0.76061512  0.67412633  0.25606570  1
  O  O136  1  0.07794534  0.47871142  0.25543252  1
  O  O137  1  0.57793936  0.46857875  0.25731979  1
  O  O138  1  0.15335901  0.46909222  0.75689948  1
  O  O139  1  0.65344964  0.46929454  0.75685360  1
  O  O140  1  0.07986434  0.68676339  0.75726923  1
  O  O141  1  0.57993603  0.68673708  0.75724637  1
  O  O142  1  0.26082919  0.84601324  0.75555407  1
  O  O143  1  0.76086067  0.84598052  0.75557795  1
loop_
_geom_bond_atom_site_label_1
_geom_bond_atom_site_label_2
_geom_bond_distance
_geom_bond_site_symmetry_2
Na0 O107 2.327735 1_555
Na0 O135 2.352462 1_555
Na0 O137 2.440629 1_555
Na0 O65 2.592549 1_555
Na0 O103 2.612805 1_555
Na0 O35 2.631747 1_555
Na0 O21 2.861440 1_555
Na1 O103 2.357304 1_455
Na1 O136 2.380830 1_555
Na1 O132 2.471194 1_555
Na1 O105 2.537143 1_455
Na1 O60 2.590981 1_555
Na1 O31 2.630906 1_455
Na1 O22 2.872608 1_555
Na2 O97 2.359443 1_455
Na2 O138 2.422776 1_555
Na2 O140 2.468094 1_555
Na2 O101 2.514156 1_455
Na2 O25 2.524186 1_455
Na2 O66 2.709357 1_555
Na2 O14 2.847522 1_555
Na3 O96 2.359223 1_555
Na3 O139 2.422074 1_555
Na3 O141 2.467281 1_555
Na3 O100 2.515168 1_555
Na3 O24 2.531138 1_555
Na3 O67 2.674754 1_555
Na3 O15 2.847951 1_555
Na4 O98 2.354893 1_565
Na4 O142 2.368940 1_555
Na4 O140 2.443302 1_555
Na4 O26 2.537710 1_565
Na4 O96 2.608925 1_565
Na4 O68 2.684674 1_555
Na4 O16 2.811993 1_555
Na5 O99 2.353437 1_565
Na5 O143 2.369833 1_555
Na5 O141 2.443068 1_555
Na5 O27 2.549894 1_565
Na5 O97 2.608013 1_565
Na5 O69 2.675033 1_555
Na5 O17 2.816241 1_555
Na6 O89 2.441001 1_455
Na6 O86 2.450770 1_565
Na6 O85 2.457173 1_465
Na6 O76 2.699058 1_565
Na6 O75 2.711544 1_455
Na6 O72 2.727671 1_555
Na7 O88 2.432718 1_555
Na7 O84 2.443635 1_565
Na7 O87 2.451111 1_565
Na7 O73 2.723929 1_555
Na7 O74 2.732808 1_555
Na7 O77 2.744891 1_565
Na8 O93 2.404587 1_565
Na8 O91 2.433095 1_655
Na8 O94 2.550961 1_665
Na8 O83 2.690940 1_554
Na8 O80 2.705601 1_654
Na8 O78 2.721625 1_664
Na9 O95 2.398799 1_555
Na9 O90 2.523586 1_545
Na9 O92 2.541647 1_555
Na9 O81 2.696252 1_544
Na9 O82 2.705549 1_544
Na9 O79 2.706652 1_554
Na10 O108 2.494281 1_555
Na10 O100 2.532398 1_555
Na10 O98 2.565661 1_555
Na10 O110 2.570983 1_555
Na10 O112 2.586857 1_555
Na10 O96 2.639707 1_555
Na11 O109 2.485325 1_555
Na11 O101 2.551501 1_555
Na11 O113 2.573898 1_555
Na11 O99 2.575985 1_555
Na11 O111 2.594517 1_555
Na11 O97 2.653470 1_555
Na12 O116 2.479310 1_555
Na12 O118 2.481212 1_555
Na12 O114 2.491551 1_555
Na12 O102 2.765396 1_555
Na12 O104 2.766192 1_555
Na12 O106 2.776685 1_555
Na13 O115 2.465434 1_555
Na13 O105 2.515306 1_555
Na13 O107 2.544564 1_555
Na13 O119 2.565940 1_555
Na13 O117 2.570690 1_555
Na13 O103 2.663755 1_555
Na14 O134 2.443772 1_555
Na14 O136 2.535336 1_555
Na14 O132 2.601949 1_555
Na14 O120 2.642729 1_555
Na14 O124 2.694366 1_555
Na14 O122 2.848057 1_555
Na15 O133 2.435390 1_555
Na15 O135 2.569652 1_555
Na15 O137 2.667935 1_555
Na15 O123 2.679788 1_555
Na15 O125 2.713614 1_555
Na15 O121 2.869050 1_555
Na16 O128 2.553501 1_555
Na16 O142 2.589515 1_555
Na16 O138 2.631112 1_555
Na16 O126 2.679936 1_555
Na16 O130 2.687855 1_555
Na16 O140 2.774543 1_555
Na17 O129 2.567553 1_555
Na17 O143 2.583934 1_555
Na17 O139 2.620968 1_555
Na17 O127 2.688353 1_555
Na17 O131 2.692911 1_555
Na17 O141 2.765653 1_555
Nb0 O5 1.981189 1_455
Nb0 O3 2.011321 1_445
Nb0 O76 2.012745 1_555
Nb0 O75 2.017585 1_445
Nb0 O72 2.032895 1_545
Nb0 O0 2.049185 1_555
Nb1 O1 1.988843 1_565
Nb1 O74 2.009666 1_555
Nb1 O73 2.011169 1_555
Nb1 O77 2.024791 1_565
Nb1 O2 2.030047 1_555
Nb1 O4 2.046377 1_565
Nb2 O9 1.998472 1_555
Nb2 O11 2.002069 1_565
Nb2 O6 2.007357 1_665
Nb2 O83 2.017149 1_555
Nb2 O78 2.034064 1_665
Nb2 O80 2.038030 1_655
Nb3 O8 1.995804 1_555
Nb3 O10 2.003596 1_565
Nb3 O7 2.005257 1_565
Nb3 O82 2.019098 1_555
Nb3 O81 2.026428 1_555
Nb3 O79 2.028990 1_565
Nb4 O30 2.002988 1_555
Nb4 O34 2.003690 1_555
Nb4 O32 2.016104 1_555
Nb4 O102 2.025374 1_555
Nb4 O106 2.051047 1_555
Nb4 O104 2.051713 1_555
Nb5 O122 1.952422 1_555
Nb5 O52 2.025390 1_554
Nb5 O48 2.029670 1_554
Nb5 O50 2.032881 1_554
Nb5 O124 2.035651 1_555
Nb5 O120 2.044340 1_555
Nb6 O125 1.959889 1_555
Nb6 O121 1.962470 1_555
Nb6 O49 2.026214 1_554
Nb6 O51 2.029599 1_554
Nb6 O53 2.047929 1_554
Nb6 O123 2.053509 1_555
Nb7 O128 1.979198 1_555
Nb7 O130 1.985646 1_555
Nb7 O126 1.990623 1_555
Nb7 O56 2.024123 1_555
Nb7 O58 2.025309 1_555
Nb7 O54 2.028285 1_555
Nb8 O129 1.977832 1_555
Nb8 O127 1.986807 1_555
Nb8 O131 1.986936 1_555
Nb8 O59 2.022590 1_555
Nb8 O55 2.027956 1_555
Nb8 O57 2.042852 1_555
In0 O13 2.109733 1_555
In0 O89 2.116497 1_555
In0 O16 2.122673 1_655
In0 O14 2.129457 1_665
In0 O86 2.132626 1_665
In0 O85 2.142935 1_565
In1 O12 2.110704 1_555
In1 O88 2.115018 1_555
In1 O17 2.120893 1_555
In1 O15 2.128718 1_565
In1 O87 2.136250 1_565
In1 O84 2.139824 1_565
In2 O20 2.095114 1_655
In2 O19 2.099216 1_545
In2 O22 2.111173 1_645
In2 O93 2.136578 1_555
In2 O94 2.157927 1_655
In2 O91 2.170997 1_645
In3 O23 2.088435 1_555
In3 O18 2.088801 1_555
In3 O21 2.098740 1_565
In3 O90 2.142599 1_555
In3 O95 2.144955 1_565
In3 O92 2.148460 1_565
In4 O28 2.093774 1_555
In4 O26 2.164111 1_555
In4 O24 2.168048 1_555
In4 O100 2.238267 1_555
In4 O98 2.264927 1_555
In4 O96 2.336052 1_555
In5 O29 2.093962 1_555
In5 O27 2.162441 1_555
In5 O25 2.164943 1_555
In5 O101 2.239036 1_555
In5 O99 2.263824 1_555
In5 O97 2.335694 1_555
In6 O33 2.106320 1_555
In6 O35 2.188250 1_555
In6 O31 2.192387 1_555
In6 O105 2.215263 1_555
In6 O107 2.239723 1_555
In6 O103 2.305737 1_555
In7 O40 2.079582 1_556
In7 O38 2.081635 1_556
In7 O36 2.089427 1_556
In7 O108 2.143071 1_555
In7 O112 2.150683 1_555
In7 O110 2.154479 1_555
In8 O41 2.073624 1_556
In8 O37 2.080379 1_556
In8 O39 2.084161 1_556
In8 O109 2.151285 1_555
In8 O111 2.165247 1_555
In8 O113 2.167208 1_555
In9 O44 2.074505 1_555
In9 O46 2.076613 1_555
In9 O42 2.076663 1_555
In9 O116 2.157061 1_555
In9 O118 2.159642 1_555
In9 O114 2.159647 1_555
In10 O45 2.073322 1_555
In10 O47 2.084224 1_555
In10 O43 2.087330 1_555
In10 O115 2.151301 1_555
In10 O117 2.172712 1_555
In10 O119 2.172872 1_555
In11 O64 2.068838 1_555
In11 O62 2.069037 1_555
In11 O60 2.129318 1_555
In11 O134 2.146258 1_555
In11 O136 2.171735 1_555
In11 O132 2.200983 1_555
In12 O63 2.066809 1_555
In12 O61 2.069035 1_555
In12 O65 2.126448 1_555
In12 O133 2.130840 1_555
In12 O135 2.183112 1_555
In12 O137 2.191803 1_555
In13 O70 2.050775 1_555
In13 O68 2.100185 1_555
In13 O66 2.103166 1_555
In13 O138 2.157410 1_555
In13 O142 2.164827 1_555
In13 O140 2.201631 1_555
In14 O71 2.051446 1_555
In14 O69 2.103071 1_555
In14 O67 2.105061 1_555
In14 O139 2.162098 1_555
In14 O143 2.164443 1_555
In14 O141 2.205029 1_555
O0 P0 1.575743 1_555
O1 P1 1.603510 1_545
O2 P2 1.575893 1_555
O3 P3 1.595291 1_555
O4 P5 1.577475 1_555
O5 P4 1.593023 1_655
O6 P6 1.601133 1_555
O7 P7 1.600369 1_555
O8 P9 1.590289 1_555
O9 P8 1.591449 1_555
O10 P10 1.595541 1_545
O11 P11 1.597434 1_545
O12 P10 1.512110 1_555
O13 P11 1.511840 1_555
O14 P6 1.521924 1_555
O15 P7 1.522103 1_555
O16 P8 1.520534 1_455
O17 P9 1.520394 1_555
O18 P2 1.508625 1_555
O19 P3 1.514743 1_555
O20 P4 1.513749 1_555
O21 P5 1.518540 1_555
O22 P0 1.519763 1_565
O23 P1 1.516315 1_555
O24 P12 1.560865 1_555
O25 P13 1.561715 1_555
O26 P14 1.561874 1_555
O27 P15 1.561906 1_555
O28 P16 1.545697 1_555
O29 P17 1.545539 1_555
O30 P18 1.594269 1_555
O31 P19 1.550841 1_555
O32 P20 1.588785 1_555
O33 P21 1.539118 1_555
O34 P22 1.593526 1_555
O35 P23 1.552096 1_555
O36 P22 1.508978 1_555
O37 P23 1.513017 1_555
O38 P18 1.508924 1_555
O39 P19 1.512088 1_555
O40 P20 1.510365 1_555
O41 P21 1.513273 1_555
O42 P14 1.509671 1_555
O43 P15 1.509685 1_555
O44 P16 1.510112 1_555
O45 P17 1.510039 1_555
O46 P12 1.509614 1_555
O47 P13 1.509173 1_555
O48 P24 1.570989 1_555
O49 P25 1.565020 1_555
O50 P26 1.577159 1_555
O51 P27 1.566476 1_555
O52 P28 1.572844 1_555
O53 P29 1.567915 1_555
O54 P30 1.565412 1_555
O55 P31 1.566536 1_555
O56 P32 1.567497 1_555
O57 P33 1.567906 1_555
O58 P34 1.570423 1_555
O59 P35 1.568642 1_555
O60 P34 1.530442 1_555
O61 P35 1.514732 1_555
O62 P30 1.517952 1_555
O63 P31 1.516097 1_555
O64 P32 1.516169 1_555
O65 P33 1.530115 1_555
O66 P26 1.531367 1_555
O67 P27 1.531824 1_555
O68 P28 1.530635 1_555
O69 P29 1.533515 1_555
O70 P24 1.520014 1_555
O71 P25 1.520563 1_555
O72 P34 1.583465 1_555
O73 P35 1.589388 1_555
O74 P30 1.587591 1_555
O75 P31 1.587700 1_555
O76 P32 1.585875 1_555
O77 P33 1.590819 1_555
O78 P26 1.583414 1_555
O79 P27 1.581301 1_555
O80 P28 1.581270 1_555
O81 P29 1.584135 1_555
O82 P24 1.580773 1_555
O83 P25 1.585168 1_555
O84 P12 1.529414 1_555
O85 P13 1.530131 1_555
O86 P14 1.529471 1_555
O87 P15 1.529896 1_555
O88 P16 1.529662 1_555
O89 P17 1.529747 1_555
O90 P18 1.519292 1_555
O91 P19 1.528579 1_455
O92 P20 1.517174 1_555
O93 P21 1.530708 1_555
O94 P22 1.516462 1_555
O95 P23 1.532161 1_555
O96 P10 1.560505 1_545
O97 P11 1.559920 1_545
O98 P6 1.545953 1_555
O99 P7 1.546333 1_555
O100 P9 1.542503 1_555
O101 P8 1.542692 1_555
O102 P2 1.592475 1_555
O103 P3 1.561939 1_555
O104 P5 1.573968 1_555
O105 P4 1.554113 1_655
O106 P0 1.576586 1_555
O107 P1 1.557196 1_545
O108 P24 1.516112 1_555
O109 P25 1.517447 1_555
O110 P27 1.517527 1_555
O111 P26 1.517532 1_655
O112 P28 1.517370 1_545
O113 P29 1.520508 1_545
O114 P30 1.521037 1_545
O115 P31 1.520800 1_545
O116 P32 1.520818 1_555
O117 P33 1.521805 1_555
O118 P35 1.519488 1_555
O119 P34 1.520715 1_655
O120 P22 1.587559 1_555
O121 P23 1.604026 1_555
O122 P19 1.615365 1_455
O123 P18 1.579266 1_555
O124 P20 1.585013 1_565
O125 P21 1.605865 1_565
O126 P14 1.591929 1_565
O127 P15 1.595130 1_565
O128 P16 1.591777 1_555
O129 P17 1.592741 1_555
O130 P13 1.594897 1_455
O131 P12 1.594791 1_555
O132 P0 1.536441 1_565
O133 P1 1.525643 1_555
O134 P2 1.525691 1_555
O135 P3 1.539741 1_555
O136 P4 1.546902 1_555
O137 P5 1.533897 1_555
O138 P6 1.540136 1_555
O139 P7 1.539631 1_555
O140 P8 1.556218 1_455
O141 P9 1.555642 1_555
O142 P10 1.542692 1_555
O143 P11 1.542338 1_555
