# generated using pymatgen
data_MgTi4O8
_symmetry_space_group_name_H-M   'P 1'
_cell_length_a   6.03083925
_cell_length_b   6.03083893
_cell_length_c   5.84053350
_cell_angle_alpha   61.03815667
_cell_angle_beta   61.03816339
_cell_angle_gamma   64.78112477
_symmetry_Int_Tables_number   1
_chemical_formula_structural   MgTi4O8
_chemical_formula_sum   'Mg1 Ti4 O8'
_cell_volume   157.44148951
_cell_formula_units_Z   1
loop_
 _symmetry_equiv_pos_site_id
 _symmetry_equiv_pos_as_xyz
  1  'x, y, z'
loop_
 _atom_site_type_symbol
 _atom_site_label
 _atom_site_symmetry_multiplicity
 _atom_site_fract_x
 _atom_site_fract_y
 _atom_site_fract_z
 _atom_site_occupancy
  Mg  Mg0  1  0.83640548  0.83640548  0.66348001  1
  Ti  Ti0  1  0.12066208  0.12066208  0.87922483  1
  Ti  Ti1  1  0.16588012  0.16588012  0.33401174  1
  Ti  Ti2  1  0.54414803  0.54414803  0.21632088  1
  Ti  Ti3  1  0.54413891  0.54413891  0.69516445  1
  O  O0  1  0.32271085  0.32271085  0.42869487  1
  O  O1  1  0.40914284  0.80381528  0.39340801  1
  O  O2  1  0.32270335  0.32270335  0.92564857  1
  O  O3  1  0.80381528  0.40914284  0.39340801  1
  O  O4  1  0.45513874  0.82488417  0.85987017  1
  O  O5  1  0.82488417  0.45513874  0.85987017  1
  O  O6  1  0.98589677  0.98589677  0.26053556  1
  O  O7  1  0.98590238  0.98590239  0.76744573  1
loop_
_geom_bond_atom_site_label_1
_geom_bond_atom_site_label_2
_geom_bond_distance
_geom_bond_site_symmetry_2
Mg0 O6 1.935765 1_555
Mg0 O7 1.935850 1_555
Mg0 O5 2.027876 1_555
Mg0 O4 2.027877 1_555
O0 Ti2 1.848443 1_555
O0 Ti1 1.967323 1_555
O0 Ti0 2.224502 1_555
O1 Ti2 1.962544 1_555
O1 Ti3 1.962551 1_555
O1 Ti1 2.017432 1_565
O2 Ti3 1.848426 1_555
O2 Ti1 1.967382 1_556
O2 Ti0 2.224408 1_555
O3 Ti2 1.962544 1_555
O3 Ti3 1.962551 1_555
O3 Ti1 2.017432 1_655
O4 Ti0 2.042521 1_565
O4 Ti3 2.093576 1_555
O4 Ti2 2.093577 1_556
O5 Ti0 2.042521 1_655
O5 Ti3 2.093576 1_555
O5 Ti2 2.093578 1_556
O6 Ti0 1.827000 1_664
O6 Ti1 2.108746 1_665
O7 Ti0 1.826953 1_665
O7 Ti1 2.108685 1_665
