# generated using pymatgen
data_SrTi11O20
_symmetry_space_group_name_H-M   'P 1'
_cell_length_a   7.14041141
_cell_length_b   7.66332046
_cell_length_c   13.14578480
_cell_angle_alpha   90.34569309
_cell_angle_beta   92.89686099
_cell_angle_gamma   103.74860169
_symmetry_Int_Tables_number   1
_chemical_formula_structural   SrTi11O20
_chemical_formula_sum   'Sr2 Ti22 O40'
_cell_volume   697.70376159
_cell_formula_units_Z   2
loop_
 _symmetry_equiv_pos_site_id
 _symmetry_equiv_pos_as_xyz
  1  'x, y, z'
loop_
 _atom_site_type_symbol
 _atom_site_label
 _atom_site_symmetry_multiplicity
 _atom_site_fract_x
 _atom_site_fract_y
 _atom_site_fract_z
 _atom_site_occupancy
  Sr  Sr0  1  0.46009660  0.81192905  0.75994695  1
  Sr  Sr1  1  0.53990340  0.18807095  0.24005305  1
  Ti  Ti0  1  0.03372747  0.42660939  0.70846111  1
  Ti  Ti1  1  0.69744794  0.79993078  0.41877520  1
  Ti  Ti2  1  0.68410703  0.92232828  0.99776339  1
  Ti  Ti3  1  0.35538238  0.63456915  0.28690139  1
  Ti  Ti4  1  0.68098700  0.06374436  0.56229806  1
  Ti  Ti5  1  0.31901300  0.93625564  0.43770194  1
  Ti  Ti6  1  0.99297233  0.70387235  0.87304026  1
  Ti  Ti7  1  0.98099490  0.79152321  0.63348615  1
  Ti  Ti8  1  0.32280491  0.57961643  0.51315915  1
  Ti  Ti9  1  0.30255206  0.20006922  0.58122480  1
  Ti  Ti10  1  0.33517842  0.43199914  0.92966370  1
  Ti  Ti11  1  0.00840725  0.92841805  0.20426266  1
  Ti  Ti12  1  0.31637948  0.71258626  0.08398637  1
  Ti  Ti13  1  0.66482158  0.56800086  0.07033630  1
  Ti  Ti14  1  0.96627253  0.57339061  0.29153889  1
  Ti  Ti15  1  0.31589297  0.07767172  0.00223661  1
  Ti  Ti16  1  0.67719509  0.42038357  0.48684085  1
  Ti  Ti17  1  0.99159275  0.07158195  0.79573734  1
  Ti  Ti18  1  0.68362052  0.28741374  0.91601363  1
  Ti  Ti19  1  0.00702767  0.29612765  0.12695974  1
  Ti  Ti20  1  0.64461762  0.36543085  0.71309861  1
  Ti  Ti21  1  0.01900510  0.20847679  0.36651385  1
  O  O0  1  0.50373909  0.31691394  0.03267545  1
  O  O1  1  0.84904756  0.59655887  0.73290944  1
  O  O2  1  0.87785511  0.11913729  0.23315632  1
  O  O3  1  0.84078619  0.26269031  0.79889624  1
  O  O4  1  0.50068717  0.82061087  0.53365035  1
  O  O5  1  0.83225655  0.81772367  0.09640460  1
  O  O6  1  0.51553061  0.04706519  0.90447035  1
  O  O7  1  0.49630785  0.59537038  0.17489889  1
  O  O8  1  0.84953608  0.76799185  0.30515061  1
  O  O9  1  0.48990677  0.45451442  0.60249658  1
  O  O10  1  0.17533791  0.67051361  0.40462819  1
  O  O11  1  0.16929898  0.82549959  0.97685327  1
  O  O12  1  0.15095244  0.40344113  0.26709056  1
  O  O13  1  0.82481753  0.53397129  0.95261985  1
  O  O14  1  0.83951352  0.05037834  0.44703433  1
  O  O15  1  0.83070102  0.17450041  0.02314673  1
  O  O16  1  0.17518247  0.46602871  0.04738015  1
  O  O17  1  0.49931283  0.17938913  0.46634965  1
  O  O18  1  0.50369215  0.40462962  0.82510111  1
  O  O19  1  0.49626091  0.68308606  0.96732455  1
  O  O20  1  0.15921381  0.73730969  0.20110376  1
  O  O21  1  0.15046392  0.23200815  0.69484939  1
  O  O22  1  0.83218540  0.45027316  0.16718324  1
  O  O23  1  0.17755475  0.04598504  0.33203926  1
  O  O24  1  0.17299011  0.61976834  0.62649133  1
  O  O25  1  0.16048648  0.94962166  0.55296567  1
  O  O26  1  0.51009323  0.54548558  0.39750342  1
  O  O27  1  0.82700989  0.38023166  0.37350867  1
  O  O28  1  0.82244525  0.95401496  0.66796074  1
  O  O29  1  0.82169695  0.67031351  0.52095749  1
  O  O30  1  0.17579447  0.11750931  0.12304907  1
  O  O31  1  0.16774345  0.18227633  0.90359540  1
  O  O32  1  0.48446939  0.95293481  0.09552965  1
  O  O33  1  0.12214489  0.88086271  0.76684368  1
  O  O34  1  0.82466209  0.32948639  0.59537181  1
  O  O35  1  0.49399052  0.87743367  0.33287536  1
  O  O36  1  0.17830305  0.32968649  0.47904251  1
  O  O37  1  0.82420553  0.88249069  0.87695093  1
  O  O38  1  0.50600948  0.12256633  0.66712464  1
  O  O39  1  0.16781460  0.54972684  0.83281676  1
loop_
_geom_bond_atom_site_label_1
_geom_bond_atom_site_label_2
_geom_bond_distance
_geom_bond_site_symmetry_2
O0 Ti15 2.022012 1_555
O0 Ti13 2.037014 1_555
O0 Ti18 2.094221 1_554
O0 Ti10 2.101058 1_554
O0 Sr1 2.925053 1_555
O1 Ti20 2.015650 1_555
O1 Ti7 2.075355 1_555
O1 Ti0 2.095841 1_655
O1 Ti6 2.124742 1_555
O2 Ti11 1.956032 1_645
O2 Ti21 2.009177 1_655
O2 Ti19 2.048816 1_655
O2 Sr1 2.595738 1_555
O3 Ti18 1.984400 1_555
O3 Ti17 2.014817 1_555
O3 Ti20 2.056518 1_555
O3 Ti0 2.061618 1_655
O4 Ti8 1.985198 1_555
O4 Ti4 2.018209 1_565
O4 Ti5 2.110371 1_555
O4 Ti1 2.144033 1_555
O4 Sr0 3.003084 1_555
O5 Ti11 1.900020 1_655
O5 Ti2 1.928749 1_554
O5 Ti13 2.017974 1_555
O6 Ti18 1.945120 1_555
O6 Ti15 2.019725 1_556
O6 Ti2 2.068473 1_545
O6 Sr0 2.560621 1_545
O7 Ti3 1.886464 1_555
O7 Ti13 1.914388 1_555
O7 Ti12 2.071739 1_555
O8 Ti14 1.885068 1_555
O8 Ti1 1.938097 1_555
O8 Ti11 2.016452 1_655
O9 Ti20 2.002118 1_555
O9 Ti8 2.034129 1_555
O9 Ti9 2.094199 1_555
O9 Ti16 2.129641 1_555
O10 Ti8 1.959158 1_555
O10 Ti14 2.055913 1_455
O10 Ti5 2.083237 1_555
O10 Ti3 2.118490 1_555
O11 Ti6 1.889323 1_455
O11 Ti15 1.984163 1_566
O11 Ti12 2.032801 1_556
O12 Ti3 2.015650 1_555
O12 Ti21 2.075355 1_555
O12 Ti14 2.095841 1_455
O12 Ti19 2.124742 1_555
O13 Ti6 1.905677 1_555
O13 Ti18 1.962801 1_555
O13 Ti13 2.020713 1_556
O14 Ti21 1.909303 1_655
O14 Ti4 1.953028 1_555
O14 Ti1 1.969385 1_545
O15 Ti19 1.889323 1_655
O15 Ti2 1.984163 1_544
O15 Ti18 2.032801 1_554
O16 Ti19 1.905677 1_555
O16 Ti12 1.962801 1_555
O16 Ti10 2.020713 1_554
O17 Ti16 1.985198 1_555
O17 Ti5 2.018209 1_545
O17 Ti4 2.110371 1_555
O17 Ti9 2.144033 1_555
O17 Sr1 3.003084 1_555
O18 Ti20 1.886464 1_555
O18 Ti10 1.914388 1_555
O18 Ti18 2.071739 1_555
O19 Ti2 2.022012 1_555
O19 Ti10 2.037014 1_555
O19 Ti12 2.094221 1_556
O19 Ti13 2.101058 1_556
O19 Sr0 2.925053 1_555
O20 Ti12 1.984400 1_555
O20 Ti11 2.014817 1_555
O20 Ti3 2.056518 1_555
O20 Ti14 2.061618 1_455
O21 Ti0 1.885068 1_555
O21 Ti9 1.938097 1_555
O21 Ti17 2.016452 1_455
O22 Ti14 1.968015 1_555
O22 Ti19 1.998443 1_655
O22 Ti13 2.058029 1_555
O22 Sr1 2.746402 1_555
O23 Ti21 1.937209 1_555
O23 Ti5 1.983108 1_545
O23 Ti11 2.085997 1_545
O23 Sr1 2.887055 1_555
O24 Ti0 1.941380 1_555
O24 Ti8 1.941818 1_555
O24 Ti7 2.118791 1_455
O24 Sr0 2.760334 1_555
O25 Ti7 1.909303 1_455
O25 Ti5 1.953028 1_555
O25 Ti9 1.969385 1_565
O26 Ti3 2.002118 1_555
O26 Ti16 2.034129 1_555
O26 Ti1 2.094199 1_555
O26 Ti8 2.129641 1_555
O27 Ti14 1.941380 1_555
O27 Ti16 1.941818 1_555
O27 Ti21 2.118791 1_655
O27 Sr1 2.760334 1_555
O28 Ti7 1.937209 1_555
O28 Ti4 1.983108 1_565
O28 Ti17 2.085997 1_565
O28 Sr0 2.887055 1_555
O29 Ti7 1.912068 1_555
O29 Ti1 1.972976 1_555
O29 Ti16 1.984347 1_555
O30 Ti15 1.978919 1_555
O30 Ti11 1.998135 1_545
O30 Ti19 2.029267 1_555
O30 Sr1 2.887061 1_555
O31 Ti17 1.900020 1_455
O31 Ti15 1.928749 1_556
O31 Ti10 2.017974 1_555
O32 Ti12 1.945120 1_555
O32 Ti2 2.019725 1_554
O32 Ti15 2.068473 1_565
O32 Sr1 2.560621 1_565
O33 Ti17 1.956032 1_465
O33 Ti7 2.009177 1_455
O33 Ti6 2.048816 1_455
O33 Sr0 2.595738 1_555
O34 Ti16 1.959158 1_555
O34 Ti0 2.055913 1_655
O34 Ti4 2.083237 1_555
O34 Ti20 2.118490 1_555
O35 Ti3 1.964456 1_555
O35 Ti1 1.997708 1_555
O35 Ti5 2.024208 1_555
O35 Sr1 2.639658 1_565
O36 Ti21 1.912068 1_555
O36 Ti9 1.972976 1_555
O36 Ti8 1.984347 1_555
O37 Ti2 1.978919 1_555
O37 Ti17 1.998135 1_565
O37 Ti6 2.029267 1_555
O37 Sr0 2.887061 1_555
O38 Ti20 1.964456 1_555
O38 Ti9 1.997708 1_555
O38 Ti4 2.024208 1_555
O38 Sr0 2.639658 1_545
O39 Ti0 1.968015 1_555
O39 Ti6 1.998443 1_455
O39 Ti10 2.058029 1_555
O39 Sr0 2.746402 1_555
