# generated using pymatgen
data_CoB4O7
_symmetry_space_group_name_H-M   'P 1'
_cell_length_a   8.31080700
_cell_length_b   8.77091200
_cell_length_c   13.87953500
_cell_angle_alpha   90.00000000
_cell_angle_beta   90.00000000
_cell_angle_gamma   90.00000000
_symmetry_Int_Tables_number   1
_chemical_formula_structural   CoB4O7
_chemical_formula_sum   'Co8 B32 O56'
_cell_volume   1011.72589761
_cell_formula_units_Z   8
loop_
 _symmetry_equiv_pos_site_id
 _symmetry_equiv_pos_as_xyz
  1  'x, y, z'
loop_
 _atom_site_type_symbol
 _atom_site_label
 _atom_site_symmetry_multiplicity
 _atom_site_fract_x
 _atom_site_fract_y
 _atom_site_fract_z
 _atom_site_occupancy
  Co  Co0  1  0.61102000  0.12647300  0.37935700  1
  Co  Co1  1  0.11102000  0.37352700  0.62064300  1
  Co  Co2  1  0.38898000  0.62647300  0.12064300  1
  Co  Co3  1  0.88898000  0.87352700  0.87935700  1
  Co  Co4  1  0.38898000  0.87352700  0.62064300  1
  Co  Co5  1  0.88898000  0.62647300  0.37935700  1
  Co  Co6  1  0.61102000  0.37352700  0.87935700  1
  Co  Co7  1  0.11102000  0.12647300  0.12064300  1
  B  B0  1  0.16311300  0.14315800  0.46184300  1
  B  B1  1  0.66311300  0.35684300  0.53815700  1
  B  B2  1  0.83688700  0.64315700  0.03815700  1
  B  B3  1  0.33688700  0.85684200  0.96184400  1
  B  B4  1  0.83688700  0.85684200  0.53815700  1
  B  B5  1  0.33688700  0.64315700  0.46184300  1
  B  B6  1  0.16311300  0.35684300  0.96184400  1
  B  B7  1  0.66311300  0.14315800  0.03815700  1
  B  B8  1  0.97023500  0.08503200  0.33225000  1
  B  B9  1  0.47023500  0.41496700  0.66775000  1
  B  B10  1  0.02976500  0.58503300  0.16775000  1
  B  B11  1  0.52976500  0.91496800  0.83225000  1
  B  B12  1  0.02976500  0.91496800  0.66775000  1
  B  B13  1  0.52976500  0.58503300  0.33225000  1
  B  B14  1  0.97023500  0.41496700  0.83225000  1
  B  B15  1  0.47023500  0.08503200  0.16775000  1
  B  B16  1  0.02574100  0.35237700  0.27004200  1
  B  B17  1  0.52574100  0.14762400  0.72995900  1
  B  B18  1  0.97425900  0.85237700  0.22995900  1
  B  B19  1  0.47425900  0.64762300  0.77004100  1
  B  B20  1  0.97425900  0.64762300  0.72995900  1
  B  B21  1  0.47425900  0.85237700  0.27004200  1
  B  B22  1  0.02574100  0.14762400  0.77004100  1
  B  B23  1  0.52574100  0.35237700  0.22995900  1
  B  B24  1  0.91355800  0.30055700  0.43690200  1
  B  B25  1  0.41355800  0.19944300  0.56309800  1
  B  B26  1  0.08644200  0.80055700  0.06309800  1
  B  B27  1  0.58644200  0.69944300  0.93690200  1
  B  B28  1  0.08644200  0.69944300  0.56309800  1
  B  B29  1  0.58644200  0.80055700  0.43690200  1
  B  B30  1  0.91355800  0.19944300  0.93690200  1
  B  B31  1  0.41355800  0.30055700  0.06309800  1
  O  O0  1  0.11706400  0.05721100  0.38576600  1
  O  O1  1  0.61706400  0.44278800  0.61423300  1
  O  O2  1  0.88293600  0.55721200  0.11423300  1
  O  O3  1  0.38293600  0.94278900  0.88576700  1
  O  O4  1  0.88293600  0.94278900  0.61423300  1
  O  O5  1  0.38293600  0.55721200  0.38576600  1
  O  O6  1  0.11706400  0.44278800  0.88576700  1
  O  O7  1  0.61706400  0.05721100  0.11423300  1
  O  O8  1  0.06181300  0.26026200  0.49589200  1
  O  O9  1  0.56181300  0.23973700  0.50410800  1
  O  O10  1  0.93818700  0.76026200  0.00410800  1
  O  O11  1  0.43818700  0.73973800  0.99589200  1
  O  O12  1  0.93818700  0.73973800  0.50410800  1
  O  O13  1  0.43818700  0.76026200  0.49589200  1
  O  O14  1  0.06181300  0.23973700  0.99589200  1
  O  O15  1  0.56181300  0.26026200  0.00410800  1
  O  O16  1  0.01712100  0.19727200  0.24932700  1
  O  O17  1  0.51712100  0.30272900  0.75067300  1
  O  O18  1  0.98287900  0.69727200  0.25067300  1
  O  O19  1  0.48287900  0.80272800  0.74932700  1
  O  O20  1  0.98287900  0.80272800  0.75067300  1
  O  O21  1  0.48287900  0.69727200  0.24932700  1
  O  O22  1  0.01712100  0.30272900  0.74932700  1
  O  O23  1  0.51712100  0.19727200  0.25067300  1
  O  O24  1  0.96722200  0.40812500  0.35718900  1
  O  O25  1  0.46722200  0.09187500  0.64281200  1
  O  O26  1  0.03277800  0.90812600  0.14281200  1
  O  O27  1  0.53277800  0.59187500  0.85718800  1
  O  O28  1  0.03277800  0.59187500  0.64281200  1
  O  O29  1  0.53277800  0.90812600  0.35718900  1
  O  O30  1  0.96722200  0.09187500  0.85718800  1
  O  O31  1  0.46722200  0.40812500  0.14281200  1
  O  O32  1  0.80885200  0.38582700  0.49689500  1
  O  O33  1  0.30885200  0.11417300  0.50310500  1
  O  O34  1  0.19114800  0.88582700  0.00310500  1
  O  O35  1  0.69114800  0.61417200  0.99689500  1
  O  O36  1  0.19114800  0.61417200  0.50310500  1
  O  O37  1  0.69114800  0.88582700  0.49689500  1
  O  O38  1  0.80885200  0.11417300  0.99689500  1
  O  O39  1  0.30885200  0.38582700  0.00310500  1
  O  O40  1  0.84796000  0.16338700  0.39160300  1
  O  O41  1  0.34796000  0.33661300  0.60839700  1
  O  O42  1  0.15204000  0.66338700  0.10839800  1
  O  O43  1  0.65204000  0.83661300  0.89160300  1
  O  O44  1  0.15204000  0.83661300  0.60839700  1
  O  O45  1  0.65204000  0.66338700  0.39160300  1
  O  O46  1  0.84796000  0.33661300  0.89160300  1
  O  O47  1  0.34796000  0.16338700  0.10839800  1
  O  O48  1  0.59469500  0.44532500  0.29589300  1
  O  O49  1  0.09469500  0.05467600  0.70410600  1
  O  O50  1  0.40530500  0.94532400  0.20410700  1
  O  O51  1  0.90530500  0.55467500  0.79589400  1
  O  O52  1  0.40530500  0.55467500  0.70410600  1
  O  O53  1  0.90530500  0.94532400  0.29589300  1
  O  O54  1  0.59469500  0.05467600  0.79589400  1
  O  O55  1  0.09469500  0.44532500  0.20410700  1
loop_
_geom_bond_atom_site_label_1
_geom_bond_atom_site_label_2
_geom_bond_distance
_geom_bond_site_symmetry_2
Co0 O40 2.002827 1_555
Co0 O9 2.037691 1_555
Co0 O23 2.045643 1_555
Co0 O29 2.045755 1_545
Co1 O41 2.002827 1_555
Co1 O8 2.037695 1_555
Co1 O22 2.045640 1_555
Co1 O28 2.045766 1_555
Co2 O42 2.002826 1_555
Co2 O11 2.037695 1_554
Co2 O21 2.045643 1_555
Co2 O31 2.045766 1_555
Co3 O43 2.002827 1_555
Co3 O10 2.037695 1_556
Co3 O20 2.045643 1_555
Co3 O30 2.045766 1_565
Co4 O44 2.002827 1_555
Co4 O13 2.037695 1_555
Co4 O19 2.045643 1_555
Co4 O25 2.045766 1_565
Co5 O45 2.002827 1_555
Co5 O12 2.037695 1_555
Co5 O18 2.045643 1_555
Co5 O24 2.045764 1_555
Co6 O46 2.002827 1_555
Co6 O15 2.037695 1_556
Co6 O17 2.045640 1_555
Co6 O27 2.045766 1_555
Co7 O47 2.002826 1_555
Co7 O14 2.037691 1_554
Co7 O16 2.045643 1_555
Co7 O26 2.045758 1_545
B0 O0 1.352657 1_555
B0 O33 1.363686 1_555
B0 O8 1.409631 1_555
B1 O1 1.352636 1_555
B1 O32 1.363684 1_555
B1 O9 1.409643 1_555
B2 O2 1.352636 1_555
B2 O35 1.363686 1_554
B2 O10 1.409637 1_555
B3 O3 1.352657 1_555
B3 O34 1.363680 1_556
B3 O11 1.409626 1_555
B4 O4 1.352646 1_555
B4 O37 1.363686 1_555
B4 O12 1.409631 1_555
B5 O5 1.352647 1_555
B5 O36 1.363686 1_555
B5 O13 1.409637 1_555
B6 O6 1.352647 1_555
B6 O39 1.363678 1_556
B6 O14 1.409639 1_555
B7 O7 1.352646 1_555
B7 O38 1.363686 1_554
B7 O15 1.409631 1_555
B8 O53 1.430858 1_545
B8 O0 1.449246 1_655
B8 O40 1.477704 1_555
B8 O16 1.563847 1_655
B9 O52 1.430853 1_555
B9 O1 1.449253 1_555
B9 O41 1.477700 1_555
B9 O17 1.563836 1_555
B10 O55 1.430858 1_555
B10 O2 1.449253 1_455
B10 O42 1.477692 1_555
B10 O18 1.563842 1_455
B11 O54 1.430853 1_565
B11 O3 1.449253 1_555
B11 O43 1.477704 1_555
B11 O19 1.563847 1_555
B12 O49 1.430853 1_565
B12 O4 1.449253 1_455
B12 O44 1.477704 1_555
B12 O20 1.563847 1_455
B13 O48 1.430858 1_555
B13 O5 1.449246 1_555
B13 O45 1.477700 1_555
B13 O21 1.563842 1_555
B14 O51 1.430853 1_555
B14 O6 1.449253 1_655
B14 O46 1.477700 1_555
B14 O22 1.563836 1_655
B15 O50 1.430858 1_545
B15 O7 1.449253 1_555
B15 O47 1.477696 1_555
B15 O23 1.563847 1_555
B16 O55 1.352963 1_555
B16 O16 1.392307 1_555
B16 O24 1.392352 1_455
B17 O54 1.352963 1_555
B17 O17 1.392304 1_555
B17 O25 1.392355 1_555
B18 O53 1.352949 1_555
B18 O18 1.392304 1_555
B18 O26 1.392355 1_655
B19 O52 1.352963 1_555
B19 O19 1.392304 1_555
B19 O27 1.392352 1_555
B20 O51 1.352963 1_555
B20 O20 1.392304 1_555
B20 O28 1.392352 1_655
B21 O50 1.352958 1_555
B21 O21 1.392307 1_555
B21 O29 1.392355 1_555
B22 O49 1.352963 1_555
B22 O22 1.392304 1_555
B22 O30 1.392355 1_455
B23 O48 1.352954 1_555
B23 O23 1.392304 1_555
B23 O31 1.392352 1_555
B24 O32 1.417719 1_555
B24 O40 1.462866 1_555
B24 O24 1.520894 1_555
B24 O8 1.520981 1_655
B25 O33 1.417719 1_555
B25 O41 1.462866 1_555
B25 O25 1.520904 1_555
B25 O9 1.520979 1_555
B26 O34 1.417719 1_555
B26 O42 1.462872 1_555
B26 O26 1.520909 1_555
B26 O10 1.520981 1_455
B27 O35 1.417724 1_555
B27 O43 1.462866 1_555
B27 O27 1.520904 1_555
B27 O11 1.520981 1_555
B28 O36 1.417724 1_555
B28 O44 1.462866 1_555
B28 O28 1.520904 1_555
B28 O12 1.520981 1_455
B29 O37 1.417719 1_555
B29 O45 1.462866 1_555
B29 O29 1.520899 1_555
B29 O13 1.520981 1_555
B30 O38 1.417719 1_555
B30 O46 1.462866 1_555
B30 O30 1.520904 1_555
B30 O14 1.520979 1_655
B31 O39 1.417719 1_555
B31 O47 1.462872 1_555
B31 O31 1.520904 1_555
B31 O15 1.520981 1_555
