# generated using pymatgen
data_Na6MgSn7(PO4)12
_symmetry_space_group_name_H-M   'P 1'
_cell_length_a   17.52955436
_cell_length_b   8.77443428
_cell_length_c   22.79969854
_cell_angle_alpha   90.03650220
_cell_angle_beta   89.94805941
_cell_angle_gamma   120.02291814
_symmetry_Int_Tables_number   1
_chemical_formula_structural   Na6MgSn7(PO4)12
_chemical_formula_sum   'Na18 Mg3 Sn21 P36 O144'
_cell_volume   3036.33165707
_cell_formula_units_Z   3
loop_
 _symmetry_equiv_pos_site_id
 _symmetry_equiv_pos_as_xyz
  1  'x, y, z'
loop_
 _atom_site_type_symbol
 _atom_site_label
 _atom_site_symmetry_multiplicity
 _atom_site_fract_x
 _atom_site_fract_y
 _atom_site_fract_z
 _atom_site_occupancy
  Na  Na0  1  0.68594141  0.36409447  0.24766935  1
  Na  Na1  1  0.99604381  0.62680414  0.24749964  1
  Na  Na2  1  0.99583679  0.36328138  0.74588999  1
  Na  Na3  1  0.49598342  0.36348567  0.74583394  1
  Na  Na4  1  0.18516643  0.00613249  0.74593837  1
  Na  Na5  1  0.68526989  0.00622899  0.74608759  1
  Na  Na6  1  0.99982525  0.99977690  0.50070877  1
  Na  Na7  1  0.49977670  0.99953371  0.50073735  1
  Na  Na8  1  0.99851368  0.99800616  0.00144080  1
  Na  Na9  1  0.50116818  0.00176871  0.00105062  1
  Na  Na10  1  0.33308864  0.33985511  0.83192687  1
  Na  Na11  1  0.83297624  0.33976259  0.83265859  1
  Na  Na12  1  0.33328109  0.33407552  0.33487390  1
  Na  Na13  1  0.83311816  0.32524435  0.33276174  1
  Na  Na14  1  0.16822852  0.66498655  0.16589302  1
  Na  Na15  1  0.66816775  0.67524896  0.16524950  1
  Na  Na16  1  0.16972464  0.66589824  0.66215278  1
  Na  Na17  1  0.66976761  0.66594578  0.66222380  1
  Mg  Mg0  1  0.33300463  0.33898337  0.68189984  1
  Mg  Mg1  1  0.83300906  0.33900175  0.68195504  1
  Mg  Mg2  1  0.83306802  0.32552965  0.18383706  1
  Sn  Sn0  1  0.00046068  0.00291891  0.35353062  1
  Sn  Sn1  1  0.49903110  0.99750489  0.35342471  1
  Sn  Sn2  1  0.99931759  0.99855533  0.85337722  1
  Sn  Sn3  1  0.49972174  0.99874553  0.85342215  1
  Sn  Sn4  1  0.99918707  0.99813508  0.64469952  1
  Sn  Sn5  1  0.49923492  0.99819581  0.64472604  1
  Sn  Sn6  1  0.99797713  0.00057586  0.14658960  1
  Sn  Sn7  1  0.50117309  0.99994437  0.14700332  1
  Sn  Sn8  1  0.33333399  0.33492619  0.18538050  1
  Sn  Sn9  1  0.33345791  0.33298335  0.98139183  1
  Sn  Sn10  1  0.83335723  0.33299340  0.98359013  1
  Sn  Sn11  1  0.33336142  0.33358341  0.48301095  1
  Sn  Sn12  1  0.83345055  0.33417838  0.48276500  1
  Sn  Sn13  1  0.16558839  0.66632970  0.02014392  1
  Sn  Sn14  1  0.66803160  0.66730751  0.02030864  1
  Sn  Sn15  1  0.16684743  0.66674090  0.51974970  1
  Sn  Sn16  1  0.66676244  0.66672721  0.51984087  1
  Sn  Sn17  1  0.16931268  0.66551141  0.31563273  1
  Sn  Sn18  1  0.66631066  0.67258215  0.31620047  1
  Sn  Sn19  1  0.16869506  0.66582863  0.81652989  1
  Sn  Sn20  1  0.66900587  0.66627754  0.81669920  1
  P  P0  1  0.14621219  0.00228532  0.25000774  1
  P  P1  1  0.64648969  0.00010707  0.25016233  1
  P  P2  1  0.35480758  0.70945920  0.24957848  1
  P  P3  1  0.85378677  0.70898556  0.25044801  1
  P  P4  1  0.99902606  0.29046493  0.25021577  1
  P  P5  1  0.49867533  0.29034555  0.25042424  1
  P  P6  1  0.14702637  0.29140581  0.75011561  1
  P  P7  1  0.64723098  0.29171017  0.75005056  1
  P  P8  1  0.99720731  0.70538279  0.75043366  1
  P  P9  1  0.49730350  0.70553548  0.75044802  1
  P  P10  1  0.35441478  0.99903670  0.75000953  1
  P  P11  1  0.85434902  0.99922986  0.74990717  1
  P  P12  1  0.47885398  0.33445779  0.58495148  1
  P  P13  1  0.97887315  0.33460047  0.58498359  1
  P  P14  1  0.18856299  0.04224680  0.58499538  1
  P  P15  1  0.68862641  0.04245077  0.58503308  1
  P  P16  1  0.33250878  0.62215143  0.58429248  1
  P  P17  1  0.83244992  0.62194298  0.58429974  1
  P  P18  1  0.47908818  0.62455122  0.08319840  1
  P  P19  1  0.97862939  0.62429141  0.08535687  1
  P  P20  1  0.33352930  0.04221236  0.08353692  1
  P  P21  1  0.83290677  0.04380310  0.08450213  1
  P  P22  1  0.18751441  0.33319763  0.08322444  1
  P  P23  1  0.68813297  0.33359231  0.08532548  1
  P  P24  1  0.31267425  0.66617016  0.91789435  1
  P  P25  1  0.81316332  0.66490330  0.91755196  1
  P  P26  1  0.01983580  0.37406975  0.91688519  1
  P  P27  1  0.52050490  0.37488114  0.91700587  1
  P  P28  1  0.16699865  0.95959241  0.91683504  1
  P  P29  1  0.66722538  0.95973273  0.91715931  1
  P  P30  1  0.31238652  0.95953158  0.41698613  1
  P  P31  1  0.81281607  0.96027034  0.41750667  1
  P  P32  1  0.16745369  0.37474773  0.41741045  1
  P  P33  1  0.66697474  0.37497862  0.41629959  1
  P  P34  1  0.02047870  0.66610591  0.41638531  1
  P  P35  1  0.51998228  0.66501882  0.41737761  1
  O  O0  1  0.10644922  0.03409057  0.30559515  1
  O  O1  1  0.60447915  0.03647716  0.30500616  1
  O  O2  1  0.41072259  0.78694277  0.30524856  1
  O  O3  1  0.91357907  0.79070215  0.30514213  1
  O  O4  1  0.48266846  0.17756363  0.30553755  1
  O  O5  1  0.98441306  0.17831765  0.30576120  1
  O  O6  1  0.10526739  0.17501722  0.80581943  1
  O  O7  1  0.60532483  0.17525915  0.80579477  1
  O  O8  1  0.48410831  0.78956314  0.80651758  1
  O  O9  1  0.98438708  0.78987599  0.80649103  1
  O  O10  1  0.41265119  0.03604814  0.80575006  1
  O  O11  1  0.91264069  0.03636081  0.80557300  1
  O  O12  1  0.39472544  0.96249664  0.69582632  1
  O  O13  1  0.89474386  0.96245893  0.69573858  1
  O  O14  1  0.08456198  0.21188728  0.69653289  1
  O  O15  1  0.58450713  0.21195259  0.69651565  1
  O  O16  1  0.02151377  0.83052648  0.69678724  1
  O  O17  1  0.52145342  0.83041950  0.69684526  1
  O  O18  1  0.39405734  0.82314448  0.19410132  1
  O  O19  1  0.89353713  0.82472167  0.19545491  1
  O  O20  1  0.01965191  0.21289675  0.19535346  1
  O  O21  1  0.51928401  0.21371153  0.19525693  1
  O  O22  1  0.08689653  0.96110413  0.19513759  1
  O  O23  1  0.58705969  0.96144087  0.19519370  1
  O  O24  1  0.44076044  0.36356240  0.64112422  1
  O  O25  1  0.94077328  0.36353226  0.64110398  1
  O  O26  1  0.24127172  0.11798649  0.64118120  1
  O  O27  1  0.74127896  0.11820708  0.64114829  1
  O  O28  1  0.31744105  0.51327894  0.63869602  1
  O  O29  1  0.81740803  0.51330980  0.63858429  1
  O  O30  1  0.43976490  0.51094702  0.13856814  1
  O  O31  1  0.94040770  0.51751940  0.14045242  1
  O  O32  1  0.31621598  0.12178847  0.13882699  1
  O  O33  1  0.81752166  0.12230291  0.13792810  1
  O  O34  1  0.24449177  0.36857222  0.13859268  1
  O  O35  1  0.74138346  0.36391824  0.14054372  1
  O  O36  1  0.22707297  0.29850460  0.02756645  1
  O  O37  1  0.72561284  0.29895281  0.02790041  1
  O  O38  1  0.42202622  0.54571306  0.02760139  1
  O  O39  1  0.92415720  0.54877332  0.02785682  1
  O  O40  1  0.35073047  0.15515853  0.02770176  1
  O  O41  1  0.85049638  0.15108994  0.02633225  1
  O  O42  1  0.22661282  0.15325542  0.52847373  1
  O  O43  1  0.72661361  0.15345909  0.52838948  1
  O  O44  1  0.35032696  0.54889048  0.52697160  1
  O  O45  1  0.85029864  0.54880861  0.52686690  1
  O  O46  1  0.42332785  0.29987455  0.52842048  1
  O  O47  1  0.92332842  0.29990599  0.52838145  1
  O  O48  1  0.27195376  0.70078667  0.97218593  1
  O  O49  1  0.77265349  0.70105244  0.97143547  1
  O  O50  1  0.07897256  0.45634511  0.97075537  1
  O  O51  1  0.57853195  0.45793704  0.97097780  1
  O  O52  1  0.15043103  0.84374561  0.97089106  1
  O  O53  1  0.64939279  0.84154254  0.97084108  1
  O  O54  1  0.27244899  0.84380949  0.47143365  1
  O  O55  1  0.77230191  0.84396169  0.47169500  1
  O  O56  1  0.14954932  0.45521144  0.47172729  1
  O  O57  1  0.64975877  0.45693345  0.47055179  1
  O  O58  1  0.07868972  0.70058330  0.47066801  1
  O  O59  1  0.57819835  0.70080070  0.47166799  1
  O  O60  1  0.05895090  0.63352243  0.35889361  1
  O  O61  1  0.55847254  0.62989890  0.36102047  1
  O  O62  1  0.25627503  0.88181499  0.36070796  1
  O  O63  1  0.75711760  0.88322921  0.36108997  1
  O  O64  1  0.18467211  0.48589094  0.36104837  1
  O  O65  1  0.68321260  0.48439971  0.35878200  1
  O  O66  1  0.05816503  0.48397980  0.85944299  1
  O  O67  1  0.55801438  0.48371706  0.85937893  1
  O  O68  1  0.18382698  0.88398248  0.85933885  1
  O  O69  1  0.68348872  0.88381121  0.85935100  1
  O  O70  1  0.25698397  0.63062316  0.86147473  1
  O  O71  1  0.75731593  0.63002942  0.86114061  1
  O  O72  1  0.01189833  0.83293349  0.41035132  1
  O  O73  1  0.51175977  0.83207592  0.41113246  1
  O  O74  1  0.40434629  0.97611600  0.41073535  1
  O  O75  1  0.90452521  0.97633603  0.41129335  1
  O  O76  1  0.08387179  0.19095148  0.41138854  1
  O  O77  1  0.58334210  0.19108366  0.41032321  1
  O  O78  1  0.01193821  0.19079572  0.91079508  1
  O  O79  1  0.51161142  0.19066120  0.91100938  1
  O  O80  1  0.08369018  0.97679701  0.91104764  1
  O  O81  1  0.58338140  0.97608283  0.91119072  1
  O  O82  1  0.40452902  0.83321814  0.91164886  1
  O  O83  1  0.90474125  0.83273402  0.91128222  1
  O  O84  1  0.48916798  0.16777349  0.58826634  1
  O  O85  1  0.98921652  0.16781697  0.58828581  1
  O  O86  1  0.09491171  0.02242156  0.58838034  1
  O  O87  1  0.59489282  0.02248806  0.58838054  1
  O  O88  1  0.41618308  0.80985557  0.58787982  1
  O  O89  1  0.91613419  0.80976380  0.58781592  1
  O  O90  1  0.48731081  0.80809918  0.08869816  1
  O  O91  1  0.99015015  0.81287564  0.08853006  1
  O  O92  1  0.41663364  0.02422585  0.08939576  1
  O  O93  1  0.91650432  0.02219448  0.08735538  1
  O  O94  1  0.09581625  0.16714121  0.08901916  1
  O  O95  1  0.59375503  0.16600422  0.08818931  1
  O  O96  1  0.34399971  0.16204671  0.74487811  1
  O  O97  1  0.84397085  0.16204377  0.74474333  1
  O  O98  1  0.23645109  0.30606083  0.74445303  1
  O  O99  1  0.73634793  0.30615441  0.74437408  1
  O  O100  1  0.41976620  0.52138780  0.74482908  1
  O  O101  1  0.91986765  0.52163170  0.74480304  1
  O  O102  1  0.34524633  0.52440711  0.24380759  1
  O  O103  1  0.84409273  0.52613214  0.24459147  1
  O  O104  1  0.41660211  0.31039186  0.24399290  1
  O  O105  1  0.92003885  0.31723071  0.24449997  1
  O  O106  1  0.23853432  0.16647897  0.24383004  1
  O  O107  1  0.73556692  0.16646780  0.24433298  1
  O  O108  1  0.32172452  0.49993687  0.92289737  1
  O  O109  1  0.82208563  0.49896216  0.92296483  1
  O  O110  1  0.42829175  0.35717787  0.92220668  1
  O  O111  1  0.92822151  0.35745159  0.92240652  1
  O  O112  1  0.25048027  0.14360176  0.92222492  1
  O  O113  1  0.75032065  0.14360283  0.92253290  1
  O  O114  1  0.32180724  0.14387236  0.42263186  1
  O  O115  1  0.82182895  0.14441372  0.42295671  1
  O  O116  1  0.25036982  0.35624959  0.42273603  1
  O  O117  1  0.75018077  0.35721768  0.42203314  1
  O  O118  1  0.42797222  0.49892538  0.42260846  1
  O  O119  1  0.92848771  0.49960298  0.42212659  1
  O  O120  1  0.17920781  0.50001121  0.07738264  1
  O  O121  1  0.67692651  0.49817209  0.07743153  1
  O  O122  1  0.07216681  0.64450216  0.07753371  1
  O  O123  1  0.57080788  0.64230841  0.07727483  1
  O  O124  1  0.25046808  0.85832560  0.07755813  1
  O  O125  1  0.75003977  0.85634389  0.07719357  1
  O  O126  1  0.17779909  0.85606777  0.57750709  1
  O  O127  1  0.67784793  0.85618752  0.57763090  1
  O  O128  1  0.25016484  0.64452211  0.57733662  1
  O  O129  1  0.75006960  0.64423094  0.57721615  1
  O  O130  1  0.07193290  0.50004951  0.57754529  1
  O  O131  1  0.57192167  0.49974636  0.57752011  1
  O  O132  1  0.15227396  0.83085675  0.25600834  1
  O  O133  1  0.65298172  0.83038910  0.25600204  1
  O  O134  1  0.26239466  0.69137063  0.25516566  1
  O  O135  1  0.75972124  0.68634188  0.25648413  1
  O  O136  1  0.08369750  0.47953702  0.25592521  1
  O  O137  1  0.58475993  0.47320529  0.25634939  1
  O  O138  1  0.15048333  0.47319593  0.75666256  1
  O  O139  1  0.65039773  0.47335308  0.75668267  1
  O  O140  1  0.08505511  0.69410368  0.75670805  1
  O  O141  1  0.58498461  0.69394818  0.75676794  1
  O  O142  1  0.26033078  0.83319399  0.75628626  1
  O  O143  1  0.76028577  0.83320392  0.75617352  1
loop_
_geom_bond_atom_site_label_1
_geom_bond_atom_site_label_2
_geom_bond_distance
_geom_bond_site_symmetry_2
Na0 O107 2.297552 1_555
Na0 O103 2.401576 1_555
Na0 O137 2.408324 1_555
Na0 O135 2.459338 1_555
Na0 O35 2.628158 1_555
Na0 O65 2.753414 1_555
Na0 O21 2.801900 1_555
Na0 O1 2.811640 1_555
Na1 O103 2.350608 1_555
Na1 O105 2.353000 1_555
Na1 O132 2.416037 1_655
Na1 O136 2.460748 1_655
Na1 O31 2.625434 1_555
Na1 O60 2.758561 1_655
Na1 O22 2.809280 1_655
Na1 O3 2.821263 1_555
Na2 O97 2.345568 1_555
Na2 O101 2.357177 1_555
Na2 O138 2.392483 1_655
Na2 O140 2.527794 1_655
Na2 O25 2.577936 1_555
Na2 O14 2.740881 1_655
Na2 O66 2.803901 1_655
Na2 O11 2.832334 1_555
Na3 O96 2.347413 1_555
Na3 O100 2.357470 1_555
Na3 O139 2.388940 1_555
Na3 O141 2.525238 1_555
Na3 O24 2.577087 1_555
Na3 O15 2.738597 1_555
Na3 O67 2.801939 1_555
Na3 O10 2.838335 1_555
Na4 O98 2.316835 1_555
Na4 O96 2.410932 1_555
Na4 O140 2.414122 1_545
Na4 O142 2.469032 1_545
Na4 O26 2.582234 1_555
Na4 O16 2.727645 1_545
Na4 O68 2.795055 1_545
Na4 O6 2.844723 1_555
Na5 O99 2.317550 1_555
Na5 O97 2.408990 1_555
Na5 O141 2.416106 1_545
Na5 O143 2.466944 1_545
Na5 O27 2.585963 1_555
Na5 O17 2.730778 1_545
Na5 O69 2.791637 1_545
Na5 O7 2.844413 1_555
Na6 O89 2.535263 1_555
Na6 O85 2.542735 1_565
Na6 O86 2.547045 1_665
Na6 O75 2.578948 1_555
Na6 O76 2.580211 1_665
Na6 O72 2.595664 1_655
Na7 O88 2.534387 1_555
Na7 O84 2.542955 1_565
Na7 O87 2.546179 1_565
Na7 O73 2.584776 1_555
Na7 O74 2.590975 1_555
Na7 O77 2.599102 1_565
Na8 O93 2.499678 1_565
Na8 O91 2.523515 1_555
Na8 O94 2.562837 1_665
Na8 O83 2.578252 1_554
Na8 O80 2.604505 1_654
Na8 O78 2.606415 1_664
Na9 O95 2.513895 1_555
Na9 O90 2.555482 1_545
Na9 O92 2.564795 1_555
Na9 O81 2.577659 1_544
Na9 O79 2.587479 1_554
Na9 O82 2.589814 1_544
Na10 O100 2.523072 1_555
Na10 O98 2.537293 1_555
Na10 O108 2.567118 1_555
Na10 O96 2.589144 1_555
Na10 O110 2.607111 1_555
Na10 O112 2.608557 1_555
Na11 O101 2.538726 1_555
Na11 O109 2.547453 1_555
Na11 O99 2.552112 1_555
Na11 O111 2.597150 1_555
Na11 O113 2.600811 1_555
Na11 O97 2.604356 1_555
Na12 O116 2.537785 1_555
Na12 O118 2.539387 1_555
Na12 O114 2.548883 1_555
Na12 O104 2.601463 1_555
Na12 O106 2.605404 1_555
Na12 O102 2.607129 1_555
Na13 O115 2.544562 1_555
Na13 O105 2.545101 1_555
Na13 O107 2.559032 1_555
Na13 O119 2.594147 1_555
Na13 O117 2.595605 1_555
Na13 O103 2.617182 1_555
Na14 O120 2.545431 1_555
Na14 O134 2.558176 1_555
Na14 O124 2.562067 1_555
Na14 O122 2.574719 1_555
Na14 O136 2.577405 1_555
Na14 O132 2.611575 1_555
Na15 O125 2.516364 1_555
Na15 O123 2.555648 1_555
Na15 O133 2.561885 1_555
Na15 O121 2.584726 1_555
Na15 O135 2.600295 1_555
Na15 O137 2.645773 1_555
Na16 O128 2.454034 1_555
Na16 O130 2.506699 1_555
Na16 O126 2.509208 1_555
Na16 O142 2.636809 1_555
Na16 O138 2.654903 1_555
Na16 O140 2.696825 1_555
Na17 O129 2.457072 1_555
Na17 O127 2.508657 1_555
Na17 O131 2.509494 1_555
Na17 O143 2.632814 1_555
Na17 O139 2.652976 1_555
Na17 O141 2.697154 1_555
Mg0 O28 1.950271 1_555
Mg0 O24 2.016978 1_555
Mg0 O26 2.021862 1_555
Mg0 O98 2.118737 1_555
Mg0 O100 2.120948 1_555
Mg0 O96 2.193630 1_555
Mg1 O29 1.952641 1_555
Mg1 O25 2.018054 1_555
Mg1 O27 2.021776 1_555
Mg1 O99 2.118234 1_555
Mg1 O101 2.121057 1_555
Mg1 O97 2.190677 1_555
Mg2 O33 1.965074 1_555
Mg2 O31 2.045378 1_555
Mg2 O35 2.053259 1_555
Mg2 O105 2.087483 1_555
Mg2 O107 2.093479 1_555
Mg2 O103 2.170545 1_555
O0 P0 1.537067 1_555
O0 Sn0 2.051672 1_555
O1 P1 1.562281 1_555
O1 Sn1 2.028949 1_545
O2 P2 1.538922 1_555
O2 Sn1 2.038328 1_555
O3 P3 1.554641 1_555
O3 Sn0 2.041208 1_665
O4 P5 1.536253 1_555
O4 Sn1 2.055894 1_545
O5 P4 1.544832 1_555
O5 Sn0 2.017390 1_655
O6 P6 1.563217 1_555
O6 Sn2 2.035513 1_445
O7 P7 1.564559 1_555
O7 Sn3 2.033275 1_545
O8 P9 1.549276 1_555
O8 Sn3 2.020588 1_555
O9 P8 1.548763 1_555
O9 Sn2 2.020498 1_555
O10 P10 1.559740 1_545
O10 Sn3 2.030148 1_545
O11 P11 1.558761 1_545
O11 Sn2 2.028399 1_545
O12 P10 1.533905 1_555
O12 Sn5 2.057691 1_555
O13 P11 1.535361 1_555
O13 Sn4 2.056015 1_555
O14 P6 1.554054 1_555
O14 Sn4 2.084610 1_445
O15 P7 1.555589 1_555
O15 Sn5 2.083584 1_545
O16 P8 1.554316 1_455
O16 Sn4 2.074960 1_455
O17 P9 1.552455 1_555
O17 Sn5 2.075523 1_555
O18 P2 1.543225 1_555
O18 Sn7 2.041802 1_555
O19 P3 1.542992 1_555
O19 Sn6 2.036059 1_565
O20 P4 1.550138 1_455
O20 Sn6 2.034947 1_455
O21 P5 1.551096 1_555
O21 Sn7 2.057052 1_545
O22 P0 1.550023 1_565
O22 Sn6 2.078118 1_465
O23 P1 1.555387 1_565
O23 Sn7 2.024970 1_555
O24 P12 1.523172 1_555
O25 P13 1.521641 1_555
O26 P14 1.524129 1_555
O27 P15 1.522412 1_555
O28 P16 1.506428 1_555
O29 P17 1.503109 1_555
O30 P18 1.541075 1_555
O30 Sn8 2.029860 1_555
O31 P19 1.508774 1_555
O32 P20 1.542397 1_555
O32 Sn8 2.037305 1_555
O33 P21 1.488339 1_555
O34 P22 1.542426 1_555
O34 Sn8 2.028299 1_555
O35 P23 1.510057 1_555
O36 P22 1.546934 1_555
O36 Sn9 2.027287 1_554
O37 P23 1.560769 1_555
O37 Sn10 2.027183 1_554
O38 P18 1.547458 1_555
O38 Sn9 2.026091 1_554
O39 P19 1.561261 1_555
O39 Sn10 2.030177 1_554
O40 P20 1.547756 1_555
O40 Sn9 2.028919 1_554
O41 P21 1.565442 1_555
O41 Sn10 2.017386 1_554
O42 P14 1.550559 1_555
O42 Sn11 2.028616 1_555
O43 P15 1.552743 1_555
O43 Sn12 2.032419 1_555
O44 P16 1.554952 1_555
O44 Sn11 2.024350 1_555
O45 P17 1.556746 1_555
O45 Sn12 2.021504 1_555
O46 P12 1.551430 1_555
O46 Sn11 2.028957 1_555
O47 P13 1.552836 1_555
O47 Sn12 2.032700 1_555
O48 P24 1.532611 1_555
O48 Sn13 2.048439 1_556
O49 P25 1.528881 1_555
O49 Sn14 2.036197 1_556
O50 P26 1.535127 1_555
O50 Sn13 2.041838 1_556
O51 P27 1.529487 1_555
O51 Sn14 2.053714 1_556
O52 P28 1.530388 1_555
O52 Sn13 2.042470 1_556
O53 P29 1.532225 1_555
O53 Sn14 2.053967 1_556
O54 P30 1.533253 1_555
O54 Sn15 2.043176 1_555
O55 P31 1.531998 1_555
O55 Sn16 2.040966 1_555
O56 P32 1.533151 1_555
O56 Sn15 2.042177 1_555
O57 P33 1.534130 1_555
O57 Sn16 2.046764 1_555
O58 P34 1.535380 1_555
O58 Sn15 2.047284 1_555
O59 P35 1.534056 1_555
O59 Sn16 2.043017 1_555
O60 P34 1.563842 1_555
O60 Sn17 2.061018 1_555
O61 P35 1.551524 1_555
O61 Sn18 2.011583 1_555
O62 P30 1.552056 1_555
O62 Sn17 2.021705 1_555
O63 P31 1.550962 1_555
O63 Sn18 2.013438 1_555
O64 P32 1.549134 1_555
O64 Sn17 2.013924 1_555
O65 P33 1.565250 1_555
O65 Sn18 2.061284 1_555
O66 P26 1.564711 1_555
O66 Sn19 2.040142 1_555
O67 P27 1.562775 1_555
O67 Sn20 2.044041 1_555
O68 P28 1.561938 1_555
O68 Sn19 2.043786 1_555
O69 P29 1.565395 1_555
O69 Sn20 2.041210 1_555
O70 P24 1.549859 1_555
O70 Sn19 2.005606 1_555
O71 P25 1.551856 1_555
O71 Sn20 2.005047 1_555
O72 P34 1.550784 1_555
O72 Sn0 2.060423 1_565
O73 P35 1.549659 1_555
O73 Sn1 2.053036 1_555
O74 P30 1.550788 1_555
O74 Sn1 2.045028 1_555
O75 P31 1.548295 1_555
O75 Sn0 2.054460 1_665
O76 P32 1.549817 1_555
O76 Sn0 2.046171 1_555
O77 P33 1.550595 1_555
O77 Sn1 2.059330 1_545
O78 P26 1.549671 1_555
O78 Sn2 2.057252 1_445
O79 P27 1.550294 1_555
O79 Sn3 2.061429 1_545
O80 P28 1.547203 1_555
O80 Sn2 2.058937 1_455
O81 P29 1.552625 1_555
O81 Sn3 2.054419 1_555
O82 P24 1.549020 1_555
O82 Sn3 2.056586 1_555
O83 P25 1.549285 1_555
O83 Sn2 2.047716 1_555
O84 P12 1.562774 1_555
O84 Sn5 2.041517 1_545
O85 P13 1.563926 1_555
O85 Sn4 2.040799 1_545
O86 P14 1.563744 1_555
O86 Sn4 2.036799 1_445
O87 P15 1.564638 1_555
O87 Sn5 2.036260 1_545
O88 P16 1.566306 1_555
O88 Sn5 2.030632 1_555
O89 P17 1.566891 1_555
O89 Sn4 2.031305 1_555
O90 P18 1.548476 1_555
O90 Sn7 2.061118 1_555
O91 P19 1.565114 1_555
O91 Sn6 2.062771 1_565
O92 P20 1.547713 1_555
O92 Sn7 2.070384 1_545
O93 P21 1.570316 1_555
O93 Sn6 2.043165 1_555
O94 P22 1.542858 1_555
O94 Sn6 2.071333 1_455
O95 P23 1.571341 1_555
O95 Sn7 2.046279 1_545
O96 P10 1.534407 1_545
O97 P11 1.532379 1_545
O98 P6 1.512758 1_555
O99 P7 1.508226 1_555
O100 P9 1.508960 1_555
O101 P8 1.505560 1_555
O102 P2 1.552201 1_555
O102 Sn8 2.057331 1_555
O103 P3 1.532271 1_555
O104 P5 1.541418 1_555
O104 Sn8 2.069081 1_555
O105 P4 1.521532 1_555
O106 P0 1.543121 1_555
O106 Sn8 2.064620 1_555
O107 P1 1.518435 1_555
O108 P24 1.548390 1_555
O108 Sn9 2.066747 1_555
O109 P25 1.545282 1_555
O109 Sn10 2.088392 1_555
O110 P27 1.549040 1_555
O110 Sn9 2.067040 1_555
O111 P26 1.543221 1_655
O111 Sn10 2.096754 1_555
O112 P28 1.548922 1_545
O112 Sn9 2.068520 1_555
O113 P29 1.545338 1_545
O113 Sn10 2.097230 1_555
O114 P30 1.546796 1_545
O114 Sn11 2.089794 1_555
O115 P31 1.547705 1_545
O115 Sn12 2.081246 1_555
O116 P32 1.546003 1_555
O116 Sn11 2.082807 1_555
O117 P33 1.548102 1_555
O117 Sn12 2.094792 1_555
O118 P35 1.545072 1_555
O118 Sn11 2.083877 1_555
O119 P34 1.547335 1_655
O119 Sn12 2.090994 1_555
O120 P22 1.547548 1_555
O120 Sn13 2.059475 1_555
O121 P23 1.562264 1_555
O121 Sn14 2.038962 1_555
O122 P19 1.568538 1_455
O122 Sn13 2.028104 1_555
O123 P18 1.541591 1_555
O123 Sn14 2.064432 1_555
O124 P20 1.546329 1_565
O124 Sn13 2.063456 1_555
O125 P21 1.566044 1_565
O125 Sn14 2.028413 1_555
O126 P14 1.557145 1_565
O126 Sn15 2.051630 1_555
O127 P15 1.557559 1_565
O127 Sn16 2.052272 1_555
O128 P16 1.559238 1_555
O128 Sn15 2.045417 1_555
O129 P17 1.559743 1_555
O129 Sn16 2.043289 1_555
O130 P13 1.558001 1_455
O130 Sn15 2.051143 1_555
O131 P12 1.557491 1_555
O131 Sn16 2.049638 1_555
O132 P0 1.566150 1_565
O132 Sn17 2.116356 1_555
O133 P1 1.555057 1_565
O133 Sn18 2.045097 1_555
O134 P2 1.551786 1_555
O134 Sn17 2.059208 1_555
O135 P3 1.564977 1_555
O135 Sn18 2.085153 1_555
O136 P4 1.583738 1_455
O136 Sn17 2.078112 1_555
O137 P5 1.564288 1_555
O137 Sn18 2.112831 1_555
O138 P6 1.572673 1_555
O138 Sn19 2.068773 1_555
O139 P7 1.573963 1_555
O139 Sn20 2.071155 1_555
O140 P8 1.598305 1_455
O140 Sn19 2.107024 1_555
O141 P9 1.596966 1_555
O141 Sn20 2.111223 1_555
O142 P10 1.567249 1_555
O142 Sn19 2.064337 1_555
O143 P11 1.567661 1_555
O143 Sn20 2.064759 1_555
