# generated using pymatgen
data_MgV4CoNiO12
_symmetry_space_group_name_H-M   'P 1'
_cell_length_a   6.87944272
_cell_length_b   6.88537769
_cell_length_c   5.72520258
_cell_angle_alpha   73.62008650
_cell_angle_beta   106.41413739
_cell_angle_gamma   99.46092959
_symmetry_Int_Tables_number   1
_chemical_formula_structural   MgV4CoNiO12
_chemical_formula_sum   'Mg1 V4 Co1 Ni1 O12'
_cell_volume   248.51929669
_cell_formula_units_Z   1
loop_
 _symmetry_equiv_pos_site_id
 _symmetry_equiv_pos_as_xyz
  1  'x, y, z'
loop_
 _atom_site_type_symbol
 _atom_site_label
 _atom_site_symmetry_multiplicity
 _atom_site_fract_x
 _atom_site_fract_y
 _atom_site_fract_z
 _atom_site_occupancy
  Mg  Mg0  1  0.72051800  0.71886800  0.75301700  1
  V  V0  1  0.18147300  0.60638900  0.75192900  1
  V  V1  1  0.38491000  0.80485200  0.25944900  1
  V  V2  1  0.60653600  0.18080500  0.74796000  1
  V  V3  1  0.80541800  0.38395800  0.24088800  1
  Co  Co0  1  0.07769500  0.07718600  0.74996800  1
  Ni  Ni0  1  0.91789100  0.91731900  0.25015300  1
  O  O0  1  0.99263500  0.79178800  0.64779800  1
  O  O1  1  0.09217200  0.36010200  0.77935900  1
  O  O2  1  0.19630800  0.96854700  0.15052200  1
  O  O3  1  0.40391800  0.67917200  0.58744500  1
  O  O4  1  0.35994100  0.09117700  0.71857200  1
  O  O5  1  0.34924800  0.64040200  0.06519300  1
  O  O6  1  0.67848100  0.40217600  0.91345700  1
  O  O7  1  0.62933200  0.92058500  0.28881700  1
  O  O8  1  0.64154800  0.34874600  0.43560100  1
  O  O9  1  0.79268000  0.99278500  0.85235500  1
  O  O10  1  0.91977300  0.62936100  0.20842800  1
  O  O11  1  0.96952200  0.19578100  0.34909000  1
loop_
_geom_bond_atom_site_label_1
_geom_bond_atom_site_label_2
_geom_bond_distance
_geom_bond_site_symmetry_2
Mg0 O9 2.065088 1_555
Mg0 O0 2.068128 1_555
Mg0 O6 2.120207 1_555
Mg0 O3 2.121483 1_555
Mg0 O10 2.531498 1_556
Mg0 O7 2.578363 1_555
Co0 O4 1.984379 1_555
Co0 O1 1.986076 1_555
Co0 O9 2.146786 1_445
Co0 O0 2.150098 1_445
Co0 O2 2.158699 1_546
Co0 O11 2.159997 1_455
Ni0 O7 2.063021 1_555
Ni0 O10 2.065346 1_555
Ni0 O11 2.097154 1_565
Ni0 O2 2.097673 1_655
Ni0 O0 2.137538 1_555
Ni0 O9 2.137720 1_554
O0 V0 1.830543 1_655
O1 V0 1.685105 1_555
O2 V1 1.723295 1_555
O3 V1 1.809459 1_555
O3 V0 1.943171 1_555
O4 V2 1.685267 1_555
O5 V1 1.744680 1_555
O5 V0 1.892562 1_554
O6 V3 1.808504 1_556
O6 V2 1.941002 1_555
O7 V1 1.722194 1_555
O8 V3 1.743654 1_555
O8 V2 1.891764 1_555
O9 V2 1.830049 1_565
O10 V3 1.725402 1_555
O11 V3 1.723357 1_555
