# generated using pymatgen
data_YbSbPd
_symmetry_space_group_name_H-M   'P 1'
_cell_length_a   4.66510100
_cell_length_b   7.32656600
_cell_length_c   7.96034400
_cell_angle_alpha   90.00000000
_cell_angle_beta   90.00000000
_cell_angle_gamma   90.00000000
_symmetry_Int_Tables_number   1
_chemical_formula_structural   YbSbPd
_chemical_formula_sum   'Yb4 Sb4 Pd4'
_cell_volume   272.07795381
_cell_formula_units_Z   4
loop_
 _symmetry_equiv_pos_site_id
 _symmetry_equiv_pos_as_xyz
  1  'x, y, z'
loop_
 _atom_site_type_symbol
 _atom_site_label
 _atom_site_symmetry_multiplicity
 _atom_site_fract_x
 _atom_site_fract_y
 _atom_site_fract_z
 _atom_site_occupancy
  Yb  Yb0  1  0.25000000  0.49196800  0.20587800  1
  Yb  Yb1  1  0.75000000  0.50803200  0.79412200  1
  Yb  Yb2  1  0.25000000  0.99196800  0.29412200  1
  Yb  Yb3  1  0.75000000  0.00803200  0.70587800  1
  Sb  Sb0  1  0.25000000  0.30051900  0.59188900  1
  Sb  Sb1  1  0.75000000  0.19948100  0.09188900  1
  Sb  Sb2  1  0.25000000  0.80051900  0.90811100  1
  Sb  Sb3  1  0.75000000  0.69948100  0.40811100  1
  Pd  Pd0  1  0.75000000  0.30974100  0.41921700  1
  Pd  Pd1  1  0.25000000  0.19025900  0.91921700  1
  Pd  Pd2  1  0.75000000  0.80974100  0.08078300  1
  Pd  Pd3  1  0.25000000  0.69025900  0.58078300  1
loop_
_geom_bond_atom_site_label_1
_geom_bond_atom_site_label_2
_geom_bond_distance
_geom_bond_site_symmetry_2
Sb0 Yb1 3.216190 1_555
Sb0 Yb1 3.216190 1_455
Sb0 Yb2 3.275493 1_545
Sb0 Yb3 3.294887 1_455
Sb0 Yb3 3.294887 1_555
Sb0 Yb0 3.377787 1_555
Sb1 Yb2 3.216190 1_545
Sb1 Yb2 3.216190 1_645
Sb1 Yb1 3.275493 1_554
Sb1 Yb0 3.294887 1_655
Sb1 Yb0 3.294887 1_555
Sb1 Yb3 3.377787 1_554
Sb2 Yb3 3.216190 1_565
Sb2 Yb3 3.216190 1_465
Sb2 Yb0 3.275493 1_556
Sb2 Yb1 3.294887 1_455
Sb2 Yb1 3.294887 1_555
Sb2 Yb2 3.377787 1_556
Sb3 Yb0 3.216190 1_555
Sb3 Yb0 3.216190 1_655
Sb3 Yb3 3.275493 1_565
Sb3 Yb2 3.294887 1_555
Sb3 Yb2 3.294887 1_655
Sb3 Yb1 3.377787 1_555
Pd0 Sb0 2.708262 1_555
Pd0 Sb0 2.708262 1_655
Pd0 Sb1 2.727996 1_555
Pd0 Sb3 2.856824 1_555
Pd0 Yb3 3.177016 1_555
Pd0 Yb0 3.179204 1_555
Pd0 Yb0 3.179204 1_655
Pd0 Yb1 3.319200 1_555
Pd0 Yb2 3.442797 1_545
Pd0 Yb2 3.442797 1_645
Pd1 Sb1 2.708262 1_456
Pd1 Sb1 2.708262 1_556
Pd1 Sb0 2.727996 1_555
Pd1 Sb2 2.856824 1_545
Pd1 Yb0 3.177016 1_556
Pd1 Yb3 3.179204 1_555
Pd1 Yb3 3.179204 1_455
Pd1 Yb2 3.319200 1_546
Pd1 Yb1 3.442797 1_455
Pd1 Yb1 3.442797 1_555
Pd2 Sb2 2.708262 1_554
Pd2 Sb2 2.708262 1_654
Pd2 Sb3 2.727996 1_555
Pd2 Sb1 2.856824 1_565
Pd2 Yb1 3.177016 1_554
Pd2 Yb2 3.179204 1_655
Pd2 Yb2 3.179204 1_555
Pd2 Yb3 3.319200 1_564
Pd2 Yb0 3.442797 1_655
Pd2 Yb0 3.442797 1_555
Pd3 Sb3 2.708262 1_455
Pd3 Sb3 2.708262 1_555
Pd3 Sb2 2.727996 1_555
Pd3 Sb0 2.856824 1_555
Pd3 Yb2 3.177016 1_555
Pd3 Yb1 3.179204 1_455
Pd3 Yb1 3.179204 1_555
Pd3 Yb0 3.319200 1_555
Pd3 Yb3 3.442797 1_465
Pd3 Yb3 3.442797 1_565
