# generated using pymatgen
data_V6C5
_symmetry_space_group_name_H-M   'P 1'
_cell_length_a   5.09042847
_cell_length_b   5.09043196
_cell_length_c   14.32604575
_cell_angle_alpha   90.00011068
_cell_angle_beta   89.99996175
_cell_angle_gamma   120.00018463
_symmetry_Int_Tables_number   1
_chemical_formula_structural   V6C5
_chemical_formula_sum   'V18 C15'
_cell_volume   321.48827128
_cell_formula_units_Z   3
loop_
 _symmetry_equiv_pos_site_id
 _symmetry_equiv_pos_as_xyz
  1  'x, y, z'
loop_
 _atom_site_type_symbol
 _atom_site_label
 _atom_site_symmetry_multiplicity
 _atom_site_fract_x
 _atom_site_fract_y
 _atom_site_fract_z
 _atom_site_occupancy
  V  V0  1  0.77806106  0.52896951  0.41491473  1
  V  V1  1  0.75090388  0.22194118  0.08159787  1
  V  V2  1  0.47103515  0.24909529  0.74826001  1
  V  V3  1  0.75089616  0.52895701  0.91840156  1
  V  V4  1  0.77806197  0.24909880  0.58508601  1
  V  V5  1  0.47103864  0.22193772  0.25174061  1
  V  V6  1  0.11080341  0.52756790  0.74905739  1
  V  V7  1  0.47243522  0.58323823  0.08239549  1
  V  V8  1  0.41676805  0.88919821  0.41571214  1
  V  V9  1  0.47244202  0.88919819  0.91760446  1
  V  V10  1  0.41676128  0.52756295  0.58428879  1
  V  V11  1  0.11080120  0.58324053  0.25094338  1
  V  V12  1  0.13543929  0.88855248  0.59037963  1
  V  V13  1  0.11144724  0.24689125  0.92369695  1
  V  V14  1  0.75311144  0.86455863  0.25703532  1
  V  V15  1  0.11144817  0.86456111  0.07630457  1
  V  V16  1  0.75311468  0.88855263  0.74296714  1
  V  V17  1  0.13543407  0.24688280  0.40962304  1
  C  C0  1  0.44007866  0.22004334  -0.00000952  1
  C  C1  1  0.77995453  0.55991109  0.66666121  1
  C  C2  1  0.77994656  0.22003493  0.33331894  1
  C  C3  1  0.11175420  0.55586915  -0.00000941  1
  C  C4  1  0.44412305  0.88824547  0.66666090  1
  C  C5  1  0.44414053  0.55589558  0.33331869  1
  C  C6  1  0.78400743  0.89200826  -0.00000945  1
  C  C7  1  0.10800095  0.21600153  0.66666131  1
  C  C8  1  0.10799054  0.89199018  0.33331871  1
  C  C9  1  0.44105418  0.22052952  0.50001284  1
  C  C10  1  0.77947511  0.55894672  0.16669136  1
  C  C11  1  0.77947025  0.22052424  0.83333668  1
  C  C12  1  0.10854317  0.55426985  0.50001209  1
  C  C13  1  0.44572586  0.89145684  0.16669075  1
  C  C14  1  0.44573001  0.55427287  0.83333582  1
loop_
_geom_bond_atom_site_label_1
_geom_bond_atom_site_label_2
_geom_bond_distance
_geom_bond_site_symmetry_2
C0 V3 1.963236 1_554
C0 V1 1.963439 1_555
C0 V13 2.059232 1_554
C0 V15 2.059390 1_545
C0 V9 2.129309 1_544
C0 V7 2.129414 1_555
C1 V4 1.963121 1_555
C1 V2 1.963328 1_555
C1 V12 2.059169 1_655
C1 V16 2.059349 1_555
C1 V10 2.129165 1_555
C1 V6 2.129359 1_655
C2 V5 1.963122 1_555
C2 V0 1.963343 1_555
C2 V14 2.059165 1_545
C2 V17 2.059346 1_655
C2 V11 2.129235 1_655
C2 V8 2.129276 1_545
C3 V13 1.914668 1_554
C3 V15 1.914920 1_555
C3 V3 2.123113 1_454
C3 V1 2.123202 1_455
C3 V9 2.127866 1_554
C3 V7 2.127970 1_555
C4 V12 1.914622 1_555
C4 V16 1.914830 1_555
C4 V4 2.122975 1_565
C4 V2 2.123156 1_565
C4 V10 2.127728 1_555
C4 V6 2.127907 1_555
C5 V14 1.914552 1_555
C5 V17 1.914902 1_555
C5 V5 2.123043 1_555
C5 V0 2.123095 1_555
C5 V11 2.127794 1_555
C5 V8 2.127847 1_555
C6 V9 1.971281 1_554
C6 V7 1.971484 1_555
C6 V13 2.055535 1_664
C6 V15 2.055708 1_655
C6 V3 2.120975 1_554
C6 V1 2.121072 1_565
C7 V10 1.971164 1_555
C7 V6 1.971385 1_555
C7 V12 2.055474 1_545
C7 V16 2.055653 1_445
C7 V4 2.120832 1_455
C7 V2 2.121013 1_555
C8 V11 1.971166 1_555
C8 V8 1.971397 1_555
C8 V14 2.055465 1_455
C8 V17 2.055659 1_565
C8 V5 2.120894 1_565
C8 V0 2.120937 1_455
C9 V10 2.027065 1_555
C9 V8 2.027308 1_545
C9 V4 2.049398 1_555
C9 V0 2.049609 1_555
C9 V12 2.079180 1_545
C9 V17 2.079389 1_555
C10 V11 2.026859 1_655
C10 V7 2.027260 1_555
C10 V5 2.049192 1_555
C10 V1 2.049557 1_555
C10 V14 2.078969 1_555
C10 V15 2.079349 1_655
C11 V9 2.026984 1_545
C11 V6 2.027126 1_655
C11 V3 2.049314 1_555
C11 V2 2.049419 1_555
C11 V13 2.079115 1_655
C11 V16 2.079195 1_545
C12 V4 2.028634 1_455
C12 V0 2.028859 1_455
C12 V10 2.037432 1_555
C12 V8 2.037646 1_555
C12 V12 2.087429 1_555
C12 V17 2.087612 1_555
C13 V5 2.028422 1_565
C13 V1 2.028817 1_565
C13 V11 2.037220 1_555
C13 V7 2.037595 1_555
C13 V14 2.087229 1_555
C13 V15 2.087578 1_555
C14 V3 2.028560 1_555
C14 V2 2.028667 1_555
C14 V9 2.037353 1_555
C14 V6 2.037455 1_555
C14 V13 2.087364 1_555
C14 V16 2.087430 1_555
