# generated using pymatgen
data_ScSnAu
_symmetry_space_group_name_H-M   'P 1'
_cell_length_a   4.57637620
_cell_length_b   4.57637631
_cell_length_c   4.57637675
_cell_angle_alpha   59.99999689
_cell_angle_beta   59.99999609
_cell_angle_gamma   60.00000687
_symmetry_Int_Tables_number   1
_chemical_formula_structural   ScSnAu
_chemical_formula_sum   'Sc1 Sn1 Au1'
_cell_volume   67.77198707
_cell_formula_units_Z   1
loop_
 _symmetry_equiv_pos_site_id
 _symmetry_equiv_pos_as_xyz
  1  'x, y, z'
loop_
 _atom_site_type_symbol
 _atom_site_label
 _atom_site_symmetry_multiplicity
 _atom_site_fract_x
 _atom_site_fract_y
 _atom_site_fract_z
 _atom_site_occupancy
  Sc  Sc0  1  0.50000000  0.50000000  0.50000000  1
  Sn  Sn0  1  0.00000000  -0.00000000  -0.00000000  1
  Au  Au0  1  0.25000000  0.25000000  0.25000000  1
loop_
_geom_bond_atom_site_label_1
_geom_bond_atom_site_label_2
_geom_bond_distance
_geom_bond_site_symmetry_2
Sc0 Sn0 3.235986 1_556
Sc0 Sn0 3.235986 1_665
Sc0 Sn0 3.235987 1_565
Sc0 Sn0 3.235987 1_656
Sc0 Sn0 3.235987 1_566
Sc0 Sn0 3.235987 1_655
Au0 Sc0 2.802447 1_455
Au0 Sn0 2.802447 1_655
Au0 Sn0 2.802447 1_555
Au0 Sc0 2.802447 1_555
Au0 Sc0 2.802447 1_554
Au0 Sn0 2.802447 1_556
Au0 Sc0 2.802447 1_545
Au0 Sn0 2.802447 1_565
