# generated using pymatgen
data_Na9Ta4Zn2Si6(PO12)3
_symmetry_space_group_name_H-M   'P 1'
_cell_length_a   15.75055981
_cell_length_b   27.07961723
_cell_length_c   9.02875850
_cell_angle_alpha   89.98645754
_cell_angle_beta   124.99709015
_cell_angle_gamma   90.02478472
_symmetry_Int_Tables_number   1
_chemical_formula_structural   Na9Ta4Zn2Si6(PO12)3
_chemical_formula_sum   'Na36 Ta16 Zn8 Si24 P12 O144'
_cell_volume   3154.61579812
_cell_formula_units_Z   4
loop_
 _symmetry_equiv_pos_site_id
 _symmetry_equiv_pos_as_xyz
  1  'x, y, z'
loop_
 _atom_site_type_symbol
 _atom_site_label
 _atom_site_symmetry_multiplicity
 _atom_site_fract_x
 _atom_site_fract_y
 _atom_site_fract_z
 _atom_site_occupancy
  Na  Na0  1  0.25807022  0.24493117  0.03020239  1
  Na  Na1  1  0.25107783  0.59036860  0.02101333  1
  Na  Na2  1  0.26100520  0.91242592  0.02811098  1
  Na  Na3  1  0.75083802  0.25185064  0.50451816  1
  Na  Na4  1  0.74568873  0.58112112  0.50149317  1
  Na  Na5  1  0.75935515  0.91683810  0.52424322  1
  Na  Na6  1  0.75107783  0.09036860  0.02101333  1
  Na  Na7  1  0.76100520  0.41242592  0.02811098  1
  Na  Na8  1  0.75807022  0.74493117  0.03020239  1
  Na  Na9  1  0.24568873  0.08112112  0.50149317  1
  Na  Na10  1  0.25935515  0.41683810  0.52424322  1
  Na  Na11  1  0.25083802  0.75185064  0.50451816  1
  Na  Na12  1  0.48497639  0.02680803  0.71537190  1
  Na  Na13  1  0.49036033  0.37044342  0.74942063  1
  Na  Na14  1  0.48487412  0.69650611  0.72260162  1
  Na  Na15  1  0.48912052  0.29421655  0.25443745  1
  Na  Na16  1  0.49863659  0.62563556  0.26677911  1
  Na  Na17  1  0.49990006  0.95645571  0.27800033  1
  Na  Na18  1  0.98487412  0.19650611  0.72260162  1
  Na  Na19  1  0.98497639  0.52680803  0.71537190  1
  Na  Na20  1  0.99036033  0.87044342  0.74942063  1
  Na  Na21  1  0.99863659  0.12563556  0.26677911  1
  Na  Na22  1  0.99990006  0.45645571  0.27800033  1
  Na  Na23  1  0.98912052  0.79421655  0.25443745  1
  Na  Na24  1  0.81684068  0.98199339  0.21196785  1
  Na  Na25  1  0.20868485  0.30869439  0.29504979  1
  Na  Na26  1  0.20029756  0.97403482  0.27555650  1
  Na  Na27  1  0.20131955  0.35897680  0.78789499  1
  Na  Na28  1  0.82011765  0.01852311  0.71764307  1
  Na  Na29  1  0.81455687  0.69499004  0.68128482  1
  Na  Na30  1  0.31684068  0.48199339  0.21196785  1
  Na  Na31  1  0.70029756  0.47403482  0.27555650  1
  Na  Na32  1  0.70868485  0.80869439  0.29504979  1
  Na  Na33  1  0.70131955  0.85897680  0.78789499  1
  Na  Na34  1  0.31455687  0.19499004  0.68128482  1
  Na  Na35  1  0.32011765  0.51852311  0.71764307  1
  Ta  Ta0  1  0.10471730  0.24990251  0.57734088  1
  Ta  Ta1  1  0.10644336  0.58424103  0.56824906  1
  Ta  Ta2  1  0.10607380  0.91580783  0.56685440  1
  Ta  Ta3  1  0.89122806  0.24978113  0.93331493  1
  Ta  Ta4  1  0.89634066  0.58266851  0.94167707  1
  Ta  Ta5  1  0.10562053  0.08417125  0.05960061  1
  Ta  Ta6  1  0.10488681  0.41717118  0.06178304  1
  Ta  Ta7  1  0.10575065  0.75040251  0.06204670  1
  Ta  Ta8  1  0.60644336  0.08424103  0.56824906  1
  Ta  Ta9  1  0.60607380  0.41580783  0.56685440  1
  Ta  Ta10  1  0.60471730  0.74990251  0.57734088  1
  Ta  Ta11  1  0.39634066  0.08266851  0.94167707  1
  Ta  Ta12  1  0.39122806  0.74978113  0.93331493  1
  Ta  Ta13  1  0.60575065  0.25040251  0.06204670  1
  Ta  Ta14  1  0.60562053  0.58417125  0.05960061  1
  Ta  Ta15  1  0.60488681  0.91717118  0.06178304  1
  Zn  Zn0  1  0.89700608  0.91577574  0.94608161  1
  Zn  Zn1  1  0.89542405  0.08769117  0.43925837  1
  Zn  Zn2  1  0.90174076  0.41706424  0.46345273  1
  Zn  Zn3  1  0.90006957  0.74977430  0.44439374  1
  Zn  Zn4  1  0.39700608  0.41577574  0.94608161  1
  Zn  Zn5  1  0.40006957  0.24977430  0.44439374  1
  Zn  Zn6  1  0.39542405  0.58769117  0.43925837  1
  Zn  Zn7  1  0.40174076  0.91706424  0.46345273  1
  Si  Si0  1  0.99479526  0.32073262  0.74334463  1
  Si  Si1  1  0.49479526  0.82073262  0.74334463  1
  Si  Si2  1  0.35285293  0.29834733  0.75415333  1
  Si  Si3  1  0.35265096  0.63075449  0.75236063  1
  Si  Si4  1  0.35076181  0.96421061  0.74737556  1
  Si  Si5  1  0.64054593  0.29779516  0.73211773  1
  Si  Si6  1  0.64585225  0.63120924  0.73663786  1
  Si  Si7  1  0.64618954  0.96753849  0.74062224  1
  Si  Si8  1  0.64716184  0.03408892  0.24828537  1
  Si  Si9  1  0.64252518  0.70019927  0.24687262  1
  Si  Si10  1  0.35321555  0.03643508  0.25629596  1
  Si  Si11  1  0.34975115  0.37025285  0.24847210  1
  Si  Si12  1  0.35267545  0.70409983  0.25729123  1
  Si  Si13  1  0.85265096  0.13075449  0.75236063  1
  Si  Si14  1  0.85076181  0.46421061  0.74737556  1
  Si  Si15  1  0.85285293  0.79834733  0.75415333  1
  Si  Si16  1  0.14585225  0.13120924  0.73663786  1
  Si  Si17  1  0.14618954  0.46753849  0.74062224  1
  Si  Si18  1  0.14054593  0.79779516  0.73211773  1
  Si  Si19  1  0.14252518  0.20019927  0.24687262  1
  Si  Si20  1  0.14716184  0.53408892  0.24828537  1
  Si  Si21  1  0.85267545  0.20409983  0.25729123  1
  Si  Si22  1  0.85321555  0.53643508  0.25629596  1
  Si  Si23  1  0.84975115  0.87025285  0.24847210  1
  P  P0  1  0.00186615  0.65346954  0.74825287  1
  P  P1  1  0.00250489  0.98699623  0.74079132  1
  P  P2  1  0.00284700  0.01236012  0.24101936  1
  P  P3  1  0.00243770  0.34567804  0.24942909  1
  P  P4  1  0.00286842  0.68038599  0.24765922  1
  P  P5  1  0.50186615  0.15346954  0.74825287  1
  P  P6  1  0.50250489  0.48699623  0.74079132  1
  P  P7  1  0.50286842  0.18038599  0.24765922  1
  P  P8  1  0.50284700  0.51236012  0.24101936  1
  P  P9  1  0.50243770  0.84567804  0.24942909  1
  P  P10  1  0.63953847  0.36612072  0.23876691  1
  P  P11  1  0.13953847  0.86612072  0.23876691  1
  O  O0  1  0.14944812  0.19288565  0.74767645  1
  O  O1  1  0.14620835  0.52977364  0.74580722  1
  O  O2  1  0.14366062  0.85967448  0.73626113  1
  O  O3  1  0.84516883  0.19063152  0.77673142  1
  O  O4  1  0.84728469  0.52497061  0.78186994  1
  O  O5  1  0.84118778  0.85747993  0.75480185  1
  O  O6  1  0.84890327  0.14524937  0.24686850  1
  O  O7  1  0.84226726  0.47747803  0.24105185  1
  O  O8  1  0.84106664  0.81106725  0.25422404  1
  O  O9  1  0.14241402  0.13847415  0.23853189  1
  O  O10  1  0.13800694  0.47280007  0.24189905  1
  O  O11  1  0.14600662  0.80746302  0.24741633  1
  O  O12  1  0.64620835  0.02977364  0.74580722  1
  O  O13  1  0.64366062  0.35967448  0.73626113  1
  O  O14  1  0.64944812  0.69288565  0.74767645  1
  O  O15  1  0.34728469  0.02497061  0.78186994  1
  O  O16  1  0.34118778  0.35747993  0.75480185  1
  O  O17  1  0.34516883  0.69063152  0.77673142  1
  O  O18  1  0.34106664  0.31106725  0.25422404  1
  O  O19  1  0.34890327  0.64524937  0.24686850  1
  O  O20  1  0.34226726  0.97747803  0.24105185  1
  O  O21  1  0.64600662  0.30746302  0.24741633  1
  O  O22  1  0.64241402  0.63847415  0.23853189  1
  O  O23  1  0.63800694  0.97280007  0.24189905  1
  O  O24  1  0.42733169  0.18291065  0.57884631  1
  O  O25  1  0.43561718  0.51845333  0.57421537  1
  O  O26  1  0.42504222  0.85224306  0.56690326  1
  O  O27  1  0.56414616  0.18780941  0.91872979  1
  O  O28  1  0.56714180  0.52033788  0.91769054  1
  O  O29  1  0.57026375  0.85647340  0.92711374  1
  O  O30  1  0.56212381  0.14534716  0.41680482  1
  O  O31  1  0.56569361  0.47671890  0.41022907  1
  O  O32  1  0.56630665  0.81231730  0.42313132  1
  O  O33  1  0.44836247  0.14667733  0.07754355  1
  O  O34  1  0.44164432  0.48288032  0.06784797  1
  O  O35  1  0.45092750  0.81122685  0.08287365  1
  O  O36  1  0.93561718  0.01845333  0.57421537  1
  O  O37  1  0.92504222  0.35224306  0.56690326  1
  O  O38  1  0.92733169  0.68291065  0.57884631  1
  O  O39  1  0.06714180  0.02033788  0.91769054  1
  O  O40  1  0.07026375  0.35647340  0.92711374  1
  O  O41  1  0.06414616  0.68780941  0.91872979  1
  O  O42  1  0.06630665  0.31231730  0.42313132  1
  O  O43  1  0.06212381  0.64534716  0.41680482  1
  O  O44  1  0.06569361  0.97671890  0.41022907  1
  O  O45  1  0.95092750  0.31122685  0.08287365  1
  O  O46  1  0.94836247  0.64667733  0.07754355  1
  O  O47  1  0.94164432  0.98288032  0.06784797  1
  O  O48  1  0.25380905  0.27220124  0.74703258  1
  O  O49  1  0.25402887  0.60451607  0.73988878  1
  O  O50  1  0.25222919  0.93777121  0.73044515  1
  O  O51  1  0.75073149  0.27889270  0.77198240  1
  O  O52  1  0.75708230  0.61565067  0.76896881  1
  O  O53  1  0.74657867  0.94933657  0.75188304  1
  O  O54  1  0.74427178  0.05131375  0.24929469  1
  O  O55  1  0.73203116  0.39035008  0.25736594  1
  O  O56  1  0.73525415  0.72557279  0.25240406  1
  O  O57  1  0.25195964  0.06076559  0.23977304  1
  O  O58  1  0.25439081  0.39748358  0.25194338  1
  O  O59  1  0.25128403  0.73017016  0.23669145  1
  O  O60  1  0.75402887  0.10451607  0.73988878  1
  O  O61  1  0.75222919  0.43777121  0.73044515  1
  O  O62  1  0.75380905  0.77220124  0.74703258  1
  O  O63  1  0.25708230  0.11565067  0.76896881  1
  O  O64  1  0.24657867  0.44933657  0.75188304  1
  O  O65  1  0.25073149  0.77889270  0.77198240  1
  O  O66  1  0.23525415  0.22557279  0.25240406  1
  O  O67  1  0.24427178  0.55131375  0.24929469  1
  O  O68  1  0.23203116  0.89035008  0.25736594  1
  O  O69  1  0.75128403  0.23017016  0.23669145  1
  O  O70  1  0.75195964  0.56076559  0.23977304  1
  O  O71  1  0.75439081  0.89748358  0.25194338  1
  O  O72  1  0.34811742  0.27998092  0.58099663  1
  O  O73  1  0.35840964  0.62382299  0.58432174  1
  O  O74  1  0.34912957  0.96413572  0.56824287  1
  O  O75  1  0.63001794  0.28384320  0.90407199  1
  O  O76  1  0.63674730  0.61608303  0.90866918  1
  O  O77  1  0.64383577  0.95289063  0.92318672  1
  O  O78  1  0.64472197  0.04953343  0.42702513  1
  O  O79  1  0.63367234  0.38041485  0.40471840  1
  O  O80  1  0.64026368  0.71379754  0.42717324  1
  O  O81  1  0.35773455  0.05871765  0.08995198  1
  O  O82  1  0.33704056  0.38890944  0.06900063  1
  O  O83  1  0.35711708  0.72586403  0.09167157  1
  O  O84  1  0.85840964  0.12382299  0.58432174  1
  O  O85  1  0.84912957  0.46413572  0.56824287  1
  O  O86  1  0.84811742  0.77998092  0.58099663  1
  O  O87  1  0.13674730  0.11608303  0.90866918  1
  O  O88  1  0.14383577  0.45289063  0.92318672  1
  O  O89  1  0.13001794  0.78384320  0.90407199  1
  O  O90  1  0.14026368  0.21379754  0.42717324  1
  O  O91  1  0.14472197  0.54953343  0.42702513  1
  O  O92  1  0.13367234  0.88041485  0.40471840  1
  O  O93  1  0.85711708  0.22586403  0.09167157  1
  O  O94  1  0.85773455  0.55871765  0.08995198  1
  O  O95  1  0.83704056  0.88890944  0.06900063  1
  O  O96  1  0.46118674  0.27397670  0.93913925  1
  O  O97  1  0.46015236  0.60571466  0.93512666  1
  O  O98  1  0.46093156  0.94158645  0.92463411  1
  O  O99  1  0.54392397  0.27702345  0.54643774  1
  O  O100  1  0.54818281  0.61096300  0.55235507  1
  O  O101  1  0.54026630  0.94824497  0.56416219  1
  O  O102  1  0.53472265  0.05478802  0.07432007  1
  O  O103  1  0.53890504  0.38058860  0.06278259  1
  O  O104  1  0.52871024  0.71748164  0.07170428  1
  O  O105  1  0.46260983  0.05794677  0.43956461  1
  O  O106  1  0.46145550  0.39291471  0.43026603  1
  O  O107  1  0.46149347  0.72534055  0.44508306  1
  O  O108  1  0.96015236  0.10571466  0.93512666  1
  O  O109  1  0.96093156  0.44158645  0.92463411  1
  O  O110  1  0.96118674  0.77397670  0.93913925  1
  O  O111  1  0.04818281  0.11096300  0.55235507  1
  O  O112  1  0.04026630  0.44824497  0.56416219  1
  O  O113  1  0.04392397  0.77702345  0.54643774  1
  O  O114  1  0.02871024  0.21748164  0.07170428  1
  O  O115  1  0.03472265  0.55478802  0.07432007  1
  O  O116  1  0.03890504  0.88058860  0.06278259  1
  O  O117  1  0.96149347  0.22534055  0.44508306  1
  O  O118  1  0.96260983  0.55794677  0.43956461  1
  O  O119  1  0.96145550  0.89291471  0.43026603  1
  O  O120  1  0.08472580  0.28777276  0.74258753  1
  O  O121  1  0.08242755  0.62233198  0.74297261  1
  O  O122  1  0.08553642  0.95516479  0.73748361  1
  O  O123  1  0.92763016  0.27946276  0.77020334  1
  O  O124  1  0.93299734  0.61651103  0.77135624  1
  O  O125  1  0.93328656  0.95067574  0.75736448  1
  O  O126  1  0.93027886  0.04687817  0.25273708  1
  O  O127  1  0.92499972  0.37957605  0.24379484  1
  O  O128  1  0.92394162  0.71322301  0.24307148  1
  O  O129  1  0.09069481  0.04307958  0.24778725  1
  O  O130  1  0.08685946  0.37665347  0.24811757  1
  O  O131  1  0.08533555  0.71213457  0.24578533  1
  O  O132  1  0.58242755  0.12233198  0.74297261  1
  O  O133  1  0.58553642  0.45516479  0.73748361  1
  O  O134  1  0.58472580  0.78777276  0.74258753  1
  O  O135  1  0.43299734  0.11651103  0.77135624  1
  O  O136  1  0.43328656  0.45067574  0.75736448  1
  O  O137  1  0.42763016  0.77946276  0.77020334  1
  O  O138  1  0.42394162  0.21322301  0.24307148  1
  O  O139  1  0.43027886  0.54687817  0.25273708  1
  O  O140  1  0.42499972  0.87957605  0.24379484  1
  O  O141  1  0.58533555  0.21213457  0.24578533  1
  O  O142  1  0.59069481  0.54307958  0.24778725  1
  O  O143  1  0.58685946  0.87665347  0.24811757  1
loop_
_geom_bond_atom_site_label_1
_geom_bond_atom_site_label_2
_geom_bond_distance
_geom_bond_site_symmetry_2
Na0 O66 2.292409 1_555
Na0 O138 2.344810 1_555
Na0 O18 2.444208 1_555
Na0 O0 2.532562 1_554
Na0 O48 2.624638 1_554
Na0 O120 2.722554 1_554
Na1 O19 2.266360 1_555
Na1 O67 2.372852 1_555
Na1 O121 2.541478 1_554
Na1 O49 2.593506 1_554
Na1 O1 2.624239 1_554
Na1 O139 2.637958 1_555
Na2 O140 2.342393 1_555
Na2 O20 2.369541 1_555
Na2 O68 2.435730 1_555
Na2 O2 2.610185 1_554
Na2 O50 2.699295 1_554
Na2 O122 2.746963 1_554
Na3 O21 2.446768 1_555
Na3 O69 2.492450 1_555
Na3 O51 2.524546 1_555
Na3 O123 2.530660 1_555
Na3 O141 2.534293 1_555
Na3 O3 2.609179 1_555
Na4 O142 2.419181 1_555
Na4 O70 2.483101 1_555
Na4 O52 2.498483 1_555
Na4 O22 2.503084 1_555
Na4 O4 2.575776 1_555
Na4 O124 2.704083 1_555
Na5 O5 2.345390 1_555
Na5 O53 2.348339 1_555
Na5 O71 2.470879 1_555
Na5 O125 2.481801 1_555
Na5 O23 2.619140 1_555
Na5 O143 2.647686 1_555
Na6 O6 2.266360 1_555
Na6 O54 2.372852 1_555
Na6 O132 2.541478 1_554
Na6 O60 2.593506 1_554
Na6 O12 2.624239 1_554
Na6 O126 2.637958 1_555
Na7 O127 2.342393 1_555
Na7 O7 2.369541 1_555
Na7 O55 2.435730 1_555
Na7 O13 2.610185 1_554
Na7 O61 2.699295 1_554
Na7 O133 2.746963 1_554
Na8 O56 2.292409 1_555
Na8 O128 2.344810 1_555
Na8 O8 2.444208 1_555
Na8 O14 2.532562 1_554
Na8 O62 2.624638 1_554
Na8 O134 2.722554 1_554
Na9 O129 2.419181 1_555
Na9 O57 2.483101 1_555
Na9 O63 2.498483 1_555
Na9 O9 2.503084 1_555
Na9 O15 2.575776 1_555
Na9 O135 2.704083 1_555
Na10 O16 2.345390 1_555
Na10 O64 2.348339 1_555
Na10 O58 2.470879 1_555
Na10 O136 2.481801 1_555
Na10 O10 2.619140 1_555
Na10 O130 2.647686 1_555
Na11 O11 2.446768 1_555
Na11 O59 2.492450 1_555
Na11 O65 2.524546 1_555
Na11 O137 2.530660 1_555
Na11 O131 2.534293 1_555
Na11 O17 2.609179 1_555
Na12 O12 2.393816 1_555
Na12 O74 2.441449 1_545
Na12 O105 2.455443 1_555
Na12 O15 2.561207 1_555
Na12 O135 2.702479 1_555
Na12 O77 2.899160 1_545
Na12 O101 2.918058 1_545
Na12 O132 2.944054 1_555
Na12 O102 2.962944 1_556
Na13 O136 2.368421 1_555
Na13 O16 2.403374 1_555
Na13 O103 2.486688 1_556
Na13 O13 2.501797 1_555
Na13 O106 2.715804 1_555
Na13 O133 2.775705 1_555
Na13 O75 2.961005 1_555
Na14 O107 2.442226 1_555
Na14 O14 2.471250 1_555
Na14 O17 2.517798 1_555
Na14 O137 2.547707 1_555
Na14 O73 2.558408 1_555
Na14 O104 2.870264 1_556
Na14 O134 2.878449 1_555
Na14 O76 2.946256 1_555
Na15 O99 2.302573 1_555
Na15 O18 2.375267 1_555
Na15 O138 2.398377 1_555
Na15 O21 2.533309 1_555
Na15 O96 2.676154 1_554
Na15 O141 2.716995 1_555
Na16 O100 2.259805 1_555
Na16 O19 2.321878 1_555
Na16 O139 2.359100 1_555
Na16 O22 2.444582 1_555
Na16 O142 2.723570 1_555
Na16 O97 2.746525 1_554
Na17 O101 2.290126 1_555
Na17 O140 2.324128 1_555
Na17 O20 2.377129 1_555
Na17 O23 2.417912 1_555
Na17 O143 2.654330 1_555
Na17 O98 2.910678 1_554
Na18 O117 2.442226 1_555
Na18 O0 2.471250 1_655
Na18 O3 2.517798 1_555
Na18 O123 2.547707 1_555
Na18 O84 2.558408 1_555
Na18 O114 2.870264 1_656
Na18 O120 2.878449 1_655
Na18 O87 2.946256 1_655
Na19 O1 2.393816 1_655
Na19 O85 2.441449 1_555
Na19 O118 2.455443 1_555
Na19 O4 2.561207 1_555
Na19 O124 2.702479 1_555
Na19 O88 2.899160 1_655
Na19 O112 2.918058 1_655
Na19 O121 2.944054 1_655
Na19 O115 2.962944 1_656
Na20 O125 2.368421 1_555
Na20 O5 2.403374 1_555
Na20 O116 2.486688 1_656
Na20 O2 2.501797 1_655
Na20 O119 2.715804 1_555
Na20 O122 2.775705 1_655
Na20 O89 2.961005 1_655
Na21 O111 2.259805 1_655
Na21 O6 2.321878 1_555
Na21 O126 2.359100 1_555
Na21 O9 2.444582 1_655
Na21 O129 2.723570 1_655
Na21 O108 2.746525 1_554
Na22 O112 2.290126 1_655
Na22 O127 2.324128 1_555
Na22 O7 2.377129 1_555
Na22 O10 2.417912 1_655
Na22 O130 2.654330 1_655
Na22 O109 2.910678 1_554
Na23 O113 2.302573 1_655
Na23 O8 2.375267 1_555
Na23 O128 2.398377 1_555
Na23 O11 2.533309 1_655
Na23 O110 2.676154 1_554
Na23 O131 2.716995 1_655
Na24 O54 2.321165 1_565
Na24 O126 2.378712 1_565
Na24 O77 2.587261 1_554
Na24 O71 2.596126 1_555
Na25 O18 2.317125 1_555
Na25 O66 2.361353 1_555
Na25 O72 2.364278 1_555
Na25 O130 2.513597 1_555
Na25 O58 2.601961 1_555
Na26 O74 2.333408 1_555
Na26 O68 2.346818 1_555
Na26 O20 2.429975 1_555
Na26 O129 2.458634 1_565
Na26 O57 2.565567 1_565
Na27 O82 2.333314 1_556
Na27 O16 2.387313 1_555
Na27 O120 2.528486 1_555
Na27 O48 2.587154 1_555
Na27 O64 2.620157 1_555
Na28 O53 2.314291 1_545
Na28 O125 2.439402 1_545
Na28 O60 2.605507 1_555
Na28 O78 2.628322 1_555
Na28 O47 2.766030 1_546
Na28 O36 2.772841 1_555
Na28 O12 2.908653 1_555
Na29 O80 2.415665 1_555
Na29 O38 2.450033 1_555
Na29 O62 2.508657 1_555
Na29 O52 2.623317 1_555
Na29 O124 2.630638 1_555
Na29 O86 2.635012 1_555
Na30 O67 2.321165 1_555
Na30 O139 2.378712 1_555
Na30 O88 2.587261 1_554
Na30 O58 2.596126 1_555
Na31 O85 2.333408 1_555
Na31 O55 2.346818 1_555
Na31 O7 2.429975 1_555
Na31 O142 2.458634 1_555
Na31 O70 2.565567 1_555
Na32 O8 2.317125 1_555
Na32 O56 2.361353 1_555
Na32 O86 2.364278 1_555
Na32 O143 2.513597 1_555
Na32 O71 2.601961 1_555
Na33 O95 2.333314 1_556
Na33 O5 2.387313 1_555
Na33 O134 2.528486 1_555
Na33 O62 2.587154 1_555
Na33 O53 2.620157 1_555
Na34 O90 2.415665 1_555
Na34 O24 2.450033 1_555
Na34 O48 2.508657 1_555
Na34 O63 2.623317 1_555
Na34 O135 2.630638 1_555
Na34 O72 2.635012 1_555
Na35 O64 2.314291 1_555
Na35 O136 2.439402 1_555
Na35 O49 2.605507 1_555
Na35 O91 2.628322 1_555
Na35 O34 2.766030 1_556
Na35 O25 2.772841 1_555
Na35 O1 2.908653 1_555
O0 Si16 1.672167 1_555
O0 Ta0 2.000608 1_555
O1 Si17 1.685960 1_555
O1 Ta1 1.996431 1_555
O2 Si18 1.676163 1_555
O2 Ta2 1.990368 1_555
O3 Si13 1.649689 1_555
O3 Ta3 1.978433 1_555
O4 Si14 1.681393 1_555
O4 Ta4 1.959918 1_555
O5 Si15 1.612268 1_555
O5 Zn0 2.122744 1_555
O6 Si21 1.595517 1_555
O6 Zn1 2.126816 1_555
O7 Si22 1.603198 1_555
O7 Zn2 2.329841 1_555
O8 Si23 1.611846 1_555
O8 Zn3 2.176302 1_555
O9 Si19 1.673161 1_555
O9 Ta5 2.008635 1_555
O10 Si20 1.664017 1_555
O10 Ta6 2.052652 1_555
O11 P11 1.590766 1_555
O11 Ta7 2.091373 1_555
O12 Si7 1.685960 1_545
O12 Ta8 1.996431 1_555
O13 Si5 1.676163 1_555
O13 Ta9 1.990368 1_555
O14 Si6 1.672167 1_555
O14 Ta10 2.000608 1_555
O15 Si4 1.681393 1_545
O15 Ta11 1.959918 1_555
O16 Si2 1.612268 1_555
O16 Zn4 2.122744 1_555
O17 Si3 1.649689 1_555
O17 Ta12 1.978433 1_555
O18 Si11 1.611846 1_555
O18 Zn5 2.176302 1_555
O19 Si12 1.595517 1_555
O19 Zn6 2.126816 1_555
O20 Si10 1.603198 1_565
O20 Zn7 2.329841 1_555
O21 P10 1.590766 1_555
O21 Ta13 2.091373 1_555
O22 Si9 1.673161 1_555
O22 Ta14 2.008635 1_555
O23 Si8 1.664017 1_565
O23 Ta15 2.052652 1_555
O24 P5 1.514532 1_555
O24 Zn5 2.082827 1_555
O25 P6 1.510020 1_555
O25 Zn6 2.125086 1_555
O26 Si1 1.570191 1_555
O26 Zn7 1.922204 1_555
O27 P5 1.569737 1_555
O27 Ta13 2.001058 1_556
O28 P6 1.592905 1_555
O28 Ta14 2.026419 1_556
O29 Si1 1.685256 1_555
O29 Ta15 1.927962 1_556
O30 P7 1.571227 1_555
O30 Ta8 2.000034 1_555
O31 P8 1.584560 1_555
O31 Ta9 2.023138 1_555
O32 P9 1.574206 1_555
O32 Ta10 2.048119 1_555
O33 P7 1.554609 1_555
O33 Ta11 2.006851 1_554
O34 P8 1.510696 1_555
O34 Zn4 2.029356 1_554
O35 P9 1.546122 1_555
O35 Ta12 2.004860 1_554
O36 P1 1.510020 1_645
O36 Zn1 2.125086 1_555
O37 Si0 1.570191 1_555
O37 Zn2 1.922204 1_555
O38 P0 1.514532 1_655
O38 Zn3 2.082827 1_555
O39 P1 1.592905 1_545
O39 Ta5 2.026419 1_556
O40 Si0 1.685256 1_455
O40 Ta6 1.927962 1_556
O41 P0 1.569737 1_555
O41 Ta7 2.001058 1_556
O42 P3 1.574206 1_555
O42 Ta0 2.048119 1_555
O43 P4 1.571227 1_555
O43 Ta1 2.000034 1_555
O44 P2 1.584560 1_565
O44 Ta2 2.023138 1_555
O45 P3 1.546122 1_655
O45 Ta3 2.004860 1_554
O46 P4 1.554609 1_655
O46 Ta4 2.006851 1_554
O47 P2 1.510696 1_665
O47 Zn0 2.029356 1_554
O48 Si2 1.680192 1_555
O48 Ta0 2.024513 1_555
O49 Si3 1.651931 1_555
O49 Ta1 1.993415 1_555
O50 Si4 1.634466 1_555
O50 Ta2 1.983355 1_555
O51 Si5 1.639399 1_555
O51 Ta3 1.985873 1_555
O52 Si6 1.657095 1_555
O52 Ta4 2.029288 1_555
O53 Si7 1.603023 1_555
O53 Zn0 2.179395 1_555
O54 Si8 1.593903 1_555
O54 Zn1 2.212451 1_555
O55 P10 1.516445 1_555
O55 Zn2 2.329027 1_555
O56 Si9 1.588472 1_555
O56 Zn3 2.238429 1_555
O57 Si10 1.651608 1_555
O57 Ta5 2.015068 1_555
O58 Si11 1.689865 1_555
O58 Ta6 2.034721 1_555
O59 Si12 1.656357 1_555
O59 Ta7 1.973711 1_555
O60 Si13 1.651931 1_555
O60 Ta8 1.993415 1_555
O61 Si14 1.634466 1_555
O61 Ta9 1.983355 1_555
O62 Si15 1.680192 1_555
O62 Ta10 2.024513 1_555
O63 Si16 1.657095 1_555
O63 Ta11 2.029288 1_555
O64 Si17 1.603023 1_555
O64 Zn4 2.179395 1_555
O65 Si18 1.639399 1_555
O65 Ta12 1.985873 1_555
O66 Si19 1.588472 1_555
O66 Zn5 2.238429 1_555
O67 Si20 1.593903 1_555
O67 Zn6 2.212451 1_555
O68 P11 1.516445 1_555
O68 Zn7 2.329027 1_555
O69 Si21 1.656357 1_555
O69 Ta13 1.973711 1_555
O70 Si22 1.651608 1_555
O70 Ta14 2.015068 1_555
O71 Si23 1.689865 1_555
O71 Ta15 2.034721 1_555
O72 Si2 1.601153 1_555
O72 Zn5 2.004630 1_555
O73 Si3 1.582183 1_555
O73 Zn6 1.972213 1_555
O74 Si4 1.602741 1_555
O74 Zn7 2.026678 1_555
O75 Si5 1.695752 1_555
O75 Ta13 1.903930 1_556
O76 Si6 1.689977 1_555
O76 Ta14 1.899887 1_556
O77 Si7 1.716240 1_555
O77 Ta15 1.938380 1_556
O78 Si8 1.688849 1_555
O78 Ta8 1.937923 1_555
O79 P10 1.600775 1_555
O79 Ta9 1.995359 1_555
O80 Si9 1.689291 1_555
O80 Ta10 1.994863 1_555
O81 Si10 1.657395 1_555
O81 Ta11 1.875003 1_554
O82 Si11 1.596439 1_555
O82 Zn4 1.963266 1_554
O83 Si12 1.645549 1_555
O83 Ta12 1.905978 1_554
O84 Si13 1.582183 1_555
O84 Zn1 1.972213 1_555
O85 Si14 1.602741 1_555
O85 Zn2 2.026678 1_555
O86 Si15 1.601153 1_555
O86 Zn3 2.004630 1_555
O87 Si16 1.689977 1_555
O87 Ta5 1.899887 1_556
O88 Si17 1.716240 1_555
O88 Ta6 1.938380 1_556
O89 Si18 1.695752 1_555
O89 Ta7 1.903930 1_556
O90 Si19 1.689291 1_555
O90 Ta0 1.994863 1_555
O91 Si20 1.688849 1_555
O91 Ta1 1.937923 1_555
O92 P11 1.600775 1_555
O92 Ta2 1.995359 1_555
O93 Si21 1.645549 1_555
O93 Ta3 1.905978 1_554
O94 Si22 1.657395 1_555
O94 Ta4 1.875003 1_554
O95 Si23 1.596439 1_555
O95 Zn0 1.963266 1_554
O96 Si2 1.693528 1_555
O96 Ta13 1.981436 1_556
O97 Si3 1.686779 1_555
O97 Ta14 1.974887 1_556
O98 Si4 1.662125 1_555
O98 Ta15 1.972765 1_556
O99 Si5 1.586223 1_555
O99 Zn5 2.032598 1_555
O100 Si6 1.580879 1_555
O100 Zn6 2.099916 1_555
O101 Si7 1.595423 1_555
O101 Zn7 2.005818 1_555
O102 Si8 1.651457 1_555
O102 Ta11 1.939513 1_554
O103 P10 1.517185 1_555
O103 Zn4 2.076876 1_554
O104 Si9 1.637731 1_555
O104 Ta12 1.978087 1_554
O105 Si10 1.665939 1_555
O105 Ta8 1.992225 1_555
O106 Si11 1.689141 1_555
O106 Ta9 1.967378 1_555
O107 Si12 1.676139 1_555
O107 Ta10 1.966303 1_555
O108 Si13 1.686779 1_555
O108 Ta5 1.974887 1_656
O109 Si14 1.662125 1_555
O109 Ta6 1.972765 1_656
O110 Si15 1.693528 1_555
O110 Ta7 1.981436 1_656
O111 Si16 1.580879 1_555
O111 Zn1 2.099916 1_455
O112 Si17 1.595423 1_555
O112 Zn2 2.005818 1_455
O113 Si18 1.586223 1_555
O113 Zn3 2.032598 1_455
O114 Si19 1.637731 1_555
O114 Ta3 1.978087 1_454
O115 Si20 1.651457 1_555
O115 Ta4 1.939513 1_454
O116 P11 1.517185 1_555
O116 Zn0 2.076876 1_454
O117 Si21 1.676139 1_555
O117 Ta0 1.966303 1_655
O118 Si22 1.665939 1_555
O118 Ta1 1.992225 1_655
O119 Si23 1.689141 1_555
O119 Ta2 1.967378 1_655
O120 Si0 1.677864 1_455
O120 Ta0 1.979062 1_555
O121 P0 1.547145 1_555
O121 Ta1 2.093147 1_555
O122 P1 1.581144 1_555
O122 Ta2 2.046109 1_555
O123 Si0 1.649248 1_555
O123 Ta3 2.027611 1_555
O124 P0 1.574892 1_655
O124 Ta4 2.134318 1_555
O125 P1 1.537686 1_655
O125 Zn0 2.288789 1_555
O126 P2 1.526770 1_655
O126 Zn1 2.328258 1_555
O127 P3 1.504205 1_655
O127 Zn2 2.435707 1_555
O128 P4 1.509864 1_655
O128 Zn3 2.282586 1_555
O129 P2 1.585018 1_555
O129 Ta5 2.153473 1_555
O130 P3 1.577624 1_555
O130 Ta6 2.159086 1_555
O131 P4 1.565511 1_555
O131 Ta7 2.130752 1_555
O132 P5 1.547145 1_555
O132 Ta8 2.093147 1_555
O133 P6 1.581144 1_555
O133 Ta9 2.046109 1_555
O134 Si1 1.677864 1_555
O134 Ta10 1.979062 1_555
O135 P5 1.574892 1_555
O135 Ta11 2.134318 1_555
O136 P6 1.537686 1_555
O136 Zn4 2.288789 1_555
O137 Si1 1.649248 1_555
O137 Ta12 2.027611 1_555
O138 P7 1.509864 1_555
O138 Zn5 2.282586 1_555
O139 P8 1.526770 1_555
O139 Zn6 2.328258 1_555
O140 P9 1.504205 1_555
O140 Zn7 2.435707 1_555
O141 P7 1.565511 1_555
O141 Ta13 2.130752 1_555
O142 P8 1.585018 1_555
O142 Ta14 2.153473 1_555
O143 P9 1.577624 1_555
O143 Ta15 2.159086 1_555
