# generated using pymatgen
data_Na3TiAlSi(PO6)2
_symmetry_space_group_name_H-M   'P 1'
_cell_length_a   8.74465909
_cell_length_b   8.74465881
_cell_length_c   21.78001705
_cell_angle_alpha   90.14927830
_cell_angle_beta   89.85072170
_cell_angle_gamma   120.12650912
_symmetry_Int_Tables_number   1
_chemical_formula_structural   Na3TiAlSi(PO6)2
_chemical_formula_sum   'Na18 Ti6 Al6 Si6 P12 O72'
_cell_volume   1440.51435413
_cell_formula_units_Z   6
loop_
 _symmetry_equiv_pos_site_id
 _symmetry_equiv_pos_as_xyz
  1  'x, y, z'
loop_
 _atom_site_type_symbol
 _atom_site_label
 _atom_site_symmetry_multiplicity
 _atom_site_fract_x
 _atom_site_fract_y
 _atom_site_fract_z
 _atom_site_occupancy
  Na  Na0  1  0.00098318  0.99743907  0.49819462  1
  Na  Na1  1  0.00256093  0.99901682  0.99819462  1
  Na  Na2  1  0.66697566  0.32960020  0.83168284  1
  Na  Na3  1  0.67039980  0.33302434  0.33168284  1
  Na  Na4  1  0.34798606  0.67521728  0.16491935  1
  Na  Na5  1  0.32478272  0.65201394  0.66491935  1
  Na  Na6  1  0.36298701  0.36516078  0.24881023  1
  Na  Na7  1  0.99528943  0.62893377  0.24774750  1
  Na  Na8  1  0.63483922  0.63701299  0.74881023  1
  Na  Na9  1  0.37106623  0.00471057  0.74774750  1
  Na  Na10  1  0.03568475  0.70088846  0.58154591  1
  Na  Na11  1  0.66073556  0.96527406  0.58397818  1
  Na  Na12  1  0.29911154  0.96431525  0.08154591  1
  Na  Na13  1  0.03472594  0.33926444  0.08397818  1
  Na  Na14  1  0.96982333  0.66851023  0.91741989  1
  Na  Na15  1  0.70013453  0.03193673  0.91424372  1
  Na  Na16  1  0.96806327  0.29986547  0.41424372  1
  Na  Na17  1  0.33148977  0.03017667  0.41741989  1
  Ti  Ti0  1  0.00620512  0.00821906  0.64746885  1
  Ti  Ti1  1  0.99178094  0.99379488  0.14746885  1
  Ti  Ti2  1  0.66235612  0.33664844  0.98050238  1
  Ti  Ti3  1  0.66335156  0.33764388  0.48050238  1
  Ti  Ti4  1  0.32414863  0.66190827  0.31392757  1
  Ti  Ti5  1  0.33809173  0.67585137  0.81392757  1
  Al  Al0  1  0.99152791  0.99307600  0.35273287  1
  Al  Al1  1  0.00692400  0.00847209  0.85273287  1
  Al  Al2  1  0.67150163  0.32702940  0.68587050  1
  Al  Al3  1  0.67297060  0.32849837  0.18587050  1
  Al  Al4  1  0.33021572  0.66863162  0.01896701  1
  Al  Al5  1  0.33136838  0.66978428  0.51896701  1
  Si  Si0  1  0.98803118  0.28010338  0.25212849  1
  Si  Si1  1  0.71989662  0.01196882  0.75212849  1
  Si  Si2  1  0.37722136  0.04255362  0.58453748  1
  Si  Si3  1  0.95744638  0.62277864  0.08453748  1
  Si  Si4  1  0.32702426  0.96041189  0.91832680  1
  Si  Si5  1  0.03958811  0.67297574  0.41832680  1
  P  P0  1  0.29434423  0.00571569  0.25054911  1
  P  P1  1  0.71010033  0.71051629  0.25156341  1
  P  P2  1  0.28948371  0.28989967  0.75156341  1
  P  P3  1  0.99428431  0.70565577  0.75054911  1
  P  P4  1  0.95871613  0.33779318  0.58351788  1
  P  P5  1  0.65773260  0.61600988  0.58576288  1
  P  P6  1  0.66220682  0.04128387  0.08351788  1
  P  P7  1  0.38399012  0.34226740  0.08576288  1
  P  P8  1  0.61836054  0.66636604  0.91776017  1
  P  P9  1  0.05122841  0.37609169  0.91804884  1
  P  P10  1  0.62390831  0.94877159  0.41804884  1
  P  P11  1  0.33363396  0.38163946  0.41776017  1
  O  O0  1  0.20876881  0.03686054  0.30771918  1
  O  O1  1  0.83471630  0.79587288  0.30621034  1
  O  O2  1  0.97281108  0.16630904  0.31231461  1
  O  O3  1  0.20412712  0.16528370  0.80621034  1
  O  O4  1  0.96313946  0.79123119  0.80771918  1
  O  O5  1  0.83369096  0.02718892  0.81231461  1
  O  O6  1  0.80181770  0.96579978  0.69066576  1
  O  O7  1  0.17224683  0.19997225  0.69365614  1
  O  O8  1  0.03496728  0.82724719  0.69288108  1
  O  O9  1  0.80002775  0.82775317  0.19365614  1
  O  O10  1  0.03420022  0.19818230  0.19066576  1
  O  O11  1  0.17275281  0.96503272  0.19288108  1
  O  O12  1  0.87285000  0.37433913  0.63883539  1
  O  O13  1  0.50373092  0.13410176  0.64326666  1
  O  O14  1  0.63691903  0.50741972  0.64324642  1
  O  O15  1  0.86589824  0.49626908  0.14326666  1
  O  O16  1  0.62566087  0.12715000  0.13883539  1
  O  O17  1  0.49258028  0.36308097  0.14324642  1
  O  O18  1  0.46840589  0.30160107  0.02895564  1
  O  O19  1  0.83582670  0.53209027  0.02264270  1
  O  O20  1  0.69987414  0.15921886  0.02527944  1
  O  O21  1  0.46790973  0.16417330  0.52264270  1
  O  O22  1  0.69839893  0.53159411  0.52895564  1
  O  O23  1  0.84078114  0.30012586  0.52527944  1
  O  O24  1  0.52729994  0.69721877  0.97267083  1
  O  O25  1  0.15947997  0.45953831  0.97675802  1
  O  O26  1  0.29462265  0.83265308  0.97677864  1
  O  O27  1  0.54046169  0.84052003  0.47675802  1
  O  O28  1  0.30278123  0.47270006  0.47267083  1
  O  O29  1  0.16734692  0.70537735  0.47677864  1
  O  O30  1  0.13117434  0.63228014  0.35745437  1
  O  O31  1  0.50063136  0.86203408  0.36222485  1
  O  O32  1  0.36405179  0.49114881  0.35809473  1
  O  O33  1  0.13796592  0.49936864  0.86222485  1
  O  O34  1  0.36771986  0.86882566  0.85745437  1
  O  O35  1  0.50885119  0.63594821  0.85809473  1
  O  O36  1  0.03002231  0.85106378  0.40759506  1
  O  O37  1  0.81165488  0.97689094  0.41106215  1
  O  O38  1  0.16788066  0.19479558  0.41209004  1
  O  O39  1  0.02310906  0.18834512  0.91106215  1
  O  O40  1  0.14893622  0.96997769  0.90759506  1
  O  O41  1  0.80520442  0.83211934  0.91209004  1
  O  O42  1  0.96902726  0.16578959  0.58937799  1
  O  O43  1  0.17619781  0.01382270  0.58873791  1
  O  O44  1  0.82780633  0.80390535  0.58850815  1
  O  O45  1  0.98617730  0.82380219  0.08873791  1
  O  O46  1  0.83421041  0.03097274  0.08937799  1
  O  O47  1  0.19609465  0.17219367  0.08850815  1
  O  O48  1  0.68712154  0.17761019  0.74474087  1
  O  O49  1  0.47590689  0.31277254  0.74362417  1
  O  O50  1  0.82570964  0.52535338  0.74163259  1
  O  O51  1  0.68722746  0.52409311  0.24362417  1
  O  O52  1  0.82238981  0.31287846  0.24474087  1
  O  O53  1  0.47464662  0.17429036  0.24163259  1
  O  O54  1  0.64319715  0.50243894  0.92181926  1
  O  O55  1  0.86333992  0.35851086  0.92176561  1
  O  O56  1  0.51184242  0.15056460  0.92254456  1
  O  O57  1  0.64148914  0.13666008  0.42176561  1
  O  O58  1  0.49756106  0.35680285  0.42181926  1
  O  O59  1  0.84943540  0.48815758  0.42254456  1
  O  O60  1  0.36083683  0.50365516  0.07628221  1
  O  O61  1  0.15382588  0.64190479  0.07739258  1
  O  O62  1  0.49817729  0.85656982  0.07579693  1
  O  O63  1  0.35809521  0.84617412  0.57739258  1
  O  O64  1  0.49634484  0.63916317  0.57628221  1
  O  O65  1  0.14343018  0.50182271  0.57579693  1
  O  O66  1  0.30979125  0.83693311  0.25589142  1
  O  O67  1  0.52563197  0.69134430  0.25574392  1
  O  O68  1  0.17254551  0.48105763  0.25553329  1
  O  O69  1  0.30865570  0.47436803  0.75574392  1
  O  O70  1  0.16306689  0.69020875  0.75589142  1
  O  O71  1  0.51894237  0.82745449  0.75553329  1
loop_
_geom_bond_atom_site_label_1
_geom_bond_atom_site_label_2
_geom_bond_distance
_geom_bond_site_symmetry_2
Na0 O36 2.430464 1_555
Na0 O43 2.459873 1_565
Na0 O37 2.467944 1_455
Na0 O38 2.469748 1_565
Na0 O44 2.540832 1_455
Na0 O42 2.565989 1_465
Na1 O40 2.430464 1_555
Na1 O45 2.459873 1_456
Na1 O39 2.467944 1_565
Na1 O41 2.469748 1_455
Na1 O47 2.540832 1_566
Na1 O46 2.565989 1_466
Na2 O48 2.367160 1_555
Na2 O56 2.465345 1_555
Na2 O49 2.502033 1_555
Na2 O50 2.514320 1_555
Na2 O55 2.537939 1_555
Na2 O54 2.545496 1_555
Na3 O52 2.367160 1_555
Na3 O59 2.465345 1_555
Na3 O51 2.502032 1_555
Na3 O53 2.514320 1_555
Na3 O57 2.537939 1_555
Na3 O58 2.545496 1_555
Na4 O62 2.433044 1_555
Na4 O61 2.473701 1_555
Na4 O67 2.478078 1_555
Na4 O60 2.478568 1_555
Na4 O66 2.548195 1_555
Na4 O68 2.553099 1_555
Na5 O65 2.433044 1_555
Na5 O63 2.473701 1_555
Na5 O69 2.478078 1_555
Na5 O64 2.478568 1_555
Na5 O70 2.548195 1_555
Na5 O71 2.553099 1_555
Na6 O53 2.323263 1_555
Na6 O68 2.348224 1_555
Na6 O51 2.455020 1_555
Na6 O67 2.471472 1_555
Na6 O17 2.564706 1_555
Na6 O32 2.618296 1_555
Na6 O10 2.792367 1_555
Na6 O0 2.798311 1_555
Na7 O51 2.372193 1_555
Na7 O52 2.394521 1_555
Na7 O66 2.425467 1_655
Na7 O68 2.473488 1_655
Na7 O15 2.546848 1_555
Na7 O30 2.664897 1_655
Na7 O1 2.786172 1_555
Na7 O11 2.811510 1_655
Na8 O50 2.323263 1_555
Na8 O71 2.348224 1_555
Na8 O49 2.455020 1_555
Na8 O69 2.471472 1_555
Na8 O14 2.564706 1_555
Na8 O35 2.618296 1_555
Na8 O6 2.792367 1_555
Na8 O4 2.798311 1_555
Na9 O49 2.372193 1_555
Na9 O48 2.394521 1_555
Na9 O70 2.425467 1_545
Na9 O71 2.473488 1_545
Na9 O13 2.546848 1_555
Na9 O34 2.664897 1_545
Na9 O3 2.786172 1_555
Na9 O8 2.811510 1_545
Na10 O65 2.361848 1_555
Na10 O43 2.376185 1_565
Na10 O44 2.404310 1_455
Na10 O63 2.444336 1_555
Na10 O29 2.544661 1_555
Na10 O8 2.663448 1_555
Na10 O12 2.768823 1_455
Na10 O22 2.797951 1_455
Na11 O63 2.311611 1_555
Na11 O42 2.368901 1_565
Na11 O64 2.471962 1_555
Na11 O44 2.491263 1_555
Na11 O27 2.568558 1_555
Na11 O6 2.632612 1_555
Na11 O13 2.783445 1_565
Na11 O23 2.840536 1_565
Na12 O62 2.361848 1_555
Na12 O45 2.376185 1_455
Na12 O47 2.404310 1_565
Na12 O61 2.444335 1_555
Na12 O26 2.544661 1_554
Na12 O11 2.663448 1_555
Na12 O16 2.768823 1_565
Na12 O18 2.797951 1_565
Na13 O61 2.311610 1_555
Na13 O46 2.368901 1_455
Na13 O60 2.471962 1_555
Na13 O47 2.491263 1_555
Na13 O25 2.568558 1_554
Na13 O10 2.632612 1_555
Na13 O15 2.783445 1_455
Na13 O20 2.840536 1_455
Na14 O40 2.303274 1_655
Na14 O55 2.385722 1_555
Na14 O54 2.472199 1_555
Na14 O41 2.490345 1_555
Na14 O19 2.577856 1_556
Na14 O4 2.634540 1_555
Na14 O26 2.777740 1_655
Na14 O33 2.821240 1_655
Na15 O41 2.347448 1_545
Na15 O56 2.352019 1_555
Na15 O39 2.444176 1_655
Na15 O55 2.475207 1_555
Na15 O5 2.515728 1_555
Na15 O20 2.660040 1_556
Na15 O34 2.803860 1_545
Na15 O24 2.835421 1_545
Na16 O38 2.347448 1_655
Na16 O59 2.352019 1_555
Na16 O37 2.444176 1_545
Na16 O57 2.475207 1_555
Na16 O2 2.515728 1_555
Na16 O23 2.660040 1_555
Na16 O30 2.803860 1_655
Na16 O28 2.835421 1_655
Na17 O36 2.303274 1_545
Na17 O57 2.385722 1_555
Na17 O58 2.472199 1_555
Na17 O38 2.490345 1_555
Na17 O21 2.577856 1_555
Na17 O0 2.634540 1_555
Na17 O29 2.777740 1_545
Na17 O31 2.821240 1_545
Al0 O2 1.831157 1_565
Al0 O1 1.872235 1_555
Al0 O36 1.874231 1_655
Al0 O37 1.968537 1_555
Al0 O0 1.994679 1_665
Al0 O38 2.104505 1_665
Al1 O5 1.831157 1_455
Al1 O3 1.872235 1_555
Al1 O40 1.874231 1_545
Al1 O39 1.968536 1_555
Al1 O4 1.994679 1_445
Al1 O41 2.104505 1_445
Al2 O13 1.836849 1_555
Al2 O48 1.886462 1_555
Al2 O12 1.892709 1_555
Al2 O14 1.982324 1_555
Al2 O50 1.987742 1_555
Al2 O49 2.073366 1_555
Al3 O15 1.836849 1_555
Al3 O52 1.886462 1_555
Al3 O16 1.892709 1_555
Al3 O17 1.982324 1_555
Al3 O53 1.987742 1_555
Al3 O51 2.073366 1_555
Al4 O26 1.858744 1_554
Al4 O24 1.899797 1_554
Al4 O25 1.917166 1_554
Al4 O61 1.918999 1_555
Al4 O62 1.991496 1_555
Al4 O60 2.027363 1_555
Al5 O29 1.858744 1_555
Al5 O28 1.899797 1_555
Al5 O27 1.917166 1_555
Al5 O63 1.918999 1_555
Al5 O65 1.991496 1_555
Al5 O64 2.027363 1_555
O0 P0 1.543558 1_555
O1 P1 1.531950 1_555
O2 Si0 1.612205 1_555
O3 P2 1.531950 1_555
O4 P3 1.543558 1_555
O5 Si1 1.612205 1_555
O6 Si1 1.658527 1_565
O6 Ti0 1.882746 1_665
O7 P2 1.566013 1_555
O7 Ti0 1.867277 1_555
O8 P3 1.568310 1_455
O8 Ti0 1.988710 1_565
O9 P1 1.566013 1_555
O9 Ti1 1.867277 1_555
O10 Si0 1.658527 1_455
O10 Ti1 1.882746 1_445
O11 P0 1.568310 1_565
O11 Ti1 1.988710 1_455
O12 P4 1.533519 1_555
O13 Si2 1.616762 1_555
O14 P5 1.527690 1_555
O15 Si3 1.616762 1_555
O16 P6 1.533519 1_555
O17 P7 1.527690 1_555
O18 P7 1.568012 1_555
O18 Ti2 1.885392 1_554
O19 Si3 1.653041 1_555
O19 Ti2 1.860386 1_554
O20 P6 1.563537 1_555
O20 Ti2 1.996652 1_554
O21 Si2 1.653041 1_555
O21 Ti3 1.860386 1_555
O22 P5 1.568012 1_555
O22 Ti3 1.885392 1_555
O23 P4 1.563537 1_555
O23 Ti3 1.996652 1_555
O24 P8 1.531730 1_555
O25 P9 1.540019 1_555
O26 Si4 1.623867 1_555
O27 P10 1.540019 1_555
O28 P11 1.531730 1_555
O29 Si5 1.623867 1_555
O30 Si5 1.674494 1_555
O30 Ti4 1.835091 1_555
O31 P10 1.548207 1_555
O31 Ti4 1.959237 1_555
O32 P11 1.557408 1_555
O32 Ti4 1.951704 1_555
O33 P9 1.548207 1_555
O33 Ti5 1.959237 1_555
O34 Si4 1.674494 1_555
O34 Ti5 1.835091 1_555
O35 P8 1.557408 1_555
O35 Ti5 1.951704 1_555
O36 Si5 1.618530 1_555
O37 P10 1.540359 1_555
O38 P11 1.551883 1_555
O39 P9 1.540359 1_555
O40 Si4 1.618530 1_555
O41 P8 1.551883 1_555
O42 P4 1.556912 1_555
O42 Ti0 2.016431 1_655
O43 Si2 1.648509 1_555
O43 Ti0 1.940545 1_555
O44 P5 1.569116 1_555
O44 Ti0 2.115540 1_665
O45 Si3 1.648509 1_555
O45 Ti1 1.940545 1_555
O46 P6 1.556912 1_555
O46 Ti1 2.016431 1_545
O47 P7 1.569116 1_555
O47 Ti1 2.115540 1_445
O48 Si1 1.619971 1_555
O49 P2 1.548832 1_555
O50 P3 1.537361 1_555
O51 P1 1.548832 1_555
O52 Si0 1.619971 1_555
O53 P0 1.537361 1_555
O54 P8 1.556649 1_555
O54 Ti2 2.004524 1_555
O55 P9 1.573378 1_655
O55 Ti2 2.101030 1_555
O56 Si4 1.639428 1_545
O56 Ti2 1.954926 1_555
O57 P10 1.573378 1_545
O57 Ti3 2.101030 1_555
O58 P11 1.556649 1_555
O58 Ti3 2.004525 1_555
O59 Si5 1.639428 1_655
O59 Ti3 1.954926 1_555
O60 P7 1.537502 1_555
O61 Si3 1.646706 1_455
O62 P6 1.539118 1_565
O63 Si2 1.646706 1_565
O64 P5 1.537502 1_555
O65 P4 1.539118 1_455
O66 P0 1.552839 1_565
O66 Ti4 2.039574 1_555
O67 P1 1.538301 1_555
O67 Ti4 2.076359 1_555
O68 Si0 1.688392 1_455
O68 Ti4 1.941609 1_555
O69 P2 1.538301 1_555
O69 Ti5 2.076359 1_555
O70 P3 1.552839 1_455
O70 Ti5 2.039574 1_555
O71 Si1 1.688392 1_565
O71 Ti5 1.941609 1_555
