# generated using pymatgen
data_Na6Ti2Si5Ge2SO24
_symmetry_space_group_name_H-M   'P 1'
_cell_length_a   8.82051398
_cell_length_b   8.81815010
_cell_length_c   21.82536268
_cell_angle_alpha   89.89335628
_cell_angle_beta   89.43931401
_cell_angle_gamma   119.96425363
_symmetry_Int_Tables_number   1
_chemical_formula_structural   Na6Ti2Si5Ge2SO24
_chemical_formula_sum   'Na18 Ti6 Si15 Ge6 S3 O72'
_cell_volume   1470.57042809
_cell_formula_units_Z   3
loop_
 _symmetry_equiv_pos_site_id
 _symmetry_equiv_pos_as_xyz
  1  'x, y, z'
loop_
 _atom_site_type_symbol
 _atom_site_label
 _atom_site_symmetry_multiplicity
 _atom_site_fract_x
 _atom_site_fract_y
 _atom_site_fract_z
 _atom_site_occupancy
  Na  Na0  1  0.63538370  0.00214913  0.25051117  1
  Na  Na1  1  0.36525451  0.36806568  0.24933640  1
  Na  Na2  1  0.99885585  0.62962670  0.25036865  1
  Na  Na3  1  0.63485816  0.63377432  0.74923301  1
  Na  Na4  1  0.99768754  0.36577754  0.75019792  1
  Na  Na5  1  0.36811469  0.00272511  0.75014340  1
  Na  Na6  1  0.29874000  0.33323001  0.58355710  1
  Na  Na7  1  0.03365384  0.70282805  0.58351990  1
  Na  Na8  1  0.67044892  0.96633001  0.58322846  1
  Na  Na9  1  0.03407231  0.33286986  0.08636716  1
  Na  Na10  1  0.96904078  0.66590385  0.91634838  1
  Na  Na11  1  0.33248979  0.03154627  0.41714919  1
  Na  Na12  1  0.98729326  0.99474952  0.49769153  1
  Na  Na13  1  0.01163645  0.00450290  0.99975667  1
  Na  Na14  1  0.66119784  0.31992464  0.83466083  1
  Na  Na15  1  0.68061548  0.33940153  0.33682125  1
  Na  Na16  1  0.34029841  0.66961204  0.16491973  1
  Na  Na17  1  0.33480495  0.66697909  0.66626180  1
  Ti  Ti0  1  0.01279891  0.01446292  0.85251305  1
  Ti  Ti1  1  0.01004407  0.99515699  0.14684837  1
  Ti  Ti2  1  0.66822575  0.34593273  0.18894606  1
  Ti  Ti3  1  0.65731415  0.32773912  0.97776998  1
  Ti  Ti4  1  0.31141031  0.65510380  0.02062559  1
  Ti  Ti5  1  0.32694759  0.67530576  0.31395830  1
  Si  Si0  1  0.28568624  0.00311046  0.25392433  1
  Si  Si1  1  0.71212190  0.71578807  0.25023769  1
  Si  Si2  1  -0.00026584  0.28195977  0.25131837  1
  Si  Si3  1  0.29320506  0.29346898  0.74735300  1
  Si  Si4  1  0.99598096  0.71154889  0.74923970  1
  Si  Si5  1  0.71217868  0.00008423  0.74944710  1
  Si  Si6  1  0.95778209  0.33311003  0.58385778  1
  Si  Si7  1  0.38280462  0.05258596  0.58308133  1
  Si  Si8  1  0.66621215  0.61806000  0.58203416  1
  Si  Si9  1  0.95009483  0.62722476  0.08134591  1
  Si  Si10  1  0.37712580  0.33583305  0.08341547  1
  Si  Si11  1  0.04248977  0.37305432  0.91478372  1
  Si  Si12  1  0.33641693  0.95645488  0.91475291  1
  Si  Si13  1  0.63011313  0.96072056  0.41812011  1
  Si  Si14  1  0.03489552  0.66362461  0.41935198  1
  Ge  Ge0  1  0.97945595  0.97992607  0.35229890  1
  Ge  Ge1  1  0.99961470  0.00064127  0.64628772  1
  Ge  Ge2  1  0.66866175  0.33573260  0.68592633  1
  Ge  Ge3  1  0.68499495  0.33255976  0.48287373  1
  Ge  Ge4  1  0.33858472  0.68233925  0.52153420  1
  Ge  Ge5  1  0.32390441  0.67289163  0.81038324  1
  S  S0  1  0.66368299  0.04167075  0.08316494  1
  S  S1  1  0.61844796  0.66699737  0.91569349  1
  S  S2  1  0.33371110  0.37948621  0.41783379  1
  O  O0  1  0.20029462  0.04397160  0.31408266  1
  O  O1  1  0.84109899  0.78606056  0.30913956  1
  O  O2  1  0.95684803  0.14892024  0.30959161  1
  O  O3  1  0.20520287  0.16143458  0.80594820  1
  O  O4  1  0.95782552  0.79325866  0.80985103  1
  O  O5  1  0.84385824  0.04031393  0.80629988  1
  O  O6  1  0.79226349  0.95494002  0.68779642  1
  O  O7  1  0.16380870  0.21080863  0.68818486  1
  O  O8  1  0.04187003  0.83978181  0.68853374  1
  O  O9  1  0.79957191  0.84515340  0.19192579  1
  O  O10  1  0.03870793  0.20345148  0.18910879  1
  O  O11  1  0.15910043  0.95859644  0.19457493  1
  O  O12  1  0.87782719  0.38170584  0.64422188  1
  O  O13  1  0.50841368  0.13231620  0.64315040  1
  O  O14  1  0.62144986  0.49585372  0.64428172  1
  O  O15  1  0.86628218  0.49932170  0.14251446  1
  O  O16  1  0.63741946  0.11838726  0.14026072  1
  O  O17  1  0.49500564  0.35677691  0.14440823  1
  O  O18  1  0.47589654  0.30513891  0.02508952  1
  O  O19  1  0.83673467  0.52703718  0.02142120  1
  O  O20  1  0.69265976  0.15600987  0.02927397  1
  O  O21  1  0.46669830  0.17760460  0.52219623  1
  O  O22  1  0.71087793  0.52770597  0.52487331  1
  O  O23  1  0.82629956  0.27914129  0.52616153  1
  O  O24  1  0.53132104  0.68638351  0.97057748  1
  O  O25  1  0.16045265  0.46261813  0.97648472  1
  O  O26  1  0.30630567  0.82523613  0.97272461  1
  O  O27  1  0.53869746  0.83751936  0.47954693  1
  O  O28  1  0.30898865  0.46148837  0.47425154  1
  O  O29  1  0.16852813  0.70610508  0.47818780  1
  O  O30  1  0.12902262  0.63646100  0.35808479  1
  O  O31  1  0.50069192  0.86759957  0.35904901  1
  O  O32  1  0.35453147  0.48431437  0.36213511  1
  O  O33  1  0.13562414  0.50535644  0.85505590  1
  O  O34  1  0.36924944  0.87118710  0.85199121  1
  O  O35  1  0.51658065  0.64041623  0.85867734  1
  O  O36  1  0.03313988  0.84978977  0.41196396  1
  O  O37  1  0.82288076  0.97814312  0.41161728  1
  O  O38  1  0.17683637  0.20249848  0.41579968  1
  O  O39  1  0.02351093  0.18065187  0.91103146  1
  O  O40  1  0.15321566  0.96092341  0.91108441  1
  O  O41  1  0.79512090  0.82205916  0.91262831  1
  O  O42  1  0.97709834  0.15764284  0.59021690  1
  O  O43  1  0.18580349  0.02929493  0.58892015  1
  O  O44  1  0.84125929  0.81424682  0.58818478  1
  O  O45  1  0.96952717  0.81831672  0.08692199  1
  O  O46  1  0.82525116  0.03142499  0.08610197  1
  O  O47  1  0.17937540  0.16719293  0.08689818  1
  O  O48  1  0.69098260  0.17451547  0.74311166  1
  O  O49  1  0.48543308  0.30783850  0.74280153  1
  O  O50  1  0.82229212  0.51543962  0.74313381  1
  O  O51  1  0.69131655  0.51994473  0.24471648  1
  O  O52  1  0.82648260  0.30426623  0.24543318  1
  O  O53  1  0.48133432  0.17036799  0.24640106  1
  O  O54  1  0.63989960  0.50934022  0.91931223  1
  O  O55  1  0.85470959  0.36547497  0.92052949  1
  O  O56  1  0.50829660  0.14939792  0.92148281  1
  O  O57  1  0.63168869  0.14911846  0.42392223  1
  O  O58  1  0.49203364  0.36180959  0.41995594  1
  O  O59  1  0.84329848  0.48672949  0.42417243  1
  O  O60  1  0.36111065  0.51234255  0.07845602  1
  O  O61  1  0.14491999  0.64094286  0.07886568  1
  O  O62  1  0.50845174  0.86632070  0.07699347  1
  O  O63  1  0.36004811  0.85400099  0.57881003  1
  O  O64  1  0.48901753  0.63775255  0.57566177  1
  O  O65  1  0.15381558  0.50849465  0.57449092  1
  O  O66  1  0.30599112  0.82747799  0.25644803  1
  O  O67  1  0.51598633  0.68772613  0.25803097  1
  O  O68  1  0.17318575  0.47790310  0.25795249  1
  O  O69  1  0.31458501  0.48839255  0.75729537  1
  O  O70  1  0.17356173  0.69151265  0.75257429  1
  O  O71  1  0.51677623  0.82172386  0.75609422  1
loop_
_geom_bond_atom_site_label_1
_geom_bond_atom_site_label_2
_geom_bond_distance
_geom_bond_site_symmetry_2
Na0 O52 2.336770 1_555
Na0 O67 2.429325 1_545
Na0 O53 2.463758 1_555
Na0 O66 2.520367 1_545
Na0 O16 2.610098 1_555
Na0 O31 2.637643 1_545
Na0 O9 2.760799 1_545
Na0 O2 2.790992 1_555
Na1 O68 2.340333 1_555
Na1 O53 2.423593 1_555
Na1 O67 2.452071 1_555
Na1 O51 2.494310 1_555
Na1 O17 2.574416 1_555
Na1 O32 2.687430 1_555
Na1 O10 2.834761 1_555
Na1 O0 2.841218 1_555
Na2 O66 2.384785 1_655
Na2 O51 2.386492 1_555
Na2 O52 2.490332 1_555
Na2 O68 2.498223 1_655
Na2 O30 2.614006 1_655
Na2 O15 2.636395 1_555
Na2 O1 2.715431 1_555
Na2 O11 2.784464 1_655
Na3 O50 2.357837 1_555
Na3 O71 2.361425 1_555
Na3 O69 2.454933 1_555
Na3 O49 2.497730 1_555
Na3 O14 2.571377 1_555
Na3 O35 2.609661 1_555
Na3 O6 2.787101 1_555
Na3 O4 2.814637 1_555
Na4 O48 2.374550 1_555
Na4 O69 2.448733 1_655
Na4 O50 2.490460 1_555
Na4 O70 2.492151 1_655
Na4 O12 2.585006 1_555
Na4 O33 2.608033 1_655
Na4 O5 2.764345 1_555
Na4 O7 2.795455 1_655
Na5 O49 2.355729 1_555
Na5 O70 2.402563 1_545
Na5 O48 2.471801 1_555
Na5 O34 2.507805 1_545
Na5 O71 2.525280 1_545
Na5 O13 2.609820 1_555
Na5 O3 2.736412 1_555
Na5 O8 2.847125 1_545
Na6 O43 2.349212 1_555
Na6 O64 2.355439 1_555
Na6 O65 2.457466 1_555
Na6 O42 2.463826 1_455
Na6 O7 2.539809 1_555
Na6 O28 2.619578 1_555
Na6 O21 2.805436 1_555
Na6 O14 2.814025 1_555
Na7 O44 2.349060 1_455
Na7 O65 2.431116 1_555
Na7 O63 2.497212 1_555
Na7 O43 2.499534 1_565
Na7 O29 2.571577 1_555
Na7 O8 2.577396 1_555
Na7 O12 2.779466 1_455
Na7 O22 2.795645 1_455
Na8 O42 2.374064 1_565
Na8 O63 2.404787 1_555
Na8 O44 2.470057 1_555
Na8 O64 2.521629 1_555
Na8 O27 2.550259 1_555
Na8 O6 2.555014 1_555
Na8 O23 2.686216 1_565
Na8 O13 2.820590 1_565
Na9 O46 2.359669 1_455
Na9 O47 2.376514 1_555
Na9 O61 2.388474 1_555
Na9 O60 2.506901 1_555
Na9 O10 2.524123 1_555
Na9 O25 2.639432 1_554
Na9 O15 2.826250 1_455
Na9 O20 2.905670 1_455
Na10 O40 2.278985 1_655
Na10 O55 2.317816 1_555
Na10 O54 2.516138 1_555
Na10 O41 2.523533 1_555
Na10 O19 2.574895 1_556
Na10 O4 2.603713 1_555
Na10 O33 2.828312 1_655
Na10 O26 2.870652 1_655
Na11 O36 2.309242 1_545
Na11 O57 2.310101 1_555
Na11 O38 2.495280 1_555
Na11 O58 2.524697 1_555
Na11 O0 2.570945 1_555
Na11 O21 2.618724 1_555
Na11 O29 2.811436 1_545
Na11 O31 2.830507 1_545
Na12 O37 2.344330 1_555
Na12 O36 2.410136 1_655
Na12 O44 2.446216 1_555
Na12 O38 2.493106 1_665
Na12 O42 2.507116 1_565
Na12 O43 2.580855 1_665
Na13 O47 2.410257 1_556
Na13 O45 2.412073 1_446
Na13 O40 2.426404 1_545
Na13 O39 2.448659 1_555
Na13 O46 2.577101 1_456
Na13 O41 2.620107 1_445
Na14 O56 2.363127 1_555
Na14 O55 2.442869 1_555
Na14 O48 2.457906 1_555
Na14 O49 2.516137 1_555
Na14 O50 2.542917 1_555
Na14 O54 2.560615 1_555
Na15 O59 2.362641 1_555
Na15 O57 2.421632 1_555
Na15 O52 2.465768 1_555
Na15 O58 2.523630 1_555
Na15 O51 2.533535 1_555
Na15 O53 2.582178 1_555
Na16 O60 2.403209 1_555
Na16 O61 2.488213 1_555
Na16 O62 2.500661 1_555
Na16 O67 2.524344 1_555
Na16 O66 2.537588 1_555
Na16 O68 2.567663 1_555
Na17 O70 2.423786 1_555
Na17 O63 2.454702 1_555
Na17 O64 2.475101 1_555
Na17 O69 2.481976 1_555
Na17 O71 2.483153 1_555
Na17 O65 2.521460 1_555
Ge0 O1 1.801002 1_555
Ge0 O2 1.850578 1_565
Ge0 O37 1.878020 1_555
Ge0 O0 1.917430 1_665
Ge0 O36 1.945812 1_655
Ge0 O38 2.334094 1_665
Ge1 O8 1.879130 1_645
Ge1 O6 1.886299 1_545
Ge1 O7 1.928574 1_655
Ge1 O42 1.930518 1_555
Ge1 O43 1.967911 1_655
Ge1 O44 2.002447 1_545
Ge2 O14 1.892930 1_555
Ge2 O13 1.893792 1_555
Ge2 O12 1.901393 1_555
Ge2 O49 1.943164 1_555
Ge2 O50 1.949833 1_555
Ge2 O48 1.973661 1_555
Ge3 O23 1.809920 1_555
Ge3 O22 1.863104 1_555
Ge3 O59 1.871259 1_555
Ge3 O21 1.909522 1_555
Ge3 O57 1.937269 1_555
Ge3 O58 2.309119 1_555
Ge4 O27 1.838146 1_555
Ge4 O29 1.878813 1_555
Ge4 O63 1.901399 1_555
Ge4 O65 1.950096 1_555
Ge4 O64 1.964921 1_555
Ge4 O28 2.104932 1_555
Ge5 O34 1.832111 1_555
Ge5 O33 1.844810 1_555
Ge5 O70 1.904437 1_555
Ge5 O71 1.935203 1_555
Ge5 O69 1.967607 1_555
Ge5 O35 2.145091 1_555
O0 Si0 1.635406 1_555
O1 Si1 1.630418 1_555
O2 Si2 1.636672 1_655
O3 Si3 1.632744 1_555
O3 Ti0 1.832189 1_555
O4 Si4 1.618476 1_555
O4 Ti0 1.994433 1_665
O5 Si5 1.622592 1_555
O5 Ti0 1.912508 1_655
O6 Si5 1.652953 1_565
O7 Si3 1.644054 1_555
O8 Si4 1.650652 1_455
O9 Si1 1.616304 1_555
O9 Ti1 1.915855 1_655
O10 Si2 1.634939 1_555
O10 Ti1 1.958408 1_545
O11 Si0 1.634325 1_565
O11 Ti1 1.834807 1_555
O12 Si6 1.643937 1_555
O13 Si7 1.641455 1_555
O14 Si8 1.649831 1_555
O15 Si9 1.656225 1_555
O15 Ti2 1.873024 1_555
O16 S0 1.489364 1_555
O16 Ti2 2.167490 1_555
O17 Si10 1.650290 1_555
O17 Ti2 1.860954 1_555
O18 Si10 1.633366 1_555
O18 Ti3 1.820791 1_554
O19 Si9 1.624293 1_555
O19 Ti3 1.938623 1_554
O20 S0 1.482436 1_555
O20 Ti3 2.031286 1_554
O21 Si7 1.639863 1_555
O22 Si8 1.629133 1_555
O23 Si6 1.623780 1_555
O24 S1 1.472643 1_555
O24 Ti4 2.110624 1_556
O25 Si11 1.652377 1_555
O25 Ti4 1.831853 1_556
O26 Si12 1.640514 1_555
O26 Ti4 1.846164 1_556
O27 Si13 1.651118 1_555
O28 S2 1.497399 1_555
O29 Si14 1.664023 1_555
O30 Si14 1.647076 1_555
O30 Ti5 1.860423 1_555
O31 Si13 1.654079 1_555
O31 Ti5 1.905860 1_555
O32 S2 1.479150 1_555
O32 Ti5 2.099771 1_555
O33 Si11 1.658699 1_555
O34 Si12 1.655040 1_555
O35 S1 1.491106 1_555
O36 Si14 1.657002 1_555
O37 Si13 1.633723 1_555
O38 S2 1.482114 1_555
O39 Si11 1.621841 1_555
O39 Ti0 1.912792 1_555
O40 Si12 1.638694 1_555
O40 Ti0 2.000976 1_565
O41 S1 1.473666 1_555
O41 Ti0 2.230446 1_665
O42 Si6 1.644817 1_555
O43 Si7 1.648309 1_555
O44 Si8 1.652744 1_555
O45 Si9 1.611314 1_555
O45 Ti1 1.931359 1_655
O46 S0 1.474316 1_555
O46 Ti1 2.253509 1_645
O47 Si10 1.632660 1_555
O47 Ti1 1.983733 1_545
O48 Si5 1.645294 1_555
O49 Si3 1.637942 1_555
O50 Si4 1.647351 1_555
O51 Si1 1.647808 1_555
O51 Ti2 1.891369 1_555
O52 Si2 1.641494 1_655
O52 Ti2 2.036616 1_555
O53 Si0 1.622170 1_555
O53 Ti2 2.022300 1_555
O54 S1 1.495819 1_555
O54 Ti3 2.111350 1_555
O55 Si11 1.627545 1_655
O55 Ti3 2.019932 1_555
O56 Si12 1.625865 1_545
O56 Ti3 1.919372 1_555
O57 Si13 1.659509 1_545
O58 S2 1.481653 1_555
O59 Si14 1.631851 1_655
O60 Si10 1.635124 1_555
O60 Ti4 1.981477 1_555
O61 Si9 1.661675 1_455
O61 Ti4 1.888807 1_555
O62 S0 1.474223 1_565
O62 Ti4 2.195452 1_555
O63 Si7 1.662940 1_565
O64 Si8 1.663605 1_555
O65 Si6 1.656535 1_455
O66 Si0 1.646422 1_565
O66 Ti5 1.912154 1_555
O67 Si1 1.627750 1_555
O67 Ti5 2.014813 1_555
O68 Si2 1.646745 1_555
O68 Ti5 2.011403 1_555
O69 Si3 1.647890 1_555
O70 Si4 1.663914 1_455
O71 Si5 1.658846 1_565
