# generated using pymatgen
data_Mg(NiS2)4
_symmetry_space_group_name_H-M   'P 1'
_cell_length_a   7.09030462
_cell_length_b   7.08522856
_cell_length_c   7.08782881
_cell_angle_alpha   60.28684925
_cell_angle_beta   59.96049689
_cell_angle_gamma   59.95868320
_symmetry_Int_Tables_number   1
_chemical_formula_structural   Mg(NiS2)4
_chemical_formula_sum   'Mg1 Ni4 S8'
_cell_volume   252.16391567
_cell_formula_units_Z   1
loop_
 _symmetry_equiv_pos_site_id
 _symmetry_equiv_pos_as_xyz
  1  'x, y, z'
loop_
 _atom_site_type_symbol
 _atom_site_label
 _atom_site_symmetry_multiplicity
 _atom_site_fract_x
 _atom_site_fract_y
 _atom_site_fract_z
 _atom_site_occupancy
  Mg  Mg0  1  0.37675900  0.37372900  0.37282600  1
  Ni  Ni0  1  0.51292400  0.51265400  0.51261300  1
  Ni  Ni1  1  0.96186700  0.51233300  0.51302800  1
  Ni  Ni2  1  0.51353100  0.51397600  0.95940000  1
  Ni  Ni3  1  0.51292300  0.95978800  0.51401400  1
  S  S0  1  0.30295200  0.73222200  0.73270200  1
  S  S1  1  0.73209900  0.73279600  0.73223600  1
  S  S2  1  0.73287500  0.30379900  0.73018100  1
  S  S3  1  0.73316400  0.73003700  0.30419300  1
  S  S4  1  0.24575300  0.24469400  0.24667300  1
  S  S5  1  0.76306500  0.24600300  0.24530200  1
  S  S6  1  0.24618500  0.24847100  0.75864000  1
  S  S7  1  0.24590000  0.75950200  0.24819100  1
loop_
_geom_bond_atom_site_label_1
_geom_bond_atom_site_label_2
_geom_bond_distance
_geom_bond_site_symmetry_2
Mg0 S5 2.233513 1_555
Mg0 S4 2.233907 1_555
Mg0 S7 2.236056 1_555
Mg0 S6 2.237144 1_555
Mg0 Ni2 2.397441 1_554
Mg0 Ni1 2.398693 1_455
Mg0 Ni3 2.399578 1_545
Mg0 Ni0 2.399709 1_555
Ni0 S0 2.198101 1_555
Ni0 S2 2.198841 1_555
Ni0 S3 2.199103 1_555
Ni0 S6 2.669868 1_555
Ni0 S5 2.670924 1_555
Ni0 S7 2.672769 1_555
Ni1 S1 2.198121 1_555
Ni1 S2 2.198578 1_555
Ni1 S3 2.198885 1_555
Ni1 S6 2.665211 1_655
Ni1 S7 2.670919 1_655
Ni1 S4 2.670983 1_655
Ni2 S2 2.196726 1_555
Ni2 S0 2.197587 1_555
Ni2 S1 2.197868 1_555
Ni2 S7 2.674466 1_556
Ni2 S5 2.693267 1_556
Ni2 S4 2.701155 1_556
Ni3 S3 2.197646 1_555
Ni3 S1 2.198187 1_555
Ni3 S0 2.198687 1_555
Ni3 S6 2.669475 1_565
Ni3 S4 2.688321 1_565
Ni3 S5 2.697372 1_565
