# generated using pymatgen
data_MgV2P2(HO5)2
_symmetry_space_group_name_H-M   'P 1'
_cell_length_a   5.45880131
_cell_length_b   7.55489554
_cell_length_c   5.20415007
_cell_angle_alpha   110.92485657
_cell_angle_beta   92.68384151
_cell_angle_gamma   110.18625932
_symmetry_Int_Tables_number   1
_chemical_formula_structural   MgV2P2(HO5)2
_chemical_formula_sum   'Mg1 V2 P2 H2 O10'
_cell_volume   184.58038369
_cell_formula_units_Z   1
loop_
 _symmetry_equiv_pos_site_id
 _symmetry_equiv_pos_as_xyz
  1  'x, y, z'
loop_
 _atom_site_type_symbol
 _atom_site_label
 _atom_site_symmetry_multiplicity
 _atom_site_fract_x
 _atom_site_fract_y
 _atom_site_fract_z
 _atom_site_occupancy
  Mg  Mg0  1  0.50525400  0.00235500  0.99644300  1
  V  V0  1  0.00542900  0.50215000  0.99614100  1
  V  V1  1  0.00492900  0.00175100  0.99639700  1
  P  P0  1  0.35975100  0.25540400  0.63783800  1
  P  P1  1  0.65039400  0.74878000  0.35520700  1
  H  H0  1  0.94668200  0.31055100  0.32256600  1
  H  H1  1  0.06452000  0.69381500  0.66900400  1
  O  O0  1  0.12521800  0.75650200  0.87483100  1
  O  O1  1  0.16187700  0.36349300  0.67478400  1
  O  O2  1  0.35741900  0.60540700  0.25714400  1
  O  O3  1  0.31399500  0.12035300  0.31734100  1
  O  O4  1  0.29294100  0.10680800  0.79451400  1
  O  O5  1  0.71622500  0.89713000  0.19811800  1
  O  O6  1  0.69612500  0.88389500  0.67565400  1
  O  O7  1  0.65269200  0.39864500  0.73671900  1
  O  O8  1  0.84893800  0.64126900  0.31785300  1
  O  O9  1  0.88511100  0.24740900  0.11694600  1
loop_
_geom_bond_atom_site_label_1
_geom_bond_atom_site_label_2
_geom_bond_distance
_geom_bond_site_symmetry_2
Mg0 O5 2.043141 1_546
Mg0 O4 2.044444 1_555
Mg0 O6 2.100670 1_545
Mg0 O3 2.101397 1_556
Mg0 O9 2.126025 1_556
Mg0 O0 2.128911 1_545
H0 O9 0.988251 1_555
H1 O0 0.988717 1_555
O0 V1 2.075011 1_565
O0 V0 2.134642 1_555
O1 P0 1.544858 1_555
O1 V0 2.030614 1_555
O2 P1 1.524668 1_555
O2 V0 2.027246 1_554
O3 P0 1.566808 1_555
O3 V1 2.015636 1_554
O4 P0 1.567555 1_555
O4 V1 2.023539 1_555
O5 P1 1.567675 1_555
O5 V1 2.024457 1_664
O6 P1 1.566714 1_555
O6 V1 2.014851 1_665
O7 P0 1.524436 1_555
O7 V0 2.026108 1_655
O8 P1 1.544880 1_555
O8 V0 2.033263 1_654
O9 V1 2.076136 1_654
O9 V0 2.135657 1_654
