# generated using pymatgen
data_MgTi8(NiO3)8
_symmetry_space_group_name_H-M   'P 1'
_cell_length_a   5.62612189
_cell_length_b   11.18865682
_cell_length_c   11.20567144
_cell_angle_alpha   54.19779793
_cell_angle_beta   53.86242077
_cell_angle_gamma   53.89989135
_symmetry_Int_Tables_number   1
_chemical_formula_structural   MgTi8(NiO3)8
_chemical_formula_sum   'Mg1 Ti8 Ni8 O24'
_cell_volume   428.71023400
_cell_formula_units_Z   1
loop_
 _symmetry_equiv_pos_site_id
 _symmetry_equiv_pos_as_xyz
  1  'x, y, z'
loop_
 _atom_site_type_symbol
 _atom_site_label
 _atom_site_symmetry_multiplicity
 _atom_site_fract_x
 _atom_site_fract_y
 _atom_site_fract_z
 _atom_site_occupancy
  Mg  Mg0  1  0.70921900  0.83148200  0.84174600  1
  Ti  Ti0  1  0.35536000  0.18110600  0.18074900  1
  Ti  Ti1  1  0.13752700  0.07074200  0.58464400  1
  Ti  Ti2  1  0.12590400  0.58443900  0.07415100  1
  Ti  Ti3  1  0.14263300  0.56788600  0.57045900  1
  Ti  Ti4  1  0.86302300  0.42469300  0.42760400  1
  Ti  Ti5  1  0.85719400  0.42223300  0.93458100  1
  Ti  Ti6  1  0.87258700  0.93284100  0.41119400  1
  Ti  Ti7  1  0.99497600  0.98807000  0.97791800  1
  Ni  Ni0  1  0.19229800  0.07679700  0.07492400  1
  Ni  Ni1  1  0.34655800  0.66553800  0.18606900  1
  Ni  Ni2  1  0.35113900  0.18044300  0.66902800  1
  Ni  Ni3  1  0.65058700  0.32318300  0.32952500  1
  Ni  Ni4  1  0.34746400  0.66835000  0.66129400  1
  Ni  Ni5  1  0.64469400  0.33625300  0.81973500  1
  Ni  Ni6  1  0.65023900  0.82295500  0.32834400  1
  Ni  Ni7  1  0.49762000  0.75905900  0.75576800  1
  O  O0  1  0.06289200  0.37683400  0.22520400  1
  O  O1  1  0.43599300  0.04206900  0.37597300  1
  O  O2  1  0.75637700  0.21301700  0.02798800  1
  O  O3  1  0.22969500  0.28504300  0.47376200  1
  O  O4  1  0.56712000  0.46315800  0.12006000  1
  O  O5  1  0.04975400  0.38476400  0.72132000  1
  O  O6  1  0.04806700  0.88527000  0.21260500  1
  O  O7  1  0.96555300  0.11726200  0.28511600  1
  O  O8  1  0.37147000  0.02862500  0.88626900  1
  O  O9  1  0.44102500  0.51887100  0.38864300  1
  O  O10  1  0.77559800  0.21592900  0.53284400  1
  O  O11  1  0.76250900  0.69454800  0.04724400  1
  O  O12  1  0.23277100  0.29179100  0.97677100  1
  O  O13  1  0.23074500  0.78033600  0.46530900  1
  O  O14  1  0.55331200  0.47292200  0.61511300  1
  O  O15  1  0.57487300  0.98709400  0.12343100  1
  O  O16  1  0.10239800  0.87605700  0.69841800  1
  O  O17  1  0.94129000  0.12004500  0.78199300  1
  O  O18  1  0.94406100  0.61421100  0.28410400  1
  O  O19  1  0.43650900  0.53226300  0.88453900  1
  O  O20  1  0.77571800  0.71438000  0.52078800  1
  O  O21  1  0.23088500  0.78095100  0.98388500  1
  O  O22  1  0.57597100  0.97695100  0.60318000  1
  O  O23  1  0.93451300  0.61892400  0.78296200  1
loop_
_geom_bond_atom_site_label_1
_geom_bond_atom_site_label_2
_geom_bond_distance
_geom_bond_site_symmetry_2
Mg0 O11 1.971072 1_556
Mg0 O16 1.973339 1_655
Mg0 O8 1.988804 1_565
Mg0 O23 2.234364 1_555
Mg0 O21 2.404724 1_555
Mg0 O22 2.488540 1_555
Ni0 O8 1.988740 1_554
Ni0 O15 2.032640 1_545
Ni0 O12 2.074269 1_554
Ni0 O6 2.082139 1_545
Ni0 O7 2.098369 1_455
Ni0 O2 2.189351 1_455
Ni1 O11 2.003099 1_555
Ni1 O9 2.040870 1_555
Ni1 O6 2.086621 1_555
Ni1 O18 2.127163 1_455
Ni1 O21 2.133033 1_554
Ni1 O4 2.186360 1_555
Ni2 O8 2.021378 1_555
Ni2 O5 2.066926 1_555
Ni2 O10 2.073507 1_555
Ni2 O3 2.109313 1_555
Ni2 O17 2.183748 1_455
Ni2 O22 2.190719 1_545
Ni3 O7 2.046056 1_555
Ni3 O3 2.066759 1_555
Ni3 O4 2.077291 1_555
Ni3 O9 2.087244 1_555
Ni3 O0 2.174709 1_655
Ni3 O10 2.195929 1_555
Ni4 O14 2.005761 1_555
Ni4 O16 2.038047 1_555
Ni4 O13 2.082341 1_555
Ni4 O23 2.111476 1_455
Ni4 O20 2.142123 1_555
Ni4 O19 2.224910 1_555
Ni5 O14 2.054728 1_555
Ni5 O12 2.058968 1_555
Ni5 O17 2.103122 1_555
Ni5 O5 2.120689 1_655
Ni5 O19 2.131190 1_555
Ni5 O2 2.164636 1_556
Ni6 O15 2.030266 1_555
Ni6 O18 2.066817 1_555
Ni6 O20 2.084339 1_555
Ni6 O13 2.085848 1_555
Ni6 O6 2.129566 1_655
Ni6 O1 2.244528 1_565
Ni7 O16 2.083740 1_555
Ni7 O23 2.091888 1_555
Ni7 O22 2.135820 1_555
Ni7 O21 2.149693 1_555
Ni7 O19 2.190538 1_555
Ni7 O20 2.321727 1_555
O0 Ti0 1.953145 1_555
O0 Ti2 2.012172 1_555
O0 Ti4 2.097255 1_455
O1 Ti0 1.941332 1_555
O1 Ti1 2.000511 1_555
O1 Ti6 2.173602 1_545
O2 Ti0 1.956283 1_555
O2 Ti5 2.212379 1_554
O2 Ti7 2.287764 1_544
O3 Ti4 1.865271 1_455
O3 Ti1 2.186663 1_555
O4 Ti5 1.850702 1_554
O4 Ti2 2.233399 1_555
O5 Ti3 1.869801 1_555
O5 Ti5 2.154911 1_455
O6 Ti6 2.094124 1_455
O6 Ti7 2.304522 1_454
O7 Ti6 1.875312 1_545
O7 Ti0 2.128674 1_655
O8 Ti7 1.941399 1_445
O9 Ti3 1.859622 1_555
O9 Ti4 2.161960 1_555
O10 Ti1 1.874853 1_655
O10 Ti4 2.129668 1_555
O11 Ti2 1.764376 1_655
O12 Ti5 1.885577 1_455
O12 Ti0 2.185147 1_556
O13 Ti6 1.875781 1_455
O13 Ti3 2.169593 1_555
O14 Ti4 1.908558 1_555
O14 Ti3 2.136940 1_555
O15 Ti7 1.925954 1_554
O15 Ti0 2.046064 1_565
O16 Ti1 1.835832 1_565
O17 Ti7 1.885568 1_545
O17 Ti1 2.059987 1_655
O18 Ti4 1.890806 1_555
O18 Ti2 2.090240 1_655
O19 Ti2 1.943921 1_556
O19 Ti5 2.180827 1_555
O20 Ti3 1.886364 1_655
O20 Ti6 2.246796 1_555
O21 Ti7 1.853447 1_455
O21 Ti2 2.104744 1_556
O22 Ti6 1.921974 1_555
O22 Ti1 2.127930 1_565
O23 Ti5 1.949563 1_555
O23 Ti3 2.209494 1_655
