# generated using pymatgen
data_K2H12Ru(SO7)2
_symmetry_space_group_name_H-M   'P 1'
_cell_length_a   12.45810700
_cell_length_b   6.22444800
_cell_length_c   8.98158780
_cell_angle_alpha   75.07559236
_cell_angle_beta   90.00000000
_cell_angle_gamma   90.00000000
_symmetry_Int_Tables_number   1
_chemical_formula_structural   K2H12Ru(SO7)2
_chemical_formula_sum   'K4 H24 Ru2 S4 O28'
_cell_volume   672.98118429
_cell_formula_units_Z   2
loop_
 _symmetry_equiv_pos_site_id
 _symmetry_equiv_pos_as_xyz
  1  'x, y, z'
loop_
 _atom_site_type_symbol
 _atom_site_label
 _atom_site_symmetry_multiplicity
 _atom_site_fract_x
 _atom_site_fract_y
 _atom_site_fract_z
 _atom_site_occupancy
  K  K0  1  0.15273000  0.35338400  0.35830300  1
  K  K1  1  0.65273000  0.64661600  0.14169700  1
  K  K2  1  0.84727000  0.64661600  0.64169700  1
  K  K3  1  0.34727000  0.35338400  0.85830300  1
  H  H0  1  0.55968900  0.34716700  0.59733400  1
  H  H1  1  0.05968900  0.65283300  0.90266600  1
  H  H2  1  0.30910600  0.00352500  0.63733900  1
  H  H3  1  0.80910600  0.99647500  0.86266100  1
  H  H4  1  0.69089400  0.99647500  0.36266100  1
  H  H5  1  0.19089400  0.00352500  0.13733900  1
  H  H6  1  0.62375000  0.90912900  0.75394300  1
  H  H7  1  0.12375000  0.09087100  0.74605700  1
  H  H8  1  0.37625000  0.09087100  0.24605700  1
  H  H9  1  0.87625000  0.90912900  0.25394300  1
  H  H10  1  0.58862100  0.67732200  0.72093800  1
  H  H11  1  0.08862100  0.32267800  0.77906200  1
  H  H12  1  0.41137900  0.32267800  0.27906200  1
  H  H13  1  0.91137900  0.67732200  0.22093800  1
  H  H14  1  0.44031100  0.65283300  0.40266600  1
  H  H15  1  0.94031100  0.34716700  0.09733400  1
  H  H16  1  0.64668900  0.32932800  0.47286600  1
  H  H17  1  0.14668900  0.67067200  0.02713400  1
  H  H18  1  0.89681400  0.06746100  0.73032300  1
  H  H19  1  0.39681400  0.93253900  0.76967700  1
  H  H20  1  0.85331100  0.32932800  0.97286600  1
  H  H21  1  0.35331100  0.67067200  0.52713400  1
  H  H22  1  0.60318600  0.06746100  0.23032300  1
  H  H23  1  0.10318600  0.93253900  0.26967700  1
  Ru  Ru0  1  0.50000000  0.00000000  0.50000000  1
  Ru  Ru1  1  0.00000000  0.00000000  0.00000000  1
  S  S0  1  0.36405000  0.73091100  0.08666300  1
  S  S1  1  0.63595000  0.26908900  0.91333700  1
  S  S2  1  0.13595000  0.73091100  0.58666300  1
  S  S3  1  0.86405000  0.26908900  0.41333700  1
  O  O0  1  0.06378800  0.61744500  0.71650200  1
  O  O1  1  0.43621200  0.61744500  0.21650200  1
  O  O2  1  0.73105800  0.41579400  0.91385900  1
  O  O3  1  0.23105800  0.58420600  0.58614100  1
  O  O4  1  0.26894200  0.58420600  0.08614100  1
  O  O5  1  0.76894200  0.41579400  0.41385900  1
  O  O6  1  0.57586700  0.23701100  0.06054400  1
  O  O7  1  0.56378800  0.38255500  0.78349800  1
  O  O8  1  0.42413300  0.76298900  0.93945600  1
  O  O9  1  0.92413300  0.23701100  0.56054400  1
  O  O10  1  0.82738900  0.04895800  0.39211200  1
  O  O11  1  0.32738900  0.95104200  0.10788800  1
  O  O12  1  0.17261100  0.95104200  0.60788800  1
  O  O13  1  0.67261100  0.04895800  0.89211200  1
  O  O14  1  0.56817500  0.31435200  0.49552800  1
  O  O15  1  0.06817500  0.68564800  0.00447200  1
  O  O16  1  0.43182500  0.68564800  0.50447200  1
  O  O17  1  0.93182500  0.31435200  0.99552800  1
  O  O18  1  0.38236300  0.04065600  0.66762600  1
  O  O19  1  0.88236300  0.95934400  0.83237400  1
  O  O20  1  0.61763700  0.95934400  0.33237400  1
  O  O21  1  0.11763700  0.04065600  0.16762600  1
  O  O22  1  0.07586700  0.76298900  0.43945600  1
  O  O23  1  0.11338000  0.16883000  0.82863000  1
  O  O24  1  0.38662000  0.16883000  0.32863000  1
  O  O25  1  0.88662000  0.83117000  0.17137000  1
  O  O26  1  0.93621200  0.38255500  0.28349800  1
  O  O27  1  0.61338000  0.83117000  0.67137000  1
loop_
_geom_bond_atom_site_label_1
_geom_bond_atom_site_label_2
_geom_bond_distance
_geom_bond_site_symmetry_2
K0 O26 2.774442 1_455
K0 O4 2.885585 1_555
K0 O12 2.909734 1_545
K0 O21 2.937735 1_555
K0 O3 2.952689 1_555
K0 O22 2.984241 1_555
K0 O24 3.168395 1_555
K1 O1 2.774442 1_555
K1 O5 2.885585 1_555
K1 O13 2.909734 1_564
K1 O20 2.937735 1_555
K1 O2 2.952689 1_554
K1 O6 2.984241 1_555
K1 O25 3.168395 1_555
K2 O0 2.774442 1_655
K2 O2 2.885585 1_555
K2 O10 2.909734 1_565
K2 O19 2.937735 1_555
K2 O5 2.952689 1_555
K2 O9 2.984241 1_555
K2 O27 3.168395 1_555
K3 O7 2.774442 1_555
K3 O3 2.885585 1_555
K3 O11 2.909734 1_546
K3 O18 2.937735 1_555
K3 O4 2.952689 1_556
K3 O8 2.984241 1_555
K3 O23 3.168395 1_555
H0 O14 0.992567 1_555
H1 O15 0.992567 1_556
H2 O18 0.996352 1_555
H3 O19 0.996352 1_555
H4 O20 0.996352 1_555
H5 O21 0.996352 1_555
H6 O27 0.993758 1_555
H7 O23 0.993758 1_555
H8 O24 0.993758 1_555
H9 O25 0.993758 1_555
H10 O27 0.995379 1_555
H11 O23 0.995379 1_555
H12 O24 0.995379 1_555
H13 O25 0.995379 1_555
H14 O16 0.992567 1_555
H15 O17 0.992567 1_554
H16 O14 0.998546 1_555
H16 O5 1.656282 1_555
H17 O15 0.998546 1_555
H17 O4 1.656282 1_555
H18 O19 1.003840 1_545
H18 O9 1.651046 1_555
H19 O18 1.003840 1_565
H19 O8 1.651046 1_555
H20 O17 0.998546 1_555
H20 O2 1.656282 1_555
H21 O16 0.998546 1_555
H21 O3 1.656282 1_555
H22 O20 1.003840 1_545
H22 O6 1.651046 1_555
H23 O21 1.003840 1_565
H23 O22 1.651046 1_555
O0 S2 1.497567 1_555
O1 S0 1.497567 1_555
O2 S1 1.496660 1_555
O3 S2 1.496660 1_555
O4 S0 1.496660 1_555
O5 S3 1.496660 1_555
O6 S1 1.487366 1_554
O7 S1 1.497567 1_555
O8 S0 1.487366 1_556
O9 S3 1.487366 1_555
O10 S3 1.502304 1_555
O11 S0 1.502304 1_555
O12 S2 1.502304 1_555
O13 S1 1.502304 1_555
O14 Ru0 2.123922 1_555
O15 Ru1 2.123922 1_565
O16 Ru0 2.123922 1_565
O17 Ru1 2.123922 1_656
O18 Ru0 2.162117 1_555
O19 Ru1 2.162117 1_666
O20 Ru0 2.162117 1_565
O21 Ru1 2.162117 1_555
O22 S2 1.487366 1_555
O23 Ru1 2.152999 1_556
O24 Ru0 2.152999 1_555
O25 Ru1 2.152999 1_665
O26 S3 1.497567 1_555
O27 Ru0 2.152999 1_565
