# generated using pymatgen
data_Na5MgReO6
_symmetry_space_group_name_H-M   'P 1'
_cell_length_a   6.03582618
_cell_length_b   6.03582688
_cell_length_c   5.98813074
_cell_angle_alpha   102.49345991
_cell_angle_beta   102.49346600
_cell_angle_gamma   119.27958610
_symmetry_Int_Tables_number   1
_chemical_formula_structural   Na5MgReO6
_chemical_formula_sum   'Na5 Mg1 Re1 O6'
_cell_volume   171.97435010
_cell_formula_units_Z   1
loop_
 _symmetry_equiv_pos_site_id
 _symmetry_equiv_pos_as_xyz
  1  'x, y, z'
loop_
 _atom_site_type_symbol
 _atom_site_label
 _atom_site_symmetry_multiplicity
 _atom_site_fract_x
 _atom_site_fract_y
 _atom_site_fract_z
 _atom_site_occupancy
  Na  Na0  1  0.83119023  0.14784365  0.48821891  1
  Na  Na1  1  0.36353418  0.78206036  0.97664390  1
  Na  Na2  1  0.78206036  0.36353418  0.97664390  1
  Na  Na3  1  0.43392330  0.43392330  0.60821729  1
  Na  Na4  1  0.14784365  0.83119023  0.48821891  1
  Mg  Mg0  1  0.44093889  0.44093889  0.16788116  1
  Re  Re0  1  0.97067650  0.97067650  0.98114445  1
  O  O0  1  0.75860362  0.75860362  0.17798870  1
  O  O1  1  0.35404578  0.10071432  0.23771305  1
  O  O2  1  0.92628214  0.64935577  0.77394179  1
  O  O3  1  0.64935577  0.92628214  0.77394179  1
  O  O4  1  0.10071432  0.35404578  0.23771305  1
  O  O5  1  0.20511726  0.20511726  0.81411411  1
loop_
_geom_bond_atom_site_label_1
_geom_bond_atom_site_label_2
_geom_bond_distance
_geom_bond_site_symmetry_2
Na0 O0 2.432149 1_545
Na0 O5 2.461924 1_655
Na0 O3 2.507393 1_545
Na0 O4 2.515712 1_655
Na0 O1 2.787506 1_555
Na0 O2 2.838075 1_555
Na1 O1 2.234289 1_566
Na1 O3 2.258653 1_555
Na1 O2 2.281619 1_455
Na1 O0 2.513975 1_556
Na2 O4 2.234289 1_656
Na2 O2 2.258653 1_555
Na2 O3 2.281620 1_545
Na2 O0 2.513975 1_556
Na3 O5 2.223166 1_555
Na3 O4 2.420299 1_555
Na3 O1 2.420299 1_555
Na3 O2 2.427573 1_555
Na3 O3 2.427574 1_555
Na4 O0 2.432148 1_455
Na4 O5 2.461924 1_565
Na4 O2 2.507393 1_455
Na4 O1 2.515712 1_565
Na4 O4 2.787507 1_555
Na4 O3 2.838075 1_555
Mg0 O0 1.913087 1_555
Mg0 O5 1.987147 1_554
Mg0 O4 2.019870 1_555
Mg0 O1 2.019870 1_555
O0 Re0 2.090287 1_554
O1 Re0 2.120021 1_444
O2 Re0 1.918173 1_555
O3 Re0 1.918173 1_555
O4 Re0 2.120021 1_444
O5 Re0 2.066691 1_445
