# generated using pymatgen
data_Bi2Se2Cl7
_symmetry_space_group_name_H-M   'P 1'
_cell_length_a   10.97531900
_cell_length_b   10.97531900
_cell_length_c   10.52050500
_cell_angle_alpha   90.00000000
_cell_angle_beta   90.00000000
_cell_angle_gamma   90.00000000
_symmetry_Int_Tables_number   1
_chemical_formula_structural   Bi2Se2Cl7
_chemical_formula_sum   'Bi8 Se8 Cl28'
_cell_volume   1267.27506874
_cell_formula_units_Z   4
loop_
 _symmetry_equiv_pos_site_id
 _symmetry_equiv_pos_as_xyz
  1  'x, y, z'
loop_
 _atom_site_type_symbol
 _atom_site_label
 _atom_site_symmetry_multiplicity
 _atom_site_fract_x
 _atom_site_fract_y
 _atom_site_fract_z
 _atom_site_occupancy
  Bi  Bi0  1  0.26705400  0.39042900  0.34959000  1
  Bi  Bi1  1  0.89042900  0.23294600  0.34959000  1
  Bi  Bi2  1  0.10957100  0.76705400  0.34959000  1
  Bi  Bi3  1  0.73294600  0.60957100  0.34959000  1
  Bi  Bi4  1  0.23294600  0.10957100  0.65041000  1
  Bi  Bi5  1  0.60957100  0.26705400  0.65041000  1
  Bi  Bi6  1  0.39042900  0.73294600  0.65041000  1
  Bi  Bi7  1  0.76705400  0.89042900  0.65041000  1
  Se  Se0  1  0.12826000  0.42068200  0.89226800  1
  Se  Se1  1  0.92068200  0.37174000  0.89226800  1
  Se  Se2  1  0.07931800  0.62826000  0.89226800  1
  Se  Se3  1  0.87174000  0.57931800  0.89226800  1
  Se  Se4  1  0.37174000  0.07931800  0.10773200  1
  Se  Se5  1  0.57931800  0.12826000  0.10773200  1
  Se  Se6  1  0.42068200  0.87174000  0.10773200  1
  Se  Se7  1  0.62826000  0.92068200  0.10773200  1
  Cl  Cl0  1  0.00000000  0.50000000  0.32809700  1
  Cl  Cl1  1  0.50000000  0.00000000  0.67190300  1
  Cl  Cl2  1  0.50000000  0.50000000  0.50000000  1
  Cl  Cl3  1  0.00000000  0.00000000  0.50000000  1
  Cl  Cl4  1  0.38770500  0.19825000  0.44020100  1
  Cl  Cl5  1  0.69825000  0.11229500  0.44020100  1
  Cl  Cl6  1  0.30175000  0.88770500  0.44020100  1
  Cl  Cl7  1  0.61229500  0.80175000  0.44020100  1
  Cl  Cl8  1  0.11229500  0.30175000  0.55979900  1
  Cl  Cl9  1  0.80175000  0.38770500  0.55979900  1
  Cl  Cl10  1  0.19825000  0.61229500  0.55979900  1
  Cl  Cl11  1  0.88770500  0.69825000  0.55979900  1
  Cl  Cl12  1  0.12830800  0.23302300  0.22661500  1
  Cl  Cl13  1  0.73302300  0.37169200  0.22661500  1
  Cl  Cl14  1  0.26697700  0.62830800  0.22661500  1
  Cl  Cl15  1  0.87169200  0.76697700  0.22661500  1
  Cl  Cl16  1  0.90031300  0.85447800  0.85450800  1
  Cl  Cl17  1  0.35447800  0.59968700  0.85450800  1
  Cl  Cl18  1  0.64552200  0.40031300  0.85450800  1
  Cl  Cl19  1  0.09968700  0.14552200  0.85450800  1
  Cl  Cl20  1  0.59968700  0.64552200  0.14549200  1
  Cl  Cl21  1  0.14552200  0.90031300  0.14549200  1
  Cl  Cl22  1  0.85447800  0.09968700  0.14549200  1
  Cl  Cl23  1  0.40031300  0.35447800  0.14549200  1
  Cl  Cl24  1  0.62830800  0.73302300  0.77338500  1
  Cl  Cl25  1  0.23302300  0.87169200  0.77338500  1
  Cl  Cl26  1  0.76697700  0.12830800  0.77338500  1
  Cl  Cl27  1  0.37169200  0.26697700  0.77338500  1
loop_
_geom_bond_atom_site_label_1
_geom_bond_atom_site_label_2
_geom_bond_distance
_geom_bond_site_symmetry_2
Bi0 Cl23 2.627793 1_555
Bi0 Cl12 2.641441 1_555
Bi0 Cl4 2.666651 1_555
Bi0 Cl14 2.913774 1_555
Bi0 Cl8 2.953478 1_555
Bi0 Cl0 3.176177 1_555
Bi0 Cl2 3.238308 1_555
Bi1 Cl22 2.627793 1_555
Bi1 Cl13 2.641441 1_555
Bi1 Cl5 2.666651 1_555
Bi1 Cl12 2.913774 1_655
Bi1 Cl9 2.953478 1_555
Bi1 Cl0 3.176177 1_655
Bi1 Cl3 3.238308 1_655
Bi2 Cl21 2.627793 1_555
Bi2 Cl14 2.641441 1_555
Bi2 Cl6 2.666651 1_555
Bi2 Cl15 2.913774 1_455
Bi2 Cl10 2.953478 1_555
Bi2 Cl0 3.176177 1_555
Bi2 Cl3 3.238308 1_565
Bi3 Cl20 2.627793 1_555
Bi3 Cl15 2.641441 1_555
Bi3 Cl7 2.666651 1_555
Bi3 Cl13 2.913774 1_555
Bi3 Cl11 2.953478 1_555
Bi3 Cl0 3.176177 1_655
Bi3 Cl2 3.238308 1_555
Bi4 Cl19 2.627793 1_555
Bi4 Cl27 2.641441 1_555
Bi4 Cl8 2.666651 1_555
Bi4 Cl25 2.913774 1_545
Bi4 Cl4 2.953478 1_555
Bi4 Cl1 3.176177 1_555
Bi4 Cl3 3.238308 1_555
Bi5 Cl18 2.627793 1_555
Bi5 Cl26 2.641441 1_555
Bi5 Cl9 2.666651 1_555
Bi5 Cl27 2.913774 1_555
Bi5 Cl5 2.953478 1_555
Bi5 Cl1 3.176177 1_555
Bi5 Cl2 3.238308 1_555
Bi6 Cl17 2.627793 1_555
Bi6 Cl25 2.641441 1_555
Bi6 Cl10 2.666651 1_555
Bi6 Cl24 2.913774 1_555
Bi6 Cl6 2.953478 1_555
Bi6 Cl1 3.176177 1_565
Bi6 Cl2 3.238308 1_555
Bi7 Cl16 2.627793 1_555
Bi7 Cl24 2.641441 1_555
Bi7 Cl11 2.666651 1_555
Bi7 Cl26 2.913774 1_565
Bi7 Cl7 2.953478 1_555
Bi7 Cl1 3.176177 1_565
Bi7 Cl3 3.238308 1_665
Se0 Se2 2.340702 1_555
Se0 Se1 2.340702 1_455
Se1 Se3 2.340702 1_555
Se2 Se3 2.340702 1_455
Se4 Se6 2.340702 1_545
Se4 Se5 2.340702 1_555
Se5 Se7 2.340702 1_545
Se6 Se7 2.340702 1_555
