# generated using pymatgen
data_Na4SeO5
_symmetry_space_group_name_H-M   'P 1'
_cell_length_a   5.54498854
_cell_length_b   9.79343255
_cell_length_c   9.79777731
_cell_angle_alpha   113.32625947
_cell_angle_beta   96.31703365
_cell_angle_gamma   95.92031709
_symmetry_Int_Tables_number   1
_chemical_formula_structural   Na4SeO5
_chemical_formula_sum   'Na16 Se4 O20'
_cell_volume   479.29331930
_cell_formula_units_Z   4
loop_
 _symmetry_equiv_pos_site_id
 _symmetry_equiv_pos_as_xyz
  1  'x, y, z'
loop_
 _atom_site_type_symbol
 _atom_site_label
 _atom_site_symmetry_multiplicity
 _atom_site_fract_x
 _atom_site_fract_y
 _atom_site_fract_z
 _atom_site_occupancy
  Na  Na0  1  0.24725972  0.94198200  0.54226359  1
  Na  Na1  1  0.76320265  0.45115355  0.06431991  1
  Na  Na2  1  0.23679735  0.54884645  0.93568009  1
  Na  Na3  1  0.75274028  0.05801800  0.45773641  1
  Na  Na4  1  0.00000000  0.00000000  0.00000000  1
  Na  Na5  1  0.50000000  0.50000000  0.50000000  1
  Na  Na6  1  0.49688619  0.90027034  0.09517590  1
  Na  Na7  1  0.50311381  0.09972966  0.90482410  1
  Na  Na8  1  0.99792320  0.60120295  0.39930521  1
  Na  Na9  1  0.00207680  0.39879705  0.60069479  1
  Na  Na10  1  0.72087416  0.83686612  0.63814891  1
  Na  Na11  1  0.27912584  0.16313388  0.36185109  1
  Na  Na12  1  0.00635566  0.80902177  0.19941440  1
  Na  Na13  1  0.99364434  0.19097823  0.80058560  1
  Na  Na14  1  0.73149468  0.64249864  0.84687590  1
  Na  Na15  1  0.26850532  0.35750136  0.15312410  1
  Se  Se0  1  0.48412065  0.29523854  0.73323873  1
  Se  Se1  1  0.51587935  0.70476146  0.26676127  1
  Se  Se2  1  0.21420754  0.77985169  0.75505464  1
  Se  Se3  1  0.78579246  0.22014831  0.24494536  1
  O  O0  1  0.20636304  0.60863419  0.19093707  1
  O  O1  1  0.05402092  0.35108707  0.34248000  1
  O  O2  1  0.94597908  0.64891293  0.65752000  1
  O  O3  1  0.79363696  0.39136581  0.80906293  1
  O  O4  1  0.88173061  0.05240546  0.22803578  1
  O  O5  1  0.11826939  0.94759454  0.77196422  1
  O  O6  1  0.86398504  0.22606058  0.07297941  1
  O  O7  1  0.13601496  0.77393942  0.92702059  1
  O  O8  1  0.58834635  0.54473691  0.29144177  1
  O  O9  1  0.41165365  0.45526309  0.70855823  1
  O  O10  1  0.79149052  0.80936909  0.39706161  1
  O  O11  1  0.20850948  0.19063091  0.60293839  1
  O  O12  1  0.61776271  0.68158344  0.10069523  1
  O  O13  1  0.38223729  0.31841656  0.89930477  1
  O  O14  1  0.32608218  0.72855760  0.58292128  1
  O  O15  1  0.67391782  0.27144240  0.41707872  1
  O  O16  1  0.40026281  0.87825228  0.31660032  1
  O  O17  1  0.59973719  0.12174772  0.68339968  1
  O  O18  1  0.47546144  0.15596788  0.15197444  1
  O  O19  1  0.52453856  0.84403212  0.84802556  1
loop_
_geom_bond_atom_site_label_1
_geom_bond_atom_site_label_2
_geom_bond_distance
_geom_bond_site_symmetry_2
Na0 O11 2.306304 1_565
Na0 O16 2.329599 1_555
Na0 O14 2.351170 1_555
Na0 O17 2.366243 1_565
Na0 O5 2.417433 1_555
Na0 O10 2.676953 1_455
Na1 O6 2.360262 1_555
Na1 O3 2.362129 1_554
Na1 O12 2.381563 1_555
Na1 O8 2.403112 1_555
Na1 O13 2.404950 1_554
Na1 O0 2.643516 1_655
Na2 O7 2.360262 1_555
Na2 O0 2.362129 1_556
Na2 O13 2.381563 1_555
Na2 O9 2.403112 1_555
Na2 O12 2.404950 1_556
Na2 O3 2.643516 1_455
Na3 O10 2.306304 1_545
Na3 O17 2.329599 1_555
Na3 O15 2.351170 1_555
Na3 O16 2.366243 1_545
Na3 O4 2.417433 1_555
Na3 O11 2.676953 1_655
Na4 O4 2.273566 1_455
Na4 O5 2.273566 1_544
Na4 O7 2.278369 1_544
Na4 O6 2.278369 1_455
Na4 O19 2.829354 1_444
Na4 O18 2.829354 1_555
Na5 O9 2.343599 1_555
Na5 O8 2.343599 1_555
Na5 O15 2.403727 1_555
Na5 O14 2.403727 1_555
Na5 O1 2.694051 1_555
Na5 O2 2.694051 1_555
Na6 O19 2.287699 1_554
Na6 O7 2.323525 1_554
Na6 O12 2.327853 1_555
Na6 O18 2.359431 1_565
Na6 O16 2.375408 1_555
Na6 O4 2.380134 1_565
Na7 O18 2.287699 1_556
Na7 O6 2.323525 1_556
Na7 O13 2.327853 1_555
Na7 O19 2.359431 1_545
Na7 O17 2.375408 1_555
Na7 O5 2.380134 1_545
Na8 O14 2.266644 1_655
Na8 O8 2.308785 1_555
Na8 O1 2.349899 1_655
Na8 O2 2.440043 1_555
Na8 O10 2.445043 1_555
Na8 O0 2.475608 1_655
Na9 O15 2.266644 1_455
Na9 O9 2.308785 1_555
Na9 O2 2.349899 1_455
Na9 O1 2.440043 1_555
Na9 O11 2.445043 1_555
Na9 O3 2.475608 1_455
Na10 O14 2.239625 1_555
Na10 O5 2.344334 1_655
Na10 O10 2.350957 1_555
Na10 O2 2.383430 1_555
Na10 O19 2.410962 1_555
Na10 O17 2.811445 1_565
Na11 O15 2.239625 1_555
Na11 O4 2.344334 1_455
Na11 O11 2.350957 1_555
Na11 O1 2.383430 1_555
Na11 O18 2.410962 1_555
Na11 O16 2.811445 1_545
Na12 O16 2.252751 1_555
Na12 O12 2.273041 1_455
Na12 O0 2.329887 1_555
Na12 O10 2.381783 1_455
Na12 O4 2.467923 1_465
Na12 O7 2.739483 1_554
Na13 O17 2.252751 1_555
Na13 O13 2.273041 1_655
Na13 O3 2.329887 1_555
Na13 O11 2.381783 1_655
Na13 O5 2.467923 1_645
Na13 O6 2.739483 1_556
Na14 O9 2.275209 1_555
Na14 O2 2.328706 1_555
Na14 O7 2.349727 1_655
Na14 O19 2.380132 1_555
Na14 O3 2.405456 1_555
Na14 O12 2.523846 1_556
Na15 O8 2.275209 1_555
Na15 O1 2.328706 1_555
Na15 O6 2.349727 1_455
Na15 O18 2.380132 1_555
Na15 O0 2.405456 1_555
Na15 O13 2.523846 1_554
O0 Se1 1.793317 1_555
O1 Se3 1.758709 1_455
O2 Se2 1.758709 1_655
O3 Se0 1.793317 1_555
O4 Se3 1.730117 1_555
O5 Se2 1.730117 1_555
O6 Se3 1.806382 1_555
O7 Se2 1.806382 1_555
O8 Se1 1.756322 1_555
O9 Se0 1.756322 1_555
O10 Se1 1.796349 1_555
O11 Se0 1.796349 1_555
O12 Se1 1.718812 1_555
O13 Se0 1.718812 1_555
O14 Se2 1.762135 1_555
O15 Se3 1.762135 1_555
O16 Se1 1.781246 1_555
O17 Se0 1.781246 1_555
O18 Se3 1.778886 1_555
O19 Se2 1.778886 1_555
