# generated using pymatgen
data_Na4La3TaSi3(SO8)3
_symmetry_space_group_name_H-M   'P 1'
_cell_length_a   9.46276800
_cell_length_b   9.46320073
_cell_length_c   24.32542399
_cell_angle_alpha   90.01096160
_cell_angle_beta   89.99297658
_cell_angle_gamma   119.92681374
_symmetry_Int_Tables_number   1
_chemical_formula_structural   Na4La3TaSi3(SO8)3
_chemical_formula_sum   'Na12 La9 Ta3 Si9 S9 O72'
_cell_volume   1887.84830949
_cell_formula_units_Z   3
loop_
 _symmetry_equiv_pos_site_id
 _symmetry_equiv_pos_as_xyz
  1  'x, y, z'
loop_
 _atom_site_type_symbol
 _atom_site_label
 _atom_site_symmetry_multiplicity
 _atom_site_fract_x
 _atom_site_fract_y
 _atom_site_fract_z
 _atom_site_occupancy
  Na  Na0  1  0.64599107  0.00353206  0.25360990  1
  Na  Na1  1  0.35564660  0.35105761  0.25322059  1
  Na  Na2  1  0.99841171  0.64381841  0.25471901  1
  Na  Na3  1  0.31284928  0.34881651  0.58462930  1
  Na  Na4  1  0.65716044  0.96127583  0.58381899  1
  Na  Na5  1  0.29193767  0.95516543  0.08237227  1
  Na  Na6  1  0.99946705  0.98978560  0.50500902  1
  Na  Na7  1  0.98321144  0.99880563  0.98967678  1
  Na  Na8  1  0.66541551  0.33209406  0.82850860  1
  Na  Na9  1  0.66720410  0.33359461  0.32755420  1
  Na  Na10  1  0.33263443  0.65404117  0.18432571  1
  Na  Na11  1  0.31538606  0.66485352  0.66333439  1
  La  La0  1  0.00235933  0.00181339  0.34838362  1
  La  La1  1  0.00294937  0.00164002  0.85429988  1
  La  La2  1  0.00161094  0.98632070  0.64400528  1
  La  La3  1  0.99069925  0.00095519  0.15102159  1
  La  La4  1  0.67279239  0.34010565  0.68414057  1
  La  La5  1  0.67381489  0.34025228  0.18351796  1
  La  La6  1  0.33468149  0.65865195  0.01149946  1
  La  La7  1  0.31993387  0.66542546  0.51681188  1
  La  La8  1  0.33347701  0.66886474  0.32300966  1
  Ta  Ta0  1  0.66850720  0.33476260  0.96914529  1
  Ta  Ta1  1  0.67295901  0.33756677  0.49043644  1
  Ta  Ta2  1  0.33470105  0.66741577  0.82885028  1
  Si  Si0  1  0.30207559  0.99578606  0.24490878  1
  Si  Si1  1  0.69333056  0.69817618  0.25126210  1
  Si  Si2  1  0.00462205  0.30660033  0.25096971  1
  Si  Si3  1  0.95711121  0.32347274  0.58238172  1
  Si  Si4  1  0.38050547  0.05088448  0.58152730  1
  Si  Si5  1  0.66719649  0.62673289  0.57997865  1
  Si  Si6  1  0.62464920  0.65397803  0.91732812  1
  Si  Si7  1  0.03018947  0.37689389  0.91722304  1
  Si  Si8  1  0.34580496  0.96769875  0.92154965  1
  S  S0  1  0.30524798  0.33050768  0.75394505  1
  S  S1  1  0.02610583  0.69516726  0.75652467  1
  S  S2  1  0.67015613  0.97492323  0.75427082  1
  S  S3  1  0.95271056  0.62721421  0.07441176  1
  S  S4  1  0.66903042  0.05461287  0.07442155  1
  S  S5  1  0.38123945  0.32241303  0.07516289  1
  S  S6  1  0.64615362  -0.00003157  0.42222768  1
  S  S7  1  0.35562796  0.35498028  0.42205024  1
  S  S8  1  0.99613477  0.64557572  0.41892650  1
  O  O0  1  0.20753795  0.02715017  0.29532288  1
  O  O1  1  0.81162848  0.78327502  0.30371787  1
  O  O2  1  0.96943100  0.18786333  0.30349050  1
  O  O3  1  0.21075177  0.21813432  0.79838028  1
  O  O4  1  0.00754364  0.78505424  0.80204605  1
  O  O5  1  0.78254757  0.99203032  0.79854040  1
  O  O6  1  0.73199864  0.95333837  0.70016712  1
  O  O7  1  0.22256717  0.26637392  0.69987851  1
  O  O8  1  0.04527326  0.78177718  0.70331087  1
  O  O9  1  0.77399492  0.81193969  0.19638533  1
  O  O10  1  0.03627029  0.22548778  0.19594557  1
  O  O11  1  0.20134145  0.96899740  0.18649433  1
  O  O12  1  0.87787278  0.34732914  0.63712602  1
  O  O13  1  0.48167708  0.12832017  0.63685395  1
  O  O14  1  0.63717780  0.52047092  0.63458647  1
  O  O15  1  0.87949108  0.55317204  0.12844537  1
  O  O16  1  0.66948419  0.12881034  0.12842975  1
  O  O17  1  0.45598656  0.32470551  0.12921723  1
  O  O18  1  0.49418477  0.33120788  0.02987344  1
  O  O19  1  0.84925356  0.51687695  0.02902045  1
  O  O20  1  0.66972438  0.16330117  0.02905750  1
  O  O21  1  0.49501232  0.17093212  0.52818024  1
  O  O22  1  0.67895426  0.51504965  0.52692031  1
  O  O23  1  0.84110206  0.32799318  0.52841107  1
  O  O24  1  0.55414621  0.68055854  0.97302373  1
  O  O25  1  0.12634062  0.44941016  0.97283898  1
  O  O26  1  0.32301954  0.87981566  0.97946546  1
  O  O27  1  0.55395072  0.89416477  0.46912735  1
  O  O28  1  0.34135924  0.44647489  0.46905368  1
  O  O29  1  0.10640963  0.65960888  0.46427220  1
  O  O30  1  0.06305322  0.62699988  0.36574790  1
  O  O31  1  0.55598584  0.92934633  0.36984302  1
  O  O32  1  0.37217019  0.44408437  0.36970031  1
  O  O33  1  0.14303688  0.50892627  0.86551202  1
  O  O34  1  0.36647792  0.85167404  0.87048966  1
  O  O35  1  0.49040755  0.63110905  0.86578266  1
  O  O36  1  0.97428174  0.78862234  0.42013880  1
  O  O37  1  0.81101008  0.02100617  0.42133377  1
  O  O38  1  0.21241134  0.18922064  0.42128470  1
  O  O39  1  0.98539091  0.19383978  0.90478951  1
  O  O40  1  0.20778212  0.01052966  0.90610295  1
  O  O41  1  0.80645802  0.79265394  0.90402400  1
  O  O42  1  0.94488708  0.14382487  0.58074546  1
  O  O43  1  0.21022583  0.05755134  0.57991121  1
  O  O44  1  0.83140577  0.80663515  0.57995940  1
  O  O45  1  0.96533922  0.78987819  0.06926862  1
  O  O46  1  0.81384062  0.03573397  0.06921889  1
  O  O47  1  0.22564352  0.16406334  0.06979016  1
  O  O48  1  0.64622731  0.11868965  0.75398708  1
  O  O49  1  0.47312362  0.35481652  0.75416655  1
  O  O50  1  0.88357543  0.52731139  0.75516425  1
  O  O51  1  0.66597993  0.51321288  0.24692017  1
  O  O52  1  0.84782402  0.33537896  0.24689284  1
  O  O53  1  0.48843219  0.15278136  0.24433359  1
  O  O54  1  0.62604345  0.47567661  0.92616408  1
  O  O55  1  0.84983432  0.37472253  0.92559051  1
  O  O56  1  0.52469854  0.14997908  0.92746223  1
  O  O57  1  0.65792591  0.16432264  0.42863362  1
  O  O58  1  0.50839611  0.34387831  0.42818168  1
  O  O59  1  0.83441039  0.49225015  0.42684906  1
  O  O60  1  0.35393357  0.46157973  0.07448492  1
  O  O61  1  0.11990597  0.65032213  0.07477953  1
  O  O62  1  0.51452223  0.89615567  0.07387735  1
  O  O63  1  0.36561519  0.87345426  0.57350336  1
  O  O64  1  0.50778190  0.64792000  0.57112999  1
  O  O65  1  0.14675658  0.46609149  0.57554727  1
  O  O66  1  0.31785276  0.83172217  0.25564303  1
  O  O67  1  0.51079147  0.67779535  0.25841919  1
  O  O68  1  0.16748956  0.48781096  0.25847634  1
  O  O69  1  0.31480205  0.49362048  0.76384932  1
  O  O70  1  0.18023002  0.68563652  0.76489653  1
  O  O71  1  0.50571481  0.82274608  0.76484964  1
loop_
_geom_bond_atom_site_label_1
_geom_bond_atom_site_label_2
_geom_bond_distance
_geom_bond_site_symmetry_2
Na0 O53 2.523876 1_555
Na0 O67 2.686543 1_545
Na0 O66 2.692621 1_545
Na0 O52 2.748051 1_555
Na0 O2 2.924998 1_555
Na0 O31 2.935322 1_545
Na0 O9 2.980270 1_545
Na1 O51 2.550606 1_555
Na1 O68 2.675853 1_555
Na1 O67 2.683706 1_555
Na1 O53 2.738318 1_555
Na1 O0 2.850093 1_555
Na1 O32 2.947796 1_555
Na1 O10 2.983933 1_555
Na2 O52 2.536955 1_555
Na2 O66 2.633732 1_655
Na2 O68 2.665451 1_655
Na2 O51 2.753153 1_555
Na2 O30 2.791354 1_655
Na2 O1 2.934720 1_555
Na3 O65 2.343346 1_555
Na3 O43 2.425404 1_555
Na3 O64 2.512498 1_555
Na3 O28 2.929677 1_555
Na4 O42 2.389529 1_565
Na4 O63 2.465186 1_555
Na4 O64 2.589220 1_555
Na4 O44 2.697500 1_555
Na4 O27 2.919239 1_555
Na4 O6 2.927616 1_555
Na5 O47 2.373348 1_565
Na5 O62 2.442196 1_555
Na5 O61 2.514023 1_555
Na5 O26 2.658874 1_554
Na5 O45 2.697447 1_455
Na5 O11 2.697875 1_555
Na6 O44 2.471316 1_555
Na6 O43 2.536303 1_665
Na6 O42 2.556510 1_565
Na6 O36 2.736565 1_555
Na6 O37 2.817333 1_565
Na6 O38 2.824188 1_665
Na7 O46 2.644328 1_566
Na7 O45 2.711802 1_556
Na7 O39 2.763005 1_565
Na7 O41 2.772734 1_555
Na7 O47 2.815405 1_666
Na7 O40 2.902573 1_665
Na8 O49 2.649321 1_555
Na8 O48 2.651459 1_555
Na8 O50 2.655701 1_555
Na8 O55 2.843120 1_555
Na8 O54 2.851617 1_555
Na8 O56 2.871985 1_555
Na9 O52 2.596506 1_555
Na9 O51 2.599533 1_555
Na9 O53 2.645558 1_555
Na9 O59 2.867229 1_555
Na9 O58 2.899043 1_555
Na9 O57 2.912125 1_555
Na10 O68 2.391175 1_555
Na10 O67 2.400750 1_555
Na10 O66 2.467769 1_555
Na11 O65 2.765660 1_555
Na11 O63 2.821864 1_555
Na11 O70 2.833371 1_555
Na11 O69 2.932014 1_555
Na11 O64 2.942934 1_555
Na11 O71 2.981409 1_555
La0 O2 2.222086 1_455
La0 O1 2.233882 1_445
La0 O0 2.242347 1_555
La0 O36 2.579507 1_445
La0 O38 2.592913 1_555
La0 O37 2.605347 1_455
La1 O39 2.268212 1_455
La1 O41 2.272166 1_445
La1 O40 2.278117 1_555
La1 O3 2.427968 1_555
La1 O4 2.430291 1_545
La1 O5 2.451366 1_445
La2 O44 2.275873 1_455
La2 O43 2.335403 1_565
La2 O42 2.382649 1_465
La2 O8 2.607254 1_555
La2 O6 2.770849 1_455
La2 O7 2.777210 1_565
La3 O9 2.227679 1_545
La3 O10 2.231570 1_655
La3 O11 2.326179 1_645
La3 O46 2.723868 1_555
La3 O45 2.742735 1_545
La3 O47 2.793888 1_655
La4 O12 2.223908 1_555
La4 O13 2.234627 1_555
La4 O14 2.248275 1_555
La4 O50 2.564306 1_555
La4 O49 2.598550 1_555
La4 O48 2.610738 1_555
La5 O52 2.272984 1_555
La5 O51 2.276668 1_555
La5 O53 2.303978 1_555
La5 O17 2.390227 1_555
La5 O16 2.391284 1_555
La5 O15 2.393746 1_555
La6 O25 2.190113 1_554
La6 O24 2.191312 1_554
La6 O26 2.287092 1_554
La6 O60 2.489740 1_555
La6 O61 2.519060 1_555
La6 O62 2.536317 1_555
La7 O63 2.261436 1_555
La7 O65 2.280609 1_555
La7 O64 2.286374 1_555
La7 O29 2.368252 1_555
La7 O28 2.470219 1_555
La7 O27 2.480384 1_555
La8 O67 2.269141 1_555
La8 O68 2.276249 1_555
La8 O66 2.304517 1_555
La8 O31 2.574534 1_555
La8 O32 2.593629 1_555
La8 O30 2.602690 1_555
O0 Si0 1.629976 1_545
O1 Si1 1.621821 1_555
O2 Si2 1.622583 1_655
O3 S0 1.466355 1_555
O4 S1 1.459195 1_555
O5 S2 1.464717 1_555
O6 S2 1.495082 1_555
O7 S0 1.495446 1_555
O8 S1 1.494078 1_555
O9 Si1 1.644373 1_555
O10 Si2 1.642953 1_555
O11 Si0 1.658644 1_555
O12 Si3 1.598467 1_555
O13 Si4 1.601489 1_555
O14 Si5 1.603690 1_555
O15 S3 1.488071 1_555
O16 S4 1.488511 1_555
O17 S5 1.488160 1_555
O18 S5 1.507949 1_555
O18 Ta0 2.201933 1_554
O19 S3 1.499237 1_555
O19 Ta0 2.252845 1_554
O20 S4 1.506433 1_555
O20 Ta0 2.185502 1_554
O21 Si4 1.708991 1_555
O21 Ta1 1.875034 1_555
O22 Si5 1.706449 1_555
O22 Ta1 1.875134 1_555
O23 Si3 1.725617 1_555
O23 Ta1 1.880781 1_555
O24 Si6 1.584610 1_555
O25 Si7 1.583034 1_555
O26 Si8 1.595113 1_555
O27 S6 1.481158 1_565
O28 S7 1.480352 1_555
O29 S8 1.478250 1_455
O30 S8 1.488639 1_455
O31 S6 1.493123 1_565
O32 S7 1.491913 1_555
O33 Si7 1.718348 1_555
O33 Ta2 1.902669 1_555
O34 Si8 1.732117 1_555
O34 Ta2 1.906047 1_555
O35 Si6 1.720074 1_555
O35 Ta2 1.897805 1_555
O36 S8 1.468118 1_555
O37 S6 1.470990 1_555
O38 S7 1.475267 1_555
O39 Si7 1.593450 1_655
O40 Si8 1.593641 1_545
O41 Si6 1.591864 1_555
O42 Si3 1.645866 1_555
O43 Si4 1.644177 1_555
O44 Si5 1.635031 1_555
O45 S3 1.488613 1_555
O46 S4 1.473054 1_555
O47 S5 1.492969 1_555
O48 S2 1.486484 1_545
O49 S0 1.487237 1_555
O50 S1 1.485157 1_655
O51 Si1 1.640053 1_555
O52 Si2 1.639734 1_655
O53 Si0 1.644102 1_545
O54 Si6 1.707546 1_555
O54 Ta0 1.888943 1_555
O55 Si7 1.708643 1_655
O55 Ta0 1.887318 1_555
O56 Si8 1.717032 1_545
O56 Ta0 1.887602 1_555
O57 S6 1.510873 1_555
O57 Ta1 2.175907 1_555
O58 S7 1.508201 1_555
O58 Ta1 2.194367 1_555
O59 S8 1.506278 1_555
O59 Ta1 2.153659 1_555
O60 S5 1.463206 1_555
O61 S3 1.485205 1_455
O62 S4 1.482844 1_565
O63 Si4 1.625117 1_565
O64 Si5 1.632174 1_555
O65 Si3 1.628800 1_455
O66 Si0 1.652993 1_555
O67 Si1 1.648845 1_555
O68 Si2 1.646863 1_555
O69 S0 1.519686 1_555
O69 Ta2 2.220485 1_555
O70 S1 1.519206 1_555
O70 Ta2 2.199709 1_555
O71 S2 1.524974 1_555
O71 Ta2 2.197728 1_555
