# generated using pymatgen
data_H5NO5
_symmetry_space_group_name_H-M   'P 1'
_cell_length_a   13.00210900
_cell_length_b   6.77249700
_cell_length_c   11.00674767
_cell_angle_alpha   60.70747405
_cell_angle_beta   90.00000000
_cell_angle_gamma   90.00000000
_symmetry_Int_Tables_number   1
_chemical_formula_structural   H5NO5
_chemical_formula_sum   'H40 N8 O40'
_cell_volume   845.28741934
_cell_formula_units_Z   8
loop_
 _symmetry_equiv_pos_site_id
 _symmetry_equiv_pos_as_xyz
  1  'x, y, z'
loop_
 _atom_site_type_symbol
 _atom_site_label
 _atom_site_symmetry_multiplicity
 _atom_site_fract_x
 _atom_site_fract_y
 _atom_site_fract_z
 _atom_site_occupancy
  H  H0  1  0.77417700  0.27995800  0.95927600  1
  H  H1  1  0.03634800  0.12023900  0.74231200  1
  H  H2  1  0.46365200  0.12023900  0.24231200  1
  H  H3  1  0.53634800  0.87976100  0.75768800  1
  H  H4  1  0.27417700  0.72004200  0.54072400  1
  H  H5  1  0.22582300  0.72004200  0.04072400  1
  H  H6  1  0.72582300  0.27995800  0.45927600  1
  H  H7  1  0.84997500  0.45622900  0.83674900  1
  H  H8  1  0.34997500  0.54377100  0.66325100  1
  H  H9  1  0.15002500  0.54377100  0.16325100  1
  H  H10  1  0.65002500  0.45622900  0.33674900  1
  H  H11  1  0.66609600  0.57499100  0.59557500  1
  H  H12  1  0.16609600  0.42500900  0.90442500  1
  H  H13  1  0.33390400  0.42500900  0.40442500  1
  H  H14  1  0.83390400  0.57499100  0.09557500  1
  H  H15  1  0.71364100  0.42064900  0.76650700  1
  H  H16  1  0.21364100  0.57935100  0.73349300  1
  H  H17  1  0.28635900  0.57935100  0.23349300  1
  H  H18  1  0.78635900  0.42064900  0.26650700  1
  H  H19  1  0.58726600  0.40700600  0.71948300  1
  H  H20  1  0.08726600  0.59299400  0.78051700  1
  H  H21  1  0.41273400  0.59299400  0.28051700  1
  H  H22  1  0.91273400  0.40700600  0.21948300  1
  H  H23  1  0.83127300  0.91161000  0.22468400  1
  H  H24  1  0.96365200  0.87976100  0.25768800  1
  H  H25  1  0.66872700  0.91161000  0.72468400  1
  H  H26  1  0.16872700  0.08839000  0.77531600  1
  H  H27  1  0.33127300  0.08839000  0.27531600  1
  H  H28  1  0.20893600  0.07462600  0.40195300  1
  H  H29  1  0.29106400  0.07462600  0.90195300  1
  H  H30  1  0.79106400  0.92537400  0.59804700  1
  H  H31  1  0.68727100  0.06211100  0.17667100  1
  H  H32  1  0.18727100  0.93788900  0.32332900  1
  H  H33  1  0.31272900  0.93788900  0.82332900  1
  H  H34  1  0.81272900  0.06211100  0.67667100  1
  H  H35  1  0.87919200  0.79183100  0.39139400  1
  H  H36  1  0.37919200  0.20816900  0.10860600  1
  H  H37  1  0.12080800  0.20816900  0.60860600  1
  H  H38  1  0.62080800  0.79183100  0.89139400  1
  H  H39  1  0.70893600  0.92537400  0.09804700  1
  N  N0  1  0.58152000  0.88465700  0.40448100  1
  N  N1  1  0.08152000  0.11534300  0.09551900  1
  N  N2  1  0.41848000  0.11534300  0.59551900  1
  N  N3  1  0.91848000  0.88465700  0.90448100  1
  N  N4  1  0.96084900  0.69990100  0.60406900  1
  N  N5  1  0.46084900  0.30009900  0.89593100  1
  N  N6  1  0.03915100  0.30009900  0.39593100  1
  N  N7  1  0.53915100  0.69990100  0.10406900  1
  O  O0  1  0.77782400  0.41664900  0.86599500  1
  O  O1  1  0.27782400  0.58335100  0.63400500  1
  O  O2  1  0.22217600  0.58335100  0.13400500  1
  O  O3  1  0.66154900  0.42488300  0.68665600  1
  O  O4  1  0.16154900  0.57511700  0.81334400  1
  O  O5  1  0.33845100  0.57511700  0.31334400  1
  O  O6  1  0.83845100  0.42488300  0.18665600  1
  O  O7  1  0.50168700  0.79695000  0.47087800  1
  O  O8  1  0.00168700  0.20305000  0.02912200  1
  O  O9  1  0.49831300  0.20305000  0.52912200  1
  O  O10  1  0.99831300  0.79695000  0.97087800  1
  O  O11  1  0.67060700  0.80982700  0.45250400  1
  O  O12  1  0.17060700  0.19017300  0.04749600  1
  O  O13  1  0.32939300  0.19017300  0.54749600  1
  O  O14  1  0.82939300  0.80982700  0.95250400  1
  O  O15  1  0.57674900  0.05903700  0.28080700  1
  O  O16  1  0.07674900  0.94096300  0.21919300  1
  O  O17  1  0.42325100  0.94096300  0.71919300  1
  O  O18  1  0.92325100  0.05903700  0.78080700  1
  O  O19  1  0.74179400  0.02995700  0.12518000  1
  O  O20  1  0.24179400  0.97004300  0.37482000  1
  O  O21  1  0.25820600  0.97004300  0.87482000  1
  O  O22  1  0.75820600  0.02995700  0.62518000  1
  O  O23  1  0.89013800  0.81831000  0.29255600  1
  O  O24  1  0.39013800  0.18169000  0.20744400  1
  O  O25  1  0.10986200  0.18169000  0.70744400  1
  O  O26  1  0.60986200  0.81831000  0.79255600  1
  O  O27  1  0.03887600  0.73659400  0.53134000  1
  O  O28  1  0.53887600  0.26340600  0.96866000  1
  O  O29  1  0.96112400  0.26340600  0.46866000  1
  O  O30  1  0.46112400  0.73659400  0.03134000  1
  O  O31  1  0.87030800  0.73974300  0.54956500  1
  O  O32  1  0.37030800  0.26025700  0.95043500  1
  O  O33  1  0.12969200  0.26025700  0.45043500  1
  O  O34  1  0.62969200  0.73974300  0.04956500  1
  O  O35  1  0.96707400  0.62136400  0.73589200  1
  O  O36  1  0.46707400  0.37863600  0.76410800  1
  O  O37  1  0.03292600  0.37863600  0.26410800  1
  O  O38  1  0.53292600  0.62136400  0.23589200  1
  O  O39  1  0.72217600  0.41664900  0.36599500  1
loop_
_geom_bond_atom_site_label_1
_geom_bond_atom_site_label_2
_geom_bond_distance
_geom_bond_site_symmetry_2
H0 O0 0.991625 1_555
H1 O25 1.038183 1_555
H1 O18 1.530309 1_455
H2 O24 1.038183 1_555
H2 O15 1.530309 1_555
H3 O26 1.038183 1_555
H3 O17 1.530309 1_555
H4 O1 0.991625 1_555
H5 O2 0.991625 1_555
H6 O39 0.991625 1_555
H7 O0 0.985444 1_555
H8 O1 0.985444 1_555
H9 O2 0.985444 1_555
H10 O39 0.985444 1_555
H11 O3 1.022116 1_555
H11 O11 1.600612 1_555
H12 O4 1.022116 1_555
H12 O12 1.600612 1_556
H13 O5 1.022116 1_555
H13 O13 1.600612 1_555
H14 O6 1.022116 1_555
H14 O14 1.600612 1_554
H15 O3 1.098803 1_555
H15 O0 1.366467 1_555
H16 O4 1.098803 1_555
H16 O1 1.366467 1_555
H17 O5 1.098803 1_555
H17 O2 1.366467 1_555
H18 O6 1.098803 1_555
H18 O39 1.366467 1_555
H19 O3 1.017468 1_555
H19 O36 1.621114 1_555
H20 O4 1.017468 1_555
H20 O35 1.621114 1_455
H21 O5 1.017468 1_555
H21 O38 1.621114 1_555
H22 O6 1.017468 1_555
H22 O37 1.621114 1_655
H23 O23 1.039821 1_555
H23 O19 1.528549 1_565
H24 O23 1.038183 1_555
H24 O16 1.530309 1_655
H25 O26 1.039821 1_555
H25 O22 1.528549 1_565
H26 O25 1.039821 1_555
H26 O21 1.528549 1_545
H27 O24 1.039821 1_555
H27 O20 1.528549 1_545
H28 O20 0.990136 1_545
H29 O21 0.990136 1_545
H30 O22 0.990136 1_565
H31 O19 0.995968 1_555
H32 O20 0.995968 1_555
H33 O21 0.995968 1_555
H34 O22 0.995968 1_555
H35 O23 1.022255 1_555
H35 O31 1.602411 1_555
H36 O24 1.022255 1_555
H36 O32 1.602411 1_554
H37 O25 1.022255 1_555
H37 O33 1.602411 1_555
H38 O26 1.022255 1_555
H38 O34 1.602411 1_556
H39 O19 0.990136 1_565
N0 O7 1.240796 1_555
N0 O11 1.271142 1_555
N0 O15 1.295555 1_565
N1 O8 1.240796 1_555
N1 O12 1.271142 1_555
N1 O16 1.295555 1_545
N2 O9 1.240796 1_555
N2 O13 1.271142 1_555
N2 O17 1.295555 1_545
N3 O10 1.240796 1_555
N3 O14 1.271142 1_555
N3 O18 1.295555 1_565
N4 O27 1.239819 1_655
N4 O35 1.280435 1_555
N4 O31 1.288471 1_555
N5 O28 1.239819 1_555
N5 O36 1.280435 1_555
N5 O32 1.288471 1_555
N6 O29 1.239819 1_455
N6 O37 1.280435 1_555
N6 O33 1.288471 1_555
N7 O30 1.239819 1_555
N7 O38 1.280435 1_555
N7 O34 1.288471 1_555
