# generated using pymatgen
data_Na10Nb6In2Si11SO48
_symmetry_space_group_name_H-M   'P 1'
_cell_length_a   18.16591152
_cell_length_b   9.07871081
_cell_length_c   22.71464786
_cell_angle_alpha   90.01884165
_cell_angle_beta   90.07366662
_cell_angle_gamma   120.02825378
_symmetry_Int_Tables_number   1
_chemical_formula_structural   Na10Nb6In2Si11SO48
_chemical_formula_sum   'Na30 Nb18 In6 Si33 S3 O144'
_cell_volume   3243.34888895
_cell_formula_units_Z   3
loop_
 _symmetry_equiv_pos_site_id
 _symmetry_equiv_pos_as_xyz
  1  'x, y, z'
loop_
 _atom_site_type_symbol
 _atom_site_label
 _atom_site_symmetry_multiplicity
 _atom_site_fract_x
 _atom_site_fract_y
 _atom_site_fract_z
 _atom_site_occupancy
  Na  Na0  1  0.31613361  0.99043201  0.25237710  1
  Na  Na1  1  0.81768593  0.99179150  0.25238992  1
  Na  Na2  1  0.81804354  0.64195170  0.74767672  1
  Na  Na3  1  0.18331932  0.98623423  0.75025137  1
  Na  Na4  1  0.68081442  0.00156771  0.74887592  1
  Na  Na5  1  0.01902090  0.71174459  0.58556917  1
  Na  Na6  1  0.83553288  0.96077772  0.58507906  1
  Na  Na7  1  0.64751620  0.96849210  0.08472413  1
  Na  Na8  1  0.33622932  0.71069826  0.08691441  1
  Na  Na9  1  0.83753892  0.71130823  0.08844781  1
  Na  Na10  1  0.01930423  0.32529688  0.08743933  1
  Na  Na11  1  0.51559056  0.32260514  0.08790669  1
  Na  Na12  1  0.98720079  0.65932384  0.91424149  1
  Na  Na13  1  0.34687692  0.03137112  0.91391902  1
  Na  Na14  1  0.48606596  0.31630837  0.41582313  1
  Na  Na15  1  0.98758823  0.31760930  0.41542351  1
  Na  Na16  1  0.34241261  0.65808992  0.41590360  1
  Na  Na17  1  0.84342166  0.65888608  0.41578269  1
  Na  Na18  1  0.01176710  0.01189022  0.50577463  1
  Na  Na19  1  0.50649566  0.00018616  0.50524300  1
  Na  Na20  1  0.00810801  0.01214285  0.00509410  1
  Na  Na21  1  0.50226199  0.99857172  0.99963100  1
  Na  Na22  1  0.33737239  0.35468156  0.83379895  1
  Na  Na23  1  0.83663733  0.32579850  0.83374580  1
  Na  Na24  1  0.32980117  0.33627275  0.33324025  1
  Na  Na25  1  0.83054344  0.33747087  0.33331849  1
  Na  Na26  1  0.16165965  0.65342926  0.17338375  1
  Na  Na27  1  0.66253905  0.64373295  0.17594629  1
  Na  Na28  1  0.17202389  0.66623233  0.67073572  1
  Na  Na29  1  0.65692781  0.64821943  0.66359142  1
  Nb  Nb0  1  0.99503451  0.99646780  0.35527551  1
  Nb  Nb1  1  0.49399247  0.99648252  0.35487645  1
  Nb  Nb2  1  0.99341032  0.99541169  0.85702941  1
  Nb  Nb3  1  0.49943108  0.99695283  0.85482755  1
  Nb  Nb4  1  0.49873474  0.00075634  0.64493155  1
  Nb  Nb5  1  0.34000085  0.33537073  0.68515929  1
  Nb  Nb6  1  0.83592724  0.33761631  0.68787534  1
  Nb  Nb7  1  0.33833164  0.34379724  0.18704037  1
  Nb  Nb8  1  0.84024353  0.34767242  0.18729988  1
  Nb  Nb9  1  0.33226882  0.33907813  0.97871160  1
  Nb  Nb10  1  0.83062313  0.32542136  0.97725998  1
  Nb  Nb11  1  0.33225837  0.33119704  0.48218823  1
  Nb  Nb12  1  0.83037367  0.32688932  0.48145871  1
  Nb  Nb13  1  0.16717876  0.66940867  0.01973765  1
  Nb  Nb14  1  0.66680353  0.66622638  0.01941837  1
  Nb  Nb15  1  0.16924451  0.66801801  0.52197122  1
  Nb  Nb16  1  0.66251619  0.66219869  0.52085255  1
  Nb  Nb17  1  0.66202304  0.66228056  0.81263625  1
  In  In0  1  -0.00059314  -0.00104874  0.64558595  1
  In  In1  1  0.00168722  0.00080142  0.14561525  1
  In  In2  1  0.49723645  0.00267995  0.14708669  1
  In  In3  1  0.16429726  0.65338062  0.31698122  1
  In  In4  1  0.66485473  0.65353357  0.31705127  1
  In  In5  1  0.16835437  0.66884945  0.81606493  1
  Si  Si0  1  0.35091806  0.70288640  0.24796763  1
  Si  Si1  1  0.85222670  0.70639449  0.24771714  1
  Si  Si2  1  0.00202038  0.29707696  0.24714721  1
  Si  Si3  1  0.50151385  0.29905605  0.24754253  1
  Si  Si4  1  0.64225350  0.28871922  0.74952040  1
  Si  Si5  1  0.00232126  0.70861955  0.74919368  1
  Si  Si6  1  0.49642916  0.70965621  0.74963917  1
  Si  Si7  1  0.35473767  0.99855504  0.74994058  1
  Si  Si8  1  0.85404220  0.00234111  0.74873025  1
  Si  Si9  1  0.48031213  0.33222120  0.58185526  1
  Si  Si10  1  0.98070173  0.33640191  0.58326415  1
  Si  Si11  1  0.18912535  0.04258243  0.58494029  1
  Si  Si12  1  0.68684087  0.04148282  0.58531090  1
  Si  Si13  1  0.33325605  0.62192301  0.58429900  1
  Si  Si14  1  0.82957646  0.61963894  0.58304102  1
  Si  Si15  1  0.48017691  0.62360171  0.08297743  1
  Si  Si16  1  0.97994031  0.62395688  0.08033182  1
  Si  Si17  1  0.33008951  0.04430800  0.08261518  1
  Si  Si18  1  0.83097587  0.04375209  0.08432218  1
  Si  Si19  1  0.18948576  0.33335006  0.08328040  1
  Si  Si20  1  0.69058022  0.33562750  0.08322129  1
  Si  Si21  1  0.31202875  0.66587804  0.91570213  1
  Si  Si22  1  0.80876668  0.66150472  0.91554235  1
  Si  Si23  1  0.02298430  0.37665696  0.91668675  1
  Si  Si24  1  0.52084185  0.37450807  0.91728302  1
  Si  Si25  1  0.16688000  0.96195777  0.91508277  1
  Si  Si26  1  0.66505101  0.95483446  0.91617144  1
  Si  Si27  1  0.30836253  0.96000203  0.41400465  1
  Si  Si28  1  0.80827567  0.95695723  0.41514921  1
  Si  Si29  1  0.16713698  0.37299301  0.41758337  1
  Si  Si30  1  0.66664567  0.37211117  0.41700694  1
  Si  Si31  1  0.02225279  0.66900527  0.41828599  1
  Si  Si32  1  0.52146789  0.66962970  0.41645987  1
  S  S0  1  0.14640242  0.00328337  0.25069365  1
  S  S1  1  0.64661337  0.00421604  0.24947649  1
  S  S2  1  0.14528501  0.28837956  0.75037183  1
  O  O0  1  0.10235450  0.02107496  0.30335118  1
  O  O1  1  0.60047723  0.01996721  0.30097201  1
  O  O2  1  0.41367090  0.80508562  0.30699363  1
  O  O3  1  0.91402549  0.80537621  0.30710940  1
  O  O4  1  0.48916575  0.16825934  0.30515801  1
  O  O5  1  0.98860859  0.16796008  0.30548943  1
  O  O6  1  0.10134245  0.17793963  0.80279734  1
  O  O7  1  0.59721240  0.16435319  0.80672103  1
  O  O8  1  0.48526592  0.80458845  0.80806065  1
  O  O9  1  0.98729706  0.80768575  0.80717668  1
  O  O10  1  0.41291185  0.02509006  0.80987228  1
  O  O11  1  0.91662487  0.02520005  0.80578934  1
  O  O12  1  0.40861490  0.98557842  0.69359970  1
  O  O13  1  0.88620622  0.95388514  0.68978949  1
  O  O14  1  0.09684642  0.21321890  0.69617391  1
  O  O15  1  0.58509733  0.19653679  0.69146323  1
  O  O16  1  0.01759650  0.81952335  0.69006184  1
  O  O17  1  0.51682945  0.83658648  0.69350196  1
  O  O18  1  0.39259759  0.80845538  0.18815211  1
  O  O19  1  0.89368995  0.81280771  0.18821414  1
  O  O20  1  0.01098970  0.21476254  0.18665257  1
  O  O21  1  0.51369294  0.22177472  0.18654558  1
  O  O22  1  0.09875963  0.98197005  0.19613133  1
  O  O23  1  0.60110648  0.98504136  0.19345283  1
  O  O24  1  0.43176590  0.35815647  0.63964278  1
  O  O25  1  0.92927520  0.36205178  0.64024553  1
  O  O26  1  0.24685173  0.13565403  0.64459690  1
  O  O27  1  0.74802900  0.13300639  0.64376759  1
  O  O28  1  0.32059946  0.49674476  0.64072035  1
  O  O29  1  0.81940968  0.50467902  0.64259033  1
  O  O30  1  0.43460505  0.50017117  0.14167366  1
  O  O31  1  0.93233041  0.49708615  0.13917585  1
  O  O32  1  0.32011712  0.13721393  0.14257271  1
  O  O33  1  0.81453559  0.13121238  0.14315280  1
  O  O34  1  0.25253905  0.36261428  0.14069098  1
  O  O35  1  0.75316474  0.36669598  0.14045424  1
  O  O36  1  0.23998005  0.31701409  0.02623867  1
  O  O37  1  0.73834490  0.31304457  0.02552381  1
  O  O38  1  0.41874899  0.52642609  0.02738071  1
  O  O39  1  0.91884650  0.52715635  0.02319299  1
  O  O40  1  0.34447085  0.16594502  0.02545658  1
  O  O41  1  0.84056529  0.16649393  0.02831618  1
  O  O42  1  0.24299665  0.16568988  0.52933582  1
  O  O43  1  0.73766296  0.16056821  0.52842234  1
  O  O44  1  0.34701563  0.53342901  0.52535555  1
  O  O45  1  0.84101882  0.52047939  0.52656521  1
  O  O46  1  0.42449349  0.31189062  0.52318951  1
  O  O47  1  0.92117852  0.31363991  0.52534159  1
  O  O48  1  0.26583624  0.69841120  0.97441543  1
  O  O49  1  0.76478743  0.69021851  0.97474938  1
  O  O50  1  0.08199870  0.46559315  0.97627117  1
  O  O51  1  0.58078199  0.46972381  0.97589767  1
  O  O52  1  0.14945734  0.82646261  0.97039272  1
  O  O53  1  0.65394180  0.83647548  0.97503911  1
  O  O54  1  0.26246027  0.82754215  0.46971252  1
  O  O55  1  0.76497983  0.83083857  0.47263384  1
  O  O56  1  0.14780463  0.46677680  0.47365095  1
  O  O57  1  0.64817154  0.46756414  0.47316378  1
  O  O58  1  0.08142075  0.69685353  0.47718230  1
  O  O59  1  0.58315266  0.69680402  0.47432899  1
  O  O60  1  0.05539564  0.61079062  0.36272234  1
  O  O61  1  0.55532684  0.61202152  0.36133494  1
  O  O62  1  0.25916357  0.89256407  0.35302577  1
  O  O63  1  0.75813603  0.88937535  0.35442254  1
  O  O64  1  0.19957199  0.49707592  0.36165719  1
  O  O65  1  0.69937013  0.49665689  0.36133346  1
  O  O66  1  0.05623416  0.50269057  0.86167322  1
  O  O67  1  0.57095737  0.49836684  0.86083826  1
  O  O68  1  0.19329453  0.90245911  0.85603383  1
  O  O69  1  0.67753798  0.86162162  0.85816940  1
  O  O70  1  0.25613380  0.62570718  0.85797734  1
  O  O71  1  0.75189799  0.64157112  0.85739833  1
  O  O72  1  0.00928971  0.83648960  0.40935442  1
  O  O73  1  0.50987035  0.83847914  0.40928132  1
  O  O74  1  0.40546288  0.97436625  0.40974766  1
  O  O75  1  0.90563649  0.97344810  0.40989166  1
  O  O76  1  0.07875792  0.18801702  0.40886872  1
  O  O77  1  0.57828365  0.18781095  0.40880089  1
  O  O78  1  0.01298126  0.18666405  0.90841388  1
  O  O79  1  0.51109568  0.18659869  0.91088741  1
  O  O80  1  0.07822070  0.96969162  0.90954711  1
  O  O81  1  0.58053332  0.97271668  0.91055074  1
  O  O82  1  0.40529528  0.84497146  0.91232636  1
  O  O83  1  0.90489966  0.83327100  0.90975944  1
  O  O84  1  0.48868810  0.16290685  0.58840747  1
  O  O85  1  0.98325612  0.16238816  0.58620007  1
  O  O86  1  0.09460458  0.01582622  0.58379837  1
  O  O87  1  0.59377516  0.02313998  0.58988897  1
  O  O88  1  0.41764482  0.80996632  0.59202395  1
  O  O89  1  0.91542961  0.80430015  0.58226687  1
  O  O90  1  0.49292149  0.81243631  0.08591345  1
  O  O91  1  0.98470520  0.80485913  0.08411886  1
  O  O92  1  0.41437954  0.02341425  0.08192768  1
  O  O93  1  0.91406003  0.02358453  0.08259110  1
  O  O94  1  0.09469919  0.17354711  0.08408109  1
  O  O95  1  0.59786147  0.16618182  0.08520718  1
  O  O96  1  0.34546116  0.17311960  0.74370704  1
  O  O97  1  0.84126471  0.16916728  0.74561903  1
  O  O98  1  0.22958146  0.29284925  0.74802900  1
  O  O99  1  0.73733496  0.30695698  0.74374663  1
  O  O100  1  0.41249262  0.52038885  0.74325549  1
  O  O101  1  0.90999577  0.52375932  0.74551497  1
  O  O102  1  0.34465729  0.51367708  0.24489928  1
  O  O103  1  0.84532826  0.51565162  0.24443324  1
  O  O104  1  0.40648596  0.29047233  0.24612106  1
  O  O105  1  0.90680950  0.29154800  0.24497960  1
  O  O106  1  0.23226001  0.16182896  0.24844064  1
  O  O107  1  0.73231191  0.16274923  0.24831935  1
  O  O108  1  0.32830734  0.50603096  0.92627569  1
  O  O109  1  0.82526898  0.50081987  0.92072739  1
  O  O110  1  0.42563114  0.34891762  0.92201724  1
  O  O111  1  0.92688812  0.35113448  0.92780344  1
  O  O112  1  0.25016394  0.14850024  0.92778927  1
  O  O113  1  0.75075778  0.14220977  0.92224583  1
  O  O114  1  0.33150007  0.15712860  0.42473569  1
  O  O115  1  0.83087486  0.15432827  0.42520797  1
  O  O116  1  0.24896965  0.34595333  0.42945706  1
  O  O117  1  0.74828862  0.34496134  0.42857398  1
  O  O118  1  0.42435955  0.50681160  0.42667299  1
  O  O119  1  0.92395306  0.50558060  0.42773838  1
  O  O120  1  0.18545295  0.51142249  0.07763900  1
  O  O121  1  0.68335515  0.50927263  0.07731234  1
  O  O122  1  0.07040340  0.62639273  0.07697980  1
  O  O123  1  0.57286694  0.63305894  0.07777857  1
  O  O124  1  0.24530923  0.85375802  0.07646757  1
  O  O125  1  0.74391780  0.85544015  0.07709396  1
  O  O126  1  0.18235463  0.85518182  0.57685122  1
  O  O127  1  0.68449064  0.85865817  0.57730168  1
  O  O128  1  0.24751379  0.63714547  0.57604607  1
  O  O129  1  0.74581399  0.64216134  0.57756147  1
  O  O130  1  0.07153189  0.51373160  0.57882218  1
  O  O131  1  0.57315949  0.50628221  0.57769112  1
  O  O132  1  0.16012780  0.85777813  0.25552639  1
  O  O133  1  0.65970384  0.85775226  0.25414057  1
  O  O134  1  0.26147933  0.69892210  0.25316367  1
  O  O135  1  0.76191674  0.69964148  0.25277377  1
  O  O136  1  0.07912069  0.48780422  0.25257529  1
  O  O137  1  0.57941405  0.48891033  0.25306446  1
  O  O138  1  0.15789131  0.45912635  0.75560758  1
  O  O139  1  0.65723602  0.48278704  0.75611654  1
  O  O140  1  0.08465361  0.68706968  0.75421756  1
  O  O141  1  0.58405464  0.69578815  0.75713567  1
  O  O142  1  0.26004227  0.83596694  0.74920197  1
  O  O143  1  0.75834535  0.83378196  0.75970112  1
loop_
_geom_bond_atom_site_label_1
_geom_bond_atom_site_label_2
_geom_bond_distance
_geom_bond_site_symmetry_2
Na0 O134 2.315262 1_555
Na0 O104 2.379141 1_565
Na0 O132 2.464066 1_555
Na0 O62 2.484816 1_555
Na0 O106 2.668980 1_565
Na0 O32 2.812125 1_565
Na1 O135 2.317766 1_555
Na1 O105 2.376304 1_565
Na1 O133 2.494727 1_555
Na1 O63 2.531280 1_555
Na1 O107 2.689175 1_565
Na1 O33 2.799356 1_565
Na1 O5 2.944900 1_565
Na1 O19 2.986764 1_555
Na2 O101 2.395441 1_555
Na2 O143 2.484854 1_555
Na2 O139 2.536757 1_555
Na2 O99 2.635117 1_555
Na2 O29 2.698277 1_555
Na2 O71 2.767470 1_555
Na2 O13 2.789110 1_555
Na2 O9 2.983585 1_555
Na3 O142 2.388995 1_555
Na3 O140 2.392863 1_555
Na3 O98 2.473146 1_565
Na3 O68 2.553983 1_555
Na3 O96 2.564381 1_565
Na3 O26 2.715521 1_565
Na4 O99 2.430259 1_555
Na4 O141 2.439032 1_545
Na4 O97 2.525502 1_555
Na4 O143 2.551684 1_545
Na4 O27 2.676952 1_555
Na4 O69 2.776270 1_545
Na4 O17 2.867576 1_545
Na4 O7 2.909856 1_555
Na5 O86 2.390527 1_565
Na5 O89 2.415635 1_455
Na5 O130 2.425216 1_555
Na5 O16 2.572092 1_555
Na5 O126 2.583266 1_555
Na5 O58 2.743144 1_555
Na6 O85 2.374019 1_565
Na6 O127 2.423208 1_555
Na6 O89 2.488492 1_555
Na6 O129 2.516591 1_555
Na6 O13 2.561344 1_555
Na6 O55 2.834494 1_555
Na7 O95 2.378082 1_565
Na7 O90 2.431635 1_555
Na7 O125 2.439230 1_555
Na7 O23 2.639095 1_555
Na7 O123 2.646439 1_555
Na7 O53 2.792183 1_554
Na8 O120 2.420389 1_555
Na8 O92 2.460732 1_565
Na8 O18 2.491446 1_555
Na8 O90 2.514908 1_555
Na8 O124 2.572412 1_555
Na8 O48 2.833062 1_554
Na9 O91 2.367772 1_555
Na9 O93 2.458457 1_565
Na9 O19 2.465158 1_555
Na9 O121 2.475755 1_555
Na9 O125 2.626333 1_555
Na9 O49 2.861965 1_554
Na9 O35 2.956475 1_555
Na10 O94 2.380847 1_555
Na10 O122 2.419058 1_555
Na10 O93 2.434795 1_455
Na10 O20 2.441146 1_555
Na10 O120 2.629098 1_555
Na10 O50 2.802398 1_554
Na10 O31 2.963032 1_455
Na11 O92 2.403688 1_555
Na11 O21 2.414370 1_555
Na11 O123 2.479013 1_555
Na11 O95 2.525572 1_555
Na11 O121 2.655324 1_555
Na11 O51 2.843676 1_554
Na11 O30 2.937973 1_555
Na12 O80 2.454100 1_655
Na12 O111 2.461133 1_555
Na12 O109 2.551526 1_555
Na12 O66 2.609248 1_655
Na12 O83 2.665017 1_555
Na12 O39 2.761321 1_556
Na12 O9 2.779995 1_555
Na12 O52 2.851301 1_655
Na13 O82 2.405980 1_545
Na13 O112 2.487508 1_555
Na13 O110 2.502558 1_555
Na13 O79 2.585161 1_555
Na13 O10 2.665241 1_555
Na13 O68 2.757527 1_545
Na13 O40 2.822252 1_556
Na13 O48 2.957563 1_545
Na14 O114 2.440042 1_555
Na14 O77 2.479771 1_555
Na14 O118 2.499865 1_555
Na14 O61 2.635892 1_555
Na14 O46 2.676298 1_555
Na14 O74 2.692591 1_545
Na14 O57 2.862804 1_555
Na14 O4 2.863990 1_555
Na15 O76 2.469829 1_655
Na15 O115 2.475781 1_555
Na15 O119 2.510334 1_555
Na15 O60 2.599893 1_655
Na15 O75 2.708976 1_545
Na15 O47 2.766720 1_555
Na15 O56 2.845738 1_655
Na15 O5 2.846905 1_555
Na16 O116 2.488799 1_555
Na16 O118 2.491526 1_555
Na16 O74 2.507056 1_555
Na16 O64 2.565642 1_555
Na16 O73 2.640787 1_555
Na16 O44 2.750438 1_555
Na16 O2 2.803211 1_555
Na16 O54 2.865260 1_555
Na17 O119 2.487598 1_555
Na17 O75 2.494233 1_555
Na17 O117 2.503191 1_555
Na17 O65 2.584516 1_555
Na17 O72 2.615136 1_655
Na17 O3 2.794677 1_555
Na17 O45 2.803658 1_555
Na17 O55 2.892233 1_555
Na18 O86 2.312146 1_555
Na18 O85 2.486259 1_455
Na18 O89 2.518413 1_445
Na18 O76 2.635265 1_555
Na18 O72 2.694492 1_545
Na18 O75 2.810258 1_445
Na19 O87 2.432133 1_555
Na19 O84 2.516663 1_555
Na19 O88 2.587239 1_545
Na19 O73 2.645489 1_545
Na19 O77 2.680982 1_555
Na19 O74 2.772631 1_545
Na20 O94 2.350457 1_555
Na20 O91 2.479460 1_445
Na20 O93 2.492709 1_455
Na20 O80 2.641755 1_544
Na20 O78 2.683900 1_554
Na20 O83 2.789559 1_444
Na21 O90 2.538034 1_556
Na21 O95 2.540561 1_566
Na21 O92 2.542001 1_566
Na21 O82 2.551633 1_555
Na21 O81 2.551900 1_555
Na21 O79 2.594618 1_565
Na22 O100 2.511943 1_555
Na22 O108 2.559889 1_555
Na22 O110 2.581568 1_555
Na22 O98 2.614250 1_555
Na22 O96 2.677198 1_555
Na22 O112 2.759531 1_555
Na23 O97 2.480817 1_555
Na23 O101 2.575777 1_555
Na23 O113 2.580849 1_555
Na23 O109 2.607392 1_555
Na23 O111 2.630330 1_555
Na23 O99 2.672825 1_555
Na24 O102 2.502387 1_555
Na24 O106 2.557088 1_555
Na24 O104 2.572108 1_555
Na24 O114 2.649093 1_555
Na24 O116 2.660393 1_555
Na24 O118 2.679284 1_555
Na25 O103 2.516741 1_555
Na25 O107 2.565990 1_555
Na25 O105 2.589281 1_555
Na25 O117 2.651198 1_555
Na25 O115 2.670848 1_555
Na25 O119 2.684213 1_555
Na26 O136 2.344590 1_555
Na26 O134 2.446253 1_555
Na26 O132 2.640743 1_555
Na26 O120 2.671524 1_555
Na26 O122 2.680783 1_555
Na26 O124 2.776381 1_555
Na27 O137 2.282217 1_555
Na27 O135 2.374092 1_555
Na27 O133 2.651571 1_555
Na27 O121 2.667414 1_555
Na27 O123 2.732707 1_555
Na27 O125 2.844117 1_555
Na28 O142 2.373340 1_555
Na28 O140 2.541394 1_555
Na28 O138 2.615022 1_555
Na28 O128 2.635543 1_555
Na28 O130 2.658372 1_555
Na28 O126 2.684566 1_555
Na29 O131 2.410696 1_555
Na29 O129 2.554577 1_555
Na29 O139 2.585203 1_555
Na29 O127 2.605780 1_555
Na29 O141 2.651919 1_555
Na29 O143 2.806974 1_555
Nb0 O3 1.952376 1_555
Nb0 O75 1.971233 1_555
Nb0 O5 1.974651 1_565
Nb0 O72 2.015496 1_655
Nb0 O76 2.041078 1_665
Nb0 O0 2.193622 1_665
Nb1 O2 1.946397 1_555
Nb1 O4 1.962888 1_565
Nb1 O74 1.965270 1_555
Nb1 O73 2.020499 1_555
Nb1 O77 2.047910 1_565
Nb1 O1 2.209076 1_565
Nb2 O11 1.935735 1_565
Nb2 O83 1.955499 1_555
Nb2 O78 1.970609 1_665
Nb2 O9 2.002069 1_555
Nb2 O80 2.051031 1_655
Nb2 O6 2.205335 1_665
Nb3 O8 1.947554 1_555
Nb3 O7 1.990774 1_565
Nb3 O10 1.994018 1_565
Nb3 O81 2.034928 1_555
Nb3 O82 2.044342 1_555
Nb3 O79 2.064826 1_565
Nb4 O12 1.923584 1_545
Nb4 O15 1.985272 1_555
Nb4 O17 2.009269 1_545
Nb4 O88 2.013660 1_545
Nb4 O84 2.029394 1_555
Nb4 O87 2.059086 1_555
Nb5 O24 1.884154 1_555
Nb5 O28 1.951003 1_555
Nb5 O26 1.980899 1_555
Nb5 O100 2.019226 1_555
Nb5 O96 2.023724 1_555
Nb5 O98 2.333372 1_555
Nb6 O25 1.929675 1_555
Nb6 O29 1.975921 1_555
Nb6 O27 2.007504 1_555
Nb6 O101 2.024529 1_555
Nb6 O97 2.053759 1_555
Nb6 O99 2.098323 1_555
Nb7 O30 1.912231 1_555
Nb7 O34 1.956755 1_555
Nb7 O102 1.984944 1_555
Nb7 O32 2.006003 1_555
Nb7 O104 2.040646 1_555
Nb7 O106 2.282474 1_555
Nb8 O31 1.888893 1_555
Nb8 O103 1.968720 1_555
Nb8 O35 1.983337 1_555
Nb8 O105 2.012825 1_555
Nb8 O33 2.040726 1_555
Nb8 O107 2.301723 1_555
Nb9 O36 1.919621 1_556
Nb9 O108 1.957382 1_555
Nb9 O38 1.975622 1_556
Nb9 O112 1.991870 1_555
Nb9 O40 1.999095 1_556
Nb9 O110 2.096879 1_555
Nb10 O41 1.928935 1_556
Nb10 O37 1.959801 1_556
Nb10 O111 1.992796 1_555
Nb10 O113 2.002955 1_555
Nb10 O39 2.016964 1_556
Nb10 O109 2.085706 1_555
Nb11 O42 1.897626 1_555
Nb11 O44 1.977308 1_555
Nb11 O116 1.984976 1_555
Nb11 O46 1.998886 1_555
Nb11 O114 2.043884 1_555
Nb11 O118 2.065994 1_555
Nb12 O43 1.927409 1_555
Nb12 O45 1.958131 1_555
Nb12 O47 1.980786 1_555
Nb12 O117 1.983395 1_555
Nb12 O115 2.024837 1_555
Nb12 O119 2.063276 1_555
Nb13 O52 1.962784 1_554
Nb13 O48 1.968189 1_554
Nb13 O50 1.980476 1_554
Nb13 O124 2.022985 1_555
Nb13 O122 2.062233 1_555
Nb13 O120 2.091385 1_555
Nb14 O51 1.951023 1_554
Nb14 O53 1.954902 1_554
Nb14 O49 1.965190 1_554
Nb14 O125 2.053030 1_555
Nb14 O123 2.061970 1_555
Nb14 O121 2.068625 1_555
Nb15 O54 1.981353 1_555
Nb15 O56 1.994927 1_555
Nb15 O128 2.000864 1_555
Nb15 O58 2.015658 1_555
Nb15 O126 2.022573 1_555
Nb15 O130 2.073401 1_555
Nb16 O59 1.934844 1_555
Nb16 O57 1.975059 1_555
Nb16 O131 2.003091 1_555
Nb16 O55 2.040200 1_555
Nb16 O129 2.062211 1_555
Nb16 O127 2.066217 1_555
Nb17 O67 1.921410 1_555
Nb17 O69 1.977851 1_555
Nb17 O71 2.009429 1_555
Nb17 O141 2.028506 1_555
Nb17 O139 2.041513 1_555
Nb17 O143 2.052238 1_555
In0 O16 2.079015 1_545
In0 O85 2.131513 1_455
In0 O13 2.137242 1_445
In0 O86 2.173733 1_555
In0 O14 2.187405 1_555
In0 O89 2.193919 1_445
In1 O20 2.083409 1_555
In1 O19 2.086357 1_445
In1 O94 2.150233 1_555
In1 O91 2.158452 1_445
In1 O22 2.179944 1_545
In1 O93 2.224852 1_455
In2 O18 2.059998 1_545
In2 O21 2.062091 1_555
In2 O92 2.183940 1_555
In2 O90 2.186934 1_545
In2 O95 2.193787 1_555
In2 O23 2.234422 1_545
In3 O64 2.088899 1_555
In3 O60 2.093475 1_555
In3 O136 2.111607 1_555
In3 O62 2.146009 1_555
In3 O134 2.159940 1_555
In3 O132 2.353708 1_555
In4 O65 2.080004 1_555
In4 O61 2.089867 1_555
In4 O137 2.103880 1_555
In4 O63 2.130796 1_555
In4 O135 2.164301 1_555
In4 O133 2.379766 1_555
In5 O70 2.055220 1_555
In5 O66 2.104426 1_555
In5 O140 2.135241 1_555
In5 O68 2.136256 1_555
In5 O142 2.204903 1_555
In5 O138 2.276547 1_555
O0 S0 1.492884 1_555
O1 S1 1.487762 1_555
O2 Si0 1.701373 1_555
O3 Si1 1.695126 1_555
O4 Si3 1.705377 1_555
O5 Si2 1.704604 1_655
O6 S2 1.504249 1_555
O7 Si4 1.646676 1_555
O8 Si6 1.649178 1_555
O9 Si5 1.692300 1_655
O10 Si7 1.664130 1_545
O11 Si8 1.665911 1_555
O12 Si7 1.651699 1_555
O13 Si8 1.608179 1_565
O14 S2 1.466693 1_555
O15 Si4 1.625919 1_555
O16 Si5 1.617735 1_555
O17 Si6 1.632794 1_555
O18 Si0 1.617128 1_555
O19 Si1 1.613272 1_555
O20 Si2 1.610893 1_555
O21 Si3 1.617529 1_555
O22 S0 1.466964 1_565
O23 S1 1.478586 1_565
O24 Si9 1.663353 1_555
O25 Si10 1.680138 1_555
O26 Si11 1.660916 1_555
O27 Si12 1.661369 1_555
O28 Si13 1.651385 1_555
O29 Si14 1.661831 1_555
O30 Si15 1.671527 1_555
O31 Si16 1.693580 1_555
O32 Si17 1.658877 1_555
O33 Si18 1.656226 1_555
O34 Si19 1.665684 1_555
O35 Si20 1.654445 1_555
O36 Si19 1.637458 1_555
O37 Si20 1.641137 1_555
O38 Si15 1.621324 1_555
O39 Si16 1.645579 1_555
O40 Si17 1.639053 1_555
O41 Si18 1.642466 1_555
O42 Si11 1.646671 1_555
O43 Si12 1.641951 1_555
O44 Si13 1.643681 1_555
O45 Si14 1.639054 1_555
O46 Si9 1.626976 1_555
O47 Si10 1.647867 1_555
O48 Si21 1.679487 1_555
O49 Si22 1.651023 1_555
O50 Si23 1.661998 1_555
O51 Si24 1.661022 1_555
O52 Si25 1.674560 1_555
O53 Si26 1.663722 1_555
O54 Si27 1.656131 1_555
O55 Si28 1.654352 1_555
O56 Si29 1.664310 1_555
O57 Si30 1.667983 1_555
O58 Si31 1.653189 1_555
O59 Si32 1.662432 1_555
O60 Si31 1.598350 1_555
O61 Si32 1.594753 1_555
O62 Si27 1.593978 1_555
O63 Si28 1.595512 1_555
O64 Si29 1.602660 1_555
O65 Si30 1.600392 1_555
O66 Si23 1.595862 1_555
O67 Si24 1.648170 1_555
O68 Si25 1.606753 1_555
O69 Si26 1.641814 1_555
O70 Si21 1.583946 1_555
O71 Si22 1.628960 1_555
O72 Si31 1.663464 1_555
O73 Si32 1.656555 1_555
O74 Si27 1.705279 1_555
O75 Si28 1.703035 1_555
O76 Si29 1.654528 1_555
O77 Si30 1.649818 1_555
O78 Si23 1.652142 1_555
O79 Si24 1.631035 1_555
O80 Si25 1.651473 1_555
O81 Si26 1.627547 1_555
O82 Si21 1.662345 1_555
O83 Si22 1.665494 1_555
O84 Si9 1.625525 1_555
O85 Si10 1.604950 1_555
O86 Si11 1.609469 1_555
O87 Si12 1.617232 1_555
O88 Si13 1.635583 1_555
O89 Si14 1.620641 1_555
O90 Si15 1.612380 1_555
O91 Si16 1.603073 1_555
O92 Si17 1.634495 1_555
O93 Si18 1.609281 1_555
O94 Si19 1.603090 1_555
O95 Si20 1.616305 1_555
O96 Si7 1.681513 1_545
O97 Si8 1.644587 1_555
O98 S2 1.512430 1_555
O99 Si4 1.656002 1_555
O100 Si6 1.635710 1_555
O101 Si5 1.678964 1_655
O102 Si0 1.665208 1_555
O103 Si1 1.674140 1_555
O104 Si3 1.688885 1_555
O105 Si2 1.705673 1_655
O106 S0 1.503468 1_555
O107 S1 1.501124 1_555
O108 Si21 1.637280 1_555
O109 Si22 1.633887 1_555
O110 Si24 1.629521 1_555
O111 Si23 1.661676 1_655
O112 Si25 1.635403 1_545
O113 Si26 1.638723 1_545
O114 Si27 1.638760 1_545
O115 Si28 1.641582 1_545
O116 Si29 1.645337 1_555
O117 Si30 1.641447 1_555
O118 Si32 1.655958 1_555
O119 Si31 1.669033 1_655
O120 Si19 1.659534 1_555
O121 Si20 1.651573 1_555
O122 Si16 1.634264 1_455
O123 Si15 1.646912 1_555
O124 Si17 1.648291 1_565
O125 Si18 1.656495 1_565
O126 Si11 1.653420 1_565
O127 Si12 1.648864 1_565
O128 Si13 1.641653 1_555
O129 Si14 1.638158 1_555
O130 Si10 1.632927 1_455
O131 Si9 1.638243 1_555
O132 S0 1.465925 1_565
O133 S1 1.467100 1_565
O134 Si0 1.611510 1_555
O135 Si1 1.614999 1_555
O136 Si2 1.596025 1_555
O137 Si3 1.596053 1_555
O138 S2 1.453993 1_555
O139 Si4 1.649407 1_555
O140 Si5 1.606451 1_555
O141 Si6 1.666903 1_555
O142 Si7 1.611471 1_555
O143 Si8 1.662772 1_565
