# generated using pymatgen
data_Li3PO4
_symmetry_space_group_name_H-M   'P 1'
_cell_length_a   4.89264480
_cell_length_b   6.07079561
_cell_length_c   10.41629663
_cell_angle_alpha   90.00000000
_cell_angle_beta   90.00000000
_cell_angle_gamma   90.00000000
_symmetry_Int_Tables_number   1
_chemical_formula_structural   Li3PO4
_chemical_formula_sum   'Li12 P4 O16'
_cell_volume   309.38741088
_cell_formula_units_Z   4
loop_
 _symmetry_equiv_pos_site_id
 _symmetry_equiv_pos_as_xyz
  1  'x, y, z'
loop_
 _atom_site_type_symbol
 _atom_site_label
 _atom_site_symmetry_multiplicity
 _atom_site_fract_x
 _atom_site_fract_y
 _atom_site_fract_z
 _atom_site_occupancy
  Li  Li0  1  0.69534509  0.49846062  0.16431139  1
  Li  Li1  1  0.19534509  0.50153938  0.33568861  1
  Li  Li2  1  0.30465491  0.99846062  0.83568861  1
  Li  Li3  1  0.80465491  0.00153938  0.66431139  1
  Li  Li4  1  0.30465491  0.50153938  0.83568861  1
  Li  Li5  1  0.80465491  0.49846062  0.66431139  1
  Li  Li6  1  0.69534509  0.00153938  0.16431139  1
  Li  Li7  1  0.19534509  0.99846062  0.33568861  1
  Li  Li8  1  0.79721728  0.25000000  0.42375313  1
  Li  Li9  1  0.29721728  0.75000000  0.07624687  1
  Li  Li10  1  0.20278272  0.75000000  0.57624687  1
  Li  Li11  1  0.70278272  0.25000000  0.92375313  1
  P  P0  1  0.69067243  0.75000000  0.41185445  1
  P  P1  1  0.80932757  0.75000000  0.91185445  1
  P  P2  1  0.30932757  0.25000000  0.58814555  1
  P  P3  1  0.19067243  0.25000000  0.08814555  1
  O  O0  1  0.62473411  0.25000000  0.58918165  1
  O  O1  1  0.79434655  0.95731182  0.34141954  1
  O  O2  1  0.12473411  0.75000000  0.91081835  1
  O  O3  1  0.37526589  0.75000000  0.41081835  1
  O  O4  1  0.79434655  0.54268818  0.34141954  1
  O  O5  1  0.29434655  0.04268818  0.15858046  1
  O  O6  1  0.20565345  0.45731182  0.65858046  1
  O  O7  1  0.70565345  0.54268818  0.84141954  1
  O  O8  1  0.20565345  0.04268818  0.65858046  1
  O  O9  1  0.70565345  0.95731182  0.84141954  1
  O  O10  1  0.79484118  0.75000000  0.55116622  1
  O  O11  1  0.29434655  0.45731182  0.15858046  1
  O  O12  1  0.70515882  0.75000000  0.05116622  1
  O  O13  1  0.20515882  0.25000000  0.44883378  1
  O  O14  1  0.29484118  0.25000000  0.94883378  1
  O  O15  1  0.87526589  0.25000000  0.08918165  1
loop_
_geom_bond_atom_site_label_1
_geom_bond_atom_site_label_2
_geom_bond_distance
_geom_bond_site_symmetry_2
Li0 O15 1.913756 1_555
Li0 O4 1.926147 1_555
Li0 O12 1.929549 1_555
Li0 O11 1.978684 1_555
Li1 O3 1.913756 1_555
Li1 O11 1.926147 1_555
Li1 O13 1.929549 1_555
Li1 O4 1.978684 1_455
Li2 O2 1.913756 1_555
Li2 O8 1.926147 1_565
Li2 O14 1.929549 1_565
Li2 O9 1.978684 1_555
Li3 O0 1.913756 1_555
Li3 O9 1.926147 1_545
Li3 O10 1.929549 1_545
Li3 O8 1.978684 1_655
Li4 O2 1.913756 1_555
Li4 O6 1.926147 1_555
Li4 O14 1.929549 1_555
Li4 O7 1.978684 1_555
Li5 O0 1.913756 1_555
Li5 O7 1.926147 1_555
Li5 O10 1.929549 1_555
Li5 O6 1.978684 1_655
Li6 O15 1.913756 1_555
Li6 O1 1.926147 1_545
Li6 O12 1.929549 1_545
Li6 O5 1.978684 1_555
Li7 O3 1.913756 1_555
Li7 O5 1.926147 1_565
Li7 O13 1.929549 1_565
Li7 O1 1.978684 1_455
Li8 O0 1.918703 1_555
Li8 O4 1.973041 1_555
Li8 O1 1.973041 1_545
Li8 O13 2.012938 1_655
Li9 O2 1.918703 1_554
Li9 O11 1.973041 1_555
Li9 O5 1.973041 1_565
Li9 O12 2.012938 1_555
Li10 O3 1.918703 1_555
Li10 O6 1.973041 1_555
Li10 O8 1.973041 1_565
Li10 O10 2.012938 1_455
Li11 O15 1.918703 1_556
Li11 O9 1.973041 1_545
Li11 O7 1.973041 1_555
Li11 O14 2.012938 1_555
O0 P2 1.543210 1_555
O1 P0 1.542566 1_555
O2 P1 1.543210 1_455
O3 P0 1.543210 1_555
O4 P0 1.542566 1_555
O5 P3 1.542566 1_555
O6 P2 1.542566 1_555
O7 P1 1.542566 1_555
O8 P2 1.542566 1_555
O9 P1 1.542566 1_555
O10 P0 1.538012 1_555
O11 P3 1.542566 1_555
O12 P1 1.538012 1_554
O13 P2 1.538012 1_555
O14 P3 1.538012 1_556
O15 P3 1.543210 1_655
