# generated using pymatgen
data_Na7Mg3NbSi3(SO8)3
_symmetry_space_group_name_H-M   'P 1'
_cell_length_a   9.09271206
_cell_length_b   9.10737573
_cell_length_c   22.35254367
_cell_angle_alpha   89.56606036
_cell_angle_beta   90.50122009
_cell_angle_gamma   120.15563167
_symmetry_Int_Tables_number   1
_chemical_formula_structural   Na7Mg3NbSi3(SO8)3
_chemical_formula_sum   'Na21 Mg9 Nb3 Si9 S9 O72'
_cell_volume   1600.44776057
_cell_formula_units_Z   3
loop_
 _symmetry_equiv_pos_site_id
 _symmetry_equiv_pos_as_xyz
  1  'x, y, z'
loop_
 _atom_site_type_symbol
 _atom_site_label
 _atom_site_symmetry_multiplicity
 _atom_site_fract_x
 _atom_site_fract_y
 _atom_site_fract_z
 _atom_site_occupancy
  Na  Na0  1  0.63344149  0.00136219  0.23970147  1
  Na  Na1  1  0.37934920  0.35422988  0.25401005  1
  Na  Na2  1  0.99037104  0.65416637  0.25041381  1
  Na  Na3  1  0.66085038  0.63894724  0.75178335  1
  Na  Na4  1  0.98358909  0.34840311  0.75110409  1
  Na  Na5  1  0.36086235  0.01241234  0.75057082  1
  Na  Na6  1  0.29380011  0.32947030  0.58714352  1
  Na  Na7  1  0.03709267  0.70745879  0.58704325  1
  Na  Na8  1  0.67272708  0.96828316  0.59329797  1
  Na  Na9  1  0.30854109  0.96900745  0.09163068  1
  Na  Na10  1  0.66746667  0.71905752  0.08138089  1
  Na  Na11  1  0.02515395  0.32110890  0.08120786  1
  Na  Na12  1  0.97963888  0.31020394  0.41990854  1
  Na  Na13  1  0.31716670  0.03574202  0.41271296  1
  Na  Na14  1  0.70912734  0.65951737  0.40904171  1
  Na  Na15  1  0.01280213  0.00066913  0.49443111  1
  Na  Na16  1  0.97627261  0.98998422  0.99118266  1
  Na  Na17  1  0.66717688  0.33797983  0.82163263  1
  Na  Na18  1  0.65587710  0.34201391  0.33288524  1
  Na  Na19  1  0.35410472  0.68925593  0.16468327  1
  Na  Na20  1  0.32936588  0.66701848  0.66792990  1
  Mg  Mg0  1  0.00933275  0.98898919  0.35034706  1
  Mg  Mg1  1  0.98757680  0.98635713  0.84550691  1
  Mg  Mg2  1  0.99896516  0.99633925  0.66592887  1
  Mg  Mg3  1  0.98590948  0.98608301  0.15297332  1
  Mg  Mg4  1  0.66471087  0.33415273  0.68970471  1
  Mg  Mg5  1  0.65574571  0.32524665  0.18669090  1
  Mg  Mg6  1  0.66702677  0.34316994  0.47841521  1
  Mg  Mg7  1  0.35288843  0.68164760  0.01457489  1
  Mg  Mg8  1  0.32498636  0.65775856  0.51309415  1
  Nb  Nb0  1  0.66917307  0.32685311  0.97400910  1
  Nb  Nb1  1  0.33007052  0.66259538  0.31574389  1
  Nb  Nb2  1  0.34662074  0.66231147  0.80984646  1
  Si  Si0  1  0.29478959  0.00293626  0.24911600  1
  Si  Si1  1  0.70550891  0.70470956  0.24988547  1
  Si  Si2  1  0.28905559  0.28261307  0.74924123  1
  Si  Si3  1  -0.00009916  0.70543662  0.74861864  1
  Si  Si4  1  0.71336512  0.00724703  0.74818332  1
  Si  Si5  1  0.66759349  0.03751080  0.08666374  1
  Si  Si6  1  0.63874713  0.67904206  0.92169941  1
  Si  Si7  1  0.32759989  0.36339139  0.42126100  1
  Si  Si8  1  0.03506182  0.66678227  0.42163966  1
  S  S0  1  0.00125862  0.29264234  0.24990325  1
  S  S1  1  0.95769760  0.33206788  0.58196776  1
  S  S2  1  0.37728763  0.04087172  0.58117617  1
  S  S3  1  0.66708781  0.62959312  0.58152652  1
  S  S4  1  0.95703766  0.62034567  0.08276539  1
  S  S5  1  0.37465744  0.33350407  0.08288657  1
  S  S6  1  0.04598647  0.37551457  0.92001704  1
  S  S7  1  0.32826738  0.95700552  0.91881498  1
  S  S8  1  0.62467357  0.95827578  0.41880572  1
  O  O0  1  0.21405230  0.03567981  0.30786710  1
  O  O1  1  0.81442405  0.79230431  0.30976557  1
  O  O2  1  0.97607955  0.19135783  0.30409036  1
  O  O3  1  0.20328995  0.16543444  0.80626800  1
  O  O4  1  0.95862859  0.78887435  0.80335452  1
  O  O5  1  0.83408331  0.04637415  0.80470359  1
  O  O6  1  0.76720281  0.94707814  0.68743135  1
  O  O7  1  0.17905043  0.22838050  0.68691889  1
  O  O8  1  0.05584428  0.81852794  0.68670255  1
  O  O9  1  0.77042691  0.82094227  0.18958450  1
  O  O10  1  0.03233576  0.21944276  0.19576245  1
  O  O11  1  0.17670557  0.95866994  0.18866369  1
  O  O12  1  0.87371069  0.35055435  0.63532517  1
  O  O13  1  0.47850276  0.12520755  0.63532217  1
  O  O14  1  0.64375201  0.52481720  0.63534096  1
  O  O15  1  0.88021593  0.52080628  0.13756089  1
  O  O16  1  0.64387028  0.13168711  0.14328769  1
  O  O17  1  0.47979690  0.36536996  0.13733307  1
  O  O18  1  0.46509565  0.31318581  0.03022265  1
  O  O19  1  0.84365311  0.53172349  0.02949485  1
  O  O20  1  0.68581247  0.17063761  0.02813063  1
  O  O21  1  0.46300178  0.14249650  0.52677639  1
  O  O22  1  0.68489064  0.54526895  0.52751007  1
  O  O23  1  0.85521349  0.31416048  0.52713500  1
  O  O24  1  0.54410453  0.68175858  0.98123399  1
  O  O25  1  0.13927725  0.46377378  0.97489719  1
  O  O26  1  0.31410179  0.86018766  0.97377036  1
  O  O27  1  0.54646758  0.85125457  0.47196538  1
  O  O28  1  0.30561995  0.45529753  0.47884638  1
  O  O29  1  0.15933327  0.70427586  0.47814774  1
  O  O30  1  0.14417890  0.64672840  0.36158451  1
  O  O31  1  0.51463633  0.87442451  0.36354074  1
  O  O32  1  0.35601053  0.49709897  0.36148922  1
  O  O33  1  0.12051248  0.48207819  0.86578850  1
  O  O34  1  0.36031114  0.88208596  0.86539540  1
  O  O35  1  0.50626110  0.64242216  0.86269429  1
  O  O36  1  0.00954616  0.82972262  0.41405611  1
  O  O37  1  0.79528273  0.98059320  0.41070912  1
  O  O38  1  0.15180088  0.18456824  0.41115410  1
  O  O39  1  0.02188530  0.20702044  0.91580127  1
  O  O40  1  0.18784362  0.98762574  0.91367241  1
  O  O41  1  0.82560520  0.83529609  0.91320114  1
  O  O42  1  0.97594489  0.17773744  0.58427462  1
  O  O43  1  0.20376595  0.02133753  0.58257535  1
  O  O44  1  0.82354223  0.80155818  0.58435546  1
  O  O45  1  0.97561348  0.79190931  0.08399093  1
  O  O46  1  0.84431661  0.02975261  0.08432367  1
  O  O47  1  0.20607171  0.17496459  0.08651246  1
  O  O48  1  0.66818848  0.15689052  0.74033611  1
  O  O49  1  0.48541274  0.32904365  0.74229427  1
  O  O50  1  0.84395322  0.51160249  0.74062799  1
  O  O51  1  0.68388054  0.51541754  0.24319652  1
  O  O52  1  0.85659515  0.32314439  0.24320452  1
  O  O53  1  0.48989895  0.16171091  0.24603269  1
  O  O54  1  0.64546078  0.49115893  0.92745287  1
  O  O55  1  0.86668006  0.36128865  0.92366274  1
  O  O56  1  0.49425799  0.13526878  0.92426750  1
  O  O57  1  0.63509771  0.12552410  0.42232934  1
  O  O58  1  0.49891889  0.34819198  0.41945721  1
  O  O59  1  0.85532939  0.48640458  0.41940622  1
  O  O60  1  0.34539223  0.48019370  0.07642631  1
  O  O61  1  0.12713169  0.63501462  0.07538334  1
  O  O62  1  0.49264484  0.85159725  0.08006278  1
  O  O63  1  0.36262066  0.86794650  0.57913722  1
  O  O64  1  0.51329921  0.65168777  0.57748106  1
  O  O65  1  0.13241437  0.48900092  0.57984520  1
  O  O66  1  0.31267191  0.82470565  0.25843044  1
  O  O67  1  0.50671418  0.67895574  0.25878265  1
  O  O68  1  0.16174063  0.46844108  0.25477983  1
  O  O69  1  0.30726090  0.48038915  0.75976351  1
  O  O70  1  0.17417824  0.68680667  0.76446300  1
  O  O71  1  0.51522481  0.82987369  0.75994013  1
loop_
_geom_bond_atom_site_label_1
_geom_bond_atom_site_label_2
_geom_bond_distance
_geom_bond_site_symmetry_2
Na0 O53 2.403655 1_555
Na0 O16 2.431860 1_555
Na0 O66 2.562660 1_545
Na0 O67 2.592621 1_545
Na0 O52 2.595764 1_555
Na0 O9 2.759512 1_545
Na1 O51 2.408984 1_555
Na1 O53 2.427970 1_555
Na1 O67 2.580765 1_555
Na1 O68 2.658189 1_555
Na1 O17 2.755152 1_555
Na1 O0 2.778986 1_555
Na1 O32 2.800613 1_555
Na2 O51 2.417923 1_555
Na2 O66 2.540615 1_655
Na2 O52 2.629416 1_555
Na2 O15 2.760725 1_555
Na2 O11 2.780064 1_655
Na2 O68 2.818072 1_655
Na2 O1 2.826101 1_555
Na2 O30 2.857844 1_655
Na3 O49 2.456689 1_555
Na3 O50 2.476043 1_555
Na3 O4 2.603687 1_555
Na3 O71 2.670661 1_555
Na3 O14 2.783990 1_555
Na3 O69 2.792032 1_555
Na3 O6 2.848866 1_555
Na3 O35 2.868764 1_555
Na4 O50 2.400326 1_555
Na4 O48 2.508658 1_555
Na4 O69 2.565773 1_655
Na4 O5 2.659208 1_555
Na4 O70 2.688810 1_655
Na4 O12 2.769428 1_555
Na4 O33 2.841170 1_655
Na4 O7 2.903815 1_655
Na5 O48 2.430005 1_555
Na5 O49 2.519297 1_555
Na5 O70 2.590254 1_545
Na5 O71 2.666746 1_545
Na5 O3 2.758365 1_555
Na5 O13 2.782066 1_555
Na5 O8 2.810098 1_545
Na5 O34 2.818595 1_545
Na6 O7 2.440226 1_555
Na6 O43 2.500107 1_555
Na6 O42 2.500445 1_455
Na6 O65 2.534797 1_555
Na6 O64 2.599067 1_555
Na6 O28 2.650175 1_555
Na7 O8 2.422577 1_555
Na7 O43 2.474694 1_565
Na7 O44 2.485466 1_455
Na7 O65 2.544673 1_555
Na7 O63 2.566587 1_555
Na7 O29 2.691068 1_555
Na8 O6 2.308998 1_555
Na8 O42 2.449659 1_565
Na8 O63 2.507185 1_555
Na8 O44 2.515456 1_555
Na8 O64 2.519361 1_555
Na9 O62 2.413033 1_555
Na9 O11 2.465589 1_555
Na9 O47 2.479984 1_565
Na9 O45 2.623779 1_455
Na9 O61 2.659041 1_555
Na9 O26 2.831512 1_554
Na9 O16 2.872406 1_565
Na10 O62 2.431302 1_555
Na10 O24 2.443237 1_554
Na10 O46 2.454851 1_565
Na10 O45 2.534596 1_555
Na10 O9 2.590136 1_555
Na10 O60 2.630257 1_555
Na11 O46 2.316279 1_455
Na11 O60 2.520679 1_555
Na11 O61 2.526448 1_555
Na11 O47 2.585681 1_555
Na11 O25 2.655865 1_554
Na11 O10 2.727653 1_555
Na12 O38 2.367782 1_655
Na12 O59 2.382172 1_555
Na12 O37 2.609827 1_545
Na12 O23 2.667502 1_555
Na12 O57 2.711823 1_555
Na12 O2 2.807208 1_555
Na12 O28 2.879272 1_655
Na12 O30 2.949233 1_655
Na13 O36 2.464332 1_545
Na13 O58 2.475611 1_555
Na13 O38 2.478959 1_555
Na13 O0 2.516435 1_555
Na13 O57 2.586258 1_555
Na13 O21 2.808423 1_555
Na14 O36 2.370701 1_655
Na14 O1 2.477234 1_555
Na14 O58 2.509916 1_555
Na14 O59 2.530101 1_555
Na14 O37 2.620193 1_555
Na14 O22 2.807415 1_555
Na14 O32 2.969744 1_555
Na15 O36 2.376464 1_545
Na15 O38 2.394717 1_555
Na15 O43 2.559238 1_555
Na15 O37 2.650381 1_445
Na15 O44 2.675829 1_445
Na15 O42 2.711031 1_455
Na16 O41 2.226258 1_555
Na16 O39 2.460959 1_665
Na16 O46 2.529227 1_566
Na16 O40 2.608336 1_655
Na16 O45 2.736872 1_556
Na16 O47 2.860861 1_666
Na17 O49 2.387237 1_555
Na17 O50 2.411728 1_555
Na17 O48 2.466413 1_555
Na17 O54 2.813358 1_555
Na17 O55 2.843429 1_555
Na17 O56 2.868129 1_555
Na18 O58 2.432133 1_555
Na18 O51 2.476882 1_555
Na18 O53 2.500040 1_555
Na18 O59 2.517852 1_555
Na18 O57 2.737326 1_555
Na18 O52 2.786243 1_555
Na19 O62 2.340648 1_555
Na19 O67 2.536766 1_555
Na19 O66 2.564106 1_555
Na19 O61 2.721434 1_555
Na19 O60 2.725060 1_555
Na19 O68 2.761455 1_555
Na20 O71 2.598606 1_555
Na20 O69 2.598877 1_555
Na20 O63 2.603618 1_555
Na20 O65 2.604191 1_555
Na20 O70 2.644656 1_555
Na20 O64 2.683683 1_555
Mg0 O0 1.943450 1_565
Mg0 O1 1.994832 1_455
Mg0 O36 2.025683 1_555
Mg0 O38 2.094238 1_565
Mg0 O2 2.254520 1_465
Mg0 O37 2.347176 1_455
Mg1 O4 1.933268 1_555
Mg1 O5 1.953242 1_565
Mg1 O3 2.017629 1_665
Mg1 O41 2.079208 1_555
Mg1 O40 2.359708 1_655
Mg1 O39 2.452406 1_665
Mg2 O7 1.972886 1_665
Mg2 O8 1.982778 1_655
Mg2 O6 1.984383 1_555
Mg2 O44 2.484162 1_555
Mg2 O42 2.529718 1_565
Mg2 O43 2.572800 1_665
Mg3 O9 1.954327 1_555
Mg3 O11 2.028896 1_655
Mg3 O46 2.154311 1_565
Mg3 O10 2.175363 1_665
Mg3 O45 2.320785 1_555
Mg3 O47 2.393121 1_665
Mg4 O48 1.977648 1_555
Mg4 O50 1.978075 1_555
Mg4 O49 1.999593 1_555
Mg4 O13 2.174281 1_555
Mg4 O14 2.196516 1_555
Mg4 O12 2.205377 1_555
Mg5 O16 1.973133 1_555
Mg5 O53 2.000071 1_555
Mg5 O51 2.059789 1_555
Mg5 O17 2.112023 1_555
Mg5 O15 2.213882 1_555
Mg5 O52 2.219403 1_555
Mg6 O58 2.027170 1_555
Mg6 O59 2.035301 1_555
Mg6 O22 2.084596 1_555
Mg6 O21 2.132839 1_555
Mg6 O23 2.144983 1_555
Mg6 O57 2.244571 1_555
Mg7 O24 1.897177 1_554
Mg7 O26 2.036743 1_554
Mg7 O62 2.044243 1_555
Mg7 O25 2.149601 1_554
Mg7 O60 2.262702 1_555
Mg7 O61 2.325032 1_555
Mg8 O29 1.916749 1_555
Mg8 O28 1.926074 1_555
Mg8 O27 2.109163 1_555
Mg8 O65 2.227456 1_555
Mg8 O64 2.248792 1_555
Mg8 O63 2.310104 1_555
Nb0 O54 1.914491 1_555
Nb0 O20 1.922889 1_556
Nb0 O56 2.005123 1_555
Nb0 O55 2.013485 1_555
Nb0 O19 2.136139 1_556
Nb0 O18 2.200910 1_556
Nb1 O32 1.924205 1_555
Nb1 O30 1.926248 1_555
Nb1 O67 2.003885 1_555
Nb1 O66 2.012082 1_555
Nb1 O31 2.103967 1_555
Nb1 O68 2.146425 1_555
Nb2 O69 1.884612 1_555
Nb2 O71 1.891334 1_555
Nb2 O35 1.940673 1_555
Nb2 O70 1.964067 1_555
Nb2 O33 2.260124 1_555
Nb2 O34 2.312596 1_555
O0 Si0 1.610963 1_555
O1 Si1 1.614902 1_555
O2 S0 1.464959 1_655
O3 Si2 1.591391 1_555
O4 Si3 1.588655 1_655
O5 Si4 1.586667 1_555
O6 Si4 1.635970 1_565
O7 Si2 1.635467 1_555
O8 Si3 1.642964 1_555
O9 Si1 1.627976 1_555
O10 S0 1.481990 1_555
O11 Si0 1.639894 1_565
O12 S1 1.477214 1_555
O13 S2 1.478565 1_555
O14 S3 1.478574 1_555
O15 S4 1.473725 1_555
O16 Si5 1.609736 1_555
O17 S5 1.478358 1_555
O18 S5 1.506427 1_555
O19 S4 1.513022 1_555
O20 Si5 1.728360 1_555
O21 S2 1.489105 1_555
O22 S3 1.488683 1_555
O23 S1 1.492493 1_555
O24 Si6 1.598121 1_555
O25 S6 1.477215 1_555
O26 S7 1.474886 1_555
O27 S8 1.472584 1_555
O28 Si7 1.608190 1_555
O29 Si8 1.607091 1_555
O30 Si8 1.740354 1_555
O31 S8 1.528154 1_555
O32 Si7 1.732040 1_555
O33 S6 1.485326 1_555
O34 S7 1.481354 1_555
O35 Si6 1.696223 1_555
O36 Si8 1.620526 1_555
O37 S8 1.472468 1_555
O38 Si7 1.625508 1_555
O39 S6 1.440721 1_555
O40 S7 1.440824 1_555
O41 Si6 1.587542 1_555
O42 S1 1.496261 1_555
O43 S2 1.496927 1_555
O44 S3 1.497350 1_555
O45 S4 1.485289 1_555
O46 Si5 1.644819 1_555
O47 S5 1.489233 1_555
O48 Si4 1.616934 1_555
O49 Si2 1.623566 1_555
O50 Si3 1.626137 1_655
O51 Si1 1.641892 1_555
O52 S0 1.480834 1_655
O53 Si0 1.632876 1_555
O54 Si6 1.746334 1_555
O55 S6 1.572103 1_655
O56 S7 1.570519 1_545
O57 S8 1.480520 1_545
O58 Si7 1.632550 1_555
O59 Si8 1.635378 1_655
O60 S5 1.493325 1_555
O61 S4 1.494535 1_455
O62 Si5 1.647035 1_565
O63 S2 1.513314 1_565
O64 S3 1.511385 1_555
O65 S1 1.512564 1_455
O66 Si0 1.721647 1_565
O67 Si1 1.715093 1_555
O68 S0 1.535312 1_555
O69 Si2 1.741633 1_555
O70 Si3 1.710190 1_555
O71 Si4 1.732709 1_565
