# generated using pymatgen
data_Rb2Ge2O5
_symmetry_space_group_name_H-M   'P 1'
_cell_length_a   6.87500784
_cell_length_b   6.87500784
_cell_length_c   14.85733620
_cell_angle_alpha   88.59349962
_cell_angle_beta   88.59349962
_cell_angle_gamma   79.06097387
_symmetry_Int_Tables_number   1
_chemical_formula_structural   Rb2Ge2O5
_chemical_formula_sum   'Rb8 Ge8 O20'
_cell_volume   689.13367267
_cell_formula_units_Z   4
loop_
 _symmetry_equiv_pos_site_id
 _symmetry_equiv_pos_as_xyz
  1  'x, y, z'
loop_
 _atom_site_type_symbol
 _atom_site_label
 _atom_site_symmetry_multiplicity
 _atom_site_fract_x
 _atom_site_fract_y
 _atom_site_fract_z
 _atom_site_occupancy
  Rb  Rb0  1  0.94953077  0.74284940  0.06297030  1
  Rb  Rb1  1  0.74284940  0.94953077  0.56297030  1
  Rb  Rb2  1  0.68997163  0.48335277  0.39454719  1
  Rb  Rb3  1  0.48335277  0.68997163  0.89454719  1
  Rb  Rb4  1  0.51664723  0.31002837  0.10545281  1
  Rb  Rb5  1  0.31002837  0.51664723  0.60545281  1
  Rb  Rb6  1  0.25715060  0.05046923  0.43702970  1
  Rb  Rb7  1  0.05046923  0.25715060  0.93702970  1
  Ge  Ge0  1  0.76529686  0.93794921  0.28152751  1
  Ge  Ge1  1  0.93794921  0.76529686  0.78152751  1
  Ge  Ge2  1  0.39414244  0.82475933  0.17777829  1
  Ge  Ge3  1  0.82475933  0.39414244  0.67777829  1
  Ge  Ge4  1  0.17524067  0.60585756  0.32222171  1
  Ge  Ge5  1  0.60585756  0.17524067  0.82222171  1
  Ge  Ge6  1  0.06205079  0.23470314  0.21847249  1
  Ge  Ge7  1  0.23470314  0.06205079  0.71847249  1
  O  O0  1  0.97794721  0.75195161  0.26220782  1
  O  O1  1  0.75195161  0.97794721  0.76220782  1
  O  O2  1  0.63220778  0.88997643  0.18509014  1
  O  O3  1  0.88997643  0.63220778  0.68509014  1
  O  O4  1  0.06705009  0.34396960  0.11549072  1
  O  O5  1  0.34396960  0.06705009  0.61549072  1
  O  O6  1  0.35045035  0.77875938  0.06925582  1
  O  O7  1  0.77875938  0.35045035  0.56925582  1
  O  O8  1  0.38841665  0.61158335  0.25000000  1
  O  O9  1  0.82784812  0.17215188  0.25000000  1
  O  O10  1  0.17215188  0.82784812  0.75000000  1
  O  O11  1  0.61158335  0.38841665  0.75000000  1
  O  O12  1  0.22124062  0.64954965  0.43074418  1
  O  O13  1  0.64954965  0.22124062  0.93074418  1
  O  O14  1  0.65603040  0.93294991  0.38450928  1
  O  O15  1  0.93294991  0.65603040  0.88450928  1
  O  O16  1  0.11002357  0.36779222  0.31490986  1
  O  O17  1  0.36779222  0.11002357  0.81490986  1
  O  O18  1  0.24804839  0.02205279  0.23779218  1
  O  O19  1  0.02205279  0.24804839  0.73779218  1
loop_
_geom_bond_atom_site_label_1
_geom_bond_atom_site_label_2
_geom_bond_distance
_geom_bond_site_symmetry_2
Ge0 O14 1.690353 1_555
Ge0 O0 1.772799 1_555
Ge0 O2 1.789132 1_555
Ge0 O9 1.792428 1_565
Ge1 O15 1.690353 1_555
Ge1 O1 1.772799 1_555
Ge1 O3 1.789132 1_555
Ge1 O10 1.792428 1_655
Ge2 O6 1.695522 1_555
Ge2 O18 1.772571 1_565
Ge2 O2 1.783609 1_555
Ge2 O8 1.800970 1_555
Ge3 O7 1.695522 1_555
Ge3 O19 1.772571 1_655
Ge3 O3 1.783609 1_555
Ge3 O11 1.800970 1_555
Ge4 O12 1.695522 1_555
Ge4 O0 1.772571 1_455
Ge4 O16 1.783609 1_555
Ge4 O8 1.800970 1_555
Ge5 O13 1.695522 1_555
Ge5 O1 1.772571 1_545
Ge5 O17 1.783609 1_555
Ge5 O11 1.800970 1_555
Ge6 O4 1.690353 1_555
Ge6 O18 1.772799 1_555
Ge6 O16 1.789132 1_555
Ge6 O9 1.792428 1_455
Ge7 O5 1.690353 1_555
Ge7 O19 1.772799 1_555
Ge7 O17 1.789132 1_555
Ge7 O10 1.792428 1_545
O0 Rb0 2.974328 1_555
O1 Rb1 2.974328 1_555
O2 Rb0 2.851796 1_555
O2 Rb4 3.062439 1_565
O3 Rb1 2.851796 1_555
O3 Rb5 3.062439 1_655
O4 Rb7 2.741866 1_554
O4 Rb0 2.804798 1_455
O4 Rb4 3.055521 1_555
O5 Rb6 2.741866 1_555
O5 Rb1 2.804798 1_545
O5 Rb5 3.055521 1_555
O6 Rb3 2.773955 1_554
O6 Rb0 2.817629 1_455
O6 Rb4 3.244549 1_555
O7 Rb2 2.773955 1_555
O7 Rb1 2.817629 1_545
O7 Rb5 3.244549 1_555
O8 Rb4 3.019837 1_555
O8 Rb2 3.019837 1_555
O9 Rb4 3.073120 1_555
O9 Rb2 3.073120 1_555
O10 Rb5 3.073120 1_555
O10 Rb3 3.073120 1_555
O11 Rb5 3.019837 1_555
O11 Rb3 3.019837 1_555
O12 Rb5 2.773955 1_555
O12 Rb6 2.817629 1_565
O12 Rb2 3.244549 1_555
O13 Rb4 2.773955 1_556
O13 Rb7 2.817629 1_655
O13 Rb3 3.244549 1_555
O14 Rb1 2.741866 1_555
O14 Rb6 2.804798 1_565
O14 Rb2 3.055521 1_555
O15 Rb0 2.741866 1_556
O15 Rb7 2.804798 1_655
O15 Rb3 3.055521 1_555
O16 Rb6 2.851796 1_555
O16 Rb2 3.062439 1_455
O17 Rb7 2.851796 1_555
O17 Rb3 3.062439 1_545
O18 Rb6 2.974328 1_555
O19 Rb7 2.974328 1_555
