# generated using pymatgen
data_Na4Mg(NiO3)2
_symmetry_space_group_name_H-M   'P 1'
_cell_length_a   5.49159449
_cell_length_b   5.58412061
_cell_length_c   6.58253362
_cell_angle_alpha   65.72159085
_cell_angle_beta   107.46795244
_cell_angle_gamma   71.36310190
_symmetry_Int_Tables_number   1
_chemical_formula_structural   Na4Mg(NiO3)2
_chemical_formula_sum   'Na4 Mg1 Ni2 O6'
_cell_volume   151.03341577
_cell_formula_units_Z   1
loop_
 _symmetry_equiv_pos_site_id
 _symmetry_equiv_pos_as_xyz
  1  'x, y, z'
loop_
 _atom_site_type_symbol
 _atom_site_label
 _atom_site_symmetry_multiplicity
 _atom_site_fract_x
 _atom_site_fract_y
 _atom_site_fract_z
 _atom_site_occupancy
  Na  Na0  1  0.08029962  0.20100459  0.60936135  1
  Na  Na1  1  0.91970038  0.79899541  0.39063865  1
  Na  Na2  1  0.50000000  0.50000000  0.50000000  1
  Na  Na3  1  -0.00000000  0.00000000  -0.00000000  1
  Mg  Mg0  1  0.50000000  0.00000000  0.50000000  1
  Ni  Ni0  1  0.70940233  0.60456616  0.00066418  1
  Ni  Ni1  1  0.29059767  0.39543384  -0.00066418  1
  O  O0  1  0.33113029  0.70276729  0.75331384  1
  O  O1  1  0.10222106  0.48170451  0.24115325  1
  O  O2  1  0.40342927  0.97425784  0.20839922  1
  O  O3  1  0.89777894  0.51829549  0.75884675  1
  O  O4  1  0.59657073  0.02574216  0.79160078  1
  O  O5  1  0.66886971  0.29723271  0.24668616  1
loop_
_geom_bond_atom_site_label_1
_geom_bond_atom_site_label_2
_geom_bond_distance
_geom_bond_site_symmetry_2
Na0 O0 2.266056 1_545
Na0 O1 2.348946 1_555
Na0 O4 2.377869 1_555
Na0 O3 2.450081 1_455
Na0 O5 2.454354 1_455
Na1 O5 2.266056 1_565
Na1 O3 2.348946 1_555
Na1 O2 2.377869 1_555
Na1 O1 2.450081 1_655
Na1 O0 2.454354 1_655
Na2 O4 2.300032 1_555
Na2 O2 2.300032 1_555
Na2 O3 2.395138 1_555
Na2 O1 2.395138 1_555
Na2 O5 2.594656 1_555
Na2 O0 2.594656 1_555
Na3 O4 2.149544 1_454
Na3 O2 2.149544 1_545
Na3 O3 2.420753 1_454
Na3 O1 2.420753 1_545
Mg0 O4 1.910703 1_555
Mg0 O2 1.910703 1_545
Mg0 O1 2.269691 1_555
Mg0 O3 2.269691 1_545
Mg0 O0 2.455903 1_545
Mg0 O5 2.455903 1_555
Ni0 O4 1.924647 1_564
Ni0 O1 1.934171 1_655
Ni0 O0 1.942715 1_554
Ni0 O5 1.947435 1_555
Ni0 O3 2.266412 1_554
Ni1 O2 1.924647 1_545
Ni1 O3 1.934171 1_454
Ni1 O5 1.942715 1_555
Ni1 O0 1.947435 1_554
Ni1 O1 2.266412 1_555
