# generated using pymatgen
data_NaMgMn2O4
_symmetry_space_group_name_H-M   'P 1'
_cell_length_a   3.15217909
_cell_length_b   5.41785706
_cell_length_c   5.30698133
_cell_angle_alpha   107.30472515
_cell_angle_beta   92.42829121
_cell_angle_gamma   91.86769777
_symmetry_Int_Tables_number   1
_chemical_formula_structural   NaMgMn2O4
_chemical_formula_sum   'Na1 Mg1 Mn2 O4'
_cell_volume   86.35574651
_cell_formula_units_Z   1
loop_
 _symmetry_equiv_pos_site_id
 _symmetry_equiv_pos_as_xyz
  1  'x, y, z'
loop_
 _atom_site_type_symbol
 _atom_site_label
 _atom_site_symmetry_multiplicity
 _atom_site_fract_x
 _atom_site_fract_y
 _atom_site_fract_z
 _atom_site_occupancy
  Na  Na0  1  0.49996200  0.99999800  0.49999700  1
  Mg  Mg0  1  0.99997000  0.50001300  0.50002600  1
  Mn  Mn0  1  0.99996300  0.99997400  0.99997400  1
  Mn  Mn1  1  0.49997900  0.49999900  0.99992300  1
  O  O0  1  0.50057700  0.72202900  0.75869200  1
  O  O1  1  0.04404200  0.27868200  0.76897000  1
  O  O2  1  0.95606000  0.72137300  0.23110600  1
  O  O3  1  0.49944400  0.27794800  0.24132600  1
loop_
_geom_bond_atom_site_label_1
_geom_bond_atom_site_label_2
_geom_bond_distance
_geom_bond_site_symmetry_2
Na0 O3 2.319909 1_565
Na0 O0 2.320093 1_555
Na0 O1 2.327178 1_565
Na0 O2 2.327202 1_555
Na0 O2 2.365793 1_455
Na0 O1 2.366479 1_665
Mg0 O2 2.122864 1_555
Mg0 O1 2.122878 1_655
Mg0 O3 2.128788 1_555
Mg0 O0 2.128792 1_655
Mg0 O0 2.265726 1_555
Mg0 O3 2.266099 1_655
Mn0 O2 2.214567 1_556
Mn0 O1 2.214576 1_665
Mn0 O0 2.216480 1_555
Mn0 O3 2.216883 1_666
Mn0 O0 2.361445 1_655
Mn0 O3 2.361452 1_566
Mn1 O1 1.967138 1_555
Mn1 O2 1.968074 1_556
Mn1 O0 2.000545 1_555
Mn1 O3 2.001381 1_556
Mn1 O1 2.306302 1_655
Mn1 O2 2.306565 1_456
