# generated using pymatgen
data_Co3W
_symmetry_space_group_name_H-M   'P 1'
_cell_length_a   5.05516727
_cell_length_b   5.05515309
_cell_length_c   4.11713190
_cell_angle_alpha   90.00000068
_cell_angle_beta   90.00000062
_cell_angle_gamma   120.00008608
_symmetry_Int_Tables_number   1
_chemical_formula_structural   Co3W
_chemical_formula_sum   'Co6 W2'
_cell_volume   91.11604881
_cell_formula_units_Z   2
loop_
 _symmetry_equiv_pos_site_id
 _symmetry_equiv_pos_as_xyz
  1  'x, y, z'
loop_
 _atom_site_type_symbol
 _atom_site_label
 _atom_site_symmetry_multiplicity
 _atom_site_fract_x
 _atom_site_fract_y
 _atom_site_fract_z
 _atom_site_occupancy
  Co  Co0  1  0.83718288  0.67435917  0.24999995  1
  Co  Co1  1  0.16281693  0.83717917  0.75000000  1
  Co  Co2  1  0.67437695  0.83720018  0.74999993  1
  Co  Co3  1  0.32563750  0.16281843  0.25000007  1
  Co  Co4  1  0.83718288  0.16282300  0.25000000  1
  Co  Co5  1  0.16280037  0.32562305  0.75000006  1
  W  W0  1  0.33333285  0.66666564  0.25000001  1
  W  W1  1  0.66666964  0.33333138  0.74999999  1
loop_
_geom_bond_atom_site_label_1
_geom_bond_atom_site_label_2
_geom_bond_distance
_geom_bond_site_symmetry_2
Co0 Co3 2.469225 1_665
Co0 Co4 2.469259 1_565
Co0 Co1 2.503999 1_654
Co0 Co1 2.503999 1_655
Co0 Co2 2.504031 1_555
Co0 Co2 2.504031 1_554
Co0 W0 2.527792 1_655
Co0 W0 2.527825 1_555
Co0 W1 2.542968 1_554
Co0 W1 2.542968 1_555
Co0 Co4 2.585894 1_555
Co0 Co3 2.585929 1_555
Co1 Co2 2.469199 1_455
Co1 Co5 2.469200 1_565
Co1 Co3 2.504009 1_565
Co1 Co3 2.504010 1_566
Co1 W1 2.527789 1_455
Co1 W1 2.527814 1_565
Co1 W0 2.542975 1_555
Co1 W0 2.542975 1_556
Co1 Co5 2.585953 1_555
Co1 Co2 2.585968 1_555
Co2 Co5 2.469054 1_665
Co2 Co4 2.503968 1_565
Co2 Co4 2.503969 1_566
Co2 W1 2.527725 1_565
Co2 W1 2.527878 1_555
Co2 W0 2.543012 1_555
Co2 W0 2.543013 1_556
Co2 Co5 2.586100 1_555
Co3 Co4 2.469231 1_455
Co3 Co5 2.504018 1_555
Co3 Co5 2.504018 1_554
Co3 W0 2.527799 1_555
Co3 W0 2.527804 1_545
Co3 W1 2.542981 1_555
Co3 W1 2.542982 1_554
Co3 Co4 2.585936 1_555
Co4 Co5 2.503957 1_654
Co4 Co5 2.503958 1_655
Co4 W0 2.527782 1_655
Co4 W0 2.527820 1_545
Co4 W1 2.542955 1_555
Co4 W1 2.542955 1_554
Co5 W1 2.527733 1_455
Co5 W1 2.527885 1_555
Co5 W0 2.543006 1_556
Co5 W0 2.543006 1_555
