# generated using pymatgen
data_Na18Mg20Nb4Si3(S11O48)3
_symmetry_space_group_name_H-M   'P 1'
_cell_length_a   17.51458236
_cell_length_b   8.76122550
_cell_length_c   22.58591564
_cell_angle_alpha   90.00780323
_cell_angle_beta   89.95358177
_cell_angle_gamma   119.96646377
_symmetry_Int_Tables_number   1
_chemical_formula_structural   Na18Mg20Nb4Si3(S11O48)3
_chemical_formula_sum   'Na18 Mg20 Nb4 Si3 S33 O144'
_cell_volume   3002.47553855
_cell_formula_units_Z   1
loop_
 _symmetry_equiv_pos_site_id
 _symmetry_equiv_pos_as_xyz
  1  'x, y, z'
loop_
 _atom_site_type_symbol
 _atom_site_label
 _atom_site_symmetry_multiplicity
 _atom_site_fract_x
 _atom_site_fract_y
 _atom_site_fract_z
 _atom_site_occupancy
  Na  Na0  1  0.31793969  0.99841334  0.25233938  1
  Na  Na1  1  0.81822787  0.99940898  0.24884320  1
  Na  Na2  1  0.18112404  0.36565302  0.25736293  1
  Na  Na3  1  0.68319351  0.36789892  0.25401577  1
  Na  Na4  1  0.68131250  0.99904102  0.75137433  1
  Na  Na5  1  0.98355210  0.67359490  0.92206824  1
  Na  Na6  1  0.00614480  0.01530873  0.49610051  1
  Na  Na7  1  0.50499680  0.01303359  0.49660072  1
  Na  Na8  1  0.99701875  0.99834554  0.00062769  1
  Na  Na9  1  0.50846975  0.00824444  0.00009244  1
  Na  Na10  1  0.33593387  0.33772233  0.82754627  1
  Na  Na11  1  0.82833571  0.32790237  0.83470027  1
  Na  Na12  1  0.33641131  0.34594755  0.33401044  1
  Na  Na13  1  0.83687597  0.34615050  0.33263562  1
  Na  Na14  1  0.15688520  0.66299665  0.16457126  1
  Na  Na15  1  0.66549374  0.66710704  0.16208352  1
  Na  Na16  1  0.16626590  0.66357109  0.65986869  1
  Na  Na17  1  0.66521187  0.65377772  0.66566578  1
  Mg  Mg0  1  0.00256569  0.00346283  0.35434132  1
  Mg  Mg1  1  0.50286834  0.00282237  0.35466565  1
  Mg  Mg2  1  0.99849125  0.00357391  0.85138694  1
  Mg  Mg3  1  0.50451915  0.00101786  0.85058083  1
  Mg  Mg4  1  0.99908514  0.00409796  0.64628955  1
  Mg  Mg5  1  0.50058416  0.00161378  0.64656231  1
  Mg  Mg6  1  0.99737139  0.99247313  0.14717184  1
  Mg  Mg7  1  0.50387530  0.00245447  0.14818393  1
  Mg  Mg8  1  0.33471373  0.33665083  0.68342424  1
  Mg  Mg9  1  0.83523904  0.33588978  0.68335908  1
  Mg  Mg10  1  0.33672286  0.34108886  0.18399596  1
  Mg  Mg11  1  0.83565028  0.33871513  0.17954614  1
  Mg  Mg12  1  0.82673228  0.32400853  0.98515076  1
  Mg  Mg13  1  0.16217299  0.66662970  0.01989605  1
  Mg  Mg14  1  0.67183267  0.67365069  0.01789810  1
  Mg  Mg15  1  0.16499436  0.65777309  0.51697243  1
  Mg  Mg16  1  0.66454073  0.65817156  0.51748939  1
  Mg  Mg17  1  0.16432275  0.65806228  0.32115734  1
  Mg  Mg18  1  0.66526546  0.65963715  0.32090933  1
  Mg  Mg19  1  0.66789377  0.66394447  0.81639517  1
  Nb  Nb0  1  0.33337606  0.32882882  0.97950051  1
  Nb  Nb1  1  0.33009752  0.33448675  0.47866367  1
  Nb  Nb2  1  0.83044234  0.33521583  0.47838738  1
  Nb  Nb3  1  0.16745948  0.67492124  0.81242761  1
  Si  Si0  1  0.16198913  0.95717247  0.91999040  1
  Si  Si1  1  0.15818694  0.37196979  0.41520974  1
  Si  Si2  1  0.65807140  0.37321407  0.41522533  1
  S  S0  1  0.14541508  0.99695382  0.24882314  1
  S  S1  1  0.64548160  0.99590520  0.24931135  1
  S  S2  1  0.35560160  0.71046626  0.24892183  1
  S  S3  1  0.85519760  0.70874286  0.24983259  1
  S  S4  1  0.99940030  0.29254361  0.24859590  1
  S  S5  1  0.49901289  0.29220895  0.24904001  1
  S  S6  1  0.14635005  0.28820168  0.75022913  1
  S  S7  1  0.64603017  0.29435626  0.74942351  1
  S  S8  1  0.99698586  0.70740286  0.75020345  1
  S  S9  1  0.49854408  0.70589832  0.75019099  1
  S  S10  1  0.35740023  0.00532011  0.75035276  1
  S  S11  1  0.85423963  0.00007593  0.74974910  1
  S  S12  1  0.47979785  0.33414413  0.58524559  1
  S  S13  1  0.98031840  0.33504307  0.58509624  1
  S  S14  1  0.18722305  0.03892009  0.58525275  1
  S  S15  1  0.68680472  0.03787728  0.58516059  1
  S  S16  1  0.33330733  0.62735764  0.58539066  1
  S  S17  1  0.83354986  0.62738793  0.58534441  1
  S  S18  1  0.48081181  0.62754643  0.08388159  1
  S  S19  1  0.98067128  0.62730182  0.08246533  1
  S  S20  1  0.33331516  0.03750081  0.08545047  1
  S  S21  1  0.83368252  0.03936218  0.08387423  1
  S  S22  1  0.18674278  0.33522702  0.08487866  1
  S  S23  1  0.68475460  0.33363947  0.08420606  1
  S  S24  1  0.31355246  0.67290518  0.91831801  1
  S  S25  1  0.81173858  0.66433338  0.91650386  1
  S  S26  1  0.02092145  0.37259865  0.91786335  1
  S  S27  1  0.52435782  0.37555948  0.91750184  1
  S  S28  1  0.66641339  0.95938279  0.91615221  1
  S  S29  1  0.31232521  0.95499543  0.41678922  1
  S  S30  1  0.81240512  0.95505468  0.41712666  1
  S  S31  1  0.02261163  0.67043824  0.41783917  1
  S  S32  1  0.52205620  0.66952249  0.41780811  1
  O  O0  1  0.10591420  0.02773013  0.30185732  1
  O  O1  1  0.60472409  0.02625631  0.30188949  1
  O  O2  1  0.40738073  0.79020184  0.30276908  1
  O  O3  1  0.90728439  0.79005630  0.30367956  1
  O  O4  1  0.48250706  0.17956690  0.30196068  1
  O  O5  1  0.98383532  0.18100688  0.30183868  1
  O  O6  1  0.10524025  0.18564017  0.80371793  1
  O  O7  1  0.60603922  0.18220805  0.80279303  1
  O  O8  1  0.48557014  0.78782514  0.80374250  1
  O  O9  1  0.98869435  0.78584215  0.80547339  1
  O  O10  1  0.40644691  0.02205066  0.80473759  1
  O  O11  1  0.90725986  0.02568072  0.80325925  1
  O  O12  1  0.39337567  0.97111049  0.69678205  1
  O  O13  1  0.89517067  0.97428061  0.69640928  1
  O  O14  1  0.09297637  0.21677331  0.69666232  1
  O  O15  1  0.59205843  0.21030522  0.69623873  1
  O  O16  1  0.01565844  0.81821377  0.69771814  1
  O  O17  1  0.51424662  0.81900794  0.69724209  1
  O  O18  1  0.39730143  0.81975677  0.19573383  1
  O  O19  1  0.89633236  0.81818697  0.19691905  1
  O  O20  1  0.01548578  0.21102850  0.19600363  1
  O  O21  1  0.51343010  0.21027531  0.19604114  1
  O  O22  1  0.09385097  0.97487302  0.19494762  1
  O  O23  1  0.59335938  0.97141310  0.19534840  1
  O  O24  1  0.43639335  0.35479540  0.63792889  1
  O  O25  1  0.93712384  0.35643308  0.63776901  1
  O  O26  1  0.24199020  0.12429590  0.63752637  1
  O  O27  1  0.73952769  0.12104297  0.63880951  1
  O  O28  1  0.32040083  0.51626785  0.63735810  1
  O  O29  1  0.82118683  0.51642316  0.63728140  1
  O  O30  1  0.43812018  0.51712264  0.13619030  1
  O  O31  1  0.93702535  0.51883036  0.13532637  1
  O  O32  1  0.32107828  0.12353567  0.13811063  1
  O  O33  1  0.82098449  0.11750506  0.13939285  1
  O  O34  1  0.24103973  0.35929022  0.13795249  1
  O  O35  1  0.73632374  0.35752783  0.13963580  1
  O  O36  1  0.23514777  0.31287936  0.03041073  1
  O  O37  1  0.72778961  0.30895649  0.03193457  1
  O  O38  1  0.42247668  0.53359898  0.02985315  1
  O  O39  1  0.92968130  0.54709863  0.02731558  1
  O  O40  1  0.34463129  0.15635079  0.03074002  1
  O  O41  1  0.84612887  0.15060623  0.03162463  1
  O  O42  1  0.23259896  0.15382592  0.53062560  1
  O  O43  1  0.73391021  0.15558391  0.53165177  1
  O  O44  1  0.34455586  0.53489397  0.53084432  1
  O  O45  1  0.84475394  0.53461542  0.53060453  1
  O  O46  1  0.42411586  0.31139087  0.53107631  1
  O  O47  1  0.92448513  0.31184486  0.53072623  1
  O  O48  1  0.27033351  0.68938803  0.97090999  1
  O  O49  1  0.77155828  0.68841959  0.97023612  1
  O  O50  1  0.07641219  0.45463184  0.96973253  1
  O  O51  1  0.57507014  0.45676880  0.97108692  1
  O  O52  1  0.14975340  0.83177387  0.97341635  1
  O  O53  1  0.65362789  0.84758724  0.96838933  1
  O  O54  1  0.26920454  0.85276071  0.46943553  1
  O  O55  1  0.76929781  0.85294840  0.46970412  1
  O  O56  1  0.15362712  0.46637856  0.47353038  1
  O  O57  1  0.65330858  0.46676245  0.47239225  1
  O  O58  1  0.07475783  0.69747791  0.47096117  1
  O  O59  1  0.57450582  0.69773018  0.47095260  1
  O  O60  1  0.05833720  0.63583268  0.36373552  1
  O  O61  1  0.55804565  0.63507563  0.36373295  1
  O  O62  1  0.25992176  0.88968464  0.36143901  1
  O  O63  1  0.76003950  0.89038860  0.36186778  1
  O  O64  1  0.18686424  0.48027363  0.35312529  1
  O  O65  1  0.68634674  0.48000563  0.35371551  1
  O  O66  1  0.06715111  0.49348420  0.86328467  1
  O  O67  1  0.55854619  0.48062931  0.86360964  1
  O  O68  1  0.18262980  0.86302296  0.85896531  1
  O  O69  1  0.67825010  0.88097232  0.86068678  1
  O  O70  1  0.25704969  0.63681090  0.86322608  1
  O  O71  1  0.75801717  0.63663282  0.86309310  1
  O  O72  1  0.00477916  0.81597718  0.41053217  1
  O  O73  1  0.50399587  0.81501612  0.41031425  1
  O  O74  1  0.40056783  0.97649140  0.40989514  1
  O  O75  1  0.90057488  0.97649749  0.41025058  1
  O  O76  1  0.08069220  0.17052635  0.41113648  1
  O  O77  1  0.58159380  0.17282628  0.41145740  1
  O  O78  1  0.01004574  0.19878404  0.90756689  1
  O  O79  1  0.50694165  0.19344405  0.91111496  1
  O  O80  1  0.07843272  0.97816261  0.90755142  1
  O  O81  1  0.58632222  0.97920912  0.91116996  1
  O  O82  1  0.40109525  0.82578051  0.90933117  1
  O  O83  1  0.90172565  0.82335969  0.91022047  1
  O  O84  1  0.48693091  0.17257326  0.58891007  1
  O  O85  1  0.98781803  0.17421525  0.58887588  1
  O  O86  1  0.10002454  0.02705704  0.58862902  1
  O  O87  1  0.60001767  0.02725935  0.58789399  1
  O  O88  1  0.41515887  0.79994785  0.58811311  1
  O  O89  1  0.91579221  0.79978753  0.58812923  1
  O  O90  1  0.48541699  0.79991242  0.08682765  1
  O  O91  1  0.99073111  0.80597199  0.08797456  1
  O  O92  1  0.41467914  0.02816463  0.08747180  1
  O  O93  1  0.91381240  0.02107189  0.08913607  1
  O  O94  1  0.10037536  0.17391779  0.08691750  1
  O  O95  1  0.59573264  0.17274466  0.08929369  1
  O  O96  1  0.34046216  0.15331170  0.74500927  1
  O  O97  1  0.84174703  0.15794125  0.74421521  1
  O  O98  1  0.23634397  0.31560770  0.74443360  1
  O  O99  1  0.73511573  0.30787697  0.74353052  1
  O  O100  1  0.42021119  0.52740537  0.74378847  1
  O  O101  1  0.92197231  0.52754460  0.74403050  1
  O  O102  1  0.34114877  0.52717538  0.24266959  1
  O  O103  1  0.84126930  0.52627289  0.24359008  1
  O  O104  1  0.41755564  0.30735191  0.24222616  1
  O  O105  1  0.91823746  0.30790249  0.24178312  1
  O  O106  1  0.23680714  0.16028300  0.24317731  1
  O  O107  1  0.73609490  0.15890909  0.24369343  1
  O  O108  1  0.32247284  0.50788210  0.92311200  1
  O  O109  1  0.82577676  0.50839567  0.92219466  1
  O  O110  1  0.43096713  0.35842681  0.92603745  1
  O  O111  1  0.93515101  0.36835960  0.92061259  1
  O  O112  1  0.25575707  0.15481542  0.92561616  1
  O  O113  1  0.74650841  0.13758006  0.92240408  1
  O  O114  1  0.32412236  0.14070016  0.42459168  1
  O  O115  1  0.82453421  0.14113189  0.42519643  1
  O  O116  1  0.25416332  0.35260077  0.42861625  1
  O  O117  1  0.75338462  0.35234984  0.42862800  1
  O  O118  1  0.43108826  0.50116835  0.42552606  1
  O  O119  1  0.93093046  0.50102517  0.42559589  1
  O  O120  1  0.18033616  0.49428473  0.07554121  1
  O  O121  1  0.67524420  0.49241791  0.07805080  1
  O  O122  1  0.06945796  0.64223674  0.07940535  1
  O  O123  1  0.56757216  0.64360351  0.07523821  1
  O  O124  1  0.25486199  0.86465152  0.07699142  1
  O  O125  1  0.75360400  0.86197880  0.07794015  1
  O  O126  1  0.17948160  0.86533608  0.57624759  1
  O  O127  1  0.67945772  0.86498126  0.57642191  1
  O  O128  1  0.25517982  0.64717802  0.57809698  1
  O  O129  1  0.75558800  0.64693952  0.57798280  1
  O  O130  1  0.06759051  0.49532919  0.57960735  1
  O  O131  1  0.56693204  0.49419799  0.57942005  1
  O  O132  1  0.15979947  0.84306498  0.25533817  1
  O  O133  1  0.65927524  0.84164281  0.25605263  1
  O  O134  1  0.26549427  0.69426404  0.25248341  1
  O  O135  1  0.76513915  0.69356938  0.25361553  1
  O  O136  1  0.07889299  0.47163751  0.25475256  1
  O  O137  1  0.57821350  0.47047002  0.25497863  1
  O  O138  1  0.15671494  0.47342966  0.75894473  1
  O  O139  1  0.65640764  0.47173632  0.75646140  1
  O  O140  1  0.08090788  0.68539139  0.75700245  1
  O  O141  1  0.58058874  0.69198123  0.75655261  1
  O  O142  1  0.26410169  0.83397561  0.75724205  1
  O  O143  1  0.76299953  0.84296620  0.75551330  1
loop_
_geom_bond_atom_site_label_1
_geom_bond_atom_site_label_2
_geom_bond_distance
_geom_bond_site_symmetry_2
Na0 O134 2.345053 1_555
Na0 O104 2.388360 1_565
Na0 O132 2.400495 1_555
Na0 O106 2.467193 1_565
Na0 O62 2.653574 1_555
Na0 O4 2.741828 1_565
Na0 O32 2.793075 1_565
Na0 O18 2.861233 1_555
Na1 O135 2.359453 1_555
Na1 O105 2.380935 1_565
Na1 O133 2.417185 1_555
Na1 O107 2.458485 1_565
Na1 O33 2.671035 1_565
Na1 O63 2.737074 1_555
Na1 O5 2.787860 1_565
Na1 O19 2.816774 1_555
Na2 O64 2.365484 1_555
Na2 O136 2.394328 1_555
Na2 O102 2.450426 1_555
Na2 O106 2.458373 1_555
Na2 O134 2.496873 1_555
Na2 O0 2.759179 1_555
Na2 O20 2.872628 1_555
Na2 O34 2.903779 1_555
Na3 O103 2.409850 1_555
Na3 O137 2.416479 1_555
Na3 O107 2.441261 1_555
Na3 O65 2.446183 1_555
Na3 O135 2.471875 1_555
Na3 O35 2.761979 1_555
Na3 O1 2.811798 1_555
Na3 O21 2.892446 1_555
Na4 O141 2.371031 1_555
Na4 O99 2.386068 1_565
Na4 O143 2.424896 1_555
Na4 O97 2.439557 1_565
Na4 O69 2.667123 1_555
Na4 O27 2.748385 1_565
Na4 O7 2.787951 1_565
Na4 O17 2.817680 1_555
Na5 O80 2.357730 1_655
Na5 O111 2.367817 1_555
Na5 O83 2.393010 1_555
Na5 O109 2.394895 1_555
Na5 O39 2.592604 1_556
Na5 O52 2.777442 1_655
Na5 O9 2.796762 1_555
Na5 O66 2.949764 1_655
Na6 O76 2.336555 1_555
Na6 O75 2.582969 1_445
Na6 O72 2.596722 1_545
Na6 O85 2.622329 1_455
Na6 O86 2.630223 1_555
Na6 O89 2.720428 1_445
Na7 O77 2.361803 1_555
Na7 O74 2.589120 1_545
Na7 O73 2.603249 1_545
Na7 O87 2.614411 1_555
Na7 O84 2.615453 1_555
Na7 O88 2.700815 1_545
Na8 O93 2.538633 1_565
Na8 O91 2.561231 1_555
Na8 O94 2.581596 1_665
Na8 O80 2.594374 1_654
Na8 O83 2.598841 1_554
Na8 O78 2.674638 1_664
Na9 O95 2.505142 1_555
Na9 O81 2.509897 1_544
Na9 O90 2.568205 1_545
Na9 O79 2.591615 1_554
Na9 O92 2.627710 1_555
Na9 O82 2.701204 1_544
Na10 O100 2.462737 1_555
Na10 O96 2.493742 1_555
Na10 O98 2.504280 1_555
Na10 O112 2.682170 1_555
Na10 O108 2.699329 1_555
Na10 O110 2.730583 1_555
Na11 O113 2.523334 1_555
Na11 O109 2.545112 1_555
Na11 O99 2.579886 1_555
Na11 O111 2.595006 1_555
Na11 O97 2.607100 1_555
Na11 O101 2.659441 1_555
Na12 O118 2.573609 1_555
Na12 O102 2.579334 1_555
Na12 O116 2.592904 1_555
Na12 O104 2.628072 1_555
Na12 O106 2.658618 1_555
Na12 O114 2.660658 1_555
Na13 O103 2.533857 1_555
Na13 O119 2.595184 1_555
Na13 O105 2.612607 1_555
Na13 O117 2.629838 1_555
Na13 O107 2.637123 1_555
Na13 O115 2.693698 1_555
Na14 O122 2.409213 1_555
Na14 O136 2.556169 1_555
Na14 O132 2.571586 1_555
Na14 O124 2.635457 1_555
Na14 O120 2.646001 1_555
Na14 O134 2.668611 1_555
Na15 O121 2.496716 1_555
Na15 O125 2.504439 1_555
Na15 O123 2.546323 1_555
Na15 O135 2.641025 1_555
Na15 O133 2.649483 1_555
Na15 O137 2.659290 1_555
Na16 O130 2.430061 1_555
Na16 O128 2.464850 1_555
Na16 O126 2.517311 1_555
Na16 O140 2.713796 1_555
Na16 O142 2.729743 1_555
Na16 O138 2.744547 1_555
Na17 O131 2.512505 1_555
Na17 O129 2.553581 1_555
Na17 O139 2.554911 1_555
Na17 O143 2.639604 1_555
Na17 O141 2.648219 1_555
Na17 O127 2.662345 1_555
Mg0 O76 1.913579 1_555
Mg0 O0 2.083025 1_555
Mg0 O72 2.091551 1_545
Mg0 O75 2.101471 1_445
Mg0 O5 2.108147 1_455
Mg0 O3 2.115539 1_445
Mg1 O77 1.927608 1_555
Mg1 O1 2.067911 1_555
Mg1 O73 2.078599 1_545
Mg1 O74 2.098369 1_545
Mg1 O4 2.120120 1_555
Mg1 O2 2.128686 1_545
Mg2 O80 1.983300 1_645
Mg2 O11 2.020980 1_555
Mg2 O6 2.053563 1_655
Mg2 O78 2.056726 1_655
Mg2 O9 2.101546 1_545
Mg2 O83 2.110624 1_545
Mg3 O7 2.006023 1_555
Mg3 O8 2.024553 1_545
Mg3 O81 2.058806 1_545
Mg3 O10 2.091804 1_555
Mg3 O82 2.148847 1_545
Mg3 O79 2.154372 1_555
Mg4 O13 2.045460 1_545
Mg4 O85 2.058310 1_555
Mg4 O14 2.100469 1_655
Mg4 O89 2.109901 1_545
Mg4 O86 2.122047 1_655
Mg4 O16 2.135194 1_645
Mg5 O15 2.060268 1_555
Mg5 O17 2.076148 1_545
Mg5 O84 2.086868 1_555
Mg5 O12 2.092629 1_545
Mg5 O87 2.108246 1_555
Mg5 O88 2.112999 1_545
Mg6 O19 2.005873 1_555
Mg6 O91 2.069024 1_555
Mg6 O93 2.071789 1_565
Mg6 O22 2.075300 1_655
Mg6 O20 2.092052 1_665
Mg6 O94 2.182985 1_665
Mg7 O23 2.023282 1_545
Mg7 O95 2.045147 1_555
Mg7 O21 2.051072 1_555
Mg7 O18 2.052350 1_545
Mg7 O90 2.144945 1_545
Mg7 O92 2.174098 1_555
Mg8 O24 1.991713 1_555
Mg8 O28 2.004184 1_555
Mg8 O26 2.038941 1_555
Mg8 O100 2.096865 1_555
Mg8 O98 2.140105 1_555
Mg8 O96 2.165042 1_555
Mg9 O25 1.988270 1_555
Mg9 O29 2.008769 1_555
Mg9 O27 2.053214 1_555
Mg9 O101 2.111749 1_555
Mg9 O97 2.123961 1_555
Mg9 O99 2.132756 1_555
Mg10 O30 1.989853 1_555
Mg10 O34 2.045777 1_555
Mg10 O104 2.059754 1_555
Mg10 O32 2.064042 1_555
Mg10 O102 2.072079 1_555
Mg10 O106 2.141473 1_555
Mg11 O31 1.959274 1_555
Mg11 O33 2.036454 1_555
Mg11 O35 2.038421 1_555
Mg11 O105 2.129461 1_555
Mg11 O103 2.154130 1_555
Mg11 O107 2.207621 1_555
Mg12 O37 1.976300 1_556
Mg12 O41 2.010425 1_556
Mg12 O113 2.088167 1_555
Mg12 O39 2.111864 1_556
Mg12 O109 2.158591 1_555
Mg12 O111 2.267191 1_555
Mg13 O52 1.886261 1_554
Mg13 O122 2.034452 1_555
Mg13 O50 2.050558 1_554
Mg13 O120 2.107539 1_555
Mg13 O48 2.114684 1_554
Mg13 O124 2.120728 1_555
Mg14 O49 1.999395 1_554
Mg14 O53 2.039790 1_554
Mg14 O125 2.062639 1_555
Mg14 O51 2.094260 1_554
Mg14 O121 2.113303 1_555
Mg14 O123 2.144091 1_555
Mg15 O56 1.865619 1_555
Mg15 O58 2.061742 1_555
Mg15 O54 2.070010 1_555
Mg15 O130 2.123281 1_555
Mg15 O128 2.135322 1_555
Mg15 O126 2.168553 1_555
Mg16 O57 1.886455 1_555
Mg16 O59 2.064057 1_555
Mg16 O55 2.076722 1_555
Mg16 O131 2.118064 1_555
Mg16 O129 2.140026 1_555
Mg16 O127 2.156373 1_555
Mg17 O64 1.928358 1_555
Mg17 O60 2.011107 1_555
Mg17 O62 2.087323 1_555
Mg17 O136 2.171988 1_555
Mg17 O132 2.229910 1_555
Mg17 O134 2.254003 1_555
Mg18 O65 1.934796 1_555
Mg18 O61 2.025282 1_555
Mg18 O63 2.085146 1_555
Mg18 O137 2.183462 1_555
Mg18 O133 2.206247 1_555
Mg18 O135 2.221402 1_555
Mg19 O71 2.010310 1_555
Mg19 O69 2.074681 1_555
Mg19 O67 2.075788 1_555
Mg19 O139 2.090464 1_555
Mg19 O143 2.124251 1_555
Mg19 O141 2.145694 1_555
Nb0 O112 1.893487 1_555
Nb0 O40 1.989999 1_556
Nb0 O110 2.000219 1_555
Nb0 O36 2.014506 1_556
Nb0 O38 2.037826 1_556
Nb0 O108 2.102284 1_555
Nb1 O116 1.812466 1_555
Nb1 O44 2.022801 1_555
Nb1 O42 2.023813 1_555
Nb1 O118 2.029349 1_555
Nb1 O114 2.051130 1_555
Nb1 O46 2.118958 1_555
Nb2 O117 1.819892 1_555
Nb2 O45 2.016969 1_555
Nb2 O119 2.018054 1_555
Nb2 O43 2.030199 1_555
Nb2 O115 2.041877 1_555
Nb2 O47 2.119547 1_555
Nb3 O68 1.858456 1_555
Nb3 O142 2.000302 1_555
Nb3 O140 2.003873 1_555
Nb3 O66 2.034738 1_555
Nb3 O138 2.068533 1_555
Nb3 O70 2.101535 1_555
O0 S0 1.473452 1_545
O1 S1 1.476035 1_545
O2 S2 1.469096 1_555
O3 S3 1.473494 1_555
O4 S5 1.483547 1_555
O5 S4 1.486268 1_555
O6 S6 1.462154 1_555
O7 S7 1.490116 1_555
O8 S9 1.480545 1_555
O9 S8 1.466577 1_555
O10 S10 1.464271 1_555
O11 S11 1.472061 1_555
O12 S10 1.462238 1_565
O13 S11 1.475383 1_565
O14 S6 1.465084 1_555
O15 S7 1.478173 1_555
O16 S8 1.461926 1_455
O17 S9 1.488414 1_555
O18 S2 1.481099 1_555
O19 S3 1.474972 1_555
O20 S4 1.483447 1_455
O21 S5 1.480637 1_555
O22 S0 1.470003 1_555
O23 S1 1.473414 1_555
O24 S12 1.470511 1_555
O25 S13 1.470672 1_555
O26 S14 1.469137 1_555
O27 S15 1.476913 1_555
O28 S16 1.468373 1_555
O29 S17 1.468901 1_555
O30 S18 1.472100 1_555
O31 S19 1.478526 1_555
O32 S20 1.479681 1_555
O33 S21 1.497318 1_555
O34 S22 1.478935 1_555
O35 S23 1.496611 1_555
O36 S22 1.560310 1_555
O37 S23 1.473101 1_555
O38 S18 1.540164 1_555
O39 S19 1.489136 1_555
O40 S20 1.563404 1_555
O41 S21 1.475713 1_555
O42 S14 1.538455 1_555
O43 S15 1.534117 1_555
O44 S16 1.540004 1_555
O45 S17 1.544793 1_555
O46 S12 1.515044 1_555
O47 S13 1.519504 1_555
O48 S24 1.453445 1_555
O49 S25 1.469521 1_555
O50 S26 1.461979 1_555
O51 S27 1.459478 1_555
O52 Si0 1.572815 1_555
O53 S28 1.477246 1_555
O54 S29 1.452445 1_555
O55 S30 1.450721 1_555
O56 Si1 1.578334 1_555
O57 Si2 1.553593 1_555
O58 S31 1.454430 1_555
O59 S32 1.456240 1_555
O60 S31 1.471346 1_555
O61 S32 1.472674 1_555
O62 S29 1.486496 1_555
O63 S30 1.484056 1_555
O64 Si1 1.625427 1_555
O65 Si2 1.608427 1_555
O66 S26 1.561710 1_555
O67 S27 1.461508 1_555
O68 Si0 1.734245 1_555
O69 S28 1.491939 1_555
O70 S24 1.522136 1_555
O71 S25 1.474138 1_555
O72 S31 1.465828 1_555
O73 S32 1.468510 1_555
O74 S29 1.468750 1_555
O75 S30 1.467631 1_555
O76 Si1 1.603950 1_555
O77 Si2 1.592044 1_555
O78 S26 1.455874 1_555
O79 S27 1.474262 1_555
O80 Si0 1.588706 1_555
O81 S28 1.501419 1_555
O82 S24 1.460849 1_555
O83 S25 1.500462 1_555
O84 S12 1.484245 1_555
O85 S13 1.481521 1_555
O86 S14 1.479979 1_555
O87 S15 1.477015 1_555
O88 S16 1.476483 1_555
O89 S17 1.478807 1_555
O90 S18 1.473007 1_555
O91 S19 1.490424 1_555
O92 S20 1.468371 1_555
O93 S21 1.494788 1_555
O94 S22 1.466939 1_555
O95 S23 1.495135 1_555
O96 S10 1.472438 1_555
O97 S11 1.509587 1_555
O98 S6 1.476756 1_555
O99 S7 1.510397 1_555
O100 S9 1.485146 1_555
O101 S8 1.469931 1_555
O102 S2 1.502229 1_555
O103 S3 1.498501 1_555
O104 S5 1.505383 1_555
O105 S4 1.501330 1_555
O106 S0 1.528936 1_545
O107 S1 1.519828 1_545
O108 S24 1.533693 1_555
O109 S25 1.509690 1_555
O110 S27 1.577793 1_555
O111 S26 1.485279 1_655
O112 Si0 1.694428 1_545
O113 S28 1.495876 1_545
O114 S29 1.544354 1_545
O115 S30 1.546000 1_545
O116 Si1 1.797778 1_555
O117 Si2 1.793747 1_555
O118 S32 1.548040 1_555
O119 S31 1.559120 1_655
O120 S22 1.468111 1_555
O121 S23 1.487879 1_555
O122 S19 1.495551 1_455
O123 S18 1.467300 1_555
O124 S20 1.462703 1_565
O125 S21 1.490998 1_565
O126 S14 1.471929 1_565
O127 S15 1.468098 1_565
O128 S16 1.472237 1_555
O129 S17 1.468173 1_555
O130 S13 1.476227 1_455
O131 S12 1.474644 1_555
O132 S0 1.497451 1_555
O133 S1 1.494816 1_555
O134 S2 1.514368 1_555
O135 S3 1.517653 1_555
O136 S4 1.495883 1_455
O137 S5 1.489087 1_555
O138 S6 1.552717 1_555
O139 S7 1.480280 1_555
O140 S8 1.582657 1_455
O141 S9 1.508573 1_555
O142 S10 1.580215 1_565
O143 S11 1.505865 1_565
