# generated using pymatgen
data_Ba2Nd2MgCo4O11
_symmetry_space_group_name_H-M   'P 1'
_cell_length_a   3.89129224
_cell_length_b   7.78557438
_cell_length_c   8.94263266
_cell_angle_alpha   90.00000000
_cell_angle_beta   90.00000000
_cell_angle_gamma   90.00000000
_symmetry_Int_Tables_number   1
_chemical_formula_structural   Ba2Nd2MgCo4O11
_chemical_formula_sum   'Ba2 Nd2 Mg1 Co4 O11'
_cell_volume   270.92550873
_cell_formula_units_Z   1
loop_
 _symmetry_equiv_pos_site_id
 _symmetry_equiv_pos_as_xyz
  1  'x, y, z'
loop_
 _atom_site_type_symbol
 _atom_site_label
 _atom_site_symmetry_multiplicity
 _atom_site_fract_x
 _atom_site_fract_y
 _atom_site_fract_z
 _atom_site_occupancy
  Ba  Ba0  1  0.50000000  0.05040881  0.70682428  1
  Ba  Ba1  1  0.50000000  0.05040881  0.29317572  1
  Nd  Nd0  1  0.50000000  0.53532584  0.28519554  1
  Nd  Nd1  1  0.50000000  0.53532584  0.71480446  1
  Mg  Mg0  1  0.50000000  0.90318497  -0.00000000  1
  Co  Co0  1  -0.00000000  0.22019779  -0.00000000  1
  Co  Co1  1  -0.00000000  0.67451991  -0.00000000  1
  Co  Co2  1  -0.00000000  0.76974893  0.49999900  1
  Co  Co3  1  -0.00000000  0.28394821  0.49999900  1
  O  O0  1  -0.00000000  0.31377156  0.80486599  1
  O  O1  1  0.00000000  0.70902929  0.23671449  1
  O  O2  1  -0.00000000  0.31377156  0.19513501  1
  O  O3  1  0.00000000  0.70902929  0.76328651  1
  O  O4  1  0.50000000  0.29790888  0.49999900  1
  O  O5  1  0.50000000  0.75820354  0.49999900  1
  O  O6  1  0.50000000  0.16888786  -0.00000000  1
  O  O7  1  0.50000000  0.64344652  -0.00000000  1
  O  O8  1  -0.00000000  0.95511879  -0.00000000  1
  O  O9  1  -0.00000000  0.51713089  0.49999900  1
  O  O10  1  -0.00000000  0.04063571  0.49999900  1
loop_
_geom_bond_atom_site_label_1
_geom_bond_atom_site_label_2
_geom_bond_distance
_geom_bond_site_symmetry_2
Ba0 O4 2.670944 1_555
Ba0 O10 2.685556 1_555
Ba0 O10 2.685556 1_655
Ba0 O6 2.779301 1_556
Ba0 O5 2.931969 1_545
Ba0 O0 2.959476 1_555
Ba0 O0 2.959476 1_655
Ba1 O4 2.670932 1_555
Ba1 O10 2.685543 1_555
Ba1 O10 2.685543 1_655
Ba1 O6 2.779301 1_555
Ba1 O5 2.931958 1_545
Ba1 O2 2.959473 1_555
Ba1 O2 2.959473 1_655
Nd0 O1 2.408825 1_655
Nd0 O1 2.408825 1_555
Nd0 O5 2.588613 1_555
Nd0 O4 2.665816 1_555
Nd0 O7 2.685727 1_555
Nd0 O2 2.722048 1_555
Nd0 O2 2.722048 1_655
Nd0 O9 2.737790 1_555
Nd0 O9 2.737790 1_655
Nd1 O3 2.408827 1_555
Nd1 O3 2.408827 1_655
Nd1 O5 2.588626 1_555
Nd1 O4 2.665829 1_555
Nd1 O7 2.685727 1_556
Nd1 O0 2.722051 1_555
Nd1 O0 2.722051 1_655
Nd1 O9 2.737803 1_655
Nd1 O9 2.737803 1_555
Mg0 O8 1.987215 1_555
Mg0 O8 1.987215 1_655
Mg0 O7 2.022213 1_555
Mg0 O6 2.068650 1_565
Co0 O0 1.890983 1_554
Co0 O2 1.890991 1_555
Co0 O6 1.986233 1_455
Co0 O6 1.986233 1_555
Co0 O8 2.063792 1_545
Co1 O7 1.960629 1_555
Co1 O7 1.960629 1_455
Co1 O3 2.133824 1_554
Co1 O1 2.133833 1_555
Co1 O8 2.184623 1_555
Co2 O5 1.947721 1_455
Co2 O5 1.947721 1_555
Co2 O9 1.966777 1_555
Co2 O10 2.109009 1_565
Co2 O1 2.401447 1_555
Co2 O3 2.401473 1_555
Co3 O9 1.815461 1_555
Co3 O10 1.894328 1_555
Co3 O4 1.948680 1_455
Co3 O4 1.948680 1_555
