# generated using pymatgen
data_CeCrGe3
_symmetry_space_group_name_H-M   'P 1'
_cell_length_a   6.10950878
_cell_length_b   6.10950732
_cell_length_c   5.94625055
_cell_angle_alpha   90.00000000
_cell_angle_beta   90.00000000
_cell_angle_gamma   120.00001351
_symmetry_Int_Tables_number   1
_chemical_formula_structural   CeCrGe3
_chemical_formula_sum   'Ce2 Cr2 Ge6'
_cell_volume   192.21455037
_cell_formula_units_Z   2
loop_
 _symmetry_equiv_pos_site_id
 _symmetry_equiv_pos_as_xyz
  1  'x, y, z'
loop_
 _atom_site_type_symbol
 _atom_site_label
 _atom_site_symmetry_multiplicity
 _atom_site_fract_x
 _atom_site_fract_y
 _atom_site_fract_z
 _atom_site_occupancy
  Ce  Ce0  1  0.66666700  0.33333300  0.24998150  1
  Ce  Ce1  1  0.33333300  0.66666700  0.75001871  1
  Cr  Cr0  1  0.00000000  -0.00000000  0.49999211  1
  Cr  Cr1  1  0.00000000  -0.00000000  0.00000799  1
  Ge  Ge0  1  0.19478342  0.80521658  0.24996931  1
  Ge  Ge1  1  0.80521266  0.61042533  0.75003092  1
  Ge  Ge2  1  0.19478442  0.38956684  0.24996931  1
  Ge  Ge3  1  0.80521266  0.19478734  0.75003092  1
  Ge  Ge4  1  0.38957367  0.19478734  0.75003092  1
  Ge  Ge5  1  0.61043316  0.80521658  0.24996931  1
loop_
_geom_bond_atom_site_label_1
_geom_bond_atom_site_label_2
_geom_bond_distance
_geom_bond_site_symmetry_2
Ce0 Ge5 3.069206 1_545
Ce0 Ge2 3.069207 1_555
Ce0 Ge0 3.069208 1_545
Ce0 Ge0 3.069209 1_655
Ce0 Ge5 3.069212 1_555
Ce0 Ge2 3.069213 1_655
Ce0 Ge3 3.314685 1_554
Ce0 Ge1 3.314687 1_554
Ce0 Ge4 3.314690 1_554
Ce0 Ge3 3.315212 1_555
Ce0 Ge1 3.315215 1_555
Ce0 Ge4 3.315217 1_555
Ce1 Ge1 3.069211 1_455
Ce1 Ge3 3.069212 1_565
Ce1 Ge3 3.069213 1_455
Ce1 Ge4 3.069213 1_565
Ce1 Ge4 3.069213 1_555
Ce1 Ge1 3.069217 1_555
Ce1 Ge0 3.314704 1_556
Ce1 Ge2 3.314706 1_556
Ce1 Ge5 3.314706 1_556
Ce1 Ge0 3.315231 1_555
Ce1 Ge2 3.315233 1_555
Ce1 Ge5 3.315233 1_555
Cr0 Ge2 2.541415 1_555
Cr0 Ge5 2.541415 1_445
Cr0 Ge0 2.541415 1_545
Cr0 Ge4 2.541500 1_555
Cr0 Ge1 2.541504 1_445
Cr0 Ge3 2.541505 1_455
Cr1 Ge2 2.541201 1_555
Cr1 Ge5 2.541201 1_445
Cr1 Ge0 2.541202 1_545
Cr1 Ge4 2.541286 1_554
Cr1 Ge1 2.541289 1_444
Cr1 Ge3 2.541290 1_454
Ge0 Ge5 2.539416 1_555
Ge0 Ge2 2.539418 1_555
Ge1 Ge3 2.539343 1_555
Ge1 Ge4 2.539346 1_555
Ge2 Ge5 2.539412 1_555
Ge3 Ge4 2.539350 1_555
