# generated using pymatgen
data_Na3HfTa(SiO4)3
_symmetry_space_group_name_H-M   'P 1'
_cell_length_a   9.10858867
_cell_length_b   9.11075894
_cell_length_c   22.65992993
_cell_angle_alpha   90.00000000
_cell_angle_beta   90.10198866
_cell_angle_gamma   120.00788444
_symmetry_Int_Tables_number   1
_chemical_formula_structural   Na3HfTa(SiO4)3
_chemical_formula_sum   'Na18 Hf6 Ta6 Si18 O72'
_cell_volume   1628.39369950
_cell_formula_units_Z   6
loop_
 _symmetry_equiv_pos_site_id
 _symmetry_equiv_pos_as_xyz
  1  'x, y, z'
loop_
 _atom_site_type_symbol
 _atom_site_label
 _atom_site_symmetry_multiplicity
 _atom_site_fract_x
 _atom_site_fract_y
 _atom_site_fract_z
 _atom_site_occupancy
  Na  Na0  1  0.99172995  0.98176578  0.49789480  1
  Na  Na1  1  0.99172995  0.00996417  0.99789480  1
  Na  Na2  1  0.66647020  0.33457880  0.83123218  1
  Na  Na3  1  0.66647020  0.33189041  0.33123218  1
  Na  Na4  1  0.33144699  0.66531888  0.16459873  1
  Na  Na5  1  0.33144699  0.66612911  0.66459873  1
  Na  Na6  1  0.36791638  0.36424828  0.24950160  1
  Na  Na7  1  0.99322786  0.63212351  0.24899359  1
  Na  Na8  1  0.99322786  0.36110436  0.74899359  1
  Na  Na9  1  0.36791638  0.00366810  0.74950160  1
  Na  Na10  1  0.30430850  0.33978126  0.58267061  1
  Na  Na11  1  0.66335094  0.96655420  0.58228418  1
  Na  Na12  1  0.30430850  0.96452624  0.08267061  1
  Na  Na13  1  0.66335094  0.69679574  0.08228418  1
  Na  Na14  1  0.97149189  0.67390657  0.91558947  1
  Na  Na15  1  0.32966175  0.29872449  0.91607875  1
  Na  Na16  1  0.97149189  0.29758632  0.41558947  1
  Na  Na17  1  0.32966175  0.03093826  0.41607875  1
  Hf  Hf0  1  0.99446396  0.99589861  0.35321316  1
  Hf  Hf1  1  0.99446396  0.99856535  0.85321316  1
  Hf  Hf2  1  0.66737551  0.33919003  0.68659770  1
  Hf  Hf3  1  0.66737551  0.32818448  0.18659770  1
  Hf  Hf4  1  0.32974520  0.66180060  0.02002022  1
  Hf  Hf5  1  0.32974520  0.66794559  0.52002022  1
  Ta  Ta0  1  0.99892760  0.99612266  0.64624333  1
  Ta  Ta1  1  0.99892760  0.00280494  0.14624333  1
  Ta  Ta2  1  0.66784920  0.32900377  0.97948097  1
  Ta  Ta3  1  0.66784920  0.33884443  0.47948097  1
  Ta  Ta4  1  0.33760064  0.67018716  0.31290013  1
  Ta  Ta5  1  0.33760064  0.66741448  0.81290013  1
  Si  Si0  1  0.29049405  0.99869593  0.25069241  1
  Si  Si1  1  0.70708089  0.71139763  0.24892280  1
  Si  Si2  1  0.00022896  0.29190019  0.25158942  1
  Si  Si3  1  0.29049405  0.29179812  0.75069241  1
  Si  Si4  1  0.00022896  0.70832877  0.75158942  1
  Si  Si5  1  0.70708089  0.99568326  0.74892280  1
  Si  Si6  1  0.95790307  0.33338520  0.58419836  1
  Si  Si7  1  0.37480580  0.04293841  0.58406738  1
  Si  Si8  1  0.67087159  0.62675550  0.58301584  1
  Si  Si9  1  0.95790307  0.62451687  0.08419836  1
  Si  Si10  1  0.67087159  0.04411509  0.08301584  1
  Si  Si11  1  0.37480580  0.33186639  0.08406738  1
  Si  Si12  1  0.62489444  0.66712700  0.91866128  1
  Si  Si13  1  0.04057001  0.37586874  0.91556781  1
  Si  Si14  1  0.33766637  0.95923663  0.91692066  1
  Si  Si15  1  0.62489444  0.95776845  0.41866128  1
  Si  Si16  1  0.33766637  0.37843074  0.41692066  1
  Si  Si17  1  0.04057001  0.66470227  0.41556781  1
  O  O0  1  0.20456726  0.02938865  0.30863681  1
  O  O1  1  0.83209802  0.79982629  0.30440252  1
  O  O2  1  0.97753394  0.18343764  0.31076381  1
  O  O3  1  0.20456726  0.17517860  0.80863681  1
  O  O4  1  0.97753394  0.79409630  0.81076381  1
  O  O5  1  0.83209802  0.03227174  0.80440252  1
  O  O6  1  0.80031643  0.97166064  0.68976560  1
  O  O7  1  0.16515917  0.19865365  0.69222318  1
  O  O8  1  0.02972338  0.83822255  0.69511459  1
  O  O9  1  0.80031643  0.82865579  0.18976560  1
  O  O10  1  0.02972338  0.19150083  0.19511459  1
  O  O11  1  0.16515917  0.96650552  0.19222318  1
  O  O12  1  0.86983625  0.35548321  0.64271732  1
  O  O13  1  0.49101675  0.12890018  0.64215245  1
  O  O14  1  0.63338116  0.50283748  0.63896207  1
  O  O15  1  0.86983625  0.51435205  0.14271732  1
  O  O16  1  0.63338116  0.13054268  0.13896207  1
  O  O17  1  0.49101675  0.36211557  0.14215245  1
  O  O18  1  0.46916552  0.30143841  0.02580062  1
  O  O19  1  0.83295599  0.53076242  0.02585642  1
  O  O20  1  0.69530405  0.16672177  0.02535342  1
  O  O21  1  0.46916552  0.16772610  0.52580062  1
  O  O22  1  0.69530405  0.52858128  0.52535342  1
  O  O23  1  0.83295599  0.30219256  0.52585642  1
  O  O24  1  0.53974514  0.69127648  0.97762889  1
  O  O25  1  0.16373758  0.46736365  0.97154892  1
  O  O26  1  0.30461113  0.84236650  0.97468905  1
  O  O27  1  0.53974514  0.84846966  0.47762889  1
  O  O28  1  0.30461113  0.46224563  0.47468905  1
  O  O29  1  0.16373758  0.69637493  0.47154892  1
  O  O30  1  0.13143228  0.63256257  0.35684496  1
  O  O31  1  0.49485688  0.85865278  0.36190722  1
  O  O32  1  0.36015742  0.49747229  0.35825683  1
  O  O33  1  0.13143228  0.49887072  0.85684496  1
  O  O34  1  0.36015742  0.86268613  0.85825683  1
  O  O35  1  0.49485688  0.63620510  0.86190722  1
  O  O36  1  0.02707431  0.83490986  0.41060487  1
  O  O37  1  0.81653151  0.99196572  0.41210799  1
  O  O38  1  0.17159689  0.18866235  0.41121179  1
  O  O39  1  0.02707431  0.19216445  0.91060487  1
  O  O40  1  0.17159689  0.98293453  0.91121179  1
  O  O41  1  0.81653151  0.82456579  0.91210799  1
  O  O42  1  0.96980422  0.15658769  0.58891735  1
  O  O43  1  0.19003865  0.03595864  0.59002367  1
  O  O44  1  0.83963059  0.81618884  0.58935534  1
  O  O45  1  0.96980422  0.81321652  0.08891735  1
  O  O46  1  0.83963059  0.02344175  0.08935534  1
  O  O47  1  0.19003865  0.15408001  0.09002367  1
  O  O48  1  0.68275099  0.16135685  0.74410540  1
  O  O49  1  0.47364277  0.30484937  0.74439818  1
  O  O50  1  0.84269114  0.51645920  0.74547078  1
  O  O51  1  0.68275099  0.52139314  0.24410540  1
  O  O52  1  0.84269114  0.32623094  0.24547078  1
  O  O53  1  0.47364277  0.16879241  0.24439818  1
  O  O54  1  0.63508521  0.48998072  0.92282468  1
  O  O55  1  0.85697133  0.36980805  0.92282931  1
  O  O56  1  0.50596464  0.15115611  0.92239200  1
  O  O57  1  0.63508521  0.14510349  0.42282468  1
  O  O58  1  0.50596464  0.35480753  0.42239200  1
  O  O59  1  0.85697133  0.48716228  0.42282931  1
  O  O60  1  0.36008778  0.50111032  0.07820883  1
  O  O61  1  0.15053951  0.65952161  0.07865848  1
  O  O62  1  0.50459020  0.85565477  0.07719125  1
  O  O63  1  0.36008778  0.85897846  0.57820883  1
  O  O64  1  0.50459020  0.64893643  0.57719125  1
  O  O65  1  0.15053951  0.49101891  0.57865848  1
  O  O66  1  0.29789847  0.82135503  0.25665473  1
  O  O67  1  0.51669680  0.68978062  0.25623272  1
  O  O68  1  0.17742487  0.47931558  0.25525259  1
  O  O69  1  0.29789847  0.47654444  0.75665473  1
  O  O70  1  0.17742487  0.69811029  0.75525259  1
  O  O71  1  0.51669680  0.82691719  0.75623272  1
loop_
_geom_bond_atom_site_label_1
_geom_bond_atom_site_label_2
_geom_bond_distance
_geom_bond_site_symmetry_2
Na0 O36 2.497866 1_655
Na0 O44 2.531804 1_555
Na0 O37 2.543889 1_555
Na0 O43 2.638044 1_665
Na0 O38 2.649150 1_665
Na0 O42 2.674057 1_565
Na1 O39 2.497866 1_655
Na1 O46 2.531804 1_556
Na1 O41 2.543889 1_545
Na1 O47 2.638044 1_656
Na1 O40 2.649150 1_645
Na1 O45 2.674057 1_546
Na2 O50 2.539600 1_555
Na2 O49 2.557687 1_555
Na2 O48 2.577906 1_555
Na2 O56 2.600782 1_555
Na2 O54 2.607847 1_555
Na2 O55 2.617649 1_555
Na3 O52 2.539600 1_555
Na3 O53 2.557687 1_555
Na3 O51 2.577906 1_555
Na3 O58 2.600782 1_555
Na3 O57 2.607847 1_555
Na3 O59 2.617649 1_555
Na4 O61 2.532185 1_555
Na4 O60 2.555508 1_555
Na4 O68 2.586891 1_555
Na4 O62 2.587069 1_555
Na4 O67 2.611469 1_555
Na4 O66 2.627253 1_555
Na5 O65 2.532185 1_555
Na5 O63 2.555508 1_555
Na5 O70 2.586891 1_555
Na5 O64 2.587069 1_555
Na5 O71 2.611469 1_555
Na5 O69 2.627253 1_555
Na6 O53 2.414033 1_555
Na6 O68 2.438619 1_555
Na6 O51 2.486564 1_555
Na6 O67 2.575864 1_555
Na6 O17 2.684456 1_555
Na6 O32 2.763667 1_555
Na6 O10 2.936361 1_555
Na6 O0 2.963727 1_555
Na7 O52 2.414691 1_555
Na7 O66 2.432379 1_655
Na7 O51 2.484521 1_555
Na7 O15 2.645395 1_555
Na7 O68 2.666225 1_655
Na7 O30 2.746160 1_655
Na7 O1 2.883487 1_555
Na7 O11 2.936576 1_655
Na8 O50 2.414683 1_555
Na8 O69 2.432378 1_655
Na8 O48 2.484523 1_555
Na8 O12 2.645393 1_555
Na8 O70 2.666232 1_655
Na8 O33 2.746162 1_655
Na8 O5 2.883487 1_555
Na8 O7 2.936576 1_655
Na9 O49 2.414024 1_555
Na9 O70 2.438612 1_545
Na9 O48 2.486564 1_555
Na9 O71 2.575856 1_545
Na9 O13 2.684454 1_555
Na9 O34 2.763663 1_545
Na9 O8 2.936361 1_545
Na9 O3 2.963727 1_555
Na10 O65 2.408004 1_555
Na10 O43 2.427358 1_555
Na10 O64 2.477521 1_555
Na10 O42 2.646523 1_455
Na10 O28 2.688668 1_555
Na10 O7 2.793455 1_555
Na10 O14 2.889776 1_555
Na10 O21 2.955343 1_555
Na11 O63 2.427044 1_555
Na11 O42 2.444663 1_565
Na11 O64 2.508390 1_555
Na11 O44 2.584536 1_555
Na11 O27 2.613024 1_555
Na11 O6 2.724237 1_555
Na11 O23 2.941812 1_565
Na11 O13 2.970192 1_565
Na12 O61 2.407988 1_555
Na12 O47 2.427367 1_565
Na12 O62 2.477508 1_555
Na12 O45 2.646524 1_455
Na12 O26 2.688660 1_554
Na12 O11 2.793457 1_555
Na12 O16 2.889776 1_565
Na12 O18 2.955343 1_565
Na13 O60 2.427041 1_555
Na13 O45 2.444662 1_555
Na13 O62 2.508406 1_555
Na13 O46 2.584543 1_565
Na13 O24 2.613028 1_554
Na13 O9 2.724239 1_555
Na13 O19 2.941812 1_555
Na13 O17 2.970192 1_555
Na14 O41 2.412475 1_555
Na14 O55 2.429186 1_555
Na14 O40 2.475202 1_655
Na14 O4 2.604714 1_555
Na14 O54 2.662708 1_555
Na14 O19 2.810960 1_556
Na14 O26 2.946720 1_655
Na14 O33 2.961095 1_655
Na15 O39 2.424173 1_555
Na15 O54 2.439015 1_555
Na15 O40 2.493758 1_545
Na15 O56 2.562339 1_555
Na15 O3 2.683274 1_555
Na15 O18 2.784638 1_556
Na15 O25 2.924732 1_555
Na15 O35 2.933208 1_555
Na16 O37 2.412483 1_545
Na16 O59 2.429170 1_555
Na16 O38 2.475209 1_655
Na16 O2 2.604718 1_555
Na16 O57 2.662707 1_555
Na16 O23 2.810955 1_555
Na16 O28 2.946720 1_655
Na16 O30 2.961095 1_655
Na17 O36 2.424175 1_545
Na17 O57 2.439018 1_555
Na17 O38 2.493750 1_555
Na17 O58 2.562324 1_555
Na17 O0 2.683272 1_555
Na17 O21 2.784634 1_555
Na17 O29 2.924731 1_545
Na17 O31 2.933208 1_545
Hf0 O1 1.988293 1_555
Hf0 O2 2.032595 1_565
Hf0 O0 2.049057 1_665
Hf0 O37 2.087736 1_555
Hf0 O36 2.089307 1_655
Hf0 O38 2.138446 1_665
Hf1 O5 1.988293 1_565
Hf1 O4 2.032595 1_555
Hf1 O3 2.049057 1_665
Hf1 O41 2.087736 1_555
Hf1 O39 2.089307 1_665
Hf1 O40 2.138446 1_655
Hf2 O14 1.986088 1_555
Hf2 O12 2.035744 1_555
Hf2 O13 2.044817 1_555
Hf2 O50 2.085880 1_555
Hf2 O49 2.093625 1_555
Hf2 O48 2.137541 1_555
Hf3 O16 1.986088 1_555
Hf3 O15 2.035744 1_555
Hf3 O17 2.044817 1_555
Hf3 O52 2.085880 1_555
Hf3 O53 2.093625 1_555
Hf3 O51 2.137541 1_555
Hf4 O25 1.986388 1_554
Hf4 O24 2.036270 1_554
Hf4 O26 2.046889 1_554
Hf4 O60 2.088469 1_555
Hf4 O61 2.098628 1_555
Hf4 O62 2.124424 1_555
Hf5 O29 1.986388 1_555
Hf5 O27 2.036270 1_555
Hf5 O28 2.046889 1_555
Hf5 O63 2.088469 1_555
Hf5 O65 2.098628 1_555
Hf5 O64 2.124424 1_555
O0 Si0 1.623993 1_545
O1 Si1 1.613541 1_555
O2 Si2 1.616746 1_655
O3 Si3 1.623993 1_555
O4 Si4 1.616746 1_655
O5 Si5 1.613541 1_545
O6 Si5 1.660126 1_555
O6 Ta0 1.974356 1_555
O7 Si3 1.674641 1_555
O7 Ta0 1.995691 1_445
O8 Si4 1.671398 1_555
O8 Ta0 1.943483 1_455
O9 Si1 1.660126 1_555
O9 Ta1 1.974356 1_565
O10 Si2 1.671398 1_555
O10 Ta1 1.943483 1_455
O11 Si0 1.674641 1_555
O11 Ta1 1.995691 1_465
O12 Si6 1.614836 1_555
O13 Si7 1.622361 1_555
O14 Si8 1.616880 1_555
O15 Si9 1.614836 1_555
O16 Si10 1.616880 1_555
O17 Si11 1.622361 1_555
O18 Si11 1.673671 1_555
O18 Ta2 1.998000 1_554
O19 Si9 1.671795 1_555
O19 Ta2 1.993537 1_554
O20 Si10 1.660410 1_555
O20 Ta2 1.923000 1_554
O21 Si7 1.673671 1_555
O21 Ta3 1.998000 1_555
O22 Si8 1.660410 1_555
O22 Ta3 1.923000 1_555
O23 Si6 1.671795 1_555
O23 Ta3 1.993537 1_555
O24 Si12 1.615475 1_555
O25 Si13 1.619313 1_555
O26 Si14 1.618237 1_555
O27 Si15 1.615475 1_555
O28 Si16 1.618237 1_555
O29 Si17 1.619313 1_555
O30 Si17 1.669633 1_555
O30 Ta4 1.999599 1_555
O31 Si15 1.672431 1_555
O31 Ta4 1.941003 1_555
O32 Si16 1.662545 1_555
O32 Ta4 1.974152 1_555
O33 Si13 1.669633 1_555
O33 Ta5 1.999599 1_555
O34 Si14 1.662545 1_555
O34 Ta5 1.974152 1_555
O35 Si12 1.672431 1_555
O35 Ta5 1.941003 1_555
O36 Si17 1.619603 1_555
O37 Si15 1.619565 1_555
O38 Si16 1.636300 1_555
O39 Si13 1.619612 1_555
O40 Si14 1.636294 1_555
O41 Si12 1.619562 1_555
O42 Si6 1.671030 1_555
O42 Ta0 2.069247 1_545
O43 Si7 1.657831 1_555
O43 Ta0 2.039806 1_445
O44 Si8 1.645535 1_555
O44 Ta0 2.017078 1_555
O45 Si9 1.671039 1_555
O45 Ta1 2.069247 1_565
O46 Si10 1.645529 1_555
O46 Ta1 2.017078 1_555
O47 Si11 1.657827 1_555
O47 Ta1 2.039806 1_455
O48 Si5 1.635191 1_545
O49 Si3 1.618610 1_555
O50 Si4 1.619990 1_655
O51 Si1 1.635200 1_555
O52 Si2 1.619984 1_655
O53 Si0 1.618605 1_545
O54 Si12 1.664970 1_555
O54 Ta2 2.079588 1_555
O55 Si13 1.653908 1_655
O55 Ta2 2.030009 1_555
O56 Si14 1.655583 1_545
O56 Ta2 2.019063 1_555
O57 Si15 1.664952 1_545
O57 Ta3 2.079588 1_555
O58 Si16 1.655594 1_555
O58 Ta3 2.019063 1_555
O59 Si17 1.653916 1_655
O59 Ta3 2.030009 1_555
O60 Si11 1.618603 1_555
O61 Si9 1.623980 1_455
O62 Si10 1.630227 1_565
O63 Si7 1.618585 1_565
O64 Si8 1.630238 1_555
O65 Si6 1.623986 1_455
O66 Si0 1.655985 1_555
O66 Ta4 2.036795 1_555
O67 Si1 1.653131 1_555
O67 Ta4 2.014470 1_555
O68 Si2 1.664453 1_555
O68 Ta4 2.077148 1_555
O69 Si3 1.655994 1_555
O69 Ta5 2.036795 1_555
O70 Si4 1.664448 1_555
O70 Ta5 2.077148 1_555
O71 Si5 1.653127 1_555
O71 Ta5 2.014470 1_555
