# generated using pymatgen
data_Co2(GeS)3
_symmetry_space_group_name_H-M   'P 1'
_cell_length_a   7.99698448
_cell_length_b   7.99698448
_cell_length_c   7.99698464
_cell_angle_alpha   89.91715686
_cell_angle_beta   89.91715687
_cell_angle_gamma   89.91715001
_symmetry_Int_Tables_number   1
_chemical_formula_structural   Co2(GeS)3
_chemical_formula_sum   'Co8 Ge12 S12'
_cell_volume   511.41964622
_cell_formula_units_Z   4
loop_
 _symmetry_equiv_pos_site_id
 _symmetry_equiv_pos_as_xyz
  1  'x, y, z'
loop_
 _atom_site_type_symbol
 _atom_site_label
 _atom_site_symmetry_multiplicity
 _atom_site_fract_x
 _atom_site_fract_y
 _atom_site_fract_z
 _atom_site_occupancy
  Co  Co0  1  0.25835007  0.25394413  0.75629166  1
  Co  Co1  1  0.74164993  0.74605587  0.24370834  1
  Co  Co2  1  0.75629166  0.25835007  0.25394413  1
  Co  Co3  1  0.24370834  0.74164993  0.74605587  1
  Co  Co4  1  0.25394413  0.75629166  0.25835007  1
  Co  Co5  1  0.75586997  0.75586997  0.75586997  1
  Co  Co6  1  0.74605587  0.24370834  0.74164993  1
  Co  Co7  1  0.24413003  0.24413003  0.24413003  1
  Ge  Ge0  1  0.99886368  0.33453254  0.84979740  1
  Ge  Ge1  1  0.00113632  0.66546746  0.15020260  1
  Ge  Ge2  1  0.50149961  0.16576561  0.35008313  1
  Ge  Ge3  1  0.35008313  0.50149961  0.16576561  1
  Ge  Ge4  1  0.16576561  0.35008313  0.50149961  1
  Ge  Ge5  1  0.84979740  0.99886368  0.33453254  1
  Ge  Ge6  1  0.49850039  0.83423439  0.64991687  1
  Ge  Ge7  1  0.64991687  0.49850039  0.83423439  1
  Ge  Ge8  1  0.66546746  0.15020260  0.00113632  1
  Ge  Ge9  1  0.33453254  0.84979740  0.99886368  1
  Ge  Ge10  1  0.15020260  0.00113632  0.66546746  1
  Ge  Ge11  1  0.83423439  0.64991687  0.49850039  1
  S  S0  1  0.99688626  0.65400165  0.85377723  1
  S  S1  1  0.35314638  0.50068533  0.84580688  1
  S  S2  1  0.34599835  0.14622277  0.00311374  1
  S  S3  1  0.85377723  0.99688626  0.65400165  1
  S  S4  1  0.65400165  0.85377723  0.99688626  1
  S  S5  1  0.64685362  0.49931467  0.15419312  1
  S  S6  1  0.15419312  0.64685362  0.49931467  1
  S  S7  1  0.50068533  0.84580688  0.35314638  1
  S  S8  1  0.49931467  0.15419312  0.64685362  1
  S  S9  1  0.14622277  0.00311374  0.34599835  1
  S  S10  1  0.84580688  0.35314638  0.50068533  1
  S  S11  1  0.00311374  0.34599835  0.14622277  1
loop_
_geom_bond_atom_site_label_1
_geom_bond_atom_site_label_2
_geom_bond_distance
_geom_bond_site_symmetry_2
Co0 S1 2.233960 1_555
Co0 S8 2.260145 1_555
Co0 S2 2.264229 1_556
Co0 Ge0 2.296432 1_455
Co0 Ge4 2.299814 1_555
Co0 Ge10 2.318168 1_555
Co1 S5 2.233960 1_555
Co1 S7 2.260145 1_555
Co1 S4 2.264229 1_554
Co1 Ge1 2.296432 1_655
Co1 Ge11 2.299814 1_555
Co1 Ge5 2.318168 1_555
Co2 S10 2.233960 1_555
Co2 S5 2.260145 1_555
Co2 S11 2.264229 1_655
Co2 Ge5 2.296432 1_545
Co2 Ge2 2.299814 1_555
Co2 Ge8 2.318168 1_555
Co3 S6 2.233960 1_555
Co3 S1 2.260145 1_555
Co3 S0 2.264229 1_455
Co3 Ge10 2.296432 1_565
Co3 Ge6 2.299814 1_555
Co3 Ge9 2.318168 1_555
Co4 S7 2.233960 1_555
Co4 S6 2.260145 1_555
Co4 S9 2.264229 1_565
Co4 Ge9 2.296432 1_554
Co4 Ge3 2.299814 1_555
Co4 Ge1 2.318168 1_555
Co5 S0 2.233726 1_555
Co5 S4 2.233726 1_555
Co5 S3 2.233726 1_555
Co5 Ge6 2.312258 1_555
Co5 Ge11 2.312258 1_555
Co5 Ge7 2.312258 1_555
Co6 S8 2.233960 1_555
Co6 S10 2.260145 1_555
Co6 S3 2.264229 1_545
Co6 Ge8 2.296432 1_556
Co6 Ge7 2.299814 1_555
Co6 Ge0 2.318168 1_555
Co7 S11 2.233726 1_555
Co7 S2 2.233726 1_555
Co7 S9 2.233726 1_555
Co7 Ge2 2.312258 1_555
Co7 Ge4 2.312258 1_555
Co7 Ge3 2.312258 1_555
Ge0 S11 2.372709 1_656
Ge0 S0 2.555060 1_555
Ge1 S0 2.372709 1_454
Ge1 S11 2.555060 1_555
Ge2 S8 2.374979 1_555
Ge2 S7 2.558804 1_545
Ge3 S5 2.374979 1_555
Ge3 S1 2.558805 1_554
Ge4 S6 2.374979 1_555
Ge4 S10 2.558804 1_455
Ge5 S9 2.372709 1_665
Ge5 S3 2.555060 1_555
Ge6 S7 2.374979 1_555
Ge6 S8 2.558804 1_565
Ge7 S1 2.374979 1_555
Ge7 S5 2.558805 1_556
Ge8 S4 2.372709 1_544
Ge8 S2 2.555060 1_555
Ge9 S2 2.372709 1_566
Ge9 S4 2.555060 1_555
Ge10 S3 2.372709 1_445
Ge10 S9 2.555060 1_555
Ge11 S10 2.374979 1_555
Ge11 S6 2.558804 1_655
