# generated using pymatgen
data_Na5Hf2Al2SiP5O24
_symmetry_space_group_name_H-M   'P 1'
_cell_length_a   8.80120653
_cell_length_b   8.78216261
_cell_length_c   22.21372333
_cell_angle_alpha   90.01529050
_cell_angle_beta   89.94134606
_cell_angle_gamma   119.85113354
_symmetry_Int_Tables_number   1
_chemical_formula_structural   Na5Hf2Al2SiP5O24
_chemical_formula_sum   'Na15 Hf6 Al6 Si3 P15 O72'
_cell_volume   1489.17231951
_cell_formula_units_Z   3
loop_
 _symmetry_equiv_pos_site_id
 _symmetry_equiv_pos_as_xyz
  1  'x, y, z'
loop_
 _atom_site_type_symbol
 _atom_site_label
 _atom_site_symmetry_multiplicity
 _atom_site_fract_x
 _atom_site_fract_y
 _atom_site_fract_z
 _atom_site_occupancy
  Na  Na0  1  0.00225349  0.63512421  0.25207183  1
  Na  Na1  1  0.63430133  0.64202984  0.75264263  1
  Na  Na2  1  0.36357453  0.99678060  0.75303690  1
  Na  Na3  1  0.66273056  0.96866903  0.58456594  1
  Na  Na4  1  0.29709786  0.96817575  0.08450215  1
  Na  Na5  1  0.67305916  0.69875208  0.08314947  1
  Na  Na6  1  0.02883371  0.33339998  0.08543227  1
  Na  Na7  1  0.96911628  0.30055212  0.41495951  1
  Na  Na8  1  0.33566279  0.03304305  0.41731694  1
  Na  Na9  1  0.00256191  0.99016984  0.49795785  1
  Na  Na10  1  0.00019180  0.99669674  0.99906512  1
  Na  Na11  1  0.67669734  0.33061350  0.83950477  1
  Na  Na12  1  0.65793030  0.33519972  0.33609692  1
  Na  Na13  1  0.34030766  0.66708870  0.17334544  1
  Na  Na14  1  0.31868107  0.65574578  0.66891261  1
  Hf  Hf0  1  0.99670931  0.00245462  0.85656289  1
  Hf  Hf1  1  0.00515738  0.00046223  0.64603542  1
  Hf  Hf2  1  0.66883139  0.32882873  0.68597324  1
  Hf  Hf3  1  0.66545671  0.33074780  0.19046702  1
  Hf  Hf4  1  0.33039170  0.66690584  0.01626681  1
  Hf  Hf5  1  0.33185088  0.66617413  0.51732792  1
  Al  Al0  1  0.99622941  0.99644945  0.35017149  1
  Al  Al1  1  0.99716108  0.99423777  0.15151424  1
  Al  Al2  1  0.67208120  0.34106764  0.97839263  1
  Al  Al3  1  0.66243341  0.33864961  0.48049498  1
  Al  Al4  1  0.34119708  0.66610963  0.31438515  1
  Al  Al5  1  0.33306667  0.66690738  0.81765285  1
  Si  Si0  1  0.69751234  0.99294740  0.75126735  1
  Si  Si1  1  0.37676039  0.04836652  0.57814775  1
  Si  Si2  1  0.95169440  0.62690615  0.08311822  1
  P  P0  1  0.28081058  0.99298404  0.25290117  1
  P  P1  1  0.70984221  0.72311689  0.25167634  1
  P  P2  1  0.01049473  0.28620215  0.25171721  1
  P  P3  1  0.28901339  0.30100289  0.75219099  1
  P  P4  1  0.00756016  0.70603338  0.75297512  1
  P  P5  1  0.95390805  0.33516834  0.57836816  1
  P  P6  1  0.66793042  0.61848599  0.58036332  1
  P  P7  1  0.67406835  0.04970475  0.08167184  1
  P  P8  1  0.37578958  0.32595710  0.08202774  1
  P  P9  1  0.62089314  0.65413311  0.91554205  1
  P  P10  1  0.03649199  0.38183019  0.91543675  1
  P  P11  1  0.34666849  0.96952656  0.91545084  1
  P  P12  1  0.62992937  0.95846019  0.41258873  1
  P  P13  1  0.33596572  0.37434779  0.41195582  1
  P  P14  1  0.03474972  0.66613232  0.41225551  1
  O  O0  1  0.19375621  0.01948632  0.30881609  1
  O  O1  1  0.83462752  0.80827171  0.30500022  1
  O  O2  1  0.98184784  0.17405090  0.30807537  1
  O  O3  1  0.21086418  0.17406631  0.80528374  1
  O  O4  1  0.97244750  0.79374376  0.80649977  1
  O  O5  1  0.82824854  0.02570529  0.80652448  1
  O  O6  1  0.78119615  0.95753058  0.68987711  1
  O  O7  1  0.17872288  0.21364072  0.69498701  1
  O  O8  1  0.04226237  0.82474505  0.69620974  1
  O  O9  1  0.79205477  0.82590168  0.19216104  1
  O  O10  1  0.02846291  0.19911591  0.19315696  1
  O  O11  1  0.16913668  0.96505244  0.19478217  1
  O  O12  1  0.87360632  0.36258442  0.63628221  1
  O  O13  1  0.49038274  0.12631239  0.64041653  1
  O  O14  1  0.64337548  0.52083390  0.64053641  1
  O  O15  1  0.87473821  0.50504557  0.14408682  1
  O  O16  1  0.62980684  0.12392280  0.13835281  1
  O  O17  1  0.49225393  0.36400773  0.13871211  1
  O  O18  1  0.46016341  0.29169192  0.02743152  1
  O  O19  1  0.82151095  0.52949310  0.02711741  1
  O  O20  1  0.70226370  0.16637853  0.02712039  1
  O  O21  1  0.47670863  0.16408046  0.51946109  1
  O  O22  1  0.69293006  0.52690979  0.52616880  1
  O  O23  1  0.84033950  0.30889936  0.52246209  1
  O  O24  1  0.54182996  0.68667610  0.97387645  1
  O  O25  1  0.14431934  0.45752855  0.97491132  1
  O  O26  1  0.31385780  0.85563332  0.97367276  1
  O  O27  1  0.55293488  0.85154774  0.47191548  1
  O  O28  1  0.29561455  0.45142569  0.46896808  1
  O  O29  1  0.15759220  0.70437410  0.46793434  1
  O  O30  1  0.12299557  0.62984778  0.35754602  1
  O  O31  1  0.49785089  0.86362069  0.36129922  1
  O  O32  1  0.36086332  0.49499516  0.35846376  1
  O  O33  1  0.13723232  0.50042565  0.86220516  1
  O  O34  1  0.36434617  0.87262871  0.86005602  1
  O  O35  1  0.50770111  0.63748811  0.86012214  1
  O  O36  1  0.02141687  0.83465924  0.40560916  1
  O  O37  1  0.81649796  0.98392019  0.40507828  1
  O  O38  1  0.16961215  0.18664551  0.40592579  1
  O  O39  1  0.02224784  0.19868294  0.91199224  1
  O  O40  1  0.17974718  0.98540268  0.91175813  1
  O  O41  1  0.80578767  0.82005445  0.91199937  1
  O  O42  1  0.96319708  0.16410500  0.58545129  1
  O  O43  1  0.18273823  0.02514511  0.58424982  1
  O  O44  1  0.82870364  0.80693239  0.58500017  1
  O  O45  1  0.97663591  0.82464144  0.09291415  1
  O  O46  1  0.83880220  0.03086556  0.09125005  1
  O  O47  1  0.18924971  0.16623575  0.09174763  1
  O  O48  1  0.67196516  0.16477547  0.74824546  1
  O  O49  1  0.47599685  0.32450611  0.74440614  1
  O  O50  1  0.83751509  0.52896169  0.74532733  1
  O  O51  1  0.69465831  0.53613454  0.24633686  1
  O  O52  1  0.84388993  0.31020728  0.24733452  1
  O  O53  1  0.46564881  0.15756808  0.24711089  1
  O  O54  1  0.63491935  0.48805200  0.92259555  1
  O  O55  1  0.85502977  0.36313702  0.92308463  1
  O  O56  1  0.51170011  0.14839114  0.92418955  1
  O  O57  1  0.64895181  0.14503546  0.41929002  1
  O  O58  1  0.49965971  0.35275496  0.42037841  1
  O  O59  1  0.85516866  0.49774607  0.42283230  1
  O  O60  1  0.35706340  0.49365341  0.07710664  1
  O  O61  1  0.15083422  0.65123766  0.07855637  1
  O  O62  1  0.51216581  0.86045889  0.07671901  1
  O  O63  1  0.36276623  0.85415368  0.57572648  1
  O  O64  1  0.50522221  0.64252818  0.57496986  1
  O  O65  1  0.13918009  0.49375874  0.57465133  1
  O  O66  1  0.29882691  0.82541378  0.25892215  1
  O  O67  1  0.52545456  0.69980109  0.25930675  1
  O  O68  1  0.17002742  0.47592476  0.25716561  1
  O  O69  1  0.30933178  0.48276847  0.76071864  1
  O  O70  1  0.17069089  0.68834515  0.76078185  1
  O  O71  1  0.50423597  0.81815832  0.75998097  1
loop_
_geom_bond_atom_site_label_1
_geom_bond_atom_site_label_2
_geom_bond_distance
_geom_bond_site_symmetry_2
Na0 O66 2.299423 1_555
Na0 O51 2.399733 1_455
Na0 O52 2.477286 1_455
Na0 O68 2.490687 1_555
Na0 O30 2.583628 1_555
Na0 O15 2.654486 1_455
Na0 O11 2.816704 1_555
Na0 O1 2.846035 1_455
Na1 O71 2.343439 1_555
Na1 O49 2.425533 1_555
Na1 O50 2.445106 1_555
Na1 O69 2.487067 1_555
Na1 O35 2.625590 1_555
Na1 O14 2.724632 1_555
Na1 O6 2.779376 1_555
Na1 O4 2.850031 1_555
Na2 O48 2.359669 1_565
Na2 O70 2.381321 1_555
Na2 O71 2.439467 1_555
Na2 O49 2.542520 1_565
Na2 O34 2.617090 1_555
Na2 O13 2.744117 1_565
Na2 O8 2.761583 1_555
Na2 O3 2.767044 1_565
Na3 O63 2.318979 1_555
Na3 O42 2.328337 1_565
Na3 O44 2.493393 1_555
Na3 O64 2.493698 1_555
Na3 O6 2.583774 1_555
Na3 O27 2.695888 1_555
Na3 O13 2.800465 1_565
Na3 O23 2.936445 1_565
Na4 O47 2.365480 1_565
Na4 O61 2.419737 1_555
Na4 O45 2.457355 1_455
Na4 O62 2.507885 1_555
Na4 O26 2.683810 1_554
Na4 O11 2.689595 1_555
Na4 O18 2.770949 1_565
Na4 O16 2.809895 1_565
Na5 O45 2.338487 1_555
Na5 O60 2.451716 1_555
Na5 O62 2.458630 1_555
Na5 O46 2.536147 1_565
Na5 O9 2.654659 1_555
Na5 O24 2.668513 1_554
Na5 O19 2.719367 1_555
Na5 O17 2.835284 1_555
Na6 O46 2.334350 1_455
Na6 O61 2.446194 1_555
Na6 O47 2.496417 1_555
Na6 O60 2.512345 1_555
Na6 O10 2.667343 1_555
Na6 O25 2.672485 1_554
Na6 O15 2.799970 1_455
Na6 O20 2.810721 1_455
Na7 O59 2.400806 1_555
Na7 O37 2.422143 1_545
Na7 O38 2.431302 1_655
Na7 O57 2.446038 1_555
Na7 O2 2.646889 1_555
Na7 O23 2.658895 1_555
Na7 O28 2.769170 1_655
Na7 O30 2.814865 1_655
Na8 O57 2.423345 1_555
Na8 O58 2.436633 1_555
Na8 O36 2.440639 1_545
Na8 O38 2.446027 1_555
Na8 O21 2.568257 1_555
Na8 O0 2.690935 1_555
Na8 O29 2.747133 1_545
Na8 O31 2.812399 1_545
Na9 O43 2.409233 1_565
Na9 O44 2.492763 1_455
Na9 O36 2.514841 1_555
Na9 O42 2.598972 1_465
Na9 O38 2.605503 1_565
Na9 O37 2.618947 1_455
Na10 O45 2.522147 1_456
Na10 O40 2.533413 1_555
Na10 O41 2.537215 1_455
Na10 O39 2.565885 1_565
Na10 O46 2.592112 1_466
Na10 O47 2.600652 1_566
Na11 O55 2.356157 1_555
Na11 O56 2.427164 1_555
Na11 O54 2.440715 1_555
Na11 O48 2.484084 1_555
Na11 O50 2.637369 1_555
Na11 O49 2.738424 1_555
Na12 O58 2.382770 1_555
Na12 O57 2.465868 1_555
Na12 O59 2.510371 1_555
Na12 O53 2.565536 1_555
Na12 O51 2.574260 1_555
Na12 O52 2.639205 1_555
Na13 O67 2.433963 1_555
Na13 O68 2.454109 1_555
Na13 O66 2.486527 1_555
Na13 O61 2.647606 1_555
Na13 O60 2.670805 1_555
Na13 O62 2.686475 1_555
Na14 O70 2.511693 1_555
Na14 O69 2.519984 1_555
Na14 O71 2.545628 1_555
Na14 O65 2.582997 1_555
Na14 O63 2.607465 1_555
Na14 O64 2.691900 1_555
Hf0 O5 1.944316 1_555
Hf0 O39 2.037211 1_655
Hf0 O41 2.055055 1_545
Hf0 O4 2.061977 1_545
Hf0 O3 2.071274 1_655
Hf0 O40 2.089306 1_645
Hf1 O43 2.007971 1_555
Hf1 O7 2.043590 1_555
Hf1 O6 2.057278 1_445
Hf1 O8 2.057579 1_545
Hf1 O44 2.124668 1_445
Hf1 O42 2.131506 1_455
Hf2 O13 1.968637 1_555
Hf2 O12 2.004670 1_555
Hf2 O48 2.007663 1_555
Hf2 O14 2.071164 1_555
Hf2 O50 2.106368 1_555
Hf2 O49 2.120864 1_555
Hf3 O15 1.996859 1_555
Hf3 O16 2.042078 1_555
Hf3 O17 2.043982 1_555
Hf3 O53 2.079142 1_555
Hf3 O52 2.093025 1_555
Hf3 O51 2.097086 1_555
Hf4 O26 1.976039 1_554
Hf4 O25 1.977735 1_554
Hf4 O24 2.013627 1_554
Hf4 O61 2.051849 1_555
Hf4 O62 2.132636 1_555
Hf4 O60 2.134002 1_555
Hf5 O63 2.008648 1_555
Hf5 O29 2.045597 1_555
Hf5 O28 2.052660 1_555
Hf5 O65 2.056756 1_555
Hf5 O27 2.073043 1_555
Hf5 O64 2.080995 1_555
Al0 O1 1.850139 1_555
Al0 O2 1.876366 1_565
Al0 O0 1.885166 1_665
Al0 O37 1.955721 1_555
Al0 O36 1.974739 1_655
Al0 O38 2.029256 1_665
Al1 O9 1.897412 1_555
Al1 O11 1.915663 1_655
Al1 O10 1.917070 1_665
Al1 O45 1.917577 1_555
Al1 O46 2.070861 1_565
Al1 O47 2.087278 1_665
Al2 O19 1.864111 1_556
Al2 O54 1.931705 1_555
Al2 O55 1.955776 1_555
Al2 O56 1.982451 1_555
Al2 O20 2.000749 1_556
Al2 O18 2.011062 1_556
Al3 O21 1.809595 1_555
Al3 O22 1.841963 1_555
Al3 O23 1.949208 1_555
Al3 O58 2.007909 1_555
Al3 O59 2.026682 1_555
Al3 O57 2.133544 1_555
Al4 O32 1.872708 1_555
Al4 O31 1.901826 1_555
Al4 O67 1.932052 1_555
Al4 O30 2.023929 1_555
Al4 O66 2.033594 1_555
Al4 O68 2.042725 1_555
Al5 O33 1.891153 1_555
Al5 O71 1.918346 1_555
Al5 O35 1.928088 1_555
Al5 O34 1.931735 1_555
Al5 O69 1.980265 1_555
Al5 O70 1.986308 1_555
O0 P0 1.536030 1_545
O1 P1 1.533982 1_555
O2 P2 1.534201 1_655
O3 P3 1.530525 1_555
O4 P4 1.529135 1_655
O5 Si0 1.608283 1_545
O6 Si0 1.650656 1_555
O7 P3 1.551196 1_555
O8 P4 1.566257 1_555
O9 P1 1.560345 1_555
O10 P2 1.556141 1_555
O11 P0 1.566970 1_555
O12 P5 1.542690 1_555
O13 Si1 1.644014 1_555
O14 P6 1.544143 1_555
O15 Si2 1.647912 1_555
O16 P7 1.553459 1_555
O17 P8 1.552189 1_555
O18 P8 1.527502 1_555
O19 Si2 1.618249 1_555
O20 P7 1.525399 1_555
O21 Si1 1.616931 1_555
O22 P6 1.523020 1_555
O23 P5 1.538638 1_555
O24 P9 1.562365 1_555
O25 P10 1.569095 1_555
O26 P11 1.571282 1_555
O27 P12 1.563008 1_555
O28 P13 1.557618 1_555
O29 P14 1.566049 1_555
O30 P14 1.557547 1_555
O31 P12 1.543194 1_555
O32 P13 1.533498 1_555
O33 P10 1.532434 1_555
O34 P11 1.547063 1_555
O35 P9 1.544941 1_555
O36 P14 1.548904 1_555
O37 P12 1.551790 1_555
O38 P13 1.573709 1_555
O39 P10 1.551720 1_555
O40 P11 1.545514 1_555
O41 P9 1.554616 1_555
O42 P5 1.552670 1_555
O43 Si1 1.621365 1_555
O44 P6 1.555867 1_555
O45 Si2 1.652736 1_555
O46 P7 1.553762 1_555
O47 P8 1.554510 1_555
O48 Si0 1.634033 1_545
O49 P3 1.562708 1_555
O50 P4 1.539631 1_655
O51 P1 1.584273 1_555
O52 P2 1.584949 1_655
O53 P0 1.552769 1_545
O54 P9 1.531851 1_555
O55 P10 1.531323 1_655
O56 P11 1.530998 1_545
O57 P12 1.569018 1_545
O58 P13 1.555358 1_555
O59 P14 1.553314 1_655
O60 P8 1.565190 1_555
O61 Si2 1.659699 1_455
O62 P7 1.564422 1_565
O63 Si1 1.648637 1_565
O64 P6 1.552741 1_555
O65 P5 1.531167 1_455
O66 P0 1.562425 1_555
O67 P1 1.540423 1_555
O68 P2 1.559987 1_555
O69 P3 1.527008 1_555
O70 P4 1.529093 1_555
O71 Si0 1.639347 1_555
