# generated using pymatgen
data_Ba2DyMgNbO6
_symmetry_space_group_name_H-M   'P 1'
_cell_length_a   6.35466465
_cell_length_b   6.29754296
_cell_length_c   6.35466513
_cell_angle_alpha   60.29690664
_cell_angle_beta   56.35650422
_cell_angle_gamma   60.29690872
_symmetry_Int_Tables_number   1
_chemical_formula_structural   Ba2DyMgNbO6
_chemical_formula_sum   'Ba2 Dy1 Mg1 Nb1 O6'
_cell_volume   175.09481668
_cell_formula_units_Z   1
loop_
 _symmetry_equiv_pos_site_id
 _symmetry_equiv_pos_as_xyz
  1  'x, y, z'
loop_
 _atom_site_type_symbol
 _atom_site_label
 _atom_site_symmetry_multiplicity
 _atom_site_fract_x
 _atom_site_fract_y
 _atom_site_fract_z
 _atom_site_occupancy
  Ba  Ba0  1  0.68819300  0.81180700  0.68819300  1
  Ba  Ba1  1  0.31180700  0.18819300  0.31180700  1
  Dy  Dy0  1  0.50000000  0.50000000  0.50000000  1
  Mg  Mg0  1  0.00000000  0.50000000  0.00000000  1
  Nb  Nb0  1  0.00000000  0.00000000  0.00000000  1
  O  O0  1  0.22922300  0.73901800  0.77077700  1
  O  O1  1  0.23272100  0.76727900  0.23272100  1
  O  O2  1  0.76727900  0.23272100  0.76727900  1
  O  O3  1  0.22922300  0.26098200  0.77077700  1
  O  O4  1  0.77077700  0.26098200  0.22922300  1
  O  O5  1  0.77077700  0.73901800  0.22922300  1
loop_
_geom_bond_atom_site_label_1
_geom_bond_atom_site_label_2
_geom_bond_distance
_geom_bond_site_symmetry_2
Ba0 Mg0 2.889046 1_656
Ba0 O0 2.895277 1_555
Ba0 O4 2.895277 1_565
Ba0 O3 2.895277 1_565
Ba0 O5 2.895277 1_555
Ba0 O1 3.029005 1_655
Ba0 O1 3.029005 1_556
Ba0 O2 3.232911 1_555
Ba0 O2 3.232911 1_565
Ba1 Mg0 2.889046 1_555
Ba1 O4 2.895277 1_555
Ba1 O0 2.895277 1_545
Ba1 O5 2.895277 1_545
Ba1 O3 2.895277 1_555
Ba1 O2 3.029005 1_455
Ba1 O2 3.029005 1_554
Ba1 O1 3.232911 1_555
Ba1 O1 3.232911 1_545
Dy0 O5 2.215084 1_555
Dy0 O3 2.215084 1_555
Dy0 O0 2.215084 1_555
Dy0 O4 2.215084 1_555
Dy0 O2 2.476472 1_555
Dy0 O1 2.476472 1_555
Mg0 O0 2.039176 1_554
Mg0 O4 2.039176 1_455
Mg0 O5 2.039176 1_455
Mg0 O3 2.039176 1_554
Nb0 O3 2.143309 1_554
Nb0 O5 2.143309 1_445
Nb0 O4 2.143309 1_455
Nb0 O0 2.143309 1_544
Nb0 O1 2.156275 1_545
Nb0 O2 2.156275 1_454
