# generated using pymatgen
data_H6CSN4
_symmetry_space_group_name_H-M   'P 1'
_cell_length_a   15.71238600
_cell_length_b   4.77395700
_cell_length_c   7.34638594
_cell_angle_alpha   57.96184843
_cell_angle_beta   90.00000000
_cell_angle_gamma   90.00000000
_symmetry_Int_Tables_number   1
_chemical_formula_structural   H6CSN4
_chemical_formula_sum   'H24 C4 S4 N16'
_cell_volume   467.12598878
_cell_formula_units_Z   4
loop_
 _symmetry_equiv_pos_site_id
 _symmetry_equiv_pos_as_xyz
  1  'x, y, z'
loop_
 _atom_site_type_symbol
 _atom_site_label
 _atom_site_symmetry_multiplicity
 _atom_site_fract_x
 _atom_site_fract_y
 _atom_site_fract_z
 _atom_site_occupancy
  H  H0  1  0.60037900  0.52100700  0.54991500  1
  H  H1  1  0.10037900  0.47899300  0.95008500  1
  H  H2  1  0.39962100  0.47899300  0.45008500  1
  H  H3  1  0.89962100  0.52100700  0.04991500  1
  H  H4  1  0.54388400  0.16961300  0.66963800  1
  H  H5  1  0.04388400  0.83038700  0.83036200  1
  H  H6  1  0.45611600  0.83038700  0.33036200  1
  H  H7  1  0.95611600  0.16961300  0.16963800  1
  H  H8  1  0.52441700  0.44764800  0.86224500  1
  H  H9  1  0.02441700  0.55235200  0.63775500  1
  H  H10  1  0.47558300  0.55235200  0.13775500  1
  H  H11  1  0.97558300  0.44764800  0.36224500  1
  H  H12  1  0.72705800  0.55627400  0.28331000  1
  H  H13  1  0.79554600  0.98293000  0.40248600  1
  H  H14  1  0.27294200  0.44372600  0.71669000  1
  H  H15  1  0.77294200  0.55627400  0.78331000  1
  H  H16  1  0.80558700  0.82643700  0.16198500  1
  H  H17  1  0.30558700  0.17356300  0.33801500  1
  H  H18  1  0.19441300  0.17356300  0.83801500  1
  H  H19  1  0.69441300  0.82643700  0.66198500  1
  H  H20  1  0.70445400  0.98293000  0.90248600  1
  H  H21  1  0.20445400  0.01707000  0.59751400  1
  H  H22  1  0.29554600  0.01707000  0.09751400  1
  H  H23  1  0.22705800  0.44372600  0.21669000  1
  C  C0  1  0.87514400  0.15619100  0.54427400  1
  C  C1  1  0.12485600  0.84380900  0.45572600  1
  C  C2  1  0.37514400  0.84380900  0.95572600  1
  C  C3  1  0.62485600  0.15619100  0.04427400  1
  S  S0  1  0.59442300  0.16176200  0.26574600  1
  S  S1  1  0.09442300  0.83823800  0.23425400  1
  S  S2  1  0.40557700  0.83823800  0.73425400  1
  S  S3  1  0.90557700  0.16176200  0.76574600  1
  N  N0  1  0.07827900  0.67551300  0.63797900  1
  N  N1  1  0.09492200  0.71040000  0.81345500  1
  N  N2  1  0.40507800  0.71040000  0.31345500  1
  N  N3  1  0.90507800  0.28960000  0.18654500  1
  N  N4  1  0.57827900  0.32448700  0.86202100  1
  N  N5  1  0.59492200  0.28960000  0.68654500  1
  N  N6  1  0.42172100  0.67551300  0.13797900  1
  N  N7  1  0.92172100  0.32448700  0.36202100  1
  N  N8  1  0.80652800  0.99537900  0.53677000  1
  N  N9  1  0.24453900  0.20092800  0.28178400  1
  N  N10  1  0.74453900  0.79907200  0.21821600  1
  N  N11  1  0.75546100  0.79907200  0.71821600  1
  N  N12  1  0.69347200  0.99537900  0.03677000  1
  N  N13  1  0.19347200  0.00462100  0.46323000  1
  N  N14  1  0.30652800  0.00462100  0.96323000  1
  N  N15  1  0.25546100  0.20092800  0.78178400  1
loop_
_geom_bond_atom_site_label_1
_geom_bond_atom_site_label_2
_geom_bond_distance
_geom_bond_site_symmetry_2
H0 N5 1.028981 1_555
H1 N1 1.028981 1_555
H2 N2 1.028981 1_555
H3 N3 1.028981 1_555
H4 N5 1.030590 1_555
H5 N1 1.030590 1_555
H6 N2 1.030590 1_555
H7 N3 1.030590 1_555
H8 N4 1.030998 1_555
H9 N0 1.030998 1_555
H10 N6 1.030998 1_555
H11 N7 1.030998 1_555
H12 N10 1.029353 1_555
H13 N8 1.033778 1_555
H14 N15 1.029353 1_555
H15 N11 1.029353 1_555
H16 N10 1.024959 1_555
H17 N9 1.024959 1_555
H18 N15 1.024959 1_555
H19 N11 1.024959 1_555
H20 N12 1.033778 1_556
H21 N13 1.033778 1_555
H22 N14 1.033778 1_554
H23 N9 1.029353 1_555
C0 N8 1.341516 1_545
C0 N7 1.353678 1_555
C0 S3 1.709520 1_555
C1 N13 1.341516 1_565
C1 N0 1.353678 1_555
C1 S1 1.709520 1_555
C2 N14 1.341516 1_565
C2 N6 1.353678 1_556
C2 S2 1.709520 1_555
C3 N12 1.341516 1_545
C3 N4 1.353678 1_554
C3 S0 1.709520 1_555
N0 N1 1.409159 1_555
N2 N6 1.409159 1_555
N3 N7 1.409159 1_555
N4 N5 1.409159 1_555
