# generated using pymatgen
data_Ti2InNi2
_symmetry_space_group_name_H-M   'P 1'
_cell_length_a   6.89419070
_cell_length_b   6.89419070
_cell_length_c   6.20495431
_cell_angle_alpha   90.00000000
_cell_angle_beta   90.00000000
_cell_angle_gamma   90.00000000
_symmetry_Int_Tables_number   1
_chemical_formula_structural   Ti2InNi2
_chemical_formula_sum   'Ti8 In4 Ni8'
_cell_volume   294.92064322
_cell_formula_units_Z   4
loop_
 _symmetry_equiv_pos_site_id
 _symmetry_equiv_pos_as_xyz
  1  'x, y, z'
loop_
 _atom_site_type_symbol
 _atom_site_label
 _atom_site_symmetry_multiplicity
 _atom_site_fract_x
 _atom_site_fract_y
 _atom_site_fract_z
 _atom_site_occupancy
  Ti  Ti0  1  0.17630553  0.17630553  0.00000000  1
  Ti  Ti1  1  0.67630553  0.32369447  0.50000000  1
  Ti  Ti2  1  0.32369447  0.67630553  0.50000000  1
  Ti  Ti3  1  0.82369447  0.82369447  0.00000000  1
  Ti  Ti4  1  0.65174220  0.34825780  0.00000000  1
  Ti  Ti5  1  0.84825780  0.84825780  0.50000000  1
  Ti  Ti6  1  0.15174220  0.15174220  0.50000000  1
  Ti  Ti7  1  0.34825780  0.65174220  0.00000000  1
  In  In0  1  0.50000000  0.00000000  0.25000000  1
  In  In1  1  0.50000000  0.00000000  0.75000000  1
  In  In2  1  0.00000000  0.50000000  0.25000000  1
  In  In3  1  0.00000000  0.50000000  0.75000000  1
  Ni  Ni0  1  0.37361245  0.37361245  0.28053205  1
  Ni  Ni1  1  0.87361245  0.12638755  0.78053205  1
  Ni  Ni2  1  0.12638755  0.87361245  0.78053205  1
  Ni  Ni3  1  0.62638755  0.62638755  0.28053205  1
  Ni  Ni4  1  0.12638755  0.87361245  0.21946795  1
  Ni  Ni5  1  0.87361245  0.12638755  0.21946795  1
  Ni  Ni6  1  0.37361245  0.37361245  0.71946795  1
  Ni  Ni7  1  0.62638755  0.62638755  0.71946795  1
loop_
_geom_bond_atom_site_label_1
_geom_bond_atom_site_label_2
_geom_bond_distance
_geom_bond_site_symmetry_2
In0 Ni5 2.725737 1_555
In0 Ni0 2.725737 1_555
In0 Ni3 2.725737 1_545
In0 Ni4 2.725737 1_545
In0 Ti2 2.977219 1_545
In0 Ti0 2.977219 1_555
In0 Ti3 2.977219 1_545
In0 Ti1 2.977219 1_555
In0 Ti5 3.043902 1_545
In0 Ti6 3.043902 1_555
In0 Ti7 3.043902 1_545
In0 Ti4 3.043902 1_555
In0 In1 3.102477 1_554
In0 In1 3.102477 1_555
In1 Ni2 2.725737 1_545
In1 Ni6 2.725737 1_555
In1 Ni1 2.725737 1_555
In1 Ni7 2.725737 1_545
In1 Ti2 2.977219 1_545
In1 Ti1 2.977219 1_555
In1 Ti3 2.977219 1_546
In1 Ti0 2.977219 1_556
In1 Ti5 3.043902 1_545
In1 Ti6 3.043902 1_555
In1 Ti7 3.043902 1_546
In1 Ti4 3.043902 1_556
In2 Ni0 2.725737 1_555
In2 Ni5 2.725737 1_455
In2 Ni4 2.725737 1_555
In2 Ni3 2.725737 1_455
In2 Ti1 2.977219 1_455
In2 Ti0 2.977219 1_555
In2 Ti2 2.977219 1_555
In2 Ti3 2.977219 1_455
In2 Ti6 3.043902 1_555
In2 Ti5 3.043902 1_455
In2 Ti4 3.043902 1_455
In2 Ti7 3.043902 1_555
In2 In3 3.102477 1_555
In2 In3 3.102477 1_554
In3 Ni2 2.725737 1_555
In3 Ni7 2.725737 1_455
In3 Ni1 2.725737 1_455
In3 Ni6 2.725737 1_555
In3 Ti1 2.977219 1_455
In3 Ti3 2.977219 1_456
In3 Ti2 2.977219 1_555
In3 Ti0 2.977219 1_556
In3 Ti6 3.043902 1_555
In3 Ti5 3.043902 1_455
In3 Ti4 3.043902 1_456
In3 Ti7 3.043902 1_556
Ni0 Ni3 2.464521 1_555
Ni0 Ti2 2.515499 1_555
Ni0 Ti1 2.515499 1_555
Ni0 Ti6 2.556153 1_555
Ni0 Ti0 2.594354 1_555
Ni0 Ti7 2.595627 1_555
Ni0 Ti4 2.595627 1_555
Ni0 Ni6 2.723577 1_555
Ni1 Ni2 2.464521 1_645
Ni1 Ti0 2.515499 1_656
Ni1 Ti3 2.515499 1_546
Ni1 Ti4 2.556153 1_556
Ni1 Ti1 2.594354 1_555
Ni1 Ti6 2.595627 1_655
Ni1 Ti5 2.595627 1_545
Ni1 Ni5 2.723577 1_556
Ni2 Ti3 2.515499 1_456
Ni2 Ti0 2.515499 1_566
Ni2 Ti7 2.556153 1_556
Ni2 Ti2 2.594354 1_555
Ni2 Ti6 2.595627 1_565
Ni2 Ti5 2.595627 1_455
Ni2 Ni4 2.723577 1_556
Ni3 Ti2 2.515499 1_555
Ni3 Ti1 2.515499 1_555
Ni3 Ti5 2.556153 1_555
Ni3 Ti3 2.594354 1_555
Ni3 Ti7 2.595627 1_555
Ni3 Ti4 2.595627 1_555
Ni3 Ni7 2.723577 1_555
Ni4 Ni5 2.464521 1_465
Ni4 Ti3 2.515499 1_455
Ni4 Ti0 2.515499 1_565
Ni4 Ti7 2.556153 1_555
Ni4 Ti2 2.594354 1_555
Ni4 Ti6 2.595627 1_565
Ni4 Ti5 2.595627 1_455
Ni5 Ti3 2.515499 1_545
Ni5 Ti0 2.515499 1_655
Ni5 Ti4 2.556153 1_555
Ni5 Ti1 2.594354 1_555
Ni5 Ti6 2.595627 1_655
Ni5 Ti5 2.595627 1_545
Ni6 Ni7 2.464521 1_555
Ni6 Ti2 2.515499 1_555
Ni6 Ti1 2.515499 1_555
Ni6 Ti6 2.556153 1_555
Ni6 Ti0 2.594354 1_556
Ni6 Ti7 2.595627 1_556
Ni6 Ti4 2.595627 1_556
Ni7 Ti2 2.515499 1_555
Ni7 Ti1 2.515499 1_555
Ni7 Ti5 2.556153 1_555
Ni7 Ti3 2.594354 1_556
Ni7 Ti7 2.595627 1_556
Ni7 Ti4 2.595627 1_556
