# generated using pymatgen
data_SmMgIn
_symmetry_space_group_name_H-M   'P 1'
_cell_length_a   7.61782072
_cell_length_b   7.61782072
_cell_length_c   4.72453552
_cell_angle_alpha   90.00000000
_cell_angle_beta   90.00000000
_cell_angle_gamma   120.00000172
_symmetry_Int_Tables_number   1
_chemical_formula_structural   SmMgIn
_chemical_formula_sum   'Sm3 Mg3 In3'
_cell_volume   237.43855339
_cell_formula_units_Z   3
loop_
 _symmetry_equiv_pos_site_id
 _symmetry_equiv_pos_as_xyz
  1  'x, y, z'
loop_
 _atom_site_type_symbol
 _atom_site_label
 _atom_site_symmetry_multiplicity
 _atom_site_fract_x
 _atom_site_fract_y
 _atom_site_fract_z
 _atom_site_occupancy
  Sm  Sm0  1  -0.00000000  0.56838708  0.00000000  1
  Sm  Sm1  1  0.43161292  0.43161292  0.00000000  1
  Sm  Sm2  1  0.56838708  -0.00000000  -0.00000000  1
  Mg  Mg0  1  0.75964241  0.75964241  0.50000000  1
  Mg  Mg1  1  0.24035759  0.00000000  0.50000000  1
  Mg  Mg2  1  0.00000000  0.24035759  0.50000000  1
  In  In0  1  0.66666700  0.33333300  0.50000000  1
  In  In1  1  0.00000000  0.00000000  0.00000000  1
  In  In2  1  0.33333300  0.66666700  0.50000000  1
loop_
_geom_bond_atom_site_label_1
_geom_bond_atom_site_label_2
_geom_bond_distance
_geom_bond_site_symmetry_2
Sm0 Sm2 3.914332 1_455
Sm0 Sm2 3.914332 1_565
Sm0 Sm1 3.914332 1_455
Sm0 Sm1 3.914332 1_555
Sm1 Sm2 3.914332 1_565
Sm1 Sm2 3.914332 1_555
Mg0 Mg1 3.171387 1_665
Mg0 Mg2 3.171387 1_665
Mg0 Sm1 3.438700 1_556
Mg0 Sm1 3.438700 1_555
Mg0 Sm0 3.704490 1_656
Mg0 Sm0 3.704490 1_655
Mg0 Sm2 3.704490 1_565
Mg0 Sm2 3.704490 1_566
Mg1 Mg2 3.171387 1_555
Mg1 Sm2 3.438700 1_555
Mg1 Sm2 3.438700 1_556
Mg1 Sm0 3.704490 1_545
Mg1 Sm0 3.704490 1_546
Mg1 Sm1 3.704490 1_556
Mg1 Sm1 3.704490 1_555
Mg2 Sm0 3.438700 1_556
Mg2 Sm0 3.438700 1_555
Mg2 Sm2 3.704490 1_456
Mg2 Sm2 3.704490 1_455
Mg2 Sm1 3.704490 1_555
Mg2 Sm1 3.704490 1_556
In0 Mg2 2.957707 1_655
In0 Mg1 2.957712 1_555
In0 Mg0 2.957715 1_555
In0 Sm2 3.269194 1_555
In0 Sm2 3.269194 1_556
In0 Sm0 3.269195 1_656
In0 Sm0 3.269195 1_655
In0 Sm1 3.269199 1_555
In0 Sm1 3.269199 1_556
In1 Mg0 2.988791 1_444
In1 Mg0 2.988791 1_445
In1 Mg1 2.988791 1_555
In1 Mg1 2.988791 1_554
In1 Mg2 2.988791 1_555
In1 Mg2 2.988791 1_554
In1 Sm1 3.287950 1_555
In1 Sm0 3.287950 1_545
In1 Sm2 3.287950 1_455
In2 Mg1 2.957707 1_565
In2 Mg2 2.957712 1_555
In2 Mg0 2.957715 1_555
In2 Sm0 3.269194 1_556
In2 Sm0 3.269194 1_555
In2 Sm2 3.269195 1_566
In2 Sm2 3.269195 1_565
In2 Sm1 3.269199 1_555
In2 Sm1 3.269199 1_556
