# generated using pymatgen
data_Na3MgMo(OF)3
_symmetry_space_group_name_H-M   'P 1'
_cell_length_a   6.22591598
_cell_length_b   6.22591606
_cell_length_c   6.22591635
_cell_angle_alpha   53.95148037
_cell_angle_beta   53.95148156
_cell_angle_gamma   53.95147768
_symmetry_Int_Tables_number   1
_chemical_formula_structural   Na3MgMo(OF)3
_chemical_formula_sum   'Na3 Mg1 Mo1 O3 F3'
_cell_volume   146.53264984
_cell_formula_units_Z   1
loop_
 _symmetry_equiv_pos_site_id
 _symmetry_equiv_pos_as_xyz
  1  'x, y, z'
loop_
 _atom_site_type_symbol
 _atom_site_label
 _atom_site_symmetry_multiplicity
 _atom_site_fract_x
 _atom_site_fract_y
 _atom_site_fract_z
 _atom_site_occupancy
  Na  Na0  1  0.76158219  0.76158219  0.76158019  1
  Na  Na1  1  0.49178861  0.49178861  0.49178861  1
  Na  Na2  1  0.32191632  0.32191632  0.32191732  1
  Mg  Mg0  1  0.14698534  0.14698534  0.14698534  1
  Mo  Mo0  1  0.98290114  0.98290114  0.98290114  1
  O  O0  1  0.31695221  0.76764813  0.08741373  1
  O  O1  1  0.08741373  0.31695221  0.76764713  1
  O  O2  1  0.76764713  0.08741373  0.31695321  1
  F  F0  1  0.55085023  0.16600013  0.94683098  1
  F  F1  1  0.16600013  0.94683098  0.55084923  1
  F  F2  1  0.94682998  0.55084923  0.16600113  1
loop_
_geom_bond_atom_site_label_1
_geom_bond_atom_site_label_2
_geom_bond_distance
_geom_bond_site_symmetry_2
Na0 O2 2.266616 1_565
Na0 O1 2.266626 1_655
Na0 O0 2.266630 1_556
Na1 O2 2.531593 1_555
Na1 O0 2.531596 1_555
Na1 O1 2.531597 1_555
Na2 O1 2.239926 1_555
Na2 O2 2.239931 1_555
Na2 O0 2.239936 1_555
Mg0 O0 2.112510 1_545
Mg0 O2 2.112515 1_455
Mg0 O1 2.112516 1_554
Mo0 O1 1.957267 1_665
Mo0 O0 1.957267 1_656
Mo0 O2 1.957272 1_566
F0 Mg0 2.092415 1_556
F0 Mo0 2.320834 1_545
F0 Na2 2.355718 1_556
F0 Na1 2.420882 1_555
F0 Na0 2.672112 1_545
F1 Mg0 2.092409 1_565
F1 Mo0 2.320840 1_455
F1 Na2 2.355715 1_565
F1 Na1 2.420880 1_555
F1 Na0 2.672105 1_455
F2 Mg0 2.092411 1_655
F2 Mo0 2.320841 1_554
F2 Na2 2.355719 1_655
F2 Na1 2.420875 1_555
F2 Na0 2.672114 1_554
