# generated using pymatgen
data_Na4Y2Zn2SiS5O24
_symmetry_space_group_name_H-M   'P 1'
_cell_length_a   9.16439527
_cell_length_b   9.10423991
_cell_length_c   23.27776594
_cell_angle_alpha   89.75896168
_cell_angle_beta   89.76770329
_cell_angle_gamma   120.18356853
_symmetry_Int_Tables_number   1
_chemical_formula_structural   Na4Y2Zn2SiS5O24
_chemical_formula_sum   'Na12 Y6 Zn6 Si3 S15 O72'
_cell_volume   1678.79711699
_cell_formula_units_Z   3
loop_
 _symmetry_equiv_pos_site_id
 _symmetry_equiv_pos_as_xyz
  1  'x, y, z'
loop_
 _atom_site_type_symbol
 _atom_site_label
 _atom_site_symmetry_multiplicity
 _atom_site_fract_x
 _atom_site_fract_y
 _atom_site_fract_z
 _atom_site_occupancy
  Na  Na0  1  0.99107852  0.62597086  0.24155469  1
  Na  Na1  1  0.98911243  0.34759811  0.76251253  1
  Na  Na2  1  0.37126993  0.99174940  0.75349003  1
  Na  Na3  1  0.65460512  0.97456538  0.59106813  1
  Na  Na4  1  0.67710568  0.68484329  0.07717700  1
  Na  Na5  1  0.33883857  0.03744473  0.42052453  1
  Na  Na6  1  0.01773892  0.00205499  0.49710129  1
  Na  Na7  1  0.01541798  0.99245506  0.00398783  1
  Na  Na8  1  0.66703665  0.32863530  0.84526732  1
  Na  Na9  1  0.66668872  0.33312779  0.33052642  1
  Na  Na10  1  0.31513679  0.66300111  0.16772763  1
  Na  Na11  1  0.35604031  0.68670446  0.67092104  1
  Y  Y0  1  0.98566156  0.99505869  0.85385760  1
  Y  Y1  1  0.00222641  0.99611751  0.64707484  1
  Y  Y2  1  0.00606336  0.00371557  0.15160907  1
  Y  Y3  1  0.65821333  0.32713865  0.68154925  1
  Y  Y4  1  0.31498913  0.66650399  0.02061365  1
  Y  Y5  1  0.32837142  0.66650164  0.51277705  1
  Zn  Zn0  1  0.99239203  0.00300207  0.34560940  1
  Zn  Zn1  1  0.67314768  0.33067308  0.17306765  1
  Zn  Zn2  1  0.68294776  0.34682350  0.98925227  1
  Zn  Zn3  1  0.65450428  0.33131719  0.48607190  1
  Zn  Zn4  1  0.34218198  0.66269218  0.31875139  1
  Zn  Zn5  1  0.37167058  0.69311573  0.82243201  1
  Si  Si0  1  0.69229876  0.99366402  0.74703481  1
  Si  Si1  1  0.36401956  0.03284762  0.57745428  1
  Si  Si2  1  0.95377698  0.62419368  0.08834972  1
  S  S0  1  0.30265677  0.99855494  0.25557318  1
  S  S1  1  0.69820976  0.70213404  0.25399687  1
  S  S2  1  0.00285163  0.30430809  0.25498880  1
  S  S3  1  0.29550678  0.30420269  0.75208913  1
  S  S4  1  0.00653719  0.69825442  0.75260407  1
  S  S5  1  0.95954658  0.33401960  0.58076444  1
  S  S6  1  0.66816608  0.63070654  0.57810820  1
  S  S7  1  0.66670516  0.04239223  0.08328628  1
  S  S8  1  0.38226222  0.33209081  0.08249745  1
  S  S9  1  0.62260227  0.65044356  0.91934537  1
  S  S10  1  0.03374989  0.37640610  0.91277646  1
  S  S11  1  0.34461287  0.97706344  0.91436788  1
  S  S12  1  0.63683203  0.96674428  0.41270320  1
  S  S13  1  0.33146150  0.36210738  0.41202340  1
  S  S14  1  0.02713630  0.66622977  0.41152602  1
  O  O0  1  0.22430233  0.02188508  0.30843375  1
  O  O1  1  0.81464568  0.79491462  0.30222427  1
  O  O2  1  0.98917251  0.20111681  0.30623403  1
  O  O3  1  0.21749412  0.18866488  0.80231365  1
  O  O4  1  0.98974087  0.78384071  0.80369766  1
  O  O5  1  0.82811756  0.02882898  0.79811225  1
  O  O6  1  0.77053081  0.97672241  0.68552041  1
  O  O7  1  0.19369728  0.22085693  0.69993633  1
  O  O8  1  0.03184921  0.80490727  0.70065107  1
  O  O9  1  0.77398111  0.79964282  0.19896980  1
  O  O10  1  0.02194099  0.22426778  0.20203173  1
  O  O11  1  0.18882333  0.97162854  0.20525861  1
  O  O12  1  0.89015513  0.35585140  0.63623513  1
  O  O13  1  0.47128934  0.11833785  0.63716233  1
  O  O14  1  0.65773354  0.54159882  0.63277622  1
  O  O15  1  0.87573894  0.52917701  0.15020698  1
  O  O16  1  0.63828946  0.11408436  0.13611177  1
  O  O17  1  0.47831661  0.34796851  0.13525884  1
  O  O18  1  0.45492868  0.30531165  0.02986607  1
  O  O19  1  0.83116343  0.53685234  0.03355648  1
  O  O20  1  0.67915774  0.13702569  0.03026884  1
  O  O21  1  0.45949665  0.13949719  0.51911621  1
  O  O22  1  0.68863356  0.54719677  0.52777127  1
  O  O23  1  0.85453749  0.32309487  0.53174761  1
  O  O24  1  0.54365646  0.67006501  0.97225115  1
  O  O25  1  0.13645553  0.46548979  0.96352839  1
  O  O26  1  0.32348926  0.86688788  0.96446879  1
  O  O27  1  0.56395463  0.87092649  0.46818444  1
  O  O28  1  0.31224119  0.43982091  0.46555359  1
  O  O29  1  0.14007792  0.69414317  0.46233156  1
  O  O30  1  0.10688456  0.64251566  0.35937210  1
  O  O31  1  0.51741519  0.87222423  0.36533971  1
  O  O32  1  0.34654401  0.46789793  0.36153215  1
  O  O33  1  0.11875198  0.47031741  0.85882658  1
  O  O34  1  0.35558984  0.89564605  0.85992034  1
  O  O35  1  0.52439070  0.64091747  0.86735543  1
  O  O36  1  0.02125912  0.82801052  0.40808154  1
  O  O37  1  0.80517197  0.98314658  0.40604464  1
  O  O38  1  0.18008580  0.18646393  0.40844361  1
  O  O39  1  0.01969651  0.20488692  0.91340479  1
  O  O40  1  0.19059292  0.99407947  0.91284948  1
  O  O41  1  0.79526959  0.80620630  0.91570412  1
  O  O42  1  0.96268662  0.17137288  0.58337328  1
  O  O43  1  0.17549933  0.00979820  0.58170485  1
  O  O44  1  0.81462803  0.80816187  0.58031396  1
  O  O45  1  0.96965008  0.81566738  0.08914284  1
  O  O46  1  0.82260006  0.02825058  0.08799865  1
  O  O47  1  0.20408394  0.18973387  0.08769789  1
  O  O48  1  0.67574658  0.16856148  0.74902382  1
  O  O49  1  0.46740422  0.32803805  0.74628350  1
  O  O50  1  0.85241151  0.52851722  0.74773619  1
  O  O51  1  0.68461993  0.53293053  0.25091318  1
  O  O52  1  0.84943773  0.32086031  0.25185450  1
  O  O53  1  0.47199073  0.14829940  0.24595732  1
  O  O54  1  0.63795685  0.49690417  0.92087909  1
  O  O55  1  0.86310331  0.35612461  0.91716704  1
  O  O56  1  0.49818708  0.14470102  0.92018243  1
  O  O57  1  0.64845344  0.13607075  0.41600314  1
  O  O58  1  0.48555002  0.34508101  0.41489025  1
  O  O59  1  0.85772832  0.51555732  0.42136613  1
  O  O60  1  0.37836110  0.49581241  0.07847775  1
  O  O61  1  0.14361465  0.64793559  0.08416178  1
  O  O62  1  0.52313455  0.86163850  0.07957132  1
  O  O63  1  0.36108634  0.84848709  0.57738674  1
  O  O64  1  0.51326951  0.64541670  0.57543067  1
  O  O65  1  0.13483083  0.47752851  0.57647509  1
  O  O66  1  0.30757610  0.83600523  0.25887339  1
  O  O67  1  0.53000229  0.68770549  0.25990346  1
  O  O68  1  0.15521843  0.48009007  0.25791475  1
  O  O69  1  0.29946842  0.46691235  0.75900369  1
  O  O70  1  0.15562974  0.67615221  0.75662700  1
  O  O71  1  0.50140222  0.83022573  0.75635150  1
loop_
_geom_bond_atom_site_label_1
_geom_bond_atom_site_label_2
_geom_bond_distance
_geom_bond_site_symmetry_2
Na0 O15 2.347905 1_555
Na0 O52 2.413451 1_555
Na0 O68 2.486165 1_655
Na0 O51 2.500800 1_555
Na0 O66 2.582799 1_655
Na0 O11 2.851650 1_655
Na0 O30 2.921782 1_655
Na1 O69 2.483328 1_655
Na1 O48 2.511451 1_555
Na1 O33 2.528670 1_655
Na1 O50 2.544498 1_555
Na1 O70 2.588409 1_655
Na1 O5 2.636338 1_555
Na2 O71 2.313549 1_555
Na2 O48 2.422334 1_565
Na2 O70 2.540439 1_555
Na2 O34 2.603160 1_555
Na2 O49 2.731339 1_565
Na2 O13 2.896936 1_565
Na2 O8 2.968195 1_555
Na2 O3 3.006046 1_565
Na3 O63 2.357953 1_555
Na3 O6 2.441596 1_555
Na3 O42 2.473927 1_565
Na3 O44 2.596681 1_555
Na3 O64 2.626813 1_555
Na3 O13 2.809857 1_565
Na4 O45 2.341335 1_555
Na4 O60 2.391518 1_555
Na4 O19 2.598526 1_555
Na4 O62 2.620851 1_555
Na4 O24 2.709395 1_554
Na4 O46 2.726464 1_565
Na5 O58 2.424513 1_555
Na5 O38 2.453829 1_555
Na5 O57 2.510625 1_555
Na5 O21 2.521586 1_555
Na5 O36 2.573210 1_545
Na5 O0 2.793866 1_555
Na5 O29 2.875598 1_545
Na5 O31 3.010919 1_545
Na6 O43 2.428061 1_555
Na6 O38 2.593373 1_555
Na6 O36 2.623783 1_545
Na6 O44 2.640232 1_445
Na6 O42 2.731961 1_455
Na6 O37 2.831351 1_445
Na7 O45 2.446067 1_455
Na7 O47 2.635612 1_565
Na7 O40 2.650742 1_554
Na7 O46 2.758517 1_465
Na7 O41 2.791383 1_454
Na7 O39 2.841979 1_564
Na8 O56 2.363820 1_555
Na8 O55 2.380781 1_555
Na8 O54 2.438277 1_555
Na8 O48 2.700431 1_555
Na8 O50 2.859591 1_555
Na8 O49 2.946252 1_555
Na9 O52 2.517141 1_555
Na9 O51 2.537511 1_555
Na9 O58 2.604048 1_555
Na9 O57 2.621314 1_555
Na9 O53 2.632070 1_555
Na9 O59 2.725920 1_555
Na10 O61 2.466540 1_555
Na10 O68 2.611479 1_555
Na10 O66 2.669044 1_555
Na10 O62 2.754223 1_555
Na10 O60 2.805784 1_555
Na10 O67 2.850399 1_555
Na11 O71 2.393670 1_555
Na11 O63 2.610711 1_555
Na11 O70 2.674683 1_555
Na11 O69 2.718571 1_555
Na11 O64 2.772014 1_555
Na11 O65 2.959576 1_555
O0 S0 1.491044 1_545
O0 Zn0 2.216263 1_455
O1 S1 1.491234 1_555
O1 Zn0 2.046642 1_565
O2 S2 1.480613 1_655
O2 Zn0 2.033241 1_555
O3 S3 1.486977 1_555
O3 Y0 2.292660 1_445
O4 S4 1.473873 1_655
O4 Y0 2.270108 1_555
O5 Si0 1.637045 1_545
O5 Y0 2.078727 1_545
O6 Si0 1.641013 1_555
O6 Y1 2.224171 1_655
O7 S3 1.491690 1_555
O7 Y1 2.282125 1_545
O8 S4 1.490141 1_555
O8 Y1 2.262565 1_555
O9 S1 1.508097 1_555
O9 Y2 2.276225 1_665
O10 S2 1.488361 1_555
O10 Y2 2.271152 1_555
O11 S0 1.508408 1_555
O11 Y2 2.226222 1_565
O12 S5 1.494590 1_555
O12 Y3 2.262727 1_555
O13 Si1 1.659740 1_555
O13 Y3 2.090969 1_555
O14 S6 1.482902 1_555
O14 Y3 2.256381 1_555
O15 Si2 1.640785 1_555
O15 Zn1 1.899015 1_555
O16 S7 1.476810 1_555
O16 Zn1 2.028166 1_555
O17 S8 1.478679 1_555
O17 Zn1 2.069228 1_555
O18 S8 1.470731 1_555
O18 Zn2 2.142457 1_554
O19 Si2 1.625868 1_555
O19 Zn2 1.888147 1_554
O20 S7 1.472900 1_555
O20 Zn2 2.116310 1_554
O21 Si1 1.636296 1_555
O21 Zn3 1.916916 1_555
O22 S6 1.461265 1_555
O22 Zn3 2.074433 1_555
O23 S5 1.466799 1_555
O23 Zn3 2.156327 1_555
O24 S9 1.482093 1_555
O24 Y4 2.360548 1_556
O25 S10 1.479480 1_555
O25 Y4 2.195255 1_556
O26 S11 1.482159 1_555
O26 Y4 2.208748 1_556
O27 S12 1.507530 1_555
O27 Y5 2.264427 1_555
O28 S13 1.488369 1_555
O28 Y5 2.280997 1_555
O29 S14 1.510791 1_555
O29 Y5 2.206921 1_555
O30 S14 1.486029 1_555
O30 Zn4 2.271874 1_555
O31 S12 1.491484 1_555
O31 Zn4 2.084499 1_555
O32 S13 1.477642 1_555
O32 Zn4 2.048215 1_555
O33 S10 1.492737 1_555
O33 Zn5 2.333793 1_555
O34 S11 1.499253 1_555
O34 Zn5 2.113971 1_555
O35 S9 1.487764 1_555
O35 Zn5 1.988643 1_555
O36 S14 1.502514 1_555
O36 Zn0 2.265023 1_465
O37 S12 1.480731 1_555
O37 Zn0 2.149883 1_565
O38 S13 1.503315 1_555
O38 Zn0 2.244967 1_455
O39 S10 1.500936 1_555
O39 Y0 2.257125 1_445
O40 S11 1.495934 1_555
O40 Y0 2.334642 1_455
O41 S9 1.504536 1_555
O41 Y0 2.239507 1_555
O42 S5 1.496434 1_555
O42 Y1 2.332755 1_645
O43 Si1 1.634798 1_555
O43 Y1 2.152319 1_545
O44 S6 1.495027 1_555
O44 Y1 2.320511 1_655
O45 Si2 1.675002 1_555
O45 Y2 2.146428 1_665
O46 S7 1.501951 1_555
O46 Y2 2.337587 1_655
O47 S8 1.493245 1_555
O47 Y2 2.289366 1_555
O48 Si0 1.674527 1_545
O48 Y3 2.189374 1_555
O49 S3 1.483683 1_555
O49 Y3 2.306867 1_555
O50 S4 1.484550 1_655
O50 Y3 2.380634 1_555
O51 S1 1.483844 1_555
O51 Zn1 2.553499 1_555
O52 S2 1.489463 1_655
O52 Zn1 2.479796 1_555
O53 S0 1.477896 1_545
O53 Zn1 2.430470 1_555
O54 S9 1.473940 1_555
O54 Zn2 2.263538 1_555
O55 S10 1.482706 1_655
O55 Zn2 2.320434 1_555
O56 S11 1.473710 1_545
O56 Zn2 2.398353 1_555
O57 S12 1.493221 1_545
O57 Zn3 2.397738 1_555
O58 S13 1.497790 1_555
O58 Zn3 2.317924 1_555
O59 S14 1.482394 1_655
O59 Zn3 2.316366 1_555
O60 S8 1.511371 1_555
O60 Y4 2.337259 1_555
O61 Si2 1.644159 1_455
O61 Y4 2.096539 1_555
O62 S7 1.507193 1_565
O62 Y4 2.304868 1_555
O63 Si1 1.665117 1_565
O63 Y5 2.149896 1_555
O64 S6 1.492886 1_555
O64 Y5 2.319463 1_555
O65 S5 1.478048 1_455
O65 Y5 2.278862 1_555
O66 S0 1.504717 1_555
O66 Zn4 2.240829 1_555
O67 S1 1.485582 1_555
O67 Zn4 2.115463 1_555
O68 S2 1.506726 1_555
O68 Zn4 2.209118 1_555
O69 S3 1.472953 1_555
O69 Zn5 2.349942 1_555
O70 S4 1.481046 1_555
O70 Zn5 2.451387 1_555
O71 Si0 1.642659 1_555
O71 Zn5 1.953072 1_555
