# generated using pymatgen
data_Li2SnP2O7
_symmetry_space_group_name_H-M   'P 1'
_cell_length_a   7.32993098
_cell_length_b   7.32993098
_cell_length_c   13.17260106
_cell_angle_alpha   89.64964909
_cell_angle_beta   89.64964909
_cell_angle_gamma   120.03282446
_symmetry_Int_Tables_number   1
_chemical_formula_structural   Li2SnP2O7
_chemical_formula_sum   'Li8 Sn4 P8 O28'
_cell_volume   612.66869196
_cell_formula_units_Z   4
loop_
 _symmetry_equiv_pos_site_id
 _symmetry_equiv_pos_as_xyz
  1  'x, y, z'
loop_
 _atom_site_type_symbol
 _atom_site_label
 _atom_site_symmetry_multiplicity
 _atom_site_fract_x
 _atom_site_fract_y
 _atom_site_fract_z
 _atom_site_occupancy
  Li  Li0  1  0.74684400  0.28481100  0.49460900  1
  Li  Li1  1  0.28481100  0.74684400  0.99460900  1
  Li  Li2  1  0.73900600  0.26099400  0.25000000  1
  Li  Li3  1  0.28128100  0.71871900  0.25000000  1
  Li  Li4  1  0.71871900  0.28128100  0.75000000  1
  Li  Li5  1  0.26099400  0.73900600  0.75000000  1
  Li  Li6  1  0.71518900  0.25315600  0.00539100  1
  Li  Li7  1  0.25315600  0.71518900  0.50539100  1
  Sn  Sn0  1  0.66730000  0.65729200  0.37893200  1
  Sn  Sn1  1  0.65729200  0.66730000  0.87893200  1
  Sn  Sn2  1  0.34270800  0.33270000  0.12106800  1
  Sn  Sn3  1  0.33270000  0.34270800  0.62106800  1
  P  P0  1  0.70717100  0.91756000  0.11453800  1
  P  P1  1  0.91756000  0.70717100  0.61453800  1
  P  P2  1  0.89563100  0.65447700  0.14412600  1
  P  P3  1  0.65447700  0.89563100  0.64412600  1
  P  P4  1  0.34552300  0.10436900  0.35587400  1
  P  P5  1  0.10436900  0.34552300  0.85587400  1
  P  P6  1  0.08244000  0.29282900  0.38546200  1
  P  P7  1  0.29282900  0.08244000  0.88546200  1
  O  O0  1  0.91221700  0.88157000  0.12239800  1
  O  O1  1  0.88157000  0.91221700  0.62239800  1
  O  O2  1  0.61371200  0.85601300  0.00640300  1
  O  O3  1  0.85601300  0.61371200  0.50640300  1
  O  O4  1  0.84209200  0.59007500  0.25794200  1
  O  O5  1  0.59007500  0.84209200  0.75794200  1
  O  O6  1  0.55215600  0.77154400  0.19531500  1
  O  O7  1  0.77154400  0.55215600  0.69531500  1
  O  O8  1  0.70925500  0.49355600  0.07895600  1
  O  O9  1  0.31550600  0.89005300  0.38214700  1
  O  O10  1  0.49355600  0.70925500  0.57895600  1
  O  O11  1  0.89005300  0.31550600  0.88214700  1
  O  O12  1  0.84739200  0.20085000  0.37097200  1
  O  O13  1  0.20085000  0.84739200  0.87097200  1
  O  O14  1  0.79915000  0.15260800  0.12902800  1
  O  O15  1  0.15260800  0.79915000  0.62902800  1
  O  O16  1  0.10994700  0.68449400  0.11785300  1
  O  O17  1  0.50644400  0.29074500  0.42104400  1
  O  O18  1  0.68449400  0.10994700  0.61785300  1
  O  O19  1  0.29074500  0.50644400  0.92104400  1
  O  O20  1  0.22845600  0.44784400  0.30468500  1
  O  O21  1  0.44784400  0.22845600  0.80468500  1
  O  O22  1  0.40992500  0.15790800  0.24205800  1
  O  O23  1  0.15790800  0.40992500  0.74205800  1
  O  O24  1  0.14398700  0.38628800  0.49359700  1
  O  O25  1  0.38628800  0.14398700  0.99359700  1
  O  O26  1  0.11843000  0.08778300  0.37760200  1
  O  O27  1  0.08778300  0.11843000  0.87760200  1
loop_
_geom_bond_atom_site_label_1
_geom_bond_atom_site_label_2
_geom_bond_distance
_geom_bond_site_symmetry_2
Li0 O18 1.966320 1_555
Li0 O12 2.006476 1_555
Li0 O17 2.035454 1_555
Li0 O3 2.133439 1_555
Li0 O24 2.619069 1_655
Li1 O16 1.966320 1_556
Li1 O13 2.006476 1_555
Li1 O19 2.035454 1_555
Li1 O2 2.133439 1_556
Li1 O25 2.619069 1_565
Li2 O12 1.929324 1_555
Li2 O14 1.929324 1_555
Li2 O22 2.140075 1_555
Li2 O4 2.140075 1_555
Li3 O6 1.954624 1_555
Li3 O20 1.954624 1_555
Li3 O9 2.094504 1_555
Li3 O16 2.094504 1_555
Li4 O7 1.954624 1_555
Li4 O21 1.954624 1_555
Li4 O11 2.094504 1_555
Li4 O18 2.094504 1_555
Li5 O13 1.929324 1_555
Li5 O15 1.929324 1_555
Li5 O23 2.140075 1_555
Li5 O5 2.140075 1_555
Li6 O11 1.966320 1_554
Li6 O14 2.006476 1_555
Li6 O8 2.035454 1_555
Li6 O25 2.133439 1_554
Li6 O2 2.619069 1_545
Li7 O9 1.966320 1_555
Li7 O15 2.006476 1_555
Li7 O10 2.035454 1_555
Li7 O24 2.133439 1_555
Li7 O3 2.619069 1_455
O0 P2 1.630549 1_555
O0 P0 1.654598 1_555
O1 P3 1.630549 1_555
O1 P1 1.654598 1_555
O2 P0 1.553132 1_555
O2 Sn1 2.301964 1_554
O3 P1 1.553132 1_555
O3 Sn0 2.301964 1_555
O4 P2 1.556701 1_555
O4 Sn0 2.245175 1_555
O5 P3 1.556701 1_555
O5 Sn1 2.245175 1_555
O6 P0 1.524051 1_555
O7 P1 1.524051 1_555
O8 P2 1.551866 1_555
O8 Sn2 2.391522 1_555
O9 P4 1.510767 1_565
O10 P3 1.551866 1_555
O10 Sn3 2.391522 1_555
O11 P5 1.510767 1_655
O12 P6 1.517296 1_655
O13 P7 1.517296 1_565
O14 P0 1.517296 1_545
O15 P1 1.517296 1_455
O16 P2 1.510767 1_455
O17 P4 1.551866 1_555
O17 Sn0 2.391522 1_555
O18 P3 1.510767 1_545
O19 P5 1.551866 1_555
O19 Sn1 2.391522 1_555
O20 P6 1.524051 1_555
O21 P7 1.524051 1_555
O22 P4 1.556701 1_555
O22 Sn2 2.245175 1_555
O23 P5 1.556701 1_555
O23 Sn3 2.245175 1_555
O24 P6 1.553132 1_555
O24 Sn3 2.301964 1_555
O25 P7 1.553132 1_555
O25 Sn2 2.301964 1_556
O26 P4 1.630549 1_555
O26 P6 1.654598 1_555
O27 P5 1.630549 1_555
O27 P7 1.654598 1_555
