# generated using pymatgen
data_LiAuS
_symmetry_space_group_name_H-M   'P 1'
_cell_length_a   6.36289158
_cell_length_b   6.36289199
_cell_length_c   7.21163204
_cell_angle_alpha   116.47822778
_cell_angle_beta   116.47822394
_cell_angle_gamma   89.38917855
_symmetry_Int_Tables_number   1
_chemical_formula_structural   LiAuS
_chemical_formula_sum   'Li4 Au4 S4'
_cell_volume   227.39176771
_cell_formula_units_Z   4
loop_
 _symmetry_equiv_pos_site_id
 _symmetry_equiv_pos_as_xyz
  1  'x, y, z'
loop_
 _atom_site_type_symbol
 _atom_site_label
 _atom_site_symmetry_multiplicity
 _atom_site_fract_x
 _atom_site_fract_y
 _atom_site_fract_z
 _atom_site_occupancy
  Li  Li0  1  0.77429778  0.52429778  0.04859456  1
  Li  Li1  1  0.47570222  0.22570222  0.45140544  1
  Li  Li2  1  0.22570222  0.47570222  0.95140544  1
  Li  Li3  1  0.52429778  0.77429778  0.54859456  1
  Au  Au0  1  0.50000000  -0.00000000  -0.00000000  1
  Au  Au1  1  -0.00000000  0.50000000  0.50000000  1
  Au  Au2  1  -0.00000000  -0.00000000  -0.00000000  1
  Au  Au3  1  -0.00000000  -0.00000000  0.50000000  1
  S  S0  1  0.58708152  0.41291848  0.25000000  1
  S  S1  1  0.83708152  0.16291848  0.75000000  1
  S  S2  1  0.16291848  0.83708152  0.25000000  1
  S  S3  1  0.41291848  0.58708152  0.75000000  1
loop_
_geom_bond_atom_site_label_1
_geom_bond_atom_site_label_2
_geom_bond_distance
_geom_bond_site_symmetry_2
Li0 S1 2.532992 1_554
Li0 S3 2.532992 1_554
Li0 S2 2.551403 1_655
Li0 S0 2.551411 1_555
Li1 S3 2.532992 1_555
Li1 S1 2.532992 1_555
Li1 S2 2.551403 1_545
Li1 S0 2.551411 1_555
Li2 S2 2.532992 1_556
Li2 S0 2.532992 1_556
Li2 S1 2.551403 1_455
Li2 S3 2.551411 1_555
Li3 S0 2.532992 1_555
Li3 S2 2.532992 1_555
Li3 S1 2.551403 1_565
Li3 S3 2.551411 1_555
Au0 S0 2.318789 1_555
Au0 S3 2.318789 1_544
Au0 Li1 2.993155 1_555
Au0 Li3 2.993155 1_544
Au1 S0 2.318789 1_455
Au1 S3 2.318789 1_555
Au1 Li0 2.993155 1_455
Au1 Li2 2.993155 1_555
Au2 S2 2.318789 1_545
Au2 S1 2.318789 1_454
Au2 Li3 2.993152 1_444
Au2 Li1 2.993152 1_555
Au3 S2 2.318788 1_545
Au3 S1 2.318788 1_455
Au3 Li0 2.993152 1_445
Au3 Li2 2.993152 1_555
