# generated using pymatgen
data_Y2Cl3
_symmetry_space_group_name_H-M   'P 1'
_cell_length_a   3.85287978
_cell_length_b   7.87243985
_cell_length_c   9.56659084
_cell_angle_alpha   70.67658372
_cell_angle_beta   78.38282770
_cell_angle_gamma   75.83549206
_symmetry_Int_Tables_number   1
_chemical_formula_structural   Y2Cl3
_chemical_formula_sum   'Y4 Cl6'
_cell_volume   263.18960308
_cell_formula_units_Z   2
loop_
 _symmetry_equiv_pos_site_id
 _symmetry_equiv_pos_as_xyz
  1  'x, y, z'
loop_
 _atom_site_type_symbol
 _atom_site_label
 _atom_site_symmetry_multiplicity
 _atom_site_fract_x
 _atom_site_fract_y
 _atom_site_fract_z
 _atom_site_occupancy
  Y  Y0  1  0.13747457  0.01674559  0.70830427  1
  Y  Y1  1  0.86252543  0.98325441  0.29169573  1
  Y  Y2  1  0.41131326  0.22681802  0.95055246  1
  Y  Y3  1  0.58868674  0.77318198  0.04944754  1
  Cl  Cl0  1  0.95244281  0.35851737  0.73659401  1
  Cl  Cl1  1  0.04755719  0.64148263  0.26340599  1
  Cl  Cl2  1  0.77083460  0.34049062  0.11784118  1
  Cl  Cl3  1  0.22916540  0.65950938  0.88215882  1
  Cl  Cl4  1  0.34077693  0.81045057  0.50799656  1
  Cl  Cl5  1  0.65922307  0.18954943  0.49200344  1
loop_
_geom_bond_atom_site_label_1
_geom_bond_atom_site_label_2
_geom_bond_distance
_geom_bond_site_symmetry_2
Cl0 Y0 2.699283 1_655
Cl0 Y2 2.747027 1_655
Cl0 Y2 2.747028 1_555
Cl1 Y1 2.699283 1_455
Cl1 Y3 2.747027 1_455
Cl1 Y3 2.747028 1_555
Cl2 Y1 2.730391 1_545
Cl2 Y2 2.779932 1_654
Cl2 Y2 2.779942 1_554
Cl2 Y3 3.172338 1_555
Cl3 Y0 2.730391 1_565
Cl3 Y3 2.779932 1_456
Cl3 Y3 2.779942 1_556
Cl3 Y2 3.172338 1_555
Cl4 Y0 2.784891 1_565
Cl4 Y1 2.823771 1_455
Cl4 Y1 2.823771 1_555
Cl5 Y1 2.784891 1_545
Cl5 Y0 2.823771 1_655
Cl5 Y0 2.823771 1_555
