# generated using pymatgen
data_Na3YTi3(PO4)6
_symmetry_space_group_name_H-M   'P 1'
_cell_length_a   8.82126085
_cell_length_b   8.83514887
_cell_length_c   22.58601581
_cell_angle_alpha   89.91828411
_cell_angle_beta   90.07784103
_cell_angle_gamma   120.32635466
_symmetry_Int_Tables_number   1
_chemical_formula_structural   Na3YTi3(PO4)6
_chemical_formula_sum   'Na9 Y3 Ti9 P18 O72'
_cell_volume   1519.41571869
_cell_formula_units_Z   3
loop_
 _symmetry_equiv_pos_site_id
 _symmetry_equiv_pos_as_xyz
  1  'x, y, z'
loop_
 _atom_site_type_symbol
 _atom_site_label
 _atom_site_symmetry_multiplicity
 _atom_site_fract_x
 _atom_site_fract_y
 _atom_site_fract_z
 _atom_site_occupancy
  Na  Na0  1  0.36180840  0.35788749  0.24907660  1
  Na  Na1  1  0.63142440  0.62977453  0.75055734  1
  Na  Na2  1  0.96691448  0.29754332  0.41678655  1
  Na  Na3  1  0.00038332  0.99122959  0.50293589  1
  Na  Na4  1  0.99983646  -0.00001427  0.00068662  1
  Na  Na5  1  0.66714788  0.32397610  0.83695894  1
  Na  Na6  1  0.66773925  0.33410558  0.33215188  1
  Na  Na7  1  0.33179246  0.67514870  0.16427967  1
  Na  Na8  1  0.32306801  0.66702890  0.66568753  1
  Y  Y0  1  0.99786062  0.98890373  0.35657683  1
  Y  Y1  1  0.66828216  0.32558548  0.68580445  1
  Y  Y2  1  0.67517769  0.33318366  0.17855781  1
  Ti  Ti0  1  0.00108959  0.00139499  0.85632013  1
  Ti  Ti1  1  0.00295780  0.00359092  0.64638813  1
  Ti  Ti2  1  0.99756517  0.99664052  0.14614470  1
  Ti  Ti3  1  0.66615868  0.33425294  0.98219054  1
  Ti  Ti4  1  0.65853091  0.33413834  0.48339423  1
  Ti  Ti5  1  0.33456874  0.66611095  0.01675660  1
  Ti  Ti6  1  0.33488067  0.66689734  0.52041846  1
  Ti  Ti7  1  0.33570433  0.67558361  0.31283596  1
  Ti  Ti8  1  0.32621382  0.66758790  0.81663829  1
  P  P0  1  0.28820248  0.99134287  0.24865724  1
  P  P1  1  0.70044519  0.70930924  0.24866003  1
  P  P2  1  0.00543469  0.29649921  0.25174752  1
  P  P3  1  0.27677638  0.28795999  0.75277609  1
  P  P4  1  0.01219995  0.72638747  0.75244282  1
  P  P5  1  0.71495325  0.99327264  0.75322707  1
  P  P6  1  0.96452479  0.33189734  0.58043317  1
  P  P7  1  0.36647220  0.03352447  0.58139577  1
  P  P8  1  0.66734370  0.63171470  0.58315797  1
  P  P9  1  0.96953826  0.63541807  0.07913664  1
  P  P10  1  0.66659934  0.03282579  0.07944445  1
  P  P11  1  0.36655415  0.33380543  0.08106441  1
  P  P12  1  0.62052792  0.66416891  0.91581487  1
  P  P13  1  0.04279566  0.37803454  0.91703797  1
  P  P14  1  0.33488955  0.95602599  0.91690366  1
  P  P15  1  0.61008667  0.95741209  0.41944555  1
  P  P16  1  0.34724318  0.39179775  0.41809059  1
  P  P17  1  0.04586834  0.65736089  0.41988692  1
  O  O0  1  0.21443560  0.02714056  0.30439879  1
  O  O1  1  0.80499703  0.78291566  0.30513520  1
  O  O2  1  0.98471255  0.19889167  0.31003797  1
  O  O3  1  0.18445264  0.17368671  0.80725399  1
  O  O4  1  0.98780812  0.81748856  0.80688104  1
  O  O5  1  0.82765964  0.00940129  0.80779079  1
  O  O6  1  0.80232878  0.96839021  0.69638034  1
  O  O7  1  0.16881695  0.19690034  0.69547039  1
  O  O8  1  0.03125496  0.83418797  0.69520072  1
  O  O9  1  0.79982863  0.82713890  0.19379719  1
  O  O10  1  0.03090203  0.19803315  0.19783114  1
  O  O11  1  0.16915936  0.96918889  0.19379597  1
  O  O12  1  0.89621495  0.37236604  0.63617086  1
  O  O13  1  0.47399261  0.10123251  0.63754422  1
  O  O14  1  0.62938471  0.52862832  0.64089297  1
  O  O15  1  0.90901192  0.53233665  0.13626989  1
  O  O16  1  0.62248728  0.09265463  0.13625442  1
  O  O17  1  0.46677102  0.37319946  0.13928542  1
  O  O18  1  0.47071420  0.30753304  0.02944169  1
  O  O19  1  0.83923193  0.53269626  0.02712119  1
  O  O20  1  0.69447160  0.16249104  0.02735624  1
  O  O21  1  0.46669815  0.16130524  0.52826691  1
  O  O22  1  0.69263682  0.52903142  0.53062435  1
  O  O23  1  0.84309492  0.30349616  0.52582799  1
  O  O24  1  0.53034751  0.69271601  0.96911493  1
  O  O25  1  0.16094722  0.46690645  0.97059655  1
  O  O26  1  0.30600270  0.83799328  0.97032254  1
  O  O27  1  0.51764936  0.84282837  0.47304692  1
  O  O28  1  0.32485209  0.48652696  0.47118122  1
  O  O29  1  0.15873514  0.67202315  0.47340481  1
  O  O30  1  0.13388900  0.63434819  0.36288296  1
  O  O31  1  0.50277142  0.86568850  0.36213290  1
  O  O32  1  0.36665691  0.49434400  0.35973797  1
  O  O33  1  0.13521790  0.49713605  0.86140541  1
  O  O34  1  0.36147841  0.86466393  0.86127180  1
  O  O35  1  0.50737259  0.63756138  0.85901187  1
  O  O36  1  0.02621545  0.81817418  0.42058412  1
  O  O37  1  0.79696064  0.98594405  0.41853596  1
  O  O38  1  0.17878944  0.21060437  0.41810930  1
  O  O39  1  0.02456751  0.19529916  0.90876682  1
  O  O40  1  0.17063945  0.97494547  0.90853117  1
  O  O41  1  0.80597503  0.82939431  0.90887721  1
  O  O42  1  0.97852850  0.16405952  0.58877484  1
  O  O43  1  0.18568175  0.02150562  0.58772155  1
  O  O44  1  0.83612054  0.81382923  0.58848699  1
  O  O45  1  0.98058177  0.81588010  0.08631916  1
  O  O46  1  0.83560542  0.02087548  0.08718415  1
  O  O47  1  0.18390840  0.16489663  0.08732631  1
  O  O48  1  0.69605410  0.15490680  0.75187018  1
  O  O49  1  0.46323922  0.31527258  0.75023950  1
  O  O50  1  0.84299523  0.54601140  0.74975880  1
  O  O51  1  0.66319855  0.52119820  0.24303879  1
  O  O52  1  0.85056740  0.32455132  0.24634576  1
  O  O53  1  0.47066011  0.15272433  0.24244155  1
  O  O54  1  0.63855688  0.49949621  0.92430778  1
  O  O55  1  0.86016286  0.36036332  0.92390333  1
  O  O56  1  0.50029818  0.13968715  0.92414602  1
  O  O57  1  0.62889524  0.14183162  0.42410409  1
  O  O58  1  0.51201319  0.37309596  0.42556122  1
  O  O59  1  0.86281065  0.48671378  0.42453308  1
  O  O60  1  0.34388389  0.49293509  0.06786651  1
  O  O61  1  0.15257920  0.65972743  0.06678437  1
  O  O62  1  0.50813759  0.84860176  0.06674511  1
  O  O63  1  0.34064950  0.85013532  0.57017168  1
  O  O64  1  0.50914688  0.65618278  0.57087451  1
  O  O65  1  0.15126398  0.48995431  0.57046957  1
  O  O66  1  0.29879965  0.82203230  0.25601743  1
  O  O67  1  0.51832302  0.69859637  0.25451002  1
  O  O68  1  0.18144037  0.47759074  0.25566736  1
  O  O69  1  0.29564366  0.47250767  0.75771688  1
  O  O70  1  0.17639979  0.70715004  0.75861217  1
  O  O71  1  0.53219280  0.82231378  0.75815426  1
loop_
_geom_bond_atom_site_label_1
_geom_bond_atom_site_label_2
_geom_bond_distance
_geom_bond_site_symmetry_2
Na0 O51 2.301176 1_555
Na0 O68 2.317879 1_555
Na0 O53 2.447239 1_555
Na0 O67 2.605042 1_555
Na0 O17 2.627456 1_555
Na0 O32 2.767411 1_555
Na0 O10 2.772583 1_555
Na0 O0 2.819261 1_555
Na1 O71 2.279130 1_555
Na1 O50 2.329397 1_555
Na1 O49 2.399818 1_555
Na1 O69 2.564132 1_555
Na1 O14 2.631314 1_555
Na1 O35 2.699319 1_555
Na1 O6 2.856637 1_555
Na1 O4 2.996998 1_555
Na2 O59 2.284421 1_555
Na2 O38 2.352364 1_655
Na2 O37 2.379113 1_545
Na2 O57 2.582443 1_555
Na2 O2 2.596651 1_555
Na2 O23 2.706824 1_555
Na2 O30 2.841655 1_655
Na2 O28 2.989680 1_655
Na3 O43 2.441697 1_565
Na3 O44 2.448538 1_455
Na3 O36 2.492062 1_555
Na3 O42 2.536604 1_465
Na3 O37 2.600455 1_455
Na3 O38 2.611765 1_565
Na4 O45 2.475547 1_545
Na4 O47 2.489791 1_655
Na4 O46 2.495654 1_555
Na4 O41 2.625335 1_544
Na4 O39 2.635605 1_654
Na4 O40 2.645347 1_644
Na5 O56 2.504760 1_555
Na5 O55 2.509681 1_555
Na5 O48 2.526629 1_555
Na5 O54 2.601087 1_555
Na5 O49 2.632266 1_555
Na5 O50 2.656649 1_555
Na6 O52 2.551573 1_555
Na6 O57 2.592396 1_555
Na6 O59 2.605354 1_555
Na6 O51 2.615748 1_555
Na6 O53 2.623394 1_555
Na6 O58 2.635256 1_555
Na7 O66 2.540215 1_555
Na7 O67 2.559580 1_555
Na7 O68 2.593354 1_555
Na7 O61 2.672187 1_555
Na7 O62 2.685794 1_555
Na7 O60 2.743909 1_555
Na8 O70 2.584020 1_555
Na8 O69 2.627544 1_555
Na8 O65 2.641184 1_555
Na8 O63 2.651954 1_555
Na8 O71 2.662492 1_555
Na8 O64 2.730993 1_555
O0 P0 1.523053 1_545
O0 Y0 2.122750 1_445
O1 P1 1.514605 1_555
O1 Y0 2.104855 1_555
O2 P2 1.532525 1_655
O2 Y0 2.184438 1_545
O3 P3 1.537990 1_555
O3 Ti0 1.917080 1_555
O4 P4 1.544136 1_655
O4 Ti0 1.926987 1_665
O5 P5 1.543250 1_545
O5 Ti0 1.910868 1_655
O6 P5 1.570196 1_555
O6 Ti1 1.988073 1_665
O7 P3 1.566951 1_555
O7 Ti1 1.940126 1_555
O8 P4 1.562788 1_555
O8 Ti1 1.972236 1_565
O9 P1 1.570164 1_555
O9 Ti2 1.950952 1_555
O10 P2 1.578406 1_555
O10 Ti2 2.022843 1_445
O11 P0 1.570349 1_555
O11 Ti2 1.968231 1_455
O12 P6 1.515476 1_555
O12 Y1 2.153101 1_555
O13 P7 1.513811 1_555
O13 Y1 2.150574 1_555
O14 P8 1.527055 1_555
O14 Y1 2.231652 1_555
O15 P9 1.512333 1_555
O15 Y2 2.144389 1_555
O16 P10 1.512684 1_555
O16 Y2 2.156885 1_555
O17 P11 1.522913 1_555
O17 Y2 2.223188 1_555
O18 P11 1.573728 1_555
O18 Ti3 1.939162 1_554
O19 P9 1.571952 1_555
O19 Ti3 1.931948 1_554
O20 P10 1.571447 1_555
O20 Ti3 1.945143 1_554
O21 P7 1.577086 1_555
O21 Ti4 1.900860 1_555
O22 P8 1.577617 1_555
O22 Ti4 1.916934 1_555
O23 P6 1.567572 1_555
O23 Ti4 2.020555 1_555
O24 P12 1.533541 1_555
O24 Ti5 1.946809 1_556
O25 P13 1.529372 1_555
O25 Ti5 1.951675 1_556
O26 P14 1.528733 1_555
O26 Ti5 1.962330 1_556
O27 P15 1.523481 1_555
O27 Ti6 1.905102 1_555
O28 P16 1.532251 1_555
O28 Ti6 1.909584 1_555
O29 P17 1.528423 1_555
O29 Ti6 1.900104 1_555
O30 P17 1.569950 1_555
O30 Ti7 1.982199 1_555
O31 P15 1.566357 1_555
O31 Ti7 1.932327 1_555
O32 P16 1.558110 1_555
O32 Ti7 2.048590 1_555
O33 P13 1.575903 1_555
O33 Ti8 1.888629 1_555
O34 P14 1.574885 1_555
O34 Ti8 1.897882 1_555
O35 P12 1.567801 1_555
O35 Ti8 1.990810 1_555
O36 P17 1.515855 1_555
O36 Y0 2.191270 1_455
O37 P15 1.536826 1_555
O37 Y0 2.249340 1_555
O38 P16 1.539033 1_555
O38 Y0 2.271610 1_445
O39 P13 1.551117 1_555
O39 Ti0 2.006953 1_555
O40 P14 1.551365 1_555
O40 Ti0 2.007371 1_565
O41 P12 1.555674 1_555
O41 Ti0 2.009952 1_665
O42 P6 1.560061 1_555
O42 Ti1 2.013024 1_655
O43 P7 1.550688 1_555
O43 Ti1 2.031365 1_555
O44 P8 1.549495 1_555
O44 Ti1 2.048500 1_665
O45 P9 1.556210 1_555
O45 Ti2 2.040290 1_555
O46 P10 1.556447 1_555
O46 Ti2 2.040422 1_545
O47 P11 1.553981 1_555
O47 Ti2 2.051678 1_445
O48 P5 1.519335 1_545
O48 Y1 2.219504 1_555
O49 P3 1.538309 1_555
O49 Y1 2.288704 1_555
O50 P4 1.539210 1_655
O50 Y1 2.285927 1_555
O51 P1 1.528176 1_555
O51 Y2 2.253027 1_555
O52 P2 1.511288 1_655
O52 Y2 2.203645 1_555
O53 P0 1.525047 1_545
O53 Y2 2.230358 1_555
O54 P12 1.552943 1_555
O54 Ti3 2.062169 1_555
O55 P13 1.546127 1_655
O55 Ti3 2.078860 1_555
O56 P14 1.548535 1_545
O56 Ti3 2.067786 1_555
O57 P15 1.555924 1_545
O57 Ti4 2.074945 1_555
O58 P16 1.552468 1_555
O58 Ti4 1.984573 1_555
O59 P17 1.559851 1_655
O59 Ti4 2.092875 1_555
O60 P11 1.545338 1_555
O60 Ti5 1.949870 1_555
O61 P9 1.543344 1_455
O61 Ti5 1.941769 1_555
O62 P10 1.545346 1_565
O62 Ti5 1.930324 1_555
O63 P7 1.539393 1_565
O63 Ti6 1.951445 1_555
O64 P8 1.540953 1_555
O64 Ti6 1.952606 1_555
O65 P6 1.546400 1_455
O65 Ti6 1.946345 1_555
O66 P0 1.553868 1_555
O66 Ti7 1.961254 1_555
O67 P1 1.566651 1_555
O67 Ti7 2.011487 1_555
O68 P2 1.571543 1_555
O68 Ti7 2.043728 1_555
O69 P3 1.557283 1_555
O69 Ti8 2.085814 1_555
O70 P4 1.547354 1_555
O70 Ti8 2.011654 1_555
O71 P5 1.560085 1_555
O71 Ti8 2.099545 1_555
