# generated using pymatgen
data_ZnGe(SO4)3
_symmetry_space_group_name_H-M   'P 1'
_cell_length_a   8.52598745
_cell_length_b   8.52598718
_cell_length_c   21.90156560
_cell_angle_alpha   90.00000000
_cell_angle_beta   90.00000000
_cell_angle_gamma   120.00000099
_symmetry_Int_Tables_number   1
_chemical_formula_structural   ZnGe(SO4)3
_chemical_formula_sum   'Zn6 Ge6 S18 O72'
_cell_volume   1378.78056396
_cell_formula_units_Z   6
loop_
 _symmetry_equiv_pos_site_id
 _symmetry_equiv_pos_as_xyz
  1  'x, y, z'
loop_
 _atom_site_type_symbol
 _atom_site_label
 _atom_site_symmetry_multiplicity
 _atom_site_fract_x
 _atom_site_fract_y
 _atom_site_fract_z
 _atom_site_occupancy
  Zn  Zn0  1  0.00000000  -0.00000000  0.35578557  1
  Zn  Zn1  1  0.00000000  -0.00000000  0.85578557  1
  Zn  Zn2  1  0.66666700  0.33333300  0.68911857  1
  Zn  Zn3  1  0.66666700  0.33333300  0.18911857  1
  Zn  Zn4  1  0.33333300  0.66666700  0.02245257  1
  Zn  Zn5  1  0.33333300  0.66666700  0.52245257  1
  Ge  Ge0  1  0.00000000  -0.00000000  0.64875933  1
  Ge  Ge1  1  0.00000000  -0.00000000  0.14875933  1
  Ge  Ge2  1  0.66666700  0.33333300  0.98209233  1
  Ge  Ge3  1  0.66666700  0.33333300  0.48209233  1
  Ge  Ge4  1  0.33333300  0.66666700  0.31542633  1
  Ge  Ge5  1  0.33333300  0.66666700  0.81542633  1
  S  S0  1  0.28659875  0.98889334  0.25124704  1
  S  S1  1  0.70229458  0.71340125  0.25124704  1
  S  S2  1  0.01110666  0.29770542  0.25124704  1
  S  S3  1  0.28659875  0.29770542  0.75124704  1
  S  S4  1  0.01110666  0.71340125  0.75124704  1
  S  S5  1  0.70229458  0.98889334  0.75124704  1
  S  S6  1  0.95326575  0.32222634  0.58458004  1
  S  S7  1  0.36896158  0.04673425  0.58458004  1
  S  S8  1  0.67777366  0.63103842  0.58458004  1
  S  S9  1  0.95326575  0.63103842  0.08458004  1
  S  S10  1  0.67777366  0.04673425  0.08458004  1
  S  S11  1  0.36896158  0.32222634  0.08458004  1
  S  S12  1  0.61993175  0.65556034  0.91791404  1
  S  S13  1  0.03562758  0.38006825  0.91791404  1
  S  S14  1  0.34443966  0.96437242  0.91791404  1
  S  S15  1  0.61993175  0.96437242  0.41791404  1
  S  S16  1  0.34443966  0.38006825  0.41791404  1
  S  S17  1  0.03562758  0.65556034  0.41791404  1
  O  O0  1  0.20543517  0.01844537  0.30466196  1
  O  O1  1  0.81301020  0.79456483  0.30466196  1
  O  O2  1  0.98155463  0.18698980  0.30466196  1
  O  O3  1  0.20543517  0.18698980  0.80466196  1
  O  O4  1  0.98155463  0.79456483  0.80466196  1
  O  O5  1  0.81301020  0.01844537  0.80466196  1
  O  O6  1  0.78170720  0.94751709  0.69411258  1
  O  O7  1  0.16580989  0.21829280  0.69411258  1
  O  O8  1  0.05248291  0.83419011  0.69411258  1
  O  O9  1  0.78170720  0.83419011  0.19411258  1
  O  O10  1  0.05248291  0.21829280  0.19411258  1
  O  O11  1  0.16580989  0.94751709  0.19411258  1
  O  O12  1  0.87210217  0.35177837  0.63799496  1
  O  O13  1  0.47967720  0.12789783  0.63799496  1
  O  O14  1  0.64822163  0.52032280  0.63799496  1
  O  O15  1  0.87210217  0.52032280  0.13799496  1
  O  O16  1  0.64822163  0.12789783  0.13799496  1
  O  O17  1  0.47967720  0.35177837  0.13799496  1
  O  O18  1  0.44837420  0.28085009  0.02744558  1
  O  O19  1  0.83247689  0.55162580  0.02744558  1
  O  O20  1  0.71914991  0.16752311  0.02744558  1
  O  O21  1  0.44837420  0.16752311  0.52744558  1
  O  O22  1  0.71914991  0.55162580  0.52744558  1
  O  O23  1  0.83247689  0.28085009  0.52744558  1
  O  O24  1  0.53876817  0.68511237  0.97132896  1
  O  O25  1  0.14634320  0.46123183  0.97132896  1
  O  O26  1  0.31488763  0.85365680  0.97132896  1
  O  O27  1  0.53876817  0.85365680  0.47132896  1
  O  O28  1  0.31488763  0.46123183  0.47132896  1
  O  O29  1  0.14634320  0.68511237  0.47132896  1
  O  O30  1  0.11504020  0.61418409  0.36077958  1
  O  O31  1  0.49914289  0.88495980  0.36077958  1
  O  O32  1  0.38581591  0.50085711  0.36077958  1
  O  O33  1  0.11504020  0.50085711  0.86077958  1
  O  O34  1  0.38581591  0.88495980  0.86077958  1
  O  O35  1  0.49914289  0.61418409  0.86077958  1
  O  O36  1  0.00893908  0.80835771  0.40808638  1
  O  O37  1  0.79941863  0.99106092  0.40808638  1
  O  O38  1  0.19164229  0.20058137  0.40808638  1
  O  O39  1  0.00893908  0.20058137  0.90808638  1
  O  O40  1  0.19164229  0.99106092  0.90808638  1
  O  O41  1  0.79941863  0.80835771  0.90808638  1
  O  O42  1  0.96228152  0.14934425  0.59037707  1
  O  O43  1  0.18706273  0.03771848  0.59037707  1
  O  O44  1  0.85065575  0.81293727  0.59037707  1
  O  O45  1  0.96228152  0.81293727  0.09037707  1
  O  O46  1  0.85065575  0.03771848  0.09037707  1
  O  O47  1  0.18706273  0.14934425  0.09037707  1
  O  O48  1  0.67560608  0.14169071  0.74141938  1
  O  O49  1  0.46608563  0.32439392  0.74141938  1
  O  O50  1  0.85830929  0.53391437  0.74141938  1
  O  O51  1  0.67560608  0.53391437  0.24141938  1
  O  O52  1  0.85830929  0.32439392  0.24141938  1
  O  O53  1  0.46608563  0.14169071  0.24141938  1
  O  O54  1  0.62894852  0.48267725  0.92371007  1
  O  O55  1  0.85372973  0.37105148  0.92371007  1
  O  O56  1  0.51732275  0.14627027  0.92371007  1
  O  O57  1  0.62894852  0.14627027  0.42371007  1
  O  O58  1  0.51732275  0.37105148  0.42371007  1
  O  O59  1  0.85372973  0.48267725  0.42371007  1
  O  O60  1  0.34227208  0.47502471  0.07475338  1
  O  O61  1  0.13275163  0.65772792  0.07475338  1
  O  O62  1  0.52497529  0.86724837  0.07475338  1
  O  O63  1  0.34227208  0.86724837  0.57475338  1
  O  O64  1  0.52497529  0.65772792  0.57475338  1
  O  O65  1  0.13275163  0.47502471  0.57475338  1
  O  O66  1  0.29561452  0.81601125  0.25704407  1
  O  O67  1  0.52039573  0.70438548  0.25704407  1
  O  O68  1  0.18398875  0.47960427  0.25704407  1
  O  O69  1  0.29561452  0.47960427  0.75704407  1
  O  O70  1  0.18398875  0.70438548  0.75704407  1
  O  O71  1  0.52039573  0.81601125  0.75704407  1
loop_
_geom_bond_atom_site_label_1
_geom_bond_atom_site_label_2
_geom_bond_distance
_geom_bond_site_symmetry_2
Ge0 O44 1.941440 1_445
Ge0 O42 1.941440 1_455
Ge0 O43 1.941440 1_555
Ge0 O7 1.953970 1_555
Ge0 O8 1.953970 1_545
Ge0 O6 1.953970 1_445
Ge1 O45 1.941440 1_445
Ge1 O47 1.941440 1_555
Ge1 O46 1.941440 1_455
Ge1 O10 1.953970 1_555
Ge1 O9 1.953970 1_445
Ge1 O11 1.953970 1_545
Ge2 O56 1.941440 1_555
Ge2 O54 1.941440 1_555
Ge2 O55 1.941440 1_555
Ge2 O19 1.953970 1_556
Ge2 O20 1.953970 1_556
Ge2 O18 1.953970 1_556
Ge3 O57 1.941440 1_555
Ge3 O59 1.941440 1_555
Ge3 O58 1.941440 1_555
Ge3 O22 1.953970 1_555
Ge3 O21 1.953970 1_555
Ge3 O23 1.953970 1_555
Ge4 O68 1.941440 1_555
Ge4 O66 1.941440 1_555
Ge4 O67 1.941440 1_555
Ge4 O31 1.953970 1_555
Ge4 O32 1.953970 1_555
Ge4 O30 1.953970 1_555
Ge5 O69 1.941440 1_555
Ge5 O71 1.941440 1_555
Ge5 O70 1.941440 1_555
Ge5 O34 1.953970 1_555
Ge5 O33 1.953970 1_555
Ge5 O35 1.953970 1_555
O0 S0 1.444057 1_545
O0 Zn0 2.017637 1_555
O1 S1 1.444057 1_555
O1 Zn0 2.017637 1_665
O2 S2 1.444057 1_655
O2 Zn0 2.017637 1_655
O3 S3 1.444057 1_555
O3 Zn1 2.017637 1_555
O4 S4 1.444057 1_655
O4 Zn1 2.017637 1_665
O5 S5 1.444057 1_545
O5 Zn1 2.017637 1_655
O6 S5 1.545174 1_555
O7 S3 1.545174 1_555
O8 S4 1.545174 1_555
O9 S1 1.545174 1_555
O10 S2 1.545174 1_555
O11 S0 1.545174 1_555
O12 S6 1.444057 1_555
O12 Zn2 2.017637 1_555
O13 S7 1.444057 1_555
O13 Zn2 2.017637 1_555
O14 S8 1.444057 1_555
O14 Zn2 2.017637 1_555
O15 S9 1.444057 1_555
O15 Zn3 2.017637 1_555
O16 S10 1.444057 1_555
O16 Zn3 2.017637 1_555
O17 S11 1.444057 1_555
O17 Zn3 2.017637 1_555
O18 S11 1.545174 1_555
O19 S9 1.545174 1_555
O20 S10 1.545174 1_555
O21 S7 1.545174 1_555
O22 S8 1.545174 1_555
O23 S6 1.545174 1_555
O24 S12 1.444057 1_555
O24 Zn4 2.017637 1_556
O25 S13 1.444057 1_555
O25 Zn4 2.017637 1_556
O26 S14 1.444057 1_555
O26 Zn4 2.017637 1_556
O27 S15 1.444057 1_555
O27 Zn5 2.017637 1_555
O28 S16 1.444057 1_555
O28 Zn5 2.017637 1_555
O29 S17 1.444057 1_555
O29 Zn5 2.017637 1_555
O30 S17 1.545174 1_555
O31 S15 1.545174 1_555
O32 S16 1.545174 1_555
O33 S13 1.545174 1_555
O34 S14 1.545174 1_555
O35 S12 1.545174 1_555
O36 S17 1.446269 1_555
O36 Zn0 2.027856 1_565
O37 S15 1.446278 1_555
O37 Zn0 2.027856 1_665
O38 S16 1.446274 1_555
O38 Zn0 2.027856 1_555
O39 S13 1.446277 1_555
O39 Zn1 2.027856 1_555
O40 S14 1.446269 1_555
O40 Zn1 2.027856 1_565
O41 S12 1.446274 1_555
O41 Zn1 2.027856 1_665
O42 S6 1.519204 1_555
O43 S7 1.519212 1_555
O44 S8 1.519208 1_555
O45 S9 1.519212 1_555
O46 S10 1.519204 1_555
O47 S11 1.519208 1_555
O48 S5 1.446269 1_545
O48 Zn2 2.027856 1_555
O49 S3 1.446278 1_555
O49 Zn2 2.027856 1_555
O50 S4 1.446274 1_655
O50 Zn2 2.027856 1_555
O51 S1 1.446277 1_555
O51 Zn3 2.027856 1_555
O52 S2 1.446269 1_655
O52 Zn3 2.027856 1_555
O53 S0 1.446274 1_545
O53 Zn3 2.027856 1_555
O54 S12 1.519215 1_555
O55 S13 1.519198 1_655
O56 S14 1.519206 1_545
O57 S15 1.519198 1_545
O58 S16 1.519215 1_555
O59 S17 1.519206 1_655
O60 S11 1.446279 1_555
O60 Zn4 2.027856 1_555
O61 S9 1.446263 1_455
O61 Zn4 2.027856 1_555
O62 S10 1.446269 1_565
O62 Zn4 2.027856 1_555
O63 S7 1.446263 1_565
O63 Zn5 2.027856 1_555
O64 S8 1.446279 1_555
O64 Zn5 2.027856 1_555
O65 S6 1.446269 1_455
O65 Zn5 2.027856 1_555
O66 S0 1.519204 1_555
O67 S1 1.519212 1_555
O68 S2 1.519208 1_555
O69 S3 1.519212 1_555
O70 S4 1.519204 1_555
O71 S5 1.519208 1_555
