# generated using pymatgen
data_Na10Mg2Ti6Si7S5O48
_symmetry_space_group_name_H-M   'P 1'
_cell_length_a   17.75131353
_cell_length_b   8.92336335
_cell_length_c   22.33119466
_cell_angle_alpha   90.04588711
_cell_angle_beta   89.73707381
_cell_angle_gamma   120.10781441
_symmetry_Int_Tables_number   1
_chemical_formula_structural   Na10Mg2Ti6Si7S5O48
_chemical_formula_sum   'Na30 Mg6 Ti18 Si21 S15 O144'
_cell_volume   3060.01522309
_cell_formula_units_Z   3
loop_
 _symmetry_equiv_pos_site_id
 _symmetry_equiv_pos_as_xyz
  1  'x, y, z'
loop_
 _atom_site_type_symbol
 _atom_site_label
 _atom_site_symmetry_multiplicity
 _atom_site_fract_x
 _atom_site_fract_y
 _atom_site_fract_z
 _atom_site_occupancy
  Na  Na0  1  0.81494704  0.00606448  0.24946288  1
  Na  Na1  1  0.18684812  0.37436540  0.24831023  1
  Na  Na2  1  0.68680501  0.36387030  0.25066108  1
  Na  Na3  1  0.99610106  0.62154693  0.25111103  1
  Na  Na4  1  0.49659893  0.63311561  0.24638743  1
  Na  Na5  1  0.31589029  0.62403454  0.74978686  1
  Na  Na6  1  0.99643093  0.35878902  0.74720421  1
  Na  Na7  1  0.49621531  0.37244417  0.75075498  1
  Na  Na8  1  0.18901037  0.01391838  0.74736133  1
  Na  Na9  1  0.68636243  0.99773669  0.74855111  1
  Na  Na10  1  0.14968182  0.33025367  0.58208268  1
  Na  Na11  1  0.01579618  0.69493495  0.58407516  1
  Na  Na12  1  0.48516295  0.66526390  0.91734293  1
  Na  Na13  1  0.99013714  0.67578026  0.91958134  1
  Na  Na14  1  0.84988635  0.02719068  0.91571204  1
  Na  Na15  1  0.48972097  0.30609132  0.41934337  1
  Na  Na16  1  0.16428604  0.02806058  0.41751245  1
  Na  Na17  1  0.35064898  0.66920446  0.41496108  1
  Na  Na18  1  0.99511165  0.99892477  0.49972055  1
  Na  Na19  1  0.50795704  0.00721776  0.49841541  1
  Na  Na20  1  0.00676681  0.00770033  0.99885868  1
  Na  Na21  1  0.50166388  0.00882388  0.00152652  1
  Na  Na22  1  0.32950545  0.32331439  0.83133696  1
  Na  Na23  1  0.83093425  0.33376922  0.83160707  1
  Na  Na24  1  0.33549136  0.33632736  0.33138662  1
  Na  Na25  1  0.83177687  0.33406224  0.33222380  1
  Na  Na26  1  0.17151544  0.67138065  0.16432244  1
  Na  Na27  1  0.66398040  0.66779354  0.16338251  1
  Na  Na28  1  0.16887959  0.67270224  0.66461138  1
  Na  Na29  1  0.67058949  0.67156219  0.66434135  1
  Mg  Mg0  1  0.33242055  0.32616056  0.68743590  1
  Mg  Mg1  1  0.83489148  0.32998240  0.68213351  1
  Mg  Mg2  1  0.33690943  0.34092798  0.18181571  1
  Mg  Mg3  1  0.83310473  0.33385049  0.18708412  1
  Mg  Mg4  1  0.16340197  0.66765867  0.01766634  1
  Mg  Mg5  1  0.66285533  0.65973343  0.51714065  1
  Ti  Ti0  1  0.99253143  0.99504563  0.35459887  1
  Ti  Ti1  1  0.50651359  0.99099267  0.35623632  1
  Ti  Ti2  1  0.00484314  0.01961591  0.85653898  1
  Ti  Ti3  1  0.49651595  0.00185499  0.85413186  1
  Ti  Ti4  1  0.99789953  0.02118391  0.64546200  1
  Ti  Ti5  1  0.49687615  0.98699588  0.64958935  1
  Ti  Ti6  1  0.99503784  0.00742030  0.14876333  1
  Ti  Ti7  1  0.49535296  0.96736320  0.14639656  1
  Ti  Ti8  1  0.33734192  0.32331385  0.98101689  1
  Ti  Ti9  1  0.83175720  0.33781421  0.97425660  1
  Ti  Ti10  1  0.32804669  0.32237883  0.47632394  1
  Ti  Ti11  1  0.83707636  0.34069466  0.47742530  1
  Ti  Ti12  1  0.65785513  0.65839353  0.01510779  1
  Ti  Ti13  1  0.16230945  0.67232223  0.51623395  1
  Ti  Ti14  1  0.17108320  0.66329803  0.31703555  1
  Ti  Ti15  1  0.66422977  0.65731630  0.31730425  1
  Ti  Ti16  1  0.16497930  0.67213029  0.81744217  1
  Ti  Ti17  1  0.67257903  0.68057859  0.81740084  1
  Si  Si0  1  0.64537397  0.99697554  0.24990703  1
  Si  Si1  1  0.35328567  0.70980103  0.25209855  1
  Si  Si2  1  0.85402130  0.71010287  0.25057338  1
  Si  Si3  1  0.00118609  0.29292946  0.25134356  1
  Si  Si4  1  0.14554314  0.29482048  0.75072779  1
  Si  Si5  1  0.50099907  0.70935642  0.75182088  1
  Si  Si6  1  0.35415072  0.99814673  0.75063480  1
  Si  Si7  1  0.85363315  0.99598549  0.75145982  1
  Si  Si8  1  0.97707515  0.33486629  0.58327616  1
  Si  Si9  1  0.18857982  0.03843504  0.58543015  1
  Si  Si10  1  0.47951665  0.61974976  0.08332930  1
  Si  Si11  1  0.80884357  0.66661699  0.91825666  1
  Si  Si12  1  0.02546113  0.38024434  0.91963343  1
  Si  Si13  1  0.52248549  0.37347600  0.91447291  1
  Si  Si14  1  0.16875056  0.96340667  0.91883457  1
  Si  Si15  1  0.66439114  0.95848316  0.91768615  1
  Si  Si16  1  0.31172826  0.95322069  0.41671233  1
  Si  Si17  1  0.16234894  0.37339808  0.41851817  1
  Si  Si18  1  0.66843188  0.37466365  0.41876019  1
  Si  Si19  1  0.01993532  0.66409010  0.41388126  1
  Si  Si20  1  0.52403687  0.66868367  0.41983959  1
  S  S0  1  0.14475500  0.00029939  0.24912660  1
  S  S1  1  0.49759149  0.28390419  0.25010251  1
  S  S2  1  0.64438665  0.28883190  0.74929340  1
  S  S3  1  0.99739534  0.70967381  0.75018906  1
  S  S4  1  0.48010167  0.33348157  0.58443395  1
  S  S5  1  0.68711931  0.04105061  0.58385504  1
  S  S6  1  0.33567501  0.62731314  0.58333373  1
  S  S7  1  0.83027863  0.62034746  0.58421752  1
  S  S8  1  0.97939168  0.62601821  0.08445090  1
  S  S9  1  0.33294050  0.04133790  0.08513111  1
  S  S10  1  0.83314084  0.04228810  0.08340552  1
  S  S11  1  0.18730876  0.33275188  0.08401238  1
  S  S12  1  0.68845281  0.33512206  0.08368305  1
  S  S13  1  0.31055370  0.66541931  0.91729262  1
  S  S14  1  0.81006857  0.95530676  0.41787032  1
  O  O0  1  0.10694641  0.03199445  0.30449437  1
  O  O1  1  0.59733791  0.03215394  0.30648531  1
  O  O2  1  0.41673249  0.80544995  0.30901457  1
  O  O3  1  0.91958144  0.80935638  0.30728288  1
  O  O4  1  0.48670245  0.18558965  0.30553270  1
  O  O5  1  0.98800570  0.16047963  0.30688201  1
  O  O6  1  0.09549780  0.16067605  0.80608653  1
  O  O7  1  0.60529169  0.17775695  0.80337289  1
  O  O8  1  0.48759797  0.81022178  0.80887809  1
  O  O9  1  0.98674212  0.78891480  0.80490000  1
  O  O10  1  0.41980663  0.02631608  0.80694759  1
  O  O11  1  0.91650283  0.02783297  0.80900447  1
  O  O12  1  0.40542640  0.96604252  0.69320999  1
  O  O13  1  0.90293452  0.96978067  0.69222584  1
  O  O14  1  0.08203163  0.20169974  0.69088687  1
  O  O15  1  0.58797378  0.20633017  0.69579663  1
  O  O16  1  0.01409184  0.81723996  0.69581992  1
  O  O17  1  0.51880187  0.84483616  0.69365322  1
  O  O18  1  0.40111679  0.83305633  0.19216857  1
  O  O19  1  0.90551592  0.84553517  0.19325578  1
  O  O20  1  0.01897844  0.19453049  0.19298874  1
  O  O21  1  0.51490704  0.20773664  0.19689388  1
  O  O22  1  0.08750391  0.97049056  0.19630535  1
  O  O23  1  0.57912089  0.96359820  0.19253010  1
  O  O24  1  0.43899837  0.35698361  0.63834723  1
  O  O25  1  0.94328066  0.38105104  0.64311810  1
  O  O26  1  0.24391018  0.12300685  0.64392153  1
  O  O27  1  0.73691688  0.12100626  0.63941699  1
  O  O28  1  0.32209421  0.52188496  0.63728254  1
  O  O29  1  0.81761761  0.51501577  0.63782958  1
  O  O30  1  0.44277180  0.51587235  0.14423877  1
  O  O31  1  0.93696503  0.51978310  0.13788987  1
  O  O32  1  0.31852701  0.12121596  0.13753132  1
  O  O33  1  0.82228618  0.12248709  0.13760814  1
  O  O34  1  0.23688657  0.35265712  0.13943410  1
  O  O35  1  0.74001857  0.35940997  0.13801246  1
  O  O36  1  0.22974449  0.30543505  0.03070085  1
  O  O37  1  0.73272307  0.30887263  0.03025501  1
  O  O38  1  0.41677401  0.52625344  0.02366043  1
  O  O39  1  0.92476437  0.54270479  0.02951819  1
  O  O40  1  0.34547950  0.15352653  0.03007735  1
  O  O41  1  0.84723410  0.14960909  0.02897735  1
  O  O42  1  0.23504655  0.16913567  0.52533543  1
  O  O43  1  0.72875971  0.15250874  0.53062147  1
  O  O44  1  0.34916636  0.54868699  0.52856791  1
  O  O45  1  0.84678443  0.53846788  0.53020774  1
  O  O46  1  0.42521975  0.30686075  0.52964049  1
  O  O47  1  0.91323586  0.30724085  0.52590774  1
  O  O48  1  0.27261893  0.69531795  0.97044530  1
  O  O49  1  0.76458632  0.70509434  0.97524372  1
  O  O50  1  0.08267082  0.45994106  0.97636262  1
  O  O51  1  0.58303012  0.46676926  0.97320927  1
  O  O52  1  0.14559301  0.83422668  0.97316092  1
  O  O53  1  0.64722472  0.82802690  0.97324719  1
  O  O54  1  0.26478111  0.82554789  0.47371465  1
  O  O55  1  0.77352077  0.85114866  0.47048329  1
  O  O56  1  0.15137040  0.46517755  0.47753206  1
  O  O57  1  0.64586809  0.45746337  0.47330316  1
  O  O58  1  0.08192497  0.70343199  0.47358815  1
  O  O59  1  0.58256187  0.70694831  0.47605282  1
  O  O60  1  0.06593445  0.63437857  0.35509061  1
  O  O61  1  0.56626146  0.63046774  0.35777587  1
  O  O62  1  0.24560974  0.86741426  0.35960367  1
  O  O63  1  0.75845734  0.87696916  0.36156450  1
  O  O64  1  0.18590471  0.49999562  0.35897532  1
  O  O65  1  0.68345029  0.49854142  0.35642270  1
  O  O66  1  0.06515308  0.50169787  0.85772201  1
  O  O67  1  0.56469375  0.50108691  0.85606602  1
  O  O68  1  0.18324060  0.86804695  0.85654340  1
  O  O69  1  0.68760069  0.87758902  0.85816074  1
  O  O70  1  0.25808586  0.64073752  0.86163490  1
  O  O71  1  0.74731272  0.63024430  0.85900131  1
  O  O72  1  0.01397985  0.84117446  0.40790438  1
  O  O73  1  0.50589622  0.83040390  0.40929038  1
  O  O74  1  0.40835846  0.98165399  0.40962193  1
  O  O75  1  0.89953648  0.97654264  0.40989633  1
  O  O76  1  0.08206815  0.17762398  0.40869774  1
  O  O77  1  0.58006961  0.18755134  0.40498745  1
  O  O78  1  0.00502294  0.18109931  0.90966554  1
  O  O79  1  0.51129934  0.18179551  0.90799813  1
  O  O80  1  0.08014985  0.97330756  0.90490760  1
  O  O81  1  0.57736792  0.97075012  0.90891024  1
  O  O82  1  0.40036050  0.82154023  0.91006882  1
  O  O83  1  0.90681019  0.83095899  0.90910061  1
  O  O84  1  0.48758528  0.17264891  0.58974738  1
  O  O85  1  0.98852253  0.16054617  0.58686962  1
  O  O86  1  0.08857521  0.01284536  0.58905110  1
  O  O87  1  0.59829618  0.02697364  0.58973515  1
  O  O88  1  0.41537192  0.80441627  0.58847489  1
  O  O89  1  0.91374433  0.79246296  0.58875073  1
  O  O90  1  0.48855373  0.81757019  0.08713075  1
  O  O91  1  0.98718559  0.80153812  0.08951368  1
  O  O92  1  0.41496176  0.03435619  0.08830756  1
  O  O93  1  0.91530561  0.02817578  0.08849243  1
  O  O94  1  0.09856950  0.16993664  0.08923498  1
  O  O95  1  0.60021928  0.17914756  0.08817767  1
  O  O96  1  0.34824699  0.17016155  0.74759548  1
  O  O97  1  0.84183993  0.16625026  0.74692574  1
  O  O98  1  0.24034019  0.31667181  0.74596437  1
  O  O99  1  0.73117366  0.30602870  0.74250161  1
  O  O100  1  0.41526762  0.52504937  0.74384557  1
  O  O101  1  0.92126326  0.53334412  0.74544776  1
  O  O102  1  0.34117007  0.51629904  0.24743679  1
  O  O103  1  0.84601341  0.52452778  0.24425771  1
  O  O104  1  0.42166514  0.30898969  0.24515670  1
  O  O105  1  0.91515158  0.30536679  0.24448375  1
  O  O106  1  0.23148312  0.15611487  0.24216558  1
  O  O107  1  0.73925016  0.16703898  0.24369959  1
  O  O108  1  0.32210544  0.51181136  0.92070964  1
  O  O109  1  0.82293385  0.49664968  0.92689826  1
  O  O110  1  0.42693135  0.36159610  0.92510674  1
  O  O111  1  0.92484331  0.35730695  0.92601233  1
  O  O112  1  0.25440166  0.15854421  0.92608154  1
  O  O113  1  0.75384661  0.14643630  0.92741145  1
  O  O114  1  0.32122304  0.14716279  0.42491871  1
  O  O115  1  0.82010070  0.13113930  0.42141511  1
  O  O116  1  0.25273177  0.35975142  0.42477307  1
  O  O117  1  0.75351002  0.34886515  0.42599970  1
  O  O118  1  0.42465140  0.49265749  0.42491610  1
  O  O119  1  0.92436355  0.49224106  0.42507413  1
  O  O120  1  0.17824511  0.48746351  0.07798575  1
  O  O121  1  0.68107309  0.49271323  0.07637637  1
  O  O122  1  0.06653664  0.64526926  0.07928232  1
  O  O123  1  0.57886305  0.64988717  0.07396786  1
  O  O124  1  0.25702666  0.86687420  0.07646696  1
  O  O125  1  0.75714883  0.86676549  0.07776200  1
  O  O126  1  0.17461125  0.84299505  0.57498703  1
  O  O127  1  0.67821485  0.86893358  0.57823107  1
  O  O128  1  0.25651950  0.64301447  0.57800008  1
  O  O129  1  0.75590838  0.64658700  0.57661389  1
  O  O130  1  0.07737072  0.50105139  0.57462029  1
  O  O131  1  0.56726312  0.48730757  0.57889310  1
  O  O132  1  0.15015896  0.84039996  0.25408488  1
  O  O133  1  0.65172653  0.82065188  0.25740399  1
  O  O134  1  0.25651009  0.69197006  0.25666143  1
  O  O135  1  0.75929288  0.69909471  0.25601980  1
  O  O136  1  0.08882899  0.48340096  0.25514210  1
  O  O137  1  0.57933521  0.46444790  0.25470608  1
  O  O138  1  0.15099263  0.48359693  0.75757198  1
  O  O139  1  0.64961722  0.45877534  0.75485111  1
  O  O140  1  0.07915026  0.69371844  0.75459866  1
  O  O141  1  0.58887608  0.69404825  0.75512003  1
  O  O142  1  0.25936151  0.81952181  0.75613681  1
  O  O143  1  0.75650647  0.82162695  0.75616008  1
loop_
_geom_bond_atom_site_label_1
_geom_bond_atom_site_label_2
_geom_bond_distance
_geom_bond_site_symmetry_2
Na0 O105 2.354132 1_555
Na0 O135 2.405210 1_545
Na0 O107 2.413260 1_555
Na0 O133 2.519930 1_545
Na0 O33 2.683447 1_555
Na0 O63 2.724345 1_545
Na0 O19 2.915690 1_545
Na0 O5 2.960851 1_555
Na1 O102 2.372252 1_555
Na1 O136 2.386041 1_555
Na1 O106 2.446665 1_555
Na1 O134 2.466029 1_555
Na1 O34 2.624870 1_555
Na1 O64 2.716299 1_555
Na1 O20 2.866059 1_555
Na1 O0 2.926092 1_555
Na2 O107 2.369498 1_555
Na2 O103 2.448401 1_555
Na2 O137 2.483771 1_555
Na2 O135 2.599481 1_555
Na2 O65 2.663016 1_555
Na2 O35 2.690308 1_555
Na2 O1 2.847719 1_555
Na2 O21 2.908546 1_555
Na3 O103 2.358101 1_555
Na3 O132 2.437292 1_655
Na3 O105 2.445578 1_555
Na3 O136 2.504884 1_655
Na3 O60 2.612474 1_655
Na3 O31 2.717262 1_555
Na3 O3 2.914095 1_555
Na3 O22 2.957226 1_655
Na4 O102 2.411146 1_555
Na4 O133 2.413765 1_555
Na4 O30 2.494840 1_555
Na4 O104 2.505175 1_555
Na4 O137 2.584073 1_555
Na4 O61 2.788319 1_555
Na4 O23 2.818606 1_555
Na4 O2 2.914853 1_555
Na5 O100 2.338947 1_555
Na5 O98 2.374602 1_555
Na5 O142 2.413384 1_555
Na5 O138 2.546444 1_555
Na5 O28 2.692476 1_555
Na5 O70 2.728173 1_555
Na5 O12 2.925341 1_555
Na5 O8 2.957189 1_555
Na6 O97 2.398433 1_555
Na6 O138 2.400314 1_655
Na6 O101 2.508756 1_555
Na6 O25 2.557580 1_555
Na6 O140 2.591199 1_655
Na6 O66 2.768978 1_655
Na6 O14 2.823497 1_655
Na6 O11 2.902426 1_555
Na7 O96 2.325343 1_555
Na7 O100 2.430724 1_555
Na7 O139 2.431994 1_555
Na7 O141 2.493191 1_555
Na7 O67 2.635894 1_555
Na7 O24 2.689609 1_555
Na8 O98 2.379073 1_555
Na8 O96 2.445441 1_555
Na8 O26 2.502859 1_555
Na8 O140 2.529973 1_545
Na8 O142 2.604458 1_545
Na8 O68 2.741991 1_545
Na8 O6 2.889371 1_555
Na8 O16 2.934026 1_545
Na9 O141 2.377677 1_555
Na9 O97 2.390646 1_565
Na9 O143 2.452414 1_555
Na9 O99 2.454218 1_565
Na9 O27 2.636021 1_565
Na9 O69 2.677605 1_555
Na9 O17 2.858488 1_555
Na9 O7 2.906932 1_565
Na10 O130 2.442004 1_555
Na10 O128 2.466316 1_555
Na10 O86 2.477878 1_555
Na10 O85 2.477883 1_455
Na10 O56 2.620901 1_555
Na10 O14 2.693925 1_555
Na10 O42 2.852073 1_555
Na10 O28 2.931076 1_555
Na11 O89 2.372725 1_455
Na11 O126 2.448032 1_555
Na11 O86 2.460269 1_565
Na11 O130 2.475281 1_555
Na11 O58 2.712149 1_555
Na11 O16 2.728932 1_555
Na11 O25 2.759281 1_455
Na11 O45 2.867999 1_455
Na12 O110 2.372806 1_555
Na12 O81 2.380554 1_555
Na12 O108 2.506096 1_555
Na12 O82 2.519091 1_555
Na12 O38 2.667725 1_556
Na12 O8 2.736752 1_555
Na12 O53 2.789658 1_555
Na12 O67 2.840055 1_555
Na13 O80 2.334479 1_655
Na13 O111 2.476832 1_555
Na13 O83 2.493738 1_555
Na13 O109 2.574377 1_555
Na13 O52 2.675625 1_655
Na13 O39 2.716599 1_556
Na13 O9 2.765497 1_555
Na13 O66 2.854736 1_655
Na14 O78 2.385517 1_655
Na14 O83 2.425363 1_545
Na14 O113 2.433598 1_555
Na14 O111 2.563236 1_555
Na14 O11 2.654057 1_555
Na14 O41 2.763912 1_556
Na14 O69 2.811711 1_545
Na14 O49 2.818235 1_545
Na15 O77 2.343201 1_555
Na15 O118 2.459430 1_555
Na15 O74 2.514254 1_545
Na15 O114 2.591208 1_555
Na15 O57 2.689109 1_555
Na15 O46 2.712877 1_555
Na15 O4 2.749097 1_555
Na15 O61 2.856268 1_555
Na16 O72 2.342371 1_545
Na16 O76 2.430479 1_555
Na16 O114 2.439531 1_555
Na16 O116 2.567323 1_555
Na16 O42 2.719667 1_555
Na16 O0 2.732496 1_555
Na16 O58 2.799463 1_545
Na16 O62 2.804866 1_545
Na17 O73 2.387441 1_555
Na17 O116 2.424145 1_555
Na17 O74 2.443579 1_555
Na17 O118 2.517224 1_555
Na17 O2 2.645758 1_555
Na17 O44 2.751151 1_555
Na17 O64 2.827667 1_555
Na17 O54 2.846634 1_555
Na18 O85 2.458407 1_565
Na18 O76 2.562039 1_665
Na18 O86 2.563342 1_665
Na18 O75 2.575363 1_555
Na18 O89 2.596725 1_555
Na18 O72 2.599958 1_655
Na19 O73 2.527768 1_545
Na19 O77 2.548578 1_555
Na19 O87 2.550923 1_555
Na19 O74 2.595469 1_545
Na19 O84 2.644560 1_555
Na19 O88 2.648073 1_545
Na20 O78 2.532959 1_555
Na20 O94 2.546228 1_556
Na20 O80 2.562774 1_545
Na20 O83 2.621716 1_445
Na20 O93 2.634963 1_456
Na20 O91 2.638461 1_446
Na21 O90 2.494754 1_545
Na21 O95 2.544351 1_555
Na21 O92 2.549496 1_555
Na21 O79 2.551644 1_554
Na21 O81 2.574947 1_544
Na21 O82 2.685348 1_544
Na22 O96 2.433475 1_555
Na22 O98 2.465116 1_555
Na22 O112 2.535379 1_555
Na22 O100 2.569900 1_555
Na22 O110 2.632838 1_555
Na22 O108 2.653972 1_555
Na23 O97 2.475976 1_555
Na23 O101 2.560634 1_555
Na23 O99 2.597785 1_555
Na23 O109 2.619210 1_555
Na23 O113 2.632107 1_555
Na23 O111 2.635857 1_555
Na24 O102 2.438118 1_555
Na24 O104 2.540487 1_555
Na24 O118 2.573701 1_555
Na24 O116 2.613465 1_555
Na24 O114 2.616850 1_555
Na24 O106 2.648472 1_555
Na25 O103 2.526100 1_555
Na25 O107 2.529056 1_555
Na25 O105 2.539252 1_555
Na25 O117 2.547559 1_555
Na25 O119 2.586878 1_555
Na25 O115 2.629508 1_555
Na26 O134 2.512366 1_555
Na26 O124 2.553025 1_555
Na26 O136 2.566978 1_555
Na26 O120 2.571843 1_555
Na26 O122 2.594128 1_555
Na26 O132 2.645430 1_555
Na27 O123 2.465848 1_555
Na27 O125 2.563952 1_555
Na27 O133 2.570039 1_555
Na27 O121 2.602541 1_555
Na27 O135 2.603310 1_555
Na27 O137 2.636606 1_555
Na28 O126 2.484564 1_555
Na28 O142 2.527515 1_555
Na28 O130 2.559716 1_555
Na28 O128 2.572230 1_555
Na28 O138 2.592256 1_555
Na28 O140 2.622996 1_555
Na29 O143 2.509738 1_555
Na29 O129 2.547952 1_555
Na29 O141 2.553067 1_555
Na29 O127 2.565499 1_555
Na29 O131 2.590398 1_555
Na29 O139 2.668184 1_555
Mg0 O26 1.962857 1_555
Mg0 O96 2.054342 1_555
Mg0 O98 2.056432 1_555
Mg0 O100 2.072263 1_555
Mg0 O24 2.077496 1_555
Mg0 O28 2.159747 1_555
Mg1 O25 1.942763 1_555
Mg1 O27 2.042229 1_555
Mg1 O29 2.076630 1_555
Mg1 O97 2.104557 1_555
Mg1 O99 2.199012 1_555
Mg1 O101 2.206192 1_555
Mg2 O30 1.927955 1_555
Mg2 O34 2.064277 1_555
Mg2 O32 2.070338 1_555
Mg2 O102 2.116748 1_555
Mg2 O104 2.189962 1_555
Mg2 O106 2.218637 1_555
Mg3 O107 2.021259 1_555
Mg3 O103 2.045899 1_555
Mg3 O105 2.053748 1_555
Mg3 O31 2.067402 1_555
Mg3 O35 2.092465 1_555
Mg3 O33 2.109522 1_555
Mg4 O50 1.919519 1_554
Mg4 O52 1.942572 1_554
Mg4 O48 2.105519 1_554
Mg4 O122 2.126943 1_555
Mg4 O124 2.167643 1_555
Mg4 O120 2.213846 1_555
Mg5 O59 1.914678 1_555
Mg5 O57 1.939296 1_555
Mg5 O55 2.116573 1_555
Mg5 O131 2.123908 1_555
Mg5 O129 2.172766 1_555
Mg5 O127 2.215619 1_555
O0 S0 1.497148 1_555
O0 Ti0 2.189422 1_445
O1 Si0 1.637069 1_545
O1 Ti1 1.832673 1_545
O2 Si1 1.630764 1_555
O2 Ti1 1.938702 1_555
O3 Si2 1.649300 1_555
O3 Ti0 1.842818 1_555
O4 S1 1.472627 1_555
O4 Ti1 2.245099 1_545
O5 Si3 1.646838 1_655
O5 Ti0 1.855651 1_545
O6 Si4 1.635770 1_555
O6 Ti2 1.843057 1_555
O7 S2 1.492177 1_555
O7 Ti3 2.102161 1_555
O8 Si5 1.643277 1_555
O8 Ti3 1.922907 1_565
O9 S3 1.469386 1_555
O9 Ti2 2.237622 1_665
O10 Si6 1.649831 1_545
O10 Ti3 1.823134 1_555
O11 Si7 1.634618 1_545
O11 Ti2 1.929259 1_655
O12 Si6 1.674908 1_555
O12 Ti5 1.816693 1_555
O13 Si7 1.662676 1_555
O13 Ti4 1.830727 1_565
O14 Si4 1.679125 1_555
O14 Ti4 1.857924 1_455
O15 S2 1.497302 1_555
O15 Ti5 2.084987 1_545
O16 S3 1.482032 1_455
O16 Ti4 2.278199 1_465
O17 Si5 1.692373 1_555
O17 Ti5 1.797162 1_555
O18 Si1 1.666342 1_555
O18 Ti7 1.803979 1_555
O19 Si2 1.678643 1_555
O19 Ti6 1.812183 1_565
O20 Si3 1.685673 1_555
O20 Ti6 1.798067 1_455
O21 S1 1.474187 1_555
O21 Ti7 2.290337 1_545
O22 S0 1.494738 1_565
O22 Ti6 2.118757 1_465
O23 Si0 1.665948 1_555
O23 Ti7 1.826979 1_555
O24 S4 1.473395 1_555
O25 Si8 1.598539 1_555
O26 Si9 1.583313 1_555
O27 S5 1.485211 1_555
O28 S6 1.471797 1_555
O29 S7 1.467885 1_555
O30 Si10 1.588098 1_555
O31 S8 1.472158 1_555
O32 S9 1.456597 1_555
O33 S10 1.466008 1_555
O34 S11 1.480076 1_555
O35 S12 1.472259 1_555
O36 S11 1.489866 1_555
O36 Ti8 2.140013 1_554
O37 S12 1.507173 1_555
O37 Ti9 2.060544 1_554
O38 Si10 1.670815 1_555
O38 Ti8 1.903209 1_554
O39 S8 1.511306 1_555
O39 Ti9 2.139657 1_554
O40 S9 1.529416 1_555
O40 Ti8 1.933983 1_554
O41 S10 1.488532 1_555
O41 Ti9 2.204187 1_554
O42 Si9 1.693734 1_555
O42 Ti10 1.874612 1_555
O43 S5 1.484927 1_555
O43 Ti11 2.161250 1_555
O44 S6 1.486546 1_555
O44 Ti10 2.195553 1_555
O45 S7 1.511453 1_555
O45 Ti11 2.055957 1_555
O46 S4 1.510314 1_555
O46 Ti10 2.161240 1_555
O47 Si8 1.648868 1_555
O47 Ti11 1.872926 1_555
O48 S13 1.451178 1_555
O49 Si11 1.617195 1_555
O49 Ti12 1.936162 1_556
O50 Si12 1.558121 1_555
O51 Si13 1.637716 1_555
O51 Ti12 1.814874 1_556
O52 Si14 1.578543 1_555
O53 Si15 1.621853 1_555
O53 Ti12 1.868475 1_556
O54 Si16 1.628759 1_555
O54 Ti13 1.889668 1_555
O55 S14 1.433518 1_555
O56 Si17 1.612911 1_555
O56 Ti13 1.959647 1_555
O57 Si18 1.575075 1_555
O58 Si19 1.654397 1_555
O58 Ti13 1.852144 1_555
O59 Si20 1.557912 1_555
O60 Si19 1.633233 1_555
O60 Ti14 1.943002 1_555
O61 Si20 1.686750 1_555
O61 Ti15 1.861850 1_555
O62 Si16 1.643409 1_555
O62 Ti14 1.887493 1_555
O63 S14 1.508527 1_555
O63 Ti15 2.083116 1_555
O64 Si17 1.656023 1_555
O64 Ti14 1.859817 1_555
O65 Si18 1.712968 1_555
O65 Ti15 1.837539 1_555
O66 Si12 1.676254 1_555
O66 Ti16 1.883075 1_555
O67 Si13 1.642160 1_555
O67 Ti17 1.971848 1_555
O68 Si14 1.714535 1_555
O68 Ti16 1.831787 1_555
O69 Si15 1.658187 1_555
O69 Ti17 1.876036 1_555
O70 S13 1.505045 1_555
O70 Ti16 2.064929 1_555
O71 Si11 1.645067 1_555
O71 Ti17 1.853228 1_555
O72 Si19 1.641356 1_555
O72 Ti0 1.994610 1_455
O73 Si20 1.645951 1_555
O73 Ti1 1.855826 1_555
O74 Si16 1.610182 1_555
O74 Ti1 2.073529 1_555
O75 S14 1.511766 1_555
O75 Ti0 1.996344 1_555
O76 Si17 1.623398 1_555
O76 Ti0 2.014093 1_445
O77 Si18 1.648894 1_555
O77 Ti1 1.918030 1_545
O78 Si12 1.640837 1_555
O78 Ti2 1.864564 1_555
O79 Si13 1.626359 1_555
O79 Ti3 1.916007 1_555
O80 Si14 1.649880 1_555
O80 Ti2 1.921618 1_565
O81 Si15 1.615296 1_555
O81 Ti3 2.012367 1_565
O82 S13 1.509343 1_555
O82 Ti3 2.071481 1_565
O83 Si11 1.629499 1_555
O83 Ti2 2.070118 1_665
O84 S4 1.511002 1_555
O84 Ti5 2.199359 1_545
O85 Si8 1.668787 1_555
O85 Ti4 1.870424 1_555
O86 Si9 1.673945 1_555
O86 Ti4 2.069949 1_455
O87 S5 1.522666 1_555
O87 Ti5 2.118812 1_545
O88 S6 1.506751 1_555
O88 Ti5 2.063952 1_555
O89 S7 1.510780 1_555
O89 Ti4 2.226066 1_565
O90 Si10 1.692554 1_555
O90 Ti7 1.841084 1_555
O91 S8 1.505808 1_555
O91 Ti6 2.210455 1_565
O92 S9 1.490223 1_555
O92 Ti7 2.225008 1_545
O93 S10 1.530325 1_555
O93 Ti6 2.032215 1_555
O94 S11 1.519312 1_555
O94 Ti6 2.134146 1_455
O95 S12 1.487324 1_555
O95 Ti7 2.275800 1_545
O96 Si6 1.591628 1_545
O97 Si7 1.637680 1_545
O98 Si4 1.596953 1_555
O99 S2 1.476707 1_555
O100 Si5 1.594851 1_555
O101 S3 1.476839 1_555
O102 Si1 1.632758 1_555
O103 Si2 1.595597 1_555
O104 S1 1.477477 1_555
O105 Si3 1.593871 1_655
O106 S0 1.475857 1_555
O107 Si0 1.600071 1_545
O108 S13 1.486267 1_555
O108 Ti8 2.275843 1_555
O109 Si11 1.667819 1_555
O109 Ti9 1.838067 1_555
O110 Si13 1.661537 1_555
O110 Ti8 1.908434 1_555
O111 Si12 1.698022 1_655
O111 Ti9 1.901835 1_555
O112 Si14 1.647918 1_545
O112 Ti8 1.917376 1_555
O113 Si15 1.646908 1_545
O113 Ti9 1.887944 1_555
O114 Si16 1.662577 1_545
O114 Ti10 1.893521 1_555
O115 S14 1.489765 1_545
O115 Ti11 2.141565 1_555
O116 Si17 1.675285 1_555
O116 Ti10 1.919873 1_555
O117 Si18 1.646539 1_555
O117 Ti11 1.910213 1_555
O118 Si20 1.676560 1_555
O118 Ti10 1.984434 1_555
O119 Si19 1.636729 1_655
O119 Ti11 1.865478 1_555
O120 S11 1.474195 1_555
O121 S12 1.485492 1_555
O121 Ti12 2.201662 1_555
O122 S8 1.472289 1_455
O123 Si10 1.657396 1_555
O123 Ti12 1.891062 1_555
O124 S9 1.474514 1_565
O125 S10 1.473183 1_565
O125 Ti12 2.291744 1_555
O126 Si9 1.650265 1_565
O126 Ti13 1.937608 1_555
O127 S5 1.468314 1_565
O128 S6 1.485677 1_555
O128 Ti13 2.286523 1_555
O129 S7 1.462444 1_555
O130 Si8 1.659733 1_455
O130 Ti13 1.995596 1_555
O131 S4 1.470097 1_555
O132 S0 1.481555 1_565
O132 Ti14 2.282297 1_555
O133 Si0 1.641625 1_555
O133 Ti15 2.072018 1_555
O134 Si1 1.646526 1_555
O134 Ti14 1.943014 1_555
O135 Si2 1.638441 1_555
O135 Ti15 2.051349 1_555
O136 Si3 1.632339 1_555
O136 Ti14 2.069461 1_555
O137 S1 1.538634 1_555
O137 Ti15 2.144885 1_555
O138 Si4 1.645165 1_555
O138 Ti16 2.063936 1_555
O139 S2 1.477240 1_555
O139 Ti17 2.286045 1_555
O140 S3 1.531256 1_455
O140 Ti16 2.154614 1_555
O141 Si5 1.634726 1_555
O141 Ti17 2.086840 1_555
O142 Si6 1.641539 1_555
O142 Ti16 2.045031 1_555
O143 Si7 1.646724 1_555
O143 Ti17 1.943400 1_555
