# generated using pymatgen
data_TiGePd
_symmetry_space_group_name_H-M   'P 1'
_cell_length_a   3.84471038
_cell_length_b   6.40224810
_cell_length_c   7.55217648
_cell_angle_alpha   89.99749709
_cell_angle_beta   89.99999970
_cell_angle_gamma   89.99999967
_symmetry_Int_Tables_number   1
_chemical_formula_structural   TiGePd
_chemical_formula_sum   'Ti4 Ge4 Pd4'
_cell_volume   185.89523594
_cell_formula_units_Z   4
loop_
 _symmetry_equiv_pos_site_id
 _symmetry_equiv_pos_as_xyz
  1  'x, y, z'
loop_
 _atom_site_type_symbol
 _atom_site_label
 _atom_site_symmetry_multiplicity
 _atom_site_fract_x
 _atom_site_fract_y
 _atom_site_fract_z
 _atom_site_occupancy
  Ti  Ti0  1  0.75000003  0.46544598  0.31694270  1
  Ti  Ti1  1  0.25000006  0.53455029  0.68300019  1
  Ti  Ti2  1  0.74999999  0.96544606  0.18307041  1
  Ti  Ti3  1  0.25000007  0.03454660  0.81699546  1
  Ge  Ge0  1  0.74999997  0.75699324  0.87593843  1
  Ge  Ge1  1  0.24999996  0.74299635  0.37586824  1
  Ge  Ge2  1  0.24999998  0.24299237  0.12415606  1
  Ge  Ge3  1  0.74999995  0.25701003  0.62404462  1
  Pd  Pd0  1  0.24999995  0.14303186  0.43833565  1
  Pd  Pd1  1  0.25000000  0.64299425  0.06166286  1
  Pd  Pd2  1  0.75000005  0.35702062  0.93846248  1
  Pd  Pd3  1  0.74999998  0.85697134  0.56152290  1
loop_
_geom_bond_atom_site_label_1
_geom_bond_atom_site_label_2
_geom_bond_distance
_geom_bond_site_symmetry_2
Ge0 Pd3 2.459254 1_555
Ge0 Pd1 2.489055 1_556
Ge0 Pd1 2.489055 1_656
Ge0 Pd2 2.603875 1_555
Ge0 Ti3 2.655399 1_565
Ge0 Ti3 2.655399 1_665
Ge0 Ti2 2.676096 1_556
Ge0 Ti1 2.801239 1_555
Ge0 Ti1 2.801240 1_655
Ge1 Pd1 2.457815 1_555
Ge1 Pd3 2.488749 1_455
Ge1 Pd3 2.488749 1_555
Ge1 Pd0 2.604234 1_565
Ge1 Ti0 2.655390 1_455
Ge1 Ti0 2.655390 1_555
Ge1 Ti1 2.675973 1_555
Ge1 Ti2 2.800645 1_455
Ge1 Ti2 2.800645 1_555
Ge2 Pd0 2.457504 1_555
Ge2 Pd2 2.488978 1_454
Ge2 Pd2 2.488979 1_554
Ge2 Pd1 2.604017 1_555
Ge2 Ti2 2.655332 1_445
Ge2 Ti2 2.655332 1_545
Ge2 Ti3 2.676261 1_554
Ge2 Ti0 2.800679 1_455
Ge2 Ti0 2.800679 1_555
Ge3 Pd2 2.459379 1_555
Ge3 Pd0 2.488986 1_655
Ge3 Pd0 2.488986 1_555
Ge3 Pd3 2.604329 1_545
Ge3 Ti1 2.655384 1_555
Ge3 Ti1 2.655385 1_655
Ge3 Ti0 2.675744 1_555
Ge3 Ti3 2.801291 1_555
Ge3 Ti3 2.801291 1_655
Pd0 Pd3 2.813353 1_445
Pd0 Pd3 2.813353 1_545
Pd0 Ti3 2.942812 1_555
Pd0 Ti2 2.950379 1_445
Pd0 Ti2 2.950379 1_545
Pd0 Ti0 2.965905 1_455
Pd0 Ti0 2.965905 1_555
Pd0 Ti1 3.114100 1_555
Pd1 Pd2 2.813077 1_454
Pd1 Pd2 2.813077 1_554
Pd1 Ti1 2.942830 1_554
Pd1 Ti0 2.950294 1_455
Pd1 Ti0 2.950294 1_555
Pd1 Ti2 2.966162 1_555
Pd1 Ti2 2.966162 1_455
Pd1 Ti3 3.114158 1_564
Pd2 Ti0 2.941462 1_556
Pd2 Ti1 2.951148 1_555
Pd2 Ti1 2.951148 1_655
Pd2 Ti3 2.966400 1_555
Pd2 Ti3 2.966400 1_655
Pd2 Ti2 3.114006 1_546
Pd3 Ti2 2.941275 1_555
Pd3 Ti3 2.951376 1_565
Pd3 Ti3 2.951377 1_665
Pd3 Ti1 2.966132 1_555
Pd3 Ti1 2.966133 1_655
Pd3 Ti0 3.113758 1_555
