# generated using pymatgen
data_Na3Zr3Al(PO4)6
_symmetry_space_group_name_H-M   'P 1'
_cell_length_a   8.84891725
_cell_length_b   8.83730123
_cell_length_c   22.97343272
_cell_angle_alpha   90.00819633
_cell_angle_beta   89.99770083
_cell_angle_gamma   120.15588948
_symmetry_Int_Tables_number   1
_chemical_formula_structural   Na3Zr3Al(PO4)6
_chemical_formula_sum   'Na9 Zr9 Al3 P18 O72'
_cell_volume   1553.39519313
_cell_formula_units_Z   3
loop_
 _symmetry_equiv_pos_site_id
 _symmetry_equiv_pos_as_xyz
  1  'x, y, z'
loop_
 _atom_site_type_symbol
 _atom_site_label
 _atom_site_symmetry_multiplicity
 _atom_site_fract_x
 _atom_site_fract_y
 _atom_site_fract_z
 _atom_site_occupancy
  Na  Na0  1  0.36636281  0.36342005  0.24712332  1
  Na  Na1  1  0.63886126  0.63460692  0.74753130  1
  Na  Na2  1  0.97208466  0.30100199  0.41358758  1
  Na  Na3  1  0.00080932  0.99049829  0.49695260  1
  Na  Na4  1  0.99981736  0.99981437  0.00130685  1
  Na  Na5  1  0.66726328  0.32389275  0.83182390  1
  Na  Na6  1  0.66762399  0.33353372  0.32756738  1
  Na  Na7  1  0.33242796  0.67614674  0.16495527  1
  Na  Na8  1  0.32414109  0.66722154  0.66516217  1
  Zr  Zr0  1  0.00104854  0.00240419  0.85151494  1
  Zr  Zr1  1  0.00209181  0.00306607  0.64537897  1
  Zr  Zr2  1  0.99721407  0.99749394  0.14672058  1
  Zr  Zr3  1  0.66627798  0.33399104  0.98131040  1
  Zr  Zr4  1  0.66029553  0.33412993  0.48068479  1
  Zr  Zr5  1  0.33392762  0.66666705  0.02391775  1
  Zr  Zr6  1  0.33438041  0.66895081  0.52081565  1
  Zr  Zr7  1  0.33496539  0.67445903  0.31220900  1
  Zr  Zr8  1  0.32736282  0.66742593  0.81383633  1
  Al  Al0  1  0.99853134  0.99217409  0.34798439  1
  Al  Al1  1  0.66771745  0.32788638  0.68395187  1
  Al  Al2  1  0.67429292  0.33300922  0.18515697  1
  P  P0  1  0.29223190  0.00964401  0.25100296  1
  P  P1  1  0.71792770  0.70539226  0.25169041  1
  P  P2  1  0.98648745  0.28202862  0.25214060  1
  P  P3  1  0.30419648  0.29245008  0.74774123  1
  P  P4  1  0.99085996  0.69705866  0.74701214  1
  P  P5  1  0.70814701  0.01223070  0.74766423  1
  P  P6  1  0.94922829  0.33545155  0.58559487  1
  P  P7  1  0.38482297  0.04941838  0.58714415  1
  P  P8  1  0.66439351  0.61568124  0.58767239  1
  P  P9  1  0.94899059  0.61444118  0.08743591  1
  P  P10  1  0.66613733  0.05230778  0.08751866  1
  P  P11  1  0.38527125  0.33385994  0.08835296  1
  P  P12  1  0.62473455  0.66701083  0.91607728  1
  P  P13  1  0.04112856  0.37427335  0.91762490  1
  P  P14  1  0.33233796  0.95829172  0.91743553  1
  P  P15  1  0.63727748  0.95832427  0.41514299  1
  P  P16  1  0.32397038  0.36440814  0.41335033  1
  P  P17  1  0.04229102  0.67964970  0.41492750  1
  O  O0  1  0.20129010  0.03737342  0.30415366  1
  O  O1  1  0.83052062  0.79889563  0.30509834  1
  O  O2  1  0.96706573  0.17352694  0.30762238  1
  O  O3  1  0.21664339  0.18122071  0.80259839  1
  O  O4  1  0.95862217  0.78178796  0.80159400  1
  O  O5  1  0.81980299  0.03670280  0.80275056  1
  O  O6  1  0.79233040  0.97108525  0.69582094  1
  O  O7  1  0.18396614  0.20799797  0.69532501  1
  O  O8  1  0.02300584  0.81740456  0.69476473  1
  O  O9  1  0.79424258  0.81845953  0.19696142  1
  O  O10  1  0.02848978  0.20307129  0.19880991  1
  O  O11  1  0.17981786  0.97631884  0.19634036  1
  O  O12  1  0.85596850  0.35651174  0.63831667  1
  O  O13  1  0.49803776  0.14173418  0.64010237  1
  O  O14  1  0.64341557  0.50610976  0.64224516  1
  O  O15  1  0.85749866  0.50125659  0.14036723  1
  O  O16  1  0.64354826  0.14288544  0.14050733  1
  O  O17  1  0.49497151  0.35564008  0.14287334  1
  O  O18  1  0.46558441  0.30926505  0.03199833  1
  O  O19  1  0.84565445  0.53673689  0.03052203  1
  O  O20  1  0.69166750  0.15532758  0.03056277  1
  O  O21  1  0.46323431  0.15420633  0.53060449  1
  O  O22  1  0.69036403  0.53436931  0.53185099  1
  O  O23  1  0.84878082  0.30951514  0.52784214  1
  O  O24  1  0.53514992  0.69085454  0.96969204  1
  O  O25  1  0.15323311  0.46171028  0.97151838  1
  O  O26  1  0.30784233  0.84629933  0.97137569  1
  O  O27  1  0.54837672  0.84663598  0.47006188  1
  O  O28  1  0.29370965  0.45320444  0.46755716  1
  O  O29  1  0.15446731  0.70360061  0.47011879  1
  O  O30  1  0.12624566  0.63805989  0.36281733  1
  O  O31  1  0.51686335  0.87386483  0.36247842  1
  O  O32  1  0.35593374  0.48012113  0.35933455  1
  O  O33  1  0.12749376  0.48527904  0.86252097  1
  O  O34  1  0.35792195  0.87261763  0.86234707  1
  O  O35  1  0.51837976  0.64279359  0.85962619  1
  O  O36  1  0.02293096  0.83958396  0.40457762  1
  O  O37  1  0.82047171  0.98209449  0.40606625  1
  O  O38  1  0.15667394  0.18475214  0.40551801  1
  O  O39  1  0.02350389  0.19247410  0.91097092  1
  O  O40  1  0.16857239  0.97579599  0.91042452  1
  O  O41  1  0.80756034  0.83129836  0.91031753  1
  O  O42  1  0.97111049  0.17275643  0.59076552  1
  O  O43  1  0.20064897  0.02762724  0.59096754  1
  O  O44  1  0.82723214  0.80045747  0.59108374  1
  O  O45  1  0.97166143  0.79950434  0.09110018  1
  O  O46  1  0.82798363  0.02930179  0.09147484  1
  O  O47  1  0.19950290  0.17202714  0.09144845  1
  O  O48  1  0.68850016  0.17269492  0.73845606  1
  O  O49  1  0.48828988  0.31699346  0.73951566  1
  O  O50  1  0.82378495  0.51719699  0.73893915  1
  O  O51  1  0.68997523  0.51868417  0.24323984  1
  O  O52  1  0.82716227  0.30449815  0.24191702  1
  O  O53  1  0.47412313  0.17613289  0.24303079  1
  O  O54  1  0.64269589  0.50335850  0.92127485  1
  O  O55  1  0.85960204  0.35582716  0.92164743  1
  O  O56  1  0.49601871  0.14037317  0.92160083  1
  O  O57  1  0.66104858  0.14463321  0.42213404  1
  O  O58  1  0.48761642  0.34735396  0.42125480  1
  O  O59  1  0.86246474  0.50847125  0.42235855  1
  O  O60  1  0.36623812  0.49878984  0.08161094  1
  O  O61  1  0.13316144  0.63432697  0.08134105  1
  O  O62  1  0.50157581  0.86729845  0.08144119  1
  O  O63  1  0.36520521  0.86546124  0.58054519  1
  O  O64  1  0.49993128  0.63421914  0.58024623  1
  O  O65  1  0.13440315  0.49995104  0.57977439  1
  O  O66  1  0.31331917  0.84645014  0.25728642  1
  O  O67  1  0.52875886  0.67923072  0.25798996  1
  O  O68  1  0.15786370  0.46609591  0.25814557  1
  O  O69  1  0.32764509  0.47885690  0.75482484  1
  O  O70  1  0.15458308  0.67977806  0.75419445  1
  O  O71  1  0.52814071  0.84085661  0.75508052  1
loop_
_geom_bond_atom_site_label_1
_geom_bond_atom_site_label_2
_geom_bond_distance
_geom_bond_site_symmetry_2
Na0 O53 2.289793 1_555
Na0 O67 2.426292 1_555
Na0 O68 2.444040 1_555
Na0 O51 2.478563 1_555
Na0 O17 2.667238 1_555
Na0 O32 2.795074 1_555
Na0 O10 2.814620 1_555
Na0 O0 2.815105 1_555
Na1 O50 2.345008 1_555
Na1 O69 2.387119 1_555
Na1 O49 2.435160 1_555
Na1 O71 2.471093 1_555
Na1 O14 2.680828 1_555
Na1 O4 2.746415 1_555
Na1 O35 2.801922 1_555
Na1 O6 2.835709 1_555
Na2 O38 2.333178 1_655
Na2 O57 2.387930 1_555
Na2 O37 2.444080 1_545
Na2 O59 2.475862 1_555
Na2 O2 2.673245 1_555
Na2 O28 2.756820 1_655
Na2 O30 2.830588 1_655
Na2 O23 2.857978 1_555
Na3 O36 2.565555 1_555
Na3 O37 2.606309 1_455
Na3 O38 2.623662 1_565
Na3 O44 2.695416 1_455
Na3 O43 2.704967 1_565
Na3 O42 2.780733 1_465
Na4 O39 2.625293 1_664
Na4 O41 2.633535 1_554
Na4 O40 2.636724 1_654
Na4 O45 2.647444 1_555
Na4 O47 2.650371 1_665
Na4 O46 2.658690 1_565
Na5 O48 2.583227 1_555
Na5 O56 2.590734 1_555
Na5 O55 2.598500 1_555
Na5 O49 2.629108 1_555
Na5 O50 2.648331 1_555
Na5 O54 2.670409 1_555
Na6 O51 2.478952 1_555
Na6 O53 2.499000 1_555
Na6 O52 2.508827 1_555
Na6 O58 2.716571 1_555
Na6 O57 2.722768 1_555
Na6 O59 2.725119 1_555
Na7 O62 2.497066 1_555
Na7 O61 2.506192 1_555
Na7 O60 2.585042 1_555
Na7 O66 2.654762 1_555
Na7 O68 2.745053 1_555
Na7 O67 2.745885 1_555
Na8 O63 2.518223 1_555
Na8 O65 2.521511 1_555
Na8 O70 2.571782 1_555
Na8 O64 2.601130 1_555
Na8 O69 2.658540 1_555
Na8 O71 2.663994 1_555
Al0 O1 1.883286 1_555
Al0 O0 1.916388 1_665
Al0 O36 1.961745 1_655
Al0 O2 1.988634 1_565
Al0 O37 2.032209 1_555
Al0 O38 2.051432 1_665
Al1 O13 1.869091 1_555
Al1 O12 1.874734 1_555
Al1 O48 1.933017 1_555
Al1 O14 1.945687 1_555
Al1 O50 1.995030 1_555
Al1 O49 2.001480 1_555
Al2 O15 1.864464 1_555
Al2 O16 1.868012 1_555
Al2 O17 1.954630 1_555
Al2 O52 1.984031 1_555
Al2 O51 2.064663 1_555
Al2 O53 2.088137 1_555
O0 P0 1.548093 1_555
O1 P1 1.534130 1_555
O2 P2 1.551883 1_555
O3 P3 1.545913 1_555
O3 Zr0 2.090712 1_555
O4 P4 1.558431 1_555
O4 Zr0 2.126349 1_665
O5 P5 1.552374 1_555
O5 Zr0 2.099485 1_655
O6 P5 1.541951 1_565
O6 Zr1 2.083493 1_665
O7 P3 1.530046 1_555
O7 Zr1 2.063437 1_555
O8 P4 1.532687 1_455
O8 Zr1 2.078257 1_565
O9 P1 1.535459 1_555
O9 Zr2 2.051008 1_555
O10 P2 1.544797 1_455
O10 Zr2 2.074472 1_445
O11 P0 1.535873 1_565
O11 Zr2 2.061417 1_455
O12 P6 1.528676 1_555
O13 P7 1.525802 1_555
O14 P8 1.537417 1_555
O15 P9 1.523579 1_555
O16 P10 1.524155 1_555
O17 P11 1.536383 1_555
O18 P11 1.543859 1_555
O18 Zr3 2.041486 1_554
O19 P9 1.544745 1_555
O19 Zr3 2.037184 1_554
O20 P10 1.544561 1_555
O20 Zr3 2.044658 1_554
O21 P7 1.543005 1_555
O21 Zr4 2.024556 1_555
O22 P8 1.542520 1_555
O22 Zr4 2.027383 1_555
O23 P6 1.548629 1_555
O23 Zr4 2.089879 1_555
O24 P12 1.535451 1_555
O24 Zr5 2.094187 1_556
O25 P13 1.530938 1_555
O25 Zr5 2.091940 1_556
O26 P14 1.531958 1_555
O26 Zr5 2.097396 1_556
O27 P15 1.550823 1_555
O27 Zr6 2.103317 1_555
O28 P16 1.564964 1_555
O28 Zr6 2.138152 1_555
O29 P17 1.557793 1_555
O29 Zr6 2.115389 1_555
O30 P17 1.547354 1_555
O30 Zr7 2.066265 1_555
O31 P15 1.535280 1_555
O31 Zr7 2.044421 1_555
O32 P16 1.541212 1_555
O32 Zr7 2.115840 1_555
O33 P13 1.547905 1_555
O33 Zr8 2.027334 1_555
O34 P14 1.548574 1_555
O34 Zr8 2.027345 1_555
O35 P12 1.552759 1_555
O35 Zr8 2.093076 1_555
O36 P17 1.525426 1_555
O37 P15 1.540562 1_555
O38 P16 1.543742 1_555
O39 P13 1.541781 1_555
O39 Zr0 2.095382 1_555
O40 P14 1.541153 1_555
O40 Zr0 2.105911 1_565
O41 P12 1.543651 1_555
O41 Zr0 2.107637 1_665
O42 P6 1.548741 1_555
O42 Zr1 2.076478 1_655
O43 P7 1.544514 1_555
O43 Zr1 2.076896 1_555
O44 P8 1.544294 1_555
O44 Zr1 2.090929 1_665
O45 P9 1.546732 1_555
O45 Zr2 2.084994 1_555
O46 P10 1.547014 1_555
O46 Zr2 2.086995 1_545
O47 P11 1.546170 1_555
O47 Zr2 2.102861 1_445
O48 P5 1.527641 1_555
O49 P3 1.543203 1_555
O50 P4 1.544526 1_555
O51 P1 1.552811 1_555
O52 P2 1.537400 1_555
O53 P0 1.552317 1_555
O54 P12 1.536926 1_555
O54 Zr3 2.121435 1_555
O55 P13 1.533709 1_655
O55 Zr3 2.123839 1_555
O56 P14 1.534473 1_545
O56 Zr3 2.118657 1_555
O57 P15 1.559764 1_545
O57 Zr4 2.150431 1_555
O58 P16 1.540116 1_555
O58 Zr4 2.095760 1_555
O59 P17 1.559238 1_655
O59 Zr4 2.144954 1_555
O60 P11 1.556750 1_555
O60 Zr5 2.113348 1_555
O61 P9 1.555214 1_455
O61 Zr5 2.113756 1_555
O62 P10 1.555972 1_565
O62 Zr5 2.108942 1_555
O63 P7 1.553177 1_565
O63 Zr6 2.120518 1_555
O64 P8 1.553527 1_555
O64 Zr6 2.134579 1_555
O65 P6 1.556585 1_455
O65 Zr6 2.131118 1_555
O66 P0 1.551135 1_565
O66 Zr7 2.057186 1_555
O67 P1 1.577221 1_555
O67 Zr7 2.102673 1_555
O68 P2 1.576808 1_455
O68 Zr7 2.118830 1_555
O69 P3 1.561969 1_555
O69 Zr8 2.149065 1_555
O70 P4 1.540066 1_455
O70 Zr8 2.096372 1_555
O71 P5 1.560842 1_565
O71 Zr8 2.142933 1_555
