# generated using pymatgen
data_HfScP(SO6)2
_symmetry_space_group_name_H-M   'P 1'
_cell_length_a   8.88392355
_cell_length_b   8.87582194
_cell_length_c   22.87978501
_cell_angle_alpha   90.06923847
_cell_angle_beta   90.00000000
_cell_angle_gamma   120.03019892
_symmetry_Int_Tables_number   1
_chemical_formula_structural   HfScP(SO6)2
_chemical_formula_sum   'Hf6 Sc6 P6 S12 O72'
_cell_volume   1561.93624720
_cell_formula_units_Z   6
loop_
 _symmetry_equiv_pos_site_id
 _symmetry_equiv_pos_as_xyz
  1  'x, y, z'
loop_
 _atom_site_type_symbol
 _atom_site_label
 _atom_site_symmetry_multiplicity
 _atom_site_fract_x
 _atom_site_fract_y
 _atom_site_fract_z
 _atom_site_occupancy
  Hf  Hf0  1  0.00181456  0.99951220  0.64415640  1
  Hf  Hf1  1  0.99769764  0.99951220  0.14415640  1
  Hf  Hf2  1  0.66405288  0.33162850  0.97751184  1
  Hf  Hf3  1  0.66757662  0.33162850  0.47751184  1
  Hf  Hf4  1  0.34102808  0.66047049  0.31086423  1
  Hf  Hf5  1  0.31944140  0.66047049  0.81086423  1
  Sc  Sc0  1  0.99962069  0.99803660  0.35516457  1
  Sc  Sc1  1  0.99841591  0.99803660  0.85516457  1
  Sc  Sc2  1  0.68233340  0.34137760  0.68850366  1
  Sc  Sc3  1  0.65904520  0.34137760  0.18850366  1
  Sc  Sc4  1  0.32763673  0.65120979  0.02184610  1
  Sc  Sc5  1  0.32357205  0.65120979  0.52184610  1
  P  P0  1  0.71562800  0.71287879  0.25043361  1
  P  P1  1  0.99725080  0.71287879  0.75043361  1
  P  P2  1  0.95535871  0.33334394  0.58347681  1
  P  P3  1  0.37798623  0.33334394  0.08347681  1
  P  P4  1  0.04311998  0.37405527  0.91718126  1
  P  P5  1  0.33093430  0.37405527  0.41718126  1
  S  S0  1  0.28961895  -0.00023337  0.25047867  1
  S  S1  1  0.99662445  0.28810618  0.25026400  1
  S  S2  1  0.29148173  0.28810618  0.75026400  1
  S  S3  1  0.71014768  -0.00023337  0.75047867  1
  S  S4  1  0.37946804  0.04310232  0.58387055  1
  S  S5  1  0.66483701  0.62153429  0.58370155  1
  S  S6  1  0.95669829  0.62153429  0.08370155  1
  S  S7  1  0.66363528  0.04310232  0.08387055  1
  S  S8  1  0.62261509  0.66840464  0.91671697  1
  S  S9  1  0.33153200  0.95391395  0.91732802  1
  S  S10  1  0.62238095  0.95391395  0.41732802  1
  S  S11  1  0.04578855  0.66840464  0.41671697  1
  O  O0  1  0.21007238  0.02941020  0.30220918  1
  O  O1  1  0.82647588  0.79921737  0.30442322  1
  O  O2  1  0.97201955  0.18168806  0.30216408  1
  O  O3  1  0.20966851  0.18168806  0.80216408  1
  O  O4  1  0.97274149  0.79921737  0.80442322  1
  O  O5  1  0.81933782  0.02941020  0.80220918  1
  O  O6  1  0.79187326  0.97021276  0.69766390  1
  O  O7  1  0.17809676  0.20918350  0.69761394  1
  O  O8  1  0.02923981  0.82928498  0.69568412  1
  O  O9  1  0.80004517  0.82928498  0.19568412  1
  O  O10  1  0.03108674  0.20918350  0.19761394  1
  O  O11  1  0.17833950  0.97021276  0.19766390  1
  O  O12  1  0.86922716  0.36083444  0.63711958  1
  O  O13  1  0.48479141  0.12507282  0.63587400  1
  O  O14  1  0.63614646  0.51375947  0.63552803  1
  O  O15  1  0.87761401  0.51375947  0.13552803  1
  O  O16  1  0.64028241  0.12507282  0.13587400  1
  O  O17  1  0.49160828  0.36083444  0.13711958  1
  O  O18  1  0.46570345  0.30346298  0.02907447  1
  O  O19  1  0.84506320  0.54192111  0.03101351  1
  O  O20  1  0.69719435  0.15544012  0.03092903  1
  O  O21  1  0.45824677  0.15544012  0.53092903  1
  O  O22  1  0.69685891  0.54192111  0.53101351  1
  O  O23  1  0.83776052  0.30346298  0.52907447  1
  O  O24  1  0.54390418  0.69668621  0.96890088  1
  O  O25  1  0.15788084  0.46333070  0.97037121  1
  O  O26  1  0.30646069  0.84825192  0.96924173  1
  O  O27  1  0.54179023  0.84825192  0.46924173  1
  O  O28  1  0.30544886  0.46333070  0.47037121  1
  O  O29  1  0.15278103  0.69668621  0.46890088  1
  O  O30  1  0.12498867  0.63739635  0.36407840  1
  O  O31  1  0.51087531  0.87586053  0.36429818  1
  O  O32  1  0.36297318  0.49424181  0.36283904  1
  O  O33  1  0.13126763  0.49424181  0.86283904  1
  O  O34  1  0.36498422  0.87586053  0.86429818  1
  O  O35  1  0.51240668  0.63739635  0.86407840  1
  O  O36  1  0.02350069  0.81946839  0.40836706  1
  O  O37  1  0.79526229  0.97678843  0.40804416  1
  O  O38  1  0.17349484  0.19616388  0.40581887  1
  O  O39  1  0.02266904  0.19616388  0.90581887  1
  O  O40  1  0.18152614  0.97678843  0.90804416  1
  O  O41  1  0.79596770  0.81946839  0.90836706  1
  O  O42  1  0.97454727  0.17093827  0.59395818  1
  O  O43  1  0.20415390  0.02698932  0.59162020  1
  O  O44  1  0.82302183  0.79641861  0.59182415  1
  O  O45  1  0.97339678  0.79641861  0.09182415  1
  O  O46  1  0.82283542  0.02698932  0.09162020  1
  O  O47  1  0.19639100  0.17093827  0.09395818  1
  O  O48  1  0.68814075  0.15084706  0.74138370  1
  O  O49  1  0.46275153  0.30859986  0.74056823  1
  O  O50  1  0.84096377  0.53240536  0.74080717  1
  O  O51  1  0.69144259  0.53240536  0.24080717  1
  O  O52  1  0.84584933  0.30859986  0.24056823  1
  O  O53  1  0.46270731  0.15084706  0.24138370  1
  O  O54  1  0.64075314  0.51098751  0.92532090  1
  O  O55  1  0.86304305  0.35870503  0.92736979  1
  O  O56  1  0.48990761  0.12963820  0.92486874  1
  O  O57  1  0.63973158  0.12963820  0.42486874  1
  O  O58  1  0.49566298  0.35870503  0.42736979  1
  O  O59  1  0.87023536  0.51098751  0.42532090  1
  O  O60  1  0.35805620  0.49238615  0.07405077  1
  O  O61  1  0.13016493  0.64566045  0.07468833  1
  O  O62  1  0.51333569  0.87109136  0.07387776  1
  O  O63  1  0.35775467  0.87109136  0.57387776  1
  O  O64  1  0.51549452  0.64566045  0.57468833  1
  O  O65  1  0.13432895  0.49238615  0.57405077  1
  O  O66  1  0.30548828  0.84225546  0.25914797  1
  O  O67  1  0.53264151  0.69435425  0.25923196  1
  O  O68  1  0.15464475  0.46370588  0.25852734  1
  O  O69  1  0.30906013  0.46370588  0.75852734  1
  O  O70  1  0.16171174  0.69435425  0.75923196  1
  O  O71  1  0.53676618  0.84225546  0.75914797  1
loop_
_geom_bond_atom_site_label_1
_geom_bond_atom_site_label_2
_geom_bond_distance
_geom_bond_site_symmetry_2
Hf0 O42 2.016441 1_465
Hf0 O8 2.026048 1_555
Hf0 O43 2.073038 1_565
Hf0 O44 2.082059 1_455
Hf0 O7 2.118789 1_565
Hf0 O6 2.135485 1_455
Hf1 O47 2.016441 1_665
Hf1 O9 2.026048 1_555
Hf1 O46 2.073038 1_565
Hf1 O45 2.082059 1_555
Hf1 O10 2.118789 1_665
Hf1 O11 2.135485 1_655
Hf2 O55 2.018540 1_555
Hf2 O18 2.029569 1_556
Hf2 O56 2.068101 1_555
Hf2 O54 2.082670 1_555
Hf2 O20 2.119289 1_556
Hf2 O19 2.135060 1_556
Hf3 O58 2.018540 1_555
Hf3 O23 2.029569 1_555
Hf3 O57 2.068101 1_555
Hf3 O59 2.082670 1_555
Hf3 O21 2.119289 1_555
Hf3 O22 2.135060 1_555
Hf4 O67 1.967789 1_555
Hf4 O32 1.980187 1_555
Hf4 O68 2.079956 1_555
Hf4 O31 2.129163 1_555
Hf4 O66 2.148872 1_555
Hf4 O30 2.194338 1_555
Hf5 O70 1.967789 1_555
Hf5 O33 1.980187 1_555
Hf5 O69 2.079956 1_555
Hf5 O34 2.129163 1_555
Hf5 O71 2.148872 1_555
Hf5 O35 2.194338 1_555
O0 S0 1.467942 1_555
O0 Sc0 2.126214 1_445
O1 P0 1.524888 1_555
O1 Sc0 2.026356 1_555
O2 S1 1.464949 1_555
O2 Sc0 2.143024 1_545
O3 S2 1.464949 1_555
O3 Sc1 2.143024 1_445
O4 P1 1.524888 1_555
O4 Sc1 2.026356 1_555
O5 S3 1.467942 1_555
O5 Sc1 2.126214 1_545
O6 S3 1.498672 1_565
O7 S2 1.499392 1_555
O8 P1 1.557771 1_455
O9 P0 1.557771 1_555
O10 S1 1.499392 1_455
O11 S0 1.498672 1_565
O12 P2 1.528905 1_555
O12 Sc2 1.970342 1_555
O13 S4 1.461868 1_555
O13 Sc2 2.199506 1_555
O14 S5 1.464514 1_555
O14 Sc2 2.147401 1_555
O15 S6 1.464514 1_555
O15 Sc3 2.147401 1_555
O16 S7 1.461868 1_555
O16 Sc3 2.199506 1_555
O17 P3 1.528905 1_555
O17 Sc3 1.970342 1_555
O18 P3 1.559804 1_555
O19 S6 1.494194 1_555
O20 S7 1.501892 1_555
O21 S4 1.501892 1_555
O22 S5 1.494194 1_555
O23 P2 1.559804 1_555
O24 S8 1.467132 1_555
O24 Sc4 2.132304 1_556
O25 P4 1.528861 1_555
O25 Sc4 1.979982 1_556
O26 S9 1.460675 1_555
O26 Sc4 2.208412 1_556
O27 S10 1.460675 1_555
O27 Sc5 2.208412 1_555
O28 P5 1.528861 1_555
O28 Sc5 1.979982 1_555
O29 S11 1.467132 1_555
O29 Sc5 2.132304 1_555
O30 S11 1.488059 1_555
O31 S10 1.498147 1_555
O32 P5 1.569767 1_555
O33 P4 1.569766 1_555
O34 S9 1.498147 1_555
O35 S8 1.488059 1_555
O36 S11 1.462818 1_555
O36 Sc0 2.092840 1_455
O37 S10 1.460553 1_555
O37 Sc0 2.110275 1_555
O38 P5 1.518383 1_555
O38 Sc0 2.024330 1_445
O39 P4 1.518387 1_555
O39 Sc1 2.024330 1_445
O40 S9 1.460544 1_555
O40 Sc1 2.110275 1_455
O41 S8 1.462823 1_555
O41 Sc1 2.092840 1_555
O42 P2 1.552815 1_555
O43 S4 1.501580 1_555
O44 S5 1.494928 1_555
O45 S6 1.494932 1_555
O46 S7 1.501571 1_555
O47 P3 1.552820 1_555
O48 S3 1.463827 1_555
O48 Sc2 2.102052 1_555
O49 S2 1.456188 1_555
O49 Sc2 2.177583 1_555
O50 P1 1.521593 1_555
O50 Sc2 1.973925 1_555
O51 P0 1.521597 1_555
O51 Sc3 1.973925 1_555
O52 S1 1.456180 1_555
O52 Sc3 2.177583 1_555
O53 S0 1.463832 1_555
O53 Sc3 2.102052 1_555
O54 S8 1.497637 1_555
O55 P4 1.553752 1_655
O56 S9 1.498306 1_545
O57 S10 1.498298 1_545
O58 P5 1.553769 1_555
O59 S11 1.497626 1_655
O60 P3 1.523635 1_555
O60 Sc4 1.967817 1_555
O61 S6 1.460502 1_455
O61 Sc4 2.110797 1_555
O62 S7 1.457674 1_565
O62 Sc4 2.172438 1_555
O63 S4 1.457667 1_565
O63 Sc5 2.172438 1_555
O64 S5 1.460519 1_555
O64 Sc5 2.110797 1_555
O65 P2 1.523625 1_455
O65 Sc5 1.967817 1_555
O66 S0 1.487174 1_565
O67 P0 1.562947 1_555
O68 S1 1.498332 1_455
O69 S2 1.498335 1_555
O70 P1 1.562938 1_455
O71 S3 1.487179 1_565
