# generated using pymatgen
data_NaMg2Nb2P3(SO8)3
_symmetry_space_group_name_H-M   'P 1'
_cell_length_a   8.75410502
_cell_length_b   8.75463907
_cell_length_c   22.65034134
_cell_angle_alpha   90.00991152
_cell_angle_beta   90.00123117
_cell_angle_gamma   120.01005675
_symmetry_Int_Tables_number   1
_chemical_formula_structural   NaMg2Nb2P3(SO8)3
_chemical_formula_sum   'Na3 Mg6 Nb6 P9 S9 O72'
_cell_volume   1503.18125701
_cell_formula_units_Z   3
loop_
 _symmetry_equiv_pos_site_id
 _symmetry_equiv_pos_as_xyz
  1  'x, y, z'
loop_
 _atom_site_type_symbol
 _atom_site_label
 _atom_site_symmetry_multiplicity
 _atom_site_fract_x
 _atom_site_fract_y
 _atom_site_fract_z
 _atom_site_occupancy
  Na  Na0  1  0.99105565  0.99986017  0.99958548  1
  Na  Na1  1  0.67557764  0.34289896  0.83504082  1
  Na  Na2  1  0.65982139  0.32874645  0.33988950  1
  Mg  Mg0  1  0.99309571  0.99468784  0.85532310  1
  Mg  Mg1  1  0.99386061  0.99419786  0.14868211  1
  Mg  Mg2  1  0.67888567  0.33909178  0.68516063  1
  Mg  Mg3  1  0.67400780  0.33592842  0.97877500  1
  Mg  Mg4  1  0.66764887  0.32571312  0.48012135  1
  Mg  Mg5  1  0.34493829  0.67310840  0.31064766  1
  Nb  Nb0  1  0.99871698  0.99540735  0.35656612  1
  Nb  Nb1  1  0.00126782  0.99803935  0.64337795  1
  Nb  Nb2  1  0.66046766  0.32423819  0.19140085  1
  Nb  Nb3  1  0.34110525  0.66665333  0.02402692  1
  Nb  Nb4  1  0.33377938  0.65713342  0.51808338  1
  Nb  Nb5  1  0.32450956  0.65842760  0.81137523  1
  P  P0  1  0.27721266  0.98725028  0.24845641  1
  P  P1  1  0.70901730  0.71508552  0.24796917  1
  P  P2  1  0.99162709  0.70930463  0.75248562  1
  P  P3  1  0.95096803  0.33587175  0.58338992  1
  P  P4  1  0.67729363  0.05195356  0.08093251  1
  P  P5  1  0.62604387  0.66523656  0.91624970  1
  P  P6  1  0.03962529  0.37149404  0.91804956  1
  P  P7  1  0.61864411  0.95971504  0.41411466  1
  P  P8  1  0.34126209  0.37842047  0.41261656  1
  S  S0  1  0.00744934  0.29163245  0.24943358  1
  S  S1  1  0.29146431  0.28402318  0.75107456  1
  S  S2  1  0.71228983  0.00372915  0.75126428  1
  S  S3  1  0.38331404  0.04576823  0.58376056  1
  S  S4  1  0.66466149  0.61712263  0.58346742  1
  S  S5  1  0.95328473  0.62432461  0.08196552  1
  S  S6  1  0.37564886  0.32569858  0.08219455  1
  S  S7  1  0.33334137  0.95712173  0.91691333  1
  S  S8  1  0.04297338  0.66095024  0.41502695  1
  O  O0  1  0.19958540  0.03402219  0.30495573  1
  O  O1  1  0.83493549  0.80040572  0.30450805  1
  O  O2  1  0.96433575  0.17475684  0.30313595  1
  O  O3  1  0.20848861  0.18063039  0.80350738  1
  O  O4  1  0.97434860  0.80093233  0.80572790  1
  O  O5  1  0.82131627  0.03177658  0.80301308  1
  O  O6  1  0.79462373  0.97209779  0.69698669  1
  O  O7  1  0.17810763  0.20651097  0.69669430  1
  O  O8  1  0.02581838  0.82972385  0.69532954  1
  O  O9  1  0.79701180  0.82173045  0.19428574  1
  O  O10  1  0.02667227  0.21091890  0.19625459  1
  O  O11  1  0.17988428  0.98021319  0.19343962  1
  O  O12  1  0.88057426  0.36769868  0.63958024  1
  O  O13  1  0.48349279  0.12085221  0.63764544  1
  O  O14  1  0.63307753  0.51465745  0.63705146  1
  O  O15  1  0.87470579  0.51198055  0.13573926  1
  O  O16  1  0.64000238  0.13665320  0.13773514  1
  O  O17  1  0.48883611  0.36334679  0.13636416  1
  O  O18  1  0.45883664  0.30612051  0.02953930  1
  O  O19  1  0.84644120  0.54310193  0.02959780  1
  O  O20  1  0.69251135  0.15884740  0.02726690  1
  O  O21  1  0.45053385  0.15294430  0.53107399  1
  O  O22  1  0.69975011  0.54815854  0.53031781  1
  O  O23  1  0.84399487  0.29749724  0.52806952  1
  O  O24  1  0.52586680  0.68926316  0.97171637  1
  O  O25  1  0.16344267  0.47502024  0.97133458  1
  O  O26  1  0.30694574  0.84332966  0.97001670  1
  O  O27  1  0.52996236  0.83690437  0.47147240  1
  O  O28  1  0.30558706  0.46566149  0.47119115  1
  O  O29  1  0.15579200  0.69499703  0.46997043  1
  O  O30  1  0.12373675  0.63662803  0.36305443  1
  O  O31  1  0.50610674  0.87067753  0.36176793  1
  O  O32  1  0.35836247  0.49098490  0.36107064  1
  O  O33  1  0.13997505  0.49614429  0.86148107  1
  O  O34  1  0.35929767  0.86897339  0.86299166  1
  O  O35  1  0.50267506  0.64548785  0.86181930  1
  O  O36  1  0.03133414  0.82767305  0.41060946  1
  O  O37  1  0.80484597  0.97095476  0.40709075  1
  O  O38  1  0.16627284  0.19437996  0.40709549  1
  O  O39  1  0.03666961  0.19879858  0.91042261  1
  O  O40  1  0.17358864  0.96895951  0.91094919  1
  O  O41  1  0.80126535  0.83422192  0.91237623  1
  O  O42  1  0.98338075  0.17291201  0.59700838  1
  O  O43  1  0.19757067  0.02242573  0.59362108  1
  O  O44  1  0.82223200  0.80293738  0.59284427  1
  O  O45  1  0.98264320  0.80276490  0.08934948  1
  O  O46  1  0.82962604  0.01997868  0.09036324  1
  O  O47  1  0.19811777  0.17730050  0.09036856  1
  O  O48  1  0.68444407  0.15344629  0.74218901  1
  O  O49  1  0.46767051  0.30976466  0.74145882  1
  O  O50  1  0.83763281  0.52544029  0.74290168  1
  O  O51  1  0.69892727  0.52540167  0.24025717  1
  O  O52  1  0.83737375  0.30523291  0.24330189  1
  O  O53  1  0.47128448  0.16800644  0.24169727  1
  O  O54  1  0.62951716  0.49522501  0.92222713  1
  O  O55  1  0.86444387  0.36568179  0.92043375  1
  O  O56  1  0.49340849  0.12881347  0.92179081  1
  O  O57  1  0.64931691  0.14318877  0.42450172  1
  O  O58  1  0.49698681  0.35523733  0.42630469  1
  O  O59  1  0.86565338  0.51251736  0.42477250  1
  O  O60  1  0.36138219  0.49257929  0.07612308  1
  O  O61  1  0.13297789  0.63816833  0.07417027  1
  O  O62  1  0.50041227  0.86355710  0.07301011  1
  O  O63  1  0.35105832  0.86315570  0.57491791  1
  O  O64  1  0.51090986  0.64768579  0.57552766  1
  O  O65  1  0.14383598  0.49583791  0.57144972  1
  O  O66  1  0.31029484  0.83989651  0.26067475  1
  O  O67  1  0.52725790  0.67905637  0.25964566  1
  O  O68  1  0.15198856  0.46664382  0.25963893  1
  O  O69  1  0.30609779  0.46440206  0.75679331  1
  O  O70  1  0.16734815  0.69722154  0.75987750  1
  O  O71  1  0.53506861  0.83871381  0.75777470  1
loop_
_geom_bond_atom_site_label_1
_geom_bond_atom_site_label_2
_geom_bond_distance
_geom_bond_site_symmetry_2
Na0 O41 2.520705 1_555
Na0 O46 2.550450 1_566
Na0 O39 2.564564 1_665
Na0 O45 2.643997 1_556
Na0 O40 2.662610 1_655
Na0 O47 2.666293 1_666
Na1 O55 2.486820 1_555
Na1 O54 2.525431 1_555
Na1 O50 2.579807 1_555
Na1 O56 2.632191 1_555
Na1 O48 2.703268 1_555
Na1 O49 2.713149 1_555
Na2 O57 2.484358 1_555
Na2 O58 2.499513 1_555
Na2 O59 2.574996 1_555
Na2 O53 2.706726 1_555
Na2 O52 2.750368 1_555
Na2 O51 2.754232 1_555
Mg0 O4 1.971550 1_555
Mg0 O41 2.025940 1_555
Mg0 O39 2.052685 1_665
Mg0 O5 2.063757 1_565
Mg0 O40 2.119149 1_655
Mg0 O3 2.124412 1_665
Mg1 O9 1.927225 1_555
Mg1 O11 1.973335 1_655
Mg1 O46 2.046340 1_565
Mg1 O10 2.073046 1_665
Mg1 O45 2.111645 1_555
Mg1 O47 2.155248 1_665
Mg2 O12 1.950333 1_555
Mg2 O50 2.008623 1_555
Mg2 O14 2.080324 1_555
Mg2 O48 2.095754 1_555
Mg2 O13 2.112965 1_555
Mg2 O49 2.153167 1_555
Mg3 O20 1.971744 1_556
Mg3 O19 2.038113 1_556
Mg3 O55 2.039394 1_555
Mg3 O54 2.069057 1_555
Mg3 O18 2.108737 1_556
Mg3 O56 2.141207 1_555
Mg4 O57 1.977128 1_555
Mg4 O23 2.001287 1_555
Mg4 O58 2.042305 1_555
Mg4 O21 2.087386 1_555
Mg4 O59 2.101417 1_555
Mg4 O22 2.148473 1_555
Mg5 O67 1.949757 1_555
Mg5 O31 1.970063 1_555
Mg5 O66 1.987158 1_555
Mg5 O32 2.012074 1_555
Mg5 O68 2.097677 1_555
Mg5 O30 2.154617 1_555
Nb0 O37 1.967891 1_555
Nb0 O1 1.977692 1_555
Nb0 O38 1.984723 1_665
Nb0 O0 1.994611 1_665
Nb0 O36 2.038709 1_655
Nb0 O2 2.119882 1_565
Nb1 O42 1.926594 1_465
Nb1 O43 1.975347 1_565
Nb1 O8 1.979789 1_555
Nb1 O44 2.001345 1_455
Nb1 O7 2.087773 1_565
Nb1 O6 2.094671 1_455
Nb2 O53 1.909480 1_555
Nb2 O51 1.961036 1_555
Nb2 O16 1.977775 1_555
Nb2 O52 2.016366 1_555
Nb2 O17 2.107921 1_555
Nb2 O15 2.173862 1_555
Nb3 O24 1.933655 1_554
Nb3 O62 1.934404 1_555
Nb3 O60 2.004382 1_555
Nb3 O25 2.011744 1_554
Nb3 O61 2.053634 1_555
Nb3 O26 2.107537 1_554
Nb4 O28 1.893261 1_555
Nb4 O27 1.959073 1_555
Nb4 O65 1.967719 1_555
Nb4 O64 2.057291 1_555
Nb4 O29 2.059594 1_555
Nb4 O63 2.158591 1_555
Nb5 O33 1.902887 1_555
Nb5 O70 1.958635 1_555
Nb5 O35 1.981822 1_555
Nb5 O69 2.040866 1_555
Nb5 O34 2.072418 1_555
Nb5 O71 2.110286 1_555
O0 P0 1.595422 1_545
O1 P1 1.609036 1_555
O2 S0 1.511000 1_655
O3 S1 1.449176 1_555
O4 P2 1.497239 1_555
O5 S2 1.452769 1_555
O6 S2 1.518945 1_565
O7 S1 1.512760 1_555
O8 P2 1.600573 1_455
O9 P1 1.491513 1_555
O10 S0 1.448158 1_555
O11 P0 1.493334 1_555
O12 P3 1.499630 1_555
O13 S3 1.453910 1_555
O14 S4 1.451375 1_555
O15 S5 1.499239 1_555
O16 P4 1.597993 1_555
O17 S6 1.506314 1_555
O18 S6 1.451538 1_555
O19 S5 1.456630 1_555
O20 P4 1.498914 1_555
O21 S3 1.448758 1_555
O22 S4 1.446866 1_555
O23 P3 1.498328 1_555
O24 P5 1.605045 1_555
O25 P6 1.571576 1_555
O26 S7 1.504240 1_555
O27 P7 1.616200 1_555
O28 P8 1.636874 1_555
O29 S8 1.522613 1_555
O30 S8 1.442752 1_555
O31 P7 1.488436 1_555
O32 P8 1.486443 1_555
O33 P6 1.626619 1_555
O34 S7 1.521162 1_555
O35 P5 1.590380 1_555
O36 S8 1.516455 1_555
O37 P7 1.591090 1_555
O38 P8 1.577743 1_555
O39 P6 1.509004 1_555
O40 S7 1.459364 1_555
O41 P5 1.509735 1_555
O42 P3 1.617429 1_555
O43 S3 1.550232 1_555
O44 S4 1.532771 1_555
O45 S5 1.460386 1_555
O46 P4 1.508548 1_555
O47 S6 1.455279 1_555
O48 S2 1.462654 1_555
O49 S1 1.459424 1_555
O50 P2 1.511528 1_555
O51 P1 1.627614 1_555
O52 S0 1.558042 1_655
O53 P0 1.650683 1_545
O54 P5 1.509933 1_555
O55 P6 1.509718 1_655
O56 S7 1.458796 1_545
O57 P7 1.508614 1_545
O58 P8 1.507476 1_555
O59 S8 1.459207 1_655
O60 S6 1.533481 1_555
O61 S5 1.526326 1_455
O62 P4 1.611024 1_565
O63 S3 1.491320 1_565
O64 S4 1.508572 1_555
O65 P3 1.587444 1_455
O66 P0 1.482723 1_555
O67 P1 1.482964 1_555
O68 S0 1.436168 1_555
O69 S1 1.524625 1_555
O70 P2 1.602591 1_455
O71 S2 1.507911 1_565
