# generated using pymatgen
data_MgMn2(CoO3)4
_symmetry_space_group_name_H-M   'P 1'
_cell_length_a   5.04517532
_cell_length_b   4.99979551
_cell_length_c   10.00536776
_cell_angle_alpha   96.74966829
_cell_angle_beta   93.33863606
_cell_angle_gamma   60.29711032
_symmetry_Int_Tables_number   1
_chemical_formula_structural   MgMn2(CoO3)4
_chemical_formula_sum   'Mg1 Mn2 Co4 O12'
_cell_volume   217.70285968
_cell_formula_units_Z   1
loop_
 _symmetry_equiv_pos_site_id
 _symmetry_equiv_pos_as_xyz
  1  'x, y, z'
loop_
 _atom_site_type_symbol
 _atom_site_label
 _atom_site_symmetry_multiplicity
 _atom_site_fract_x
 _atom_site_fract_y
 _atom_site_fract_z
 _atom_site_occupancy
  Mg  Mg0  1  1.00000000  0.08396215  0.25224003  1
  Mn  Mn0  1  0.00000000  0.01218756  0.98459271  1
  Mn  Mn1  1  0.00000000  0.49213579  0.50411896  1
  Co  Co0  1  0.33804955  0.34577320  0.00169883  1
  Co  Co1  1  0.33443492  0.82408458  0.50539074  1
  Co  Co2  1  0.66556508  0.15851950  0.50539074  1
  Co  Co3  1  0.66195045  0.68382275  0.00169883  1
  O  O0  1  1.00000000  0.18501177  0.60011747  1
  O  O1  1  0.00000000  0.35312456  0.10416298  1
  O  O2  1  1.00000000  0.65156531  0.90314960  1
  O  O3  1  0.33815786  0.98588455  0.89702412  1
  O  O4  1  1.00000000  0.81215013  0.40236026  1
  O  O5  1  0.31317013  0.12930841  0.39893240  1
  O  O6  1  0.33733078  0.51140034  0.59601519  1
  O  O7  1  0.30735314  0.73360708  0.10681772  1
  O  O8  1  0.69264686  0.04096022  0.10681772  1
  O  O9  1  0.66184214  0.32404241  0.89702412  1
  O  O10  1  0.68682987  0.44247855  0.39893240  1
  O  O11  1  0.66266922  0.84873112  0.59601519  1
loop_
_geom_bond_atom_site_label_1
_geom_bond_atom_site_label_2
_geom_bond_distance
_geom_bond_site_symmetry_2
Mg0 O1 2.115366 1_655
Mg0 O8 2.135848 1_555
Mg0 O7 2.135848 1_645
Mg0 O4 2.140734 1_545
Mg0 O5 2.169942 1_655
Mg0 O10 2.169942 1_555
Mn0 O2 1.889336 1_445
Mn0 O3 1.902703 1_545
Mn0 O9 1.902703 1_455
Mn0 O1 1.964074 1_556
Mn0 O8 1.969559 1_456
Mn0 O7 1.969559 1_546
Mn1 O0 1.904519 1_455
Mn1 O6 1.926262 1_555
Mn1 O11 1.926263 1_455
Mn1 O10 1.949178 1_455
Mn1 O5 1.949178 1_555
Mn1 O4 1.994878 1_455
Co0 O9 1.942656 1_554
Co0 O2 1.947548 1_454
Co0 O3 1.972487 1_544
Co0 O8 2.021139 1_555
Co0 O1 2.023323 1_555
Co0 O7 2.032784 1_555
Co1 O6 1.890898 1_555
Co1 O11 1.892288 1_555
Co1 O5 1.918710 1_565
Co1 O0 1.941251 1_465
Co1 O4 1.948301 1_455
Co1 O10 2.077734 1_555
Co2 O11 1.890898 1_545
Co2 O6 1.892288 1_555
Co2 O10 1.918710 1_555
Co2 O0 1.941251 1_555
Co2 O4 1.948301 1_545
Co2 O5 2.077734 1_555
Co3 O3 1.942656 1_554
Co3 O2 1.947548 1_554
Co3 O9 1.972487 1_554
Co3 O7 2.021139 1_555
Co3 O1 2.023324 1_655
Co3 O8 2.032784 1_565
