# generated using pymatgen
data_MgVFe(P2O7)2
_symmetry_space_group_name_H-M   'P 1'
_cell_length_a   5.06352962
_cell_length_b   8.15950295
_cell_length_c   7.05321866
_cell_angle_alpha   90.19938677
_cell_angle_beta   106.09591199
_cell_angle_gamma   90.17633401
_symmetry_Int_Tables_number   1
_chemical_formula_structural   MgVFe(P2O7)2
_chemical_formula_sum   'Mg1 V1 Fe1 P4 O14'
_cell_volume   279.98221621
_cell_formula_units_Z   1
loop_
 _symmetry_equiv_pos_site_id
 _symmetry_equiv_pos_as_xyz
  1  'x, y, z'
loop_
 _atom_site_type_symbol
 _atom_site_label
 _atom_site_symmetry_multiplicity
 _atom_site_fract_x
 _atom_site_fract_y
 _atom_site_fract_z
 _atom_site_occupancy
  Mg  Mg0  1  0.70460800  0.69461700  0.93967400  1
  V  V0  1  0.19124100  0.49345200  0.71586900  1
  Fe  Fe0  1  0.80597300  0.02431600  0.28675500  1
  P  P0  1  0.38478500  0.19360000  0.50521700  1
  P  P1  1  0.24467600  0.75922800  0.10832700  1
  P  P2  1  0.75907300  0.27974800  0.89500800  1
  P  P3  1  0.61384900  0.69330700  0.49555200  1
  O  O0  1  0.01582600  0.31764500  0.82840200  1
  O  O1  1  0.10678000  0.64279100  0.93399600  1
  O  O2  1  0.16335400  0.06069600  0.46905000  1
  O  O3  1  0.26980000  0.36631500  0.50179800  1
  O  O4  1  0.45989100  0.68814400  0.65873700  1
  O  O5  1  0.59111400  0.43933200  0.90836200  1
  O  O6  1  0.56441000  0.16090200  0.73194400  1
  O  O7  1  0.38505500  0.64266200  0.29138600  1
  O  O8  1  0.47381400  0.85825800  0.06042100  1
  O  O9  1  0.57070800  0.18079100  0.36916000  1
  O  O10  1  0.71229500  0.86536500  0.47251100  1
  O  O11  1  0.83771700  0.56478400  0.52583000  1
  O  O12  1  0.82912600  0.17925800  0.08147300  1
  O  O13  1  0.99651300  0.84469400  0.14630600  1
loop_
_geom_bond_atom_site_label_1
_geom_bond_atom_site_label_2
_geom_bond_distance
_geom_bond_site_symmetry_2
Mg0 O4 2.025343 1_555
Mg0 O1 2.092318 1_655
Mg0 O8 2.104142 1_556
Mg0 O13 2.142490 1_556
Mg0 O5 2.153363 1_555
Fe0 O2 1.928698 1_655
Fe0 O9 1.942982 1_555
Fe0 O12 1.953057 1_555
Fe0 O10 1.994070 1_545
Fe0 O13 2.142146 1_545
Fe0 O8 2.386471 1_545
O0 P2 1.530919 1_455
O0 V0 1.966648 1_555
O1 P1 1.553640 1_556
O1 V0 2.095160 1_555
O2 P0 1.526499 1_555
O3 P0 1.524176 1_555
O3 V0 1.959291 1_555
O4 P3 1.559463 1_555
O4 V0 2.198082 1_555
O5 P2 1.574190 1_555
O5 V0 2.150208 1_555
O6 P2 1.610116 1_555
O6 P0 1.629017 1_555
O7 P1 1.606480 1_555
O7 P3 1.629246 1_555
O8 P1 1.525378 1_555
O9 P0 1.522816 1_555
O10 P3 1.512631 1_555
O11 P3 1.518207 1_555
O11 V0 2.005288 1_655
O12 P2 1.509454 1_554
O13 P1 1.525713 1_655
