# generated using pymatgen
data_Na3Zn2Sn2P3(SO8)3
_symmetry_space_group_name_H-M   'P 1'
_cell_length_a   8.79293068
_cell_length_b   8.79257383
_cell_length_c   22.74769507
_cell_angle_alpha   90.22827303
_cell_angle_beta   89.56436350
_cell_angle_gamma   120.01281534
_symmetry_Int_Tables_number   1
_chemical_formula_structural   Na3Zn2Sn2P3(SO8)3
_chemical_formula_sum   'Na9 Zn6 Sn6 P9 S9 O72'
_cell_volume   1522.82164871
_cell_formula_units_Z   3
loop_
 _symmetry_equiv_pos_site_id
 _symmetry_equiv_pos_as_xyz
  1  'x, y, z'
loop_
 _atom_site_type_symbol
 _atom_site_label
 _atom_site_symmetry_multiplicity
 _atom_site_fract_x
 _atom_site_fract_y
 _atom_site_fract_z
 _atom_site_occupancy
  Na  Na0  1  0.66051990  0.68798451  0.08121493  1
  Na  Na1  1  0.33294625  0.29672085  0.91707000  1
  Na  Na2  1  0.33234176  0.03572057  0.41721579  1
  Na  Na3  1  0.99420454  0.00011847  0.49866177  1
  Na  Na4  1  0.00438033  0.99703202  0.99802456  1
  Na  Na5  1  0.67901669  0.33402931  0.83318429  1
  Na  Na6  1  0.67887742  0.34402670  0.33283431  1
  Na  Na7  1  0.31512827  0.65819854  0.16416508  1
  Na  Na8  1  0.33448496  0.67451053  0.66362448  1
  Zn  Zn0  1  0.99513653  0.00176462  0.34272284  1
  Zn  Zn1  1  0.99295868  0.99297304  0.84230749  1
  Zn  Zn2  1  0.67282439  0.34034634  0.98779244  1
  Zn  Zn3  1  0.66448111  0.33229026  0.48696651  1
  Zn  Zn4  1  0.31338297  0.65595086  0.02060718  1
  Zn  Zn5  1  0.33447859  0.67590925  0.52030957  1
  Sn  Sn0  1  0.00704417  0.00085923  0.65174931  1
  Sn  Sn1  1  0.01160596  0.00398214  0.15223698  1
  Sn  Sn2  1  0.66142407  0.32705473  0.68562720  1
  Sn  Sn3  1  0.66786406  0.33725762  0.18585963  1
  Sn  Sn4  1  0.33242367  0.66261530  0.31296980  1
  Sn  Sn5  1  0.33323717  0.67061790  0.81264025  1
  P  P0  1  0.29860492  0.00137207  0.25340746  1
  P  P1  1  0.70774784  0.70790693  0.25059033  1
  P  P2  1  0.99706849  0.29245492  0.25110392  1
  P  P3  1  0.29462830  0.29526821  0.75297871  1
  P  P4  1  0.99680216  0.70241222  0.75078326  1
  P  P5  1  0.70959295  0.00113338  0.75057296  1
  P  P6  1  0.37016261  0.03747614  0.58129712  1
  P  P7  1  0.96173764  0.62852391  0.08348773  1
  P  P8  1  0.37067146  0.33054610  0.08100732  1
  S  S0  1  0.96093857  0.33190692  0.58286161  1
  S  S1  1  0.66809725  0.62855206  0.58312972  1
  S  S2  1  0.66829345  0.04035347  0.08298061  1
  S  S3  1  0.62878337  0.67064496  0.91814958  1
  S  S4  1  0.03674073  0.37159771  0.91690404  1
  S  S5  1  0.33462614  0.96016866  0.91812648  1
  S  S6  1  0.62941369  0.95897956  0.41764424  1
  S  S7  1  0.33339288  0.37569828  0.41858096  1
  S  S8  1  0.03672328  0.66334248  0.41797030  1
  O  O0  1  0.22512126  0.03214681  0.31011409  1
  O  O1  1  0.81782466  0.78763476  0.30452160  1
  O  O2  1  0.96766510  0.18707659  0.30630973  1
  O  O3  1  0.22154083  0.19181199  0.80960908  1
  O  O4  1  0.96470758  0.77762763  0.80609598  1
  O  O5  1  0.81562819  0.03278249  0.80561590  1
  O  O6  1  0.78695914  0.96746708  0.69323178  1
  O  O7  1  0.18182392  0.21669248  0.69683181  1
  O  O8  1  0.03323922  0.81343944  0.69386497  1
  O  O9  1  0.78178725  0.81378215  0.19180311  1
  O  O10  1  0.03153960  0.21608303  0.19382968  1
  O  O11  1  0.18542644  0.96507751  0.19730822  1
  O  O12  1  0.88171742  0.36111976  0.63761379  1
  O  O13  1  0.48459439  0.12581768  0.63685656  1
  O  O14  1  0.64472669  0.52342449  0.63785379  1
  O  O15  1  0.87935647  0.51573865  0.13980185  1
  O  O16  1  0.64122003  0.11890486  0.13769744  1
  O  O17  1  0.48981541  0.36253580  0.13590866  1
  O  O18  1  0.44396865  0.29655531  0.02421283  1
  O  O19  1  0.84364446  0.55385440  0.02968255  1
  O  O20  1  0.69861272  0.14732123  0.03054871  1
  O  O21  1  0.44503661  0.14486473  0.52467676  1
  O  O22  1  0.70132651  0.55187569  0.53064316  1
  O  O23  1  0.85343813  0.30318229  0.53059986  1
  O  O24  1  0.54507191  0.69129790  0.97187603  1
  O  O25  1  0.15195574  0.45511894  0.96788250  1
  O  O26  1  0.31290491  0.85134591  0.96941082  1
  O  O27  1  0.54366593  0.85037726  0.46958452  1
  O  O28  1  0.31133983  0.46306382  0.47008853  1
  O  O29  1  0.15163247  0.69339245  0.46870771  1
  O  O30  1  0.11677104  0.63460634  0.36217128  1
  O  O31  1  0.51235726  0.87925697  0.36336987  1
  O  O32  1  0.36155265  0.48176362  0.36271731  1
  O  O33  1  0.11806692  0.48149233  0.86180795  1
  O  O34  1  0.36208856  0.88126969  0.86207103  1
  O  O35  1  0.50993467  0.63592325  0.86474022  1
  O  O36  1  0.02679114  0.82653373  0.41149539  1
  O  O37  1  0.80301607  0.97593648  0.41017314  1
  O  O38  1  0.17625145  0.19765470  0.41293654  1
  O  O39  1  0.02696808  0.19856137  0.91047004  1
  O  O40  1  0.17685765  0.97997879  0.91260166  1
  O  O41  1  0.80216295  0.82765066  0.91065406  1
  O  O42  1  0.97108397  0.16595477  0.58951564  1
  O  O43  1  0.18534560  0.02572851  0.58877843  1
  O  O44  1  0.83002951  0.80810249  0.58927686  1
  O  O45  1  0.96638110  0.81090246  0.09088538  1
  O  O46  1  0.82897269  0.02009334  0.08922637  1
  O  O47  1  0.18497952  0.16467801  0.08922472  1
  O  O48  1  0.68845661  0.16575402  0.74335991  1
  O  O49  1  0.47986656  0.31620029  0.74426538  1
  O  O50  1  0.83276113  0.51717650  0.74189509  1
  O  O51  1  0.68504290  0.52143963  0.24450680  1
  O  O52  1  0.83242238  0.31216541  0.24343892  1
  O  O53  1  0.48257421  0.16560199  0.24381890  1
  O  O54  1  0.63801720  0.50555799  0.91977543  1
  O  O55  1  0.86207392  0.35500019  0.92219994  1
  O  O56  1  0.49353990  0.13851080  0.92054611  1
  O  O57  1  0.63965224  0.13388576  0.42109446  1
  O  O58  1  0.49269133  0.35616387  0.42071459  1
  O  O59  1  0.86167278  0.50498814  0.42306418  1
  O  O60  1  0.36150841  0.50108911  0.07847723  1
  O  O61  1  0.14615993  0.65544406  0.07954808  1
  O  O62  1  0.51507820  0.86134421  0.07882657  1
  O  O63  1  0.34908164  0.85383666  0.57927851  1
  O  O64  1  0.51047146  0.64500283  0.57912823  1
  O  O65  1  0.13821741  0.48526416  0.57863169  1
  O  O66  1  0.31737017  0.83427190  0.25635087  1
  O  O67  1  0.52107318  0.68799954  0.25450751  1
  O  O68  1  0.16433796  0.47942415  0.25436810  1
  O  O69  1  0.31535740  0.48211191  0.75590646  1
  O  O70  1  0.16406284  0.68320695  0.75451777  1
  O  O71  1  0.52215375  0.83472555  0.75418762  1
loop_
_geom_bond_atom_site_label_1
_geom_bond_atom_site_label_2
_geom_bond_distance
_geom_bond_site_symmetry_2
Na0 O60 2.301389 1_555
Na0 O45 2.355579 1_555
Na0 O62 2.431802 1_555
Na0 O46 2.535162 1_565
Na0 O19 2.686591 1_555
Na0 O24 2.699276 1_554
Na0 O9 2.743635 1_555
Na0 O17 2.773524 1_555
Na1 O54 2.375967 1_555
Na1 O39 2.384971 1_555
Na1 O40 2.413751 1_545
Na1 O56 2.429607 1_555
Na1 O3 2.626874 1_555
Na1 O18 2.632645 1_556
Na1 O25 2.825754 1_555
Na1 O35 2.844445 1_555
Na2 O36 2.382877 1_545
Na2 O57 2.392541 1_555
Na2 O38 2.424569 1_555
Na2 O58 2.441011 1_555
Na2 O0 2.613455 1_555
Na2 O21 2.635379 1_555
Na2 O31 2.834409 1_545
Na2 O29 2.858639 1_545
Na3 O38 2.565131 1_655
Na3 O37 2.571695 1_545
Na3 O42 2.589388 1_555
Na3 O44 2.593751 1_545
Na3 O43 2.597656 1_655
Na3 O36 2.597677 1_645
Na4 O40 2.505749 1_555
Na4 O47 2.585056 1_566
Na4 O41 2.590499 1_455
Na4 O45 2.592654 1_456
Na4 O39 2.610757 1_565
Na4 O46 2.642895 1_466
Na5 O48 2.543085 1_555
Na5 O55 2.544552 1_555
Na5 O50 2.557190 1_555
Na5 O56 2.595687 1_555
Na5 O54 2.606516 1_555
Na5 O49 2.637993 1_555
Na6 O52 2.523616 1_555
Na6 O51 2.532207 1_555
Na6 O59 2.559420 1_555
Na6 O58 2.609820 1_555
Na6 O53 2.619087 1_555
Na6 O57 2.635395 1_555
Na7 O61 2.433127 1_555
Na7 O68 2.517642 1_555
Na7 O60 2.530610 1_555
Na7 O66 2.595923 1_555
Na7 O62 2.623761 1_555
Na7 O67 2.673734 1_555
Na8 O63 2.449859 1_555
Na8 O64 2.551227 1_555
Na8 O70 2.567616 1_555
Na8 O65 2.576319 1_555
Na8 O71 2.579647 1_555
Na8 O69 2.652360 1_555
O0 P0 1.521223 1_555
O0 Zn0 2.037005 1_455
O1 P1 1.505239 1_555
O1 Zn0 1.949798 1_565
O2 P2 1.505679 1_555
O2 Zn0 1.951109 1_555
O3 P3 1.520487 1_555
O3 Zn1 2.030245 1_445
O4 P4 1.508258 1_555
O4 Zn1 1.960996 1_555
O5 P5 1.506622 1_555
O5 Zn1 1.954110 1_545
O6 P5 1.560988 1_565
O6 Sn0 2.031662 1_665
O7 P3 1.555350 1_555
O7 Sn0 2.026267 1_555
O8 P4 1.556574 1_455
O8 Sn0 2.020423 1_565
O9 P1 1.571348 1_555
O9 Sn1 2.072184 1_665
O10 P2 1.559123 1_455
O10 Sn1 2.016249 1_555
O11 P0 1.555336 1_565
O11 Sn1 2.013408 1_565
O12 S0 1.505222 1_555
O12 Sn2 2.103497 1_555
O13 P6 1.562923 1_555
O13 Sn2 2.009354 1_555
O14 S1 1.503840 1_555
O14 Sn2 2.110605 1_555
O15 P7 1.557731 1_555
O15 Sn3 2.020562 1_555
O16 S2 1.495343 1_555
O16 Sn3 2.116202 1_555
O17 P8 1.568007 1_555
O17 Sn3 2.041734 1_555
O18 P8 1.533222 1_555
O18 Zn2 2.021413 1_554
O19 P7 1.529132 1_555
O19 Zn2 1.968496 1_554
O20 S2 1.459954 1_555
O20 Zn2 2.068654 1_554
O21 P6 1.535842 1_555
O21 Zn3 1.994955 1_555
O22 S1 1.466543 1_555
O22 Zn3 2.045392 1_555
O23 S0 1.465084 1_555
O23 Zn3 2.064874 1_555
O24 S3 1.478749 1_555
O24 Zn4 2.193331 1_556
O25 S4 1.475538 1_555
O25 Zn4 2.018160 1_556
O26 S5 1.461386 1_555
O26 Zn4 2.081144 1_556
O27 S6 1.466796 1_555
O27 Zn5 2.055977 1_555
O28 S7 1.462498 1_555
O28 Zn5 2.110557 1_555
O29 S8 1.473437 1_555
O29 Zn5 2.064883 1_555
O30 S8 1.527134 1_555
O30 Sn4 2.100407 1_555
O31 S6 1.538081 1_555
O31 Sn4 2.107440 1_555
O32 S7 1.523003 1_555
O32 Sn4 2.073882 1_555
O33 S4 1.523347 1_555
O33 Sn5 2.104995 1_555
O34 S5 1.523607 1_555
O34 Sn5 2.068076 1_555
O35 S3 1.535759 1_555
O35 Sn5 2.101577 1_555
O36 S8 1.488427 1_555
O36 Zn0 2.313776 1_465
O37 S6 1.466224 1_555
O37 Zn0 2.199793 1_565
O38 S7 1.487801 1_555
O38 Zn0 2.307931 1_455
O39 S4 1.487010 1_555
O39 Zn1 2.281479 1_445
O40 S5 1.488335 1_555
O40 Zn1 2.325999 1_455
O41 S3 1.466797 1_555
O41 Zn1 2.209847 1_555
O42 S0 1.513988 1_555
O42 Sn0 2.166483 1_655
O43 P6 1.583837 1_555
O43 Sn0 2.045255 1_555
O44 S1 1.513866 1_555
O44 Sn0 2.165655 1_665
O45 P7 1.591823 1_555
O45 Sn1 2.074158 1_665
O46 S2 1.517588 1_555
O46 Sn1 2.217566 1_655
O47 P8 1.563076 1_555
O47 Sn1 2.050137 1_555
O48 P5 1.558207 1_555
O48 Sn2 2.037027 1_555
O49 P3 1.556149 1_555
O49 Sn2 2.037924 1_555
O50 P4 1.557473 1_555
O50 Sn2 2.048247 1_555
O51 P1 1.555064 1_555
O51 Sn3 2.041154 1_555
O52 P2 1.552872 1_555
O52 Sn3 2.051435 1_555
O53 P0 1.552361 1_555
O53 Sn3 2.047905 1_555
O54 S3 1.494423 1_555
O54 Zn2 2.251136 1_555
O55 S4 1.472312 1_655
O55 Zn2 2.182034 1_555
O56 S5 1.490953 1_545
O56 Zn2 2.278344 1_555
O57 S6 1.496652 1_545
O57 Zn3 2.222466 1_555
O58 S7 1.495190 1_555
O58 Zn3 2.225175 1_555
O59 S8 1.475074 1_655
O59 Zn3 2.184157 1_555
O60 P8 1.542712 1_555
O60 Zn4 2.089311 1_555
O61 P7 1.519099 1_455
O61 Zn4 1.980711 1_555
O62 S2 1.476725 1_565
O62 Zn4 2.230068 1_555
O63 P6 1.530925 1_565
O63 Zn5 2.012032 1_555
O64 S1 1.467229 1_555
O64 Zn5 2.171144 1_555
O65 S0 1.467432 1_455
O65 Zn5 2.153390 1_555
O66 P0 1.560080 1_565
O66 Sn4 2.042613 1_555
O67 P1 1.563109 1_555
O67 Sn4 2.041668 1_555
O68 P2 1.566249 1_455
O68 Sn4 2.046259 1_555
O69 P3 1.560874 1_555
O69 Sn5 2.040290 1_555
O70 P4 1.564987 1_455
O70 Sn5 2.041789 1_555
O71 P5 1.565384 1_565
O71 Sn5 2.047750 1_555
