# generated using pymatgen
data_BaTm2CuO5
_symmetry_space_group_name_H-M   'P 1'
_cell_length_a   5.64869400
_cell_length_b   7.13887900
_cell_length_c   12.12921800
_cell_angle_alpha   90.00000000
_cell_angle_beta   90.00000000
_cell_angle_gamma   90.00000000
_symmetry_Int_Tables_number   1
_chemical_formula_structural   BaTm2CuO5
_chemical_formula_sum   'Ba4 Tm8 Cu4 O20'
_cell_volume   489.11487586
_cell_formula_units_Z   4
loop_
 _symmetry_equiv_pos_site_id
 _symmetry_equiv_pos_as_xyz
  1  'x, y, z'
loop_
 _atom_site_type_symbol
 _atom_site_label
 _atom_site_symmetry_multiplicity
 _atom_site_fract_x
 _atom_site_fract_y
 _atom_site_fract_z
 _atom_site_occupancy
  Ba  Ba0  1  0.25000000  0.56914200  0.40387600  1
  Ba  Ba1  1  0.75000000  0.43085800  0.59612400  1
  Ba  Ba2  1  0.75000000  0.06914200  0.09612400  1
  Ba  Ba3  1  0.25000000  0.93085800  0.90387600  1
  Tm  Tm0  1  0.25000000  0.10283900  0.57389700  1
  Tm  Tm1  1  0.75000000  0.89716100  0.42610300  1
  Tm  Tm2  1  0.75000000  0.60283900  0.92610300  1
  Tm  Tm3  1  0.25000000  0.39716100  0.07389700  1
  Tm  Tm4  1  0.25000000  0.38663400  0.78695000  1
  Tm  Tm5  1  0.75000000  0.61336600  0.21305000  1
  Tm  Tm6  1  0.75000000  0.88663400  0.71305000  1
  Tm  Tm7  1  0.25000000  0.11336600  0.28695000  1
  Cu  Cu0  1  0.25000000  0.78179800  0.16076800  1
  Cu  Cu1  1  0.75000000  0.21820200  0.83923200  1
  Cu  Cu2  1  0.75000000  0.28179800  0.33923200  1
  Cu  Cu3  1  0.25000000  0.71820200  0.66076800  1
  O  O0  1  0.25000000  0.41306300  0.60108300  1
  O  O1  1  0.75000000  0.58693700  0.39891700  1
  O  O2  1  0.75000000  0.91306300  0.89891700  1
  O  O3  1  0.25000000  0.08693700  0.10108400  1
  O  O4  1  0.00213900  0.85741800  0.27225000  1
  O  O5  1  0.50213900  0.14258200  0.72775000  1
  O  O6  1  0.99786100  0.35741800  0.22775000  1
  O  O7  1  0.49786100  0.64258200  0.77225000  1
  O  O8  1  0.99786100  0.14258200  0.72775000  1
  O  O9  1  0.49786100  0.85741800  0.27225000  1
  O  O10  1  0.00213900  0.64258200  0.77225000  1
  O  O11  1  0.50213900  0.35741800  0.22775000  1
  O  O12  1  0.49656100  0.65920100  0.06820600  1
  O  O13  1  0.99656100  0.34079900  0.93179400  1
  O  O14  1  0.50343900  0.15920100  0.43179400  1
  O  O15  1  0.00343900  0.84079900  0.56820600  1
  O  O16  1  0.99656100  0.15920100  0.43179400  1
  O  O17  1  0.49656100  0.84079900  0.56820600  1
  O  O18  1  0.00343900  0.65920100  0.06820600  1
  O  O19  1  0.50343900  0.34079900  0.93179400  1
loop_
_geom_bond_atom_site_label_1
_geom_bond_atom_site_label_2
_geom_bond_distance
_geom_bond_site_symmetry_2
Ba0 O0 2.638752 1_555
Ba0 O1 2.827842 1_555
Ba0 O1 2.827842 1_455
Ba0 O4 2.957087 1_555
Ba0 O9 2.957087 1_555
Ba0 O11 2.979380 1_555
Ba0 O6 2.979380 1_455
Ba0 O17 3.110234 1_555
Ba0 O15 3.110234 1_555
Ba0 O16 3.275463 1_455
Ba0 O14 3.275463 1_555
Ba1 O1 2.638752 1_555
Ba1 O0 2.827842 1_655
Ba1 O0 2.827842 1_555
Ba1 O8 2.957087 1_555
Ba1 O5 2.957087 1_555
Ba1 O10 2.979380 1_655
Ba1 O7 2.979380 1_555
Ba1 O14 3.110234 1_555
Ba1 O16 3.110234 1_555
Ba1 O15 3.275463 1_655
Ba1 O17 3.275463 1_555
Ba2 O2 2.638752 1_544
Ba2 O3 2.827843 1_655
Ba2 O3 2.827843 1_555
Ba2 O6 2.957087 1_555
Ba2 O11 2.957087 1_555
Ba2 O4 2.979380 1_645
Ba2 O9 2.979380 1_545
Ba2 O19 3.110234 1_554
Ba2 O13 3.110234 1_554
Ba2 O12 3.275463 1_545
Ba2 O18 3.275463 1_645
Ba3 O3 2.638763 1_566
Ba3 O2 2.827842 1_455
Ba3 O2 2.827842 1_555
Ba3 O10 2.957087 1_555
Ba3 O7 2.957087 1_555
Ba3 O5 2.979380 1_565
Ba3 O8 2.979380 1_465
Ba3 O18 3.110234 1_556
Ba3 O12 3.110234 1_556
Ba3 O19 3.275463 1_565
Ba3 O13 3.275463 1_465
Cu0 O12 1.991531 1_555
Cu0 O18 1.991531 1_555
Cu0 O4 2.019926 1_555
Cu0 O9 2.019926 1_555
Cu0 O3 2.295489 1_565
Cu1 O13 1.991531 1_555
Cu1 O19 1.991531 1_555
Cu1 O8 2.019926 1_555
Cu1 O5 2.019926 1_555
Cu1 O2 2.295493 1_545
Cu2 O14 1.991531 1_555
Cu2 O16 1.991531 1_555
Cu2 O11 2.019926 1_555
Cu2 O6 2.019926 1_555
Cu2 O1 2.295493 1_555
Cu3 O15 1.991531 1_555
Cu3 O17 1.991531 1_555
Cu3 O10 2.019926 1_555
Cu3 O7 2.019926 1_555
Cu3 O0 2.295493 1_555
O0 Tm0 2.239065 1_555
O0 Tm4 2.262303 1_555
O1 Tm1 2.239065 1_555
O1 Tm5 2.262303 1_555
O2 Tm2 2.239065 1_555
O2 Tm6 2.262303 1_555
O3 Tm3 2.239067 1_555
O3 Tm7 2.262291 1_555
O4 Tm7 2.308818 1_565
O4 Tm5 2.362110 1_455
O4 Tm1 2.364613 1_455
O5 Tm6 2.308818 1_545
O5 Tm4 2.362110 1_555
O5 Tm0 2.364613 1_555
O6 Tm5 2.308818 1_555
O6 Tm7 2.362110 1_655
O6 Tm3 2.364613 1_655
O7 Tm4 2.308818 1_555
O7 Tm6 2.362110 1_555
O7 Tm2 2.364613 1_555
O8 Tm6 2.308818 1_545
O8 Tm4 2.362110 1_655
O8 Tm0 2.364613 1_655
O9 Tm7 2.308818 1_565
O9 Tm5 2.362110 1_555
O9 Tm1 2.364613 1_555
O10 Tm4 2.308818 1_555
O10 Tm6 2.362110 1_455
O10 Tm2 2.364613 1_455
O11 Tm5 2.308818 1_555
O11 Tm7 2.362110 1_555
O11 Tm3 2.364613 1_555
O12 Tm2 2.276436 1_554
O12 Tm5 2.289770 1_555
O12 Tm3 2.333222 1_555
O13 Tm3 2.276436 1_656
O13 Tm4 2.289770 1_655
O13 Tm2 2.333222 1_555
O14 Tm0 2.276436 1_555
O14 Tm7 2.289770 1_555
O14 Tm1 2.333222 1_545
O15 Tm1 2.276436 1_455
O15 Tm6 2.289770 1_455
O15 Tm0 2.333222 1_565
O16 Tm0 2.276436 1_655
O16 Tm7 2.289770 1_655
O16 Tm1 2.333222 1_545
O17 Tm1 2.276436 1_555
O17 Tm6 2.289770 1_555
O17 Tm0 2.333222 1_565
O18 Tm2 2.276436 1_454
O18 Tm5 2.289770 1_455
O18 Tm3 2.333222 1_555
O19 Tm3 2.276436 1_556
O19 Tm4 2.289770 1_555
O19 Tm2 2.333222 1_555
