# generated using pymatgen
data_Na3Mg4Ta8P15(SO24)3
_symmetry_space_group_name_H-M   'P 1'
_cell_length_a   8.72928605
_cell_length_b   8.72422674
_cell_length_c   22.65790384
_cell_angle_alpha   90.00025633
_cell_angle_beta   90.04931042
_cell_angle_gamma   119.88149858
_symmetry_Int_Tables_number   1
_chemical_formula_structural   Na3Mg4Ta8P15(SO24)3
_chemical_formula_sum   'Na3 Mg4 Ta8 P15 S3 O72'
_cell_volume   1496.14321789
_cell_formula_units_Z   1
loop_
 _symmetry_equiv_pos_site_id
 _symmetry_equiv_pos_as_xyz
  1  'x, y, z'
loop_
 _atom_site_type_symbol
 _atom_site_label
 _atom_site_symmetry_multiplicity
 _atom_site_fract_x
 _atom_site_fract_y
 _atom_site_fract_z
 _atom_site_occupancy
  Na  Na0  1  0.99971132  0.99539788  0.99244480  1
  Na  Na1  1  0.66198756  0.33299586  0.84038685  1
  Na  Na2  1  0.66144128  0.33469671  0.33821425  1
  Mg  Mg0  1  0.99920755  0.99448521  0.85421884  1
  Mg  Mg1  1  0.66103584  0.33248587  0.97887367  1
  Mg  Mg2  1  0.66181356  0.33310059  0.48187855  1
  Mg  Mg3  1  0.33509344  0.66232027  0.30874807  1
  Ta  Ta0  1  0.00416148  0.00514759  0.35638797  1
  Ta  Ta1  1  0.00213274  0.00044854  0.64523787  1
  Ta  Ta2  1  0.99998823  0.99889589  0.14595642  1
  Ta  Ta3  1  0.66497345  0.33252632  0.68709420  1
  Ta  Ta4  1  0.66648594  0.33509511  0.18743026  1
  Ta  Ta5  1  0.33914436  0.67392294  0.02293212  1
  Ta  Ta6  1  0.33099672  0.65829522  0.52384883  1
  Ta  Ta7  1  0.34089187  0.67283492  0.81032456  1
  P  P0  1  0.28871630  0.99667657  0.25095009  1
  P  P1  1  0.71087879  0.71364562  0.25126308  1
  P  P2  1  0.00164788  0.29062365  0.25056976  1
  P  P3  1  0.28480639  0.28437011  0.75233651  1
  P  P4  1  0.99860275  0.71272270  0.75178841  1
  P  P5  1  0.71878670  0.00373474  0.75178000  1
  P  P6  1  0.94801893  0.32929020  0.58113842  1
  P  P7  1  0.38016498  0.04689618  0.58097881  1
  P  P8  1  0.67093190  0.62082272  0.58141732  1
  P  P9  1  0.95167227  0.61816541  0.08095515  1
  P  P10  1  0.66990317  0.05121028  0.08141792  1
  P  P11  1  0.37907200  0.33229184  0.08137838  1
  P  P12  1  0.62729121  0.66703552  0.91669798  1
  P  P13  1  0.33348583  0.96058870  0.91656715  1
  P  P14  1  0.34274631  0.38386414  0.41416140  1
  S  S0  1  0.04452662  0.37786887  0.91658747  1
  S  S1  1  0.61820792  0.95588982  0.41530007  1
  S  S2  1  0.04372328  0.66207533  0.41520345  1
  O  O0  1  0.19940909  0.03518731  0.30532640  1
  O  O1  1  0.83690503  0.80099721  0.30543144  1
  O  O2  1  0.96371572  0.16382060  0.30508371  1
  O  O3  1  0.21152535  0.17255677  0.80598310  1
  O  O4  1  0.95841298  0.78502888  0.80537917  1
  O  O5  1  0.82787124  0.04041795  0.80600763  1
  O  O6  1  0.80078826  0.97344363  0.69515980  1
  O  O7  1  0.17298874  0.20014283  0.69540933  1
  O  O8  1  0.02786860  0.82640356  0.69522886  1
  O  O9  1  0.80849825  0.82646973  0.19581459  1
  O  O10  1  0.01909169  0.19236102  0.19580382  1
  O  O11  1  0.17410150  0.97964253  0.19589471  1
  O  O12  1  0.86669935  0.36359892  0.63749576  1
  O  O13  1  0.49577815  0.13041084  0.63752679  1
  O  O14  1  0.63494635  0.50414821  0.63761925  1
  O  O15  1  0.86582391  0.50463452  0.13823886  1
  O  O16  1  0.63925650  0.13461035  0.13841188  1
  O  O17  1  0.49435044  0.36188600  0.13840124  1
  O  O18  1  0.45282024  0.29224982  0.02824813  1
  O  O19  1  0.83875337  0.54344291  0.02764999  1
  O  O20  1  0.70627552  0.16155958  0.02766061  1
  O  O21  1  0.45496830  0.15809000  0.52763973  1
  O  O22  1  0.70523893  0.54637451  0.52751974  1
  O  O23  1  0.84092267  0.29779831  0.52692484  1
  O  O24  1  0.52238245  0.68466375  0.97160804  1
  O  O25  1  0.15747972  0.46796344  0.97060354  1
  O  O26  1  0.31162993  0.83707947  0.97175059  1
  O  O27  1  0.53760581  0.84331417  0.46997756  1
  O  O28  1  0.30761220  0.47024028  0.47154520  1
  O  O29  1  0.15701662  0.69636688  0.47011983  1
  O  O30  1  0.12800547  0.64130647  0.36318207  1
  O  O31  1  0.51170981  0.87427096  0.36322702  1
  O  O32  1  0.36093395  0.49412171  0.36141104  1
  O  O33  1  0.13451617  0.49074106  0.86273854  1
  O  O34  1  0.35114583  0.85557236  0.86166345  1
  O  O35  1  0.50367658  0.64517316  0.86149671  1
  O  O36  1  0.02913939  0.82942236  0.40880887  1
  O  O37  1  0.79864496  0.96715696  0.40863164  1
  O  O38  1  0.16541308  0.19622212  0.40733496  1
  O  O39  1  0.03455327  0.20634862  0.91191618  1
  O  O40  1  0.16489693  0.96802138  0.91309037  1
  O  O41  1  0.79986196  0.83859706  0.91317444  1
  O  O42  1  0.98033835  0.17378837  0.59569613  1
  O  O43  1  0.19384549  0.01897118  0.59600281  1
  O  O44  1  0.82681690  0.80758128  0.59612207  1
  O  O45  1  0.98067539  0.80773294  0.09404285  1
  O  O46  1  0.82836637  0.01939840  0.09405708  1
  O  O47  1  0.19073918  0.17171364  0.09459992  1
  O  O48  1  0.68687026  0.16287380  0.73903170  1
  O  O49  1  0.47492609  0.31328760  0.73897943  1
  O  O50  1  0.83718193  0.52338938  0.73833010  1
  O  O51  1  0.70108556  0.52949309  0.24193883  1
  O  O52  1  0.82652416  0.29804198  0.24197975  1
  O  O53  1  0.47073297  0.17151587  0.24200554  1
  O  O54  1  0.63465846  0.49831641  0.92025705  1
  O  O55  1  0.87311473  0.36777544  0.92150598  1
  O  O56  1  0.50503455  0.13314828  0.92022993  1
  O  O57  1  0.64861062  0.13494778  0.42361460  1
  O  O58  1  0.49525572  0.35121824  0.42325927  1
  O  O59  1  0.86692071  0.51084508  0.42357434  1
  O  O60  1  0.35515304  0.49610097  0.07433632  1
  O  O61  1  0.13886043  0.64058845  0.07432274  1
  O  O62  1  0.50439458  0.86271244  0.07535601  1
  O  O63  1  0.35617568  0.85806584  0.57222958  1
  O  O64  1  0.50450676  0.64479664  0.57362570  1
  O  O65  1  0.13772705  0.49710985  0.57378928  1
  O  O66  1  0.30726912  0.83901428  0.25967756  1
  O  O67  1  0.53431117  0.69572141  0.25748301  1
  O  O68  1  0.15812483  0.46762933  0.25797059  1
  O  O69  1  0.30838642  0.47247348  0.75907633  1
  O  O70  1  0.16194401  0.68748577  0.75903034  1
  O  O71  1  0.52930063  0.83864921  0.75793308  1
loop_
_geom_bond_atom_site_label_1
_geom_bond_atom_site_label_2
_geom_bond_distance
_geom_bond_site_symmetry_2
Na0 O40 2.390965 1_655
Na0 O41 2.399458 1_555
Na0 O39 2.500392 1_665
Na0 O45 2.781537 1_556
Na0 O46 2.810638 1_566
Na0 O47 2.818111 1_666
Na1 O54 2.399098 1_555
Na1 O56 2.411189 1_555
Na1 O55 2.510745 1_555
Na1 O49 2.772919 1_555
Na1 O48 2.801057 1_555
Na1 O50 2.814248 1_555
Na2 O58 2.459983 1_555
Na2 O59 2.562622 1_555
Na2 O57 2.568951 1_555
Na2 O51 2.679871 1_555
Na2 O53 2.679972 1_555
Na2 O52 2.719915 1_555
Mg0 O4 2.010343 1_555
Mg0 O3 2.043894 1_665
Mg0 O5 2.045772 1_565
Mg0 O40 2.062510 1_655
Mg0 O41 2.075572 1_555
Mg0 O39 2.156767 1_665
Mg1 O18 2.011493 1_556
Mg1 O19 2.041419 1_556
Mg1 O20 2.046364 1_556
Mg1 O54 2.059473 1_555
Mg1 O56 2.069175 1_555
Mg1 O55 2.155892 1_555
Mg2 O21 1.980597 1_555
Mg2 O22 1.992903 1_555
Mg2 O23 2.014490 1_555
Mg2 O58 2.031909 1_555
Mg2 O57 2.132076 1_555
Mg2 O59 2.143153 1_555
Mg3 O67 1.989195 1_555
Mg3 O32 1.989302 1_555
Mg3 O68 1.994376 1_555
Mg3 O66 2.010988 1_555
Mg3 O31 2.115637 1_555
Mg3 O30 2.120447 1_555
O0 P0 1.581527 1_545
O0 Ta0 1.967339 1_555
O1 P1 1.568339 1_555
O1 Ta0 2.010691 1_665
O2 P2 1.579501 1_655
O2 Ta0 1.969396 1_655
O3 P3 1.489241 1_555
O4 P4 1.488846 1_555
O5 P5 1.487669 1_555
O6 P5 1.555028 1_565
O6 Ta1 2.003725 1_665
O7 P3 1.561912 1_555
O7 Ta1 1.989946 1_555
O8 P4 1.561825 1_455
O8 Ta1 1.994617 1_565
O9 P1 1.561891 1_555
O9 Ta2 1.957284 1_555
O10 P2 1.558288 1_555
O10 Ta2 1.967594 1_445
O11 P0 1.558493 1_555
O11 Ta2 1.967224 1_455
O12 P6 1.561197 1_555
O12 Ta3 1.991235 1_555
O13 P7 1.567192 1_555
O13 Ta3 1.988495 1_555
O14 P8 1.561562 1_555
O14 Ta3 1.989400 1_555
O15 P9 1.577763 1_555
O15 Ta4 1.974009 1_555
O16 P10 1.569437 1_555
O16 Ta4 1.983579 1_555
O17 P11 1.577177 1_555
O17 Ta4 1.973236 1_555
O18 P11 1.486968 1_555
O19 P9 1.487612 1_555
O20 P10 1.485706 1_555
O21 P7 1.482644 1_555
O22 P8 1.482336 1_555
O23 P6 1.483390 1_555
O24 P12 1.597654 1_555
O24 Ta5 1.942546 1_556
O25 S0 1.521052 1_555
O25 Ta5 2.075260 1_556
O26 P13 1.598871 1_555
O26 Ta5 1.941342 1_556
O27 S1 1.519019 1_555
O27 Ta6 2.109787 1_555
O28 P14 1.607295 1_555
O28 Ta6 1.950295 1_555
O29 S2 1.522791 1_555
O29 Ta6 2.097217 1_555
O30 S2 1.448366 1_555
O31 S1 1.449785 1_555
O32 P14 1.492374 1_555
O33 S0 1.518651 1_555
O33 Ta7 2.081246 1_555
O34 P13 1.597422 1_555
O34 Ta7 1.939161 1_555
O35 P12 1.599290 1_555
O35 Ta7 1.939242 1_555
O36 S2 1.534239 1_555
O36 Ta0 2.034999 1_565
O37 S1 1.536075 1_555
O37 Ta0 2.034881 1_665
O38 P14 1.604566 1_555
O38 Ta0 1.936970 1_555
O39 S0 1.458806 1_555
O40 P13 1.507011 1_555
O41 P12 1.506479 1_555
O42 P6 1.552437 1_555
O42 Ta1 1.967096 1_655
O43 P7 1.557775 1_555
O43 Ta1 1.950641 1_555
O44 P8 1.551587 1_555
O44 Ta1 1.960348 1_665
O45 P9 1.571574 1_555
O45 Ta2 1.978097 1_555
O46 P10 1.566628 1_555
O46 Ta2 1.980706 1_545
O47 P11 1.568781 1_555
O47 Ta2 1.975264 1_445
O48 P5 1.572864 1_555
O48 Ta3 1.973211 1_555
O49 P3 1.578993 1_555
O49 Ta3 1.971889 1_555
O50 P4 1.577023 1_555
O50 Ta3 1.970523 1_555
O51 P1 1.579931 1_555
O51 Ta4 1.995453 1_555
O52 P2 1.573874 1_655
O52 Ta4 2.007688 1_555
O53 P0 1.574143 1_545
O53 Ta4 2.014803 1_555
O54 P12 1.507174 1_555
O55 S0 1.458800 1_655
O56 P13 1.506394 1_545
O57 S1 1.460489 1_545
O58 P14 1.507747 1_555
O59 S2 1.459524 1_655
O60 P11 1.551989 1_555
O60 Ta5 1.999637 1_555
O61 P9 1.553314 1_455
O61 Ta5 1.998492 1_555
O62 P10 1.562963 1_565
O62 Ta5 1.958104 1_555
O63 P7 1.566287 1_565
O63 Ta6 1.976198 1_555
O64 P8 1.577271 1_555
O64 Ta6 1.937718 1_555
O65 P6 1.580600 1_455
O65 Ta6 1.934822 1_555
O66 P0 1.476209 1_555
O67 P1 1.476538 1_555
O68 P2 1.475263 1_555
O69 P3 1.556316 1_555
O69 Ta7 1.997385 1_555
O70 P4 1.555912 1_455
O70 Ta7 2.000757 1_555
O71 P5 1.567283 1_565
O71 Ta7 1.959461 1_555
