# generated using pymatgen
data_Nb
_symmetry_space_group_name_H-M   'P 1'
_cell_length_a   5.96927585
_cell_length_b   9.24131246
_cell_length_c   19.40769732
_cell_angle_alpha   74.54265990
_cell_angle_beta   84.27661136
_cell_angle_gamma   89.17854115
_symmetry_Int_Tables_number   1
_chemical_formula_structural   Nb
_chemical_formula_sum   Nb56
_cell_volume   1026.65278650
_cell_formula_units_Z   56
loop_
 _symmetry_equiv_pos_site_id
 _symmetry_equiv_pos_as_xyz
  1  'x, y, z'
loop_
 _atom_site_type_symbol
 _atom_site_label
 _atom_site_symmetry_multiplicity
 _atom_site_fract_x
 _atom_site_fract_y
 _atom_site_fract_z
 _atom_site_occupancy
  Nb  Nb0_0  1  0.32123729  0.10756673  0.28577925  1
  Nb  Nb0_1  1  0.32123728  0.10756674  0.78577925  1
  Nb  Nb0_2  1  0.32123729  0.60756673  0.28577925  1
  Nb  Nb0_3  1  0.32123729  0.60756674  0.78577925  1
  Nb  Nb0_4  1  0.82123729  0.10756673  0.28577925  1
  Nb  Nb0_5  1  0.82123729  0.10756673  0.78577925  1
  Nb  Nb0_6  1  0.82123729  0.60756674  0.28577925  1
  Nb  Nb0_7  1  0.82123729  0.60756674  0.78577925  1
  Nb  Nb1_0  1  0.17876272  0.39243327  0.21422075  1
  Nb  Nb1_1  1  0.17876272  0.39243327  0.71422075  1
  Nb  Nb1_2  1  0.17876272  0.89243327  0.21422075  1
  Nb  Nb1_3  1  0.17876272  0.89243327  0.71422075  1
  Nb  Nb1_4  1  0.67876272  0.39243327  0.21422075  1
  Nb  Nb1_5  1  0.67876272  0.39243326  0.71422075  1
  Nb  Nb1_6  1  0.67876272  0.89243327  0.21422075  1
  Nb  Nb1_7  1  0.67876272  0.89243326  0.71422075  1
  Nb  Nb2_0  1  0.46418346  0.32246097  0.35725928  1
  Nb  Nb2_1  1  0.46418346  0.32246097  0.85725928  1
  Nb  Nb2_2  1  0.46418346  0.82246096  0.35725928  1
  Nb  Nb2_3  1  0.46418346  0.82246096  0.85725928  1
  Nb  Nb2_4  1  0.96418346  0.32246097  0.35725928  1
  Nb  Nb2_5  1  0.96418346  0.32246096  0.85725928  1
  Nb  Nb2_6  1  0.96418346  0.82246096  0.35725928  1
  Nb  Nb2_7  1  0.96418346  0.82246096  0.85725928  1
  Nb  Nb3_0  1  0.03581655  0.17753903  0.14274071  1
  Nb  Nb3_1  1  0.03581655  0.17753904  0.64274071  1
  Nb  Nb3_2  1  0.03581655  0.67753903  0.14274071  1
  Nb  Nb3_3  1  0.03581655  0.67753904  0.64274071  1
  Nb  Nb3_4  1  0.53581655  0.17753903  0.14274071  1
  Nb  Nb3_5  1  0.53581655  0.17753903  0.64274071  1
  Nb  Nb3_6  1  0.53581655  0.67753904  0.14274071  1
  Nb  Nb3_7  1  0.53581655  0.67753904  0.64274071  1
  Nb  Nb4_0  1  0.10691085  0.03641052  0.42867192  1
  Nb  Nb4_1  1  0.10691085  0.03641053  0.92867192  1
  Nb  Nb4_2  1  0.10691085  0.53641052  0.42867192  1
  Nb  Nb4_3  1  0.10691085  0.53641052  0.92867192  1
  Nb  Nb4_4  1  0.60691085  0.03641052  0.42867192  1
  Nb  Nb4_5  1  0.60691085  0.03641053  0.92867192  1
  Nb  Nb4_6  1  0.60691085  0.53641053  0.42867192  1
  Nb  Nb4_7  1  0.60691085  0.53641052  0.92867192  1
  Nb  Nb5_0  1  0.39308916  0.46358948  0.07132808  1
  Nb  Nb5_1  1  0.39308916  0.46358948  0.57132808  1
  Nb  Nb5_2  1  0.39308916  0.96358948  0.07132808  1
  Nb  Nb5_3  1  0.39308916  0.96358947  0.57132808  1
  Nb  Nb5_4  1  0.89308916  0.46358948  0.07132808  1
  Nb  Nb5_5  1  0.89308916  0.46358948  0.57132808  1
  Nb  Nb5_6  1  0.89308916  0.96358947  0.07132808  1
  Nb  Nb5_7  1  0.89308916  0.96358948  0.57132808  1
  Nb  Nb6_0  1  0.25000000  0.25000000  0.00000000  1
  Nb  Nb6_1  1  0.25000000  0.25000000  0.50000000  1
  Nb  Nb6_2  1  0.25000000  0.75000000  0.00000000  1
  Nb  Nb6_3  1  0.25000000  0.75000000  0.50000000  1
  Nb  Nb6_4  1  0.75000000  0.25000000  0.00000000  1
  Nb  Nb6_5  1  0.75000000  0.25000000  0.50000000  1
  Nb  Nb6_6  1  0.75000000  0.75000000  0.00000000  1
  Nb  Nb6_7  1  0.75000000  0.75000000  0.50000000  1
loop_
_geom_bond_atom_site_label_1
_geom_bond_atom_site_label_2
_geom_bond_distance
_geom_bond_site_symmetry_2
Nb0_0 Nb1_0 2.793717 1_555
Nb0_0 Nb2_2 2.796038 1_545
Nb0_0 Nb4_0 2.846815 1_555
Nb0_0 Nb3_4 2.850075 1_555
Nb0_0 Nb2_0 2.889569 1_555
Nb0_0 Nb1_2 2.891444 1_545
Nb0_0 Nb0_4 2.984638 1_455
Nb0_0 Nb0_4 2.984638 1_555
Nb0_1 Nb1_1 2.793717 1_555
Nb0_1 Nb2_3 2.796038 1_545
Nb0_1 Nb4_1 2.846815 1_555
Nb0_1 Nb3_5 2.850075 1_555
Nb0_1 Nb2_1 2.889569 1_555
Nb0_1 Nb1_3 2.891444 1_545
Nb0_1 Nb0_5 2.984638 1_455
Nb0_1 Nb0_5 2.984638 1_555
Nb0_2 Nb1_2 2.793717 1_555
Nb0_2 Nb2_0 2.796038 1_555
Nb0_2 Nb4_2 2.846815 1_555
Nb0_2 Nb3_6 2.850075 1_555
Nb0_2 Nb2_2 2.889569 1_555
Nb0_2 Nb1_0 2.891444 1_555
Nb0_2 Nb0_6 2.984638 1_455
Nb0_2 Nb0_6 2.984638 1_555
Nb0_3 Nb1_3 2.793717 1_555
Nb0_3 Nb2_1 2.796038 1_555
Nb0_3 Nb4_3 2.846815 1_555
Nb0_3 Nb3_7 2.850075 1_555
Nb0_3 Nb2_3 2.889569 1_555
Nb0_3 Nb1_1 2.891444 1_555
Nb0_3 Nb0_7 2.984638 1_455
Nb0_3 Nb0_7 2.984638 1_555
Nb0_4 Nb1_4 2.793717 1_555
Nb0_4 Nb2_6 2.796038 1_545
Nb0_4 Nb4_4 2.846815 1_555
Nb0_4 Nb3_0 2.850075 1_655
Nb0_4 Nb2_4 2.889569 1_555
Nb0_4 Nb1_6 2.891444 1_545
Nb0_5 Nb1_5 2.793717 1_555
Nb0_5 Nb2_7 2.796038 1_545
Nb0_5 Nb4_5 2.846815 1_555
Nb0_5 Nb3_1 2.850075 1_655
Nb0_5 Nb2_5 2.889569 1_555
Nb0_5 Nb1_7 2.891444 1_545
Nb0_6 Nb1_6 2.793717 1_555
Nb0_6 Nb2_4 2.796038 1_555
Nb0_6 Nb4_6 2.846815 1_555
Nb0_6 Nb3_2 2.850075 1_655
Nb0_6 Nb2_6 2.889569 1_555
Nb0_6 Nb1_4 2.891444 1_555
Nb0_7 Nb1_7 2.793717 1_555
Nb0_7 Nb2_5 2.796038 1_555
Nb0_7 Nb4_7 2.846815 1_555
Nb0_7 Nb3_3 2.850075 1_655
Nb0_7 Nb2_7 2.889569 1_555
Nb0_7 Nb1_5 2.891444 1_555
Nb1_0 Nb3_2 2.796038 1_555
Nb1_0 Nb5_0 2.846815 1_555
Nb1_0 Nb2_4 2.850075 1_455
Nb1_0 Nb3_0 2.889569 1_555
Nb1_0 Nb1_4 2.984638 1_455
Nb1_0 Nb1_4 2.984638 1_555
Nb1_1 Nb3_3 2.796038 1_555
Nb1_1 Nb5_1 2.846815 1_555
Nb1_1 Nb2_5 2.850075 1_455
Nb1_1 Nb3_1 2.889569 1_555
Nb1_1 Nb1_5 2.984638 1_455
Nb1_1 Nb1_5 2.984638 1_555
Nb1_2 Nb3_0 2.796038 1_565
Nb1_2 Nb5_2 2.846815 1_555
Nb1_2 Nb2_6 2.850075 1_455
Nb1_2 Nb3_2 2.889569 1_555
Nb1_2 Nb1_6 2.984638 1_455
Nb1_2 Nb1_6 2.984638 1_555
Nb1_3 Nb3_1 2.796038 1_565
Nb1_3 Nb5_3 2.846815 1_555
Nb1_3 Nb2_7 2.850075 1_455
Nb1_3 Nb3_3 2.889569 1_555
Nb1_3 Nb1_7 2.984638 1_555
Nb1_3 Nb1_7 2.984638 1_455
Nb1_4 Nb3_6 2.796038 1_555
Nb1_4 Nb5_4 2.846815 1_555
Nb1_4 Nb2_0 2.850075 1_555
Nb1_4 Nb3_4 2.889569 1_555
Nb1_5 Nb3_7 2.796038 1_555
Nb1_5 Nb5_5 2.846815 1_555
Nb1_5 Nb2_1 2.850075 1_555
Nb1_5 Nb3_5 2.889569 1_555
Nb1_6 Nb3_4 2.796038 1_565
Nb1_6 Nb5_6 2.846815 1_555
Nb1_6 Nb2_2 2.850075 1_555
Nb1_6 Nb3_6 2.889569 1_555
Nb1_7 Nb3_5 2.796038 1_565
Nb1_7 Nb5_7 2.846815 1_555
Nb1_7 Nb2_3 2.850075 1_555
Nb1_7 Nb3_7 2.889569 1_555
Nb2_0 Nb4_4 2.802274 1_555
Nb2_0 Nb6_1 2.843713 1_555
Nb2_0 Nb4_6 2.881051 1_555
Nb2_0 Nb2_4 2.984638 1_555
Nb2_0 Nb2_4 2.984638 1_455
Nb2_1 Nb4_5 2.802274 1_555
Nb2_1 Nb6_0 2.843713 1_556
Nb2_1 Nb4_7 2.881051 1_555
Nb2_1 Nb2_5 2.984638 1_455
Nb2_1 Nb2_5 2.984638 1_555
Nb2_2 Nb4_6 2.802274 1_555
Nb2_2 Nb6_3 2.843713 1_555
Nb2_2 Nb4_4 2.881051 1_565
Nb2_2 Nb2_6 2.984638 1_455
Nb2_2 Nb2_6 2.984638 1_555
Nb2_3 Nb4_7 2.802274 1_555
Nb2_3 Nb6_2 2.843713 1_556
Nb2_3 Nb4_5 2.881051 1_565
Nb2_3 Nb2_7 2.984638 1_455
Nb2_3 Nb2_7 2.984638 1_555
Nb2_4 Nb4_0 2.802274 1_655
Nb2_4 Nb6_5 2.843713 1_555
Nb2_4 Nb4_2 2.881051 1_655
Nb2_5 Nb4_1 2.802274 1_655
Nb2_5 Nb6_4 2.843713 1_556
Nb2_5 Nb4_3 2.881051 1_655
Nb2_6 Nb4_2 2.802274 1_655
Nb2_6 Nb6_7 2.843713 1_555
Nb2_6 Nb4_0 2.881051 1_665
Nb2_7 Nb4_3 2.802274 1_655
Nb2_7 Nb6_6 2.843713 1_556
Nb2_7 Nb4_1 2.881051 1_665
Nb3_0 Nb5_4 2.802274 1_455
Nb3_0 Nb6_0 2.843713 1_555
Nb3_0 Nb5_6 2.881051 1_445
Nb3_0 Nb3_4 2.984638 1_455
Nb3_0 Nb3_4 2.984638 1_555
Nb3_1 Nb5_5 2.802274 1_455
Nb3_1 Nb6_1 2.843713 1_555
Nb3_1 Nb5_7 2.881051 1_445
Nb3_1 Nb3_5 2.984638 1_455
Nb3_1 Nb3_5 2.984638 1_555
Nb3_2 Nb5_6 2.802274 1_455
Nb3_2 Nb6_2 2.843713 1_555
Nb3_2 Nb5_4 2.881051 1_455
Nb3_2 Nb3_6 2.984638 1_455
Nb3_2 Nb3_6 2.984638 1_555
Nb3_3 Nb5_7 2.802274 1_455
Nb3_3 Nb6_3 2.843713 1_555
Nb3_3 Nb5_5 2.881051 1_455
Nb3_3 Nb3_7 2.984638 1_455
Nb3_3 Nb3_7 2.984638 1_555
Nb3_4 Nb5_0 2.802274 1_555
Nb3_4 Nb6_4 2.843713 1_555
Nb3_4 Nb5_2 2.881051 1_545
Nb3_5 Nb5_1 2.802274 1_555
Nb3_5 Nb6_5 2.843713 1_555
Nb3_5 Nb5_3 2.881051 1_545
Nb3_6 Nb5_2 2.802274 1_555
Nb3_6 Nb6_6 2.843713 1_555
Nb3_6 Nb5_0 2.881051 1_555
Nb3_7 Nb5_3 2.802274 1_555
Nb3_7 Nb6_7 2.843713 1_555
Nb3_7 Nb5_1 2.881051 1_555
Nb4_0 Nb6_3 2.805247 1_545
Nb4_0 Nb5_7 2.841467 1_445
Nb4_0 Nb6_1 2.877954 1_555
Nb4_0 Nb4_4 2.984638 1_455
Nb4_0 Nb4_4 2.984638 1_555
Nb4_1 Nb6_2 2.805247 1_546
Nb4_1 Nb5_6 2.841467 1_446
Nb4_1 Nb6_0 2.877954 1_556
Nb4_1 Nb4_5 2.984638 1_455
Nb4_1 Nb4_5 2.984638 1_555
Nb4_2 Nb6_1 2.805247 1_555
Nb4_2 Nb5_5 2.841467 1_455
Nb4_2 Nb6_3 2.877954 1_555
Nb4_2 Nb4_6 2.984638 1_555
Nb4_2 Nb4_6 2.984638 1_455
Nb4_3 Nb6_0 2.805247 1_556
Nb4_3 Nb5_4 2.841467 1_456
Nb4_3 Nb6_2 2.877954 1_556
Nb4_3 Nb4_7 2.984638 1_455
Nb4_3 Nb4_7 2.984638 1_555
Nb4_4 Nb6_7 2.805247 1_545
Nb4_4 Nb5_3 2.841467 1_545
Nb4_4 Nb6_5 2.877954 1_555
Nb4_5 Nb6_6 2.805247 1_546
Nb4_5 Nb5_2 2.841467 1_546
Nb4_5 Nb6_4 2.877954 1_556
Nb4_6 Nb6_5 2.805247 1_555
Nb4_6 Nb5_1 2.841467 1_555
Nb4_6 Nb6_7 2.877954 1_555
Nb4_7 Nb6_4 2.805247 1_556
Nb4_7 Nb5_0 2.841467 1_556
Nb4_7 Nb6_6 2.877954 1_556
Nb5_0 Nb6_2 2.805247 1_555
Nb5_0 Nb6_0 2.877954 1_555
Nb5_0 Nb5_4 2.984638 1_455
Nb5_0 Nb5_4 2.984638 1_555
Nb5_1 Nb6_3 2.805247 1_555
Nb5_1 Nb6_1 2.877954 1_555
Nb5_1 Nb5_5 2.984638 1_455
Nb5_1 Nb5_5 2.984638 1_555
Nb5_2 Nb6_0 2.805247 1_565
Nb5_2 Nb6_2 2.877954 1_555
Nb5_2 Nb5_6 2.984638 1_455
Nb5_2 Nb5_6 2.984638 1_555
Nb5_3 Nb6_1 2.805247 1_565
Nb5_3 Nb6_3 2.877954 1_555
Nb5_3 Nb5_7 2.984638 1_455
Nb5_3 Nb5_7 2.984638 1_555
Nb5_4 Nb6_6 2.805247 1_555
Nb5_4 Nb6_4 2.877954 1_555
Nb5_5 Nb6_7 2.805247 1_555
Nb5_5 Nb6_5 2.877954 1_555
Nb5_6 Nb6_4 2.805247 1_565
Nb5_6 Nb6_6 2.877954 1_555
Nb5_7 Nb6_5 2.805247 1_565
Nb5_7 Nb6_7 2.877954 1_555
Nb6_0 Nb6_4 2.984638 1_455
Nb6_0 Nb6_4 2.984638 1_555
Nb6_1 Nb6_5 2.984638 1_455
Nb6_1 Nb6_5 2.984638 1_555
Nb6_2 Nb6_6 2.984638 1_455
Nb6_2 Nb6_6 2.984638 1_555
Nb6_3 Nb6_7 2.984638 1_455
Nb6_3 Nb6_7 2.984638 1_555
