# generated using pymatgen
data_Hg4Sb2I3
_symmetry_space_group_name_H-M   'P 1'
_cell_length_a   13.91073100
_cell_length_b   13.91073100
_cell_length_c   13.91073100
_cell_angle_alpha   90.00000000
_cell_angle_beta   90.00000000
_cell_angle_gamma   90.00000000
_symmetry_Int_Tables_number   1
_chemical_formula_structural   Hg4Sb2I3
_chemical_formula_sum   'Hg32 Sb16 I24'
_cell_volume   2691.84381270
_cell_formula_units_Z   8
loop_
 _symmetry_equiv_pos_site_id
 _symmetry_equiv_pos_as_xyz
  1  'x, y, z'
loop_
 _atom_site_type_symbol
 _atom_site_label
 _atom_site_symmetry_multiplicity
 _atom_site_fract_x
 _atom_site_fract_y
 _atom_site_fract_z
 _atom_site_occupancy
  Hg  Hg0  1  0.02901600  0.00569400  0.24902900  1
  Hg  Hg1  1  0.24902900  0.02901600  0.00569400  1
  Hg  Hg2  1  0.00569400  0.24902900  0.02901600  1
  Hg  Hg3  1  0.49430600  0.75097200  0.52901600  1
  Hg  Hg4  1  0.74902800  0.47098400  0.99430600  1
  Hg  Hg5  1  0.99430600  0.74902800  0.47098400  1
  Hg  Hg6  1  0.25097200  0.97098400  0.50569400  1
  Hg  Hg7  1  0.75097200  0.52901600  0.49430600  1
  Hg  Hg8  1  0.50569400  0.25097200  0.97098400  1
  Hg  Hg9  1  0.52901600  0.49430600  0.75097200  1
  Hg  Hg10  1  0.97098400  0.50569400  0.25097200  1
  Hg  Hg11  1  0.47098400  0.99430600  0.74902800  1
  Hg  Hg12  1  0.97098400  0.99430600  0.75097200  1
  Hg  Hg13  1  0.75097200  0.97098400  0.99430600  1
  Hg  Hg14  1  0.99430600  0.75097200  0.97098400  1
  Hg  Hg15  1  0.50569400  0.24902900  0.47098400  1
  Hg  Hg16  1  0.25097200  0.52901600  0.00569400  1
  Hg  Hg17  1  0.00569400  0.25097200  0.52901600  1
  Hg  Hg18  1  0.74902800  0.02901600  0.49430600  1
  Hg  Hg19  1  0.24902900  0.47098400  0.50569400  1
  Hg  Hg20  1  0.49430600  0.74902800  0.02901600  1
  Hg  Hg21  1  0.47098400  0.50569400  0.24902900  1
  Hg  Hg22  1  0.02901600  0.49430600  0.74902800  1
  Hg  Hg23  1  0.52901600  0.00569400  0.25097200  1
  Hg  Hg24  1  0.77845200  0.22154800  0.72154800  1
  Hg  Hg25  1  0.72154800  0.77845200  0.22154800  1
  Hg  Hg26  1  0.22154800  0.72154800  0.77845200  1
  Hg  Hg27  1  0.27845200  0.27845200  0.27845200  1
  Hg  Hg28  1  0.22154800  0.77845200  0.27845200  1
  Hg  Hg29  1  0.27845200  0.22154800  0.77845200  1
  Hg  Hg30  1  0.77845200  0.27845200  0.22154800  1
  Hg  Hg31  1  0.72154800  0.72154800  0.72154800  1
  Sb  Sb0  1  0.89247900  0.10752100  0.60752100  1
  Sb  Sb1  1  0.60752100  0.89247900  0.10752100  1
  Sb  Sb2  1  0.10752100  0.60752100  0.89247900  1
  Sb  Sb3  1  0.39247900  0.39247900  0.39247900  1
  Sb  Sb4  1  0.10752100  0.89247900  0.39247900  1
  Sb  Sb5  1  0.39247900  0.10752100  0.89247900  1
  Sb  Sb6  1  0.89247900  0.39247900  0.10752100  1
  Sb  Sb7  1  0.60752100  0.60752100  0.60752100  1
  Sb  Sb8  1  0.55885300  0.05885300  0.44114700  1
  Sb  Sb9  1  0.44114700  0.55885300  0.05885300  1
  Sb  Sb10  1  0.05885300  0.44114700  0.55885300  1
  Sb  Sb11  1  0.94114700  0.94114700  0.94114700  1
  Sb  Sb12  1  0.44114700  0.94114700  0.55885300  1
  Sb  Sb13  1  0.55885300  0.44114700  0.94114700  1
  Sb  Sb14  1  0.94114700  0.55885300  0.44114700  1
  Sb  Sb15  1  0.05885300  0.05885300  0.05885300  1
  I  I0  1  0.23740400  0.18432400  0.56793700  1
  I  I1  1  0.56793700  0.23740400  0.18432400  1
  I  I2  1  0.18432400  0.56793700  0.23740400  1
  I  I3  1  0.31567600  0.43206300  0.73740400  1
  I  I4  1  0.06793700  0.26259600  0.81567600  1
  I  I5  1  0.81567600  0.06793700  0.26259600  1
  I  I6  1  0.93206300  0.76259600  0.68432400  1
  I  I7  1  0.43206300  0.73740400  0.31567600  1
  I  I8  1  0.68432400  0.93206300  0.76259600  1
  I  I9  1  0.73740400  0.31567600  0.43206300  1
  I  I10  1  0.76259600  0.68432400  0.93206300  1
  I  I11  1  0.26259600  0.81567600  0.06793700  1
  I  I12  1  0.76259600  0.81567600  0.43206300  1
  I  I13  1  0.43206300  0.76259600  0.81567600  1
  I  I14  1  0.81567600  0.43206300  0.76259600  1
  I  I15  1  0.68432400  0.56793700  0.26259600  1
  I  I16  1  0.93206300  0.73740400  0.18432400  1
  I  I17  1  0.18432400  0.93206300  0.73740400  1
  I  I18  1  0.06793700  0.23740400  0.31567600  1
  I  I19  1  0.56793700  0.26259600  0.68432400  1
  I  I20  1  0.31567600  0.06793700  0.23740400  1
  I  I21  1  0.26259600  0.68432400  0.56793700  1
  I  I22  1  0.23740400  0.31567600  0.06793700  1
  I  I23  1  0.73740400  0.18432400  0.93206300  1
loop_
_geom_bond_atom_site_label_1
_geom_bond_atom_site_label_2
_geom_bond_distance
_geom_bond_site_symmetry_2
Hg0 Sb4 2.766752 1_545
Hg0 Sb15 2.778076 1_555
Hg0 I5 3.097199 1_455
Hg0 I18 3.397358 1_555
Hg1 Sb5 2.766752 1_554
Hg1 Sb15 2.778076 1_555
Hg1 I11 3.097199 1_545
Hg1 I20 3.397358 1_555
Hg2 Sb6 2.766752 1_455
Hg2 Sb15 2.778076 1_555
Hg2 I4 3.097199 1_554
Hg2 I22 3.397358 1_555
Hg3 Sb7 2.766762 1_555
Hg3 Sb12 2.778062 1_555
Hg3 I7 3.097200 1_555
Hg3 I21 3.397362 1_555
Hg4 Sb6 2.766762 1_556
Hg4 Sb13 2.778062 1_555
Hg4 I10 3.097200 1_555
Hg4 I14 3.397362 1_555
Hg5 Sb4 2.766762 1_655
Hg5 Sb14 2.778062 1_555
Hg5 I6 3.097200 1_555
Hg5 I12 3.397362 1_555
Hg6 Sb4 2.766762 1_555
Hg6 Sb12 2.778062 1_555
Hg6 I0 3.097200 1_565
Hg6 I17 3.397362 1_555
Hg7 Sb7 2.766762 1_555
Hg7 Sb14 2.778062 1_555
Hg7 I9 3.097200 1_555
Hg7 I15 3.397362 1_555
Hg8 Sb5 2.766762 1_555
Hg8 Sb13 2.778062 1_555
Hg8 I1 3.097200 1_556
Hg8 I23 3.397362 1_555
Hg9 Sb7 2.766762 1_555
Hg9 Sb13 2.778062 1_555
Hg9 I3 3.097200 1_555
Hg9 I19 3.397362 1_555
Hg10 Sb6 2.766762 1_555
Hg10 Sb14 2.778062 1_555
Hg10 I2 3.097200 1_655
Hg10 I16 3.397362 1_555
Hg11 Sb5 2.766762 1_565
Hg11 Sb12 2.778062 1_555
Hg11 I8 3.097200 1_555
Hg11 I13 3.397362 1_555
Hg12 Sb0 2.766762 1_565
Hg12 Sb11 2.778062 1_555
Hg12 I17 3.097200 1_655
Hg12 I6 3.397362 1_555
Hg13 Sb1 2.766762 1_556
Hg13 Sb11 2.778062 1_555
Hg13 I23 3.097200 1_565
Hg13 I8 3.397362 1_555
Hg14 Sb2 2.766762 1_655
Hg14 Sb11 2.778062 1_555
Hg14 I16 3.097200 1_556
Hg14 I10 3.397362 1_555
Hg15 Sb3 2.766752 1_555
Hg15 Sb8 2.778076 1_555
Hg15 I19 3.097199 1_555
Hg15 I9 3.397358 1_555
Hg16 Sb2 2.766762 1_554
Hg16 Sb9 2.778062 1_555
Hg16 I22 3.097200 1_555
Hg16 I2 3.397362 1_555
Hg17 Sb0 2.766762 1_455
Hg17 Sb10 2.778062 1_555
Hg17 I18 3.097200 1_555
Hg17 I0 3.397362 1_555
Hg18 Sb0 2.766762 1_555
Hg18 Sb8 2.778062 1_555
Hg18 I12 3.097200 1_545
Hg18 I5 3.397362 1_555
Hg19 Sb3 2.766752 1_555
Hg19 Sb10 2.778076 1_555
Hg19 I21 3.097199 1_555
Hg19 I3 3.397358 1_555
Hg20 Sb1 2.766762 1_555
Hg20 Sb9 2.778062 1_555
Hg20 I13 3.097200 1_554
Hg20 I11 3.397362 1_555
Hg21 Sb3 2.766752 1_555
Hg21 Sb9 2.778076 1_555
Hg21 I15 3.097199 1_555
Hg21 I7 3.397358 1_555
Hg22 Sb2 2.766762 1_555
Hg22 Sb10 2.778062 1_555
Hg22 I14 3.097200 1_455
Hg22 I4 3.397362 1_555
Hg23 Sb1 2.766762 1_545
Hg23 Sb8 2.778062 1_555
Hg23 I20 3.097200 1_555
Hg23 I1 3.397362 1_555
Hg24 Sb0 2.747377 1_555
Hg24 I19 3.028169 1_555
Hg24 I23 3.028169 1_555
Hg24 I14 3.028169 1_555
Hg25 Sb1 2.747377 1_555
Hg25 I15 3.028169 1_555
Hg25 I16 3.028169 1_555
Hg25 I12 3.028169 1_555
Hg26 Sb2 2.747377 1_555
Hg26 I21 3.028169 1_555
Hg26 I17 3.028169 1_555
Hg26 I13 3.028169 1_555
Hg27 Sb3 2.747377 1_555
Hg27 I20 3.028169 1_555
Hg27 I18 3.028169 1_555
Hg27 I22 3.028169 1_555
Hg28 Sb4 2.747377 1_555
Hg28 I2 3.028169 1_555
Hg28 I7 3.028169 1_555
Hg28 I11 3.028169 1_555
Hg29 Sb5 2.747377 1_555
Hg29 I0 3.028169 1_555
Hg29 I3 3.028169 1_555
Hg29 I4 3.028169 1_555
Hg30 Sb6 2.747377 1_555
Hg30 I1 3.028169 1_555
Hg30 I9 3.028169 1_555
Hg30 I5 3.028169 1_555
Hg31 Sb7 2.747377 1_555
Hg31 I8 3.028169 1_555
Hg31 I6 3.028169 1_555
Hg31 I10 3.028169 1_555
Sb10 Sb14 2.836019 1_455
Sb11 Sb15 2.836019 1_666
Sb12 Sb8 2.836019 1_565
Sb13 Sb9 2.836019 1_556
