# generated using pymatgen
data_RuCl3
_symmetry_space_group_name_H-M   'P 1'
_cell_length_a   5.67615011
_cell_length_b   6.23663128
_cell_length_c   10.76718872
_cell_angle_alpha   89.99988935
_cell_angle_beta   89.99997874
_cell_angle_gamma   90.16930695
_symmetry_Int_Tables_number   1
_chemical_formula_structural   RuCl3
_chemical_formula_sum   'Ru4 Cl12'
_cell_volume   381.15741229
_cell_formula_units_Z   4
loop_
 _symmetry_equiv_pos_site_id
 _symmetry_equiv_pos_as_xyz
  1  'x, y, z'
loop_
 _atom_site_type_symbol
 _atom_site_label
 _atom_site_symmetry_multiplicity
 _atom_site_fract_x
 _atom_site_fract_y
 _atom_site_fract_z
 _atom_site_occupancy
  Ru  Ru0  1  0.00028025  0.25340963  0.25000000  1
  Ru  Ru1  1  0.49984813  0.74662116  0.75000000  1
  Ru  Ru2  1  0.50015424  0.25337946  0.24999900  1
  Ru  Ru3  1  0.99973195  0.74659884  0.75000100  1
  Cl  Cl0  1  0.74873216  0.44481182  0.75000100  1
  Cl  Cl1  1  0.24933861  0.59565277  0.59865587  1
  Cl  Cl2  1  0.74925032  0.95164184  0.24999900  1
  Cl  Cl3  1  0.24974106  0.10217312  0.40135758  1
  Cl  Cl4  1  0.24933861  0.59565377  0.90134513  1
  Cl  Cl5  1  0.24974106  0.10217312  0.09864142  1
  Cl  Cl6  1  0.75066333  0.40437339  0.40131930  1
  Cl  Cl7  1  0.75024513  0.89778554  0.90138810  1
  Cl  Cl8  1  0.25127608  0.55516809  0.25000000  1
  Cl  Cl9  1  0.25074960  0.04839851  0.75000000  1
  Cl  Cl10  1  0.75066433  0.40437339  0.09867970  1
  Cl  Cl11  1  0.75024513  0.89778554  0.59861290  1
loop_
_geom_bond_atom_site_label_1
_geom_bond_atom_site_label_2
_geom_bond_distance
_geom_bond_site_symmetry_2
Cl0 Ru1 2.356777 1_555
Cl0 Ru3 2.357199 1_555
Cl1 Ru1 2.357096 1_555
Cl1 Ru3 2.357312 1_455
Cl2 Ru2 2.357144 1_565
Cl2 Ru0 2.357207 1_665
Cl3 Ru2 2.357462 1_555
Cl3 Ru0 2.357631 1_555
Cl4 Ru1 2.357098 1_555
Cl4 Ru3 2.357300 1_455
Cl5 Ru2 2.357458 1_555
Cl5 Ru0 2.357641 1_555
Cl6 Ru2 2.356981 1_555
Cl6 Ru0 2.357199 1_655
Cl7 Ru1 2.357525 1_555
Cl7 Ru3 2.357817 1_555
Cl8 Ru2 2.356654 1_555
Cl8 Ru0 2.357044 1_555
Cl9 Ru3 2.357323 1_445
Cl9 Ru1 2.357350 1_545
Cl10 Ru2 2.356973 1_555
Cl10 Ru0 2.357201 1_655
Cl11 Ru1 2.357515 1_555
Cl11 Ru3 2.357823 1_555
