# generated using pymatgen
data_Sc2NCl2
_symmetry_space_group_name_H-M   'P 1'
_cell_length_a   3.36215028
_cell_length_b   3.36214999
_cell_length_c   9.07189285
_cell_angle_alpha   90.00000000
_cell_angle_beta   90.00000000
_cell_angle_gamma   119.99999268
_symmetry_Int_Tables_number   1
_chemical_formula_structural   Sc2NCl2
_chemical_formula_sum   'Sc2 N1 Cl2'
_cell_volume   88.81018625
_cell_formula_units_Z   1
loop_
 _symmetry_equiv_pos_site_id
 _symmetry_equiv_pos_as_xyz
  1  'x, y, z'
loop_
 _atom_site_type_symbol
 _atom_site_label
 _atom_site_symmetry_multiplicity
 _atom_site_fract_x
 _atom_site_fract_y
 _atom_site_fract_z
 _atom_site_occupancy
  Sc  Sc0  1  0.66666700  0.33333300  0.63095682  1
  Sc  Sc1  1  0.33333300  0.66666700  0.36904318  1
  N  N0  1  -0.00000000  0.00000000  0.50000000  1
  Cl  Cl0  1  0.66666700  0.33333300  0.18387672  1
  Cl  Cl1  1  0.33333300  0.66666700  0.81612328  1
loop_
_geom_bond_atom_site_label_1
_geom_bond_atom_site_label_2
_geom_bond_distance
_geom_bond_site_symmetry_2
N0 Sc1 2.275833 1_545
N0 Sc0 2.275833 1_455
N0 Sc1 2.275836 1_555
N0 Sc0 2.275836 1_445
N0 Sc0 2.275836 1_555
N0 Sc1 2.275836 1_445
Cl0 Sc1 2.567055 1_545
Cl0 Sc1 2.567055 1_655
Cl0 Sc1 2.567060 1_555
Cl1 Sc0 2.567055 1_565
Cl1 Sc0 2.567055 1_455
Cl1 Sc0 2.567060 1_555
