# generated using pymatgen
data_Na14Hf3Mg5Si6(SO8)6
_symmetry_space_group_name_H-M   'P 1'
_cell_length_a   18.25145676
_cell_length_b   9.10303135
_cell_length_c   22.48836332
_cell_angle_alpha   89.95513237
_cell_angle_beta   90.29805446
_cell_angle_gamma   120.11997563
_symmetry_Int_Tables_number   1
_chemical_formula_structural   Na14Hf3Mg5Si6(SO8)6
_chemical_formula_sum   'Na42 Hf9 Mg15 Si18 S18 O144'
_cell_volume   3231.75846259
_cell_formula_units_Z   3
loop_
 _symmetry_equiv_pos_site_id
 _symmetry_equiv_pos_as_xyz
  1  'x, y, z'
loop_
 _atom_site_type_symbol
 _atom_site_label
 _atom_site_symmetry_multiplicity
 _atom_site_fract_x
 _atom_site_fract_y
 _atom_site_fract_z
 _atom_site_occupancy
  Na  Na0  1  0.19485201  0.36171568  0.24763657  1
  Na  Na1  1  0.68897946  0.35702559  0.24769033  1
  Na  Na2  1  0.99645002  0.64620047  0.25169203  1
  Na  Na3  1  0.49467820  0.63828635  0.24335868  1
  Na  Na4  1  0.31592752  0.63156209  0.74730966  1
  Na  Na5  1  0.81476481  0.62584128  0.73857242  1
  Na  Na6  1  0.19114914  0.02501383  0.74775064  1
  Na  Na7  1  0.69385326  0.02726290  0.74736398  1
  Na  Na8  1  0.15283076  0.32523165  0.57869147  1
  Na  Na9  1  0.66474078  0.34459951  0.57903550  1
  Na  Na10  1  0.01219052  0.69888288  0.57924028  1
  Na  Na11  1  0.52367800  0.70539122  0.58091879  1
  Na  Na12  1  0.32334994  0.97057563  0.58923874  1
  Na  Na13  1  0.82195433  0.95350778  0.58798562  1
  Na  Na14  1  0.15577435  0.97994987  0.07999989  1
  Na  Na15  1  0.64787617  0.96450515  0.07679408  1
  Na  Na16  1  0.82188935  0.67681014  0.08859108  1
  Na  Na17  1  0.02117838  0.33939988  0.08024202  1
  Na  Na18  1  0.52401219  0.35252251  0.08615885  1
  Na  Na19  1  0.49377482  0.68345735  0.92250475  1
  Na  Na20  1  0.98988848  0.67857891  0.91773222  1
  Na  Na21  1  0.84509901  0.03252463  0.90835115  1
  Na  Na22  1  0.16187939  0.28109180  0.91018991  1
  Na  Na23  1  0.66537679  0.27931160  0.91658531  1
  Na  Na24  1  0.49308755  0.30581105  0.41818882  1
  Na  Na25  1  0.98918779  0.30014965  0.42050538  1
  Na  Na26  1  0.16548706  0.05169065  0.41669296  1
  Na  Na27  1  0.66707348  0.05260448  0.41656561  1
  Na  Na28  1  0.34787144  0.65814514  0.40784798  1
  Na  Na29  1  0.84617812  0.65376684  0.41786750  1
  Na  Na30  1  0.00403013  0.99874366  0.49998070  1
  Na  Na31  1  0.51347610  0.01683111  0.49621455  1
  Na  Na32  1  0.00877262  0.00640651  0.99577238  1
  Na  Na33  1  0.50341261  0.99533089  0.99932499  1
  Na  Na34  1  0.33004605  0.30426404  0.82694775  1
  Na  Na35  1  0.82682116  0.31036230  0.82627682  1
  Na  Na36  1  0.32480361  0.32993121  0.32594974  1
  Na  Na37  1  0.82106667  0.32666248  0.32910502  1
  Na  Na38  1  0.18388351  0.67788787  0.16409879  1
  Na  Na39  1  0.66581681  0.66849765  0.16187667  1
  Na  Na40  1  0.16497817  0.66834555  0.66514266  1
  Na  Na41  1  0.67478641  0.67048561  0.66117684  1
  Hf  Hf0  1  0.99966883  0.00505662  0.64990218  1
  Hf  Hf1  1  0.50475887  0.01691048  0.65261850  1
  Hf  Hf2  1  0.00347011  0.99641649  0.15229262  1
  Hf  Hf3  1  0.50028528  0.98179668  0.14772393  1
  Hf  Hf4  1  0.32678032  0.32710455  0.98471827  1
  Hf  Hf5  1  0.17575159  0.67307143  0.31213741  1
  Hf  Hf6  1  0.67491252  0.67074586  0.31117947  1
  Hf  Hf7  1  0.17103240  0.67778702  0.81211088  1
  Hf  Hf8  1  0.67091395  0.67582662  0.81202052  1
  Mg  Mg0  1  0.00595092  0.00205250  0.34793848  1
  Mg  Mg1  1  0.50649884  0.00414471  0.34606655  1
  Mg  Mg2  1  0.00582763  0.01116071  0.84601256  1
  Mg  Mg3  1  0.50457024  0.01397460  0.84965857  1
  Mg  Mg4  1  0.32635997  0.30964472  0.68705651  1
  Mg  Mg5  1  0.82303128  0.31867757  0.68345871  1
  Mg  Mg6  1  0.32981027  0.34531002  0.18484639  1
  Mg  Mg7  1  0.82236114  0.33055875  0.18682838  1
  Mg  Mg8  1  0.81969080  0.31144877  0.98351422  1
  Mg  Mg9  1  0.32176830  0.32820772  0.48290786  1
  Mg  Mg10  1  0.81944787  0.33881996  0.48738561  1
  Mg  Mg11  1  0.17168032  0.67155471  0.01632486  1
  Mg  Mg12  1  0.65876566  0.66438059  0.01976305  1
  Mg  Mg13  1  0.16389808  0.66374840  0.51612012  1
  Mg  Mg14  1  0.67150937  0.66272772  0.51926841  1
  Si  Si0  1  0.15237822  0.00293436  0.25301796  1
  Si  Si1  1  0.65032085  0.00103734  0.25292471  1
  Si  Si2  1  0.35658513  0.70977973  0.25401639  1
  Si  Si3  1  0.85607828  0.70641090  0.25216715  1
  Si  Si4  1  0.14984205  0.29930428  0.75154978  1
  Si  Si5  1  0.65033162  0.29925577  0.75488424  1
  Si  Si6  1  0.35770768  0.00770667  0.75207537  1
  Si  Si7  1  0.85752067  0.01232506  0.75402258  1
  Si  Si8  1  0.18520318  0.03046146  0.58211178  1
  Si  Si9  1  0.68294896  0.02923098  0.58212200  1
  Si  Si10  1  0.83526673  0.62925645  0.58390868  1
  Si  Si11  1  0.47907875  0.62069176  0.08504371  1
  Si  Si12  1  0.18347267  0.34177916  0.08548630  1
  Si  Si13  1  0.68488788  0.33846395  0.08228158  1
  Si  Si14  1  0.16401420  0.95933917  0.91988703  1
  Si  Si15  1  0.66549720  0.96323296  0.91880098  1
  Si  Si16  1  0.16467262  0.36874389  0.41968863  1
  Si  Si17  1  0.66347828  0.36628023  0.41862213  1
  S  S0  1  0.99801737  0.29205601  0.25118966  1
  S  S1  1  0.49767664  0.28982996  0.25173385  1
  S  S2  1  0.99935715  0.70542652  0.75178100  1
  S  S3  1  0.49837957  0.70466690  0.75080380  1
  S  S4  1  0.47618302  0.33376429  0.58272723  1
  S  S5  1  0.97876262  0.33581712  0.58223858  1
  S  S6  1  0.33485137  0.62659466  0.58318954  1
  S  S7  1  0.97855534  0.62208983  0.08291018  1
  S  S8  1  0.33237893  0.04004499  0.08472708  1
  S  S9  1  0.83628401  0.04637968  0.08285764  1
  S  S10  1  0.31392207  0.66914825  0.91749815  1
  S  S11  1  0.81464236  0.66801928  0.91877864  1
  S  S12  1  0.01995119  0.37608732  0.91900480  1
  S  S13  1  0.51967796  0.37274681  0.91753027  1
  S  S14  1  0.31472391  0.96211247  0.41919945  1
  S  S15  1  0.81499708  0.96273118  0.41786975  1
  S  S16  1  0.01988102  0.66353182  0.41699961  1
  S  S17  1  0.51968704  0.66344129  0.41890398  1
  O  O0  1  0.10779165  0.03459951  0.30930113  1
  O  O1  1  0.60897385  0.03506088  0.31058501  1
  O  O2  1  0.40838190  0.79634984  0.31433356  1
  O  O3  1  0.91180638  0.79929003  0.31027814  1
  O  O4  1  0.48837415  0.19095561  0.30561325  1
  O  O5  1  0.98627083  0.19027099  0.30448028  1
  O  O6  1  0.11054867  0.18040064  0.80938797  1
  O  O7  1  0.60756337  0.17684712  0.81050842  1
  O  O8  1  0.48526586  0.78040312  0.80435620  1
  O  O9  1  0.98745594  0.78389952  0.80524320  1
  O  O10  1  0.41115972  0.00740763  0.80764757  1
  O  O11  1  0.90689265  0.01550419  0.81393025  1
  O  O12  1  0.39410216  0.96252313  0.68971577  1
  O  O13  1  0.89796079  0.96756990  0.69510842  1
  O  O14  1  0.09135351  0.20962443  0.69151169  1
  O  O15  1  0.59112576  0.21122443  0.69337036  1
  O  O16  1  0.01619451  0.81720403  0.69834279  1
  O  O17  1  0.51472419  0.81820014  0.69716094  1
  O  O18  1  0.40024520  0.83214087  0.19605699  1
  O  O19  1  0.89821982  0.82400777  0.19090949  1
  O  O20  1  0.01467724  0.21291999  0.19724162  1
  O  O21  1  0.51406389  0.21521082  0.19794993  1
  O  O22  1  0.08778366  0.96460341  0.19272739  1
  O  O23  1  0.58797748  0.96548102  0.19306960  1
  O  O24  1  0.43577054  0.35906350  0.63477787  1
  O  O25  1  0.93847150  0.36013526  0.63493477  1
  O  O26  1  0.24487149  0.11357115  0.64028767  1
  O  O27  1  0.73970163  0.10894511  0.64143978  1
  O  O28  1  0.32468385  0.52517979  0.63678956  1
  O  O29  1  0.82368443  0.51588065  0.64253925  1
  O  O30  1  0.43637382  0.49949787  0.14164957  1
  O  O31  1  0.93975091  0.51894716  0.13646740  1
  O  O32  1  0.31812348  0.12005745  0.13701133  1
  O  O33  1  0.82658463  0.13150537  0.13530695  1
  O  O34  1  0.23592910  0.35498858  0.14398237  1
  O  O35  1  0.74465390  0.37371689  0.14052259  1
  O  O36  1  0.22622233  0.29886468  0.02610984  1
  O  O37  1  0.72222197  0.29267778  0.02366213  1
  O  O38  1  0.42186251  0.53046801  0.02307050  1
  O  O39  1  0.92746708  0.54484889  0.02878428  1
  O  O40  1  0.34534915  0.14890131  0.03023052  1
  O  O41  1  0.85322668  0.15110764  0.02836670  1
  O  O42  1  0.22385901  0.14785603  0.52283081  1
  O  O43  1  0.71989621  0.14650116  0.52299662  1
  O  O44  1  0.34976406  0.55055208  0.52945291  1
  O  O45  1  0.85929387  0.56015856  0.52415313  1
  O  O46  1  0.42548299  0.30457813  0.52767527  1
  O  O47  1  0.92902541  0.30689730  0.52721087  1
  O  O48  1  0.27155582  0.68683406  0.96943817  1
  O  O49  1  0.77379928  0.69223054  0.97093197  1
  O  O50  1  0.07347351  0.45439359  0.97238407  1
  O  O51  1  0.57149377  0.45094603  0.97135732  1
  O  O52  1  0.15085820  0.84277411  0.97778517  1
  O  O53  1  0.65394827  0.84428759  0.97545184  1
  O  O54  1  0.27396133  0.85626334  0.47187516  1
  O  O55  1  0.77475469  0.85821940  0.47081847  1
  O  O56  1  0.15166601  0.46083934  0.47720414  1
  O  O57  1  0.64741306  0.45637552  0.47533281  1
  O  O58  1  0.07387360  0.69235070  0.47002355  1
  O  O59  1  0.57350169  0.69080614  0.47163660  1
  O  O60  1  0.06285261  0.64511317  0.36296647  1
  O  O61  1  0.55985914  0.64027366  0.36451177  1
  O  O62  1  0.25785546  0.87949015  0.36573361  1
  O  O63  1  0.75805607  0.87876715  0.36459566  1
  O  O64  1  0.17676394  0.49379931  0.36093084  1
  O  O65  1  0.67620256  0.49173405  0.35992122  1
  O  O66  1  0.06263964  0.48336317  0.86583091  1
  O  O67  1  0.56158752  0.48413663  0.86489451  1
  O  O68  1  0.17490498  0.86378922  0.86038712  1
  O  O69  1  0.67676008  0.86382011  0.85943035  1
  O  O70  1  0.25931982  0.63712491  0.86280937  1
  O  O71  1  0.75920328  0.63819216  0.86445044  1
  O  O72  1  0.00887866  0.81414258  0.41220243  1
  O  O73  1  0.50789639  0.81332789  0.41389513  1
  O  O74  1  0.39814609  0.97560303  0.41173738  1
  O  O75  1  0.89858874  0.97509639  0.41015743  1
  O  O76  1  0.07836102  0.18058624  0.41306917  1
  O  O77  1  0.57734371  0.17768728  0.41211649  1
  O  O78  1  0.00868744  0.20315237  0.91337639  1
  O  O79  1  0.51006683  0.20358206  0.91121537  1
  O  O80  1  0.07883583  0.97857483  0.91365409  1
  O  O81  1  0.57897608  0.97726837  0.91326701  1
  O  O82  1  0.39944157  0.81306698  0.91084049  1
  O  O83  1  0.89939215  0.82180027  0.91172010  1
  O  O84  1  0.48341961  0.17354417  0.58886980  1
  O  O85  1  0.98816264  0.17918570  0.58848216  1
  O  O86  1  0.08965434  0.01305851  0.59025753  1
  O  O87  1  0.58423433  0.00998424  0.58987597  1
  O  O88  1  0.41171550  0.80169030  0.58784512  1
  O  O89  1  0.91951559  0.82714783  0.58989996  1
  O  O90  1  0.48813394  0.81297476  0.08617332  1
  O  O91  1  0.98529198  0.79667872  0.08789893  1
  O  O92  1  0.41096240  0.03175127  0.08859622  1
  O  O93  1  0.91395397  0.02652442  0.08884632  1
  O  O94  1  0.08579998  0.15964852  0.08741973  1
  O  O95  1  0.58653158  0.17091744  0.09106712  1
  O  O96  1  0.34229067  0.16639258  0.74677853  1
  O  O97  1  0.84242847  0.17054858  0.74604331  1
  O  O98  1  0.24641236  0.33398509  0.74345995  1
  O  O99  1  0.74508031  0.32861216  0.74748330  1
  O  O100  1  0.42387618  0.53845261  0.73992667  1
  O  O101  1  0.92556286  0.53684876  0.74316884  1
  O  O102  1  0.34682177  0.52251441  0.24828667  1
  O  O103  1  0.85011444  0.52263753  0.24534962  1
  O  O104  1  0.42485129  0.31525652  0.24518483  1
  O  O105  1  0.92674444  0.31884159  0.24082083  1
  O  O106  1  0.24437526  0.16498100  0.24317535  1
  O  O107  1  0.74331695  0.16415154  0.24454126  1
  O  O108  1  0.31952023  0.50782187  0.92110988  1
  O  O109  1  0.82546880  0.51668091  0.92235064  1
  O  O110  1  0.43490197  0.36235101  0.92188958  1
  O  O111  1  0.93607775  0.36485843  0.92409033  1
  O  O112  1  0.24996939  0.15354839  0.92155682  1
  O  O113  1  0.75412617  0.14919149  0.91784471  1
  O  O114  1  0.32526333  0.13453099  0.42265420  1
  O  O115  1  0.82608658  0.13520762  0.42133228  1
  O  O116  1  0.25283623  0.35959390  0.41891902  1
  O  O117  1  0.75097550  0.35544763  0.41804634  1
  O  O118  1  0.43481977  0.50552745  0.42424642  1
  O  O119  1  0.93702958  0.50459124  0.42062541  1
  O  O120  1  0.16605437  0.49837297  0.07547000  1
  O  O121  1  0.67653604  0.50946772  0.07498124  1
  O  O122  1  0.06596605  0.65142103  0.07847213  1
  O  O123  1  0.57512366  0.65263061  0.07976358  1
  O  O124  1  0.25666462  0.87077366  0.07621732  1
  O  O125  1  0.76151717  0.87477571  0.07697912  1
  O  O126  1  0.17198741  0.83673352  0.57598316  1
  O  O127  1  0.66678799  0.83545541  0.57525820  1
  O  O128  1  0.25840083  0.64487466  0.57729820  1
  O  O129  1  0.75049720  0.64870484  0.57896497  1
  O  O130  1  0.06616146  0.48549143  0.57807256  1
  O  O131  1  0.56287362  0.48054146  0.57807986  1
  O  O132  1  0.14755273  0.81563572  0.25718461  1
  O  O133  1  0.64776168  0.81586823  0.25772297  1
  O  O134  1  0.25706106  0.67879944  0.25475432  1
  O  O135  1  0.75792910  0.67743154  0.25399112  1
  O  O136  1  0.07755350  0.46390958  0.25588898  1
  O  O137  1  0.57703585  0.46526675  0.25702667  1
  O  O138  1  0.15729553  0.48846182  0.75781715  1
  O  O139  1  0.65721077  0.48715812  0.75812695  1
  O  O140  1  0.07877290  0.69417232  0.75655369  1
  O  O141  1  0.57720972  0.69250504  0.75544254  1
  O  O142  1  0.25825315  0.82980797  0.75509933  1
  O  O143  1  0.75912972  0.83143451  0.75612122  1
loop_
_geom_bond_atom_site_label_1
_geom_bond_atom_site_label_2
_geom_bond_distance
_geom_bond_site_symmetry_2
Na0 O106 2.379102 1_555
Na0 O102 2.400200 1_555
Na0 O34 2.462505 1_555
Na0 O134 2.521091 1_555
Na0 O136 2.736126 1_555
Na0 O64 2.908245 1_555
Na0 O0 2.929608 1_555
Na1 O107 2.412395 1_555
Na1 O135 2.534902 1_555
Na1 O103 2.544886 1_555
Na1 O35 2.594958 1_555
Na1 O137 2.685995 1_555
Na1 O65 2.868112 1_555
Na1 O1 2.905592 1_555
Na1 O21 2.989726 1_555
Na2 O103 2.323819 1_555
Na2 O132 2.393238 1_655
Na2 O105 2.598357 1_555
Na2 O136 2.723457 1_655
Na2 O60 2.776915 1_655
Na2 O31 2.810847 1_555
Na2 O22 2.847084 1_655
Na2 O3 2.872152 1_555
Na3 O102 2.356690 1_555
Na3 O133 2.445897 1_555
Na3 O104 2.551850 1_555
Na3 O30 2.567114 1_555
Na3 O137 2.684220 1_555
Na3 O23 2.823901 1_555
Na3 O61 2.963686 1_555
Na4 O98 2.346277 1_555
Na4 O142 2.510856 1_555
Na4 O100 2.511437 1_555
Na4 O138 2.521258 1_555
Na4 O28 2.702566 1_555
Na4 O70 2.810183 1_555
Na4 O12 2.913568 1_555
Na4 O8 2.965221 1_555
Na5 O99 2.350872 1_555
Na5 O29 2.421371 1_555
Na5 O101 2.529464 1_555
Na5 O139 2.534763 1_555
Na5 O143 2.569439 1_555
Na5 O13 2.864952 1_555
Na6 O96 2.388289 1_555
Na6 O98 2.467930 1_555
Na6 O26 2.584540 1_555
Na6 O142 2.620414 1_545
Na6 O140 2.668316 1_545
Na6 O6 2.863361 1_555
Na6 O68 2.867626 1_545
Na6 O16 2.985533 1_545
Na7 O97 2.346601 1_555
Na7 O99 2.413538 1_555
Na7 O27 2.514126 1_555
Na7 O143 2.600863 1_545
Na7 O141 2.709901 1_545
Na7 O69 2.863349 1_545
Na7 O7 2.920537 1_555
Na8 O86 2.487166 1_555
Na8 O128 2.560026 1_555
Na8 O56 2.598949 1_555
Na8 O85 2.616278 1_455
Na8 O130 2.635608 1_555
Na8 O14 2.764764 1_555
Na8 O42 2.826068 1_555
Na9 O129 2.400963 1_555
Na9 O57 2.624043 1_555
Na9 O87 2.647130 1_555
Na9 O131 2.701330 1_555
Na9 O43 2.773458 1_555
Na9 O84 2.874161 1_555
Na9 O15 2.878238 1_555
Na9 O29 2.882171 1_555
Na10 O86 2.485748 1_565
Na10 O89 2.503701 1_455
Na10 O126 2.532814 1_555
Na10 O130 2.581686 1_555
Na10 O45 2.710436 1_455
Na10 O58 2.720223 1_555
Na10 O16 2.874520 1_555
Na10 O25 2.955550 1_455
Na11 O127 2.267130 1_555
Na11 O87 2.423434 1_565
Na11 O131 2.485060 1_555
Na11 O88 2.601899 1_555
Na11 O59 2.651259 1_555
Na11 O17 2.844610 1_555
Na11 O44 2.979222 1_555
Na11 O24 2.986306 1_555
Na12 O126 2.412285 1_555
Na12 O84 2.555738 1_565
Na12 O128 2.595832 1_555
Na12 O12 2.615898 1_555
Na12 O26 2.637161 1_565
Na12 O88 2.730323 1_555
Na12 O54 2.810605 1_555
Na13 O129 2.409773 1_555
Na13 O127 2.488914 1_555
Na13 O89 2.559365 1_555
Na13 O85 2.677313 1_565
Na13 O13 2.744384 1_555
Na13 O55 2.768974 1_555
Na13 O27 2.802521 1_565
Na14 O124 2.494817 1_555
Na14 O94 2.536557 1_565
Na14 O122 2.590652 1_555
Na14 O52 2.596343 1_554
Na14 O91 2.700372 1_455
Na14 O36 2.795408 1_565
Na14 O22 2.800736 1_555
Na14 O32 2.867160 1_565
Na15 O123 2.458613 1_555
Na15 O90 2.533225 1_555
Na15 O53 2.555790 1_554
Na15 O125 2.582508 1_555
Na15 O95 2.646359 1_565
Na15 O23 2.841161 1_555
Na15 O37 2.852406 1_565
Na16 O121 2.321317 1_555
Na16 O125 2.553233 1_555
Na16 O91 2.611446 1_555
Na16 O35 2.659345 1_555
Na16 O19 2.669973 1_555
Na16 O93 2.754856 1_565
Na16 O49 2.808933 1_554
Na17 O120 2.293431 1_555
Na17 O94 2.455411 1_555
Na17 O93 2.527482 1_455
Na17 O122 2.531255 1_555
Na17 O50 2.628198 1_554
Na17 O20 2.850250 1_555
Na17 O41 2.896212 1_455
Na17 O31 2.989886 1_455
Na18 O123 2.407742 1_555
Na18 O121 2.422586 1_555
Na18 O95 2.436957 1_555
Na18 O92 2.596316 1_555
Na18 O51 2.731173 1_554
Na18 O21 2.772650 1_555
Na18 O30 2.841997 1_555
Na19 O81 2.333022 1_555
Na19 O82 2.541394 1_555
Na19 O110 2.558635 1_555
Na19 O38 2.639750 1_556
Na19 O108 2.750977 1_555
Na19 O53 2.788988 1_555
Na19 O8 2.827010 1_555
Na19 O67 2.962539 1_555
Na20 O80 2.377667 1_655
Na20 O111 2.515263 1_555
Na20 O83 2.569964 1_555
Na20 O109 2.598560 1_555
Na20 O9 2.712610 1_555
Na20 O39 2.765811 1_556
Na20 O52 2.871243 1_655
Na20 O66 2.944629 1_655
Na21 O113 2.388338 1_555
Na21 O11 2.450613 1_555
Na21 O83 2.563981 1_545
Na21 O78 2.585014 1_655
Na21 O111 2.643592 1_555
Na21 O69 2.870640 1_545
Na21 O41 2.882930 1_556
Na22 O80 2.387202 1_545
Na22 O112 2.422181 1_555
Na22 O6 2.444561 1_555
Na22 O78 2.517359 1_555
Na22 O108 2.575244 1_555
Na22 O36 2.824725 1_556
Na23 O81 2.387400 1_545
Na23 O113 2.439805 1_555
Na23 O79 2.561315 1_555
Na23 O7 2.581379 1_555
Na23 O37 2.595646 1_556
Na23 O109 2.623615 1_555
Na24 O77 2.355048 1_555
Na24 O118 2.529242 1_555
Na24 O74 2.613356 1_545
Na24 O114 2.652006 1_555
Na24 O4 2.724216 1_555
Na24 O57 2.748482 1_555
Na24 O46 2.757271 1_555
Na24 O61 2.915082 1_555
Na25 O76 2.375370 1_655
Na25 O119 2.479476 1_555
Na25 O75 2.574961 1_545
Na25 O115 2.575074 1_555
Na25 O47 2.657641 1_555
Na25 O5 2.785766 1_555
Na25 O56 2.858238 1_655
Na26 O76 2.404811 1_555
Na26 O116 2.432050 1_555
Na26 O42 2.576681 1_555
Na26 O72 2.578822 1_545
Na26 O0 2.602944 1_555
Na26 O114 2.622903 1_555
Na27 O117 2.389295 1_555
Na27 O77 2.420365 1_555
Na27 O43 2.557512 1_555
Na27 O1 2.575765 1_555
Na27 O115 2.608922 1_555
Na27 O73 2.614510 1_545
Na28 O116 2.393526 1_555
Na28 O2 2.418798 1_555
Na28 O73 2.529782 1_555
Na28 O74 2.557149 1_555
Na28 O118 2.605813 1_555
Na28 O64 2.895413 1_555
Na28 O44 2.909949 1_555
Na29 O117 2.378677 1_555
Na29 O72 2.572610 1_655
Na29 O45 2.586889 1_555
Na29 O75 2.587256 1_555
Na29 O119 2.618412 1_555
Na29 O3 2.734273 1_555
Na30 O76 2.483814 1_565
Na30 O86 2.518704 1_565
Na30 O89 2.552971 1_455
Na30 O72 2.623846 1_555
Na30 O85 2.689154 1_465
Na30 O75 2.715633 1_455
Na31 O77 2.320602 1_555
Na31 O87 2.482025 1_555
Na31 O73 2.585195 1_545
Na31 O74 2.710600 1_545
Na31 O84 2.734893 1_555
Na31 O88 2.813195 1_545
Na32 O80 2.336702 1_545
Na32 O94 2.485199 1_556
Na32 O78 2.576552 1_555
Na32 O83 2.642159 1_445
Na32 O91 2.702350 1_446
Na32 O93 2.786717 1_456
Na33 O81 2.435225 1_555
Na33 O90 2.486736 1_556
Na33 O95 2.579094 1_566
Na33 O82 2.668216 1_555
Na33 O79 2.701880 1_565
Na33 O92 2.754108 1_566
Na34 O96 2.272593 1_555
Na34 O98 2.512388 1_555
Na34 O112 2.561324 1_555
Na34 O110 2.728436 1_555
Na34 O100 2.769735 1_555
Na34 O108 2.884817 1_555
Na35 O97 2.308540 1_555
Na35 O99 2.369362 1_555
Na35 O113 2.494650 1_555
Na35 O101 2.700277 1_555
Na35 O111 2.832717 1_555
Na35 O109 2.872167 1_555
Na36 O102 2.362327 1_555
Na36 O106 2.374510 1_555
Na36 O116 2.560229 1_555
Na36 O104 2.632625 1_555
Na36 O114 2.811072 1_555
Na36 O118 2.865570 1_555
Na37 O107 2.384969 1_555
Na37 O103 2.463163 1_555
Na37 O117 2.463661 1_555
Na37 O115 2.738627 1_555
Na37 O105 2.800856 1_555
Na37 O119 2.803267 1_555
Na38 O134 2.429143 1_555
Na38 O120 2.492679 1_555
Na38 O124 2.536605 1_555
Na38 O132 2.692052 1_555
Na38 O122 2.799111 1_555
Na38 O136 2.839516 1_555
Na39 O123 2.428863 1_555
Na39 O121 2.499056 1_555
Na39 O135 2.636462 1_555
Na39 O125 2.638042 1_555
Na39 O133 2.647588 1_555
Na39 O137 2.765516 1_555
Na40 O126 2.487418 1_555
Na40 O142 2.570699 1_555
Na40 O138 2.609932 1_555
Na40 O130 2.610149 1_555
Na40 O140 2.676240 1_555
Na40 O128 2.693856 1_555
Na41 O129 2.380965 1_555
Na41 O127 2.494456 1_555
Na41 O143 2.604280 1_555
Na41 O131 2.659826 1_555
Na41 O139 2.665653 1_555
Na41 O141 2.846744 1_555
Hf0 O13 1.994797 1_545
Hf0 O14 2.000632 1_655
Hf0 O89 2.046649 1_545
Hf0 O86 2.098687 1_655
Hf0 O16 2.170982 1_645
Hf0 O85 2.189087 1_555
Hf1 O15 1.908561 1_555
Hf1 O12 2.008338 1_545
Hf1 O87 2.052347 1_555
Hf1 O17 2.152653 1_545
Hf1 O84 2.188210 1_555
Hf1 O88 2.341709 1_545
Hf2 O22 1.926407 1_555
Hf2 O19 1.974054 1_455
Hf2 O94 2.091107 1_565
Hf2 O20 2.131713 1_565
Hf2 O91 2.215110 1_455
Hf2 O93 2.281387 1_465
Hf3 O23 1.960851 1_555
Hf3 O18 1.973081 1_555
Hf3 O90 1.996226 1_555
Hf3 O95 2.088706 1_565
Hf3 O21 2.306126 1_565
Hf3 O92 2.313693 1_565
Hf4 O36 1.960828 1_556
Hf4 O38 1.986244 1_556
Hf4 O112 2.058843 1_555
Hf4 O40 2.083137 1_556
Hf4 O108 2.232293 1_555
Hf4 O110 2.320848 1_555
Hf5 O134 1.952549 1_555
Hf5 O64 1.973520 1_555
Hf5 O132 2.034084 1_555
Hf5 O62 2.094716 1_555
Hf5 O136 2.234466 1_555
Hf5 O60 2.261645 1_555
Hf6 O135 1.970036 1_555
Hf6 O65 1.973047 1_555
Hf6 O133 2.020949 1_555
Hf6 O63 2.105279 1_555
Hf6 O137 2.190973 1_555
Hf6 O61 2.316469 1_555
Hf7 O142 1.974966 1_555
Hf7 O68 1.983049 1_555
Hf7 O138 2.022453 1_555
Hf7 O70 2.147617 1_555
Hf7 O140 2.156046 1_555
Hf7 O66 2.238988 1_555
Hf8 O69 1.973601 1_555
Hf8 O143 1.976966 1_555
Hf8 O139 2.012487 1_555
Hf8 O71 2.153566 1_555
Hf8 O141 2.191914 1_555
Hf8 O67 2.228720 1_555
Mg0 O0 1.939426 1_555
Mg0 O3 1.969987 1_445
Mg0 O76 2.088330 1_555
Mg0 O5 2.152003 1_455
Mg0 O72 2.259308 1_545
Mg0 O75 2.324456 1_445
Mg1 O1 1.923766 1_555
Mg1 O2 1.970615 1_545
Mg1 O77 2.075442 1_555
Mg1 O4 2.094736 1_555
Mg1 O73 2.320447 1_545
Mg1 O74 2.381916 1_545
Mg2 O6 1.940121 1_555
Mg2 O11 1.959778 1_455
Mg2 O9 2.129881 1_445
Mg2 O80 2.133624 1_545
Mg2 O78 2.294319 1_555
Mg2 O83 2.365093 1_445
Mg3 O10 1.919322 1_555
Mg3 O7 1.930014 1_555
Mg3 O81 2.106298 1_545
Mg3 O79 2.175772 1_555
Mg3 O8 2.220499 1_545
Mg3 O82 2.328321 1_545
Mg4 O26 1.956115 1_555
Mg4 O96 1.990613 1_555
Mg4 O98 2.032563 1_555
Mg4 O24 2.166607 1_555
Mg4 O100 2.276173 1_555
Mg4 O28 2.276999 1_555
Mg5 O27 1.981091 1_555
Mg5 O29 2.011350 1_555
Mg5 O99 2.063008 1_555
Mg5 O97 2.096515 1_555
Mg5 O25 2.235551 1_555
Mg5 O101 2.344636 1_555
Mg6 O34 1.980715 1_555
Mg6 O30 1.993550 1_555
Mg6 O102 2.056746 1_555
Mg6 O106 2.072603 1_555
Mg6 O32 2.229189 1_555
Mg6 O104 2.318670 1_555
Mg7 O35 1.947675 1_555
Mg7 O107 1.970665 1_555
Mg7 O103 2.038035 1_555
Mg7 O33 2.185424 1_555
Mg7 O31 2.269060 1_555
Mg7 O105 2.301070 1_555
Mg8 O37 1.928835 1_556
Mg8 O113 2.001416 1_555
Mg8 O41 2.100079 1_556
Mg8 O109 2.278835 1_555
Mg8 O39 2.282104 1_556
Mg8 O111 2.350862 1_555
Mg9 O42 1.940277 1_555
Mg9 O116 2.019030 1_555
Mg9 O44 2.100745 1_555
Mg9 O46 2.243106 1_555
Mg9 O114 2.250767 1_555
Mg9 O118 2.299031 1_555
Mg10 O45 1.948828 1_555
Mg10 O43 1.956545 1_555
Mg10 O117 2.045828 1_555
Mg10 O47 2.334649 1_555
Mg10 O115 2.426559 1_555
Mg10 O119 2.432370 1_555
Mg11 O52 1.978332 1_554
Mg11 O120 2.024996 1_555
Mg11 O48 2.054091 1_554
Mg11 O50 2.127332 1_554
Mg11 O124 2.160495 1_555
Mg11 O122 2.319986 1_555
Mg12 O53 1.955460 1_554
Mg12 O123 2.004966 1_555
Mg12 O121 2.021849 1_555
Mg12 O51 2.091962 1_554
Mg12 O49 2.273224 1_554
Mg12 O125 2.283566 1_555
Mg13 O56 1.952975 1_555
Mg13 O126 2.020316 1_555
Mg13 O58 2.062359 1_555
Mg13 O54 2.140426 1_555
Mg13 O130 2.207582 1_555
Mg13 O128 2.273689 1_555
Mg14 O57 1.966574 1_555
Mg14 O129 2.015233 1_555
Mg14 O127 2.050680 1_555
Mg14 O55 2.134870 1_555
Mg14 O59 2.202491 1_555
Mg14 O131 2.270377 1_555
O0 Si0 1.610606 1_555
O1 Si1 1.610027 1_555
O2 Si2 1.610991 1_555
O3 Si3 1.606854 1_555
O4 S1 1.467689 1_555
O5 S0 1.463639 1_555
O6 Si4 1.614343 1_555
O7 Si5 1.597098 1_555
O8 S3 1.467262 1_555
O9 S2 1.470622 1_555
O10 Si6 1.582262 1_555
O11 Si7 1.609072 1_555
O12 Si6 1.691694 1_565
O13 Si7 1.667000 1_565
O14 Si4 1.655607 1_555
O15 Si5 1.685409 1_555
O16 S2 1.504012 1_455
O17 S3 1.518134 1_555
O18 Si2 1.640815 1_555
O19 Si3 1.678582 1_555
O20 S0 1.519311 1_455
O21 S1 1.490878 1_555
O22 Si0 1.709154 1_565
O23 Si1 1.681201 1_565
O24 S4 1.465301 1_555
O25 S5 1.472066 1_555
O26 Si8 1.621663 1_555
O27 Si9 1.616078 1_555
O28 S6 1.472509 1_555
O29 Si10 1.621760 1_555
O30 Si11 1.609411 1_555
O31 S7 1.474276 1_555
O32 S8 1.474920 1_555
O33 S9 1.471159 1_555
O34 Si12 1.591596 1_555
O35 Si13 1.625659 1_555
O36 Si12 1.691722 1_555
O37 Si13 1.634338 1_555
O38 Si11 1.683231 1_555
O39 S7 1.475446 1_555
O40 S8 1.518420 1_555
O41 S9 1.487401 1_555
O42 Si8 1.633364 1_555
O43 Si9 1.626922 1_555
O44 S6 1.485738 1_555
O45 Si10 1.636475 1_555
O46 S4 1.483721 1_555
O47 S5 1.474349 1_555
O48 S10 1.456980 1_555
O49 S11 1.467724 1_555
O50 S12 1.481098 1_555
O51 S13 1.476538 1_555
O52 Si14 1.619954 1_555
O53 Si15 1.615989 1_555
O54 S14 1.474146 1_555
O55 S15 1.472562 1_555
O56 Si16 1.623814 1_555
O57 Si17 1.622328 1_555
O58 S16 1.480066 1_555
O59 S17 1.475073 1_555
O60 S16 1.503977 1_555
O61 S17 1.497725 1_555
O62 S14 1.514465 1_555
O63 S15 1.513551 1_555
O64 Si16 1.684984 1_555
O65 Si17 1.683865 1_555
O66 S12 1.494939 1_555
O67 S13 1.497832 1_555
O68 Si14 1.662695 1_555
O69 Si15 1.683828 1_555
O70 S10 1.512262 1_555
O71 S11 1.517286 1_555
O72 S16 1.485765 1_555
O73 S17 1.488233 1_555
O74 S14 1.475279 1_555
O75 S15 1.483505 1_555
O76 Si16 1.651498 1_555
O77 Si17 1.652106 1_555
O78 S12 1.487188 1_555
O79 S13 1.466712 1_555
O80 Si14 1.654715 1_555
O81 Si15 1.651031 1_555
O82 S10 1.457697 1_555
O83 S11 1.485422 1_555
O84 S4 1.535104 1_555
O85 S5 1.525469 1_555
O86 Si8 1.681032 1_555
O87 Si9 1.730199 1_555
O88 S6 1.508023 1_555
O89 Si10 1.686970 1_555
O90 Si11 1.673741 1_555
O91 S7 1.535435 1_555
O92 S8 1.475720 1_555
O93 S9 1.521674 1_555
O94 Si12 1.721333 1_555
O95 Si13 1.686159 1_555
O96 Si6 1.608518 1_555
O97 Si7 1.606187 1_555
O98 Si4 1.638333 1_555
O99 Si5 1.621334 1_555
O100 S3 1.459598 1_555
O101 S2 1.459399 1_555
O102 Si2 1.627739 1_555
O103 Si3 1.628314 1_555
O104 S1 1.465819 1_555
O105 S0 1.456394 1_555
O106 Si0 1.600565 1_555
O107 Si1 1.610800 1_555
O108 S10 1.524475 1_555
O109 S11 1.488708 1_555
O110 S13 1.505744 1_555
O111 S12 1.487170 1_655
O112 Si14 1.674505 1_545
O113 Si15 1.653710 1_545
O114 S14 1.484417 1_545
O115 S15 1.480949 1_545
O116 Si16 1.652662 1_555
O117 Si17 1.648760 1_555
O118 S17 1.499020 1_555
O119 S16 1.480519 1_655
O120 Si12 1.623995 1_555
O121 Si13 1.646463 1_555
O122 S7 1.483431 1_455
O123 Si11 1.631596 1_555
O124 S8 1.476899 1_565
O125 S9 1.476102 1_565
O126 Si8 1.661406 1_565
O127 Si9 1.643199 1_565
O128 S6 1.491064 1_555
O129 Si10 1.646363 1_555
O130 S5 1.493242 1_455
O131 S4 1.476271 1_555
O132 Si0 1.665125 1_565
O133 Si1 1.666080 1_565
O134 Si2 1.692783 1_555
O135 Si3 1.675332 1_555
O136 S0 1.511706 1_455
O137 S1 1.529543 1_555
O138 Si4 1.663858 1_555
O139 Si5 1.652692 1_555
O140 S2 1.506760 1_455
O141 S3 1.500489 1_555
O142 Si6 1.724227 1_565
O143 Si7 1.723813 1_565
