# generated using pymatgen
data_MgNb3O7F
_symmetry_space_group_name_H-M   'P 1'
_cell_length_a   6.65196839
_cell_length_b   6.65196839
_cell_length_c   3.88235700
_cell_angle_alpha   90.00000000
_cell_angle_beta   90.00000000
_cell_angle_gamma   58.79184866
_symmetry_Int_Tables_number   1
_chemical_formula_structural   MgNb3O7F
_chemical_formula_sum   'Mg1 Nb3 O7 F1'
_cell_volume   146.92966768
_cell_formula_units_Z   1
loop_
 _symmetry_equiv_pos_site_id
 _symmetry_equiv_pos_as_xyz
  1  'x, y, z'
loop_
 _atom_site_type_symbol
 _atom_site_label
 _atom_site_symmetry_multiplicity
 _atom_site_fract_x
 _atom_site_fract_y
 _atom_site_fract_z
 _atom_site_occupancy
  Mg  Mg0  1  0.36500400  0.63499600  0.50000000  1
  Nb  Nb0  1  0.98304300  0.01695800  0.00000000  1
  Nb  Nb1  1  0.29695300  0.28245100  0.00000000  1
  Nb  Nb2  1  0.71754900  0.70304700  0.00000000  1
  O  O0  1  0.03198100  0.66150800  0.00000000  1
  O  O1  1  0.33849200  0.96801900  0.00000000  1
  O  O2  1  0.05293500  0.94706500  0.50000000  1
  O  O3  1  0.31914500  0.35284500  0.50000000  1
  O  O4  1  0.64715500  0.68085500  0.50000000  1
  O  O5  1  0.95403900  0.33914600  0.00000000  1
  O  O6  1  0.66085400  0.04596100  0.00000000  1
  F  F0  1  0.47660100  0.52339900  0.00000000  1
loop_
_geom_bond_atom_site_label_1
_geom_bond_atom_site_label_2
_geom_bond_distance
_geom_bond_site_symmetry_2
Mg0 O2 2.037851 1_555
Mg0 O3 2.051580 1_555
Mg0 O4 2.051580 1_555
Nb0 O2 1.994112 1_644
Nb0 O2 1.994112 1_645
Nb0 O5 2.049869 1_555
Nb0 O6 2.049878 1_555
Nb0 O1 2.213340 1_645
Nb0 O0 2.213349 1_645
Nb1 O1 1.962699 1_545
Nb1 O3 2.020115 1_555
Nb1 O3 2.020115 1_554
Nb1 O6 2.094777 1_555
Nb1 O5 2.110437 1_455
Nb1 O0 2.204294 1_555
Nb2 O0 1.962699 1_655
Nb2 O4 2.020115 1_554
Nb2 O4 2.020115 1_555
Nb2 O5 2.094777 1_555
Nb2 O6 2.110437 1_565
Nb2 O1 2.204294 1_555
F0 Mg0 2.073461 1_554
F0 Mg0 2.073461 1_555
F0 Nb1 2.445775 1_555
F0 Nb2 2.445775 1_555
