# generated using pymatgen
data_MgFe6(OF)6
_symmetry_space_group_name_H-M   'P 1'
_cell_length_a   5.23766313
_cell_length_b   14.42339660
_cell_length_c   3.07379246
_cell_angle_alpha   89.99820418
_cell_angle_beta   90.36085223
_cell_angle_gamma   84.77966599
_symmetry_Int_Tables_number   1
_chemical_formula_structural   MgFe6(OF)6
_chemical_formula_sum   'Mg1 Fe6 O6 F6'
_cell_volume   231.24152826
_cell_formula_units_Z   1
loop_
 _symmetry_equiv_pos_site_id
 _symmetry_equiv_pos_as_xyz
  1  'x, y, z'
loop_
 _atom_site_type_symbol
 _atom_site_label
 _atom_site_symmetry_multiplicity
 _atom_site_fract_x
 _atom_site_fract_y
 _atom_site_fract_z
 _atom_site_occupancy
  Mg  Mg0  1  0.62774251  0.65583152  0.49363766  1
  Fe  Fe0  1  0.07146341  0.01061912  0.98393073  1
  Fe  Fe1  1  0.87796059  0.31891088  0.98570593  1
  Fe  Fe2  1  0.13882691  0.67735750  0.99113445  1
  Fe  Fe3  1  0.45614053  0.17103897  0.48611351  1
  Fe  Fe4  1  0.29675785  0.46183972  0.48567446  1
  Fe  Fe5  1  0.50628296  0.85147116  0.48352354  1
  O  O0  1  0.30789148  0.59373457  0.47933806  1
  O  O1  1  0.20043808  0.92920582  0.48428195  1
  O  O2  1  0.31517812  0.09640912  0.98536152  1
  O  O3  1  0.45390107  0.75867446  0.98195571  1
  O  O4  1  0.13992470  0.42090002  0.98408010  1
  O  O5  1  0.61113593  0.22993882  0.98727959  1
  F  F0  1  0.12105635  0.25628922  0.48757329  1
  F  F1  1  0.80875081  0.59858300  0.99561439  1
  F  F2  1  0.68988793  0.90970925  0.98629817  1
  F  F3  1  0.83644713  0.06277450  0.48346895  1
  F  F4  1  0.65256945  0.41110117  0.48449276  1
  F  F5  1  0.90153319  0.74764919  0.50053525  1
loop_
_geom_bond_atom_site_label_1
_geom_bond_atom_site_label_2
_geom_bond_distance
_geom_bond_site_symmetry_2
Mg0 O0 1.970475 1_555
Mg0 O3 2.248090 1_555
Mg0 O3 2.288912 1_554
Fe0 O2 1.856861 1_555
Fe0 O1 2.010730 1_546
Fe0 O1 2.015634 1_545
Fe1 O5 1.981509 1_555
Fe1 O4 2.100935 1_655
Fe2 O0 2.068711 1_556
Fe2 O3 2.110105 1_555
Fe2 O0 2.130021 1_555
Fe3 O5 1.965620 1_555
Fe3 O5 1.967967 1_554
Fe3 O2 2.050207 1_554
Fe3 O2 2.053659 1_555
Fe4 O4 1.863585 1_554
Fe4 O4 1.864004 1_555
Fe4 O0 1.908664 1_555
Fe5 O1 1.869874 1_555
Fe5 O3 2.070254 1_555
Fe5 O3 2.074901 1_554
F0 Fe3 2.049283 1_555
F0 Fe1 2.140701 1_454
F0 Fe1 2.144012 1_455
F1 Mg0 1.949345 1_556
F1 Mg0 1.949470 1_555
F1 Fe2 2.153536 1_655
F2 Fe5 2.032661 1_556
F2 Fe5 2.036436 1_555
F2 Fe0 2.577245 1_665
F3 Fe0 2.062785 1_655
F3 Fe0 2.072236 1_654
F3 Fe3 2.416692 1_555
F4 Fe4 1.939218 1_555
F4 Fe1 2.286169 1_555
F4 Fe1 2.291202 1_554
F5 Mg0 2.038604 1_555
F5 Fe2 2.143282 1_655
F5 Fe2 2.195362 1_654
F5 Fe5 2.442402 1_555
