# generated using pymatgen
data_Na7Ca2Ti2SiP5O24
_symmetry_space_group_name_H-M   'P 1'
_cell_length_a   9.19936601
_cell_length_b   9.20517546
_cell_length_c   22.21903863
_cell_angle_alpha   89.86267312
_cell_angle_beta   90.16401108
_cell_angle_gamma   119.72533064
_symmetry_Int_Tables_number   1
_chemical_formula_structural   Na7Ca2Ti2SiP5O24
_chemical_formula_sum   'Na21 Ca6 Ti6 Si3 P15 O72'
_cell_volume   1633.95159863
_cell_formula_units_Z   3
loop_
 _symmetry_equiv_pos_site_id
 _symmetry_equiv_pos_as_xyz
  1  'x, y, z'
loop_
 _atom_site_type_symbol
 _atom_site_label
 _atom_site_symmetry_multiplicity
 _atom_site_fract_x
 _atom_site_fract_y
 _atom_site_fract_z
 _atom_site_occupancy
  Na  Na0  1  0.35702600  0.36454878  0.25441523  1
  Na  Na1  1  0.01328567  0.64307629  0.25536664  1
  Na  Na2  1  0.63077899  0.64418325  0.75052798  1
  Na  Na3  1  0.00772821  0.37054727  0.75303839  1
  Na  Na4  1  0.35180697  0.98491423  0.75484619  1
  Na  Na5  1  0.29782600  0.31747068  0.58213837  1
  Na  Na6  1  0.01960328  0.69937248  0.58539992  1
  Na  Na7  1  0.67942957  0.97512841  0.58889143  1
  Na  Na8  1  0.29928018  0.98163404  0.08694425  1
  Na  Na9  1  0.68298789  0.70325003  0.08355805  1
  Na  Na10  1  0.02436924  0.32321197  0.08665494  1
  Na  Na11  1  0.96435575  0.65802167  0.92290106  1
  Na  Na12  1  0.68948550  0.03319105  0.92177497  1
  Na  Na13  1  0.96724134  0.31009867  0.42012379  1
  Na  Na14  1  0.34555650  0.03460326  0.42251548  1
  Na  Na15  1  0.99601287  0.98604426  0.49990554  1
  Na  Na16  1  0.01523340  0.00315274  0.99966831  1
  Na  Na17  1  0.65070758  0.33933599  0.83609509  1
  Na  Na18  1  0.66100296  0.33284836  0.33404356  1
  Na  Na19  1  0.35494462  0.68651489  0.17005952  1
  Na  Na20  1  0.34093297  0.67161063  0.66815259  1
  Ca  Ca0  1  0.00025165  0.99899180  0.65165178  1
  Ca  Ca1  1  0.99578718  0.99787420  0.15311063  1
  Ca  Ca2  1  0.65846117  0.33550146  0.98214764  1
  Ca  Ca3  1  0.66498202  0.34178683  0.48064228  1
  Ca  Ca4  1  0.34501857  0.67303411  0.31659161  1
  Ca  Ca5  1  0.33409134  0.66379230  0.81982545  1
  Ti  Ti0  1  0.99297921  0.99593534  0.34793264  1
  Ti  Ti1  1  0.99617534  0.00667785  0.84761989  1
  Ti  Ti2  1  0.66179209  0.31679249  0.68120632  1
  Ti  Ti3  1  0.67915050  0.33490569  0.18121507  1
  Ti  Ti4  1  0.32184664  0.65871401  0.01503734  1
  Ti  Ti5  1  0.34505277  0.67923729  0.51505852  1
  Si  Si0  1  0.70080921  0.01049085  0.74665842  1
  Si  Si1  1  0.37013175  0.02455919  0.57844184  1
  Si  Si2  1  0.97476229  0.63003475  0.07946693  1
  P  P0  1  0.30423622  0.01375476  0.24963008  1
  P  P1  1  0.70824007  0.69152925  0.24762730  1
  P  P2  1  0.98383046  0.29130956  0.24931587  1
  P  P3  1  0.30274498  0.29001267  0.74882924  1
  P  P4  1  0.98585365  0.69568707  0.75134730  1
  P  P5  1  0.97116227  0.34711597  0.58182729  1
  P  P6  1  0.65330199  0.62140969  0.58566462  1
  P  P7  1  0.65369952  0.03123381  0.08135212  1
  P  P8  1  0.37766545  0.34701849  0.08643953  1
  P  P9  1  0.64197415  0.68373039  0.91506492  1
  P  P10  1  0.03928092  0.35636911  0.91508887  1
  P  P11  1  0.31807428  0.95583221  0.91553804  1
  P  P12  1  0.64260989  0.95985978  0.41651126  1
  P  P13  1  0.31545374  0.35899007  0.41435833  1
  P  P14  1  0.04768724  0.68267520  0.41398468  1
  O  O0  1  0.18989446  0.02699069  0.30341979  1
  O  O1  1  0.83377586  0.81032230  0.29997713  1
  O  O2  1  0.97061954  0.17133953  0.30408954  1
  O  O3  1  0.19151944  0.16483924  0.80166731  1
  O  O4  1  0.97536205  0.80773413  0.80528093  1
  O  O5  1  0.83783057  0.03222647  0.80480327  1
  O  O6  1  0.77392527  0.98037199  0.68667239  1
  O  O7  1  0.21201570  0.22497874  0.68933326  1
  O  O8  1  0.02025858  0.79367359  0.69288907  1
  O  O9  1  0.77421817  0.77662125  0.18743737  1
  O  O10  1  0.01301959  0.22538765  0.19097024  1
  O  O11  1  0.21201282  0.99445174  0.19070259  1
  O  O12  1  0.86515487  0.36154351  0.63758126  1
  O  O13  1  0.50438671  0.13693968  0.63772946  1
  O  O14  1  0.63342725  0.50663241  0.64277966  1
  O  O15  1  0.86158336  0.49378919  0.13800880  1
  O  O16  1  0.63829695  0.14199578  0.13482564  1
  O  O17  1  0.49646451  0.36626154  0.14279328  1
  O  O18  1  0.44535279  0.30318319  0.03176200  1
  O  O19  1  0.86942007  0.55434274  0.02000047  1
  O  O20  1  0.68085814  0.12606156  0.02287707  1
  O  O21  1  0.44714335  0.13139793  0.51955501  1
  O  O22  1  0.69066506  0.54907090  0.53102513  1
  O  O23  1  0.87163566  0.32123534  0.52464138  1
  O  O24  1  0.53389839  0.69367962  0.96957743  1
  O  O25  1  0.15945023  0.46526711  0.97023314  1
  O  O26  1  0.30413168  0.82788932  0.96988471  1
  O  O27  1  0.54266182  0.84329500  0.47399820  1
  O  O28  1  0.30609357  0.46695788  0.46941273  1
  O  O29  1  0.17509395  0.70350549  0.46889673  1
  O  O30  1  0.12041065  0.66101573  0.35612687  1
  O  O31  1  0.53039180  0.88682402  0.36294526  1
  O  O32  1  0.32771654  0.44676698  0.35543629  1
  O  O33  1  0.10653324  0.45386065  0.85725280  1
  O  O34  1  0.33678603  0.88257452  0.85710419  1
  O  O35  1  0.55646392  0.67072809  0.85524962  1
  O  O36  1  0.04383752  0.85188978  0.41266179  1
  O  O37  1  0.81443809  0.96318515  0.41153706  1
  O  O38  1  0.14291647  0.18632599  0.41506498  1
  O  O39  1  0.03584254  0.18452330  0.91361011  1
  O  O40  1  0.14892374  0.95546005  0.91708822  1
  O  O41  1  0.81399341  0.85623951  0.91580620  1
  O  O42  1  0.00142215  0.19871637  0.58890083  1
  O  O43  1  0.18146315  0.98800586  0.58620062  1
  O  O44  1  0.79684596  0.80201547  0.59126199  1
  O  O45  1  0.01132818  0.81869839  0.08742469  1
  O  O46  1  0.80282060  0.00322317  0.09027647  1
  O  O47  1  0.19590292  0.20738854  0.09402345  1
  O  O48  1  0.70567074  0.19605936  0.74397342  1
  O  O49  1  0.47277149  0.28959859  0.74945074  1
  O  O50  1  0.81485169  0.52959348  0.75101394  1
  O  O51  1  0.71613447  0.52466565  0.25038994  1
  O  O52  1  0.81592927  0.29832956  0.24629211  1
  O  O53  1  0.47243973  0.18314959  0.25105669  1
  O  O54  1  0.67804863  0.53908042  0.91945227  1
  O  O55  1  0.86126450  0.32595495  0.92343619  1
  O  O56  1  0.47366699  0.12502238  0.92349228  1
  O  O57  1  0.67775334  0.13962250  0.42419961  1
  O  O58  1  0.45957346  0.32158910  0.41842893  1
  O  O59  1  0.87732960  0.52895388  0.42302754  1
  O  O60  1  0.38294829  0.52050765  0.08023523  1
  O  O61  1  0.15752398  0.62734898  0.07572977  1
  O  O62  1  0.48515188  0.86102721  0.08160962  1
  O  O63  1  0.37235915  0.84239355  0.57581495  1
  O  O64  1  0.48069714  0.61969380  0.57978606  1
  O  O65  1  0.14102911  0.51634693  0.58174799  1
  O  O66  1  0.31987001  0.85786265  0.25664013  1
  O  O67  1  0.52814260  0.65251290  0.25502621  1
  O  O68  1  0.13102773  0.46914369  0.25787775  1
  O  O69  1  0.33046464  0.46687132  0.75719539  1
  O  O70  1  0.13123967  0.66070976  0.75926661  1
  O  O71  1  0.51253652  0.85888589  0.75451910  1
loop_
_geom_bond_atom_site_label_1
_geom_bond_atom_site_label_2
_geom_bond_distance
_geom_bond_site_symmetry_2
Na0 O67 2.316618 1_555
Na0 O53 2.383342 1_555
Na0 O32 2.428510 1_555
Na0 O68 2.691040 1_555
Na0 O17 2.791901 1_555
Na0 O51 2.875129 1_555
Na0 O0 2.908661 1_555
Na1 O68 2.336409 1_555
Na1 O51 2.391006 1_455
Na1 O30 2.416279 1_555
Na1 O66 2.516809 1_555
Na1 O52 2.773986 1_455
Na1 O1 2.935569 1_455
Na1 O15 2.954660 1_455
Na2 O50 2.398201 1_555
Na2 O69 2.418250 1_555
Na2 O35 2.473589 1_555
Na2 O71 2.688953 1_555
Na2 O14 2.716763 1_555
Na2 O49 2.839433 1_555
Na3 O70 2.331444 1_555
Na3 O48 2.431887 1_455
Na3 O33 2.466021 1_555
Na3 O69 2.645317 1_555
Na3 O50 2.805191 1_455
Na3 O12 2.860433 1_455
Na3 O5 2.937800 1_455
Na4 O71 2.287662 1_555
Na4 O34 2.435432 1_555
Na4 O49 2.454170 1_565
Na4 O70 2.650998 1_555
Na4 O48 2.856729 1_565
Na4 O3 2.904930 1_565
Na4 O13 2.958993 1_565
Na4 O8 2.993287 1_555
Na5 O42 2.387093 1_555
Na5 O64 2.435368 1_555
Na5 O7 2.520990 1_555
Na5 O43 2.670497 1_545
Na5 O65 2.837368 1_555
Na5 O28 2.837850 1_555
Na5 O14 3.005877 1_555
Na5 O21 3.018249 1_555
Na6 O43 2.313759 1_555
Na6 O65 2.441383 1_555
Na6 O8 2.542092 1_555
Na6 O44 2.651651 1_455
Na6 O63 2.841707 1_555
Na6 O22 2.892387 1_455
Na6 O12 2.940091 1_455
Na6 O29 2.952133 1_555
Na7 O44 2.327035 1_555
Na7 O6 2.329437 1_555
Na7 O63 2.476143 1_555
Na7 O42 2.639012 1_665
Na7 O27 2.838113 1_555
Na7 O64 2.856115 1_555
Na7 O13 2.895768 1_565
Na8 O45 2.307984 1_555
Na8 O62 2.460635 1_555
Na8 O11 2.465597 1_555
Na8 O47 2.685140 1_565
Na8 O18 2.849174 1_565
Na8 O61 2.860589 1_555
Na8 O16 2.908689 1_565
Na8 O26 2.975031 1_554
Na9 O46 2.417574 1_565
Na9 O60 2.418401 1_555
Na9 O9 2.433536 1_555
Na9 O45 2.660072 1_655
Na9 O62 2.836203 1_555
Na9 O24 2.857266 1_554
Na9 O17 3.002338 1_555
Na9 O19 3.028040 1_555
Na10 O47 2.306457 1_555
Na10 O61 2.448455 1_555
Na10 O10 2.468209 1_555
Na10 O46 2.623548 1_455
Na10 O60 2.874108 1_555
Na10 O25 2.887267 1_554
Na10 O15 2.891414 1_455
Na11 O54 2.298097 1_555
Na11 O19 2.345749 1_556
Na11 O40 2.405297 1_655
Na11 O55 2.714449 1_555
Na11 O41 2.787070 1_555
Na11 O26 2.906404 1_655
Na11 O4 2.930061 1_555
Na12 O55 2.353326 1_555
Na12 O41 2.415538 1_545
Na12 O20 2.420934 1_556
Na12 O56 2.514508 1_555
Na12 O39 2.779598 1_655
Na12 O24 2.915611 1_545
Na12 O5 2.941030 1_555
Na13 O57 2.327929 1_555
Na13 O38 2.397952 1_655
Na13 O23 2.505850 1_555
Na13 O59 2.529889 1_555
Na13 O37 2.785668 1_545
Na13 O2 2.887046 1_555
Na13 O28 2.919897 1_655
Na14 O58 2.310587 1_555
Na14 O21 2.342658 1_555
Na14 O36 2.439179 1_545
Na14 O57 2.710142 1_555
Na14 O38 2.834098 1_555
Na14 O29 2.839858 1_545
Na14 O31 2.967997 1_545
Na14 O0 2.989569 1_555
Na15 O36 2.455891 1_655
Na15 O38 2.511163 1_665
Na15 O37 2.514806 1_555
Na15 O43 2.556978 1_655
Na15 O44 2.697000 1_555
Na15 O42 2.768837 1_665
Na16 O40 2.371542 1_545
Na16 O39 2.480413 1_555
Na16 O41 2.497536 1_445
Na16 O45 2.571045 1_546
Na16 O47 2.755424 1_556
Na16 O46 2.809845 1_456
Na17 O49 2.416247 1_555
Na17 O50 2.509776 1_555
Na17 O54 2.535624 1_555
Na17 O48 2.620099 1_555
Na17 O56 2.669982 1_555
Na17 O55 2.783362 1_555
Na18 O53 2.435415 1_555
Na18 O51 2.435432 1_555
Na18 O52 2.530167 1_555
Na18 O58 2.605460 1_555
Na18 O57 2.730042 1_555
Na18 O59 2.749573 1_555
Na19 O62 2.442906 1_555
Na19 O67 2.583639 1_555
Na19 O60 2.606290 1_555
Na19 O66 2.610654 1_555
Na19 O61 2.643983 1_555
Na19 O68 2.823312 1_555
Na20 O63 2.510287 1_555
Na20 O64 2.522864 1_555
Na20 O71 2.538928 1_555
Na20 O65 2.548876 1_555
Na20 O69 2.697906 1_555
Na20 O70 2.767521 1_555
Ca0 O6 2.150481 1_455
Ca0 O8 2.186585 1_555
Ca0 O7 2.191729 1_565
Ca0 O43 2.255185 1_555
Ca0 O44 2.285206 1_455
Ca0 O42 2.300509 1_565
Ca1 O11 2.169753 1_655
Ca1 O9 2.183812 1_555
Ca1 O10 2.190272 1_665
Ca1 O45 2.262174 1_655
Ca1 O46 2.274852 1_565
Ca1 O47 2.304989 1_665
Ca2 O18 2.139997 1_556
Ca2 O19 2.157211 1_556
Ca2 O20 2.227741 1_556
Ca2 O56 2.252874 1_555
Ca2 O54 2.266905 1_555
Ca2 O55 2.316730 1_555
Ca3 O22 2.124019 1_555
Ca3 O21 2.160386 1_555
Ca3 O23 2.225033 1_555
Ca3 O59 2.255945 1_555
Ca3 O58 2.270231 1_555
Ca3 O57 2.297519 1_555
Ca4 O31 2.124461 1_555
Ca4 O32 2.184455 1_555
Ca4 O30 2.199207 1_555
Ca4 O67 2.252748 1_555
Ca4 O66 2.258390 1_555
Ca4 O68 2.330833 1_555
Ca5 O35 2.161001 1_555
Ca5 O34 2.168172 1_555
Ca5 O33 2.190604 1_555
Ca5 O71 2.258996 1_555
Ca5 O69 2.274931 1_555
Ca5 O70 2.286260 1_555
O0 P0 1.638495 1_555
O0 Ti0 1.958770 1_445
O1 P1 1.621252 1_555
O1 Ti0 1.928175 1_555
O2 P2 1.605238 1_555
O2 Ti0 1.979639 1_545
O3 P3 1.607523 1_555
O3 Ti1 1.949439 1_455
O4 P4 1.616937 1_555
O4 Ti1 1.983643 1_565
O5 Si0 1.743500 1_555
O5 Ti1 1.847426 1_555
O6 Si0 1.580369 1_565
O7 P3 1.518067 1_555
O8 P4 1.521342 1_455
O9 P1 1.516123 1_555
O10 P2 1.512714 1_455
O11 P0 1.520167 1_565
O12 P5 1.624630 1_555
O12 Ti2 1.963005 1_555
O13 Si1 1.749582 1_555
O13 Ti2 1.842057 1_555
O14 P6 1.601098 1_555
O14 Ti2 2.072350 1_555
O15 Si2 1.747540 1_555
O15 Ti3 1.856230 1_555
O16 P7 1.619049 1_555
O16 Ti3 1.923988 1_555
O17 P8 1.610846 1_555
O17 Ti3 2.026859 1_555
O18 P8 1.510742 1_555
O19 Si2 1.580466 1_555
O20 P7 1.514136 1_555
O21 Si1 1.577734 1_555
O22 P6 1.506213 1_555
O23 P5 1.512611 1_555
O24 P9 1.600514 1_555
O24 Ti4 2.077573 1_556
O25 P10 1.620918 1_555
O25 Ti4 1.937952 1_556
O26 P11 1.644965 1_555
O26 Ti4 1.923918 1_556
O27 P12 1.627887 1_555
O27 Ti5 1.923031 1_555
O28 P13 1.607119 1_555
O28 Ti5 2.070834 1_555
O29 P14 1.633764 1_555
O29 Ti5 1.970425 1_555
O30 P14 1.509431 1_555
O31 P12 1.497591 1_555
O32 P13 1.511607 1_555
O33 P10 1.512595 1_555
O34 P11 1.513495 1_555
O35 P9 1.516865 1_555
O36 P14 1.575713 1_555
O36 Ti0 2.155870 1_455
O37 P12 1.569967 1_555
O37 Ti0 2.075091 1_555
O38 P13 1.594993 1_555
O38 Ti0 2.191454 1_445
O39 P10 1.566850 1_555
O39 Ti1 2.092635 1_455
O40 P11 1.554862 1_555
O40 Ti1 2.284815 1_465
O41 P9 1.591884 1_555
O41 Ti1 2.173651 1_565
O42 P5 1.531044 1_455
O43 Si1 1.605503 1_565
O44 P6 1.531697 1_555
O45 Si2 1.606947 1_455
O46 P7 1.528614 1_555
O47 P8 1.531542 1_555
O48 Si0 1.687377 1_555
O48 Ti2 1.943524 1_555
O49 P3 1.566051 1_555
O49 Ti2 2.228718 1_555
O50 P4 1.557932 1_555
O50 Ti2 2.343580 1_555
O51 P1 1.574328 1_555
O51 Ti3 2.224827 1_555
O52 P2 1.578860 1_555
O52 Ti3 2.048114 1_555
O53 P0 1.560124 1_555
O53 Ti3 2.312540 1_555
O54 P9 1.526436 1_555
O55 P10 1.530182 1_655
O56 P11 1.514848 1_545
O57 P12 1.530491 1_545
O58 P13 1.528498 1_555
O59 P14 1.516579 1_655
O60 P8 1.579172 1_555
O60 Ti4 2.174554 1_555
O61 Si2 1.695959 1_455
O61 Ti4 1.940103 1_555
O62 P7 1.565199 1_565
O62 Ti4 2.266958 1_555
O63 Si1 1.688271 1_565
O63 Ti5 1.942873 1_555
O64 P6 1.585101 1_555
O64 Ti5 2.142456 1_555
O65 P5 1.566714 1_455
O65 Ti5 2.276197 1_555
O66 P0 1.519105 1_565
O67 P1 1.520569 1_555
O68 P2 1.533410 1_455
O69 P3 1.529541 1_555
O70 P4 1.532596 1_455
O71 Si0 1.606685 1_565
