# generated using pymatgen
data_Na8TiZn3Si3(SO8)3
_symmetry_space_group_name_H-M   'P 1'
_cell_length_a   9.11504149
_cell_length_b   9.14378254
_cell_length_c   22.04024808
_cell_angle_alpha   89.28561036
_cell_angle_beta   89.65773975
_cell_angle_gamma   119.29681971
_symmetry_Int_Tables_number   1
_chemical_formula_structural   Na8TiZn3Si3(SO8)3
_chemical_formula_sum   'Na24 Ti3 Zn9 Si9 S9 O72'
_cell_volume   1601.73303336
_cell_formula_units_Z   3
loop_
 _symmetry_equiv_pos_site_id
 _symmetry_equiv_pos_as_xyz
  1  'x, y, z'
loop_
 _atom_site_type_symbol
 _atom_site_label
 _atom_site_symmetry_multiplicity
 _atom_site_fract_x
 _atom_site_fract_y
 _atom_site_fract_z
 _atom_site_occupancy
  Na  Na0  1  0.62858653  0.99593757  0.25789285  1
  Na  Na1  1  0.37104431  0.37098047  0.24549859  1
  Na  Na2  1  0.00177670  0.62179585  0.25197520  1
  Na  Na3  1  0.64235071  0.64451601  0.73476969  1
  Na  Na4  1  0.98191821  0.34590215  0.74987026  1
  Na  Na5  1  0.38450436  0.01651307  0.74004781  1
  Na  Na6  1  0.30667079  0.33572743  0.58355315  1
  Na  Na7  1  0.04499436  0.71555689  0.57276288  1
  Na  Na8  1  0.65238560  0.94427333  0.58285306  1
  Na  Na9  1  0.28416935  0.95298309  0.07495933  1
  Na  Na10  1  0.65956199  0.69245657  0.08469390  1
  Na  Na11  1  0.05370039  0.34840631  0.08013854  1
  Na  Na12  1  0.98654696  0.67933492  0.91898698  1
  Na  Na13  1  0.71191883  0.04489419  0.90805302  1
  Na  Na14  1  0.31016544  0.28654926  0.92061988  1
  Na  Na15  1  0.96551945  0.30360898  0.41424039  1
  Na  Na16  1  0.32607360  0.00923106  0.42254939  1
  Na  Na17  1  0.70934748  0.68893083  0.42670141  1
  Na  Na18  1  0.99075978  0.98283860  0.50014968  1
  Na  Na19  1  0.01700775  0.01168119  0.99902487  1
  Na  Na20  1  0.66744687  0.31555863  0.83049421  1
  Na  Na21  1  0.67933928  0.33312838  0.33834860  1
  Na  Na22  1  0.32040959  0.65290390  0.15998957  1
  Na  Na23  1  0.35231879  0.68214732  0.65655546  1
  Ti  Ti0  1  0.66826223  0.33880934  0.98338762  1
  Ti  Ti1  1  0.65993751  0.33240743  0.48409064  1
  Ti  Ti2  1  0.33415437  0.68569403  0.81962342  1
  Zn  Zn0  1  0.98889685  0.98464361  0.35317325  1
  Zn  Zn1  1  0.00303613  0.01979953  0.85062424  1
  Zn  Zn2  1  0.97310426  0.97153157  0.64275986  1
  Zn  Zn3  1  0.01500482  0.99836556  0.14165541  1
  Zn  Zn4  1  0.65198664  0.31608066  0.67369811  1
  Zn  Zn5  1  0.66604631  0.34778169  0.16827684  1
  Zn  Zn6  1  0.30077981  0.65062607  0.01536323  1
  Zn  Zn7  1  0.35169428  0.70332403  0.51434873  1
  Zn  Zn8  1  0.33057829  0.69193864  0.34259496  1
  Si  Si0  1  0.70204769  0.99674863  0.75127230  1
  Si  Si1  1  0.36334025  0.03607328  0.58650432  1
  Si  Si2  1  0.65994082  0.62000604  0.58528190  1
  Si  Si3  1  0.95976679  0.62751022  0.08637828  1
  Si  Si4  1  0.37140474  0.33835571  0.08460867  1
  Si  Si5  1  0.03601619  0.37207810  0.91844839  1
  Si  Si6  1  0.33508216  0.96971295  0.92058164  1
  Si  Si7  1  0.64172376  0.97679378  0.41621514  1
  Si  Si8  1  0.02840361  0.65825330  0.41715174  1
  S  S0  1  0.29807417  0.00090612  0.24891233  1
  S  S1  1  0.70145680  0.70299244  0.24928510  1
  S  S2  1  -0.00006390  0.28946075  0.24794254  1
  S  S3  1  0.30006281  0.30673758  0.75244800  1
  S  S4  1  0.00849292  0.70539708  0.75360467  1
  S  S5  1  0.95836460  0.33391524  0.58320190  1
  S  S6  1  0.66899286  0.04529318  0.08423345  1
  S  S7  1  0.62263257  0.66154347  0.91757933  1
  S  S8  1  0.33740938  0.37085213  0.41540243  1
  O  O0  1  0.21431741  0.02038896  0.30390225  1
  O  O1  1  0.80067235  0.78745502  0.30391908  1
  O  O2  1  0.99203074  0.19263175  0.30384447  1
  O  O3  1  0.22042472  0.20141475  0.80748789  1
  O  O4  1  0.98868324  0.78541748  0.80804098  1
  O  O5  1  0.81040106  0.01993976  0.81225048  1
  O  O6  1  0.77927138  0.95346859  0.69112883  1
  O  O7  1  0.20069009  0.22969082  0.69751178  1
  O  O8  1  0.03593965  0.80770631  0.69752286  1
  O  O9  1  0.78422591  0.80396636  0.19319658  1
  O  O10  1  0.01039130  0.20314424  0.19234731  1
  O  O11  1  0.19982485  0.98715263  0.19330953  1
  O  O12  1  0.88578131  0.35770438  0.64013699  1
  O  O13  1  0.47582926  0.10638280  0.64656723  1
  O  O14  1  0.64936208  0.51888356  0.64779896  1
  O  O15  1  0.88689500  0.51367529  0.14781381  1
  O  O16  1  0.64256825  0.11839144  0.14018317  1
  O  O17  1  0.46943376  0.35620327  0.14778241  1
  O  O18  1  0.48422187  0.31550675  0.02705861  1
  O  O19  1  0.83242069  0.51261882  0.02820487  1
  O  O20  1  0.68608781  0.15399440  0.02932131  1
  O  O21  1  0.47857941  0.16260314  0.52810556  1
  O  O22  1  0.67587483  0.50977789  0.52751823  1
  O  O23  1  0.84942437  0.31880074  0.52981360  1
  O  O24  1  0.54835606  0.68787454  0.97319944  1
  O  O25  1  0.14992434  0.44076616  0.97783481  1
  O  O26  1  0.31001467  0.85504436  0.97959016  1
  O  O27  1  0.56273681  0.84521319  0.47263998  1
  O  O28  1  0.30991615  0.44717514  0.46972962  1
  O  O29  1  0.15073026  0.68594570  0.47394442  1
  O  O30  1  0.09610057  0.60831873  0.35504075  1
  O  O31  1  0.52529294  0.90276142  0.35514910  1
  O  O32  1  0.36359202  0.47611928  0.35960990  1
  O  O33  1  0.14441232  0.50508229  0.86019604  1
  O  O34  1  0.36114300  0.86529338  0.86112681  1
  O  O35  1  0.51549741  0.64374853  0.86359082  1
  O  O36  1  0.01469980  0.83071640  0.41202708  1
  O  O37  1  0.83609674  0.01431805  0.41044016  1
  O  O38  1  0.19428016  0.19911472  0.40948943  1
  O  O39  1  0.00425003  0.18135267  0.91289117  1
  O  O40  1  0.16617188  0.98490782  0.91001576  1
  O  O41  1  0.79577072  0.80065234  0.91014450  1
  O  O42  1  0.96744471  0.17609844  0.58410361  1
  O  O43  1  0.18360918  0.03789423  0.58621371  1
  O  O44  1  0.83133426  0.80330243  0.57882655  1
  O  O45  1  0.95598126  0.80546605  0.08256684  1
  O  O46  1  0.82786363  0.03766348  0.08498582  1
  O  O47  1  0.18715653  0.16775779  0.08119951  1
  O  O48  1  0.68003899  0.16523792  0.74723844  1
  O  O49  1  0.47328567  0.33035237  0.74984880  1
  O  O50  1  0.86345763  0.53419439  0.74973167  1
  O  O51  1  0.68903915  0.53333815  0.24871852  1
  O  O52  1  0.84308521  0.30443388  0.24903100  1
  O  O53  1  0.47049563  0.15069907  0.24575398  1
  O  O54  1  0.62875775  0.49929002  0.91993927  1
  O  O55  1  0.85037125  0.36731332  0.92147016  1
  O  O56  1  0.50916409  0.15462350  0.92167051  1
  O  O57  1  0.64788182  0.16034834  0.42578940  1
  O  O58  1  0.49625527  0.35705927  0.42013086  1
  O  O59  1  0.83592944  0.49354052  0.42607742  1
  O  O60  1  0.36464498  0.51249722  0.07794452  1
  O  O61  1  0.15104834  0.65972243  0.08217186  1
  O  O62  1  0.52379756  0.87603762  0.07832594  1
  O  O63  1  0.33571814  0.84673574  0.58064909  1
  O  O64  1  0.48729890  0.63132741  0.57949492  1
  O  O65  1  0.12821917  0.47953606  0.57580311  1
  O  O66  1  0.31191976  0.84449811  0.25181904  1
  O  O67  1  0.52905087  0.68310349  0.25279047  1
  O  O68  1  0.15240580  0.45911249  0.24756304  1
  O  O69  1  0.31143336  0.47673125  0.75787145  1
  O  O70  1  0.16877567  0.69017424  0.75722366  1
  O  O71  1  0.50705203  0.82109876  0.76024291  1
loop_
_geom_bond_atom_site_label_1
_geom_bond_atom_site_label_2
_geom_bond_distance
_geom_bond_site_symmetry_2
Na0 O31 2.313537 1_555
Na0 O53 2.478193 1_565
Na0 O66 2.522787 1_555
Na0 O52 2.530224 1_565
Na0 O67 2.547064 1_555
Na0 O16 2.790083 1_565
Na1 O17 2.358750 1_555
Na1 O68 2.488915 1_555
Na1 O67 2.497361 1_555
Na1 O51 2.530671 1_555
Na1 O53 2.581766 1_555
Na1 O32 2.715960 1_555
Na2 O30 2.456532 1_555
Na2 O68 2.471470 1_555
Na2 O52 2.532846 1_455
Na2 O15 2.533083 1_455
Na2 O66 2.550349 1_555
Na2 O51 2.555929 1_455
Na3 O14 2.263484 1_555
Na3 O49 2.524874 1_555
Na3 O71 2.531062 1_555
Na3 O6 2.632636 1_555
Na3 O69 2.672916 1_555
Na3 O50 2.679084 1_555
Na4 O48 2.420646 1_555
Na4 O50 2.439156 1_555
Na4 O12 2.596203 1_555
Na4 O69 2.641708 1_655
Na4 O70 2.757816 1_655
Na4 O33 2.871664 1_655
Na4 O7 2.917909 1_655
Na4 O5 2.920587 1_555
Na5 O13 2.209305 1_555
Na5 O48 2.357195 1_555
Na5 O71 2.564777 1_545
Na5 O49 2.584842 1_555
Na5 O70 2.671053 1_545
Na5 O34 2.948184 1_545
Na5 O8 2.960028 1_545
Na6 O64 2.379373 1_555
Na6 O43 2.384066 1_555
Na6 O65 2.548545 1_555
Na6 O7 2.678699 1_555
Na6 O28 2.690498 1_555
Na6 O42 2.696966 1_455
Na7 O63 2.321892 1_555
Na7 O44 2.446059 1_455
Na7 O29 2.447615 1_555
Na7 O43 2.598669 1_565
Na7 O65 2.614705 1_555
Na7 O8 2.898444 1_555
Na8 O64 2.500120 1_555
Na8 O44 2.527605 1_555
Na8 O63 2.571510 1_555
Na8 O27 2.596735 1_555
Na8 O42 2.605000 1_565
Na8 O6 2.642452 1_555
Na9 O61 2.343255 1_555
Na9 O26 2.350150 1_554
Na9 O47 2.522381 1_565
Na9 O62 2.603066 1_555
Na9 O45 2.614516 1_455
Na9 O11 2.779249 1_555
Na10 O45 2.373815 1_555
Na10 O60 2.374439 1_555
Na10 O62 2.529440 1_555
Na10 O9 2.647477 1_555
Na10 O24 2.656811 1_554
Na10 O46 2.752911 1_565
Na11 O25 2.402204 1_554
Na11 O60 2.474140 1_555
Na11 O47 2.484888 1_555
Na11 O61 2.534599 1_555
Na11 O46 2.566677 1_455
Na11 O10 2.725730 1_555
Na12 O40 2.456007 1_655
Na12 O41 2.485745 1_555
Na12 O55 2.492612 1_555
Na12 O4 2.615808 1_555
Na12 O19 2.804324 1_556
Na12 O54 2.844366 1_555
Na12 O26 2.919446 1_655
Na12 O33 2.925970 1_655
Na13 O39 2.328362 1_655
Na13 O5 2.346526 1_555
Na13 O56 2.515538 1_555
Na13 O55 2.599344 1_555
Na13 O41 2.691149 1_545
Na13 O20 2.912599 1_556
Na13 O34 2.988761 1_545
Na14 O40 2.421061 1_545
Na14 O39 2.472733 1_555
Na14 O54 2.586044 1_555
Na14 O56 2.624324 1_555
Na14 O3 2.634770 1_555
Na14 O18 2.781985 1_556
Na14 O25 2.783892 1_555
Na15 O37 2.312699 1_555
Na15 O57 2.536636 1_555
Na15 O59 2.548472 1_555
Na15 O38 2.687285 1_655
Na15 O2 2.702384 1_555
Na15 O30 2.743593 1_655
Na15 O23 2.783547 1_555
Na16 O36 2.501368 1_545
Na16 O57 2.560643 1_555
Na16 O38 2.563885 1_555
Na16 O21 2.742943 1_555
Na16 O58 2.773249 1_555
Na16 O29 2.801238 1_545
Na16 O0 2.830770 1_555
Na16 O31 2.861112 1_545
Na17 O36 2.445301 1_655
Na17 O59 2.557585 1_555
Na17 O27 2.596526 1_555
Na17 O37 2.630560 1_565
Na17 O22 2.669452 1_555
Na17 O58 2.692234 1_555
Na17 O1 2.829517 1_555
Na18 O44 2.319021 1_555
Na18 O36 2.472669 1_655
Na18 O43 2.477726 1_665
Na18 O37 2.529015 1_565
Na18 O42 2.652569 1_565
Na18 O38 2.758939 1_665
Na19 O47 2.377849 1_556
Na19 O40 2.462316 1_545
Na19 O45 2.475860 1_446
Na19 O39 2.475923 1_555
Na19 O46 2.644122 1_456
Na19 O41 2.821471 1_445
Na20 O48 2.341867 1_555
Na20 O56 2.469639 1_555
Na20 O55 2.513164 1_555
Na20 O49 2.564300 1_555
Na20 O50 2.595169 1_555
Na20 O54 2.736284 1_555
Na21 O57 2.401350 1_555
Na21 O59 2.445843 1_555
Na21 O58 2.532415 1_555
Na21 O52 2.555953 1_555
Na21 O51 2.647828 1_555
Na21 O53 2.755871 1_555
Na22 O61 2.334910 1_555
Na22 O60 2.374144 1_555
Na22 O68 2.536569 1_555
Na22 O62 2.646895 1_555
Na22 O66 2.718585 1_555
Na22 O67 2.724533 1_555
Na23 O64 2.273459 1_555
Na23 O63 2.291249 1_555
Na23 O71 2.680159 1_555
Na23 O65 2.682262 1_555
Na23 O70 2.794114 1_555
Na23 O69 2.802438 1_555
O0 S0 1.486924 1_555
O0 Zn0 2.194358 1_445
O1 S1 1.488940 1_555
O1 Zn0 2.101571 1_555
O2 S2 1.488774 1_655
O2 Zn0 2.166702 1_545
O3 S3 1.483972 1_555
O3 Zn1 2.075031 1_555
O4 S4 1.468357 1_655
O4 Zn1 2.295267 1_665
O5 Si0 1.626246 1_545
O5 Zn1 1.954059 1_655
O6 Si0 1.638228 1_555
O6 Zn2 1.993203 1_555
O7 S3 1.480771 1_555
O7 Zn2 2.576887 1_445
O8 S4 1.484587 1_555
O8 Zn2 2.198102 1_455
O9 S1 1.492826 1_555
O9 Zn3 2.266444 1_655
O10 S2 1.493246 1_555
O10 Zn3 2.210155 1_545
O11 S0 1.492113 1_565
O11 Zn3 2.081751 1_555
O12 S5 1.482378 1_555
O12 Zn4 2.100892 1_555
O13 Si1 1.615365 1_555
O13 Zn4 1.907690 1_555
O14 Si2 1.625494 1_555
O14 Zn4 1.944824 1_555
O15 Si3 1.623445 1_555
O15 Zn5 1.881591 1_555
O16 S6 1.483231 1_555
O16 Zn5 2.103177 1_555
O17 Si4 1.625283 1_555
O17 Zn5 1.888270 1_555
O18 Si4 1.706250 1_555
O18 Ti0 1.847093 1_554
O19 Si3 1.718397 1_555
O19 Ti0 1.862778 1_554
O20 S6 1.514313 1_555
O20 Ti0 2.033506 1_554
O21 Si1 1.689959 1_555
O21 Ti1 1.875069 1_555
O22 Si2 1.682517 1_555
O22 Ti1 1.837770 1_555
O23 S5 1.507796 1_555
O23 Ti1 2.059650 1_555
O24 S7 1.475161 1_555
O24 Zn6 2.299347 1_556
O25 Si5 1.607552 1_555
O25 Zn6 1.930803 1_556
O26 Si6 1.603438 1_555
O26 Zn6 1.982664 1_556
O27 Si7 1.617634 1_555
O27 Zn7 1.932717 1_555
O28 S8 1.473764 1_555
O28 Zn7 2.405597 1_555
O29 Si8 1.619398 1_555
O29 Zn7 1.977852 1_555
O30 Si8 1.656644 1_555
O30 Zn8 1.901648 1_555
O31 Si7 1.653092 1_555
O31 Zn8 1.900911 1_555
O32 S8 1.495901 1_555
O32 Zn8 2.165545 1_555
O33 Si5 1.695165 1_555
O33 Ti2 1.915098 1_555
O34 Si6 1.713081 1_555
O34 Ti2 1.799703 1_555
O35 S7 1.503071 1_555
O35 Ti2 2.109200 1_555
O36 Si8 1.644288 1_555
O36 Zn0 2.000251 1_455
O37 Si7 1.635297 1_545
O37 Zn0 1.990964 1_545
O38 S8 1.478890 1_555
O38 Zn0 2.320909 1_445
O39 Si5 1.628426 1_555
O39 Zn1 2.024950 1_555
O40 Si6 1.629971 1_555
O40 Zn1 2.122157 1_565
O41 S7 1.470552 1_555
O41 Zn1 2.346352 1_665
O42 S5 1.485196 1_555
O42 Zn2 2.282049 1_545
O43 Si1 1.646518 1_555
O43 Zn2 2.101474 1_445
O44 Si2 1.642808 1_555
O44 Zn2 2.037670 1_555
O45 Si3 1.645469 1_555
O45 Zn3 2.057559 1_655
O46 S6 1.483679 1_555
O46 Zn3 2.283208 1_645
O47 Si4 1.643169 1_555
O47 Zn3 2.044930 1_545
O48 Si0 1.649533 1_545
O48 Zn4 2.211172 1_555
O49 S3 1.485895 1_555
O49 Zn4 2.380761 1_555
O50 S4 1.478138 1_655
O51 S1 1.499368 1_555
O51 Zn5 2.407797 1_555
O52 S2 1.501535 1_655
O52 Zn5 2.563536 1_555
O53 S0 1.496825 1_555
O53 Zn5 2.466552 1_555
O54 S7 1.511985 1_555
O54 Ti0 2.170359 1_555
O55 Si5 1.672176 1_655
O55 Ti0 2.055798 1_555
O56 Si6 1.659206 1_545
O56 Ti0 2.116644 1_555
O57 Si7 1.667760 1_545
O57 Ti1 2.005322 1_555
O58 S8 1.517672 1_555
O58 Ti1 2.147172 1_555
O59 Si8 1.669589 1_655
O59 Ti1 1.998616 1_555
O60 Si4 1.628227 1_555
O60 Zn6 2.126570 1_555
O61 Si3 1.621751 1_455
O61 Zn6 2.031737 1_555
O62 S6 1.471808 1_565
O62 Zn6 2.512135 1_555
O63 Si1 1.629932 1_565
O63 Zn7 2.026878 1_555
O64 Si2 1.632427 1_555
O64 Zn7 2.194722 1_555
O65 S5 1.473298 1_455
O65 Zn7 2.447393 1_555
O66 S0 1.496611 1_565
O66 Zn8 2.478794 1_555
O67 S1 1.492353 1_555
O68 S2 1.492503 1_555
O69 S3 1.512700 1_555
O69 Ti2 2.286274 1_555
O70 S4 1.536343 1_555
O70 Ti2 2.061383 1_555
O71 Si0 1.723917 1_555
O71 Ti2 1.937732 1_555
