# generated using pymatgen
data_Mg(CuO2)4
_symmetry_space_group_name_H-M   'P 1'
_cell_length_a   5.89868004
_cell_length_b   5.90190369
_cell_length_c   5.89979278
_cell_angle_alpha   59.95702895
_cell_angle_beta   60.04172355
_cell_angle_gamma   59.99318726
_symmetry_Int_Tables_number   1
_chemical_formula_structural   Mg(CuO2)4
_chemical_formula_sum   'Mg1 Cu4 O8'
_cell_volume   145.22513332
_cell_formula_units_Z   1
loop_
 _symmetry_equiv_pos_site_id
 _symmetry_equiv_pos_as_xyz
  1  'x, y, z'
loop_
 _atom_site_type_symbol
 _atom_site_label
 _atom_site_symmetry_multiplicity
 _atom_site_fract_x
 _atom_site_fract_y
 _atom_site_fract_z
 _atom_site_occupancy
  Mg  Mg0  1  0.12491700  0.12506100  0.12511100  1
  Cu  Cu0  1  0.50067000  0.50074600  0.50070800  1
  Cu  Cu1  1  0.50070400  0.99786800  0.50068400  1
  Cu  Cu2  1  0.99787300  0.50070300  0.50075100  1
  Cu  Cu3  1  0.50076100  0.50068200  0.99785000  1
  O  O0  1  0.73435100  0.73379900  0.29777700  1
  O  O1  1  0.73403600  0.73406500  0.73395000  1
  O  O2  1  0.26233600  0.26285000  0.71221700  1
  O  O3  1  0.26254100  0.71222100  0.26282300  1
  O  O4  1  0.26264900  0.26259000  0.26267400  1
  O  O5  1  0.71205500  0.26274300  0.26251000  1
  O  O6  1  0.73415800  0.29775100  0.73381400  1
  O  O7  1  0.29795400  0.73392200  0.73413100  1
loop_
_geom_bond_atom_site_label_1
_geom_bond_atom_site_label_2
_geom_bond_distance
_geom_bond_site_symmetry_2
Mg0 O3 1.988470 1_545
Mg0 O4 1.988792 1_555
Mg0 O2 1.988991 1_554
Mg0 O5 1.989186 1_455
Cu0 O6 1.953242 1_555
Cu0 O0 1.955635 1_555
Cu0 O7 1.956359 1_555
Cu0 O3 1.990469 1_555
Cu0 O2 1.993183 1_555
Cu0 O5 1.994350 1_555
Cu1 O1 1.953292 1_555
Cu1 O7 1.955492 1_555
Cu1 O0 1.957915 1_555
Cu1 O4 1.990687 1_565
Cu1 O5 1.993175 1_565
Cu1 O2 1.995653 1_565
Cu2 O0 1.952818 1_555
Cu2 O6 1.955372 1_555
Cu2 O1 1.956227 1_555
Cu2 O2 1.990098 1_655
Cu2 O3 1.993024 1_655
Cu2 O4 1.994323 1_655
Cu3 O7 1.952974 1_555
Cu3 O1 1.955365 1_555
Cu3 O6 1.957912 1_555
Cu3 O5 1.990229 1_556
Cu3 O4 1.993105 1_556
Cu3 O3 1.995681 1_556
