# generated using pymatgen
data_Na6Nb3Al5(PO4)12
_symmetry_space_group_name_H-M   'P 1'
_cell_length_a   17.16358623
_cell_length_b   8.58175352
_cell_length_c   22.08834437
_cell_angle_alpha   90.04413673
_cell_angle_beta   89.97159077
_cell_angle_gamma   120.00427417
_symmetry_Int_Tables_number   1
_chemical_formula_structural   Na6Nb3Al5(PO4)12
_chemical_formula_sum   'Na18 Nb9 Al15 P36 O144'
_cell_volume   2817.46824670
_cell_formula_units_Z   3
loop_
 _symmetry_equiv_pos_site_id
 _symmetry_equiv_pos_as_xyz
  1  'x, y, z'
loop_
 _atom_site_type_symbol
 _atom_site_label
 _atom_site_symmetry_multiplicity
 _atom_site_fract_x
 _atom_site_fract_y
 _atom_site_fract_z
 _atom_site_occupancy
  Na  Na0  1  0.68446742  0.36575850  0.24909398  1
  Na  Na1  1  0.99820158  0.63046790  0.24915752  1
  Na  Na2  1  0.99893592  0.36358559  0.74723553  1
  Na  Na3  1  0.49897448  0.36358915  0.74738607  1
  Na  Na4  1  0.18239370  0.99943719  0.74734506  1
  Na  Na5  1  0.68234634  0.99944278  0.74761914  1
  Na  Na6  1  0.00003514  0.99942096  0.50502801  1
  Na  Na7  1  0.49969533  0.99973887  0.50518073  1
  Na  Na8  1  0.99821582  0.99725512  0.00544835  1
  Na  Na9  1  0.50159321  0.00299927  0.00493867  1
  Na  Na10  1  0.33311203  0.34100967  0.83543549  1
  Na  Na11  1  0.83259853  0.34017626  0.83606763  1
  Na  Na12  1  0.33323931  0.33363113  0.33882427  1
  Na  Na13  1  0.83297478  0.32426738  0.33615614  1
  Na  Na14  1  0.16949682  0.66517747  0.17037726  1
  Na  Na15  1  0.66793800  0.67735254  0.17011707  1
  Na  Na16  1  0.17089936  0.66568330  0.66670744  1
  Na  Na17  1  0.67083839  0.66552731  0.66687778  1
  Nb  Nb0  1  0.99897818  0.00249212  0.35578485  1
  Nb  Nb1  1  0.50091791  0.99869034  0.35642305  1
  Nb  Nb2  1  0.99967026  0.99865214  0.85485345  1
  Nb  Nb3  1  0.49994751  0.99874252  0.85519454  1
  Nb  Nb4  1  0.33346279  0.33605711  0.18835716  1
  Nb  Nb5  1  0.16460140  0.66612352  0.02395583  1
  Nb  Nb6  1  0.66922392  0.66731117  0.02470445  1
  Nb  Nb7  1  0.16683134  0.66709279  0.52441555  1
  Nb  Nb8  1  0.66669624  0.66698495  0.52475583  1
  Al  Al0  1  0.99919903  0.99911969  0.64416862  1
  Al  Al1  1  0.49912688  0.99895796  0.64427347  1
  Al  Al2  1  0.99744289  0.99933344  0.14623552  1
  Al  Al3  1  0.50183355  0.00017042  0.14656372  1
  Al  Al4  1  0.33296911  0.33816378  0.68278532  1
  Al  Al5  1  0.83290336  0.33819349  0.68279711  1
  Al  Al6  1  0.83286023  0.32591077  0.18492570  1
  Al  Al7  1  0.33374607  0.33378332  0.97995570  1
  Al  Al8  1  0.83308711  0.33236135  0.98219640  1
  Al  Al9  1  0.33323998  0.33342181  0.48196682  1
  Al  Al10  1  0.83359576  0.33428474  0.48174637  1
  Al  Al11  1  0.16876537  0.66511336  0.31477765  1
  Al  Al12  1  0.66674713  0.67371583  0.31451513  1
  Al  Al13  1  0.16950196  0.66563765  0.81503934  1
  Al  Al14  1  0.66898903  0.66580910  0.81525344  1
  P  P0  1  0.14211830  0.99356089  0.24849734  1
  P  P1  1  0.64574750  0.99497287  0.24670708  1
  P  P2  1  0.35399737  0.72031680  0.24802780  1
  P  P3  1  0.85300893  0.71127594  0.24673784  1
  P  P4  1  0.00042627  0.29087545  0.24618052  1
  P  P5  1  0.50309712  0.29093083  0.24872335  1
  P  P6  1  0.14731382  0.29569234  0.74690033  1
  P  P7  1  0.64732325  0.29577259  0.74691076  1
  P  P8  1  0.99803807  0.70656311  0.74645000  1
  P  P9  1  0.49797742  0.70675338  0.74649173  1
  P  P10  1  0.35308836  0.99422716  0.74660735  1
  P  P11  1  0.85293215  0.99415960  0.74646769  1
  P  P12  1  0.47070134  0.32162073  0.58457274  1
  P  P13  1  0.97083493  0.32193006  0.58456295  1
  P  P14  1  0.19012416  0.05866679  0.58468979  1
  P  P15  1  0.69016620  0.05890094  0.58465471  1
  P  P16  1  0.33911789  0.61949414  0.58401264  1
  P  P17  1  0.83917674  0.61942334  0.58400542  1
  P  P18  1  0.47414690  0.62686203  0.08103369  1
  P  P19  1  0.97001988  0.61966608  0.08482551  1
  P  P20  1  0.33981370  0.05300665  0.08142313  1
  P  P21  1  0.83946376  0.05993420  0.08406996  1
  P  P22  1  0.18630486  0.32028493  0.08103827  1
  P  P23  1  0.69042007  0.32099479  0.08490350  1
  P  P24  1  0.30716999  0.65539977  0.91587615  1
  P  P25  1  0.80780524  0.65455978  0.91526885  1
  P  P26  1  0.01963813  0.38411423  0.91482063  1
  P  P27  1  0.52056685  0.38550142  0.91532556  1
  P  P28  1  0.17229230  0.96026781  0.91486455  1
  P  P29  1  0.67263104  0.95941615  0.91546183  1
  P  P30  1  0.30692453  0.95903265  0.41525102  1
  P  P31  1  0.80649799  0.95940272  0.41571469  1
  P  P32  1  0.17284115  0.38612414  0.41553531  1
  P  P33  1  0.67295137  0.38677244  0.41507397  1
  P  P34  1  0.02019801  0.65577292  0.41497036  1
  P  P35  1  0.52055998  0.65324679  0.41555564  1
  O  O0  1  0.10160549  0.03023916  0.30605239  1
  O  O1  1  0.60293118  0.03492298  0.30432406  1
  O  O2  1  0.41347853  0.79809990  0.30563213  1
  O  O3  1  0.91467178  0.79470048  0.30461149  1
  O  O4  1  0.48478882  0.17262997  0.30609768  1
  O  O5  1  0.98432180  0.17267335  0.30479361  1
  O  O6  1  0.10369640  0.17146522  0.80481183  1
  O  O7  1  0.60373031  0.17154717  0.80479303  1
  O  O8  1  0.48347880  0.79433219  0.80532651  1
  O  O9  1  0.98352251  0.79429108  0.80532571  1
  O  O10  1  0.41445061  0.03370545  0.80475582  1
  O  O11  1  0.91445567  0.03379980  0.80468229  1
  O  O12  1  0.39958708  0.96658214  0.69297161  1
  O  O13  1  0.89971527  0.96665042  0.69300933  1
  O  O14  1  0.08293586  0.20473129  0.69389181  1
  O  O15  1  0.58296326  0.20478344  0.69382501  1
  O  O16  1  0.01886004  0.83618262  0.69391560  1
  O  O17  1  0.51881993  0.83611843  0.69386685  1
  O  O18  1  0.39956040  0.83310109  0.19248565  1
  O  O19  1  0.89915629  0.83077868  0.19265291  1
  O  O20  1  0.01656164  0.20016582  0.19240484  1
  O  O21  1  0.51837809  0.20283979  0.19364514  1
  O  O22  1  0.08278428  0.96278412  0.19346609  1
  O  O23  1  0.58463122  0.96672644  0.19262179  1
  O  O24  1  0.43415984  0.36162304  0.64301594  1
  O  O25  1  0.93411031  0.36154448  0.64303913  1
  O  O26  1  0.24681947  0.13152976  0.64302605  1
  O  O27  1  0.74685510  0.13165851  0.64301967  1
  O  O28  1  0.31826198  0.50293073  0.64086274  1
  O  O29  1  0.81821468  0.50295854  0.64084080  1
  O  O30  1  0.43438149  0.50709985  0.13871419  1
  O  O31  1  0.93371712  0.50550735  0.14271945  1
  O  O32  1  0.31928694  0.13265591  0.13902838  1
  O  O33  1  0.81807863  0.13419906  0.14050673  1
  O  O34  1  0.24644354  0.36197548  0.13881691  1
  O  O35  1  0.74736593  0.36211036  0.14269377  1
  O  O36  1  0.23291921  0.29985750  0.02588600  1
  O  O37  1  0.73337359  0.29995796  0.02740090  1
  O  O38  1  0.41708844  0.53417525  0.02587916  1
  O  O39  1  0.91665337  0.53284649  0.02733347  1
  O  O40  1  0.34994539  0.16545377  0.02593774  1
  O  O41  1  0.85029489  0.16573001  0.02608304  1
  O  O42  1  0.23366769  0.16710576  0.52784261  1
  O  O43  1  0.73372032  0.16727384  0.52775074  1
  O  O44  1  0.35015654  0.53466643  0.52653321  1
  O  O45  1  0.85009622  0.53466221  0.52649415  1
  O  O46  1  0.41650479  0.30067691  0.52774961  1
  O  O47  1  0.91647817  0.30060687  0.52777722  1
  O  O48  1  0.26706144  0.69528081  0.97293066  1
  O  O49  1  0.76841940  0.69595988  0.97254366  1
  O  O50  1  0.08060084  0.46604349  0.97149208  1
  O  O51  1  0.58108554  0.46711154  0.97188631  1
  O  O52  1  0.15261710  0.83930431  0.97157698  1
  O  O53  1  0.65255853  0.83754014  0.97186406  1
  O  O54  1  0.26751436  0.83931144  0.47252053  1
  O  O55  1  0.76721701  0.83946699  0.47290840  1
  O  O56  1  0.15237458  0.46518393  0.47273318  1
  O  O57  1  0.65251158  0.46735460  0.47167211  1
  O  O58  1  0.08096092  0.69514282  0.47165732  1
  O  O59  1  0.58038277  0.69537473  0.47278145  1
  O  O60  1  0.06439754  0.63445671  0.35752866  1
  O  O61  1  0.56583677  0.63269033  0.35943059  1
  O  O62  1  0.25054218  0.86772965  0.35925925  1
  O  O63  1  0.75099608  0.86856901  0.35959340  1
  O  O64  1  0.18332386  0.49770181  0.35939933  1
  O  O65  1  0.68263868  0.49458145  0.35738272  1
  O  O66  1  0.06460085  0.49484859  0.85771494  1
  O  O67  1  0.56427852  0.49454689  0.85770506  1
  O  O68  1  0.18257775  0.87080712  0.85758242  1
  O  O69  1  0.68245062  0.87070923  0.85763879  1
  O  O70  1  0.25099449  0.63339466  0.85977606  1
  O  O71  1  0.75101890  0.63337563  0.85954876  1
  O  O72  1  0.01193392  0.82972733  0.40917295  1
  O  O73  1  0.51246384  0.82777517  0.40968414  1
  O  O74  1  0.40231906  0.97548422  0.40929273  1
  O  O75  1  0.90165263  0.97537973  0.40981031  1
  O  O76  1  0.08558337  0.19565004  0.40971546  1
  O  O77  1  0.58563276  0.19550802  0.40963097  1
  O  O78  1  0.01229686  0.19452394  0.90922315  1
  O  O79  1  0.51205776  0.19487517  0.90925428  1
  O  O80  1  0.08527073  0.97595943  0.90972073  1
  O  O81  1  0.58529852  0.97567056  0.90962551  1
  O  O82  1  0.40232954  0.82929811  0.90972427  1
  O  O83  1  0.90244663  0.82921052  0.90938350  1
  O  O84  1  0.48591378  0.16131445  0.59185643  1
  O  O85  1  0.98591783  0.16136776  0.59188871  1
  O  O86  1  0.09483776  0.02885268  0.59225377  1
  O  O87  1  0.59481556  0.02890328  0.59222824  1
  O  O88  1  0.41965940  0.81014190  0.59172306  1
  O  O89  1  0.91958652  0.81014024  0.59172008  1
  O  O90  1  0.48601176  0.81215686  0.09078847  1
  O  O91  1  0.98634385  0.81156629  0.09185197  1
  O  O92  1  0.42029073  0.02812495  0.09131576  1
  O  O93  1  0.91944499  0.02829784  0.09117919  1
  O  O94  1  0.09377744  0.15957645  0.09092918  1
  O  O95  1  0.59445737  0.16087939  0.09192193  1
  O  O96  1  0.34392237  0.16625890  0.74215709  1
  O  O97  1  0.84400610  0.16638339  0.74215983  1
  O  O98  1  0.23978489  0.30829245  0.74151821  1
  O  O99  1  0.73980483  0.30836202  0.74144968  1
  O  O100  1  0.41566670  0.51729473  0.74134692  1
  O  O101  1  0.91570191  0.51740145  0.74139124  1
  O  O102  1  0.34522867  0.52942838  0.24286664  1
  O  O103  1  0.84416518  0.52120808  0.24178918  1
  O  O104  1  0.41794800  0.31016846  0.24358309  1
  O  O105  1  0.91668624  0.31349155  0.24126137  1
  O  O106  1  0.23693652  0.16423298  0.24342089  1
  O  O107  1  0.73866924  0.16939013  0.24137591  1
  O  O108  1  0.31962669  0.49345237  0.92445450  1
  O  O109  1  0.81997511  0.49303099  0.92458502  1
  O  O110  1  0.42701217  0.36095383  0.92398281  1
  O  O111  1  0.92697007  0.36104780  0.92400666  1
  O  O112  1  0.25370161  0.14649028  0.92393099  1
  O  O113  1  0.75343161  0.14612969  0.92409555  1
  O  O114  1  0.31974501  0.14586823  0.42456141  1
  O  O115  1  0.81966702  0.14638331  0.42481570  1
  O  O116  1  0.25343708  0.36039058  0.42457180  1
  O  O117  1  0.75333087  0.36055986  0.42408689  1
  O  O118  1  0.42690323  0.49279089  0.42450330  1
  O  O119  1  0.92716888  0.49328258  0.42411834  1
  O  O120  1  0.17872843  0.49538456  0.07666078  1
  O  O121  1  0.67973836  0.49409328  0.07716149  1
  O  O122  1  0.06723423  0.64051673  0.07677928  1
  O  O123  1  0.56913532  0.64238432  0.07676636  1
  O  O124  1  0.25216494  0.86255368  0.07675934  1
  O  O125  1  0.75316445  0.86522967  0.07663174  1
  O  O126  1  0.17968114  0.86434068  0.57765316  1
  O  O127  1  0.67976632  0.86451179  0.57772908  1
  O  O128  1  0.25265146  0.64121287  0.57714465  1
  O  O129  1  0.75260963  0.64089936  0.57707936  1
  O  O130  1  0.06795520  0.49571721  0.57761510  1
  O  O131  1  0.56787912  0.49515066  0.57761700  1
  O  O132  1  0.15205104  0.82656672  0.25741311  1
  O  O133  1  0.65424681  0.82840406  0.25769082  1
  O  O134  1  0.26021324  0.69377146  0.25736023  1
  O  O135  1  0.75879377  0.68636616  0.25716474  1
  O  O136  1  0.08364694  0.48038119  0.25698597  1
  O  O137  1  0.58659975  0.47741202  0.25747641  1
  O  O138  1  0.15342452  0.47919327  0.75817595  1
  O  O139  1  0.65350267  0.47937743  0.75816389  1
  O  O140  1  0.08365663  0.68898239  0.75720457  1
  O  O141  1  0.58363915  0.68892385  0.75708942  1
  O  O142  1  0.25861658  0.83064329  0.75743685  1
  O  O143  1  0.75864972  0.83062301  0.75741755  1
loop_
_geom_bond_atom_site_label_1
_geom_bond_atom_site_label_2
_geom_bond_distance
_geom_bond_site_symmetry_2
Na0 O107 2.302540 1_555
Na0 O137 2.320158 1_555
Na0 O103 2.379399 1_555
Na0 O135 2.391306 1_555
Na0 O35 2.592503 1_555
Na0 O65 2.641024 1_555
Na0 O1 2.745426 1_555
Na0 O21 2.756073 1_555
Na1 O132 2.322444 1_655
Na1 O103 2.327305 1_555
Na1 O105 2.362335 1_555
Na1 O136 2.393615 1_655
Na1 O31 2.591141 1_555
Na1 O60 2.643046 1_655
Na1 O3 2.749301 1_555
Na1 O22 2.759855 1_655
Na2 O138 2.332984 1_655
Na2 O97 2.333860 1_555
Na2 O101 2.384621 1_555
Na2 O140 2.428811 1_655
Na2 O25 2.553093 1_555
Na2 O66 2.687565 1_655
Na2 O14 2.699433 1_655
Na2 O11 2.760758 1_555
Na3 O139 2.333020 1_555
Na3 O96 2.335826 1_555
Na3 O100 2.385163 1_555
Na3 O141 2.427813 1_555
Na3 O24 2.556608 1_555
Na3 O67 2.682502 1_555
Na3 O15 2.701056 1_555
Na3 O10 2.760626 1_555
Na4 O98 2.324074 1_565
Na4 O140 2.345736 1_555
Na4 O142 2.399088 1_555
Na4 O96 2.404021 1_565
Na4 O26 2.562245 1_565
Na4 O68 2.674923 1_555
Na4 O16 2.702171 1_555
Na4 O6 2.757703 1_565
Na5 O99 2.324851 1_565
Na5 O141 2.345297 1_555
Na5 O143 2.399856 1_555
Na5 O97 2.406257 1_565
Na5 O27 2.568356 1_565
Na5 O69 2.670628 1_555
Na5 O17 2.705196 1_555
Na5 O7 2.754190 1_565
Na6 O89 2.443540 1_455
Na6 O85 2.450205 1_465
Na6 O86 2.452512 1_565
Na6 O72 2.633926 1_555
Na6 O76 2.636948 1_565
Na6 O75 2.640418 1_455
Na7 O88 2.440356 1_555
Na7 O84 2.442848 1_565
Na7 O87 2.453295 1_565
Na7 O77 2.641310 1_565
Na7 O74 2.641499 1_555
Na7 O73 2.644518 1_555
Na8 O93 2.416954 1_565
Na8 O91 2.429578 1_555
Na8 O94 2.430973 1_665
Na8 O83 2.629083 1_554
Na8 O80 2.646940 1_654
Na8 O78 2.652877 1_664
Na9 O95 2.430402 1_555
Na9 O90 2.432262 1_545
Na9 O92 2.435486 1_555
Na9 O81 2.623856 1_544
Na9 O79 2.630547 1_554
Na9 O82 2.647000 1_544
Na10 O108 2.435101 1_555
Na10 O110 2.485736 1_555
Na10 O112 2.488392 1_555
Na10 O100 2.544327 1_555
Na10 O98 2.549654 1_555
Na10 O96 2.608005 1_555
Na11 O109 2.422881 1_555
Na11 O113 2.477780 1_555
Na11 O111 2.478131 1_555
Na11 O99 2.558630 1_555
Na11 O101 2.559931 1_555
Na11 O97 2.617675 1_555
Na12 O116 2.414011 1_555
Na12 O118 2.415483 1_555
Na12 O114 2.422294 1_555
Na12 O104 2.620900 1_555
Na12 O106 2.623298 1_555
Na12 O102 2.649040 1_555
Na13 O115 2.423446 1_555
Na13 O119 2.479128 1_555
Na13 O117 2.481970 1_555
Na13 O105 2.568271 1_555
Na13 O107 2.572324 1_555
Na13 O103 2.630296 1_555
Na14 O134 2.407504 1_555
Na14 O136 2.451676 1_555
Na14 O132 2.472632 1_555
Na14 O120 2.580565 1_555
Na14 O124 2.599460 1_555
Na14 O122 2.651632 1_555
Na15 O133 2.403677 1_555
Na15 O135 2.452911 1_555
Na15 O137 2.494642 1_555
Na15 O125 2.578106 1_555
Na15 O123 2.590572 1_555
Na15 O121 2.653924 1_555
Na16 O142 2.480727 1_555
Na16 O128 2.493574 1_555
Na16 O138 2.501509 1_555
Na16 O130 2.558040 1_555
Na16 O126 2.558587 1_555
Na16 O140 2.563935 1_555
Na17 O143 2.478177 1_555
Na17 O139 2.497038 1_555
Na17 O129 2.498394 1_555
Na17 O141 2.558868 1_555
Na17 O127 2.561292 1_555
Na17 O131 2.561800 1_555
Nb0 O5 1.958324 1_555
Nb0 O75 1.969349 1_545
Nb0 O76 1.977560 1_655
Nb0 O0 1.986235 1_655
Nb0 O3 1.992284 1_545
Nb0 O72 1.992724 1_645
Nb1 O73 1.966789 1_555
Nb1 O2 1.972089 1_555
Nb1 O77 1.972489 1_565
Nb1 O74 1.982088 1_555
Nb1 O1 1.985128 1_565
Nb1 O4 1.989125 1_565
Nb2 O9 1.964833 1_555
Nb2 O11 1.975243 1_565
Nb2 O83 1.980830 1_555
Nb2 O78 1.986840 1_665
Nb2 O80 1.988356 1_655
Nb2 O6 1.990318 1_665
Nb3 O8 1.967700 1_555
Nb3 O81 1.980638 1_555
Nb3 O10 1.981694 1_565
Nb3 O82 1.984058 1_555
Nb3 O79 1.987295 1_565
Nb3 O7 1.992542 1_565
Nb4 O34 1.952397 1_555
Nb4 O30 1.953200 1_555
Nb4 O32 1.966186 1_555
Nb4 O102 1.976431 1_555
Nb4 O106 1.988942 1_555
Nb4 O104 1.991097 1_555
Nb5 O122 1.957972 1_555
Nb5 O50 1.972942 1_554
Nb5 O52 1.974404 1_554
Nb5 O120 1.979705 1_555
Nb5 O124 1.981319 1_555
Nb5 O48 1.995963 1_554
Nb6 O125 1.956372 1_555
Nb6 O121 1.963673 1_555
Nb6 O49 1.966320 1_554
Nb6 O123 1.987504 1_555
Nb6 O53 1.999767 1_554
Nb6 O51 2.000154 1_554
Nb7 O128 1.976058 1_555
Nb7 O126 1.980053 1_555
Nb7 O130 1.982000 1_555
Nb7 O54 1.982633 1_555
Nb7 O56 1.983523 1_555
Nb7 O58 1.986239 1_555
Nb8 O129 1.972935 1_555
Nb8 O127 1.977316 1_555
Nb8 O131 1.978330 1_555
Nb8 O55 1.981342 1_555
Nb8 O59 1.983712 1_555
Nb8 O57 1.987241 1_555
Al0 O89 1.903093 1_555
Al0 O85 1.909018 1_565
Al0 O86 1.911616 1_665
Al0 O13 1.918285 1_555
Al0 O16 1.936790 1_655
Al0 O14 1.961538 1_665
Al1 O88 1.903047 1_555
Al1 O84 1.911022 1_565
Al1 O87 1.913484 1_565
Al1 O12 1.917544 1_555
Al1 O17 1.934481 1_555
Al1 O15 1.960882 1_565
Al2 O19 1.883997 1_555
Al2 O20 1.884172 1_665
Al2 O93 1.915139 1_565
Al2 O91 1.940627 1_555
Al2 O22 1.947765 1_655
Al2 O94 1.960577 1_665
Al3 O23 1.883271 1_545
Al3 O18 1.910299 1_545
Al3 O21 1.921122 1_555
Al3 O95 1.921974 1_555
Al3 O90 1.937503 1_545
Al3 O92 1.960485 1_555
Al4 O28 1.811018 1_555
Al4 O24 1.864861 1_555
Al4 O26 1.865119 1_555
Al4 O100 1.966609 1_555
Al4 O98 1.973611 1_555
Al4 O96 2.052347 1_555
Al5 O29 1.811218 1_555
Al5 O27 1.864285 1_555
Al5 O25 1.865319 1_555
Al5 O101 1.967933 1_555
Al5 O99 1.971443 1_555
Al5 O97 2.052756 1_555
Al6 O33 1.820458 1_555
Al6 O31 1.890352 1_555
Al6 O35 1.891463 1_555
Al6 O105 1.945546 1_555
Al6 O107 1.949700 1_555
Al6 O103 2.023845 1_555
Al7 O38 1.889717 1_556
Al7 O40 1.897336 1_556
Al7 O36 1.898326 1_556
Al7 O110 1.941804 1_555
Al7 O108 1.942725 1_555
Al7 O112 1.947413 1_555
Al8 O41 1.869925 1_556
Al8 O37 1.877792 1_556
Al8 O39 1.882052 1_556
Al8 O113 1.970703 1_555
Al8 O109 1.970914 1_555
Al8 O111 1.977585 1_555
Al9 O44 1.879398 1_555
Al9 O42 1.882987 1_555
Al9 O46 1.883490 1_555
Al9 O116 1.963693 1_555
Al9 O118 1.966633 1_555
Al9 O114 1.968847 1_555
Al10 O45 1.877428 1_555
Al10 O47 1.885221 1_555
Al10 O43 1.889081 1_555
Al10 O115 1.962225 1_555
Al10 O119 1.967343 1_555
Al10 O117 1.970696 1_555
Al11 O64 1.859949 1_555
Al11 O62 1.875287 1_555
Al11 O60 1.922793 1_555
Al11 O134 1.935190 1_555
Al11 O136 1.989843 1_555
Al11 O132 2.002041 1_555
Al12 O63 1.859873 1_555
Al12 O61 1.870020 1_555
Al12 O133 1.916084 1_555
Al12 O65 1.938060 1_555
Al12 O135 1.984723 1_555
Al12 O137 1.999593 1_555
Al13 O70 1.843438 1_555
Al13 O68 1.906826 1_555
Al13 O66 1.907791 1_555
Al13 O138 1.941510 1_555
Al13 O142 1.948890 1_555
Al13 O140 2.034823 1_555
Al14 O71 1.846816 1_555
Al14 O69 1.900848 1_555
Al14 O67 1.904736 1_555
Al14 O139 1.947416 1_555
Al14 O143 1.955675 1_555
Al14 O141 2.031937 1_555
O0 P0 1.554406 1_545
O1 P1 1.589857 1_545
O2 P2 1.557310 1_555
O3 P3 1.583961 1_555
O4 P5 1.554998 1_555
O5 P4 1.582017 1_655
O6 P6 1.592547 1_555
O7 P7 1.591965 1_555
O8 P9 1.581420 1_555
O9 P8 1.582986 1_555
O10 P10 1.586665 1_545
O11 P11 1.589225 1_545
O12 P10 1.511552 1_555
O13 P11 1.510963 1_555
O14 P6 1.529196 1_555
O15 P7 1.530394 1_555
O16 P8 1.521704 1_455
O17 P9 1.521845 1_555
O18 P2 1.515704 1_555
O19 P3 1.514869 1_555
O20 P4 1.519027 1_555
O21 P5 1.522149 1_555
O22 P0 1.521890 1_555
O23 P1 1.527349 1_555
O24 P12 1.546452 1_555
O25 P13 1.547273 1_555
O26 P14 1.545873 1_555
O27 P15 1.546274 1_555
O28 P16 1.532640 1_555
O29 P17 1.531751 1_555
O30 P18 1.563643 1_555
O31 P19 1.540756 1_555
O32 P20 1.565061 1_555
O33 P21 1.525510 1_555
O34 P22 1.566354 1_555
O35 P23 1.537811 1_555
O36 P22 1.514558 1_555
O37 P23 1.523545 1_555
O38 P18 1.515445 1_555
O39 P19 1.524441 1_555
O40 P20 1.515678 1_555
O41 P21 1.527140 1_555
O42 P14 1.518726 1_555
O43 P15 1.519590 1_555
O44 P16 1.521205 1_555
O45 P17 1.520742 1_555
O46 P12 1.518729 1_555
O47 P13 1.518958 1_555
O48 P24 1.553497 1_555
O49 P25 1.556394 1_555
O50 P26 1.555728 1_555
O51 P27 1.550045 1_555
O52 P28 1.553012 1_555
O53 P29 1.551102 1_555
O54 P30 1.555450 1_555
O55 P31 1.554679 1_555
O56 P32 1.554516 1_555
O57 P33 1.550827 1_555
O58 P34 1.554946 1_555
O59 P35 1.553077 1_555
O60 P34 1.535020 1_555
O61 P35 1.519118 1_555
O62 P30 1.523600 1_555
O63 P31 1.519472 1_555
O64 P32 1.521849 1_555
O65 P33 1.534676 1_555
O66 P26 1.535283 1_555
O67 P27 1.535312 1_555
O68 P28 1.534701 1_555
O69 P29 1.538119 1_555
O70 P24 1.523000 1_555
O71 P25 1.523621 1_555
O72 P34 1.573898 1_555
O73 P35 1.577303 1_555
O74 P30 1.576918 1_555
O75 P31 1.574482 1_555
O76 P32 1.575723 1_555
O77 P33 1.579339 1_555
O78 P26 1.572583 1_555
O79 P27 1.573607 1_555
O80 P28 1.569471 1_555
O81 P29 1.578680 1_555
O82 P24 1.573382 1_555
O83 P25 1.570697 1_555
O84 P12 1.531750 1_555
O85 P13 1.532633 1_555
O86 P14 1.532773 1_555
O87 P15 1.533303 1_555
O88 P16 1.534467 1_555
O89 P17 1.534014 1_555
O90 P18 1.513981 1_555
O91 P19 1.533901 1_555
O92 P20 1.515458 1_555
O93 P21 1.534887 1_555
O94 P22 1.510454 1_555
O95 P23 1.536725 1_555
O96 P10 1.564130 1_545
O97 P11 1.563217 1_545
O98 P6 1.540459 1_555
O99 P7 1.540815 1_555
O100 P9 1.534565 1_555
O101 P8 1.533071 1_555
O102 P2 1.572373 1_555
O103 P3 1.564496 1_555
O104 P5 1.554840 1_555
O105 P4 1.547393 1_655
O106 P0 1.556423 1_545
O107 P1 1.552569 1_545
O108 P24 1.520119 1_555
O109 P25 1.515781 1_555
O110 P27 1.523409 1_555
O111 P26 1.514911 1_655
O112 P28 1.520837 1_545
O113 P29 1.518048 1_545
O114 P30 1.519278 1_545
O115 P31 1.517604 1_545
O116 P32 1.519224 1_555
O117 P33 1.517977 1_555
O118 P35 1.518388 1_555
O119 P34 1.519245 1_655
O120 P22 1.574775 1_555
O121 P23 1.594470 1_555
O122 P19 1.596499 1_455
O123 P18 1.570767 1_555
O124 P20 1.576664 1_565
O125 P21 1.592933 1_565
O126 P14 1.593126 1_565
O127 P15 1.593731 1_565
O128 P16 1.592840 1_555
O129 P17 1.593462 1_555
O130 P13 1.593801 1_455
O131 P12 1.593480 1_555
O132 P0 1.538326 1_555
O133 P1 1.527285 1_555
O134 P2 1.522641 1_555
O135 P3 1.538713 1_555
O136 P4 1.555159 1_555
O137 P5 1.535716 1_555
O138 P6 1.545036 1_555
O139 P7 1.545314 1_555
O140 P8 1.568703 1_455
O141 P9 1.570117 1_555
O142 P10 1.542955 1_555
O143 P11 1.541279 1_555
