# generated using pymatgen
data_LaCoGe
_symmetry_space_group_name_H-M   'P 1'
_cell_length_a   4.32924526
_cell_length_b   4.32924526
_cell_length_c   6.75095899
_cell_angle_alpha   90.00000000
_cell_angle_beta   90.00000000
_cell_angle_gamma   90.00000000
_symmetry_Int_Tables_number   1
_chemical_formula_structural   LaCoGe
_chemical_formula_sum   'La2 Co2 Ge2'
_cell_volume   126.52893426
_cell_formula_units_Z   2
loop_
 _symmetry_equiv_pos_site_id
 _symmetry_equiv_pos_as_xyz
  1  'x, y, z'
loop_
 _atom_site_type_symbol
 _atom_site_label
 _atom_site_symmetry_multiplicity
 _atom_site_fract_x
 _atom_site_fract_y
 _atom_site_fract_z
 _atom_site_occupancy
  La  La0  1  0.25000000  0.25000000  0.30361072  1
  La  La1  1  0.75000000  0.75000000  0.69638928  1
  Co  Co0  1  0.25000000  0.75000000  0.00000000  1
  Co  Co1  1  0.75000000  0.25000000  0.00000000  1
  Ge  Ge0  1  0.25000000  0.25000000  0.82023881  1
  Ge  Ge1  1  0.75000000  0.75000000  0.17976119  1
loop_
_geom_bond_atom_site_label_1
_geom_bond_atom_site_label_2
_geom_bond_distance
_geom_bond_site_symmetry_2
Co0 Ge0 2.481596 1_554
Co0 Ge1 2.481596 1_455
Co0 Ge1 2.481596 1_555
Co0 Ge0 2.481596 1_564
Co0 La0 2.981059 1_555
Co0 La1 2.981059 1_454
Co0 La0 2.981059 1_565
Co0 La1 2.981059 1_554
Co1 Ge1 2.481596 1_545
Co1 Ge0 2.481596 1_654
Co1 Ge0 2.481596 1_554
Co1 Ge1 2.481596 1_555
Co1 La0 2.981059 1_555
Co1 La0 2.981059 1_655
Co1 La1 2.981059 1_544
Co1 La1 2.981059 1_554
Ge0 La1 3.173366 1_445
Ge0 La1 3.173366 1_455
Ge0 La1 3.173366 1_555
Ge0 La1 3.173366 1_545
Ge0 La0 3.487735 1_555
Ge1 La0 3.173366 1_665
Ge1 La0 3.173366 1_555
Ge1 La0 3.173366 1_565
Ge1 La0 3.173366 1_655
Ge1 La1 3.487735 1_555
