# generated using pymatgen
data_MgNbVO4
_symmetry_space_group_name_H-M   'P 1'
_cell_length_a   5.37105939
_cell_length_b   5.36713299
_cell_length_c   5.36682503
_cell_angle_alpha   134.04819052
_cell_angle_beta   134.10835675
_cell_angle_gamma   66.95538380
_symmetry_Int_Tables_number   1
_chemical_formula_structural   MgNbVO4
_chemical_formula_sum   'Mg1 Nb1 V1 O4'
_cell_volume   78.55158261
_cell_formula_units_Z   1
loop_
 _symmetry_equiv_pos_site_id
 _symmetry_equiv_pos_as_xyz
  1  'x, y, z'
loop_
 _atom_site_type_symbol
 _atom_site_label
 _atom_site_symmetry_multiplicity
 _atom_site_fract_x
 _atom_site_fract_y
 _atom_site_fract_z
 _atom_site_occupancy
  Mg  Mg0  1  0.19855100  0.73234700  0.46712600  1
  Nb  Nb0  1  0.94862800  0.98353500  0.96600400  1
  V  V0  1  0.70197500  0.23592900  0.46690000  1
  O  O0  1  0.44598300  0.97955900  0.46723400  1
  O  O1  1  0.18752500  0.22117000  0.96709800  1
  O  O2  1  0.95392200  0.48820600  0.46659500  1
  O  O3  1  0.71222700  0.74616000  0.96690000  1
loop_
_geom_bond_atom_site_label_1
_geom_bond_atom_site_label_2
_geom_bond_distance
_geom_bond_site_symmetry_2
Mg0 O3 2.096199 1_555
Mg0 O1 2.096944 1_565
Mg0 O3 2.097433 1_454
Mg0 O1 2.097697 1_554
Mg0 O2 2.186517 1_455
Mg0 O0 2.214714 1_555
Nb0 O0 2.088115 1_555
Nb0 O2 2.095324 1_566
Nb0 O2 2.095457 1_555
Nb0 O0 2.098754 1_656
Nb0 O3 2.125754 1_555
Nb0 O1 2.129197 1_665
O0 V0 2.296040 1_565
O1 V0 2.096370 1_556
O1 V0 2.098187 1_455
O2 V0 2.259465 1_555
O3 V0 2.096933 1_555
O3 V0 2.097018 1_566
