# generated using pymatgen
data_MgTl4V2O7
_symmetry_space_group_name_H-M   'P 1'
_cell_length_a   6.14448000
_cell_length_b   6.14448020
_cell_length_c   8.58831800
_cell_angle_alpha   90.00000000
_cell_angle_beta   90.00000000
_cell_angle_gamma   119.99999894
_symmetry_Int_Tables_number   1
_chemical_formula_structural   MgTl4V2O7
_chemical_formula_sum   'Mg1 Tl4 V2 O7'
_cell_volume   280.80771582
_cell_formula_units_Z   1
loop_
 _symmetry_equiv_pos_site_id
 _symmetry_equiv_pos_as_xyz
  1  'x, y, z'
loop_
 _atom_site_type_symbol
 _atom_site_label
 _atom_site_symmetry_multiplicity
 _atom_site_fract_x
 _atom_site_fract_y
 _atom_site_fract_z
 _atom_site_occupancy
  Mg  Mg0  1  0.00000000  0.00000000  0.00000000  1
  Tl  Tl0  1  0.66666700  0.33333300  0.92180500  1
  Tl  Tl1  1  0.33333300  0.66666700  0.07819500  1
  Tl  Tl2  1  0.66666700  0.33333300  0.36285500  1
  Tl  Tl3  1  0.33333300  0.66666700  0.63714500  1
  V  V0  1  0.00000000  0.00000000  0.71247300  1
  V  V1  1  0.00000000  0.00000000  0.28752700  1
  O  O0  1  0.85263800  0.14736200  0.17902700  1
  O  O1  1  0.85263800  0.70527700  0.17902700  1
  O  O2  1  0.29472300  0.14736200  0.17902700  1
  O  O3  1  0.70527700  0.85263800  0.82097300  1
  O  O4  1  0.14736200  0.29472300  0.82097300  1
  O  O5  1  0.14736200  0.85263800  0.82097300  1
  O  O6  1  0.00000000  0.00000000  0.50000000  1
loop_
_geom_bond_atom_site_label_1
_geom_bond_atom_site_label_2
_geom_bond_distance
_geom_bond_site_symmetry_2
Mg0 O2 2.196270 1_555
Mg0 O3 2.196270 1_444
Mg0 O4 2.196271 1_554
Mg0 O1 2.196271 1_445
Mg0 O5 2.196274 1_544
Mg0 O0 2.196274 1_455
O0 V1 1.824254 1_655
O0 Tl2 2.531755 1_555
O1 V1 1.824249 1_665
O1 Tl2 2.531763 1_555
O2 V1 1.824249 1_555
O2 Tl2 2.531763 1_555
O3 V0 1.824249 1_665
O3 Tl3 2.531763 1_555
O4 V0 1.824249 1_555
O4 Tl3 2.531763 1_555
O5 V0 1.824254 1_565
O5 Tl3 2.531755 1_555
O6 V0 1.824786 1_555
O6 V1 1.824786 1_555
