# generated using pymatgen
data_NaNd2OsO6
_symmetry_space_group_name_H-M   'P 1'
_cell_length_a   5.94110900
_cell_length_b   5.51831072
_cell_length_c   9.58358444
_cell_angle_alpha   56.05870004
_cell_angle_beta   90.00000000
_cell_angle_gamma   90.00000000
_symmetry_Int_Tables_number   1
_chemical_formula_structural   NaNd2OsO6
_chemical_formula_sum   'Na2 Nd4 Os2 O12'
_cell_volume   260.66075063
_cell_formula_units_Z   2
loop_
 _symmetry_equiv_pos_site_id
 _symmetry_equiv_pos_as_xyz
  1  'x, y, z'
loop_
 _atom_site_type_symbol
 _atom_site_label
 _atom_site_symmetry_multiplicity
 _atom_site_fract_x
 _atom_site_fract_y
 _atom_site_fract_z
 _atom_site_occupancy
  Na  Na0  1  0.50000000  0.00000000  0.50000000  1
  Na  Na1  1  0.00000000  0.00000000  -0.00000000  1
  Nd  Nd0  1  0.07149351  0.77508104  0.74652997  1
  Nd  Nd1  1  0.57149351  0.22491896  0.75347003  1
  Nd  Nd2  1  0.42850649  0.77508104  0.24652997  1
  Nd  Nd3  1  0.92850649  0.22491896  0.25347003  1
  Os  Os0  1  0.50000000  0.50000000  -0.00000000  1
  Os  Os1  1  0.00000000  0.50000000  0.50000000  1
  O  O0  1  0.71854756  0.73449797  0.43157195  1
  O  O1  1  0.21854756  0.26550203  0.06842805  1
  O  O2  1  0.28145244  0.26550203  0.56842805  1
  O  O3  1  0.78145244  0.73449797  0.93157195  1
  O  O4  1  0.04995560  0.61270429  0.26759225  1
  O  O5  1  0.54995560  0.38729571  0.23240775  1
  O  O6  1  0.95004440  0.38729571  0.73240775  1
  O  O7  1  0.45004440  0.61270429  0.76759225  1
  O  O8  1  0.32544327  0.84511108  0.94858572  1
  O  O9  1  0.82544327  0.15488892  0.55141428  1
  O  O10  1  0.67455673  0.15488892  0.05141428  1
  O  O11  1  0.17455673  0.84511108  0.44858572  1
loop_
_geom_bond_atom_site_label_1
_geom_bond_atom_site_label_2
_geom_bond_distance
_geom_bond_site_symmetry_2
Na0 O5 2.260970 1_555
Na0 O7 2.260970 1_545
Na0 O11 2.276408 1_545
Na0 O9 2.276408 1_555
Na0 O2 2.309857 1_555
Na0 O0 2.309857 1_545
Na1 O6 2.260970 1_454
Na1 O4 2.260970 1_545
Na1 O8 2.276408 1_544
Na1 O10 2.276408 1_455
Na1 O3 2.309857 1_444
Na1 O1 2.309857 1_555
Nd0 O6 2.332726 1_455
Nd0 O9 2.376929 1_465
Nd0 O7 2.387409 1_555
Nd0 O3 2.391818 1_455
Nd0 O2 2.575871 1_565
Nd0 O8 2.647831 1_555
Nd0 O11 2.728592 1_555
Nd0 O1 2.915549 1_556
Nd1 O7 2.332726 1_555
Nd1 O8 2.376929 1_545
Nd1 O6 2.387409 1_555
Nd1 O2 2.391818 1_555
Nd1 O3 2.575871 1_545
Nd1 O9 2.647831 1_555
Nd1 O10 2.728592 1_556
Nd1 O0 2.915549 1_555
Nd2 O5 2.332726 1_555
Nd2 O10 2.376929 1_565
Nd2 O4 2.387409 1_555
Nd2 O0 2.391818 1_555
Nd2 O1 2.575871 1_565
Nd2 O11 2.647831 1_555
Nd2 O8 2.728592 1_554
Nd2 O2 2.915549 1_555
Nd3 O4 2.332726 1_655
Nd3 O11 2.376929 1_645
Nd3 O5 2.387409 1_555
Nd3 O1 2.391818 1_655
Nd3 O0 2.575871 1_545
Nd3 O10 2.647831 1_555
Nd3 O9 2.728592 1_555
Nd3 O3 2.915549 1_554
O0 Os1 1.988215 1_655
O1 Os0 1.988215 1_555
O2 Os1 1.988215 1_555
O3 Os0 1.988215 1_556
O4 Os1 1.972023 1_555
O5 Os0 1.972023 1_555
O6 Os1 1.972023 1_655
O7 Os0 1.972023 1_556
O8 Os0 1.974149 1_556
O9 Os1 1.974149 1_655
O10 Os0 1.974149 1_555
O11 Os1 1.974149 1_555
