# generated using pymatgen
data_B2Mo2Ir
_symmetry_space_group_name_H-M   'P 1'
_cell_length_a   3.25741500
_cell_length_b   7.41216100
_cell_length_c   9.45572300
_cell_angle_alpha   90.00000000
_cell_angle_beta   90.00000000
_cell_angle_gamma   90.00000000
_symmetry_Int_Tables_number   1
_chemical_formula_structural   B2Mo2Ir
_chemical_formula_sum   'B8 Mo8 Ir4'
_cell_volume   228.30355669
_cell_formula_units_Z   4
loop_
 _symmetry_equiv_pos_site_id
 _symmetry_equiv_pos_as_xyz
  1  'x, y, z'
loop_
 _atom_site_type_symbol
 _atom_site_label
 _atom_site_symmetry_multiplicity
 _atom_site_fract_x
 _atom_site_fract_y
 _atom_site_fract_z
 _atom_site_occupancy
  B  B0  1  0.50000000  0.12456000  0.26294800  1
  B  B1  1  0.00000000  0.61623800  0.04025400  1
  B  B2  1  0.00000000  0.38376200  0.95974600  1
  B  B3  1  0.00000000  0.37544000  0.76294800  1
  B  B4  1  0.50000000  0.11623800  0.45974600  1
  B  B5  1  0.00000000  0.62456000  0.23705200  1
  B  B6  1  0.50000000  0.87544000  0.73705200  1
  B  B7  1  0.50000000  0.88376200  0.54025400  1
  Mo  Mo0  1  0.50000000  0.42785900  0.13797800  1
  Mo  Mo1  1  0.00000000  0.07214100  0.63797800  1
  Mo  Mo2  1  0.00000000  0.68999200  0.63050000  1
  Mo  Mo3  1  0.50000000  0.81000800  0.13050000  1
  Mo  Mo4  1  0.50000000  0.18999200  0.86950000  1
  Mo  Mo5  1  0.00000000  0.31000800  0.36950000  1
  Mo  Mo6  1  0.50000000  0.57214100  0.86202200  1
  Mo  Mo7  1  0.00000000  0.92785900  0.36202200  1
  Ir  Ir0  1  0.50000000  0.62081000  0.38883400  1
  Ir  Ir1  1  0.00000000  0.12081000  0.11116600  1
  Ir  Ir2  1  0.00000000  0.87919000  0.88883400  1
  Ir  Ir3  1  0.50000000  0.37919000  0.61116600  1
loop_
_geom_bond_atom_site_label_1
_geom_bond_atom_site_label_2
_geom_bond_distance
_geom_bond_site_symmetry_2
B0 B4 1.861889 1_555
B0 Ir1 2.171010 1_555
B0 Ir1 2.171010 1_655
B0 Mo5 2.357380 1_655
B0 Mo5 2.357380 1_555
B0 Mo7 2.378238 1_545
B0 Mo7 2.378238 1_645
B0 Mo0 2.539750 1_555
B0 Mo3 2.646587 1_545
B1 B5 1.861889 1_555
B1 B2 1.883816 1_554
B1 Mo3 2.333175 1_555
B1 Mo3 2.333175 1_455
B1 Mo0 2.335851 1_455
B1 Mo0 2.335851 1_555
B1 Mo6 2.366390 1_454
B1 Mo6 2.366390 1_554
B1 Ir2 2.418424 1_554
B2 B3 1.861889 1_555
B2 Mo4 2.333175 1_555
B2 Mo4 2.333175 1_455
B2 Mo6 2.335851 1_555
B2 Mo6 2.335851 1_455
B2 Mo0 2.366390 1_456
B2 Mo0 2.366390 1_556
B2 Ir1 2.418424 1_556
B3 Ir3 2.171010 1_455
B3 Ir3 2.171010 1_555
B3 Mo4 2.357380 1_555
B3 Mo4 2.357380 1_455
B3 Mo6 2.378238 1_555
B3 Mo6 2.378238 1_455
B3 Mo1 2.539750 1_555
B3 Mo2 2.646587 1_555
B4 B7 1.883816 1_545
B4 Mo5 2.333175 1_655
B4 Mo5 2.333175 1_555
B4 Mo7 2.335851 1_545
B4 Mo7 2.335851 1_645
B4 Mo1 2.366390 1_655
B4 Mo1 2.366390 1_555
B4 Ir3 2.418424 1_555
B5 Ir0 2.171010 1_455
B5 Ir0 2.171010 1_555
B5 Mo3 2.357380 1_555
B5 Mo3 2.357380 1_455
B5 Mo0 2.378238 1_455
B5 Mo0 2.378238 1_555
B5 Mo7 2.539750 1_555
B5 Mo5 2.646587 1_555
B6 B7 1.861889 1_555
B6 Ir2 2.171010 1_655
B6 Ir2 2.171010 1_555
B6 Mo2 2.357380 1_655
B6 Mo2 2.357380 1_555
B6 Mo1 2.378238 1_665
B6 Mo1 2.378238 1_565
B6 Mo6 2.539750 1_555
B6 Mo4 2.646587 1_565
B7 Mo2 2.333175 1_655
B7 Mo2 2.333175 1_555
B7 Mo1 2.335851 1_565
B7 Mo1 2.335851 1_665
B7 Mo7 2.366390 1_655
B7 Mo7 2.366390 1_555
B7 Ir0 2.418424 1_555
