# generated using pymatgen
data_MgFe6O11F
_symmetry_space_group_name_H-M   'P 1'
_cell_length_a   4.85946056
_cell_length_b   7.45549383
_cell_length_c   5.51926505
_cell_angle_alpha   95.12245838
_cell_angle_beta   91.52087611
_cell_angle_gamma   88.62284776
_symmetry_Int_Tables_number   1
_chemical_formula_structural   MgFe6O11F
_chemical_formula_sum   'Mg1 Fe6 O11 F1'
_cell_volume   199.04528699
_cell_formula_units_Z   1
loop_
 _symmetry_equiv_pos_site_id
 _symmetry_equiv_pos_as_xyz
  1  'x, y, z'
loop_
 _atom_site_type_symbol
 _atom_site_label
 _atom_site_symmetry_multiplicity
 _atom_site_fract_x
 _atom_site_fract_y
 _atom_site_fract_z
 _atom_site_occupancy
  Mg  Mg0  1  0.00314600  0.83822300  0.33570300  1
  Fe  Fe0  1  0.52907100  0.65653700  0.15735000  1
  Fe  Fe1  1  0.49308800  0.00904700  0.48817200  1
  Fe  Fe2  1  0.49373900  0.32852900  0.83219800  1
  Fe  Fe3  1  0.98723200  0.63686100  0.72332800  1
  Fe  Fe4  1  0.98950400  0.31773600  0.33026400  1
  Fe  Fe5  1  0.00195100  0.02176900  0.93982600  1
  O  O0  1  0.81113200  0.41264100  0.62435400  1
  O  O1  1  0.84161500  0.76998400  0.00279900  1
  O  O2  1  0.83185000  0.09278600  0.28893100  1
  O  O3  1  0.66298200  0.09618600  0.78379300  1
  O  O4  1  0.67159000  0.75464700  0.47743000  1
  O  O5  1  0.70933400  0.42177900  0.13523000  1
  O  O6  1  0.33023700  0.56170700  0.87330600  1
  O  O7  1  0.28750900  0.23593700  0.52091200  1
  O  O8  1  0.34030000  0.89948900  0.18484100  1
  O  O9  1  0.18608500  0.24118400  0.03479100  1
  O  O10  1  0.16532100  0.88618600  0.66582300  1
  F  F0  1  0.16431600  0.56877300  0.36285400  1
loop_
_geom_bond_atom_site_label_1
_geom_bond_atom_site_label_2
_geom_bond_distance
_geom_bond_site_symmetry_2
Mg0 O8 1.939730 1_555
Mg0 O4 1.948907 1_455
Mg0 O10 1.972227 1_555
Mg0 O1 2.006660 1_455
Mg0 O2 2.088464 1_465
Fe0 O6 1.909367 1_554
Fe0 O5 1.933753 1_555
Fe0 O4 1.965765 1_555
Fe0 O1 2.002273 1_555
Fe0 O8 2.005956 1_555
Fe1 O3 1.879046 1_555
Fe1 O8 1.933970 1_545
Fe1 O7 1.940583 1_555
Fe1 O4 2.063224 1_545
Fe1 O2 2.139415 1_555
Fe1 O10 2.156559 1_545
Fe2 O6 1.891490 1_555
Fe2 O3 1.899721 1_555
Fe2 O5 2.027961 1_556
Fe2 O7 2.040273 1_555
Fe2 O9 2.043290 1_556
Fe2 O0 2.087327 1_555
Fe3 O1 1.901529 1_556
Fe3 O0 1.925118 1_555
Fe3 O6 1.934457 1_655
Fe3 O10 2.121844 1_655
Fe3 O4 2.236817 1_555
Fe4 O2 1.853603 1_555
Fe4 O7 1.888781 1_655
Fe4 O5 1.906460 1_555
Fe4 O0 1.930477 1_555
Fe4 O9 1.946295 1_655
Fe5 O9 1.908854 1_556
Fe5 O10 1.921268 1_545
Fe5 O3 1.931022 1_455
Fe5 O1 2.110181 1_446
Fe5 O2 2.134831 1_456
Fe5 O8 2.322345 1_546
F0 Fe4 2.065210 1_455
F0 Mg0 2.154847 1_555
F0 Fe3 2.201376 1_455
F0 Fe0 2.269673 1_555
