# generated using pymatgen
data_Pr(FeGe)2
_symmetry_space_group_name_H-M   'P 1'
_cell_length_a   4.03118305
_cell_length_b   4.03118309
_cell_length_c   6.17083790
_cell_angle_alpha   109.06446374
_cell_angle_beta   109.06448021
_cell_angle_gamma   90.00000189
_symmetry_Int_Tables_number   1
_chemical_formula_structural   Pr(FeGe)2
_chemical_formula_sum   'Pr1 Fe2 Ge2'
_cell_volume   88.93906492
_cell_formula_units_Z   1
loop_
 _symmetry_equiv_pos_site_id
 _symmetry_equiv_pos_as_xyz
  1  'x, y, z'
loop_
 _atom_site_type_symbol
 _atom_site_label
 _atom_site_symmetry_multiplicity
 _atom_site_fract_x
 _atom_site_fract_y
 _atom_site_fract_z
 _atom_site_occupancy
  Pr  Pr0  1  0.00000000  0.00000000  0.00000000  1
  Fe  Fe0  1  0.75000000  0.25000000  0.50000000  1
  Fe  Fe1  1  0.25000000  0.75000000  0.50000000  1
  Ge  Ge0  1  0.61906163  0.61906163  0.23812327  1
  Ge  Ge1  1  0.38093837  0.38093837  0.76187673  1
loop_
_geom_bond_atom_site_label_1
_geom_bond_atom_site_label_2
_geom_bond_distance
_geom_bond_site_symmetry_2
Fe0 Ge1 2.473224 1_655
Fe0 Ge0 2.473224 1_545
Fe0 Ge0 2.473224 1_555
Fe0 Ge1 2.473225 1_555
Fe0 Pr0 3.398692 1_555
Fe0 Pr0 3.398693 1_666
Fe0 Pr0 3.398693 1_656
Fe0 Pr0 3.398693 1_655
Fe1 Ge0 2.473224 1_455
Fe1 Ge1 2.473224 1_565
Fe1 Ge1 2.473224 1_555
Fe1 Ge0 2.473225 1_555
Fe1 Pr0 3.398692 1_666
Fe1 Pr0 3.398693 1_555
Fe1 Pr0 3.398693 1_565
Fe1 Pr0 3.398693 1_566
Ge0 Ge1 2.606510 1_554
Ge0 Pr0 3.134277 1_555
Ge0 Pr0 3.134277 1_565
Ge0 Pr0 3.134277 1_665
Ge0 Pr0 3.134277 1_655
Ge1 Pr0 3.134277 1_666
Ge1 Pr0 3.134277 1_656
Ge1 Pr0 3.134277 1_556
Ge1 Pr0 3.134277 1_566
