# generated using pymatgen
data_Sr4Mg(Co2O5)2
_symmetry_space_group_name_H-M   'P 1'
_cell_length_a   5.82827241
_cell_length_b   5.87487162
_cell_length_c   10.28976860
_cell_angle_alpha   115.93627125
_cell_angle_beta   115.79922246
_cell_angle_gamma   78.80154306
_symmetry_Int_Tables_number   1
_chemical_formula_structural   Sr4Mg(Co2O5)2
_chemical_formula_sum   'Sr4 Mg1 Co4 O10'
_cell_volume   285.25516525
_cell_formula_units_Z   1
loop_
 _symmetry_equiv_pos_site_id
 _symmetry_equiv_pos_as_xyz
  1  'x, y, z'
loop_
 _atom_site_type_symbol
 _atom_site_label
 _atom_site_symmetry_multiplicity
 _atom_site_fract_x
 _atom_site_fract_y
 _atom_site_fract_z
 _atom_site_occupancy
  Sr  Sr0  1  0.57879057  0.08805051  0.17326463  1
  Sr  Sr1  1  0.88882433  0.41890745  0.76261086  1
  Sr  Sr2  1  0.15969862  0.68599382  0.16631410  1
  Sr  Sr3  1  0.32967225  0.82062402  0.77075113  1
  Mg  Mg0  1  0.95573172  0.47585030  0.32127710  1
  Co  Co0  1  0.74700479  0.82036378  0.51602299  1
  Co  Co1  1  0.96366919  0.02784700  0.96013484  1
  Co  Co2  1  0.25356061  0.11712683  0.51983236  1
  Co  Co3  1  0.49000954  0.44368945  0.96205408  1
  O  O0  1  0.60563368  0.55889218  0.32654322  1
  O  O1  1  0.32185639  0.34527650  0.72160183  1
  O  O2  1  0.57313158  0.11776466  0.50191467  1
  O  O3  1  0.85059631  0.82920870  0.71033314  1
  O  O4  1  0.84367800  0.36931398  0.09030725  1
  O  O5  1  0.24625955  0.24372967  0.96388965  1
  O  O6  1  0.04644451  0.14721358  0.33567110  1
  O  O7  1  0.75918913  0.80113627  0.96529802  1
  O  O8  1  0.09916540  0.80897360  0.48971134  1
  O  O9  1  0.27358482  0.76098871  0.99246969  1
loop_
_geom_bond_atom_site_label_1
_geom_bond_atom_site_label_2
_geom_bond_distance
_geom_bond_site_symmetry_2
Mg0 O6 1.953089 1_655
Mg0 O8 1.984951 1_655
Mg0 O4 1.993278 1_555
Mg0 O0 2.022600 1_555
Co0 O3 1.798721 1_555
Co0 O0 1.820259 1_555
Co0 O2 1.872644 1_565
Co0 O8 2.169098 1_655
Co1 O7 1.982580 1_545
Co1 O4 2.056092 1_556
Co1 O3 2.145570 1_545
Co1 O9 2.159732 1_645
Co1 O5 2.244056 1_655
Co2 O6 1.816135 1_555
Co2 O1 1.821839 1_555
Co2 O2 1.950719 1_555
Co2 O8 2.020491 1_545
Co3 O4 1.992019 1_556
Co3 O9 2.020861 1_555
Co3 O5 2.022269 1_555
Co3 O1 2.067494 1_555
O0 Sr0 2.510093 1_555
O0 Sr2 2.573717 1_555
O1 Sr3 2.617333 1_555
O1 Sr1 2.660485 1_455
O2 Sr1 2.554998 1_555
O3 Sr3 2.578198 1_655
O3 Sr1 2.640202 1_555
O4 Sr2 2.503938 1_655
O5 Sr3 2.532785 1_545
O5 Sr0 2.575816 1_556
O5 Sr1 2.639063 1_455
O5 Sr2 2.648661 1_556
O6 Sr0 2.497522 1_455
O6 Sr2 2.643973 1_545
O7 Sr3 2.452415 1_555
O7 Sr1 2.564956 1_555
O7 Sr2 2.567619 1_656
O7 Sr0 2.576976 1_566
O8 Sr3 2.579369 1_555
O9 Sr0 2.374306 1_566
O9 Sr2 2.381402 1_556
O9 Sr3 2.612922 1_555
O9 Sr1 2.763614 1_455
