# generated using pymatgen
data_ErSiIr
_symmetry_space_group_name_H-M   'P 1'
_cell_length_a   4.19446690
_cell_length_b   6.77830445
_cell_length_c   7.37413218
_cell_angle_alpha   90.00000000
_cell_angle_beta   90.00000000
_cell_angle_gamma   90.00000000
_symmetry_Int_Tables_number   1
_chemical_formula_structural   ErSiIr
_chemical_formula_sum   'Er4 Si4 Ir4'
_cell_volume   209.65670738
_cell_formula_units_Z   4
loop_
 _symmetry_equiv_pos_site_id
 _symmetry_equiv_pos_as_xyz
  1  'x, y, z'
loop_
 _atom_site_type_symbol
 _atom_site_label
 _atom_site_symmetry_multiplicity
 _atom_site_fract_x
 _atom_site_fract_y
 _atom_site_fract_z
 _atom_site_occupancy
  Er  Er0  1  0.75000000  0.50125234  0.18768626  1
  Er  Er1  1  0.25000000  0.99874766  0.68768626  1
  Er  Er2  1  0.75000000  0.00125234  0.31231374  1
  Er  Er3  1  0.25000000  0.49874766  0.81231374  1
  Si  Si0  1  0.25000000  0.70220633  0.38871927  1
  Si  Si1  1  0.25000000  0.20220633  0.11128073  1
  Si  Si2  1  0.75000000  0.29779367  0.61128073  1
  Si  Si3  1  0.75000000  0.79779367  0.88871927  1
  Ir  Ir0  1  0.25000000  0.84302590  0.06592670  1
  Ir  Ir1  1  0.25000000  0.34302590  0.43407330  1
  Ir  Ir2  1  0.75000000  0.65697410  0.56592670  1
  Ir  Ir3  1  0.75000000  0.15697410  0.93407330  1
loop_
_geom_bond_atom_site_label_1
_geom_bond_atom_site_label_2
_geom_bond_distance
_geom_bond_site_symmetry_2
Er0 Si0 2.907132 1_655
Er0 Si0 2.907132 1_555
Er0 Si1 2.970634 1_555
Er0 Si1 2.970634 1_655
Er0 Ir1 2.974853 1_555
Er0 Ir1 2.974853 1_655
Er0 Ir2 2.982239 1_555
Er0 Si3 2.983396 1_554
Er0 Ir3 2.990544 1_554
Er0 Ir0 3.251370 1_555
Er0 Ir0 3.251370 1_655
Er1 Si3 2.907132 1_455
Er1 Si3 2.907132 1_555
Er1 Si2 2.970634 1_565
Er1 Si2 2.970634 1_465
Er1 Ir3 2.974853 1_565
Er1 Ir3 2.974853 1_465
Er1 Ir0 2.982239 1_556
Er1 Si0 2.983396 1_555
Er1 Ir1 2.990544 1_565
Er1 Ir2 3.251370 1_555
Er1 Ir2 3.251370 1_455
Er2 Si1 2.907132 1_655
Er2 Si1 2.907132 1_555
Er2 Si0 2.970634 1_645
Er2 Si0 2.970634 1_545
Er2 Ir0 2.974853 1_545
Er2 Ir0 2.974853 1_645
Er2 Ir3 2.982239 1_554
Er2 Si2 2.983396 1_555
Er2 Ir2 2.990544 1_545
Er2 Ir1 3.251370 1_555
Er2 Ir1 3.251370 1_655
Er3 Si2 2.907132 1_555
Er3 Si2 2.907132 1_455
Er3 Si3 2.970634 1_455
Er3 Si3 2.970634 1_555
Er3 Ir2 2.974853 1_455
Er3 Ir2 2.974853 1_555
Er3 Ir1 2.982239 1_555
Er3 Si1 2.983396 1_556
Er3 Ir0 2.990544 1_556
Er3 Ir3 3.251370 1_555
Er3 Ir3 3.251370 1_455
Ir0 Si1 2.457498 1_565
Ir0 Si3 2.489978 1_554
Ir0 Si3 2.489978 1_454
Ir0 Si0 2.564567 1_555
Ir1 Si0 2.457498 1_555
Ir1 Si2 2.489978 1_555
Ir1 Si2 2.489978 1_455
Ir1 Si1 2.564567 1_555
Ir2 Si2 2.457498 1_555
Ir2 Si0 2.489978 1_655
Ir2 Si0 2.489978 1_555
Ir2 Si3 2.564567 1_555
Ir3 Si3 2.457498 1_545
Ir3 Si1 2.489978 1_556
Ir3 Si1 2.489978 1_656
Ir3 Si2 2.564567 1_555
