# generated using pymatgen
data_CrO
_symmetry_space_group_name_H-M   'P 1'
_cell_length_a   3.03820885
_cell_length_b   6.62765174
_cell_length_c   6.20928013
_cell_angle_alpha   61.07174651
_cell_angle_beta   90.08603129
_cell_angle_gamma   116.91116760
_symmetry_Int_Tables_number   1
_chemical_formula_structural   CrO
_chemical_formula_sum   'Cr4 O4'
_cell_volume   93.71685927
_cell_formula_units_Z   4
loop_
 _symmetry_equiv_pos_site_id
 _symmetry_equiv_pos_as_xyz
  1  'x, y, z'
loop_
 _atom_site_type_symbol
 _atom_site_label
 _atom_site_symmetry_multiplicity
 _atom_site_fract_x
 _atom_site_fract_y
 _atom_site_fract_z
 _atom_site_occupancy
  Cr  Cr0  1  0.60021021  0.50016772  0.89996695  1
  Cr  Cr1  1  0.09989101  0.49995264  0.40000598  1
  Cr  Cr2  1  0.09995542  0.99993754  0.90009009  1
  Cr  Cr3  1  0.59993174  0.00000292  0.39999156  1
  O  O0  1  -0.00231945  0.39550764  0.14490567  1
  O  O1  1  0.49761542  0.89544439  0.14497856  1
  O  O2  1  0.70227844  0.10452045  0.65506637  1
  O  O3  1  0.20233721  0.60457069  0.65499580  1
loop_
_geom_bond_atom_site_label_1
_geom_bond_atom_site_label_2
_geom_bond_distance
_geom_bond_site_symmetry_2
Cr0 O3 1.995856 1_655
Cr0 O0 1.995923 1_556
Cr0 O0 1.996170 1_656
Cr0 O3 1.996790 1_555
Cr1 O0 1.987292 1_555
Cr1 O3 1.987389 1_555
Cr1 O2 1.990096 1_455
Cr1 O1 1.990327 1_555
Cr2 O1 1.995782 1_456
Cr2 O2 1.995983 1_565
Cr2 O1 1.996144 1_556
Cr2 O2 1.996831 1_465
Cr3 O1 1.987267 1_545
Cr3 O2 1.987457 1_555
Cr3 O3 1.990040 1_545
Cr3 O0 1.990442 1_655
