# generated using pymatgen
data_MgCo5NiO12
_symmetry_space_group_name_H-M   'P 1'
_cell_length_a   4.87562293
_cell_length_b   4.88668329
_cell_length_c   9.99477807
_cell_angle_alpha   90.58094971
_cell_angle_beta   89.91092124
_cell_angle_gamma   60.02082834
_symmetry_Int_Tables_number   1
_chemical_formula_structural   MgCo5NiO12
_chemical_formula_sum   'Mg1 Co5 Ni1 O12'
_cell_volume   206.25485891
_cell_formula_units_Z   1
loop_
 _symmetry_equiv_pos_site_id
 _symmetry_equiv_pos_as_xyz
  1  'x, y, z'
loop_
 _atom_site_type_symbol
 _atom_site_label
 _atom_site_symmetry_multiplicity
 _atom_site_fract_x
 _atom_site_fract_y
 _atom_site_fract_z
 _atom_site_occupancy
  Mg  Mg0  1  0.49293400  0.83613800  0.75014200  1
  Co  Co0  1  0.16675100  0.66699800  0.49711000  1
  Co  Co1  1  0.67008000  0.66262200  0.00850700  1
  Co  Co2  1  0.33310100  0.33279400  0.00397400  1
  Co  Co3  1  0.83271200  0.33403300  0.49690800  1
  Co  Co4  1  0.49994500  0.00343200  0.49170600  1
  Ni  Ni0  1  0.00071800  0.99919300  0.00033600  1
  O  O0  1  0.00811200  0.66755000  0.09710600  1
  O  O1  1  0.33848800  0.66923300  0.90206000  1
  O  O2  1  0.16108100  0.33966500  0.40261300  1
  O  O3  1  0.50109700  0.65802200  0.40263200  1
  O  O4  1  0.49825200  0.33867400  0.59584800  1
  O  O5  1  0.17363700  0.99818700  0.59845300  1
  O  O6  1  0.82181600  0.67308500  0.59871600  1
  O  O7  1  0.66798900  0.32583900  0.09716700  1
  O  O8  1  0.32311300  0.00877100  0.09730700  1
  O  O9  1  0.00517900  0.32655700  0.90443300  1
  O  O10  1  0.66298800  0.99356100  0.90237600  1
  O  O11  1  0.84201000  0.99898000  0.40260700  1
loop_
_geom_bond_atom_site_label_1
_geom_bond_atom_site_label_2
_geom_bond_distance
_geom_bond_site_symmetry_2
Mg0 O5 2.036873 1_555
Mg0 O1 2.042818 1_555
Mg0 O6 2.046421 1_555
Mg0 O10 2.052299 1_555
Co0 O2 1.861470 1_555
Co0 O3 1.863837 1_555
Co0 O11 1.870723 1_455
Co0 O4 1.898925 1_555
Co0 O5 1.915080 1_555
Co0 O6 1.950546 1_455
Co1 O7 1.881530 1_555
Co1 O0 1.882763 1_655
Co1 O8 1.901558 1_565
Co1 O1 1.923690 1_554
Co1 O10 1.928920 1_554
Co1 O9 1.930536 1_654
Co2 O0 1.851294 1_555
Co2 O7 1.866722 1_555
Co2 O8 1.867240 1_555
Co2 O9 1.897368 1_554
Co2 O10 1.913720 1_544
Co2 O1 1.954035 1_554
Co3 O11 1.861595 1_545
Co3 O3 1.866926 1_555
Co3 O2 1.868707 1_655
Co3 O4 1.896091 1_555
Co3 O6 1.913380 1_555
Co3 O5 1.949164 1_645
Co4 O11 1.879821 1_545
Co4 O2 1.882443 1_555
Co4 O3 1.897813 1_545
Co4 O5 1.925130 1_545
Co4 O4 1.928508 1_555
Co4 O6 1.929022 1_545
Ni0 O8 1.868070 1_565
Ni0 O7 1.868749 1_465
Ni0 O0 1.880619 1_555
Ni0 O9 1.882597 1_564
Ni0 O1 1.893647 1_554
Ni0 O10 1.928877 1_454
