# generated using pymatgen
data_ZnP2
_symmetry_space_group_name_H-M   'P 1'
_cell_length_a   5.03440482
_cell_length_b   5.03440484
_cell_length_c   18.36768799
_cell_angle_alpha   90.00010726
_cell_angle_beta   90.00000678
_cell_angle_gamma   89.99999954
_symmetry_Int_Tables_number   1
_chemical_formula_structural   ZnP2
_chemical_formula_sum   'Zn8 P16'
_cell_volume   465.53331327
_cell_formula_units_Z   8
loop_
 _symmetry_equiv_pos_site_id
 _symmetry_equiv_pos_as_xyz
  1  'x, y, z'
loop_
 _atom_site_type_symbol
 _atom_site_label
 _atom_site_symmetry_multiplicity
 _atom_site_fract_x
 _atom_site_fract_y
 _atom_site_fract_z
 _atom_site_occupancy
  Zn  Zn0  1  0.15509967  0.63689257  0.05088917  1
  Zn  Zn1  1  0.86310708  0.65509998  0.30088933  1
  Zn  Zn2  1  0.13689233  0.34490074  0.80088904  1
  Zn  Zn3  1  0.65509963  0.86310743  0.69911083  1
  Zn  Zn4  1  0.34490034  0.13689270  0.19911078  1
  Zn  Zn5  1  0.84490041  0.36310732  0.55088923  1
  Zn  Zn6  1  0.63689221  0.15509922  0.94911093  1
  Zn  Zn7  1  0.36310684  0.84489997  0.44911067  1
  P  P0  1  0.81961185  0.30240737  0.05899978  1
  P  P1  1  0.19759141  0.31961268  0.30899968  1
  P  P2  1  0.80240640  0.68038988  0.80899972  1
  P  P3  1  0.31961187  0.19759263  0.69100021  1
  P  P4  1  0.68038918  0.80240760  0.19100041  1
  P  P5  1  0.18038914  0.69759244  0.55899959  1
  P  P6  1  0.30240634  0.81961007  0.94100029  1
  P  P7  1  0.69759141  0.18038734  0.44100032  1
  P  P8  1  0.99103880  0.98109453  0.12594806  1
  P  P9  1  0.51890524  0.49103908  0.37594801  1
  P  P10  1  0.48109590  0.50896227  0.87594816  1
  P  P11  1  0.49103884  0.51890547  0.62405193  1
  P  P12  1  0.50896206  0.48109610  0.12405190  1
  P  P13  1  0.00896203  0.01890389  0.62594811  1
  P  P14  1  0.98109583  0.99103773  0.87405185  1
  P  P15  1  0.01890518  0.00896099  0.37405199  1
loop_
_geom_bond_atom_site_label_1
_geom_bond_atom_site_label_2
_geom_bond_distance
_geom_bond_site_symmetry_2
P0 P12 2.163988 1_555
P0 P8 2.207634 1_545
P0 Zn6 2.338829 1_554
P0 Zn0 2.389662 1_655
P1 P15 2.163994 1_555
P1 P9 2.207635 1_555
P1 Zn4 2.338831 1_555
P1 Zn1 2.389657 1_455
P2 Zn3 2.338826 1_555
P2 Zn2 2.389669 1_655
P3 Zn2 2.338828 1_555
P3 Zn3 2.389662 1_545
P4 P8 2.163988 1_555
P4 Zn1 2.338828 1_555
P4 Zn4 2.389665 1_565
P5 Zn7 2.338828 1_555
P5 Zn5 2.389665 1_455
P6 Zn0 2.338826 1_556
P6 Zn6 2.389669 1_565
P7 P9 2.163994 1_555
P7 Zn5 2.338832 1_555
P7 Zn7 2.389658 1_545
P8 Zn0 2.363400 1_655
P8 Zn4 2.365325 1_665
P9 Zn1 2.363400 1_555
P9 Zn7 2.365321 1_555
P10 P6 2.163982 1_555
P10 P2 2.207628 1_555
P10 Zn2 2.363410 1_555
P10 Zn6 2.365330 1_555
P11 P5 2.163988 1_555
P11 P3 2.207634 1_555
P11 Zn3 2.363399 1_555
P11 Zn5 2.365325 1_555
P12 P4 2.207629 1_555
P12 Zn4 2.363410 1_555
P12 Zn0 2.365327 1_555
P13 P3 2.163988 1_555
P13 P5 2.207629 1_545
P13 Zn5 2.363410 1_455
P13 Zn3 2.365327 1_445
P14 P2 2.163981 1_555
P14 P6 2.207628 1_655
P14 Zn6 2.363410 1_565
P14 Zn2 2.365331 1_665
P15 P7 2.207635 1_455
P15 Zn7 2.363399 1_545
P15 Zn1 2.365321 1_445
