# generated using pymatgen
data_Na14Sc4Ta4Si11SO48
_symmetry_space_group_name_H-M   'P 1'
_cell_length_a   18.30980891
_cell_length_b   9.13888552
_cell_length_c   22.38564803
_cell_angle_alpha   89.91707064
_cell_angle_beta   89.99270182
_cell_angle_gamma   120.00732246
_symmetry_Int_Tables_number   1
_chemical_formula_structural   Na14Sc4Ta4Si11SO48
_chemical_formula_sum   'Na42 Sc12 Ta12 Si33 S3 O144'
_cell_volume   3243.72955223
_cell_formula_units_Z   3
loop_
 _symmetry_equiv_pos_site_id
 _symmetry_equiv_pos_as_xyz
  1  'x, y, z'
loop_
 _atom_site_type_symbol
 _atom_site_label
 _atom_site_symmetry_multiplicity
 _atom_site_fract_x
 _atom_site_fract_y
 _atom_site_fract_z
 _atom_site_occupancy
  Na  Na0  1  0.32563614  0.99973387  0.24983208  1
  Na  Na1  1  0.82644855  0.00032842  0.24975567  1
  Na  Na2  1  0.32176546  0.63263829  0.74820874  1
  Na  Na3  1  0.82599386  0.65076234  0.74864196  1
  Na  Na4  1  0.49234633  0.35958809  0.74763634  1
  Na  Na5  1  0.68003000  0.00505673  0.75188271  1
  Na  Na6  1  0.15001813  0.32226778  0.58378682  1
  Na  Na7  1  0.65366064  0.32895209  0.58101464  1
  Na  Na8  1  0.01506685  0.70812008  0.58547647  1
  Na  Na9  1  0.50842229  0.68498086  0.58268510  1
  Na  Na10  1  0.33151609  0.98306129  0.58274393  1
  Na  Na11  1  0.84166524  0.97468251  0.58635185  1
  Na  Na12  1  0.14424527  0.95303971  0.08034960  1
  Na  Na13  1  0.64406187  0.95307892  0.08011911  1
  Na  Na14  1  0.33228022  0.71341436  0.08344999  1
  Na  Na15  1  0.83239168  0.71340923  0.08404977  1
  Na  Na16  1  0.02509857  0.33640897  0.08339456  1
  Na  Na17  1  0.52471508  0.33575797  0.08347718  1
  Na  Na18  1  0.48531181  0.68206210  0.91389860  1
  Na  Na19  1  0.98734188  0.67979630  0.91408529  1
  Na  Na20  1  0.35504321  0.02707556  0.91435925  1
  Na  Na21  1  0.85415419  0.02859350  0.91433581  1
  Na  Na22  1  0.15998770  0.29691546  0.91804744  1
  Na  Na23  1  0.65872623  0.28982623  0.91485401  1
  Na  Na24  1  0.47521708  0.28681977  0.41574138  1
  Na  Na25  1  0.97669821  0.28788204  0.41632469  1
  Na  Na26  1  0.16755014  0.04659003  0.42099348  1
  Na  Na27  1  0.66759318  0.04651680  0.41888138  1
  Na  Na28  1  0.35604035  0.66349734  0.41636197  1
  Na  Na29  1  0.85727041  0.66435335  0.41609365  1
  Na  Na30  1  0.00216156  0.00084333  0.49983548  1
  Na  Na31  1  0.49899662  0.99847887  0.49370556  1
  Na  Na32  1  0.00081368  0.00227725  0.00070232  1
  Na  Na33  1  0.49991625  0.99975239  0.99963385  1
  Na  Na34  1  0.33219365  0.32201550  0.82757033  1
  Na  Na35  1  0.84088757  0.33526967  0.83190220  1
  Na  Na36  1  0.33811981  0.34996414  0.33709215  1
  Na  Na37  1  0.83896450  0.35128097  0.33649190  1
  Na  Na38  1  0.16332341  0.64959253  0.16321124  1
  Na  Na39  1  0.66329093  0.64940902  0.16311650  1
  Na  Na40  1  0.16238807  0.67758060  0.66879024  1
  Na  Na41  1  0.66700459  0.66702453  0.66690914  1
  Sc  Sc0  1  0.99331680  0.99506802  0.35340947  1
  Sc  Sc1  1  0.49280786  0.99444672  0.35261822  1
  Sc  Sc2  1  0.99445425  0.99199719  0.85138529  1
  Sc  Sc3  1  0.50032862  0.00115013  0.85216165  1
  Sc  Sc4  1  0.99764809  0.98938123  0.64836072  1
  Sc  Sc5  1  0.99569854  0.00539907  0.14624467  1
  Sc  Sc6  1  0.49546821  0.00519572  0.14598748  1
  Sc  Sc7  1  0.33348880  0.32518426  0.68126832  1
  Sc  Sc8  1  0.33458619  0.33397756  0.48064453  1
  Sc  Sc9  1  0.83367463  0.33134079  0.47906297  1
  Sc  Sc10  1  0.16670085  0.66630237  0.02120398  1
  Sc  Sc11  1  0.66738346  0.66651278  0.02161164  1
  Ta  Ta0  1  0.49826780  0.99775982  0.64902223  1
  Ta  Ta1  1  0.83680180  0.33635633  0.68551477  1
  Ta  Ta2  1  0.33792161  0.34582865  0.18701527  1
  Ta  Ta3  1  0.83822420  0.34639441  0.18698388  1
  Ta  Ta4  1  0.33369570  0.33563039  0.97815482  1
  Ta  Ta5  1  0.83338233  0.33386598  0.97842749  1
  Ta  Ta6  1  0.16555444  0.66690869  0.52021819  1
  Ta  Ta7  1  0.66712461  0.66607641  0.52035138  1
  Ta  Ta8  1  0.16508851  0.65382446  0.31292385  1
  Ta  Ta9  1  0.66498204  0.65427977  0.31265737  1
  Ta  Ta10  1  0.16624952  0.67475806  0.81621670  1
  Ta  Ta11  1  0.66638993  0.66815796  0.81442949  1
  Si  Si0  1  0.35167032  0.70374462  0.25026645  1
  Si  Si1  1  0.85182061  0.70410432  0.25034945  1
  Si  Si2  1  0.99977748  0.29614889  0.24969426  1
  Si  Si3  1  0.49961592  0.29600926  0.24961043  1
  Si  Si4  1  0.64790454  0.29658508  0.75094559  1
  Si  Si5  1  0.00240918  0.70262806  0.74959387  1
  Si  Si6  1  0.49837647  0.70176596  0.75245287  1
  Si  Si7  1  0.35010470  0.99826747  0.75275469  1
  Si  Si8  1  0.85217882  0.00238647  0.75029394  1
  Si  Si9  1  0.48115624  0.33197820  0.58280731  1
  Si  Si10  1  0.98071003  0.33262069  0.58075843  1
  Si  Si11  1  0.18619460  0.04121239  0.58024800  1
  Si  Si12  1  0.68660408  0.04029904  0.58254994  1
  Si  Si13  1  0.33278316  0.62643871  0.58405796  1
  Si  Si14  1  0.83325778  0.62527169  0.58094284  1
  Si  Si15  1  0.47968666  0.62698008  0.08213454  1
  Si  Si16  1  0.97966791  0.62711690  0.08187017  1
  Si  Si17  1  0.33244083  0.04565610  0.08450356  1
  Si  Si18  1  0.83254211  0.04525270  0.08487826  1
  Si  Si19  1  0.18826498  0.33030139  0.08338604  1
  Si  Si20  1  0.68830430  0.33005662  0.08342203  1
  Si  Si21  1  0.31201161  0.66557747  0.91793230  1
  Si  Si22  1  0.81212768  0.66475750  0.91847104  1
  Si  Si23  1  0.02118739  0.37459840  0.91945790  1
  Si  Si24  1  0.52045986  0.37595143  0.91896079  1
  Si  Si25  1  0.16715748  0.96260029  0.91964494  1
  Si  Si26  1  0.66699814  0.95987426  0.91973203  1
  Si  Si27  1  0.31023690  0.95658988  0.41463955  1
  Si  Si28  1  0.81042447  0.95568112  0.41499350  1
  Si  Si29  1  0.16654772  0.37267149  0.41823683  1
  Si  Si30  1  0.66654344  0.37257058  0.41720762  1
  Si  Si31  1  0.02201513  0.66849392  0.41562071  1
  Si  Si32  1  0.52286645  0.66948665  0.41666647  1
  S  S0  1  0.14874795  -0.00000305  0.25002819  1
  S  S1  1  0.64888040  0.00013830  0.25027190  1
  S  S2  1  0.14774929  0.29890699  0.75138470  1
  O  O0  1  0.10909769  0.01979546  0.30421687  1
  O  O1  1  0.60911380  0.01952130  0.30440425  1
  O  O2  1  0.40592960  0.78323164  0.31091234  1
  O  O3  1  0.90589553  0.78367200  0.31091466  1
  O  O4  1  0.48191178  0.17712640  0.30837973  1
  O  O5  1  0.98142952  0.17695187  0.30840430  1
  O  O6  1  0.10566148  0.19998967  0.80547706  1
  O  O7  1  0.61058884  0.18208319  0.80970447  1
  O  O8  1  0.48766560  0.79115570  0.81079949  1
  O  O9  1  0.98265102  0.78205252  0.80807603  1
  O  O10  1  0.40763534  0.02585769  0.81091463  1
  O  O11  1  0.90441796  0.02679022  0.81093092  1
  O  O12  1  0.40188490  0.97424676  0.69419419  1
  O  O13  1  0.89127152  0.96189689  0.69197647  1
  O  O14  1  0.09939563  0.21939483  0.69648474  1
  O  O15  1  0.58517940  0.19840223  0.69332287  1
  O  O16  1  0.01453203  0.80914777  0.68910721  1
  O  O17  1  0.51288547  0.82877323  0.69390021  1
  O  O18  1  0.39351816  0.82373020  0.19181007  1
  O  O19  1  0.89321680  0.82347146  0.19169907  1
  O  O20  1  0.01393475  0.21576355  0.18920690  1
  O  O21  1  0.51429720  0.21619106  0.18920955  1
  O  O22  1  0.09921000  0.98014467  0.19538895  1
  O  O23  1  0.59910072  0.97995767  0.19548212  1
  O  O24  1  0.44389233  0.37510163  0.64157091  1
  O  O25  1  0.92869151  0.36165440  0.63700088  1
  O  O26  1  0.25152808  0.12351336  0.63539101  1
  O  O27  1  0.74813130  0.13527738  0.64039519  1
  O  O28  1  0.31362015  0.51096700  0.64325165  1
  O  O29  1  0.81775270  0.50105075  0.63979149  1
  O  O30  1  0.42792310  0.50231997  0.13969302  1
  O  O31  1  0.92787989  0.50260756  0.13945680  1
  O  O32  1  0.32314130  0.14310851  0.14333237  1
  O  O33  1  0.82327341  0.14335247  0.14345196  1
  O  O34  1  0.25060221  0.34795107  0.13930032  1
  O  O35  1  0.75070705  0.34797420  0.13925882  1
  O  O36  1  0.23682865  0.31210768  0.02255924  1
  O  O37  1  0.73726081  0.31238743  0.02255072  1
  O  O38  1  0.41948562  0.52933727  0.02284301  1
  O  O39  1  0.91948370  0.52865236  0.02251274  1
  O  O40  1  0.34306284  0.16659571  0.02510016  1
  O  O41  1  0.84291825  0.16587726  0.02521129  1
  O  O42  1  0.22671195  0.15453810  0.52037596  1
  O  O43  1  0.72249972  0.15507281  0.52339609  1
  O  O44  1  0.35623424  0.55220615  0.52596284  1
  O  O45  1  0.84728988  0.53990236  0.52252547  1
  O  O46  1  0.42285767  0.28979013  0.52403435  1
  O  O47  1  0.92284901  0.29485870  0.52190788  1
  O  O48  1  0.26978171  0.69631003  0.97633001  1
  O  O49  1  0.77147076  0.69716247  0.97697454  1
  O  O50  1  0.07600771  0.45269617  0.97931929  1
  O  O51  1  0.57792907  0.45980170  0.97708587  1
  O  O52  1  0.14777100  0.84605488  0.97812468  1
  O  O53  1  0.65245435  0.84612392  0.97813230  1
  O  O54  1  0.25971820  0.83586910  0.47360979  1
  O  O55  1  0.76080069  0.83657743  0.47500251  1
  O  O56  1  0.15460296  0.46885719  0.47750837  1
  O  O57  1  0.65708485  0.47344062  0.47626723  1
  O  O58  1  0.07948444  0.68453236  0.47569703  1
  O  O59  1  0.58021701  0.68643643  0.47776377  1
  O  O60  1  0.07566000  0.65049845  0.35988232  1
  O  O61  1  0.57644198  0.65174155  0.36094013  1
  O  O62  1  0.25203925  0.85813768  0.35603335  1
  O  O63  1  0.75158278  0.85683885  0.35682954  1
  O  O64  1  0.17696538  0.49765154  0.36060833  1
  O  O65  1  0.67640163  0.49678099  0.35989291  1
  O  O66  1  0.07254010  0.50669565  0.86303465  1
  O  O67  1  0.56847012  0.49942906  0.85907926  1
  O  O68  1  0.18350387  0.86270556  0.86209574  1
  O  O69  1  0.67951333  0.86116822  0.86021051  1
  O  O70  1  0.24989331  0.63447520  0.85876230  1
  O  O71  1  0.75043155  0.63826798  0.85885437  1
  O  O72  1  0.01832165  0.84183790  0.41357685  1
  O  O73  1  0.51901159  0.84279384  0.41451175  1
  O  O74  1  0.40166960  0.96580703  0.41537878  1
  O  O75  1  0.90170069  0.96606502  0.41565918  1
  O  O76  1  0.08169178  0.19048080  0.41373497  1
  O  O77  1  0.58099427  0.19116179  0.41445382  1
  O  O78  1  0.00842505  0.18737070  0.91030316  1
  O  O79  1  0.50717515  0.18826385  0.91179241  1
  O  O80  1  0.08882773  0.99371326  0.90796137  1
  O  O81  1  0.58721753  0.98856036  0.91327896  1
  O  O82  1  0.40658210  0.82572624  0.91201601  1
  O  O83  1  0.90685110  0.82558567  0.91182646  1
  O  O84  1  0.49477958  0.16604912  0.59177882  1
  O  O85  1  0.99622262  0.17573649  0.59237731  1
  O  O86  1  0.09232631  0.01729954  0.58772114  1
  O  O87  1  0.59121915  0.01308540  0.59399754  1
  O  O88  1  0.41681668  0.82091342  0.59258539  1
  O  O89  1  0.91382550  0.81390342  0.58770275  1
  O  O90  1  0.48536613  0.80884321  0.08604481  1
  O  O91  1  0.98510872  0.80871472  0.08572602  1
  O  O92  1  0.41881160  0.03535254  0.08410891  1
  O  O93  1  0.91894503  0.03538092  0.08413571  1
  O  O94  1  0.09773407  0.15728255  0.08585533  1
  O  O95  1  0.59785212  0.15719196  0.08584562  1
  O  O96  1  0.34187209  0.16473037  0.74463274  1
  O  O97  1  0.83468705  0.16302009  0.74252724  1
  O  O98  1  0.23423830  0.32357226  0.74892910  1
  O  O99  1  0.74249688  0.32233866  0.74010905  1
  O  O100  1  0.41613477  0.51627344  0.74573263  1
  O  O101  1  0.91444490  0.51320352  0.74193732  1
  O  O102  1  0.33647622  0.51005279  0.24294130  1
  O  O103  1  0.83635829  0.51015199  0.24288348  1
  O  O104  1  0.41165070  0.30870271  0.24398741  1
  O  O105  1  0.91180682  0.30938792  0.24387837  1
  O  O106  1  0.23618348  0.15091057  0.24610547  1
  O  O107  1  0.73617418  0.15070027  0.24625537  1
  O  O108  1  0.31672106  0.48809892  0.92019027  1
  O  O109  1  0.81725314  0.48839000  0.91934452  1
  O  O110  1  0.42754087  0.36700728  0.92039578  1
  O  O111  1  0.92754958  0.36396988  0.92055352  1
  O  O112  1  0.25652072  0.14581627  0.92094025  1
  O  O113  1  0.75654382  0.14515276  0.92025374  1
  O  O114  1  0.31837473  0.14131161  0.41676700  1
  O  O115  1  0.81605501  0.13799727  0.41738634  1
  O  O116  1  0.25358408  0.36820954  0.41910021  1
  O  O117  1  0.75227888  0.36386893  0.41739514  1
  O  O118  1  0.43188946  0.49848275  0.41818832  1
  O  O119  1  0.93068469  0.49747349  0.41725083  1
  O  O120  1  0.18276019  0.50164374  0.08300872  1
  O  O121  1  0.68272381  0.50116435  0.08296488  1
  O  O122  1  0.06959263  0.63502935  0.08261332  1
  O  O123  1  0.56963428  0.63473739  0.08263116  1
  O  O124  1  0.24786276  0.86162882  0.08291077  1
  O  O125  1  0.74806147  0.86130950  0.08366441  1
  O  O126  1  0.17494082  0.84770603  0.57521796  1
  O  O127  1  0.67783881  0.85059123  0.57975236  1
  O  O128  1  0.25018882  0.65393990  0.57622855  1
  O  O129  1  0.74614817  0.64022146  0.57924854  1
  O  O130  1  0.07338595  0.50948860  0.57937023  1
  O  O131  1  0.57706795  0.49980781  0.57672151  1
  O  O132  1  0.16084451  0.84896921  0.25371820  1
  O  O133  1  0.66078187  0.84882615  0.25395398  1
  O  O134  1  0.25728711  0.69084561  0.25616349  1
  O  O135  1  0.75725602  0.69118834  0.25633652  1
  O  O136  1  0.08168639  0.48949487  0.25714471  1
  O  O137  1  0.58129582  0.48970820  0.25734535  1
  O  O138  1  0.15669339  0.47260493  0.75506200  1
  O  O139  1  0.65537100  0.48448484  0.75422240  1
  O  O140  1  0.08531348  0.67746040  0.75830458  1
  O  O141  1  0.58656913  0.69073113  0.75458872  1
  O  O142  1  0.25936193  0.81596074  0.75539006  1
  O  O143  1  0.75555134  0.83019360  0.75711117  1
loop_
_geom_bond_atom_site_label_1
_geom_bond_atom_site_label_2
_geom_bond_distance
_geom_bond_site_symmetry_2
Na0 O134 2.453620 1_555
Na0 O104 2.453830 1_565
Na0 O132 2.617525 1_555
Na0 O106 2.619423 1_565
Na0 O62 2.718175 1_555
Na0 O32 2.730119 1_565
Na0 O18 2.797199 1_555
Na0 O4 2.810821 1_565
Na1 O105 2.453789 1_555
Na1 O135 2.455032 1_545
Na1 O107 2.626490 1_555
Na1 O133 2.631673 1_545
Na1 O33 2.727955 1_555
Na1 O63 2.745171 1_545
Na1 O19 2.788901 1_545
Na1 O5 2.794132 1_555
Na2 O100 2.440826 1_555
Na2 O98 2.453321 1_555
Na2 O142 2.460413 1_555
Na2 O28 2.573079 1_555
Na2 O138 2.622119 1_555
Na2 O70 2.806801 1_555
Na2 O12 2.961128 1_555
Na2 O8 2.982338 1_555
Na3 O101 2.502530 1_555
Na3 O143 2.550442 1_555
Na3 O99 2.606610 1_555
Na3 O139 2.708427 1_555
Na3 O29 2.763228 1_555
Na3 O13 2.777154 1_555
Na3 O71 2.802581 1_555
Na3 O9 2.828520 1_555
Na4 O96 2.420653 1_555
Na4 O100 2.449052 1_555
Na4 O24 2.563215 1_555
Na4 O139 2.612905 1_555
Na4 O141 2.634054 1_555
Na4 O67 2.833382 1_555
Na5 O97 2.461050 1_555
Na5 O141 2.503291 1_545
Na5 O99 2.542809 1_555
Na5 O143 2.586370 1_545
Na5 O69 2.754660 1_545
Na5 O27 2.775979 1_555
Na5 O7 2.823553 1_555
Na5 O17 2.953255 1_545
Na6 O86 2.438421 1_555
Na6 O85 2.446886 1_455
Na6 O128 2.649159 1_555
Na6 O14 2.688593 1_555
Na6 O130 2.703111 1_555
Na6 O56 2.709272 1_555
Na6 O42 2.914675 1_555
Na6 O28 2.925709 1_555
Na7 O129 2.478447 1_555
Na7 O84 2.530637 1_555
Na7 O87 2.533948 1_555
Na7 O131 2.569796 1_555
Na7 O57 2.674699 1_555
Na7 O43 2.790399 1_555
Na7 O15 2.794730 1_555
Na7 O29 2.917599 1_555
Na8 O86 2.447426 1_565
Na8 O89 2.483120 1_455
Na8 O16 2.499889 1_555
Na8 O130 2.528555 1_555
Na8 O126 2.552032 1_555
Na8 O58 2.780640 1_555
Na9 O88 2.547633 1_555
Na9 O131 2.566997 1_555
Na9 O87 2.609405 1_565
Na9 O127 2.687204 1_555
Na9 O59 2.688194 1_555
Na9 O44 2.733650 1_555
Na9 O24 2.792064 1_555
Na9 O17 2.798905 1_555
Na10 O126 2.496215 1_555
Na10 O84 2.602793 1_565
Na10 O128 2.609020 1_555
Na10 O88 2.645339 1_555
Na10 O26 2.658140 1_565
Na10 O46 2.771578 1_565
Na10 O54 2.783466 1_555
Na10 O12 2.827556 1_555
Na11 O89 2.418103 1_555
Na11 O85 2.490510 1_565
Na11 O13 2.556418 1_555
Na11 O127 2.627506 1_555
Na11 O129 2.661081 1_555
Na11 O55 2.852943 1_555
Na11 O47 2.913643 1_565
Na11 O27 3.011519 1_565
Na12 O94 2.411434 1_565
Na12 O124 2.426059 1_555
Na12 O52 2.503262 1_554
Na12 O122 2.518620 1_555
Na12 O91 2.529743 1_455
Na12 O22 2.752948 1_555
Na13 O95 2.406487 1_565
Na13 O125 2.435754 1_555
Na13 O53 2.519504 1_554
Na13 O123 2.521547 1_555
Na13 O90 2.523203 1_555
Na13 O23 2.758766 1_555
Na14 O120 2.437437 1_555
Na14 O90 2.485106 1_555
Na14 O124 2.513562 1_555
Na14 O92 2.550366 1_565
Na14 O48 2.628112 1_554
Na14 O18 2.652318 1_555
Na15 O121 2.440530 1_555
Na15 O91 2.478504 1_555
Na15 O125 2.509707 1_555
Na15 O93 2.550577 1_565
Na15 O49 2.616810 1_554
Na15 O19 2.635607 1_555
Na16 O122 2.426484 1_555
Na16 O93 2.449074 1_455
Na16 O120 2.500705 1_555
Na16 O50 2.535284 1_554
Na16 O94 2.574680 1_555
Na16 O20 2.575842 1_555
Na17 O123 2.427876 1_555
Na17 O92 2.443868 1_555
Na17 O121 2.506173 1_555
Na17 O21 2.572250 1_555
Na17 O95 2.577733 1_555
Na17 O51 2.606425 1_554
Na18 O82 2.386725 1_555
Na18 O81 2.469795 1_555
Na18 O8 2.504552 1_555
Na18 O110 2.526380 1_555
Na18 O108 2.686422 1_555
Na18 O38 2.766810 1_556
Na19 O83 2.431781 1_555
Na19 O80 2.523631 1_655
Na19 O111 2.527534 1_555
Na19 O9 2.566346 1_555
Na19 O109 2.706100 1_555
Na19 O39 2.759713 1_556
Na19 O52 2.921544 1_655
Na19 O66 2.952142 1_655
Na20 O79 2.414093 1_555
Na20 O82 2.452827 1_545
Na20 O10 2.509975 1_555
Na20 O112 2.532154 1_555
Na20 O110 2.703302 1_555
Na20 O40 2.847479 1_556
Na20 O48 2.960799 1_545
Na20 O68 2.962625 1_545
Na21 O78 2.447931 1_655
Na21 O83 2.483327 1_545
Na21 O11 2.494039 1_555
Na21 O113 2.500198 1_555
Na21 O111 2.664740 1_555
Na21 O41 2.836172 1_556
Na22 O80 2.411932 1_545
Na22 O78 2.440328 1_555
Na22 O108 2.505124 1_555
Na22 O6 2.692596 1_555
Na22 O36 2.697911 1_556
Na22 O112 2.734244 1_555
Na22 O50 2.909849 1_555
Na22 O70 2.982626 1_555
Na23 O81 2.385475 1_545
Na23 O79 2.447493 1_555
Na23 O7 2.534982 1_555
Na23 O109 2.541726 1_555
Na23 O113 2.708982 1_555
Na23 O37 2.761927 1_556
Na24 O118 2.430911 1_555
Na24 O114 2.489188 1_555
Na24 O77 2.491921 1_555
Na24 O74 2.543355 1_545
Na24 O46 2.611942 1_555
Na24 O4 2.631716 1_555
Na25 O119 2.448128 1_555
Na25 O76 2.490600 1_655
Na25 O75 2.548776 1_545
Na25 O115 2.549192 1_555
Na25 O47 2.573962 1_555
Na25 O5 2.639422 1_555
Na26 O72 2.425240 1_545
Na26 O114 2.448098 1_555
Na26 O42 2.456462 1_555
Na26 O76 2.508809 1_555
Na26 O116 2.547728 1_555
Na26 O0 2.789168 1_555
Na27 O73 2.410692 1_545
Na27 O115 2.411653 1_555
Na27 O117 2.513658 1_555
Na27 O77 2.523394 1_555
Na27 O43 2.545291 1_555
Na27 O1 2.740952 1_555
Na28 O116 2.396107 1_555
Na28 O74 2.454081 1_555
Na28 O118 2.509832 1_555
Na28 O2 2.568309 1_555
Na28 O73 2.588428 1_555
Na28 O44 2.655267 1_555
Na29 O117 2.440689 1_555
Na29 O75 2.453766 1_555
Na29 O119 2.486735 1_555
Na29 O72 2.558366 1_655
Na29 O3 2.558588 1_555
Na29 O45 2.605307 1_555
Na30 O76 2.510843 1_555
Na30 O72 2.523048 1_545
Na30 O86 2.524284 1_555
Na30 O75 2.540291 1_445
Na30 O89 2.574746 1_445
Na30 O85 2.653566 1_455
Na31 O74 2.410253 1_555
Na31 O73 2.414565 1_555
Na31 O77 2.418316 1_565
Na31 O84 2.701676 1_565
Na31 O88 2.709877 1_555
Na31 O87 2.772358 1_565
Na32 O93 2.506269 1_455
Na32 O94 2.506744 1_555
Na32 O91 2.513122 1_445
Na32 O78 2.594247 1_554
Na32 O83 2.599444 1_444
Na32 O80 2.653101 1_544
Na33 O92 2.524165 1_566
Na33 O90 2.526243 1_556
Na33 O95 2.537428 1_566
Na33 O81 2.542794 1_555
Na33 O82 2.566757 1_555
Na33 O79 2.571660 1_565
Na34 O96 2.409768 1_555
Na34 O100 2.476046 1_555
Na34 O98 2.518410 1_555
Na34 O112 2.576692 1_555
Na34 O110 2.611545 1_555
Na34 O108 2.668687 1_555
Na35 O111 2.472034 1_555
Na35 O101 2.512632 1_555
Na35 O97 2.514793 1_555
Na35 O109 2.567191 1_555
Na35 O113 2.573108 1_555
Na35 O99 2.696392 1_555
Na36 O118 2.400566 1_555
Na36 O116 2.460096 1_555
Na36 O114 2.499675 1_555
Na36 O102 2.572662 1_555
Na36 O104 2.609233 1_555
Na36 O106 2.749000 1_555
Na37 O119 2.374269 1_555
Na37 O117 2.448451 1_555
Na37 O115 2.535014 1_555
Na37 O103 2.561616 1_555
Na37 O105 2.595373 1_555
Na37 O107 2.746585 1_555
Na38 O120 2.380411 1_555
Na38 O122 2.447718 1_555
Na38 O124 2.524146 1_555
Na38 O136 2.568933 1_555
Na38 O134 2.605041 1_555
Na38 O132 2.742321 1_555
Na39 O121 2.381263 1_555
Na39 O123 2.444653 1_555
Na39 O125 2.511086 1_555
Na39 O137 2.575297 1_555
Na39 O135 2.608967 1_555
Na39 O133 2.748240 1_555
Na40 O140 2.450435 1_555
Na40 O142 2.504423 1_555
Na40 O126 2.547703 1_555
Na40 O130 2.555030 1_555
Na40 O138 2.654010 1_555
Na40 O128 2.696731 1_555
Na41 O139 2.506721 1_555
Na41 O127 2.513539 1_555
Na41 O129 2.523169 1_555
Na41 O141 2.527457 1_555
Na41 O143 2.553595 1_555
Na41 O131 2.572109 1_555
O0 S0 1.470742 1_555
O0 Sc0 2.297244 1_445
O1 S1 1.469479 1_555
O1 Sc1 2.294110 1_545
O2 Si0 1.624534 1_555
O2 Sc1 2.015532 1_555
O3 Si1 1.621822 1_555
O3 Sc0 2.027817 1_555
O4 Si3 1.630869 1_555
O4 Sc1 2.033744 1_545
O5 Si2 1.629873 1_555
O5 Sc0 2.045093 1_545
O6 S2 1.475508 1_555
O6 Sc2 2.222123 1_445
O7 Si4 1.603947 1_555
O7 Sc3 2.090266 1_555
O8 Si6 1.604699 1_555
O8 Sc3 2.038192 1_565
O9 Si5 1.623859 1_655
O9 Sc2 2.063638 1_555
O10 Si7 1.613655 1_545
O10 Sc3 2.041354 1_555
O11 Si8 1.610894 1_555
O11 Sc2 2.040287 1_545
O12 Si7 1.695359 1_555
O12 Ta0 1.950045 1_555
O13 Si8 1.618519 1_565
O13 Sc4 2.078347 1_555
O14 S2 1.477028 1_555
O14 Sc4 2.267161 1_445
O15 Si4 1.661631 1_555
O15 Ta0 1.991268 1_545
O16 Si5 1.615643 1_555
O16 Sc4 2.036085 1_455
O17 Si6 1.680160 1_555
O17 Ta0 1.968483 1_555
O18 Si0 1.630059 1_555
O18 Sc6 2.045773 1_565
O19 Si1 1.629992 1_555
O19 Sc5 2.048113 1_565
O20 Si2 1.622833 1_455
O20 Sc5 2.023806 1_455
O21 Si3 1.622176 1_555
O21 Sc6 2.028244 1_555
O22 S0 1.479191 1_565
O22 Sc5 2.300637 1_465
O23 S1 1.483875 1_565
O23 Sc6 2.306255 1_565
O24 Si9 1.619106 1_555
O24 Sc7 2.039641 1_555
O25 Si10 1.678136 1_555
O25 Ta1 1.916603 1_555
O26 Si11 1.619756 1_555
O26 Sc7 1.985704 1_555
O27 Si12 1.650720 1_555
O27 Ta1 2.013606 1_555
O28 Si13 1.618047 1_555
O28 Sc7 2.086378 1_555
O29 Si14 1.666744 1_555
O29 Ta1 1.988820 1_555
O30 Si15 1.664877 1_555
O30 Ta2 1.876442 1_555
O31 Si16 1.664918 1_555
O31 Ta3 1.875072 1_555
O32 Si17 1.646655 1_555
O32 Ta2 1.991371 1_555
O33 Si18 1.645404 1_555
O33 Ta3 1.991223 1_555
O34 Si19 1.646898 1_555
O34 Ta2 1.931020 1_555
O35 Si20 1.645748 1_555
O35 Ta3 1.932067 1_555
O36 Si19 1.679469 1_555
O36 Ta4 1.948738 1_554
O37 Si20 1.682700 1_555
O37 Ta5 1.940380 1_554
O38 Si15 1.671206 1_555
O38 Ta4 1.956061 1_554
O39 Si16 1.673815 1_555
O39 Ta5 1.956177 1_554
O40 Si17 1.675831 1_555
O40 Ta4 1.944360 1_554
O41 Si18 1.679752 1_555
O41 Ta5 1.935905 1_554
O42 Si11 1.626820 1_555
O42 Sc8 2.033985 1_555
O43 Si12 1.609934 1_555
O43 Sc9 2.106782 1_555
O44 Si13 1.621624 1_555
O44 Sc8 2.092618 1_555
O45 Si14 1.608776 1_555
O45 Sc9 2.042507 1_555
O46 Si9 1.615315 1_555
O46 Sc8 2.090648 1_555
O47 Si10 1.616484 1_555
O47 Sc9 2.059355 1_555
O48 Si21 1.613608 1_555
O48 Sc10 2.031637 1_556
O49 Si22 1.605739 1_555
O49 Sc11 2.042994 1_556
O50 Si23 1.612193 1_555
O50 Sc10 2.052010 1_556
O51 Si24 1.607545 1_555
O51 Sc11 2.038611 1_556
O52 Si25 1.609932 1_555
O52 Sc10 2.076947 1_556
O53 Si26 1.606168 1_555
O53 Sc11 2.039763 1_556
O54 Si27 1.670375 1_555
O54 Ta6 1.943585 1_555
O55 Si28 1.679627 1_555
O55 Ta7 1.929297 1_555
O56 Si29 1.666314 1_555
O56 Ta6 1.967828 1_555
O57 Si30 1.670584 1_555
O57 Ta7 1.946363 1_555
O58 Si31 1.668532 1_555
O58 Ta6 1.938188 1_555
O59 Si32 1.683910 1_555
O59 Ta7 1.942070 1_555
O60 Si31 1.646367 1_555
O60 Ta8 1.933071 1_555
O61 Si32 1.644430 1_555
O61 Ta9 1.938751 1_555
O62 Si27 1.646512 1_555
O62 Ta8 1.996150 1_555
O63 Si28 1.643885 1_555
O63 Ta9 1.997149 1_555
O64 Si29 1.668216 1_555
O64 Ta8 1.878792 1_555
O65 Si30 1.660746 1_555
O65 Ta9 1.878896 1_555
O66 Si23 1.672349 1_555
O66 Ta10 1.939169 1_555
O67 Si24 1.687061 1_555
O67 Ta11 1.954758 1_555
O68 Si25 1.690939 1_555
O68 Ta10 1.888726 1_555
O69 Si26 1.688712 1_555
O69 Ta11 1.949546 1_555
O70 Si21 1.675405 1_555
O70 Ta10 1.987813 1_555
O71 Si22 1.686278 1_555
O71 Ta11 1.962524 1_555
O72 Si31 1.619633 1_555
O72 Sc0 2.149574 1_455
O73 Si32 1.620936 1_555
O73 Sc1 2.174951 1_555
O74 Si27 1.633705 1_555
O74 Sc1 2.094867 1_555
O75 Si28 1.625941 1_555
O75 Sc0 2.092756 1_555
O76 Si29 1.615375 1_555
O76 Sc0 2.179088 1_445
O77 Si30 1.615175 1_555
O77 Sc1 2.204436 1_545
O78 Si23 1.620312 1_555
O78 Sc2 2.131440 1_445
O79 Si24 1.615708 1_555
O79 Sc3 2.124612 1_555
O80 Si25 1.616774 1_555
O80 Sc2 2.136260 1_455
O81 Si26 1.614441 1_555
O81 Sc3 2.144594 1_565
O82 Si21 1.619403 1_555
O82 Sc3 2.133665 1_565
O83 Si22 1.624814 1_555
O83 Sc2 2.066374 1_555
O84 Si9 1.667187 1_555
O84 Ta0 2.025853 1_545
O85 Si10 1.615616 1_555
O85 Sc4 2.123682 1_545
O86 Si11 1.629063 1_555
O86 Sc4 2.113988 1_445
O87 Si12 1.656190 1_555
O87 Ta0 2.047911 1_545
O88 Si13 1.681795 1_555
O88 Ta0 2.006951 1_555
O89 Si14 1.621123 1_555
O89 Sc4 2.077527 1_555
O90 Si15 1.615041 1_555
O90 Sc6 2.174825 1_565
O91 Si16 1.614529 1_555
O91 Sc5 2.182286 1_565
O92 Si17 1.630588 1_555
O92 Sc6 2.085908 1_555
O93 Si18 1.629098 1_555
O93 Sc5 2.089899 1_555
O94 Si19 1.621431 1_555
O94 Sc5 2.155151 1_455
O95 Si20 1.619974 1_555
O95 Sc6 2.155388 1_555
O96 Si7 1.612036 1_545
O96 Sc7 2.098804 1_555
O97 Si8 1.660543 1_555
O97 Ta1 2.018043 1_555
O98 S2 1.484760 1_555
O98 Sc7 2.359916 1_555
O99 Si4 1.644979 1_555
O99 Ta1 2.066223 1_555
O100 Si6 1.615982 1_555
O100 Sc7 2.187851 1_555
O101 Si5 1.682970 1_655
O101 Ta1 1.984096 1_555
O102 Si0 1.657084 1_555
O102 Ta2 1.966136 1_555
O103 Si1 1.657954 1_555
O103 Ta3 1.965525 1_555
O104 Si3 1.676397 1_555
O104 Ta2 2.005338 1_555
O105 Si2 1.679571 1_555
O105 Ta3 2.001649 1_555
O106 S0 1.504652 1_555
O106 Ta2 2.250880 1_555
O107 S1 1.501967 1_555
O107 Ta3 2.258397 1_555
O108 Si21 1.667449 1_555
O108 Ta4 2.037124 1_555
O109 Si22 1.660813 1_555
O109 Ta5 2.059755 1_555
O110 Si24 1.662262 1_555
O110 Ta4 2.052328 1_555
O111 Si23 1.668210 1_655
O111 Ta5 2.061767 1_555
O112 Si25 1.655754 1_545
O112 Ta4 2.049738 1_555
O113 Si26 1.666925 1_545
O113 Ta5 2.056607 1_555
O114 Si27 1.619557 1_545
O114 Sc8 2.172032 1_555
O115 Si28 1.618041 1_545
O115 Sc9 2.137624 1_555
O116 Si29 1.614516 1_555
O116 Sc8 2.158472 1_555
O117 Si30 1.611048 1_555
O117 Sc9 2.158162 1_555
O118 Si32 1.616869 1_555
O118 Sc8 2.168707 1_555
O119 Si31 1.620534 1_655
O119 Sc9 2.161176 1_555
O120 Si19 1.618650 1_555
O120 Sc10 2.168341 1_555
O121 Si20 1.617275 1_555
O121 Sc11 2.160383 1_555
O122 Si16 1.611647 1_455
O122 Sc10 2.150073 1_555
O123 Si15 1.612679 1_555
O123 Sc11 2.152169 1_555
O124 Si17 1.619592 1_565
O124 Sc10 2.158080 1_555
O125 Si18 1.618204 1_565
O125 Sc11 2.158297 1_555
O126 Si11 1.678868 1_565
O126 Ta6 1.999342 1_555
O127 Si12 1.660562 1_565
O127 Ta7 2.079860 1_555
O128 Si13 1.661627 1_555
O128 Ta6 2.042372 1_555
O129 Si14 1.667921 1_555
O129 Ta7 2.056508 1_555
O130 Si10 1.658154 1_455
O130 Ta6 2.058296 1_555
O131 Si9 1.661397 1_555
O131 Ta7 2.026822 1_555
O132 S0 1.505438 1_565
O132 Ta8 2.252763 1_555
O133 S1 1.505842 1_565
O133 Ta9 2.241404 1_555
O134 Si0 1.677474 1_555
O134 Ta8 2.001420 1_555
O135 Si1 1.680869 1_555
O135 Ta9 1.996505 1_555
O136 Si2 1.658175 1_455
O136 Ta8 1.964313 1_555
O137 Si3 1.659271 1_555
O137 Ta9 1.960571 1_555
O138 S2 1.514535 1_555
O138 Ta10 2.236490 1_555
O139 Si4 1.654807 1_555
O139 Ta11 2.083909 1_555
O140 Si5 1.656591 1_555
O140 Ta10 1.978475 1_555
O141 Si6 1.668200 1_555
O141 Ta11 2.067432 1_555
O142 Si7 1.664555 1_555
O142 Ta10 2.054188 1_555
O143 Si8 1.686509 1_565
O143 Ta11 2.019975 1_555
