# generated using pymatgen
data_K2Na2Pr2MgNb2O10
_symmetry_space_group_name_H-M   'P 1'
_cell_length_a   5.82270800
_cell_length_b   5.72940900
_cell_length_c   9.27358400
_cell_angle_alpha   90.00000000
_cell_angle_beta   90.00000000
_cell_angle_gamma   90.00000000
_symmetry_Int_Tables_number   1
_chemical_formula_structural   K2Na2Pr2MgNb2O10
_chemical_formula_sum   'K2 Na2 Pr2 Mg1 Nb2 O10'
_cell_volume   309.37302765
_cell_formula_units_Z   1
loop_
 _symmetry_equiv_pos_site_id
 _symmetry_equiv_pos_as_xyz
  1  'x, y, z'
loop_
 _atom_site_type_symbol
 _atom_site_label
 _atom_site_symmetry_multiplicity
 _atom_site_fract_x
 _atom_site_fract_y
 _atom_site_fract_z
 _atom_site_occupancy
  K  K0  1  0.75000000  0.25000000  0.08492000  1
  K  K1  1  0.25000000  0.75000000  0.00437100  1
  Na  Na0  1  0.25000000  0.25000000  0.76072100  1
  Na  Na1  1  0.75000000  0.75000000  0.23618600  1
  Pr  Pr0  1  0.25000000  0.75000000  0.51528600  1
  Pr  Pr1  1  0.75000000  0.25000000  0.45694600  1
  Mg  Mg0  1  0.75000000  0.25000000  0.75241000  1
  Nb  Nb0  1  0.75000000  0.75000000  0.74672200  1
  Nb  Nb1  1  0.25000000  0.25000000  0.26301600  1
  O  O0  1  0.48087400  0.48405400  0.32770600  1
  O  O1  1  0.52628300  0.99491900  0.65719900  1
  O  O2  1  0.48087400  0.01594600  0.32770600  1
  O  O3  1  0.52628300  0.50508100  0.65719900  1
  O  O4  1  0.01912600  0.48405400  0.32770600  1
  O  O5  1  0.25000000  0.25000000  0.06219200  1
  O  O6  1  0.75000000  0.75000000  0.95105000  1
  O  O7  1  0.01912600  0.01594600  0.32770600  1
  O  O8  1  0.97371700  0.50508100  0.65719900  1
  O  O9  1  0.97371700  0.99491900  0.65719900  1
loop_
_geom_bond_atom_site_label_1
_geom_bond_atom_site_label_2
_geom_bond_distance
_geom_bond_site_symmetry_2
K0 O5 2.918973 1_555
K0 O5 2.918973 1_655
K0 O4 3.053377 1_655
K0 O7 3.053377 1_655
K0 O2 3.053377 1_555
K0 O0 3.053377 1_555
K0 Mg0 3.083559 1_554
K0 O6 3.122137 1_544
K0 O6 3.122137 1_554
K1 O5 2.914455 1_565
K1 O5 2.914455 1_555
K1 O6 2.953047 1_454
K1 O6 2.953047 1_554
Na0 O3 2.376022 1_555
Na0 O8 2.376022 1_455
Na0 O9 2.376022 1_445
Na0 O1 2.376022 1_545
Na0 O5 2.795717 1_556
Na1 O0 2.344706 1_555
Na1 O4 2.344706 1_655
Na1 O7 2.344706 1_665
Na1 O2 2.344706 1_565
Na1 O6 2.644233 1_554
Mg0 O9 2.147636 1_545
Mg0 O1 2.147636 1_545
Mg0 O8 2.147636 1_555
Mg0 O3 2.147636 1_555
Nb0 O6 1.894853 1_555
Nb0 O9 2.086908 1_555
Nb0 O1 2.086908 1_555
Nb0 O8 2.086908 1_555
Nb0 O3 2.086908 1_555
Nb1 O5 1.862358 1_555
Nb1 O7 1.991311 1_555
Nb1 O4 1.991311 1_555
Nb1 O0 1.991311 1_555
Nb1 O2 1.991311 1_555
O0 Pr1 2.385440 1_555
O0 Pr0 2.674859 1_555
O1 Pr0 2.507791 1_555
O1 Pr1 2.698412 1_565
O2 Pr1 2.385440 1_555
O2 Pr0 2.674859 1_545
O3 Pr0 2.507791 1_555
O3 Pr1 2.698412 1_555
O4 Pr1 2.385440 1_455
O4 Pr0 2.674859 1_555
O7 Pr1 2.385440 1_455
O7 Pr0 2.674859 1_545
O8 Pr0 2.507791 1_655
O8 Pr1 2.698412 1_555
O9 Pr0 2.507791 1_655
O9 Pr1 2.698412 1_565
