# generated using pymatgen
data_MgCo3NiO8
_symmetry_space_group_name_H-M   'P 1'
_cell_length_a   5.72440193
_cell_length_b   5.89877511
_cell_length_c   5.80959655
_cell_angle_alpha   58.97365195
_cell_angle_beta   118.64017372
_cell_angle_gamma   120.61840993
_symmetry_Int_Tables_number   1
_chemical_formula_structural   MgCo3NiO8
_chemical_formula_sum   'Mg1 Co3 Ni1 O8'
_cell_volume   138.27633578
_cell_formula_units_Z   1
loop_
 _symmetry_equiv_pos_site_id
 _symmetry_equiv_pos_as_xyz
  1  'x, y, z'
loop_
 _atom_site_type_symbol
 _atom_site_label
 _atom_site_symmetry_multiplicity
 _atom_site_fract_x
 _atom_site_fract_y
 _atom_site_fract_z
 _atom_site_occupancy
  Mg  Mg0  1  0.00000000  0.00000000  0.50000000  1
  Co  Co0  1  0.50000000  0.50000000  0.00000000  1
  Co  Co1  1  0.50000000  0.00000000  0.00000000  1
  Co  Co2  1  0.00000000  0.50000000  0.00000000  1
  Ni  Ni0  1  0.50000000  0.50000000  0.50000000  1
  O  O0  1  0.76334900  0.71718500  0.78172600  1
  O  O1  1  0.74400800  0.27744800  0.77303000  1
  O  O2  1  0.26202200  0.76125400  0.78422700  1
  O  O3  1  0.28589300  0.24342800  0.75647800  1
  O  O4  1  0.71410700  0.75657200  0.24352200  1
  O  O5  1  0.73797800  0.23874600  0.21577300  1
  O  O6  1  0.25599200  0.72255200  0.22697000  1
  O  O7  1  0.23665100  0.28281500  0.21827400  1
loop_
_geom_bond_atom_site_label_1
_geom_bond_atom_site_label_2
_geom_bond_distance
_geom_bond_site_symmetry_2
Mg0 O0 2.075030 1_445
Mg0 O7 2.075030 1_555
Mg0 O2 2.083254 1_545
Mg0 O5 2.083254 1_455
Mg0 O3 2.105861 1_555
Mg0 O4 2.105861 1_445
Co0 O0 1.926769 1_554
Co0 O7 1.926769 1_555
Co0 O2 2.076576 1_554
Co0 O5 2.076576 1_555
Co0 O4 2.109464 1_555
Co0 O3 2.109464 1_554
Co1 O1 1.892245 1_554
Co1 O6 1.892245 1_545
Co1 O3 1.897873 1_554
Co1 O4 1.897873 1_545
Co1 O5 1.907652 1_555
Co1 O2 1.907652 1_544
Co2 O7 1.879064 1_555
Co2 O0 1.879064 1_454
Co2 O1 1.892635 1_454
Co2 O6 1.892635 1_555
Co2 O2 1.911145 1_554
Co2 O5 1.911145 1_455
Ni0 O4 1.883978 1_555
Ni0 O3 1.883978 1_555
Ni0 O6 1.946235 1_555
Ni0 O1 1.946235 1_555
Ni0 O0 2.102785 1_555
Ni0 O7 2.102785 1_555
