# generated using pymatgen
data_KCu4S3
_symmetry_space_group_name_H-M   'P 1'
_cell_length_a   3.84296955
_cell_length_b   3.84296955
_cell_length_c   9.35331158
_cell_angle_alpha   90.00000000
_cell_angle_beta   90.00000000
_cell_angle_gamma   90.00000000
_symmetry_Int_Tables_number   1
_chemical_formula_structural   KCu4S3
_chemical_formula_sum   'K1 Cu4 S3'
_cell_volume   138.13358668
_cell_formula_units_Z   1
loop_
 _symmetry_equiv_pos_site_id
 _symmetry_equiv_pos_as_xyz
  1  'x, y, z'
loop_
 _atom_site_type_symbol
 _atom_site_label
 _atom_site_symmetry_multiplicity
 _atom_site_fract_x
 _atom_site_fract_y
 _atom_site_fract_z
 _atom_site_occupancy
  K  K0  1  0.00000000  0.00000000  0.50000000  1
  Cu  Cu0  1  -0.00000000  0.50000000  0.84033733  1
  Cu  Cu1  1  0.50000000  0.00000000  0.84033733  1
  Cu  Cu2  1  0.00000000  0.50000000  0.15966267  1
  Cu  Cu3  1  0.50000000  -0.00000000  0.15966267  1
  S  S0  1  0.00000000  0.00000000  0.00000000  1
  S  S1  1  0.50000000  0.50000000  0.70622660  1
  S  S2  1  0.50000000  0.50000000  0.29377340  1
loop_
_geom_bond_atom_site_label_1
_geom_bond_atom_site_label_2
_geom_bond_distance
_geom_bond_site_symmetry_2
K0 S2 3.332397 1_545
K0 S2 3.332397 1_455
K0 S2 3.332397 1_555
K0 S2 3.332397 1_445
K0 S1 3.332397 1_545
K0 S1 3.332397 1_455
K0 S1 3.332397 1_555
K0 S1 3.332397 1_445
Cu0 S1 2.294683 1_555
Cu0 S1 2.294683 1_455
Cu0 S0 2.433572 1_566
Cu0 S0 2.433572 1_556
Cu1 S1 2.294683 1_555
Cu1 S1 2.294683 1_545
Cu1 S0 2.433572 1_656
Cu1 S0 2.433572 1_556
Cu2 S2 2.294683 1_555
Cu2 S2 2.294683 1_455
Cu2 S0 2.433572 1_565
Cu2 S0 2.433572 1_555
Cu3 S2 2.294683 1_555
Cu3 S2 2.294683 1_545
Cu3 S0 2.433572 1_655
Cu3 S0 2.433572 1_555
