# generated using pymatgen
data_Na9Ca5NbP6(SO12)3
_symmetry_space_group_name_H-M   'P 1'
_cell_length_a   9.34360316
_cell_length_b   9.34360281
_cell_length_c   23.01135524
_cell_angle_alpha   89.85638017
_cell_angle_beta   90.14361983
_cell_angle_gamma   119.82468939
_symmetry_Int_Tables_number   1
_chemical_formula_structural   Na9Ca5NbP6(SO12)3
_chemical_formula_sum   'Na18 Ca10 Nb2 P12 S6 O72'
_cell_volume   1742.86702690
_cell_formula_units_Z   2
loop_
 _symmetry_equiv_pos_site_id
 _symmetry_equiv_pos_as_xyz
  1  'x, y, z'
loop_
 _atom_site_type_symbol
 _atom_site_label
 _atom_site_symmetry_multiplicity
 _atom_site_fract_x
 _atom_site_fract_y
 _atom_site_fract_z
 _atom_site_occupancy
  Na  Na0  1  0.34404233  0.33461801  0.25257677  1
  Na  Na1  1  0.66538199  0.65595767  0.75257677  1
  Na  Na2  1  0.03087310  0.69937491  0.58867979  1
  Na  Na3  1  0.66686745  0.96773521  0.58731647  1
  Na  Na4  1  0.30062509  0.96912690  0.08867979  1
  Na  Na5  1  0.03226479  0.33313255  0.08731647  1
  Na  Na6  1  0.96346726  0.67379884  0.90527182  1
  Na  Na7  1  0.70803526  0.03238750  0.90557192  1
  Na  Na8  1  0.32910885  0.29281169  0.90530256  1
  Na  Na9  1  0.96761250  0.29196474  0.40557192  1
  Na  Na10  1  0.32620116  0.03653274  0.40527182  1
  Na  Na11  1  0.70718831  0.67089115  0.40530256  1
  Na  Na12  1  0.02047486  0.02036233  0.49481947  1
  Na  Na13  1  0.97963767  0.97952514  0.99481947  1
  Na  Na14  1  0.66646246  0.31715865  0.82402874  1
  Na  Na15  1  0.68284135  0.33353754  0.32402874  1
  Na  Na16  1  0.35743021  0.68736350  0.17208348  1
  Na  Na17  1  0.31263650  0.64256979  0.67208348  1
  Ca  Ca0  1  0.99044506  0.99181155  0.34244493  1
  Ca  Ca1  1  0.00818845  0.00955494  0.84244493  1
  Ca  Ca2  1  0.01451736  0.01353788  0.66172807  1
  Ca  Ca3  1  0.98646212  0.98548264  0.16172807  1
  Ca  Ca4  1  0.65690231  0.32434219  0.68663625  1
  Ca  Ca5  1  0.67565781  0.34309769  0.18663625  1
  Ca  Ca6  1  0.66751150  0.33941714  0.97852567  1
  Ca  Ca7  1  0.66058286  0.33248850  0.47852567  1
  Ca  Ca8  1  0.34144367  0.66597228  0.01539870  1
  Ca  Ca9  1  0.33402772  0.65855633  0.51539870  1
  Nb  Nb0  1  0.33313910  0.67203221  0.31687335  1
  Nb  Nb1  1  0.32796779  0.66686090  0.81687335  1
  P  P0  1  0.31095166  0.99672932  0.25174821  1
  P  P1  1  0.67667813  0.68453397  0.25683957  1
  P  P2  1  0.01218460  0.32205711  0.25343716  1
  P  P3  1  0.31546603  0.32332187  0.75683957  1
  P  P4  1  0.00327068  0.68904834  0.75174821  1
  P  P5  1  0.67794289  0.98781540  0.75343716  1
  P  P6  1  0.62989425  0.66812931  0.91285996  1
  P  P7  1  0.03831333  0.37157179  0.91864159  1
  P  P8  1  0.33319897  0.96105227  0.91873845  1
  P  P9  1  0.62842821  0.96168667  0.41864159  1
  P  P10  1  0.33187069  0.37010575  0.41285996  1
  P  P11  1  0.03894773  0.66680103  0.41873845  1
  S  S0  1  0.96204398  0.32820314  0.58140255  1
  S  S1  1  0.35768732  0.02495069  0.58020008  1
  S  S2  1  0.67624249  0.64598814  0.58425616  1
  S  S3  1  0.97504931  0.64231268  0.08020008  1
  S  S4  1  0.67179686  0.03795602  0.08140255  1
  S  S5  1  0.35401186  0.32375751  0.08425616  1
  O  O0  1  0.22245282  0.01875211  0.30418465  1
  O  O1  1  0.77163908  0.75497634  0.31325217  1
  O  O2  1  0.99898884  0.22217988  0.30806493  1
  O  O3  1  0.24502366  0.22836092  0.81325217  1
  O  O4  1  0.98124789  0.77754718  0.80418465  1
  O  O5  1  0.77782012  0.00101116  0.80806493  1
  O  O6  1  0.75033789  0.94815106  0.69914661  1
  O  O7  1  0.20601662  0.24142203  0.70420539  1
  O  O8  1  0.03983276  0.78952183  0.69512990  1
  O  O9  1  0.75857797  0.79398338  0.20420539  1
  O  O10  1  0.05184894  0.24966211  0.19914661  1
  O  O11  1  0.21047817  0.96016724  0.19512990  1
  O  O12  1  0.86410106  0.33695605  0.62989458  1
  O  O13  1  0.46131738  0.12343072  0.62875289  1
  O  O14  1  0.67121882  0.55205690  0.63636128  1
  O  O15  1  0.87656928  0.53868262  0.12875289  1
  O  O16  1  0.66304395  0.13589894  0.12989458  1
  O  O17  1  0.44794310  0.32878118  0.13636128  1
  O  O18  1  0.44081694  0.32062516  0.03048006  1
  O  O19  1  0.89342245  0.56815878  0.02390284  1
  O  O20  1  0.68157728  0.12257059  0.02515114  1
  O  O21  1  0.43184122  0.10657755  0.52390284  1
  O  O22  1  0.67937484  0.55918306  0.53048006  1
  O  O23  1  0.87742941  0.31842272  0.52515114  1
  O  O24  1  0.55011360  0.68687975  0.96749692  1
  O  O25  1  0.12212098  0.44154759  0.97704620  1
  O  O26  1  0.31932802  0.87599177  0.97692750  1
  O  O27  1  0.55845241  0.87787902  0.47704620  1
  O  O28  1  0.31312025  0.44988640  0.46749692  1
  O  O29  1  0.12400823  0.68067198  0.47692750  1
  O  O30  1  0.15818052  0.66628796  0.36848660  1
  O  O31  1  0.50953896  0.83937583  0.36905578  1
  O  O32  1  0.33266354  0.47885921  0.35907676  1
  O  O33  1  0.16062417  0.49046104  0.86905578  1
  O  O34  1  0.33371204  0.84181948  0.86848660  1
  O  O35  1  0.52114079  0.66733646  0.85907676  1
  O  O36  1  0.01584950  0.81795875  0.41106871  1
  O  O37  1  0.80423247  0.98834437  0.41168332  1
  O  O38  1  0.18422586  0.19251987  0.40880317  1
  O  O39  1  0.01165563  0.19576753  0.91168332  1
  O  O40  1  0.18204125  0.98415050  0.91106871  1
  O  O41  1  0.80748013  0.81577414  0.90880317  1
  O  O42  1  0.97520306  0.17551930  0.58597035  1
  O  O43  1  0.18628293  0.99818568  0.58352092  1
  O  O44  1  0.83117338  0.81217180  0.58462264  1
  O  O45  1  0.00181432  0.81371707  0.08352092  1
  O  O46  1  0.82448070  0.02479694  0.08597035  1
  O  O47  1  0.18782820  0.16882662  0.08462264  1
  O  O48  1  0.64822808  0.13299354  0.74800484  1
  O  O49  1  0.49725799  0.36930212  0.75029879  1
  O  O50  1  0.85122187  0.51696977  0.74758602  1
  O  O51  1  0.63069788  0.50274201  0.25029879  1
  O  O52  1  0.86700646  0.35177192  0.24800484  1
  O  O53  1  0.48303023  0.14877813  0.24758602  1
  O  O54  1  0.63032118  0.50241705  0.90984717  1
  O  O55  1  0.87386521  0.37236412  0.91070771  1
  O  O56  1  0.49700486  0.12634027  0.91180320  1
  O  O57  1  0.62763588  0.12613479  0.41070771  1
  O  O58  1  0.49758295  0.36967882  0.40984717  1
  O  O59  1  0.87365973  0.50299514  0.41180320  1
  O  O60  1  0.32608496  0.46807544  0.08492918  1
  O  O61  1  0.14196801  0.65385089  0.08391303  1
  O  O62  1  0.51940139  0.87227304  0.08361166  1
  O  O63  1  0.34614911  0.85803199  0.58391303  1
  O  O64  1  0.53192456  0.67391504  0.58492918  1
  O  O65  1  0.12772696  0.48059861  0.58361166  1
  O  O66  1  0.33234911  0.83989401  0.26433601  1
  O  O67  1  0.50029711  0.67503322  0.26251696  1
  O  O68  1  0.17438218  0.50106978  0.26144538  1
  O  O69  1  0.32496678  0.49970289  0.76251696  1
  O  O70  1  0.16010599  0.66765089  0.76433601  1
  O  O71  1  0.49893022  0.82561782  0.76144538  1
loop_
_geom_bond_atom_site_label_1
_geom_bond_atom_site_label_2
_geom_bond_distance
_geom_bond_site_symmetry_2
Na0 O51 2.336533 1_555
Na0 O53 2.638103 1_555
Na0 O10 2.725405 1_555
Na0 O68 2.725628 1_555
Na0 O67 2.771928 1_555
Na0 O32 2.827376 1_555
Na0 O0 2.839956 1_555
Na0 O17 2.857202 1_555
Na1 O49 2.336533 1_555
Na1 O50 2.638103 1_555
Na1 O6 2.725405 1_555
Na1 O71 2.725628 1_555
Na1 O69 2.771928 1_555
Na1 O35 2.827376 1_555
Na1 O4 2.839956 1_555
Na1 O14 2.857202 1_555
Na2 O43 2.425751 1_555
Na2 O63 2.558213 1_555
Na2 O44 2.560443 1_455
Na2 O8 2.579922 1_555
Na2 O65 2.617814 1_555
Na2 O29 2.750552 1_555
Na3 O64 2.384734 1_555
Na3 O42 2.550827 1_565
Na3 O44 2.587275 1_555
Na3 O63 2.642097 1_555
Na3 O27 2.705846 1_555
Na3 O6 2.719096 1_555
Na4 O45 2.425751 1_555
Na4 O61 2.558213 1_555
Na4 O47 2.560443 1_565
Na4 O11 2.579922 1_555
Na4 O62 2.617814 1_555
Na4 O26 2.750552 1_554
Na5 O60 2.384734 1_555
Na5 O46 2.550826 1_455
Na5 O47 2.587275 1_555
Na5 O61 2.642096 1_555
Na5 O25 2.705846 1_554
Na5 O10 2.719096 1_555
Na6 O41 2.411418 1_555
Na6 O4 2.491732 1_555
Na6 O55 2.510467 1_555
Na6 O40 2.589850 1_655
Na6 O54 2.703223 1_555
Na6 O19 2.864896 1_556
Na7 O5 2.397160 1_555
Na7 O39 2.467701 1_655
Na7 O56 2.530403 1_555
Na7 O41 2.614342 1_545
Na7 O55 2.758744 1_555
Na7 O20 2.926624 1_556
Na8 O3 2.234756 1_555
Na8 O40 2.506063 1_545
Na8 O54 2.506848 1_555
Na8 O39 2.639710 1_555
Na8 O56 2.706952 1_555
Na9 O2 2.397160 1_555
Na9 O37 2.467701 1_545
Na9 O59 2.530403 1_555
Na9 O38 2.614342 1_655
Na9 O57 2.758744 1_555
Na9 O23 2.926624 1_555
Na10 O38 2.411418 1_555
Na10 O0 2.491732 1_555
Na10 O57 2.510467 1_555
Na10 O36 2.589850 1_545
Na10 O58 2.703223 1_555
Na10 O21 2.864896 1_555
Na11 O1 2.234756 1_555
Na11 O36 2.506063 1_655
Na11 O58 2.506848 1_555
Na11 O37 2.639710 1_555
Na11 O59 2.706952 1_555
Na12 O38 2.529314 1_555
Na12 O43 2.628820 1_545
Na12 O37 2.685880 1_445
Na12 O36 2.688708 1_545
Na12 O42 2.703671 1_455
Na12 O44 2.785433 1_445
Na13 O41 2.529314 1_555
Na13 O45 2.628820 1_656
Na13 O39 2.685880 1_665
Na13 O40 2.688708 1_655
Na13 O46 2.703671 1_566
Na13 O47 2.785433 1_666
Na14 O48 2.402600 1_555
Na14 O50 2.520487 1_555
Na14 O49 2.522696 1_555
Na14 O56 2.637311 1_555
Na14 O55 2.644125 1_555
Na14 O54 2.758998 1_555
Na15 O52 2.402600 1_555
Na15 O53 2.520487 1_555
Na15 O51 2.522696 1_555
Na15 O59 2.637311 1_555
Na15 O57 2.644125 1_555
Na15 O58 2.758998 1_555
Na16 O67 2.502719 1_555
Na16 O62 2.610949 1_555
Na16 O66 2.634856 1_555
Na16 O68 2.687381 1_555
Na16 O61 2.761011 1_555
Na16 O60 2.779725 1_555
Na17 O69 2.502719 1_555
Na17 O65 2.610949 1_555
Na17 O70 2.634856 1_555
Na17 O71 2.687381 1_555
Na17 O63 2.761011 1_555
Na17 O64 2.779725 1_555
Ca0 O0 2.236847 1_665
Ca0 O1 2.242394 1_555
Ca0 O2 2.255271 1_565
Ca0 O37 2.350397 1_555
Ca0 O36 2.357434 1_655
Ca0 O38 2.397898 1_665
Ca1 O4 2.236847 1_445
Ca1 O3 2.242394 1_555
Ca1 O5 2.255271 1_455
Ca1 O39 2.350397 1_555
Ca1 O40 2.357434 1_545
Ca1 O41 2.397898 1_445
Ca2 O7 2.214215 1_555
Ca2 O8 2.347629 1_545
Ca2 O6 2.390725 1_445
Ca2 O42 2.449738 1_455
Ca2 O43 2.465731 1_545
Ca2 O44 2.533427 1_445
Ca3 O9 2.214215 1_555
Ca3 O11 2.347630 1_655
Ca3 O10 2.390725 1_665
Ca3 O46 2.449738 1_565
Ca3 O45 2.465731 1_655
Ca3 O47 2.533427 1_665
Ca4 O48 2.245244 1_555
Ca4 O49 2.277050 1_555
Ca4 O13 2.285991 1_555
Ca4 O12 2.291663 1_555
Ca4 O50 2.291821 1_555
Ca4 O14 2.364030 1_555
Ca5 O52 2.245244 1_555
Ca5 O51 2.277050 1_555
Ca5 O15 2.285991 1_555
Ca5 O16 2.291663 1_555
Ca5 O53 2.291821 1_555
Ca5 O17 2.364030 1_555
Ca6 O54 2.334421 1_555
Ca6 O20 2.350932 1_556
Ca6 O18 2.363976 1_556
Ca6 O19 2.372025 1_556
Ca6 O55 2.381173 1_555
Ca6 O56 2.388991 1_555
Ca7 O58 2.334421 1_555
Ca7 O23 2.350932 1_555
Ca7 O22 2.363976 1_555
Ca7 O21 2.372025 1_555
Ca7 O57 2.381173 1_555
Ca7 O59 2.388991 1_555
Ca8 O24 2.164595 1_554
Ca8 O26 2.251867 1_554
Ca8 O25 2.258613 1_554
Ca8 O60 2.392070 1_555
Ca8 O62 2.399630 1_555
Ca8 O61 2.403375 1_555
Ca9 O28 2.164595 1_555
Ca9 O29 2.251867 1_555
Ca9 O27 2.258613 1_555
Ca9 O64 2.392070 1_555
Ca9 O65 2.399630 1_555
Ca9 O63 2.403375 1_555
Nb0 O66 1.980802 1_555
Nb0 O67 1.992681 1_555
Nb0 O30 2.002003 1_555
Nb0 O68 2.005658 1_555
Nb0 O31 2.009812 1_555
Nb0 O32 2.045532 1_555
Nb1 O70 1.980802 1_555
Nb1 O69 1.992681 1_555
Nb1 O34 2.002003 1_555
Nb1 O71 2.005658 1_555
Nb1 O33 2.009812 1_555
Nb1 O35 2.045532 1_555
O0 P0 1.535436 1_545
O1 P1 1.524213 1_555
O2 P2 1.531904 1_655
O3 P3 1.524213 1_555
O4 P4 1.535436 1_655
O5 P5 1.531904 1_545
O6 P5 1.552924 1_555
O7 P3 1.522626 1_555
O8 P4 1.540314 1_555
O9 P1 1.522626 1_555
O10 P2 1.552924 1_555
O11 P0 1.540314 1_555
O12 S0 1.472872 1_555
O13 S1 1.464932 1_555
O14 S2 1.471100 1_555
O15 S3 1.464932 1_555
O16 S4 1.472872 1_555
O17 S5 1.471100 1_555
O18 S5 1.489574 1_555
O19 S3 1.487926 1_555
O20 S4 1.494165 1_555
O21 S1 1.487926 1_555
O22 S2 1.489574 1_555
O23 S0 1.494165 1_555
O24 P6 1.517501 1_555
O25 P7 1.528656 1_555
O26 P8 1.527900 1_555
O27 P9 1.528656 1_555
O28 P10 1.517501 1_555
O29 P11 1.527900 1_555
O30 P11 1.609390 1_555
O31 P9 1.606055 1_555
O32 P10 1.597054 1_555
O33 P7 1.606055 1_555
O34 P8 1.609390 1_555
O35 P6 1.597054 1_555
O36 P11 1.540857 1_555
O37 P9 1.542758 1_555
O38 P10 1.545413 1_555
O39 P7 1.542758 1_555
O40 P8 1.540857 1_555
O41 P6 1.545413 1_555
O42 S0 1.495013 1_555
O43 S1 1.495133 1_565
O44 S2 1.506931 1_555
O45 S3 1.495132 1_455
O46 S4 1.495013 1_555
O47 S5 1.506931 1_555
O48 P5 1.518673 1_545
O49 P3 1.538675 1_555
O50 P4 1.529911 1_655
O51 P1 1.538675 1_555
O52 P2 1.518673 1_655
O53 P0 1.529911 1_545
O54 P6 1.552061 1_555
O55 P7 1.550560 1_655
O56 P8 1.549815 1_545
O57 P9 1.550560 1_545
O58 P10 1.552061 1_555
O59 P11 1.549815 1_655
O60 S5 1.495582 1_555
O61 S3 1.511117 1_455
O62 S4 1.494657 1_565
O63 S1 1.511117 1_565
O64 S2 1.495582 1_555
O65 S0 1.494657 1_455
O66 P0 1.600093 1_555
O67 P1 1.611355 1_555
O68 P2 1.614655 1_555
O69 P3 1.611355 1_555
O70 P4 1.600093 1_555
O71 P5 1.614655 1_555
