# generated using pymatgen
data_Sr4Mg(Fe2O5)2
_symmetry_space_group_name_H-M   'P 1'
_cell_length_a   5.59329992
_cell_length_b   5.56820232
_cell_length_c   9.39505785
_cell_angle_alpha   107.92305141
_cell_angle_beta   108.00500440
_cell_angle_gamma   87.79732682
_symmetry_Int_Tables_number   1
_chemical_formula_structural   Sr4Mg(Fe2O5)2
_chemical_formula_sum   'Sr4 Mg1 Fe4 O10'
_cell_volume   264.25187206
_cell_formula_units_Z   1
loop_
 _symmetry_equiv_pos_site_id
 _symmetry_equiv_pos_as_xyz
  1  'x, y, z'
loop_
 _atom_site_type_symbol
 _atom_site_label
 _atom_site_symmetry_multiplicity
 _atom_site_fract_x
 _atom_site_fract_y
 _atom_site_fract_z
 _atom_site_occupancy
  Sr  Sr0  1  0.36317261  0.87113110  0.79712229  1
  Sr  Sr1  1  0.55022724  0.08184495  0.21100344  1
  Sr  Sr2  1  0.83925455  0.37082062  0.78899798  1
  Sr  Sr3  1  0.06607410  0.57403600  0.20287311  1
  Mg  Mg0  1  0.09407588  0.13299353  0.50002472  1
  Fe  Fe0  1  0.94801520  0.96214085  0.97032587  1
  Fe  Fe1  1  0.47768875  0.49177859  0.02966000  1
  Fe  Fe2  1  0.81395414  0.66346944  0.49997404  1
  Fe  Fe3  1  0.39949428  0.45368557  0.49998961  1
  O  O0  1  0.70974732  0.22581695  0.99652301  1
  O  O1  1  0.71876005  0.73557021  0.01074031  1
  O  O2  1  0.20803772  0.22484520  0.98926659  1
  O  O3  1  0.21320178  0.72927980  0.00347185  1
  O  O4  1  0.82682992  0.83402848  0.73333235  1
  O  O5  1  0.15946760  0.18591467  0.31242868  1
  O  O6  1  0.34711804  0.37352185  0.68760226  1
  O  O7  1  0.59346616  0.60062072  0.26665246  1
  O  O8  1  0.16236305  0.77172385  0.50002313  1
  O  O9  1  0.75082360  0.28969162  0.49999131  1
loop_
_geom_bond_atom_site_label_1
_geom_bond_atom_site_label_2
_geom_bond_distance
_geom_bond_site_symmetry_2
Mg0 O5 2.013302 1_555
Mg0 O6 2.013384 1_555
Mg0 O8 2.033085 1_545
Mg0 O9 2.078075 1_455
Fe0 O3 1.947667 1_656
Fe0 O0 1.955058 1_565
Fe0 O4 2.013084 1_555
Fe0 O1 2.024902 1_556
Fe0 O2 2.032237 1_665
Fe1 O0 1.947586 1_554
Fe1 O3 1.955193 1_555
Fe1 O7 2.013079 1_555
Fe1 O2 2.024677 1_554
Fe1 O1 2.032209 1_555
Fe2 O8 2.061690 1_655
Fe2 O7 2.082871 1_555
Fe2 O4 2.083252 1_555
Fe2 O9 2.124408 1_555
Fe3 O5 2.050595 1_555
Fe3 O6 2.050722 1_555
Fe3 O9 2.134825 1_555
Fe3 O8 2.171324 1_555
O0 Sr2 2.620104 1_555
O0 Sr0 2.634367 1_545
O0 Sr3 2.661775 1_656
O0 Sr1 2.767656 1_556
O1 Sr3 2.557028 1_655
O1 Sr1 2.621102 1_565
O1 Sr0 2.627307 1_554
O1 Sr2 2.660420 1_554
O2 Sr0 2.557248 1_545
O2 Sr2 2.620834 1_455
O2 Sr3 2.627415 1_556
O2 Sr1 2.660081 1_556
O3 Sr1 2.620218 1_565
O3 Sr3 2.634099 1_555
O3 Sr0 2.661702 1_554
O3 Sr2 2.767488 1_454
O4 Sr2 2.779346 1_555
O4 Sr0 2.823275 1_555
O4 Sr2 2.871178 1_565
O4 Sr0 2.874263 1_655
O5 Sr1 2.621281 1_555
O5 Sr3 2.636803 1_555
O6 Sr2 2.620964 1_555
O6 Sr0 2.636540 1_555
O7 Sr1 2.778872 1_555
O7 Sr3 2.822924 1_555
O7 Sr1 2.871605 1_565
O7 Sr3 2.874591 1_655
O8 Sr0 2.553003 1_555
O8 Sr3 2.553476 1_555
O9 Sr1 2.500492 1_555
O9 Sr2 2.500641 1_555
