# generated using pymatgen
data_MgZn2(NiS2)4
_symmetry_space_group_name_H-M   'P 1'
_cell_length_a   8.01863106
_cell_length_b   8.01838856
_cell_length_c   6.62965505
_cell_angle_alpha   114.12850819
_cell_angle_beta   114.82164354
_cell_angle_gamma   108.37687847
_symmetry_Int_Tables_number   1
_chemical_formula_structural   MgZn2(NiS2)4
_chemical_formula_sum   'Mg1 Zn2 Ni4 S8'
_cell_volume   285.65123324
_cell_formula_units_Z   1
loop_
 _symmetry_equiv_pos_site_id
 _symmetry_equiv_pos_as_xyz
  1  'x, y, z'
loop_
 _atom_site_type_symbol
 _atom_site_label
 _atom_site_symmetry_multiplicity
 _atom_site_fract_x
 _atom_site_fract_y
 _atom_site_fract_z
 _atom_site_occupancy
  Mg  Mg0  1  0.86208194  0.11206567  0.75042887  1
  Zn  Zn0  1  0.37989426  0.62983578  0.75096461  1
  Zn  Zn1  1  0.62157398  0.37160504  0.25029025  1
  Ni  Ni0  1  0.04170393  0.95996888  0.49534412  1
  Ni  Ni1  1  0.96405262  0.54577847  0.00435842  1
  Ni  Ni2  1  0.45249400  0.03987673  0.49520631  1
  Ni  Ni3  1  0.04494044  0.95757730  0.00455076  1
  S  S0  1  0.80246973  0.75527820  0.52700998  1
  S  S1  1  0.72774472  0.27488061  0.97275204  1
  S  S2  1  0.23836823  0.20313795  0.96960387  1
  S  S3  1  0.24206736  0.20272590  0.47102787  1
  S  S4  1  0.23012322  0.77368555  0.47508017  1
  S  S5  1  0.23122171  0.77055704  0.02875552  1
  S  S6  1  0.73296430  0.26814150  0.53007573  1
  S  S7  1  0.79866956  0.75525538  0.02455148  1
loop_
_geom_bond_atom_site_label_1
_geom_bond_atom_site_label_2
_geom_bond_distance
_geom_bond_site_symmetry_2
Mg0 S1 2.384059 1_555
Mg0 S0 2.384491 1_545
Mg0 S2 2.410580 1_655
Mg0 S6 2.411241 1_555
Mg0 Ni3 2.701903 1_646
Mg0 Ni2 2.705489 1_555
Mg0 Ni1 2.803873 1_556
Mg0 Ni0 2.808596 1_645
Ni0 S3 2.213217 1_565
Ni0 S7 2.218450 1_455
Ni0 S0 2.247769 1_455
Ni0 S2 2.249584 1_565
Ni0 S4 2.441556 1_555
Ni1 S5 2.213671 1_655
Ni1 S4 2.217960 1_655
Ni1 S1 2.247665 1_554
Ni1 S6 2.249581 1_554
Ni1 S7 2.442864 1_555
Ni2 S5 2.211819 1_545
Ni2 S4 2.218266 1_545
Ni2 S1 2.253642 1_555
Ni2 S6 2.254665 1_555
Ni2 S3 2.431289 1_555
Ni3 S3 2.212039 1_565
Ni3 S7 2.219190 1_455
Ni3 S0 2.253733 1_454
Ni3 S2 2.255077 1_564
Ni3 S5 2.431796 1_555
S0 Zn1 2.296060 1_555
S1 Zn1 2.297094 1_556
S2 Zn1 2.292685 1_556
S3 Zn0 2.662616 1_555
S4 Zn0 2.621461 1_555
S5 Zn0 2.660581 1_554
S6 Zn1 2.293678 1_555
S7 Zn0 2.615926 1_554
