# generated using pymatgen
data_Rb6Sn2S7
_symmetry_space_group_name_H-M   'P 1'
_cell_length_a   9.98624413
_cell_length_b   13.56160615
_cell_length_c   14.99564812
_cell_angle_alpha   90.00000000
_cell_angle_beta   90.00000000
_cell_angle_gamma   90.00000000
_symmetry_Int_Tables_number   1
_chemical_formula_structural   Rb6Sn2S7
_chemical_formula_sum   'Rb24 Sn8 S28'
_cell_volume   2030.85327416
_cell_formula_units_Z   4
loop_
 _symmetry_equiv_pos_site_id
 _symmetry_equiv_pos_as_xyz
  1  'x, y, z'
loop_
 _atom_site_type_symbol
 _atom_site_label
 _atom_site_symmetry_multiplicity
 _atom_site_fract_x
 _atom_site_fract_y
 _atom_site_fract_z
 _atom_site_occupancy
  Rb  Rb0  1  0.93680226  0.18322788  0.88082860  1
  Rb  Rb1  1  0.96967768  0.83589883  0.18904356  1
  Rb  Rb2  1  0.46967768  0.66410117  0.81095644  1
  Rb  Rb3  1  0.03032232  0.33589883  0.31095644  1
  Rb  Rb4  1  0.53032232  0.16410117  0.68904356  1
  Rb  Rb5  1  0.72242690  0.86608310  0.93395862  1
  Rb  Rb6  1  0.22242690  0.63391690  0.06604138  1
  Rb  Rb7  1  0.27757310  0.36608310  0.56604138  1
  Rb  Rb8  1  0.85179857  0.42992210  0.08734239  1
  Rb  Rb9  1  0.35179857  0.07007790  0.91265761  1
  Rb  Rb10  1  0.14820143  0.92992210  0.41265761  1
  Rb  Rb11  1  0.64820143  0.57007790  0.58734239  1
  Rb  Rb12  1  0.85698440  0.34734418  0.64439041  1
  Rb  Rb13  1  0.35698440  0.15265582  0.35560959  1
  Rb  Rb14  1  0.14301560  0.84734418  0.85560959  1
  Rb  Rb15  1  0.64301560  0.65265582  0.14439041  1
  Rb  Rb16  1  0.77757310  0.13391690  0.43395862  1
  Rb  Rb17  1  0.75323333  0.88414275  0.62362150  1
  Rb  Rb18  1  0.06319774  0.68322788  0.61917140  1
  Rb  Rb19  1  0.56319774  0.81677212  0.38082860  1
  Rb  Rb20  1  0.74676667  0.11585725  0.12362150  1
  Rb  Rb21  1  0.24676667  0.38414275  0.87637850  1
  Rb  Rb22  1  0.25323333  0.61585725  0.37637850  1
  Rb  Rb23  1  0.43680226  0.31677212  0.11917140  1
  Sn  Sn0  1  0.87790451  0.60383098  0.38171543  1
  Sn  Sn1  1  0.92300949  0.60827606  0.86349206  1
  Sn  Sn2  1  0.42300949  0.89172394  0.13650794  1
  Sn  Sn3  1  0.07699051  0.10827606  0.63650794  1
  Sn  Sn4  1  0.57699051  0.39172394  0.36349206  1
  Sn  Sn5  1  0.62209549  0.39616902  0.88171543  1
  Sn  Sn6  1  0.12209549  0.10383098  0.11828457  1
  Sn  Sn7  1  0.37790451  0.89616902  0.61828457  1
  S  S0  1  0.61492786  0.23028721  0.93526755  1
  S  S1  1  0.11492786  0.26971279  0.06473245  1
  S  S2  1  0.38507214  0.73028721  0.56473245  1
  S  S3  1  0.88507214  0.76971279  0.43526755  1
  S  S4  1  0.59543490  0.32661989  0.50908081  1
  S  S5  1  0.09543490  0.17338011  0.49091919  1
  S  S6  1  0.40456510  0.82661989  0.99091919  1
  S  S7  1  0.90456510  0.67338011  0.00908081  1
  S  S8  1  0.70562568  0.30078975  0.25897825  1
  S  S9  1  0.20562568  0.19921025  0.74102175  1
  S  S10  1  0.29437432  0.80078975  0.24102175  1
  S  S11  1  0.79437432  0.69921025  0.75897825  1
  S  S12  1  0.84729949  0.10368967  0.67803250  1
  S  S13  1  0.34729949  0.39631033  0.32196750  1
  S  S14  1  0.15270051  0.60368967  0.82196750  1
  S  S15  1  0.65270051  0.89631033  0.17803250  1
  S  S16  1  0.97727720  0.49646998  0.48908638  1
  S  S17  1  0.47727720  0.00353002  0.51091362  1
  S  S18  1  0.02272280  0.99646998  0.01091362  1
  S  S19  1  0.52272280  0.50353002  0.98908638  1
  S  S20  1  0.52584837  0.41481336  0.73899349  1
  S  S21  1  0.02584837  0.08518664  0.26100651  1
  S  S22  1  0.47415163  0.91481336  0.76100651  1
  S  S23  1  0.97415163  0.58518664  0.23899349  1
  S  S24  1  0.86765658  0.42894651  0.86349189  1
  S  S25  1  0.63234342  0.57105349  0.36349189  1
  S  S26  1  0.13234342  0.92894651  0.63650811  1
  S  S27  1  0.36765658  0.07105349  0.13650811  1
loop_
_geom_bond_atom_site_label_1
_geom_bond_atom_site_label_2
_geom_bond_distance
_geom_bond_site_symmetry_2
Rb0 S18 3.310019 1_646
Rb0 S12 3.348198 1_555
Rb0 S0 3.377211 1_555
Rb0 S24 3.413044 1_555
Rb0 S9 3.413064 1_655
Rb0 S1 3.484969 1_656
Rb1 S15 3.273883 1_555
Rb1 S10 3.368686 1_655
Rb1 S23 3.481875 1_555
Rb1 S18 3.486793 1_655
Rb1 S7 3.544466 1_555
Rb1 S21 3.592853 1_665
Rb1 S3 3.892621 1_555
Rb2 S14 3.273883 1_555
Rb2 S11 3.368686 1_555
Rb2 S22 3.481875 1_555
Rb2 S19 3.486793 1_555
Rb2 S6 3.544466 1_555
Rb2 S20 3.592853 1_555
Rb2 S2 3.892621 1_555
Rb3 S13 3.273883 1_555
Rb3 S8 3.368686 1_455
Rb3 S21 3.481875 1_555
Rb3 S16 3.486793 1_455
Rb3 S5 3.544466 1_555
Rb3 S23 3.592853 1_455
Rb3 S1 3.892621 1_555
Rb4 S12 3.273883 1_555
Rb4 S9 3.368686 1_555
Rb4 S20 3.481875 1_555
Rb4 S17 3.486793 1_555
Rb4 S4 3.544466 1_555
Rb4 S22 3.592853 1_545
Rb4 S0 3.892621 1_555
Rb5 S6 3.330443 1_555
Rb5 S7 3.377423 1_556
Rb5 S11 3.538751 1_555
Rb5 S22 3.648321 1_555
Rb5 S18 3.667614 1_656
Rb5 S15 3.748176 1_556
Rb6 S7 3.330443 1_455
Rb6 S6 3.377423 1_554
Rb6 S10 3.538751 1_555
Rb6 S23 3.648321 1_455
Rb6 S19 3.667614 1_554
Rb6 S14 3.748176 1_554
Rb7 S4 3.330443 1_555
Rb7 S5 3.377423 1_555
Rb7 S9 3.538751 1_555
Rb7 S20 3.648321 1_555
Rb7 S16 3.667614 1_455
Rb7 S13 3.748176 1_555
Rb8 S23 3.331393 1_555
Rb8 S24 3.360543 1_554
Rb8 S1 3.426402 1_655
Rb8 S8 3.438317 1_555
Rb8 S7 3.543454 1_555
Rb8 S19 3.737211 1_554
Rb9 S22 3.331393 1_545
Rb9 S27 3.360543 1_556
Rb9 S0 3.426402 1_555
Rb9 S9 3.438317 1_555
Rb9 S6 3.543454 1_545
Rb9 S18 3.737211 1_546
Rb10 S21 3.331393 1_565
Rb10 S26 3.360543 1_555
Rb10 S3 3.426402 1_455
Rb10 S10 3.438317 1_555
Rb10 S5 3.543454 1_565
Rb10 S17 3.737211 1_565
Rb11 S20 3.331393 1_555
Rb11 S25 3.360543 1_555
Rb11 S2 3.426402 1_555
Rb11 S11 3.438317 1_555
Rb11 S4 3.543454 1_555
Rb11 S16 3.737211 1_555
Rb12 S16 3.310106 1_555
Rb12 S4 3.319347 1_555
Rb12 S12 3.344034 1_555
Rb12 S24 3.468575 1_555
Rb12 S20 3.712774 1_555
Rb13 S17 3.310106 1_555
Rb13 S5 3.319347 1_555
Rb13 S13 3.344034 1_555
Rb13 S27 3.468575 1_555
Rb13 S21 3.712774 1_555
Rb14 S18 3.310106 1_556
Rb14 S6 3.319347 1_555
Rb14 S14 3.344034 1_555
Rb14 S26 3.468575 1_555
Rb14 S22 3.712774 1_555
Rb15 S19 3.310106 1_554
Rb15 S7 3.319347 1_555
Rb15 S15 3.344034 1_555
Rb15 S25 3.468575 1_555
Rb15 S23 3.712774 1_555
Rb16 S5 3.330443 1_655
Rb16 S4 3.377423 1_555
Rb16 S8 3.538751 1_555
Rb16 S21 3.648321 1_655
Rb16 S17 3.667614 1_555
Rb16 S12 3.748176 1_555
Rb17 S12 3.226936 1_565
Rb17 S11 3.252491 1_555
Rb17 S3 3.481287 1_555
Rb17 S22 3.490642 1_555
Rb17 S17 3.615550 1_565
Rb17 S26 3.839201 1_655
Rb18 S16 3.310019 1_455
Rb18 S14 3.348198 1_555
Rb18 S2 3.377211 1_555
Rb18 S26 3.413044 1_555
Rb18 S11 3.413064 1_455
Rb18 S3 3.484969 1_455
Rb19 S17 3.310019 1_565
Rb19 S15 3.348198 1_555
Rb19 S3 3.377211 1_555
Rb19 S25 3.413044 1_555
Rb19 S10 3.413064 1_555
Rb19 S2 3.484969 1_555
Rb20 S15 3.226936 1_545
Rb20 S8 3.252491 1_555
Rb20 S0 3.481287 1_554
Rb20 S21 3.490642 1_655
Rb20 S18 3.615550 1_645
Rb20 S27 3.839201 1_555
Rb21 S14 3.226936 1_555
Rb21 S9 3.252491 1_555
Rb21 S1 3.481287 1_556
Rb21 S20 3.490642 1_555
Rb21 S19 3.615550 1_555
Rb21 S24 3.839201 1_455
Rb22 S13 3.226936 1_555
Rb22 S10 3.252491 1_555
Rb22 S2 3.481287 1_555
Rb22 S23 3.490642 1_455
Rb22 S16 3.615550 1_455
Rb22 S25 3.839201 1_555
Rb23 S19 3.310019 1_554
Rb23 S13 3.348198 1_555
Rb23 S1 3.377211 1_555
Rb23 S27 3.413044 1_555
Rb23 S8 3.413064 1_555
Rb23 S0 3.484969 1_554
S0 Sn5 2.389732 1_555
S1 Sn6 2.389732 1_555
S2 Sn7 2.389732 1_555
S3 Sn0 2.389732 1_555
S4 Sn4 2.362164 1_555
S5 Sn3 2.362164 1_555
S6 Sn2 2.362164 1_556
S7 Sn1 2.362164 1_554
S8 Sn4 2.372182 1_555
S9 Sn3 2.372182 1_555
S10 Sn2 2.372182 1_555
S11 Sn1 2.372182 1_555
S12 Sn3 2.377583 1_655
S13 Sn4 2.377583 1_555
S14 Sn1 2.377583 1_455
S15 Sn2 2.377583 1_555
S16 Sn0 2.386858 1_555
S17 Sn7 2.386858 1_545
S18 Sn6 2.386858 1_565
S19 Sn5 2.386858 1_555
S20 Sn5 2.359709 1_555
S21 Sn6 2.359709 1_555
S22 Sn7 2.359709 1_555
S23 Sn0 2.359709 1_555
S24 Sn1 2.494025 1_555
S24 Sn5 2.507134 1_555
S25 Sn4 2.494025 1_555
S25 Sn0 2.507134 1_555
S26 Sn3 2.494025 1_565
S26 Sn7 2.507134 1_555
S27 Sn2 2.494025 1_545
S27 Sn6 2.507134 1_555
