# generated using pymatgen
data_Na2Y3Ta5(PO4)12
_symmetry_space_group_name_H-M   'P 1'
_cell_length_a   17.78500951
_cell_length_b   8.90031811
_cell_length_c   23.17474696
_cell_angle_alpha   89.96365898
_cell_angle_beta   90.05304094
_cell_angle_gamma   119.99281417
_symmetry_Int_Tables_number   1
_chemical_formula_structural   Na2Y3Ta5(PO4)12
_chemical_formula_sum   'Na6 Y9 Ta15 P36 O144'
_cell_volume   3177.14116339
_cell_formula_units_Z   3
loop_
 _symmetry_equiv_pos_site_id
 _symmetry_equiv_pos_as_xyz
  1  'x, y, z'
loop_
 _atom_site_type_symbol
 _atom_site_label
 _atom_site_symmetry_multiplicity
 _atom_site_fract_x
 _atom_site_fract_y
 _atom_site_fract_z
 _atom_site_occupancy
  Na  Na0  1  0.33118942  0.32959315  0.82955238  1
  Na  Na1  1  0.83559001  0.33743415  0.83039648  1
  Na  Na2  1  0.33121551  0.32829445  0.32927457  1
  Na  Na3  1  0.83503646  0.33865633  0.32753860  1
  Na  Na4  1  0.66798132  0.66661255  0.16707234  1
  Na  Na5  1  0.16589243  0.66544067  0.66455341  1
  Y  Y0  1  0.99365834  0.99621063  0.36059985  1
  Y  Y1  1  0.33831191  0.33523532  0.69085389  1
  Y  Y2  1  0.82828087  0.33064020  0.68950426  1
  Y  Y3  1  0.33107878  0.33132110  0.18903828  1
  Y  Y4  1  0.83490365  0.33436960  0.18758390  1
  Y  Y5  1  0.66705543  0.66769556  0.01565689  1
  Y  Y6  1  0.17137569  0.67398259  0.51857946  1
  Y  Y7  1  0.66929388  0.66890987  0.31060774  1
  Y  Y8  1  0.16610038  0.66667478  0.81056291  1
  Ta  Ta0  1  0.50294751  0.00380292  0.35726475  1
  Ta  Ta1  1  0.00300142  0.00218359  0.85681649  1
  Ta  Ta2  1  0.49691157  0.99703842  0.85664050  1
  Ta  Ta3  1  0.99736485  0.99715523  0.64187815  1
  Ta  Ta4  1  0.50318837  0.00370687  0.64176234  1
  Ta  Ta5  1  0.00346562  0.00346775  0.14597505  1
  Ta  Ta6  1  0.49695108  0.99712152  0.14365111  1
  Ta  Ta7  1  0.33601128  0.33725683  0.98379355  1
  Ta  Ta8  1  0.83090094  0.32856363  0.98341337  1
  Ta  Ta9  1  0.33043446  0.33376609  0.48109151  1
  Ta  Ta10  1  0.83719897  0.33673402  0.48266711  1
  Ta  Ta11  1  0.16589559  0.66560577  0.01789432  1
  Ta  Ta12  1  0.66393384  0.66477818  0.51848013  1
  Ta  Ta13  1  0.16567327  0.66494671  0.31073966  1
  Ta  Ta14  1  0.66752609  0.66724629  0.81099442  1
  P  P0  1  0.14072154  0.98997862  0.25191177  1
  P  P1  1  0.63794286  0.99749636  0.24983210  1
  P  P2  1  0.35839280  0.72294738  0.25382545  1
  P  P3  1  0.85478785  0.71662228  0.24693420  1
  P  P4  1  0.00557038  0.29327756  0.25095418  1
  P  P5  1  0.50066243  0.27819420  0.24986584  1
  P  P6  1  0.13821386  0.27708643  0.74929064  1
  P  P7  1  0.63674572  0.28346335  0.75290737  1
  P  P8  1  0.99999644  0.72340567  0.74939203  1
  P  P9  1  0.50525732  0.72689882  0.75266273  1
  P  P10  1  0.36150629  0.99548651  0.74876220  1
  P  P11  1  0.85860133  0.99463065  0.75332347  1
  P  P12  1  0.47883795  0.33128345  0.58098997  1
  P  P13  1  0.97794629  0.33083211  0.58636521  1
  P  P14  1  0.18621172  0.04799826  0.58527845  1
  P  P15  1  0.68837282  0.03933834  0.58227286  1
  P  P16  1  0.33734769  0.62677916  0.58608685  1
  P  P17  1  0.83161358  0.62509825  0.58154947  1
  P  P18  1  0.47889339  0.62859385  0.08552393  1
  P  P19  1  0.98019326  0.63034037  0.08065760  1
  P  P20  1  0.33235531  0.03867475  0.08146325  1
  P  P21  1  0.83762617  0.04138429  0.08473400  1
  P  P22  1  0.18733211  0.33538054  0.08195883  1
  P  P23  1  0.68310639  0.32448509  0.08398307  1
  P  P24  1  0.31255310  0.66277037  0.91773322  1
  P  P25  1  0.81305757  0.66009083  0.91352219  1
  P  P26  1  0.01818584  0.37290961  0.91763050  1
  P  P27  1  0.51774025  0.37600051  0.91355532  1
  P  P28  1  0.16975526  0.96428544  0.91791160  1
  P  P29  1  0.66908948  0.96404164  0.91334922  1
  P  P30  1  0.31290932  0.96638695  0.41322178  1
  P  P31  1  0.80727652  0.96120044  0.42052506  1
  P  P32  1  0.17406117  0.38519164  0.41565951  1
  P  P33  1  0.66921217  0.37586118  0.41835258  1
  P  P34  1  0.01837847  0.64957402  0.41593872  1
  P  P35  1  0.51878733  0.66314415  0.41745497  1
  O  O0  1  0.09911538  0.01587644  0.30441249  1
  O  O1  1  0.58940327  0.00251461  0.30573490  1
  O  O2  1  0.41585004  0.81966063  0.30674100  1
  O  O3  1  0.90164450  0.79971659  0.30241960  1
  O  O4  1  0.50113049  0.17497187  0.30442589  1
  O  O5  1  0.99077168  0.18784404  0.30475863  1
  O  O6  1  0.08961273  0.17625288  0.80568616  1
  O  O7  1  0.58718851  0.17114509  0.80524708  1
  O  O8  1  0.49579883  0.81952211  0.80629012  1
  O  O9  1  0.00095991  0.82683285  0.80446066  1
  O  O10  1  0.41098399  0.99399176  0.80417562  1
  O  O11  1  0.91507540  0.01180783  0.80678030  1
  O  O12  1  0.41269899  0.99220883  0.69404319  1
  O  O13  1  0.89917827  0.97184635  0.69748376  1
  O  O14  1  0.08310089  0.17508423  0.69535392  1
  O  O15  1  0.58710631  0.20123175  0.69604450  1
  O  O16  1  0.00081575  0.82426759  0.69383988  1
  O  O17  1  0.51673508  0.83530750  0.69749095  1
  O  O18  1  0.40024747  0.82722694  0.19734628  1
  O  O19  1  0.91126646  0.83106428  0.19259101  1
  O  O20  1  0.01623391  0.19886169  0.19584065  1
  O  O21  1  0.50107545  0.17807668  0.19371168  1
  O  O22  1  0.08770100  0.97431554  0.19466315  1
  O  O23  1  0.58296658  0.99075309  0.19521073  1
  O  O24  1  0.44827860  0.37589159  0.63533970  1
  O  O25  1  0.93549697  0.35613688  0.63909054  1
  O  O26  1  0.24155322  0.13174746  0.63778739  1
  O  O27  1  0.74072354  0.10109317  0.63703340  1
  O  O28  1  0.32581369  0.52175463  0.63961888  1
  O  O29  1  0.80896644  0.51461668  0.63504208  1
  O  O30  1  0.43844696  0.51743646  0.13791472  1
  O  O31  1  0.94876609  0.51858643  0.13336058  1
  O  O32  1  0.30931552  0.10511573  0.13386207  1
  O  O33  1  0.82206315  0.11963241  0.13752237  1
  O  O34  1  0.24224030  0.38366874  0.13535196  1
  O  O35  1  0.73889950  0.35381934  0.13600949  1
  O  O36  1  0.23636906  0.30713960  0.02997501  1
  O  O37  1  0.73289388  0.30346469  0.02897753  1
  O  O38  1  0.41986636  0.52907913  0.03088559  1
  O  O39  1  0.91619795  0.53268586  0.02802759  1
  O  O40  1  0.34955149  0.16501739  0.02881089  1
  O  O41  1  0.84536414  0.16257172  0.03029145  1
  O  O42  1  0.23363348  0.16329798  0.52981549  1
  O  O43  1  0.73409515  0.16556586  0.53146584  1
  O  O44  1  0.34655395  0.52994470  0.53166551  1
  O  O45  1  0.85012041  0.53515340  0.52989993  1
  O  O46  1  0.41621402  0.29793063  0.52923945  1
  O  O47  1  0.91943671  0.30890971  0.53190630  1
  O  O48  1  0.26585499  0.69218264  0.96900571  1
  O  O49  1  0.78209888  0.70519790  0.96722725  1
  O  O50  1  0.08035975  0.46825007  0.96882370  1
  O  O51  1  0.57040017  0.43579353  0.96765501  1
  O  O52  1  0.15462211  0.84006176  0.96895517  1
  O  O53  1  0.64652392  0.85844373  0.96741701  1
  O  O54  1  0.28442160  0.86435249  0.46826835  1
  O  O55  1  0.75290512  0.83703666  0.47061641  1
  O  O56  1  0.16382192  0.46204796  0.47036528  1
  O  O57  1  0.65291548  0.46796738  0.46971711  1
  O  O58  1  0.06894698  0.67408216  0.47009320  1
  O  O59  1  0.57792829  0.69000095  0.47015251  1
  O  O60  1  0.06678736  0.62604390  0.36218359  1
  O  O61  1  0.55116187  0.61792191  0.36379958  1
  O  O62  1  0.25027784  0.87338163  0.36185243  1
  O  O63  1  0.75580339  0.89885965  0.36516330  1
  O  O64  1  0.18783791  0.50675693  0.36228714  1
  O  O65  1  0.69043970  0.48285192  0.36399930  1
  O  O66  1  0.05052456  0.48320300  0.86371875  1
  O  O67  1  0.56548030  0.50069693  0.86170294  1
  O  O68  1  0.19198424  0.90002142  0.86373965  1
  O  O69  1  0.68426565  0.86815807  0.86173893  1
  O  O70  1  0.25845243  0.61785579  0.86342714  1
  O  O71  1  0.74958331  0.63076510  0.86178824  1
  O  O72  1  -0.00006272  0.79454606  0.40702202  1
  O  O73  1  0.50887837  0.82642816  0.40893254  1
  O  O74  1  0.40493002  0.99666146  0.39789168  1
  O  O75  1  0.89613479  0.98006617  0.42314416  1
  O  O76  1  0.10153511  0.20324060  0.40650033  1
  O  O77  1  0.58764167  0.19251226  0.40955897  1
  O  O78  1  0.00898977  0.19062269  0.90900370  1
  O  O79  1  0.50182034  0.19200759  0.89827790  1
  O  O80  1  0.08771335  0.98268626  0.90919346  1
  O  O81  1  0.59268991  0.99509701  0.89795130  1
  O  O82  1  0.40432349  0.82606095  0.90944079  1
  O  O83  1  0.90442867  0.81365935  0.89773026  1
  O  O84  1  0.48976415  0.16845181  0.59123873  1
  O  O85  1  0.97837109  0.15542839  0.59401030  1
  O  O86  1  0.09546081  0.03797784  0.59234518  1
  O  O87  1  0.59812667  0.02620312  0.59274961  1
  O  O88  1  0.42426768  0.80800897  0.59394846  1
  O  O89  1  0.91390466  0.80554348  0.59142193  1
  O  O90  1  0.47834614  0.80248505  0.09269448  1
  O  O91  1  0.99063998  0.81180571  0.08959590  1
  O  O92  1  0.41396477  0.02169812  0.09026330  1
  O  O93  1  0.92434174  0.03904388  0.09228449  1
  O  O94  1  0.09836725  0.17094399  0.09061764  1
  O  O95  1  0.59386238  0.15223858  0.09138277  1
  O  O96  1  0.35974698  0.16423086  0.75188831  1
  O  O97  1  0.84613571  0.15140453  0.75272684  1
  O  O98  1  0.22592826  0.28578626  0.75128509  1
  O  O99  1  0.72663162  0.30395536  0.75318884  1
  O  O100  1  0.42585556  0.54728280  0.75264780  1
  O  O101  1  0.91636951  0.54835558  0.75151737  1
  O  O102  1  0.34792066  0.54269762  0.25227600  1
  O  O103  1  0.84549221  0.53763942  0.24373093  1
  O  O104  1  0.41713209  0.28584919  0.25118524  1
  O  O105  1  0.93120813  0.32888895  0.24460005  1
  O  O106  1  0.23277292  0.13959013  0.24526999  1
  O  O107  1  0.72578961  0.16280112  0.25104238  1
  O  O108  1  0.32814749  0.50982995  0.93315400  1
  O  O109  1  0.82225394  0.49529425  0.92150877  1
  O  O110  1  0.42544116  0.35594863  0.92169243  1
  O  O111  1  0.92666239  0.34398763  0.93344639  1
  O  O112  1  0.24632929  0.14842199  0.93343994  1
  O  O113  1  0.75168527  0.14696713  0.92174192  1
  O  O114  1  0.32302095  0.15140495  0.42236670  1
  O  O115  1  0.81618335  0.14110430  0.43535005  1
  O  O116  1  0.26072350  0.37333551  0.42349556  1
  O  O117  1  0.74657122  0.34841781  0.43433489  1
  O  O118  1  0.42788569  0.50819927  0.43393774  1
  O  O119  1  0.92589109  0.47644736  0.42303626  1
  O  O120  1  0.17223443  0.48714517  0.06313247  1
  O  O121  1  0.66770641  0.47439272  0.07464511  1
  O  O122  1  0.07087868  0.65629996  0.06217441  1
  O  O123  1  0.56993102  0.66344857  0.07597088  1
  O  O124  1  0.25623380  0.85732514  0.06313830  1
  O  O125  1  0.76290792  0.86069786  0.07462769  1
  O  O126  1  0.16969636  0.86565274  0.57853637  1
  O  O127  1  0.66914092  0.85388343  0.56641723  1
  O  O128  1  0.26429977  0.66504922  0.57990915  1
  O  O129  1  0.75602830  0.65539829  0.56395303  1
  O  O130  1  0.06988799  0.47651984  0.57872985  1
  O  O131  1  0.56976546  0.48270239  0.56458098  1
  O  O132  1  0.14546294  0.81840206  0.25973672  1
  O  O133  1  0.63997947  0.82901659  0.24887667  1
  O  O134  1  0.26977525  0.71464079  0.26365160  1
  O  O135  1  0.76750307  0.71088577  0.24183103  1
  O  O136  1  0.09266557  0.47273278  0.25868938  1
  O  O137  1  0.58405804  0.45215735  0.24902084  1
  O  O138  1  0.14198342  0.45186069  0.74902544  1
  O  O139  1  0.64283539  0.46401180  0.76307734  1
  O  O140  1  0.08352659  0.71519581  0.74892603  1
  O  O141  1  0.58948326  0.71515872  0.76303463  1
  O  O142  1  0.27331751  0.83077105  0.74781034  1
  O  O143  1  0.76861564  0.82390656  0.76394597  1
loop_
_geom_bond_atom_site_label_1
_geom_bond_atom_site_label_2
_geom_bond_distance
_geom_bond_site_symmetry_2
Na0 O98 2.492285 1_555
Na0 O96 2.532969 1_555
Na0 O100 2.550449 1_555
Na0 O110 2.650545 1_555
Na0 O112 2.871061 1_555
Na0 O108 2.903909 1_555
Na1 O101 2.496763 1_555
Na1 O97 2.516223 1_555
Na1 O99 2.542125 1_555
Na1 O109 2.612777 1_555
Na1 O113 2.655941 1_555
Na1 O111 2.868580 1_555
Na2 O104 2.517084 1_555
Na2 O102 2.518673 1_555
Na2 O106 2.595005 1_555
Na2 O114 2.630795 1_555
Na2 O116 2.647452 1_555
Na2 O118 2.940736 1_555
Na3 O107 2.514822 1_555
Na3 O103 2.571058 1_555
Na3 O105 2.604308 1_555
Na3 O119 2.651142 1_555
Na3 O117 2.958488 1_555
Na3 O115 2.975404 1_555
Na4 O135 2.363819 1_555
Na4 O137 2.574892 1_555
Na4 O133 2.579979 1_555
Na4 O123 2.728236 1_555
Na4 O125 2.740496 1_555
Na4 O121 2.740667 1_555
Na5 O142 2.593134 1_555
Na5 O138 2.610612 1_555
Na5 O140 2.611548 1_555
Na5 O130 2.612684 1_555
Na5 O128 2.631254 1_555
Na5 O126 2.651203 1_555
O0 P0 1.501187 1_545
O0 Y0 2.218085 1_445
O1 P1 1.570459 1_545
O1 Ta0 1.952315 1_555
O2 P2 1.551965 1_555
O2 Ta0 1.979242 1_565
O3 P3 1.509272 1_555
O3 Y0 2.166116 1_555
O4 P5 1.564928 1_555
O4 Ta0 1.966778 1_555
O5 P4 1.502271 1_655
O5 Y0 2.161258 1_545
O6 P6 1.576617 1_555
O6 Ta1 1.947353 1_555
O7 P7 1.538499 1_555
O7 Ta2 1.977734 1_545
O8 P9 1.546862 1_555
O8 Ta2 1.956842 1_555
O9 P8 1.569091 1_455
O9 Ta1 1.963384 1_565
O10 P10 1.559887 1_555
O10 Ta2 1.941568 1_555
O11 P11 1.552848 1_545
O11 Ta1 1.981856 1_655
O12 P10 1.570544 1_555
O12 Ta4 1.976677 1_565
O13 P11 1.544316 1_555
O13 Ta3 2.090757 1_555
O14 P6 1.567445 1_555
O14 Ta3 1.988352 1_445
O15 P7 1.550704 1_555
O15 Ta4 2.068031 1_555
O16 P8 1.564925 1_455
O16 Ta3 1.978273 1_455
O17 P9 1.552239 1_555
O17 Ta4 2.080969 1_565
O18 P2 1.561488 1_555
O18 Ta6 2.048027 1_555
O19 P3 1.615650 1_555
O19 Ta5 1.922503 1_665
O20 P4 1.592048 1_555
O20 Ta5 2.004651 1_555
O21 P5 1.579760 1_555
O21 Ta6 1.956862 1_545
O22 P0 1.592266 1_555
O22 Ta5 1.992478 1_565
O23 P1 1.581481 1_555
O23 Ta6 1.963268 1_555
O24 P12 1.502366 1_555
O24 Y1 2.215312 1_555
O25 P13 1.511878 1_555
O25 Y2 2.150275 1_555
O26 P14 1.506850 1_555
O26 Y1 2.153322 1_555
O27 P15 1.505507 1_555
O27 Y2 2.212796 1_555
O28 P16 1.504061 1_555
O28 Y1 2.140335 1_555
O29 P17 1.506438 1_555
O29 Y2 2.225125 1_555
O30 P18 1.502983 1_555
O30 Y3 2.152499 1_555
O31 P19 1.495792 1_555
O31 Y4 2.247378 1_555
O32 P20 1.495421 1_555
O32 Y3 2.249778 1_555
O33 P21 1.500888 1_555
O33 Y4 2.148693 1_555
O34 P22 1.499422 1_555
O34 Y3 2.234503 1_555
O35 P23 1.498555 1_555
O35 Y4 2.159937 1_555
O36 P22 1.580063 1_555
O36 Ta7 1.971286 1_554
O37 P23 1.616180 1_555
O37 Ta8 1.953706 1_554
O38 P18 1.599763 1_555
O38 Ta7 1.945182 1_554
O39 P19 1.596316 1_555
O39 Ta8 1.978623 1_554
O40 P20 1.581781 1_555
O40 Ta7 1.965459 1_554
O41 P21 1.619997 1_555
O41 Ta8 1.951012 1_554
O42 P14 1.597353 1_555
O42 Ta9 1.982634 1_555
O43 P15 1.548066 1_555
O43 Ta10 2.042303 1_555
O44 P16 1.582112 1_555
O44 Ta9 2.001519 1_555
O45 P17 1.564385 1_555
O45 Ta10 1.991471 1_555
O46 P12 1.560243 1_555
O46 Ta9 2.038890 1_555
O47 P13 1.583862 1_555
O47 Ta10 1.965025 1_555
O48 P24 1.545889 1_555
O48 Ta11 2.020657 1_556
O49 P25 1.495417 1_555
O49 Y5 2.208704 1_556
O50 P26 1.552750 1_555
O50 Ta11 2.005147 1_556
O51 P27 1.494188 1_555
O51 Y5 2.214658 1_556
O52 P28 1.547767 1_555
O52 Ta11 2.011471 1_556
O53 P29 1.495576 1_555
O53 Y5 2.209530 1_556
O54 P30 1.499505 1_555
O54 Y6 2.206469 1_555
O55 P31 1.560757 1_555
O55 Ta12 1.913224 1_555
O56 P32 1.494807 1_555
O56 Y6 2.138606 1_555
O57 P33 1.553196 1_555
O57 Ta12 2.010660 1_555
O58 P34 1.494530 1_555
O58 Y6 2.139861 1_555
O59 P35 1.549694 1_555
O59 Ta12 1.996065 1_555
O60 P34 1.587326 1_555
O60 Ta13 2.007177 1_555
O61 P35 1.507763 1_555
O61 Y7 2.278261 1_555
O62 P30 1.555682 1_555
O62 Ta13 2.077840 1_555
O63 P31 1.510922 1_555
O63 Y7 2.237376 1_555
O64 P32 1.579370 1_555
O64 Ta13 2.028949 1_555
O65 P33 1.508607 1_555
O65 Y7 2.243629 1_555
O66 P26 1.513508 1_555
O66 Y8 2.248445 1_555
O67 P27 1.566756 1_555
O67 Ta14 2.045528 1_555
O68 P28 1.512426 1_555
O68 Y8 2.256169 1_555
O69 P29 1.569669 1_555
O69 Ta14 2.034439 1_555
O70 P24 1.511071 1_555
O70 Y8 2.257556 1_555
O71 P25 1.575829 1_555
O71 Ta14 2.022615 1_555
O72 P34 1.495917 1_555
O72 Y0 2.142236 1_455
O73 P35 1.561319 1_555
O73 Ta0 2.025089 1_565
O74 P30 1.561190 1_555
O74 Ta0 1.954885 1_565
O75 P31 1.504628 1_555
O75 Y0 2.210228 1_555
O76 P32 1.497629 1_555
O76 Y0 2.161487 1_445
O77 P33 1.562730 1_555
O77 Ta0 2.007091 1_555
O78 P26 1.560127 1_555
O78 Ta1 2.027485 1_555
O79 P27 1.556992 1_555
O79 Ta2 1.949475 1_545
O80 P28 1.560444 1_555
O80 Ta1 2.007751 1_565
O81 P29 1.557063 1_555
O81 Ta2 1.960835 1_555
O82 P24 1.562591 1_555
O82 Ta2 2.005153 1_555
O83 P25 1.556496 1_555
O83 Ta1 1.961625 1_665
O84 P12 1.573387 1_555
O84 Ta4 1.981219 1_555
O85 P13 1.574824 1_555
O85 Ta3 1.949917 1_545
O86 P14 1.579983 1_555
O86 Ta3 1.965428 1_445
O87 P15 1.569019 1_555
O87 Ta4 1.961246 1_555
O88 P16 1.591097 1_555
O88 Ta4 1.946034 1_565
O89 P17 1.556755 1_555
O89 Ta3 1.986813 1_555
O90 P18 1.561548 1_555
O90 Ta6 1.983374 1_555
O91 P19 1.544770 1_555
O91 Ta5 2.069383 1_665
O92 P20 1.545874 1_555
O92 Ta6 2.018909 1_545
O93 P21 1.562422 1_555
O93 Ta5 2.017539 1_655
O94 P22 1.539722 1_555
O94 Ta5 2.050051 1_555
O95 P23 1.570447 1_555
O95 Ta6 1.991657 1_545
O96 P10 1.519536 1_545
O96 Y1 2.244738 1_555
O97 P11 1.518407 1_545
O97 Y2 2.301092 1_555
O98 P6 1.523431 1_555
O98 Y1 2.296723 1_555
O99 P7 1.515710 1_555
O99 Y2 2.253463 1_555
O100 P9 1.514200 1_555
O100 Y1 2.257939 1_555
O101 P8 1.524857 1_555
O101 Y2 2.288855 1_555
O102 P2 1.520206 1_555
O102 Y3 2.283881 1_555
O103 P3 1.518990 1_555
O103 Y4 2.159527 1_555
O104 P5 1.521128 1_555
O104 Y3 2.279218 1_555
O105 P4 1.513244 1_655
O105 Y4 2.182010 1_555
O106 P0 1.515824 1_545
O106 Y3 2.164614 1_555
O107 P1 1.519274 1_545
O107 Y4 2.302218 1_555
O108 P24 1.560192 1_555
O108 Ta7 1.992019 1_555
O109 P25 1.565818 1_555
O109 Ta8 2.123434 1_555
O110 P27 1.571527 1_555
O110 Ta7 2.089982 1_555
O111 P26 1.559561 1_655
O111 Ta8 2.007500 1_555
O112 P28 1.561567 1_545
O112 Ta7 2.012310 1_555
O113 P29 1.566896 1_545
O113 Ta8 2.088652 1_555
O114 P30 1.578999 1_545
O114 Ta9 2.071811 1_555
O115 P31 1.566520 1_545
O115 Ta10 1.929981 1_555
O116 P32 1.606784 1_555
O116 Ta9 1.968669 1_555
O117 P33 1.557139 1_555
O117 Ta10 2.006849 1_555
O118 P35 1.559758 1_555
O118 Ta9 1.979774 1_555
O119 P34 1.604114 1_655
O119 Ta10 1.996240 1_555
O120 P22 1.564813 1_555
O120 Ta11 1.952277 1_555
O121 P23 1.505616 1_555
O121 Y5 2.201317 1_555
O122 P19 1.570576 1_455
O122 Ta11 1.943903 1_555
O123 P18 1.505045 1_555
O123 Y5 2.208632 1_555
O124 P20 1.559974 1_565
O124 Ta11 1.962303 1_555
O125 P21 1.506740 1_565
O125 Y5 2.189869 1_555
O126 P14 1.506069 1_565
O126 Y6 2.212638 1_555
O127 P15 1.553256 1_565
O127 Ta12 1.980380 1_555
O128 P16 1.505436 1_555
O128 Y6 2.210106 1_555
O129 P17 1.551586 1_555
O129 Ta12 1.983339 1_555
O130 P13 1.505622 1_455
O130 Y6 2.262704 1_555
O131 P12 1.548411 1_555
O131 Ta12 1.964719 1_555
O132 P0 1.581250 1_555
O132 Ta13 1.969688 1_555
O133 P1 1.518130 1_555
O133 Y7 2.255630 1_555
O134 P2 1.557385 1_555
O134 Ta13 1.999691 1_555
O135 P3 1.531941 1_555
O135 Y7 2.254512 1_555
O136 P4 1.583952 1_555
O136 Ta13 1.961271 1_555
O137 P5 1.517105 1_555
O137 Y7 2.265487 1_555
O138 P6 1.523149 1_555
O138 Y8 2.248474 1_555
O139 P7 1.573519 1_555
O139 Ta14 1.976213 1_555
O140 P8 1.523475 1_455
O140 Y8 2.238972 1_555
O141 P9 1.571103 1_555
O141 Ta14 1.982929 1_555
O142 P10 1.520136 1_555
O142 Y8 2.258798 1_555
O143 P11 1.581053 1_555
O143 Ta14 1.964882 1_555
