# generated using pymatgen
data_EuBr2
_symmetry_space_group_name_H-M   'P 1'
_cell_length_a   7.12188010
_cell_length_b   11.54699065
_cell_length_c   11.54699065
_cell_angle_alpha   90.00000000
_cell_angle_beta   90.00000000
_cell_angle_gamma   90.00000000
_symmetry_Int_Tables_number   1
_chemical_formula_structural   EuBr2
_chemical_formula_sum   'Eu10 Br20'
_cell_volume   949.58159003
_cell_formula_units_Z   10
loop_
 _symmetry_equiv_pos_site_id
 _symmetry_equiv_pos_as_xyz
  1  'x, y, z'
loop_
 _atom_site_type_symbol
 _atom_site_label
 _atom_site_symmetry_multiplicity
 _atom_site_fract_x
 _atom_site_fract_y
 _atom_site_fract_z
 _atom_site_occupancy
  Eu  Eu0  1  0.14852538  0.75000000  0.75000000  1
  Eu  Eu1  1  0.85147462  0.25000000  0.25000000  1
  Eu  Eu2  1  0.75150154  0.60273374  0.08671271  1
  Eu  Eu3  1  0.75150154  0.41328729  0.60273374  1
  Eu  Eu4  1  0.75150154  0.08671271  0.89726626  1
  Eu  Eu5  1  0.75150154  0.89726626  0.41328729  1
  Eu  Eu6  1  0.24849846  0.39726626  0.91328729  1
  Eu  Eu7  1  0.24849846  0.58671271  0.39726626  1
  Eu  Eu8  1  0.24849846  0.91328729  0.10273374  1
  Eu  Eu9  1  0.24849846  0.10273374  0.58671271  1
  Br  Br0  1  0.50000000  0.75000000  0.25000000  1
  Br  Br1  1  0.50000000  0.25000000  0.75000000  1
  Br  Br2  1  0.00000000  0.75000000  0.25000000  1
  Br  Br3  1  0.00000000  0.25000000  0.75000000  1
  Br  Br4  1  0.90057040  0.83883900  0.95732089  1
  Br  Br5  1  0.90057040  0.54267911  0.83883900  1
  Br  Br6  1  0.90057040  0.95732089  0.66116100  1
  Br  Br7  1  0.90057040  0.66116100  0.54267911  1
  Br  Br8  1  0.09942960  0.16116100  0.04267911  1
  Br  Br9  1  0.09942960  0.45732089  0.16116100  1
  Br  Br10  1  0.62302071  0.15334604  0.45955203  1
  Br  Br11  1  0.62302071  0.04044797  0.15334604  1
  Br  Br12  1  0.62302071  0.45955203  0.34665396  1
  Br  Br13  1  0.62302071  0.34665396  0.04044797  1
  Br  Br14  1  0.37697929  0.84665396  0.54044797  1
  Br  Br15  1  0.37697929  0.95955203  0.84665396  1
  Br  Br16  1  0.37697929  0.54044797  0.65334604  1
  Br  Br17  1  0.37697929  0.65334604  0.95955203  1
  Br  Br18  1  0.09942960  0.33883900  0.45732089  1
  Br  Br19  1  0.09942960  0.04267911  0.33883900  1
loop_
_geom_bond_atom_site_label_1
_geom_bond_atom_site_label_2
_geom_bond_distance
_geom_bond_site_symmetry_2
Br0 Eu5 3.107238 1_555
Br0 Eu2 3.107238 1_555
Br0 Eu8 3.107238 1_555
Br0 Eu7 3.107238 1_555
Br1 Eu6 3.107238 1_555
Br1 Eu9 3.107238 1_555
Br1 Eu3 3.107238 1_555
Br1 Eu4 3.107238 1_555
Br2 Eu2 3.094959 1_455
Br2 Eu5 3.094959 1_455
Br2 Eu7 3.094959 1_555
Br2 Eu8 3.094959 1_555
Br3 Eu6 3.094959 1_555
Br3 Eu9 3.094959 1_555
Br3 Eu3 3.094959 1_455
Br3 Eu4 3.094959 1_455
Br4 Eu8 3.114212 1_656
Br4 Eu4 3.130517 1_565
Br4 Eu0 3.146688 1_655
Br4 Eu2 3.285139 1_556
Br5 Eu6 3.114212 1_655
Br5 Eu2 3.130517 1_556
Br5 Eu0 3.146688 1_655
Br5 Eu3 3.285139 1_555
Br6 Eu9 3.114212 1_665
Br6 Eu5 3.130517 1_555
Br6 Eu0 3.146688 1_655
Br6 Eu4 3.285139 1_565
Br7 Eu7 3.114212 1_655
Br7 Eu3 3.130517 1_555
Br7 Eu0 3.146688 1_655
Br7 Eu5 3.285139 1_555
Br8 Eu4 3.114212 1_454
Br8 Eu8 3.130517 1_545
Br8 Eu1 3.146688 1_455
Br8 Eu6 3.285139 1_554
Br9 Eu2 3.114212 1_455
Br9 Eu6 3.130517 1_554
Br9 Eu1 3.146688 1_455
Br9 Eu7 3.285139 1_555
Br10 Eu9 3.100326 1_555
Br10 Eu1 3.122134 1_555
Br10 Eu5 3.141054 1_545
Br10 Eu3 3.546825 1_555
Br11 Eu8 3.100326 1_545
Br11 Eu1 3.122134 1_555
Br11 Eu4 3.141054 1_554
Br11 Eu5 3.546825 1_545
Br12 Eu7 3.100326 1_555
Br12 Eu1 3.122134 1_555
Br12 Eu3 3.141054 1_555
Br12 Eu2 3.546825 1_555
Br13 Eu6 3.100326 1_554
Br13 Eu1 3.122134 1_555
Br13 Eu2 3.141054 1_555
Br13 Eu4 3.546825 1_554
Br14 Eu5 3.100326 1_555
Br14 Eu0 3.122134 1_555
Br14 Eu9 3.141054 1_565
Br14 Eu7 3.546825 1_555
Br15 Eu4 3.100326 1_565
Br15 Eu0 3.122134 1_555
Br15 Eu8 3.141054 1_556
Br15 Eu9 3.546825 1_565
Br16 Eu3 3.100326 1_555
Br16 Eu0 3.122134 1_555
Br16 Eu7 3.141054 1_555
Br16 Eu6 3.546825 1_555
Br17 Eu2 3.100326 1_556
Br17 Eu0 3.122134 1_555
Br17 Eu6 3.141054 1_555
Br17 Eu8 3.546825 1_556
Br18 Eu3 3.114212 1_455
Br18 Eu7 3.130517 1_555
Br18 Eu1 3.146688 1_455
Br18 Eu9 3.285139 1_555
Br19 Eu5 3.114212 1_445
Br19 Eu9 3.130517 1_555
Br19 Eu1 3.146688 1_455
Br19 Eu8 3.285139 1_545
