# generated using pymatgen
data_Bi(PdO2)2
_symmetry_space_group_name_H-M   'P 1'
_cell_length_a   6.89176400
_cell_length_b   6.89176400
_cell_length_c   4.56194800
_cell_angle_alpha   90.00000000
_cell_angle_beta   90.00000000
_cell_angle_gamma   90.00000000
_symmetry_Int_Tables_number   1
_chemical_formula_structural   Bi(PdO2)2
_chemical_formula_sum   'Bi2 Pd4 O8'
_cell_volume   216.67615731
_cell_formula_units_Z   2
loop_
 _symmetry_equiv_pos_site_id
 _symmetry_equiv_pos_as_xyz
  1  'x, y, z'
loop_
 _atom_site_type_symbol
 _atom_site_label
 _atom_site_symmetry_multiplicity
 _atom_site_fract_x
 _atom_site_fract_y
 _atom_site_fract_z
 _atom_site_occupancy
  Bi  Bi0  1  0.50000000  0.00000000  0.51021000  1
  Bi  Bi1  1  0.00000000  0.50000000  0.48979000  1
  Pd  Pd0  1  0.25000000  0.25000000  0.00000000  1
  Pd  Pd1  1  0.25000000  0.75000000  0.00000000  1
  Pd  Pd2  1  0.75000000  0.25000000  0.00000000  1
  Pd  Pd3  1  0.75000000  0.75000000  0.00000000  1
  O  O0  1  0.77565200  0.00000000  0.77495900  1
  O  O1  1  0.00000000  0.22434800  0.22504100  1
  O  O2  1  0.50000000  0.27565200  0.77495900  1
  O  O3  1  0.27565200  0.50000000  0.22504100  1
  O  O4  1  0.72434800  0.50000000  0.22504100  1
  O  O5  1  0.22434800  0.00000000  0.77495900  1
  O  O6  1  0.00000000  0.77565200  0.22504100  1
  O  O7  1  0.50000000  0.72434800  0.77495900  1
loop_
_geom_bond_atom_site_label_1
_geom_bond_atom_site_label_2
_geom_bond_distance
_geom_bond_site_symmetry_2
Bi0 O0 2.251151 1_555
Bi0 O5 2.251151 1_555
Bi0 O7 2.251151 1_545
Bi0 O2 2.251151 1_555
Bi1 O3 2.251151 1_555
Bi1 O6 2.251151 1_555
Bi1 O4 2.251151 1_455
Bi1 O1 2.251151 1_555
O0 Pd2 2.013390 1_556
O0 Pd3 2.013390 1_546
O1 Pd2 2.013390 1_455
O1 Pd0 2.013390 1_555
O2 Pd2 2.013390 1_556
O2 Pd0 2.013390 1_556
O3 Pd1 2.013390 1_555
O3 Pd0 2.013390 1_555
O4 Pd3 2.013390 1_555
O4 Pd2 2.013390 1_555
O5 Pd0 2.013390 1_556
O5 Pd1 2.013390 1_546
O6 Pd1 2.013390 1_555
O6 Pd3 2.013390 1_455
O7 Pd1 2.013390 1_556
O7 Pd3 2.013390 1_556
