# generated using pymatgen
data_MgNb2PdS6
_symmetry_space_group_name_H-M   'P 1'
_cell_length_a   3.35967727
_cell_length_b   7.11266950
_cell_length_c   9.40055178
_cell_angle_alpha   78.83164289
_cell_angle_beta   79.72904103
_cell_angle_gamma   76.38078808
_symmetry_Int_Tables_number   1
_chemical_formula_structural   MgNb2PdS6
_chemical_formula_sum   'Mg1 Nb2 Pd1 S6'
_cell_volume   212.10293638
_cell_formula_units_Z   1
loop_
 _symmetry_equiv_pos_site_id
 _symmetry_equiv_pos_as_xyz
  1  'x, y, z'
loop_
 _atom_site_type_symbol
 _atom_site_label
 _atom_site_symmetry_multiplicity
 _atom_site_fract_x
 _atom_site_fract_y
 _atom_site_fract_z
 _atom_site_occupancy
  Mg  Mg0  1  0.17774500  0.53648400  0.11053800  1
  Nb  Nb0  1  0.31926500  0.06283100  0.29956300  1
  Nb  Nb1  1  0.67511700  0.93971000  0.70917900  1
  Pd  Pd0  1  0.00449800  0.99594100  0.99561900  1
  S  S0  1  0.02627200  0.18763100  0.76015400  1
  S  S1  1  0.97235800  0.81357300  0.24165300  1
  S  S2  1  0.32205400  0.81543800  0.53990900  1
  S  S3  1  0.67100100  0.19567800  0.46376500  1
  S  S4  1  0.80067600  0.27308400  0.12716200  1
  S  S5  1  0.20958600  0.71963100  0.85960100  1
loop_
_geom_bond_atom_site_label_1
_geom_bond_atom_site_label_2
_geom_bond_distance
_geom_bond_site_symmetry_2
Mg0 S1 2.424218 1_455
Mg0 S5 2.461349 1_554
Mg0 S4 2.463954 1_555
Mg0 S4 2.464323 1_455
Nb0 S1 2.523863 1_545
Nb0 S1 2.524105 1_445
Nb0 S3 2.532450 1_555
Nb0 S3 2.532979 1_455
Nb0 S2 2.580864 1_545
Nb0 S4 2.596066 1_455
Nb0 S4 2.596984 1_555
Nb1 S0 2.497136 1_565
Nb1 S0 2.497930 1_665
Nb1 S5 2.529522 1_655
Nb1 S5 2.530391 1_555
Nb1 S2 2.536145 1_555
Nb1 S2 2.538538 1_655
Nb1 S3 2.647570 1_565
Pd0 S0 2.363047 1_565
Pd0 S1 2.420374 1_456
Pd0 S4 2.427014 1_466
Pd0 S5 2.448198 1_555
