# generated using pymatgen
data_GdMg3
_symmetry_space_group_name_H-M   'P 1'
_cell_length_a   5.18123489
_cell_length_b   5.18123430
_cell_length_c   5.18123454
_cell_angle_alpha   59.99999849
_cell_angle_beta   60.00000224
_cell_angle_gamma   59.99999015
_symmetry_Int_Tables_number   1
_chemical_formula_structural   GdMg3
_chemical_formula_sum   'Gd1 Mg3'
_cell_volume   98.35234924
_cell_formula_units_Z   1
loop_
 _symmetry_equiv_pos_site_id
 _symmetry_equiv_pos_as_xyz
  1  'x, y, z'
loop_
 _atom_site_type_symbol
 _atom_site_label
 _atom_site_symmetry_multiplicity
 _atom_site_fract_x
 _atom_site_fract_y
 _atom_site_fract_z
 _atom_site_occupancy
  Gd  Gd0  1  -0.00000000  -0.00000000  0.00000000  1
  Mg  Mg0  1  0.75000000  0.75000000  0.75000000  1
  Mg  Mg1  1  0.50000000  0.50000000  0.50000000  1
  Mg  Mg2  1  0.25000000  0.25000000  0.25000000  1
loop_
_geom_bond_atom_site_label_1
_geom_bond_atom_site_label_2
_geom_bond_distance
_geom_bond_site_symmetry_2
Gd0 Mg2 3.172845 1_545
Gd0 Mg0 3.172845 1_454
Gd0 Mg2 3.172845 1_455
Gd0 Mg0 3.172845 1_544
Gd0 Mg2 3.172845 1_554
Gd0 Mg0 3.172845 1_444
Gd0 Mg0 3.172845 1_445
Gd0 Mg2 3.172845 1_555
Gd0 Mg1 3.663686 1_455
Gd0 Mg1 3.663686 1_454
Gd0 Mg1 3.663686 1_544
Gd0 Mg1 3.663686 1_545
Gd0 Mg1 3.663686 1_554
Gd0 Mg1 3.663686 1_445
Mg0 Mg1 3.172845 1_565
Mg0 Mg1 3.172845 1_655
Mg0 Mg1 3.172845 1_555
Mg0 Mg1 3.172845 1_556
Mg1 Mg2 3.172845 1_565
Mg1 Mg2 3.172845 1_655
Mg1 Mg2 3.172845 1_556
Mg1 Mg2 3.172845 1_555
