# generated using pymatgen
data_Na5Hf2Zr2Si3(PO8)3
_symmetry_space_group_name_H-M   'P 1'
_cell_length_a   9.07349930
_cell_length_b   9.07388288
_cell_length_c   23.09765200
_cell_angle_alpha   90.00322038
_cell_angle_beta   89.97538097
_cell_angle_gamma   119.97861738
_symmetry_Int_Tables_number   1
_chemical_formula_structural   Na5Hf2Zr2Si3(PO8)3
_chemical_formula_sum   'Na15 Hf6 Zr6 Si9 P9 O72'
_cell_volume   1647.25157904
_cell_formula_units_Z   3
loop_
 _symmetry_equiv_pos_site_id
 _symmetry_equiv_pos_as_xyz
  1  'x, y, z'
loop_
 _atom_site_type_symbol
 _atom_site_label
 _atom_site_symmetry_multiplicity
 _atom_site_fract_x
 _atom_site_fract_y
 _atom_site_fract_z
 _atom_site_occupancy
  Na  Na0  1  0.00026517  0.63137403  0.25002814  1
  Na  Na1  1  0.36827033  0.00023681  0.75060280  1
  Na  Na2  1  0.03126246  0.70062903  0.58173385  1
  Na  Na3  1  0.66259983  0.96503042  0.58437303  1
  Na  Na4  1  0.29858468  0.96900316  0.08155339  1
  Na  Na5  1  0.03464963  0.33732511  0.08468394  1
  Na  Na6  1  0.97132450  0.66851010  0.91814883  1
  Na  Na7  1  0.96555542  0.30165380  0.41487247  1
  Na  Na8  1  0.33498722  0.02886335  0.41728934  1
  Na  Na9  1  0.99838509  0.99418667  0.50000898  1
  Na  Na10  1  0.99906687  0.99914371  0.99938019  1
  Na  Na11  1  0.66537432  0.32730193  0.83354857  1
  Na  Na12  1  0.66579697  0.33196084  0.33268028  1
  Na  Na13  1  0.34146295  0.66093064  0.16736051  1
  Na  Na14  1  0.33822798  0.65731417  0.66706711  1
  Hf  Hf0  1  0.99956758  0.00736858  0.85307224  1
  Hf  Hf1  1  0.66589961  0.33307602  0.18523174  1
  Hf  Hf2  1  0.65638874  0.32868248  0.98047135  1
  Hf  Hf3  1  0.33422198  0.66592670  0.01818420  1
  Hf  Hf4  1  0.33413757  0.66567198  0.31418860  1
  Hf  Hf5  1  0.34058348  0.67037986  0.81466472  1
  Zr  Zr0  1  0.98911406  0.99450922  0.35129492  1
  Zr  Zr1  1  0.99941462  0.00165296  0.64907578  1
  Zr  Zr2  1  0.99910789  0.00058538  0.14797030  1
  Zr  Zr3  1  0.66635648  0.33454662  0.68657252  1
  Zr  Zr4  1  0.66573463  0.34060875  0.48111280  1
  Zr  Zr5  1  0.34002202  0.67071468  0.51839564  1
  Si  Si0  1  0.99994231  0.29613745  0.24974499  1
  Si  Si1  1  0.70680060  0.99955036  0.75051718  1
  Si  Si2  1  0.37218819  0.04253162  0.58337569  1
  Si  Si3  1  0.66452339  0.62544519  0.58470642  1
  Si  Si4  1  0.95560223  0.62378051  0.08207612  1
  Si  Si5  1  0.37794017  0.33758581  0.08398089  1
  Si  Si6  1  0.33485465  0.96066984  0.91622211  1
  Si  Si7  1  0.62600397  0.95858302  0.41607679  1
  Si  Si8  1  0.04124465  0.66714876  0.41608318  1
  P  P0  1  0.29575721  0.00217828  0.25052967  1
  P  P1  1  0.70393667  0.70543522  0.24909777  1
  P  P2  1  0.28929835  0.29284597  0.75100936  1
  P  P3  1  -0.00071085  0.70727974  0.75182616  1
  P  P4  1  0.95800383  0.33341388  0.58313105  1
  P  P5  1  0.66544595  0.04398375  0.08273937  1
  P  P6  1  0.62442944  0.66719186  0.91637976  1
  P  P7  1  0.04378417  0.37612150  0.91668689  1
  P  P8  1  0.33393015  0.37703004  0.41551884  1
  O  O0  1  0.20977375  0.02569011  0.30497280  1
  O  O1  1  0.82189211  0.78775738  0.30267169  1
  O  O2  1  0.97379759  0.17924123  0.30728203  1
  O  O3  1  0.20356422  0.17390255  0.80385906  1
  O  O4  1  0.97754511  0.79759785  0.80559368  1
  O  O5  1  0.82953979  0.02455467  0.80544056  1
  O  O6  1  0.79161174  0.97204050  0.69175305  1
  O  O7  1  0.18080452  0.20805521  0.69682200  1
  O  O8  1  0.03417644  0.82128574  0.69699368  1
  O  O9  1  0.79235443  0.81845152  0.19606971  1
  O  O10  1  0.02594421  0.20534592  0.19226001  1
  O  O11  1  0.17928374  0.96764947  0.19642051  1
  O  O12  1  0.87350703  0.36442322  0.63592518  1
  O  O13  1  0.49424700  0.12605251  0.64014013  1
  O  O14  1  0.64141289  0.50745056  0.64027550  1
  O  O15  1  0.87209169  0.50324066  0.13954651  1
  O  O16  1  0.63278843  0.12508222  0.13648510  1
  O  O17  1  0.49448275  0.36000270  0.14001481  1
  O  O18  1  0.46361693  0.29667281  0.02830979  1
  O  O19  1  0.84267294  0.53333830  0.02441636  1
  O  O20  1  0.69811285  0.15962984  0.02956210  1
  O  O21  1  0.46080807  0.15450954  0.52513668  1
  O  O22  1  0.70540814  0.54185175  0.52844867  1
  O  O23  1  0.84711600  0.30084227  0.52811531  1
  O  O24  1  0.53895974  0.69289637  0.97011090  1
  O  O25  1  0.15279705  0.45811278  0.97195744  1
  O  O26  1  0.30159900  0.83885261  0.97345861  1
  O  O27  1  0.54322846  0.84569371  0.47470151  1
  O  O28  1  0.29973218  0.45550068  0.46932111  1
  O  O29  1  0.15766589  0.69735178  0.47400551  1
  O  O30  1  0.13076600  0.63489914  0.35936878  1
  O  O31  1  0.50041542  0.86542867  0.36158283  1
  O  O32  1  0.35985339  0.48886588  0.36230593  1
  O  O33  1  0.13134093  0.49255393  0.86409960  1
  O  O34  1  0.35687109  0.86504884  0.85930540  1
  O  O35  1  0.51159475  0.63886074  0.86316646  1
  O  O36  1  0.03525344  0.84347741  0.40944291  1
  O  O37  1  0.81924697  0.98814175  0.41125033  1
  O  O38  1  0.17390987  0.19691107  0.40903013  1
  O  O39  1  0.02444875  0.19851097  0.90986513  1
  O  O40  1  0.15757258  0.96764139  0.90904792  1
  O  O41  1  0.80579073  0.82409846  0.90919396  1
  O  O42  1  0.97082877  0.17117911  0.58990578  1
  O  O43  1  0.18051345  0.01291121  0.58972901  1
  O  O44  1  0.83616387  0.81508781  0.58998465  1
  O  O45  1  0.98695829  0.81659967  0.08961962  1
  O  O46  1  0.82675662  0.02945859  0.08965950  1
  O  O47  1  0.18713482  0.16554312  0.08971789  1
  O  O48  1  0.67892498  0.16422340  0.74570551  1
  O  O49  1  0.46436612  0.30294305  0.74520752  1
  O  O50  1  0.84302804  0.53244817  0.74519165  1
  O  O51  1  0.69474186  0.53072057  0.24286200  1
  O  O52  1  0.83321114  0.32093254  0.24397594  1
  O  O53  1  0.47118567  0.15863158  0.24283200  1
  O  O54  1  0.65055194  0.51069807  0.92295973  1
  O  O55  1  0.86808030  0.36510670  0.92353430  1
  O  O56  1  0.50454878  0.14737374  0.92241149  1
  O  O57  1  0.64311453  0.14672222  0.42187668  1
  O  O58  1  0.48925311  0.35177663  0.42114790  1
  O  O59  1  0.85801155  0.49247056  0.42133419  1
  O  O60  1  0.34815535  0.49940653  0.07590847  1
  O  O61  1  0.14738041  0.64356620  0.07587843  1
  O  O62  1  0.50341490  0.86751447  0.07519183  1
  O  O63  1  0.35267484  0.85169733  0.57837241  1
  O  O64  1  0.50018081  0.65110462  0.57895915  1
  O  O65  1  0.13327485  0.49529575  0.57691363  1
  O  O66  1  0.30533811  0.83618572  0.25664903  1
  O  O67  1  0.52932809  0.68822154  0.25706518  1
  O  O68  1  0.16678553  0.48756389  0.25556988  1
  O  O69  1  0.30761798  0.46906515  0.75880101  1
  O  O70  1  0.16392931  0.69472417  0.75845148  1
  O  O71  1  0.51427724  0.83194638  0.75691936  1
loop_
_geom_bond_atom_site_label_1
_geom_bond_atom_site_label_2
_geom_bond_distance
_geom_bond_site_symmetry_2
Na0 O68 2.443893 1_555
Na0 O52 2.446465 1_455
Na0 O66 2.449244 1_555
Na0 O51 2.452875 1_455
Na0 O30 2.783170 1_555
Na0 O15 2.804866 1_455
Na0 O1 2.899098 1_455
Na0 O11 2.920228 1_555
Na1 O49 2.434506 1_555
Na1 O48 2.445474 1_555
Na1 O70 2.453311 1_545
Na1 O71 2.475913 1_545
Na1 O34 2.773583 1_545
Na1 O13 2.795246 1_555
Na1 O8 2.905711 1_545
Na1 O3 2.929411 1_555
Na2 O43 2.462250 1_565
Na2 O65 2.462497 1_555
Na2 O44 2.466924 1_455
Na2 O63 2.528799 1_555
Na2 O29 2.745803 1_555
Na2 O22 2.842210 1_455
Na2 O8 2.873608 1_555
Na2 O12 2.925289 1_455
Na3 O63 2.468803 1_555
Na3 O64 2.471131 1_555
Na3 O42 2.471677 1_565
Na3 O44 2.547449 1_555
Na3 O6 2.730186 1_555
Na3 O27 2.755454 1_555
Na3 O13 2.890663 1_565
Na3 O23 2.945634 1_565
Na4 O62 2.456403 1_555
Na4 O45 2.456423 1_455
Na4 O47 2.457778 1_565
Na4 O61 2.563375 1_555
Na4 O26 2.767854 1_554
Na4 O18 2.853828 1_565
Na4 O11 2.862764 1_555
Na4 O16 2.919295 1_565
Na5 O61 2.443096 1_555
Na5 O46 2.471647 1_455
Na5 O60 2.472743 1_555
Na5 O47 2.552022 1_555
Na5 O10 2.742269 1_555
Na5 O25 2.820202 1_554
Na5 O15 2.874918 1_455
Na5 O20 2.937315 1_455
Na6 O40 2.383936 1_655
Na6 O55 2.427941 1_555
Na6 O54 2.523631 1_555
Na6 O41 2.532044 1_555
Na6 O19 2.731077 1_556
Na6 O4 2.840438 1_555
Na6 O26 2.894086 1_655
Na6 O33 2.920713 1_655
Na7 O59 2.379217 1_555
Na7 O37 2.467398 1_545
Na7 O38 2.508167 1_655
Na7 O57 2.539950 1_555
Na7 O2 2.738170 1_555
Na7 O23 2.825990 1_555
Na7 O28 2.915021 1_655
Na7 O30 2.916003 1_655
Na8 O36 2.384830 1_545
Na8 O57 2.446146 1_555
Na8 O58 2.540463 1_555
Na8 O38 2.593275 1_555
Na8 O21 2.740388 1_555
Na8 O0 2.826936 1_555
Na8 O31 2.886266 1_545
Na8 O29 2.918111 1_545
Na9 O44 2.594964 1_555
Na9 O37 2.600326 1_555
Na9 O43 2.603189 1_665
Na9 O36 2.610394 1_655
Na9 O42 2.711773 1_565
Na9 O38 2.721378 1_665
Na10 O40 2.629003 1_655
Na10 O45 2.630283 1_556
Na10 O47 2.640716 1_666
Na10 O41 2.675188 1_555
Na10 O39 2.680340 1_665
Na10 O46 2.700965 1_566
Na11 O48 2.550054 1_555
Na11 O56 2.573851 1_555
Na11 O49 2.671906 1_555
Na11 O55 2.682014 1_555
Na11 O50 2.688384 1_555
Na11 O54 2.697296 1_555
Na12 O52 2.581573 1_555
Na12 O57 2.601233 1_555
Na12 O59 2.611568 1_555
Na12 O58 2.656834 1_555
Na12 O53 2.669429 1_555
Na12 O51 2.674359 1_555
Na13 O68 2.577544 1_555
Na13 O60 2.588867 1_555
Na13 O67 2.615559 1_555
Na13 O61 2.704941 1_555
Na13 O66 2.722055 1_555
Na13 O62 2.729521 1_555
Na14 O64 2.526714 1_555
Na14 O71 2.615849 1_555
Na14 O69 2.647673 1_555
Na14 O63 2.663503 1_555
Na14 O65 2.688216 1_555
Na14 O70 2.757761 1_555
Hf0 O5 1.963845 1_555
Hf0 O3 2.050563 1_655
Hf0 O40 2.091661 1_645
Hf0 O39 2.094896 1_655
Hf0 O4 2.117894 1_545
Hf0 O41 2.147902 1_545
Hf1 O17 1.987660 1_555
Hf1 O15 2.027168 1_555
Hf1 O52 2.080091 1_555
Hf1 O16 2.086465 1_555
Hf1 O51 2.141886 1_555
Hf1 O53 2.144859 1_555
Hf2 O18 1.963508 1_556
Hf2 O56 2.034535 1_555
Hf2 O19 2.049443 1_556
Hf2 O20 2.088775 1_556
Hf2 O54 2.140764 1_555
Hf2 O55 2.211700 1_555
Hf3 O26 2.020281 1_554
Hf3 O60 2.065915 1_555
Hf3 O24 2.070695 1_554
Hf3 O25 2.074810 1_554
Hf3 O61 2.084562 1_555
Hf3 O62 2.152126 1_555
Hf4 O31 2.007064 1_555
Hf4 O30 2.013835 1_555
Hf4 O32 2.058641 1_555
Hf4 O68 2.073616 1_555
Hf4 O67 2.134306 1_555
Hf4 O66 2.152457 1_555
Hf5 O34 1.986007 1_555
Hf5 O71 2.025207 1_555
Hf5 O35 2.046832 1_555
Hf5 O33 2.109214 1_555
Hf5 O69 2.131966 1_555
Hf5 O70 2.158583 1_555
O0 P0 1.549507 1_555
O0 Zr0 2.159981 1_445
O1 P1 1.561017 1_555
O1 Zr0 2.059025 1_555
O2 Si0 1.641936 1_555
O2 Zr0 2.023774 1_545
O3 P2 1.555763 1_555
O4 P3 1.553753 1_655
O5 Si1 1.627809 1_545
O6 Si1 1.639459 1_555
O6 Zr1 2.022653 1_565
O7 P2 1.539993 1_555
O7 Zr1 2.086512 1_455
O8 P3 1.564265 1_555
O8 Zr1 2.125891 1_465
O9 P1 1.540315 1_555
O9 Zr2 2.094022 1_565
O10 Si0 1.640480 1_455
O10 Zr2 2.026262 1_455
O11 P0 1.564357 1_565
O11 Zr2 2.122309 1_465
O12 P4 1.539059 1_555
O12 Zr3 2.112760 1_555
O13 Si2 1.637775 1_555
O13 Zr3 2.053474 1_555
O14 Si3 1.616562 1_555
O14 Zr3 2.002865 1_555
O15 Si4 1.644265 1_555
O16 P5 1.545280 1_555
O17 Si5 1.618905 1_555
O18 Si5 1.638022 1_555
O19 Si4 1.630281 1_555
O20 P5 1.544881 1_555
O21 Si2 1.634389 1_555
O21 Zr4 2.050268 1_555
O22 Si3 1.637724 1_555
O22 Zr4 2.000668 1_555
O23 P4 1.555094 1_555
O23 Zr4 2.147654 1_555
O24 P6 1.541414 1_555
O25 P7 1.557948 1_555
O26 Si6 1.651400 1_555
O27 Si7 1.636270 1_555
O27 Zr5 2.003010 1_555
O28 P8 1.538818 1_555
O28 Zr5 2.125720 1_555
O29 Si8 1.640955 1_555
O29 Zr5 2.061202 1_555
O30 Si8 1.642565 1_555
O31 Si7 1.623519 1_555
O32 P8 1.535298 1_555
O33 P7 1.543766 1_555
O34 Si6 1.641303 1_555
O35 P6 1.537199 1_555
O36 Si8 1.635050 1_555
O36 Zr0 2.105066 1_455
O37 Si7 1.639695 1_555
O37 Zr0 2.050815 1_555
O38 P8 1.558995 1_555
O38 Zr0 2.210654 1_445
O39 P7 1.539595 1_555
O40 Si6 1.649507 1_555
O41 P6 1.555944 1_555
O42 P4 1.541538 1_555
O42 Zr1 2.168092 1_555
O43 Si2 1.628221 1_555
O43 Zr1 2.102351 1_455
O44 Si3 1.650264 1_555
O44 Zr1 2.101978 1_565
O45 Si4 1.635548 1_555
O45 Zr2 2.105157 1_565
O46 P5 1.542136 1_555
O46 Zr2 2.177035 1_555
O47 Si5 1.658546 1_555
O47 Zr2 2.099450 1_455
O48 Si1 1.639134 1_545
O48 Zr3 2.107975 1_555
O49 P2 1.550480 1_555
O49 Zr3 2.179020 1_555
O50 P3 1.517487 1_655
O50 Zr3 2.180006 1_555
O51 P1 1.552036 1_555
O52 Si0 1.642368 1_555
O53 P0 1.523874 1_555
O54 P6 1.559521 1_555
O55 P7 1.554729 1_655
O56 Si6 1.629298 1_545
O57 Si7 1.640593 1_545
O57 Zr4 2.156016 1_555
O58 P8 1.542238 1_555
O58 Zr4 2.157983 1_555
O59 Si8 1.630171 1_655
O59 Zr4 2.108231 1_555
O60 Si5 1.631095 1_555
O61 Si4 1.663807 1_455
O62 P5 1.550303 1_565
O63 Si2 1.654320 1_565
O63 Zr5 2.107282 1_555
O64 Si3 1.625587 1_555
O64 Zr5 2.088180 1_555
O65 P4 1.540365 1_455
O65 Zr5 2.212152 1_555
O66 P0 1.557900 1_565
O67 P1 1.523403 1_555
O68 Si0 1.642945 1_455
O69 P2 1.533353 1_555
O70 P3 1.561507 1_555
O71 Si1 1.652616 1_555
