# generated using pymatgen
data_Na14Nb4In4Si11SO48
_symmetry_space_group_name_H-M   'P 1'
_cell_length_a   18.44685212
_cell_length_b   9.21116186
_cell_length_c   22.56518782
_cell_angle_alpha   89.92486002
_cell_angle_beta   90.06219747
_cell_angle_gamma   119.99889141
_symmetry_Int_Tables_number   1
_chemical_formula_structural   Na14Nb4In4Si11SO48
_chemical_formula_sum   'Na42 Nb12 In12 Si33 S3 O144'
_cell_volume   3320.55508381
_cell_formula_units_Z   3
loop_
 _symmetry_equiv_pos_site_id
 _symmetry_equiv_pos_as_xyz
  1  'x, y, z'
loop_
 _atom_site_type_symbol
 _atom_site_label
 _atom_site_symmetry_multiplicity
 _atom_site_fract_x
 _atom_site_fract_y
 _atom_site_fract_z
 _atom_site_occupancy
  Na  Na0  1  0.32349154  0.99973411  0.25002625  1
  Na  Na1  1  0.82419263  0.00041376  0.24995574  1
  Na  Na2  1  0.32113702  0.63404990  0.74908430  1
  Na  Na3  1  0.82323552  0.64539757  0.74872237  1
  Na  Na4  1  0.49350341  0.36039442  0.74766939  1
  Na  Na5  1  0.68120813  0.00473171  0.75101618  1
  Na  Na6  1  0.14964433  0.32449712  0.58274830  1
  Na  Na7  1  0.65282213  0.32938566  0.58155706  1
  Na  Na8  1  0.01496162  0.70819434  0.58501788  1
  Na  Na9  1  0.51077374  0.68879554  0.58296195  1
  Na  Na10  1  0.33146323  0.97938125  0.58289349  1
  Na  Na11  1  0.84050566  0.97247921  0.58556924  1
  Na  Na12  1  0.14583675  0.95595509  0.08046329  1
  Na  Na13  1  0.64566125  0.95576039  0.08003112  1
  Na  Na14  1  0.33226682  0.71261501  0.08301335  1
  Na  Na15  1  0.83240555  0.71241374  0.08354842  1
  Na  Na16  1  0.02380604  0.33469296  0.08343004  1
  Na  Na17  1  0.52330827  0.33411702  0.08344596  1
  Na  Na18  1  0.48471851  0.68001119  0.91417084  1
  Na  Na19  1  0.98572653  0.67777006  0.91467780  1
  Na  Na20  1  0.35486509  0.02822924  0.91457767  1
  Na  Na21  1  0.85416157  0.02927608  0.91459640  1
  Na  Na22  1  0.16114737  0.29823265  0.91826407  1
  Na  Na23  1  0.65986379  0.29148036  0.91511924  1
  Na  Na24  1  0.47565141  0.28730541  0.41600602  1
  Na  Na25  1  0.97707498  0.28858180  0.41680576  1
  Na  Na26  1  0.16795836  0.04441701  0.42095741  1
  Na  Na27  1  0.66783975  0.04356046  0.41898319  1
  Na  Na28  1  0.35540461  0.66498060  0.41604595  1
  Na  Na29  1  0.85668429  0.66550108  0.41649828  1
  Na  Na30  1  0.00056118  0.99905734  0.50050514  1
  Na  Na31  1  0.49855259  0.99856990  0.49534574  1
  Na  Na32  1  0.99943124  0.00134862  -0.00000089  1
  Na  Na33  1  0.49917453  0.99996800  0.99912831  1
  Na  Na34  1  0.33290511  0.32383358  0.82877473  1
  Na  Na35  1  0.83947010  0.33454112  0.83207355  1
  Na  Na36  1  0.33745418  0.34729856  0.33612296  1
  Na  Na37  1  0.83843605  0.34888874  0.33564840  1
  Na  Na38  1  0.16411141  0.65178736  0.16433715  1
  Na  Na39  1  0.66402250  0.65183616  0.16421621  1
  Na  Na40  1  0.16308939  0.67726197  0.66849026  1
  Na  Na41  1  0.66666873  0.66644732  0.66679906  1
  Nb  Nb0  1  0.49796213  0.99771434  0.64944858  1
  Nb  Nb1  1  0.83738470  0.33705125  0.68508358  1
  Nb  Nb2  1  0.33892947  0.34761173  0.18592010  1
  Nb  Nb3  1  0.83930062  0.34823829  0.18592567  1
  Nb  Nb4  1  0.33347417  0.33554778  0.97904739  1
  Nb  Nb5  1  0.83288740  0.33299676  0.97924033  1
  Nb  Nb6  1  0.16539078  0.66846586  0.51958215  1
  Nb  Nb7  1  0.66720361  0.66603573  0.51951492  1
  Nb  Nb8  1  0.16522908  0.65196633  0.31398864  1
  Nb  Nb9  1  0.66507589  0.65244367  0.31368829  1
  Nb  Nb10  1  0.16614494  0.67647693  0.81695165  1
  Nb  Nb11  1  0.66653909  0.66861866  0.81508510  1
  In  In0  1  0.99496520  0.99622543  0.35192076  1
  In  In1  1  0.49444581  0.99539688  0.35144270  1
  In  In2  1  0.99542900  0.99372060  0.84915810  1
  In  In3  1  0.50039684  0.00106495  0.84974805  1
  In  In4  1  0.99837259  0.99152819  0.65047113  1
  In  In5  1  0.99671109  0.00421163  0.14793826  1
  In  In6  1  0.49649451  0.00419580  0.14774267  1
  In  In7  1  0.33387510  0.32709583  0.67970375  1
  In  In8  1  0.33472118  0.33422124  0.48220330  1
  In  In9  1  0.83309035  0.33019460  0.48096203  1
  In  In10  1  0.16664048  0.66635646  0.01936150  1
  In  In11  1  0.66704025  0.66620267  0.01999915  1
  Si  Si0  1  0.35117800  0.70224754  0.25041722  1
  Si  Si1  1  0.85129831  0.70262088  0.25047464  1
  Si  Si2  1  0.00003874  0.29747623  0.24945671  1
  Si  Si3  1  0.49984437  0.29732830  0.24940045  1
  Si  Si4  1  0.64860435  0.29721851  0.75032624  1
  Si  Si5  1  0.00228890  0.70145569  0.74966324  1
  Si  Si6  1  0.49809297  0.70042299  0.75158203  1
  Si  Si7  1  0.34951188  -0.00057111  0.75207712  1
  Si  Si8  1  0.85142154  0.00257475  0.75030671  1
  Si  Si9  1  0.48272788  0.33252824  0.58281344  1
  Si  Si10  1  0.98126560  0.33249515  0.58143132  1
  Si  Si11  1  0.18499828  0.03972447  0.58088828  1
  Si  Si12  1  0.68571836  0.03892794  0.58323129  1
  Si  Si13  1  0.33268517  0.62832820  0.58392967  1
  Si  Si14  1  0.83328235  0.62641442  0.58103647  1
  Si  Si15  1  0.48007011  0.62783716  0.08212419  1
  Si  Si16  1  0.97999250  0.62771440  0.08172983  1
  Si  Si17  1  0.33246077  0.04508440  0.08425978  1
  Si  Si18  1  0.83253566  0.04456761  0.08467717  1
  Si  Si19  1  0.18813995  0.33060498  0.08367361  1
  Si  Si20  1  0.68817759  0.33037909  0.08374856  1
  Si  Si21  1  0.31290399  0.66659703  0.91765816  1
  Si  Si22  1  0.81297893  0.66515823  0.91847008  1
  Si  Si23  1  0.02056593  0.37318113  0.91869149  1
  Si  Si24  1  0.51979164  0.37375577  0.91849294  1
  Si  Si25  1  0.16680138  0.96420704  0.91912566  1
  Si  Si26  1  0.66651283  0.96097899  0.91916758  1
  Si  Si27  1  0.31046927  0.95666363  0.41498444  1
  Si  Si28  1  0.81065815  0.95599327  0.41526270  1
  Si  Si29  1  0.16650190  0.37239694  0.41853471  1
  Si  Si30  1  0.66654309  0.37178487  0.41722207  1
  Si  Si31  1  0.02188613  0.66817458  0.41516504  1
  Si  Si32  1  0.52279604  0.66911553  0.41641815  1
  S  S0  1  0.14989899  0.00001832  0.24982491  1
  S  S1  1  0.64989164  0.00013848  0.24992479  1
  S  S2  1  0.14934669  0.30121249  0.75137232  1
  O  O0  1  0.11179998  0.02358490  0.30385202  1
  O  O1  1  0.61178821  0.02344661  0.30417273  1
  O  O2  1  0.40548261  0.77283078  0.31088707  1
  O  O3  1  0.90549167  0.77381620  0.31081156  1
  O  O4  1  0.47836161  0.17957280  0.30825872  1
  O  O5  1  0.97779726  0.17883845  0.30809726  1
  O  O6  1  0.10898090  0.20159248  0.80507001  1
  O  O7  1  0.61473955  0.18414940  0.80934826  1
  O  O8  1  0.48383276  0.78012864  0.81072112  1
  O  O9  1  0.97872744  0.77310142  0.80794335  1
  O  O10  1  0.40634866  0.03334276  0.81071178  1
  O  O11  1  0.90367249  0.03503102  0.81087570  1
  O  O12  1  0.40182801  0.97402202  0.69475719  1
  O  O13  1  0.88759196  0.95576971  0.69234414  1
  O  O14  1  0.10102862  0.22461540  0.69674220  1
  O  O15  1  0.58474058  0.19813718  0.69391775  1
  O  O16  1  0.01853894  0.80775231  0.68919472  1
  O  O17  1  0.51311255  0.82950656  0.69445224  1
  O  O18  1  0.38873770  0.82066952  0.19183406  1
  O  O19  1  0.88840352  0.82037558  0.19167269  1
  O  O20  1  0.01881620  0.22643769  0.18914313  1
  O  O21  1  0.51918647  0.22674853  0.18924177  1
  O  O22  1  0.09992799  0.97639964  0.19577707  1
  O  O23  1  0.59985574  0.97638668  0.19605790  1
  O  O24  1  0.45000566  0.38321533  0.64146625  1
  O  O25  1  0.92861332  0.36118337  0.63664222  1
  O  O26  1  0.24935129  0.11103053  0.63616745  1
  O  O27  1  0.74834239  0.13508297  0.63975042  1
  O  O28  1  0.31024359  0.51237044  0.64287184  1
  O  O29  1  0.81833393  0.50119810  0.63893040  1
  O  O30  1  0.42817890  0.50341907  0.13900347  1
  O  O31  1  0.92827720  0.50362491  0.13876321  1
  O  O32  1  0.32368752  0.14385408  0.14238896  1
  O  O33  1  0.82379944  0.14411156  0.14248964  1
  O  O34  1  0.25118069  0.34878496  0.13871137  1
  O  O35  1  0.75133555  0.34904337  0.13869485  1
  O  O36  1  0.23721043  0.31260242  0.02354458  1
  O  O37  1  0.73764479  0.31267653  0.02359866  1
  O  O38  1  0.41890176  0.52840623  0.02400747  1
  O  O39  1  0.91876783  0.52782026  0.02360599  1
  O  O40  1  0.34214107  0.16672414  0.02547520  1
  O  O41  1  0.84196233  0.16579966  0.02562491  1
  O  O42  1  0.22183535  0.15202306  0.52094068  1
  O  O43  1  0.71796526  0.15109256  0.52353562  1
  O  O44  1  0.35957423  0.56145419  0.52604588  1
  O  O45  1  0.84956977  0.54810646  0.52203771  1
  O  O46  1  0.42399405  0.28400347  0.52443335  1
  O  O47  1  0.92402427  0.28871035  0.52240418  1
  O  O48  1  0.27487593  0.70298066  0.97670105  1
  O  O49  1  0.77519061  0.70171339  0.97710120  1
  O  O50  1  0.07462365  0.44411447  0.97893124  1
  O  O51  1  0.57598725  0.44953793  0.97722961  1
  O  O52  1  0.14502373  0.84882641  0.97754388  1
  O  O53  1  0.64899222  0.84924088  0.97798984  1
  O  O54  1  0.25885546  0.83571153  0.47323811  1
  O  O55  1  0.75990428  0.83607340  0.47446685  1
  O  O56  1  0.15433840  0.46953213  0.47659030  1
  O  O57  1  0.65654684  0.47327197  0.47500185  1
  O  O58  1  0.07953758  0.68417936  0.47474235  1
  O  O59  1  0.58068117  0.68686580  0.47669430  1
  O  O60  1  0.07613230  0.65026488  0.36038773  1
  O  O61  1  0.57629822  0.65023777  0.36146838  1
  O  O62  1  0.25219369  0.85711506  0.35703616  1
  O  O63  1  0.75145226  0.85606879  0.35780252  1
  O  O64  1  0.17660108  0.49644913  0.36125511  1
  O  O65  1  0.67629197  0.49563225  0.36043739  1
  O  O66  1  0.07280701  0.50725963  0.86354954  1
  O  O67  1  0.56898685  0.50000603  0.85990073  1
  O  O68  1  0.18296522  0.86309099  0.86262163  1
  O  O69  1  0.67950398  0.86075398  0.86087689  1
  O  O70  1  0.24991283  0.63597162  0.85965075  1
  O  O71  1  0.75033921  0.63919041  0.85973527  1
  O  O72  1  0.01948185  0.84211385  0.41406050  1
  O  O73  1  0.52004558  0.84286659  0.41488421  1
  O  O74  1  0.40085145  0.96494287  0.41778975  1
  O  O75  1  0.90091712  0.96556284  0.41771942  1
  O  O76  1  0.08183537  0.19177679  0.41377511  1
  O  O77  1  0.58103720  0.19190361  0.41429147  1
  O  O78  1  0.00870426  0.18770975  0.91010000  1
  O  O79  1  0.50681945  0.18765932  0.91161962  1
  O  O80  1  0.08868629  0.99428699  0.90786589  1
  O  O81  1  0.58734705  0.98940225  0.91274637  1
  O  O82  1  0.40683705  0.82537142  0.91233842  1
  O  O83  1  0.90687623  0.82459549  0.91306008  1
  O  O84  1  0.49527755  0.16661437  0.59218243  1
  O  O85  1  0.99634855  0.17614110  0.59262855  1
  O  O86  1  0.09189166  0.01739710  0.58728232  1
  O  O87  1  0.59097948  0.01201859  0.59473152  1
  O  O88  1  0.41619994  0.82055005  0.59335949  1
  O  O89  1  0.91289568  0.81390323  0.58652371  1
  O  O90  1  0.48498125  0.80786963  0.08592458  1
  O  O91  1  0.98468764  0.80761045  0.08567616  1
  O  O92  1  0.41820739  0.03580871  0.08204043  1
  O  O93  1  0.91833963  0.03571835  0.08204055  1
  O  O94  1  0.09861461  0.15713521  0.08524089  1
  O  O95  1  0.59874424  0.15722903  0.08528772  1
  O  O96  1  0.34269253  0.16699719  0.74483791  1
  O  O97  1  0.83411699  0.16172249  0.74161930  1
  O  O98  1  0.23544010  0.32577738  0.74887851  1
  O  O99  1  0.74255805  0.32301531  0.73923632  1
  O  O100  1  0.41561632  0.51628357  0.74483645  1
  O  O101  1  0.91508271  0.51379696  0.74103724  1
  O  O102  1  0.33670243  0.51025998  0.24154908  1
  O  O103  1  0.83664811  0.51046449  0.24153484  1
  O  O104  1  0.41258455  0.30981652  0.24239031  1
  O  O105  1  0.91272228  0.31040418  0.24228778  1
  O  O106  1  0.23657801  0.15047373  0.24515518  1
  O  O107  1  0.73654379  0.15029439  0.24533342  1
  O  O108  1  0.31682191  0.48930003  0.92086724  1
  O  O109  1  0.81683432  0.48855114  0.91980948  1
  O  O110  1  0.42775915  0.36643280  0.92095579  1
  O  O111  1  0.92797761  0.36406192  0.92097285  1
  O  O112  1  0.25562434  0.14551492  0.92106617  1
  O  O113  1  0.75581333  0.14434152  0.92056926  1
  O  O114  1  0.31748478  0.13941174  0.41618419  1
  O  O115  1  0.81527601  0.13653181  0.41683559  1
  O  O116  1  0.25326646  0.36909439  0.41806422  1
  O  O117  1  0.75187048  0.36406874  0.41656765  1
  O  O118  1  0.43240996  0.49890959  0.41774044  1
  O  O119  1  0.93153898  0.49801786  0.41621104  1
  O  O120  1  0.18306579  0.50103776  0.08372439  1
  O  O121  1  0.68305867  0.50071654  0.08368810  1
  O  O122  1  0.06902705  0.63437587  0.08306910  1
  O  O123  1  0.56899264  0.63401267  0.08341575  1
  O  O124  1  0.24760755  0.86332582  0.08330135  1
  O  O125  1  0.74785051  0.86284431  0.08401909  1
  O  O126  1  0.17406821  0.84749140  0.57416799  1
  O  O127  1  0.67733806  0.85084083  0.57965061  1
  O  O128  1  0.25044151  0.65451244  0.57548610  1
  O  O129  1  0.74593323  0.63857989  0.57863845  1
  O  O130  1  0.07276839  0.50846295  0.57920646  1
  O  O131  1  0.57772100  0.49872416  0.57509929  1
  O  O132  1  0.16167321  0.84990028  0.25447363  1
  O  O133  1  0.66153755  0.84974446  0.25475149  1
  O  O134  1  0.25765539  0.68984863  0.25762405  1
  O  O135  1  0.75757783  0.69012401  0.25785772  1
  O  O136  1  0.08164025  0.48912857  0.25846721  1
  O  O137  1  0.58131731  0.48940061  0.25864577  1
  O  O138  1  0.15795961  0.47371089  0.75570188  1
  O  O139  1  0.65545172  0.48330184  0.75438079  1
  O  O140  1  0.08470046  0.67694690  0.75955058  1
  O  O141  1  0.58590936  0.69048925  0.75469390  1
  O  O142  1  0.25991960  0.81786117  0.75561728  1
  O  O143  1  0.75571057  0.83137449  0.75809971  1
loop_
_geom_bond_atom_site_label_1
_geom_bond_atom_site_label_2
_geom_bond_distance
_geom_bond_site_symmetry_2
Na0 O134 2.486897 1_555
Na0 O104 2.488785 1_565
Na0 O132 2.589588 1_555
Na0 O106 2.595335 1_565
Na0 O62 2.749035 1_555
Na0 O32 2.765575 1_565
Na0 O18 2.808492 1_555
Na0 O4 2.810279 1_565
Na1 O105 2.487261 1_555
Na1 O135 2.489542 1_545
Na1 O107 2.600464 1_555
Na1 O133 2.603254 1_545
Na1 O33 2.762927 1_555
Na1 O63 2.775827 1_545
Na1 O5 2.791426 1_555
Na1 O19 2.802889 1_545
Na2 O98 2.464428 1_555
Na2 O142 2.465067 1_555
Na2 O100 2.472764 1_555
Na2 O138 2.611361 1_555
Na2 O28 2.611813 1_555
Na2 O70 2.825212 1_555
Na2 O8 2.951269 1_555
Na2 O12 2.976198 1_555
Na3 O101 2.534767 1_555
Na3 O99 2.580789 1_555
Na3 O143 2.581902 1_555
Na3 O139 2.684108 1_555
Na3 O29 2.792552 1_555
Na3 O13 2.793015 1_555
Na3 O71 2.831382 1_555
Na3 O9 2.831733 1_555
Na4 O96 2.441551 1_555
Na4 O100 2.488543 1_555
Na4 O24 2.567952 1_555
Na4 O139 2.616649 1_555
Na4 O141 2.644559 1_555
Na4 O67 2.866459 1_555
Na4 O10 2.972264 1_555
Na4 O15 3.010329 1_555
Na5 O97 2.452361 1_555
Na5 O141 2.527259 1_545
Na5 O99 2.574387 1_555
Na5 O143 2.580220 1_545
Na5 O27 2.791244 1_555
Na5 O69 2.802719 1_545
Na5 O7 2.828910 1_555
Na5 O17 2.973473 1_545
Na6 O85 2.459694 1_455
Na6 O86 2.476534 1_555
Na6 O128 2.659332 1_555
Na6 O130 2.700239 1_555
Na6 O56 2.721565 1_555
Na6 O14 2.727847 1_555
Na6 O42 2.892742 1_555
Na6 O28 2.912541 1_555
Na7 O129 2.484741 1_555
Na7 O84 2.528803 1_555
Na7 O131 2.556035 1_555
Na7 O87 2.568899 1_555
Na7 O57 2.728289 1_555
Na7 O43 2.799612 1_555
Na7 O15 2.819201 1_555
Na7 O29 2.944075 1_555
Na8 O86 2.467148 1_565
Na8 O16 2.513215 1_555
Na8 O89 2.515475 1_455
Na8 O130 2.549847 1_555
Na8 O126 2.560381 1_555
Na8 O58 2.816273 1_555
Na9 O88 2.586564 1_555
Na9 O87 2.592304 1_565
Na9 O131 2.604844 1_555
Na9 O127 2.662413 1_555
Na9 O59 2.728227 1_555
Na9 O44 2.743979 1_555
Na9 O24 2.785772 1_555
Na9 O17 2.821952 1_555
Na10 O126 2.533152 1_555
Na10 O128 2.597073 1_555
Na10 O88 2.631475 1_555
Na10 O84 2.634022 1_565
Na10 O26 2.656028 1_565
Na10 O46 2.780795 1_565
Na10 O54 2.810130 1_555
Na10 O12 2.848791 1_555
Na11 O89 2.422302 1_555
Na11 O85 2.532998 1_565
Na11 O13 2.590656 1_555
Na11 O127 2.638198 1_555
Na11 O129 2.676294 1_555
Na11 O55 2.864741 1_555
Na11 O47 2.897627 1_565
Na11 O27 3.030532 1_565
Na12 O94 2.412330 1_565
Na12 O124 2.420306 1_555
Na12 O52 2.521630 1_554
Na12 O122 2.566719 1_555
Na12 O91 2.579995 1_455
Na12 O22 2.772906 1_555
Na13 O95 2.411184 1_565
Na13 O125 2.430398 1_555
Na13 O53 2.516916 1_554
Na13 O123 2.568595 1_555
Na13 O90 2.573266 1_555
Na13 O23 2.787741 1_555
Na14 O120 2.451487 1_555
Na14 O90 2.497660 1_555
Na14 O124 2.556180 1_555
Na14 O92 2.580072 1_565
Na14 O48 2.604760 1_554
Na14 O18 2.658880 1_555
Na15 O121 2.453644 1_555
Na15 O91 2.489789 1_555
Na15 O125 2.552312 1_555
Na15 O93 2.581053 1_565
Na15 O49 2.604681 1_554
Na15 O19 2.642444 1_555
Na16 O93 2.452044 1_455
Na16 O122 2.452186 1_555
Na16 O120 2.545068 1_555
Na16 O50 2.551220 1_554
Na16 O20 2.568181 1_555
Na16 O94 2.614867 1_555
Na17 O92 2.446028 1_555
Na17 O123 2.452163 1_555
Na17 O121 2.552848 1_555
Na17 O21 2.569455 1_555
Na17 O51 2.604709 1_554
Na17 O95 2.619134 1_555
Na18 O82 2.404526 1_555
Na18 O8 2.511832 1_555
Na18 O81 2.512290 1_555
Na18 O110 2.536691 1_555
Na18 O108 2.694616 1_555
Na18 O38 2.805192 1_556
Na19 O83 2.431656 1_555
Na19 O111 2.534952 1_555
Na19 O80 2.567739 1_655
Na19 O9 2.587603 1_555
Na19 O109 2.707032 1_555
Na19 O39 2.786898 1_556
Na19 O52 2.914943 1_655
Na19 O66 2.984943 1_655
Na20 O79 2.429439 1_555
Na20 O82 2.490966 1_545
Na20 O10 2.521341 1_555
Na20 O112 2.553162 1_555
Na20 O110 2.710265 1_555
Na20 O40 2.872924 1_556
Na20 O48 2.948030 1_545
Na20 O68 2.986121 1_545
Na21 O78 2.471282 1_655
Na21 O11 2.504137 1_555
Na21 O83 2.516915 1_545
Na21 O113 2.521231 1_555
Na21 O111 2.680722 1_555
Na21 O41 2.863817 1_556
Na21 O49 2.968708 1_545
Na21 O69 3.042181 1_545
Na22 O80 2.436990 1_545
Na22 O78 2.472824 1_555
Na22 O108 2.508702 1_555
Na22 O6 2.717838 1_555
Na22 O36 2.727266 1_556
Na22 O112 2.733358 1_555
Na22 O50 2.895072 1_555
Na22 O70 3.001452 1_555
Na23 O81 2.410971 1_545
Na23 O79 2.488194 1_555
Na23 O109 2.536663 1_555
Na23 O7 2.558476 1_555
Na23 O113 2.717109 1_555
Na23 O37 2.793264 1_556
Na24 O118 2.447825 1_555
Na24 O77 2.502306 1_555
Na24 O114 2.528658 1_555
Na24 O74 2.573959 1_545
Na24 O46 2.621281 1_555
Na24 O4 2.637205 1_555
Na25 O119 2.459212 1_555
Na25 O76 2.501581 1_655
Na25 O47 2.577186 1_555
Na25 O75 2.578176 1_545
Na25 O115 2.586467 1_555
Na25 O5 2.656955 1_555
Na26 O72 2.427865 1_545
Na26 O114 2.443841 1_555
Na26 O42 2.465016 1_555
Na26 O76 2.558878 1_555
Na26 O116 2.591965 1_555
Na26 O0 2.808816 1_555
Na27 O115 2.409113 1_555
Na27 O73 2.412256 1_545
Na27 O43 2.547090 1_555
Na27 O117 2.558361 1_555
Na27 O77 2.574756 1_555
Na27 O1 2.760279 1_555
Na28 O116 2.417653 1_555
Na28 O74 2.454075 1_555
Na28 O118 2.555762 1_555
Na28 O2 2.559680 1_555
Na28 O73 2.633121 1_555
Na28 O44 2.672668 1_555
Na29 O75 2.459832 1_555
Na29 O117 2.465629 1_555
Na29 O119 2.533164 1_555
Na29 O3 2.567815 1_555
Na29 O45 2.590397 1_555
Na29 O72 2.604414 1_655
Na30 O75 2.527953 1_455
Na30 O86 2.531874 1_565
Na30 O72 2.555404 1_555
Na30 O89 2.555706 1_455
Na30 O76 2.562239 1_565
Na30 O85 2.669084 1_465
Na31 O74 2.417277 1_555
Na31 O73 2.467319 1_555
Na31 O77 2.473809 1_565
Na31 O84 2.697609 1_565
Na31 O88 2.719389 1_555
Na31 O87 2.780838 1_565
Na32 O93 2.499249 1_555
Na32 O94 2.545728 1_655
Na32 O91 2.550114 1_545
Na32 O83 2.576016 1_544
Na32 O78 2.605601 1_654
Na32 O80 2.674368 1_644
Na33 O92 2.518119 1_566
Na33 O90 2.562084 1_556
Na33 O82 2.566120 1_555
Na33 O95 2.567289 1_566
Na33 O81 2.572963 1_555
Na33 O79 2.579907 1_565
Na34 O96 2.444537 1_555
Na34 O100 2.520076 1_555
Na34 O98 2.551130 1_555
Na34 O112 2.592930 1_555
Na34 O110 2.617259 1_555
Na34 O108 2.681655 1_555
Na35 O111 2.512793 1_555
Na35 O97 2.561411 1_555
Na35 O101 2.566343 1_555
Na35 O109 2.589948 1_555
Na35 O113 2.594709 1_555
Na35 O99 2.720009 1_555
Na36 O118 2.442136 1_555
Na36 O116 2.487965 1_555
Na36 O114 2.520567 1_555
Na36 O102 2.611517 1_555
Na36 O104 2.645818 1_555
Na36 O106 2.755206 1_555
Na37 O119 2.404587 1_555
Na37 O117 2.476675 1_555
Na37 O115 2.553734 1_555
Na37 O103 2.601313 1_555
Na37 O105 2.633568 1_555
Na37 O107 2.756040 1_555
Na38 O120 2.419261 1_555
Na38 O122 2.485494 1_555
Na38 O124 2.551171 1_555
Na38 O136 2.605820 1_555
Na38 O134 2.630752 1_555
Na38 O132 2.749736 1_555
Na39 O121 2.420686 1_555
Na39 O123 2.475958 1_555
Na39 O125 2.536772 1_555
Na39 O137 2.612038 1_555
Na39 O135 2.636875 1_555
Na39 O133 2.755442 1_555
Na40 O140 2.513050 1_555
Na40 O142 2.533562 1_555
Na40 O130 2.581281 1_555
Na40 O126 2.589284 1_555
Na40 O138 2.685235 1_555
Na40 O128 2.718627 1_555
Na41 O139 2.537236 1_555
Na41 O127 2.539404 1_555
Na41 O141 2.557267 1_555
Na41 O129 2.558200 1_555
Na41 O143 2.599223 1_555
Na41 O131 2.612833 1_555
Nb0 O12 1.963192 1_555
Nb0 O17 1.984502 1_555
Nb0 O15 2.005952 1_565
Nb0 O88 2.019862 1_555
Nb0 O84 2.040668 1_565
Nb0 O87 2.064989 1_565
Nb1 O25 1.925002 1_555
Nb1 O101 1.991751 1_555
Nb1 O29 2.005151 1_555
Nb1 O97 2.033894 1_555
Nb1 O27 2.037414 1_555
Nb1 O99 2.085158 1_555
Nb2 O30 1.878327 1_555
Nb2 O34 1.941339 1_555
Nb2 O102 1.971939 1_555
Nb2 O32 2.010731 1_555
Nb2 O104 2.014720 1_555
Nb2 O106 2.284634 1_555
Nb3 O31 1.877715 1_555
Nb3 O35 1.943520 1_555
Nb3 O103 1.971819 1_555
Nb3 O105 2.010089 1_555
Nb3 O33 2.011058 1_555
Nb3 O107 2.292953 1_555
Nb4 O40 1.945592 1_556
Nb4 O36 1.958114 1_556
Nb4 O38 1.967311 1_556
Nb4 O108 2.062263 1_555
Nb4 O112 2.079994 1_555
Nb4 O110 2.081700 1_555
Nb5 O41 1.936130 1_556
Nb5 O37 1.948903 1_556
Nb5 O39 1.972514 1_556
Nb5 O113 2.079736 1_555
Nb5 O109 2.087478 1_555
Nb5 O111 2.095148 1_555
Nb6 O58 1.943774 1_555
Nb6 O54 1.945038 1_555
Nb6 O56 1.992757 1_555
Nb6 O126 2.000765 1_555
Nb6 O128 2.065498 1_555
Nb6 O130 2.093641 1_555
Nb7 O55 1.931840 1_555
Nb7 O59 1.954554 1_555
Nb7 O57 1.963529 1_555
Nb7 O131 2.031899 1_555
Nb7 O129 2.077323 1_555
Nb7 O127 2.112186 1_555
Nb8 O64 1.878732 1_555
Nb8 O60 1.943109 1_555
Nb8 O136 1.971047 1_555
Nb8 O134 2.013703 1_555
Nb8 O62 2.014450 1_555
Nb8 O132 2.290175 1_555
Nb9 O65 1.880514 1_555
Nb9 O61 1.953283 1_555
Nb9 O137 1.966159 1_555
Nb9 O135 2.007640 1_555
Nb9 O63 2.015118 1_555
Nb9 O133 2.277690 1_555
Nb10 O68 1.893055 1_555
Nb10 O66 1.953379 1_555
Nb10 O140 1.984234 1_555
Nb10 O70 2.006916 1_555
Nb10 O142 2.086061 1_555
Nb10 O138 2.268412 1_555
Nb11 O69 1.959100 1_555
Nb11 O67 1.969316 1_555
Nb11 O71 1.973114 1_555
Nb11 O143 2.034798 1_555
Nb11 O141 2.098666 1_555
Nb11 O139 2.118584 1_555
In0 O3 2.098119 1_555
In0 O5 2.105996 1_565
In0 O75 2.192861 1_555
In0 O72 2.195718 1_655
In0 O76 2.208157 1_665
In0 O0 2.312208 1_665
In1 O2 2.090678 1_555
In1 O4 2.100949 1_565
In1 O74 2.195719 1_555
In1 O73 2.214291 1_555
In1 O77 2.224794 1_565
In1 O1 2.309769 1_565
In2 O11 2.096664 1_565
In2 O9 2.113715 1_555
In2 O83 2.151521 1_555
In2 O80 2.168072 1_655
In2 O78 2.170734 1_665
In2 O6 2.243332 1_665
In3 O10 2.094267 1_555
In3 O8 2.095893 1_545
In3 O7 2.137108 1_555
In3 O79 2.172480 1_555
In3 O81 2.184498 1_545
In3 O82 2.190615 1_545
In4 O16 2.095848 1_655
In4 O13 2.123131 1_555
In4 O85 2.157377 1_565
In4 O86 2.158553 1_665
In4 O89 2.160298 1_555
In4 O14 2.285129 1_665
In5 O20 2.095316 1_655
In5 O19 2.109478 1_545
In5 O93 2.190706 1_555
In5 O94 2.207295 1_655
In5 O91 2.215153 1_545
In5 O22 2.310589 1_645
In6 O21 2.097763 1_555
In6 O18 2.106792 1_545
In6 O92 2.187041 1_555
In6 O95 2.207422 1_555
In6 O90 2.209785 1_545
In6 O23 2.317941 1_545
In7 O26 2.062992 1_555
In7 O24 2.120473 1_555
In7 O28 2.129008 1_555
In7 O96 2.143605 1_555
In7 O100 2.201112 1_555
In7 O98 2.391218 1_555
In8 O42 2.102952 1_555
In8 O46 2.142700 1_555
In8 O44 2.148208 1_555
In8 O118 2.220548 1_555
In8 O116 2.220890 1_555
In8 O114 2.230651 1_555
In9 O45 2.091546 1_555
In9 O47 2.114464 1_555
In9 O43 2.156728 1_555
In9 O115 2.191706 1_555
In9 O117 2.216998 1_555
In9 O119 2.239460 1_555
In10 O48 2.087270 1_554
In10 O50 2.105007 1_554
In10 O52 2.130636 1_554
In10 O122 2.206777 1_555
In10 O124 2.212849 1_555
In10 O120 2.230388 1_555
In11 O49 2.091649 1_554
In11 O51 2.094063 1_554
In11 O53 2.099630 1_554
In11 O123 2.207991 1_555
In11 O125 2.211807 1_555
In11 O121 2.218110 1_555
O0 S0 1.477313 1_555
O1 S1 1.480561 1_555
O2 Si0 1.623634 1_555
O3 Si1 1.620800 1_555
O4 Si3 1.632500 1_555
O5 Si2 1.631724 1_655
O6 S2 1.476646 1_555
O7 Si4 1.611316 1_555
O8 Si6 1.607957 1_555
O9 Si5 1.626119 1_655
O10 Si7 1.618027 1_555
O11 Si8 1.611361 1_555
O12 Si7 1.699543 1_565
O13 Si8 1.622588 1_565
O14 S2 1.477477 1_555
O15 Si4 1.663027 1_555
O16 Si5 1.616859 1_555
O17 Si6 1.679207 1_555
O18 Si0 1.630917 1_555
O19 Si1 1.631377 1_555
O20 Si2 1.621865 1_555
O21 Si3 1.621133 1_555
O22 S0 1.477227 1_565
O23 S1 1.474319 1_565
O24 Si9 1.618393 1_555
O25 Si10 1.680911 1_555
O26 Si11 1.617360 1_555
O27 Si12 1.649899 1_555
O28 Si13 1.623745 1_555
O29 Si14 1.670863 1_555
O30 Si15 1.666992 1_555
O31 Si16 1.667716 1_555
O32 Si17 1.650839 1_555
O33 Si18 1.649215 1_555
O34 Si19 1.650901 1_555
O35 Si20 1.649652 1_555
O36 Si19 1.685586 1_555
O37 Si20 1.689254 1_555
O38 Si15 1.672833 1_555
O39 Si16 1.674280 1_555
O40 Si17 1.686235 1_555
O41 Si18 1.689757 1_555
O42 Si11 1.630050 1_555
O43 Si12 1.618437 1_555
O44 Si13 1.624984 1_555
O45 Si14 1.613400 1_555
O46 Si9 1.619653 1_555
O47 Si10 1.619954 1_555
O48 Si21 1.617951 1_555
O49 Si22 1.608589 1_555
O50 Si23 1.617689 1_555
O51 Si24 1.610720 1_555
O52 Si25 1.612186 1_555
O53 Si26 1.609446 1_555
O54 Si27 1.677449 1_555
O55 Si28 1.687061 1_555
O56 Si29 1.664794 1_555
O57 Si30 1.668502 1_555
O58 Si31 1.673535 1_555
O59 Si32 1.685160 1_555
O60 Si31 1.650666 1_555
O61 Si32 1.648215 1_555
O62 Si27 1.649451 1_555
O63 Si28 1.648030 1_555
O64 Si29 1.671763 1_555
O65 Si30 1.663464 1_555
O66 Si23 1.676501 1_555
O67 Si24 1.693295 1_555
O68 Si25 1.692259 1_555
O69 Si26 1.692610 1_555
O70 Si21 1.677208 1_555
O71 Si22 1.694142 1_555
O72 Si31 1.624970 1_555
O73 Si32 1.626733 1_555
O74 Si27 1.631637 1_555
O75 Si28 1.623607 1_555
O76 Si29 1.618814 1_555
O77 Si30 1.619980 1_555
O78 Si23 1.622063 1_555
O79 Si24 1.615585 1_555
O80 Si25 1.617406 1_555
O81 Si26 1.613678 1_555
O82 Si21 1.619167 1_555
O83 Si22 1.621170 1_555
O84 Si9 1.669340 1_555
O85 Si10 1.617105 1_555
O86 Si11 1.631026 1_555
O87 Si12 1.658510 1_555
O88 Si13 1.681156 1_555
O89 Si14 1.618216 1_555
O90 Si15 1.617305 1_555
O91 Si16 1.618057 1_555
O92 Si17 1.626985 1_555
O93 Si18 1.626257 1_555
O94 Si19 1.625728 1_555
O95 Si20 1.623426 1_555
O96 Si7 1.618132 1_555
O97 Si8 1.660222 1_555
O98 S2 1.489098 1_555
O99 Si4 1.646774 1_555
O100 Si6 1.623119 1_555
O101 Si5 1.683225 1_655
O102 Si0 1.663519 1_555
O103 Si1 1.664051 1_555
O104 Si3 1.677452 1_555
O105 Si2 1.681051 1_655
O106 S0 1.507484 1_555
O107 S1 1.505992 1_555
O108 Si21 1.671893 1_555
O109 Si22 1.663690 1_555
O110 Si24 1.665995 1_555
O111 Si23 1.668401 1_655
O112 Si25 1.655124 1_545
O113 Si26 1.668874 1_545
O114 Si27 1.622753 1_545
O115 Si28 1.622491 1_545
O116 Si29 1.616004 1_555
O117 Si30 1.610819 1_555
O118 Si32 1.620159 1_555
O119 Si31 1.619460 1_655
O120 Si19 1.618716 1_555
O121 Si20 1.618285 1_555
O122 Si16 1.612855 1_455
O123 Si15 1.612885 1_555
O124 Si17 1.622664 1_565
O125 Si18 1.621018 1_565
O126 Si11 1.686009 1_565
O127 Si12 1.662681 1_565
O128 Si13 1.661725 1_555
O129 Si14 1.670980 1_555
O130 Si10 1.656202 1_455
O131 Si9 1.661915 1_555
O132 S0 1.506685 1_565
O133 S1 1.508055 1_565
O134 Si0 1.679087 1_555
O135 Si1 1.682704 1_555
O136 Si2 1.663335 1_555
O137 Si3 1.665469 1_555
O138 S2 1.518999 1_555
O139 Si4 1.657154 1_555
O140 Si5 1.659570 1_555
O141 Si6 1.668968 1_555
O142 Si7 1.664587 1_565
O143 Si8 1.688417 1_565
