# generated using pymatgen
data_Sr2MgCu(BrO)2
_symmetry_space_group_name_H-M   'P 1'
_cell_length_a   3.99311186
_cell_length_b   3.99311088
_cell_length_c   13.03809298
_cell_angle_alpha   98.80851834
_cell_angle_beta   98.80851931
_cell_angle_gamma   89.99998896
_symmetry_Int_Tables_number   1
_chemical_formula_structural   Sr2MgCu(BrO)2
_chemical_formula_sum   'Sr2 Mg1 Cu1 Br2 O2'
_cell_volume   202.95806766
_cell_formula_units_Z   1
loop_
 _symmetry_equiv_pos_site_id
 _symmetry_equiv_pos_as_xyz
  1  'x, y, z'
loop_
 _atom_site_type_symbol
 _atom_site_label
 _atom_site_symmetry_multiplicity
 _atom_site_fract_x
 _atom_site_fract_y
 _atom_site_fract_z
 _atom_site_occupancy
  Sr  Sr0  1  0.56476100  0.56476100  0.12952300  1
  Sr  Sr1  1  0.43523900  0.43523900  0.87047700  1
  Mg  Mg0  1  0.75000000  0.25000000  0.50000000  1
  Cu  Cu0  1  0.00000000  0.00000000  0.00000000  1
  Br  Br0  1  0.87155700  0.87155700  0.74311300  1
  Br  Br1  1  0.12844300  0.12844300  0.25688700  1
  O  O0  1  0.49996700  0.99996700  0.99993400  1
  O  O1  1  0.00003300  0.50003300  0.00006600  1
loop_
_geom_bond_atom_site_label_1
_geom_bond_atom_site_label_2
_geom_bond_distance
_geom_bond_site_symmetry_2
Cu0 O1 1.996556 1_555
Cu0 O1 1.996556 1_545
Cu0 O0 1.996556 1_444
Cu0 O0 1.996556 1_544
Br0 Sr1 3.255868 1_665
Br0 Sr1 3.255868 1_565
Br0 Sr1 3.255868 1_655
Br0 Sr1 3.255869 1_555
Br1 Sr0 3.255868 1_445
Br1 Sr0 3.255868 1_545
Br1 Sr0 3.255868 1_455
Br1 Sr0 3.255869 1_555
O0 Sr1 2.588730 1_555
O0 Sr1 2.588734 1_565
O0 Sr0 2.589800 1_566
O0 Sr0 2.589804 1_556
O1 Sr0 2.588731 1_555
O1 Sr0 2.588735 1_455
O1 Sr1 2.589801 1_454
O1 Sr1 2.589804 1_554
