# generated using pymatgen
data_Mg(CuS)6
_symmetry_space_group_name_H-M   'P 1'
_cell_length_a   3.78000511
_cell_length_b   3.78000489
_cell_length_c   18.77680753
_cell_angle_alpha   90.00000000
_cell_angle_beta   90.00000000
_cell_angle_gamma   120.00000184
_symmetry_Int_Tables_number   1
_chemical_formula_structural   Mg(CuS)6
_chemical_formula_sum   'Mg1 Cu6 S6'
_cell_volume   232.34703072
_cell_formula_units_Z   1
loop_
 _symmetry_equiv_pos_site_id
 _symmetry_equiv_pos_as_xyz
  1  'x, y, z'
loop_
 _atom_site_type_symbol
 _atom_site_label
 _atom_site_symmetry_multiplicity
 _atom_site_fract_x
 _atom_site_fract_y
 _atom_site_fract_z
 _atom_site_occupancy
  Mg  Mg0  1  0.00000000  -0.00000000  0.20611307  1
  Cu  Cu0  1  0.33333300  0.66666700  0.40969217  1
  Cu  Cu1  1  0.66666700  0.33333300  0.85150060  1
  Cu  Cu2  1  0.66666700  0.33333300  0.59926417  1
  Cu  Cu3  1  0.33333300  0.66666700  0.07515883  1
  Cu  Cu4  1  0.66666700  0.33333300  0.32951358  1
  Cu  Cu5  1  0.33333300  0.66666700  0.75896960  1
  S  S0  1  0.00000000  -0.00000000  0.44388233  1
  S  S1  1  0.00000000  -0.00000000  0.88501128  1
  S  S2  1  0.00000000  -0.00000000  0.56181082  1
  S  S3  1  0.00000000  -0.00000000  0.08013916  1
  S  S4  1  0.66666700  0.33333300  0.71924926  1
  S  S5  1  0.33333300  0.66666700  0.27413912  1
loop_
_geom_bond_atom_site_label_1
_geom_bond_atom_site_label_2
_geom_bond_distance
_geom_bond_site_symmetry_2
Mg0 S3 2.365388 1_555
Mg0 S5 2.528701 1_545
Mg0 S5 2.528704 1_555
Mg0 S5 2.528704 1_445
Cu0 S0 2.274850 1_565
Cu0 S0 2.274853 1_555
Cu0 S0 2.274853 1_665
Cu0 S5 2.545254 1_555
Cu1 S1 2.271283 1_655
Cu1 S1 2.271286 1_665
Cu1 S1 2.271286 1_555
Cu1 S4 2.483258 1_555
Cu2 S4 2.252937 1_555
Cu2 S2 2.292896 1_655
Cu2 S2 2.292899 1_665
Cu2 S2 2.292899 1_555
Cu3 S3 2.184387 1_565
Cu3 S3 2.184391 1_555
Cu3 S3 2.184391 1_665
Cu4 S5 2.417415 1_545
Cu4 S5 2.417415 1_655
Cu4 S5 2.417421 1_555
Cu5 S4 2.306307 1_565
Cu5 S4 2.306307 1_455
Cu5 S4 2.306313 1_555
S0 S2 2.214321 1_555
