# generated using pymatgen
data_La6MgWO12
_symmetry_space_group_name_H-M   'P 1'
_cell_length_a   6.90821657
_cell_length_b   6.90821688
_cell_length_c   6.90821684
_cell_angle_alpha   94.79676263
_cell_angle_beta   94.79675767
_cell_angle_gamma   94.79674778
_symmetry_Int_Tables_number   1
_chemical_formula_structural   La6MgWO12
_chemical_formula_sum   'La6 Mg1 W1 O12'
_cell_volume   326.01278932
_cell_formula_units_Z   1
loop_
 _symmetry_equiv_pos_site_id
 _symmetry_equiv_pos_as_xyz
  1  'x, y, z'
loop_
 _atom_site_type_symbol
 _atom_site_label
 _atom_site_symmetry_multiplicity
 _atom_site_fract_x
 _atom_site_fract_y
 _atom_site_fract_z
 _atom_site_occupancy
  La  La0  1  0.42732300  0.91175700  0.73129500  1
  La  La1  1  0.26870500  0.57267700  0.08824300  1
  La  La2  1  0.08824300  0.26870500  0.57267700  1
  La  La3  1  0.91175700  0.73129500  0.42732300  1
  La  La4  1  0.73129500  0.42732300  0.91175700  1
  La  La5  1  0.57267700  0.08824300  0.26870500  1
  Mg  Mg0  1  0.50000000  0.50000000  0.50000000  1
  W  W0  1  0.00000000  0.00000000  0.00000000  1
  O  O0  1  0.06514700  0.93668600  0.70663900  1
  O  O1  1  0.29336100  0.93485200  0.06331400  1
  O  O2  1  0.19922100  0.54913600  0.41766300  1
  O  O3  1  0.58233700  0.80077900  0.45086400  1
  O  O4  1  0.06331400  0.29336100  0.93485200  1
  O  O5  1  0.45086400  0.58233700  0.80077900  1
  O  O6  1  0.54913600  0.41766300  0.19922100  1
  O  O7  1  0.93668600  0.70663900  0.06514700  1
  O  O8  1  0.41766300  0.19922100  0.54913600  1
  O  O9  1  0.80077900  0.45086400  0.58233700  1
  O  O10  1  0.70663900  0.06514700  0.93668600  1
  O  O11  1  0.93485200  0.06331400  0.29336100  1
loop_
_geom_bond_atom_site_label_1
_geom_bond_atom_site_label_2
_geom_bond_distance
_geom_bond_site_symmetry_2
La0 O5 2.380592 1_555
La0 O3 2.392372 1_555
La0 O10 2.409992 1_565
La0 O8 2.440845 1_565
La0 O0 2.514820 1_555
La0 O1 2.541899 1_556
La1 O2 2.380592 1_555
La1 O6 2.392372 1_555
La1 O4 2.409994 1_554
La1 O5 2.440844 1_554
La1 O1 2.514813 1_555
La1 O7 2.541899 1_455
La2 O8 2.380592 1_555
La2 O2 2.392373 1_555
La2 O11 2.409994 1_455
La2 O9 2.440844 1_455
La2 O4 2.514813 1_555
La2 O0 2.541900 1_545
La3 O3 2.380592 1_555
La3 O9 2.392373 1_555
La3 O0 2.409992 1_655
La3 O2 2.440844 1_655
La3 O7 2.514820 1_555
La3 O11 2.541900 1_565
La4 O9 2.380592 1_555
La4 O5 2.392372 1_555
La4 O7 2.409992 1_556
La4 O6 2.440844 1_556
La4 O10 2.514820 1_555
La4 O4 2.541899 1_655
La5 O6 2.380592 1_555
La5 O8 2.392372 1_555
La5 O1 2.409994 1_545
La5 O3 2.440845 1_545
La5 O11 2.514813 1_555
La5 O10 2.541899 1_554
Mg0 O9 2.169974 1_555
Mg0 O2 2.169974 1_555
Mg0 O5 2.169975 1_555
Mg0 O6 2.169975 1_555
Mg0 O3 2.169975 1_555
Mg0 O8 2.169975 1_555
O0 W0 2.130300 1_566
O1 W0 2.130302 1_565
O4 W0 2.130302 1_556
O7 W0 2.130300 1_665
O10 W0 2.130300 1_656
O11 W0 2.130302 1_655
