# generated using pymatgen
data_MgTe2MoW2(SeS)2
_symmetry_space_group_name_H-M   'P 1'
_cell_length_a   3.34191802
_cell_length_b   3.34189788
_cell_length_c   37.02473928
_cell_angle_alpha   90.23773085
_cell_angle_beta   89.76807618
_cell_angle_gamma   120.00380293
_symmetry_Int_Tables_number   1
_chemical_formula_structural   MgTe2MoW2(SeS)2
_chemical_formula_sum   'Mg1 Te2 Mo1 W2 Se2 S2'
_cell_volume   358.08827327
_cell_formula_units_Z   1
loop_
 _symmetry_equiv_pos_site_id
 _symmetry_equiv_pos_as_xyz
  1  'x, y, z'
loop_
 _atom_site_type_symbol
 _atom_site_label
 _atom_site_symmetry_multiplicity
 _atom_site_fract_x
 _atom_site_fract_y
 _atom_site_fract_z
 _atom_site_occupancy
  Mg  Mg0  1  0.66594700  0.33393700  0.45937100  1
  Te  Te0  1  0.66834900  0.33158000  0.06440400  1
  Te  Te1  1  0.66445300  0.33557900  0.16698900  1
  Mo  Mo0  1  0.33328800  0.66669000  0.11569400  1
  W  W0  1  0.33313500  0.66681000  0.58347200  1
  W  W1  1  0.66523700  0.33481300  0.33728900  1
  Se  Se0  1  0.66801400  0.33181500  0.53800500  1
  Se  Se1  1  0.66479200  0.33527000  0.62866600  1
  S  S0  1  0.33126800  0.66889400  0.37847000  1
  S  S1  1  0.33283200  0.66709800  0.29631400  1
loop_
_geom_bond_atom_site_label_1
_geom_bond_atom_site_label_2
_geom_bond_distance
_geom_bond_site_symmetry_2
Mg0 Se0 2.911486 1_555
Mo0 Te1 2.704700 1_555
Mo0 Te0 2.706666 1_455
Mo0 Te0 2.706794 1_565
Mo0 Te0 2.708044 1_555
Mo0 Te1 2.708532 1_565
Mo0 Te1 2.708666 1_455
Se0 W0 2.560009 1_545
Se0 W0 2.560048 1_655
Se0 W0 2.561599 1_555
Se1 W0 2.552370 1_555
Se1 W0 2.554680 1_655
Se1 W0 2.554705 1_545
S0 W1 2.456674 1_555
S0 W1 2.460341 1_565
S0 W1 2.460395 1_455
S1 W1 2.453784 1_455
S1 W1 2.453839 1_565
S1 W1 2.455619 1_555
