# generated using pymatgen
data_Y3IrI3
_symmetry_space_group_name_H-M   'P 1'
_cell_length_a   4.28755570
_cell_length_b   8.80719215
_cell_length_c   12.26134567
_cell_angle_alpha   93.86336369
_cell_angle_beta   90.00000000
_cell_angle_gamma   90.00000000
_symmetry_Int_Tables_number   1
_chemical_formula_structural   Y3IrI3
_chemical_formula_sum   'Y6 Ir2 I6'
_cell_volume   461.95253433
_cell_formula_units_Z   2
loop_
 _symmetry_equiv_pos_site_id
 _symmetry_equiv_pos_as_xyz
  1  'x, y, z'
loop_
 _atom_site_type_symbol
 _atom_site_label
 _atom_site_symmetry_multiplicity
 _atom_site_fract_x
 _atom_site_fract_y
 _atom_site_fract_z
 _atom_site_occupancy
  Y  Y0  1  0.75000000  0.85854343  0.12958953  1
  Y  Y1  1  0.25000000  0.14145657  0.87041047  1
  Y  Y2  1  0.75000000  0.90183080  0.68290357  1
  Y  Y3  1  0.25000000  0.09816920  0.31709643  1
  Y  Y4  1  0.25000000  0.75090221  0.90054138  1
  Y  Y5  1  0.75000000  0.24909779  0.09945862  1
  Ir  Ir0  1  0.75000000  0.95153751  0.90625172  1
  Ir  Ir1  1  0.25000000  0.04846249  0.09374828  1
  I  I0  1  0.25000000  0.57149691  0.13340652  1
  I  I1  1  0.75000000  0.42850309  0.86659348  1
  I  I2  1  0.25000000  0.64761668  0.63766773  1
  I  I3  1  0.75000000  0.35238332  0.36233227  1
  I  I4  1  0.75000000  0.85675463  0.39400183  1
  I  I5  1  0.25000000  0.14324537  0.60599817  1
loop_
_geom_bond_atom_site_label_1
_geom_bond_atom_site_label_2
_geom_bond_distance
_geom_bond_site_symmetry_2
Ir0 Y2 2.744038 1_555
Ir0 Y1 2.772316 1_565
Ir0 Y1 2.772316 1_665
Ir0 Y4 2.776044 1_655
Ir0 Y4 2.776044 1_555
Ir0 Y0 2.910665 1_556
Ir0 Y5 3.412238 1_566
Ir1 Y3 2.744038 1_555
Ir1 Y0 2.772316 1_445
Ir1 Y0 2.772316 1_545
Ir1 Y5 2.776044 1_555
Ir1 Y5 2.776044 1_455
Ir1 Y1 2.910665 1_554
Ir1 Y4 3.412238 1_544
I0 Y0 3.317390 1_455
I0 Y0 3.317390 1_555
I0 Y4 3.355132 1_554
I0 Y5 3.559796 1_555
I0 Y5 3.559796 1_455
I1 Y1 3.317390 1_555
I1 Y1 3.317390 1_655
I1 Y5 3.355132 1_556
I1 Y4 3.559796 1_555
I1 Y4 3.559796 1_655
I2 Y2 3.122309 1_455
I2 Y2 3.122309 1_555
I2 Y4 3.289573 1_555
I3 Y3 3.122309 1_555
I3 Y3 3.122309 1_655
I3 Y5 3.289573 1_555
I4 Y3 3.205588 1_665
I4 Y3 3.205588 1_565
I4 Y0 3.243150 1_555
I4 Y2 3.537819 1_555
I5 Y2 3.205588 1_545
I5 Y2 3.205588 1_445
I5 Y1 3.243150 1_555
I5 Y3 3.537819 1_555
