# generated using pymatgen
data_Na10Zr4Si9Ge4(SO16)3
_symmetry_space_group_name_H-M   'P 1'
_cell_length_a   17.87783048
_cell_length_b   8.94030210
_cell_length_c   22.29812720
_cell_angle_alpha   89.95355249
_cell_angle_beta   90.12480713
_cell_angle_gamma   119.79070719
_symmetry_Int_Tables_number   1
_chemical_formula_structural   Na10Zr4Si9Ge4(SO16)3
_chemical_formula_sum   'Na30 Zr12 Si27 Ge12 S9 O144'
_cell_volume   3092.97945646
_cell_formula_units_Z   3
loop_
 _symmetry_equiv_pos_site_id
 _symmetry_equiv_pos_as_xyz
  1  'x, y, z'
loop_
 _atom_site_type_symbol
 _atom_site_label
 _atom_site_symmetry_multiplicity
 _atom_site_fract_x
 _atom_site_fract_y
 _atom_site_fract_z
 _atom_site_occupancy
  Na  Na0  1  0.32024325  0.00060706  0.24928641  1
  Na  Na1  1  0.82064516  0.00017251  0.24809932  1
  Na  Na2  1  0.18294713  0.98812957  0.74779849  1
  Na  Na3  1  0.68542675  0.99739379  0.74638138  1
  Na  Na4  1  0.01368975  0.69126782  0.57844661  1
  Na  Na5  1  0.51381282  0.70405300  0.57741636  1
  Na  Na6  1  0.01013215  0.33457661  0.07793881  1
  Na  Na7  1  0.52084006  0.33043308  0.07557176  1
  Na  Na8  1  0.48303719  0.66592155  0.91257706  1
  Na  Na9  1  0.35181227  0.03907934  0.91435342  1
  Na  Na10  1  0.85406568  0.03933118  0.91127744  1
  Na  Na11  1  0.16170190  0.30452877  0.91685958  1
  Na  Na12  1  0.48462756  0.30518131  0.41360132  1
  Na  Na13  1  0.98644866  0.31301084  0.41151096  1
  Na  Na14  1  0.16494694  0.03304281  0.41503438  1
  Na  Na15  1  0.66789599  0.02529045  0.42034175  1
  Na  Na16  1  0.34542697  0.66115360  0.41674162  1
  Na  Na17  1  0.85201036  0.67004011  0.41364618  1
  Na  Na18  1  0.00153606  0.00877496  0.50386338  1
  Na  Na19  1  0.50212020  0.00351709  0.50166373  1
  Na  Na20  1  0.00172916  0.97893914  0.00298984  1
  Na  Na21  1  0.51121948  0.01654792  0.99643912  1
  Na  Na22  1  0.34515065  0.34417475  0.83217466  1
  Na  Na23  1  0.84686774  0.35991491  0.83789817  1
  Na  Na24  1  0.34024212  0.35629676  0.33114846  1
  Na  Na25  1  0.84128648  0.35861193  0.32745299  1
  Na  Na26  1  0.16912973  0.65726002  0.16011165  1
  Na  Na27  1  0.67716368  0.65579296  0.16244114  1
  Na  Na28  1  0.17854725  0.66951607  0.66756980  1
  Na  Na29  1  0.67945126  0.67103812  0.67007152  1
  Zr  Zr0  1  0.49473129  0.99486632  0.35168301  1
  Zr  Zr1  1  0.49210563  0.98462066  0.65100196  1
  Zr  Zr2  1  0.50008065  0.01055404  0.14244969  1
  Zr  Zr3  1  0.33027799  0.33405166  0.69019163  1
  Zr  Zr4  1  0.83752546  0.33318632  0.69245374  1
  Zr  Zr5  1  0.32460589  0.32780044  0.18304579  1
  Zr  Zr6  1  0.32473552  0.32167359  0.97675105  1
  Zr  Zr7  1  0.32292904  0.32515128  0.48340776  1
  Zr  Zr8  1  0.83257681  0.33702679  0.48420942  1
  Zr  Zr9  1  0.67817322  0.68264054  0.52029667  1
  Zr  Zr10  1  0.16304807  0.65291821  0.30900608  1
  Zr  Zr11  1  0.66947944  0.65709558  0.31031843  1
  Si  Si0  1  0.35046683  0.69946111  0.24825332  1
  Si  Si1  1  0.86611932  0.71418099  0.24530933  1
  Si  Si2  1  0.99444533  0.28606739  0.24604655  1
  Si  Si3  1  0.50040141  0.30774861  0.24749604  1
  Si  Si4  1  0.00232155  0.71060568  0.75794019  1
  Si  Si5  1  0.50258898  0.71068348  0.75774028  1
  Si  Si6  1  0.34864033  0.98694372  0.75968609  1
  Si  Si7  1  0.85866252  0.98394060  0.75567442  1
  Si  Si8  1  0.17756252  0.02329628  0.58800684  1
  Si  Si9  1  0.68230175  0.03536091  0.58732432  1
  Si  Si10  1  0.32317534  0.62725694  0.58075475  1
  Si  Si11  1  0.83509334  0.63487508  0.58811470  1
  Si  Si12  1  0.32318131  0.01654405  0.07965743  1
  Si  Si13  1  0.82620882  0.03615971  0.08389762  1
  Si  Si14  1  0.17522403  0.32888501  0.08022613  1
  Si  Si15  1  0.70071629  0.34662433  0.07851783  1
  Si  Si16  1  0.30805778  0.67198419  0.91203268  1
  Si  Si17  1  0.02163378  0.38688575  0.91666671  1
  Si  Si18  1  0.53416942  0.38657088  0.91518831  1
  Si  Si19  1  0.15565114  0.93904568  0.91648866  1
  Si  Si20  1  0.66711068  0.95498257  0.91872943  1
  Si  Si21  1  0.30828241  0.95223708  0.41559649  1
  Si  Si22  1  0.81955490  0.96807471  0.40976937  1
  Si  Si23  1  0.15931143  0.37514254  0.41738263  1
  Si  Si24  1  0.66659613  0.37164192  0.41870839  1
  Si  Si25  1  0.02504098  0.67778659  0.41770719  1
  Si  Si26  1  0.52011885  0.66173992  0.41868102  1
  Ge  Ge0  1  0.99382250  0.99638831  0.35168584  1
  Ge  Ge1  1  0.00048275  0.00073875  0.85476176  1
  Ge  Ge2  1  0.49505076  0.99518040  0.85895384  1
  Ge  Ge3  1  0.99375549  0.96045649  0.65317277  1
  Ge  Ge4  1  0.99092340  0.01923554  0.14402220  1
  Ge  Ge5  1  0.83679898  0.34619195  0.18260944  1
  Ge  Ge6  1  0.83036494  0.30222694  0.98145509  1
  Ge  Ge7  1  0.17252585  0.66759664  0.01340852  1
  Ge  Ge8  1  0.67408171  0.66778813  0.01714725  1
  Ge  Ge9  1  0.17107916  0.67806464  0.51668067  1
  Ge  Ge10  1  0.16267730  0.67711075  0.81859994  1
  Ge  Ge11  1  0.66876541  0.69168429  0.81588258  1
  S  S0  1  0.13672255  0.00070106  0.24896749  1
  S  S1  1  0.65271639  0.01191725  0.24783374  1
  S  S2  1  0.13658712  0.28595575  0.75151383  1
  S  S3  1  0.64308137  0.29501540  0.75556984  1
  S  S4  1  0.48124731  0.33431896  0.58424156  1
  S  S5  1  0.98503418  0.32646518  0.58498725  1
  S  S6  1  0.48491977  0.62537506  0.08000624  1
  S  S7  1  0.97508529  0.62206259  0.08262153  1
  S  S8  1  0.81218746  0.66624470  0.91620851  1
  O  O0  1  0.10053548  0.02124035  0.30710824  1
  O  O1  1  0.61022687  0.01841534  0.30422325  1
  O  O2  1  0.39952044  0.78117681  0.31236289  1
  O  O3  1  0.91943796  0.79595253  0.30951745  1
  O  O4  1  0.49373443  0.19505835  0.30795551  1
  O  O5  1  0.97814804  0.15999945  0.30556229  1
  O  O6  1  0.10192960  0.18697018  0.80930469  1
  O  O7  1  0.60113146  0.18191129  0.80801156  1
  O  O8  1  0.49173476  0.81231693  0.81548612  1
  O  O9  1  0.99134720  0.82207630  0.81166748  1
  O  O10  1  0.41270323  0.02562792  0.81801322  1
  O  O11  1  0.91475092  0.02051887  0.81798454  1
  O  O12  1  0.39634641  0.97049202  0.70002408  1
  O  O13  1  0.90870399  0.96476147  0.69695519  1
  O  O14  1  0.08459611  0.19306146  0.69866325  1
  O  O15  1  0.59407249  0.21763397  0.69969307  1
  O  O16  1  0.02300599  0.82423073  0.69479491  1
  O  O17  1  0.52024988  0.82488094  0.69646969  1
  O  O18  1  0.41180714  0.82691056  0.19504345  1
  O  O19  1  0.91426718  0.84699070  0.18924954  1
  O  O20  1  0.01164091  0.20588237  0.18525204  1
  O  O21  1  0.50889260  0.20992448  0.18769227  1
  O  O22  1  0.08713286  0.99056258  0.19573668  1
  O  O23  1  0.60028904  0.99722344  0.19509553  1
  O  O24  1  0.43298422  0.34895181  0.63587436  1
  O  O25  1  0.93794327  0.34770760  0.63643312  1
  O  O26  1  0.23974963  0.11630570  0.64589683  1
  O  O27  1  0.73947430  0.13124161  0.64688800  1
  O  O28  1  0.31783542  0.50540959  0.63782481  1
  O  O29  1  0.83313000  0.51246589  0.64242430  1
  O  O30  1  0.43766161  0.51573188  0.13217460  1
  O  O31  1  0.93798539  0.50747333  0.13770418  1
  O  O32  1  0.31545336  0.11065055  0.14076915  1
  O  O33  1  0.81494349  0.13531660  0.14227414  1
  O  O34  1  0.23864706  0.36162061  0.13687252  1
  O  O35  1  0.75782008  0.37504620  0.13962562  1
  O  O36  1  0.22038243  0.30303054  0.02010879  1
  O  O37  1  0.74796169  0.31978871  0.01960262  1
  O  O38  1  0.43451578  0.54964355  0.02451508  1
  O  O39  1  0.92080476  0.53891573  0.02889933  1
  O  O40  1  0.34327736  0.14998312  0.02320526  1
  O  O41  1  0.85620010  0.16366704  0.02399179  1
  O  O42  1  0.21958047  0.13809712  0.52721651  1
  O  O43  1  0.73221774  0.13902466  0.52603872  1
  O  O44  1  0.34693792  0.55092395  0.52149407  1
  O  O45  1  0.85344867  0.55921020  0.52602579  1
  O  O46  1  0.43295913  0.31458072  0.52771183  1
  O  O47  1  0.93531392  0.30528470  0.52854248  1
  O  O48  1  0.26842424  0.71002427  0.97242383  1
  O  O49  1  0.77407426  0.70184659  0.97099375  1
  O  O50  1  0.08438854  0.46522861  0.97572591  1
  O  O51  1  0.58745851  0.46921839  0.97870715  1
  O  O52  1  0.14180526  0.81587071  0.97372811  1
  O  O53  1  0.64863322  0.81500187  0.97273932  1
  O  O54  1  0.26337889  0.82293880  0.47241851  1
  O  O55  1  0.77488236  0.83986827  0.46706063  1
  O  O56  1  0.13820202  0.46660244  0.47367422  1
  O  O57  1  0.64687430  0.45870943  0.47532125  1
  O  O58  1  0.08443721  0.71071030  0.47887026  1
  O  O59  1  0.57503836  0.69293469  0.48048485  1
  O  O60  1  0.06567144  0.63248966  0.36094444  1
  O  O61  1  0.57112679  0.63524453  0.36314583  1
  O  O62  1  0.25421743  0.88198156  0.35372262  1
  O  O63  1  0.75874806  0.89327579  0.35106417  1
  O  O64  1  0.18794215  0.49962474  0.35903795  1
  O  O65  1  0.68833195  0.49457518  0.35989677  1
  O  O66  1  0.06474052  0.50461660  0.85739976  1
  O  O67  1  0.58312290  0.52433260  0.86028575  1
  O  O68  1  0.18142813  0.87305302  0.85612098  1
  O  O69  1  0.69438624  0.88823228  0.85702438  1
  O  O70  1  0.23886673  0.62336204  0.85722574  1
  O  O71  1  0.75956628  0.64473471  0.86233680  1
  O  O72  1  0.01769819  0.85399494  0.40937163  1
  O  O73  1  0.51263159  0.83556863  0.41221568  1
  O  O74  1  0.40532828  0.97570842  0.41441270  1
  O  O75  1  0.91232283  0.97345239  0.40700439  1
  O  O76  1  0.07483564  0.18362418  0.40593296  1
  O  O77  1  0.58462812  0.17891391  0.41239245  1
  O  O78  1  0.00973363  0.18677730  0.90978856  1
  O  O79  1  0.51870330  0.18818043  0.90906296  1
  O  O80  1  0.07524373  0.98323200  0.91101362  1
  O  O81  1  0.57884015  0.96778667  0.91225721  1
  O  O82  1  0.40680968  0.84381393  0.91156448  1
  O  O83  1  0.89874612  0.82919432  0.91432043  1
  O  O84  1  0.49214457  0.18244900  0.58953007  1
  O  O85  1  0.99474260  0.17452284  0.59191980  1
  O  O86  1  0.08265642  0.01247297  0.59708803  1
  O  O87  1  0.58726417  0.01991423  0.58709923  1
  O  O88  1  0.41053538  0.81604495  0.58875138  1
  O  O89  1  0.92280621  0.82552354  0.59343211  1
  O  O90  1  0.49940360  0.80199306  0.08527603  1
  O  O91  1  0.98304711  0.79296566  0.08936107  1
  O  O92  1  0.41381030  0.00759175  0.08142816  1
  O  O93  1  0.91433514  0.01834978  0.08886336  1
  O  O94  1  0.07974916  0.14712304  0.08873457  1
  O  O95  1  0.60220809  0.17913732  0.08320050  1
  O  O96  1  0.33332226  0.15446693  0.75352330  1
  O  O97  1  0.84031317  0.14602856  0.74954329  1
  O  O98  1  0.22368752  0.29888716  0.74821140  1
  O  O99  1  0.72965788  0.30472183  0.75210319  1
  O  O100  1  0.41767724  0.52145679  0.75061848  1
  O  O101  1  0.91732253  0.52107258  0.75375030  1
  O  O102  1  0.33653414  0.50701707  0.24479369  1
  O  O103  1  0.85407462  0.52011089  0.23814850  1
  O  O104  1  0.40750395  0.30041835  0.24531673  1
  O  O105  1  0.90371150  0.29367884  0.23924167  1
  O  O106  1  0.22584040  0.15389061  0.24736633  1
  O  O107  1  0.73816947  0.17214822  0.24648843  1
  O  O108  1  0.32235052  0.50440701  0.91658987  1
  O  O109  1  0.82322468  0.51571663  0.92125821  1
  O  O110  1  0.43652722  0.36614836  0.91920089  1
  O  O111  1  0.92197778  0.35850790  0.92671982  1
  O  O112  1  0.24298604  0.13456114  0.91999439  1
  O  O113  1  0.75666588  0.14413250  0.92571457  1
  O  O114  1  0.32291611  0.14572068  0.42401227  1
  O  O115  1  0.83587311  0.16125083  0.42120954  1
  O  O116  1  0.24174450  0.34395946  0.42423886  1
  O  O117  1  0.75258357  0.35295030  0.42285744  1
  O  O118  1  0.42376479  0.49203130  0.42071957  1
  O  O119  1  0.92944946  0.51086999  0.42483709  1
  O  O120  1  0.16227740  0.49783934  0.07327848  1
  O  O121  1  0.68484031  0.51611621  0.07202383  1
  O  O122  1  0.06037232  0.63465994  0.07847254  1
  O  O123  1  0.56845204  0.62759815  0.07902741  1
  O  O124  1  0.23531393  0.83099448  0.07292864  1
  O  O125  1  0.74095536  0.84664182  0.07241018  1
  O  O126  1  0.16446071  0.82787964  0.57899263  1
  O  O127  1  0.66643956  0.83901804  0.58605304  1
  O  O128  1  0.23511211  0.63611144  0.57428801  1
  O  O129  1  0.74859620  0.64665558  0.58656985  1
  O  O130  1  0.06756792  0.48990332  0.58219300  1
  O  O131  1  0.56490592  0.49348972  0.58387248  1
  O  O132  1  0.14720409  0.84679373  0.25066899  1
  O  O133  1  0.66480152  0.85989716  0.24782773  1
  O  O134  1  0.26088781  0.70611560  0.24484248  1
  O  O135  1  0.77243143  0.70620957  0.24938212  1
  O  O136  1  0.07688330  0.47651921  0.25004635  1
  O  O137  1  0.58350680  0.49913376  0.24629540  1
  O  O138  1  0.14550796  0.45697229  0.75370246  1
  O  O139  1  0.65520652  0.46952249  0.76037444  1
  O  O140  1  0.09052195  0.69567915  0.76088133  1
  O  O141  1  0.59383180  0.70234158  0.76116819  1
  O  O142  1  0.25264936  0.81077918  0.76167281  1
  O  O143  1  0.76027458  0.80754595  0.76076744  1
loop_
_geom_bond_atom_site_label_1
_geom_bond_atom_site_label_2
_geom_bond_distance
_geom_bond_site_symmetry_2
Na0 O134 2.300335 1_545
Na0 O104 2.339078 1_555
Na0 O62 2.589426 1_545
Na0 O32 2.628553 1_555
Na0 O106 2.650664 1_555
Na0 O132 2.689853 1_545
Na1 O105 2.293085 1_555
Na1 O135 2.323747 1_545
Na1 O133 2.421441 1_545
Na1 O63 2.523053 1_545
Na1 O107 2.606092 1_555
Na1 O33 2.674905 1_555
Na1 O5 2.757088 1_555
Na1 O19 2.947730 1_545
Na2 O140 2.315055 1_555
Na2 O96 2.341239 1_565
Na2 O142 2.474547 1_555
Na2 O98 2.497724 1_565
Na2 O26 2.521286 1_565
Na2 O68 2.619504 1_555
Na2 O16 2.746791 1_555
Na3 O141 2.336071 1_555
Na3 O97 2.404441 1_565
Na3 O99 2.456036 1_565
Na3 O27 2.478610 1_565
Na3 O143 2.651098 1_555
Na3 O69 2.685992 1_555
Na3 O17 2.792928 1_555
Na4 O126 2.342215 1_555
Na4 O130 2.428619 1_555
Na4 O89 2.476532 1_455
Na4 O58 2.520543 1_555
Na4 O86 2.533956 1_565
Na4 O45 2.755702 1_455
Na4 O16 2.824508 1_555
Na4 O25 2.967838 1_455
Na5 O127 2.380122 1_555
Na5 O59 2.449156 1_555
Na5 O87 2.461789 1_565
Na5 O131 2.471138 1_555
Na5 O88 2.512942 1_555
Na5 O17 2.847315 1_555
Na5 O44 2.873625 1_555
Na6 O120 2.365536 1_555
Na6 O122 2.368558 1_555
Na6 O93 2.484911 1_455
Na6 O94 2.546810 1_555
Na6 O50 2.605635 1_554
Na6 O20 2.660172 1_555
Na6 O41 2.676810 1_455
Na6 O31 2.796590 1_455
Na7 O123 2.354087 1_555
Na7 O95 2.434827 1_555
Na7 O51 2.482263 1_554
Na7 O92 2.553770 1_555
Na7 O121 2.553993 1_555
Na7 O21 2.688133 1_555
Na8 O81 2.371473 1_555
Na8 O110 2.383586 1_555
Na8 O8 2.493757 1_555
Na8 O108 2.494930 1_555
Na8 O82 2.557452 1_555
Na8 O38 2.678131 1_556
Na8 O53 2.899202 1_555
Na8 O67 2.902707 1_555
Na9 O82 2.392537 1_545
Na9 O10 2.440285 1_555
Na9 O112 2.486226 1_555
Na9 O110 2.540677 1_555
Na9 O79 2.596581 1_555
Na9 O40 2.655841 1_556
Na9 O48 2.863205 1_545
Na9 O68 2.942975 1_545
Na10 O113 2.374395 1_555
Na10 O83 2.379677 1_545
Na10 O11 2.392597 1_555
Na10 O78 2.416377 1_655
Na10 O111 2.508486 1_555
Na10 O41 2.741504 1_556
Na10 O69 2.755618 1_545
Na10 O49 2.938711 1_545
Na11 O78 2.381352 1_555
Na11 O80 2.499044 1_545
Na11 O108 2.518385 1_555
Na11 O36 2.530723 1_556
Na11 O112 2.572800 1_555
Na11 O6 2.622053 1_555
Na11 O50 2.771591 1_555
Na11 O70 2.809069 1_555
Na12 O118 2.409777 1_555
Na12 O114 2.520200 1_555
Na12 O77 2.544982 1_555
Na12 O74 2.556795 1_545
Na12 O4 2.590340 1_555
Na12 O46 2.724384 1_555
Na12 O61 2.798680 1_555
Na12 O57 2.867256 1_555
Na13 O115 2.346717 1_555
Na13 O76 2.380728 1_655
Na13 O119 2.459493 1_555
Na13 O75 2.642815 1_545
Na13 O5 2.697509 1_555
Na13 O60 2.723492 1_655
Na13 O56 2.729886 1_655
Na13 O47 2.756406 1_555
Na14 O72 2.306501 1_545
Na14 O116 2.421008 1_555
Na14 O114 2.490299 1_555
Na14 O76 2.569445 1_555
Na14 O0 2.645044 1_555
Na14 O42 2.678619 1_555
Na14 O58 2.878026 1_545
Na14 O62 2.897300 1_545
Na15 O73 2.436135 1_545
Na15 O77 2.482722 1_555
Na15 O117 2.543523 1_555
Na15 O43 2.596381 1_555
Na15 O115 2.620856 1_555
Na15 O1 2.774253 1_555
Na15 O63 2.887244 1_545
Na15 O59 2.912925 1_545
Na16 O74 2.462834 1_555
Na16 O116 2.506598 1_555
Na16 O118 2.521678 1_555
Na16 O44 2.539733 1_555
Na16 O2 2.545250 1_555
Na16 O73 2.597439 1_555
Na16 O64 2.759544 1_555
Na16 O54 2.811420 1_555
Na17 O75 2.374121 1_555
Na17 O119 2.441210 1_555
Na17 O117 2.496361 1_555
Na17 O72 2.578442 1_655
Na17 O3 2.602114 1_555
Na17 O45 2.698661 1_555
Na17 O55 2.777693 1_555
Na17 O65 2.808287 1_555
Na18 O85 2.500097 1_455
Na18 O86 2.522857 1_555
Na18 O89 2.523818 1_445
Na18 O75 2.606491 1_445
Na18 O72 2.615802 1_545
Na18 O76 2.626913 1_555
Na19 O87 2.394548 1_555
Na19 O77 2.511275 1_555
Na19 O74 2.529808 1_545
Na19 O88 2.557864 1_545
Na19 O73 2.560242 1_545
Na19 O84 2.592226 1_555
Na20 O94 2.402288 1_565
Na20 O80 2.428267 1_554
Na20 O91 2.455800 1_455
Na20 O83 2.574953 1_454
Na20 O93 2.606332 1_465
Na20 O78 2.742797 1_564
Na21 O81 2.389539 1_545
Na21 O79 2.441451 1_555
Na21 O95 2.478520 1_556
Na21 O92 2.550701 1_556
Na21 O82 2.564340 1_545
Na21 O90 2.690917 1_546
Na22 O100 2.337511 1_555
Na22 O96 2.375678 1_555
Na22 O110 2.478070 1_555
Na22 O108 2.519777 1_555
Na22 O112 2.700189 1_555
Na22 O98 2.737596 1_555
Na23 O101 2.320711 1_555
Na23 O111 2.393960 1_555
Na23 O109 2.483258 1_555
Na23 O113 2.659482 1_555
Na23 O99 2.692746 1_555
Na23 O97 2.708174 1_555
Na24 O102 2.368934 1_555
Na24 O118 2.425229 1_555
Na24 O104 2.442751 1_555
Na24 O116 2.691519 1_555
Na24 O106 2.694248 1_555
Na24 O114 2.710158 1_555
Na25 O103 2.402426 1_555
Na25 O105 2.471150 1_555
Na25 O107 2.524581 1_555
Na25 O119 2.628788 1_555
Na25 O117 2.641536 1_555
Na25 O115 2.705276 1_555
Na26 O120 2.371767 1_555
Na26 O134 2.393171 1_555
Na26 O124 2.402231 1_555
Na26 O136 2.591046 1_555
Na26 O122 2.594218 1_555
Na26 O132 2.787714 1_555
Na27 O121 2.412179 1_555
Na27 O137 2.437303 1_555
Na27 O135 2.467072 1_555
Na27 O125 2.512550 1_555
Na27 O123 2.607401 1_555
Na27 O133 2.722469 1_555
Na28 O128 2.397611 1_555
Na28 O142 2.466308 1_555
Na28 O126 2.513284 1_555
Na28 O138 2.555798 1_555
Na28 O130 2.638563 1_555
Na28 O140 2.690960 1_555
Na29 O129 2.306696 1_555
Na29 O143 2.430265 1_555
Na29 O127 2.481934 1_555
Na29 O139 2.590400 1_555
Na29 O141 2.643405 1_555
Na29 O131 2.676826 1_555
Ge0 O75 1.843114 1_555
Ge0 O3 1.868973 1_555
Ge0 O5 1.918193 1_565
Ge0 O76 1.987335 1_665
Ge0 O72 1.998064 1_655
Ge0 O0 2.064894 1_665
Ge1 O9 1.801106 1_445
Ge1 O11 1.821142 1_455
Ge1 O80 1.893263 1_545
Ge1 O78 2.007070 1_555
Ge1 O6 2.023257 1_555
Ge1 O83 2.158561 1_445
Ge2 O10 1.861932 1_565
Ge2 O8 1.876625 1_555
Ge2 O82 1.892189 1_555
Ge2 O79 1.918487 1_565
Ge2 O81 2.018143 1_555
Ge2 O7 2.129388 1_565
Ge3 O16 1.801945 1_655
Ge3 O89 1.820285 1_555
Ge3 O13 1.825181 1_555
Ge3 O86 1.891972 1_665
Ge3 O14 2.152050 1_665
Ge3 O85 2.343245 1_565
Ge4 O20 1.775878 1_655
Ge4 O19 1.781295 1_545
Ge4 O93 1.835623 1_555
Ge4 O94 1.884395 1_655
Ge4 O22 2.186983 1_645
Ge4 O91 2.306039 1_545
Ge5 O35 1.826058 1_555
Ge5 O103 1.889712 1_555
Ge5 O31 1.941090 1_555
Ge5 O33 1.945548 1_555
Ge5 O105 1.948485 1_555
Ge5 O107 2.200051 1_555
Ge6 O37 1.775953 1_556
Ge6 O41 1.792268 1_556
Ge6 O113 1.850351 1_555
Ge6 O111 1.901085 1_555
Ge6 O39 2.192634 1_556
Ge6 O109 2.387090 1_555
Ge7 O48 1.810657 1_554
Ge7 O124 1.876890 1_555
Ge7 O52 1.887110 1_554
Ge7 O50 1.904238 1_554
Ge7 O120 1.959743 1_555
Ge7 O122 2.374262 1_555
Ge8 O53 1.873674 1_554
Ge8 O51 1.883986 1_554
Ge8 O125 1.897847 1_555
Ge8 O121 1.904853 1_555
Ge8 O49 1.952987 1_554
Ge8 O123 2.221590 1_555
Ge9 O54 1.804404 1_555
Ge9 O128 1.876347 1_555
Ge9 O58 1.907471 1_555
Ge9 O56 1.932752 1_555
Ge9 O126 1.974772 1_555
Ge9 O130 2.302788 1_555
Ge10 O68 1.816242 1_555
Ge10 O70 1.863502 1_555
Ge10 O66 1.874504 1_555
Ge10 O140 1.885002 1_555
Ge10 O142 1.929530 1_555
Ge10 O138 2.337547 1_555
Ge11 O67 1.814123 1_555
Ge11 O69 1.827608 1_555
Ge11 O141 1.847088 1_555
Ge11 O143 1.892769 1_555
Ge11 O71 2.133861 1_555
Ge11 O139 2.249436 1_555
O0 S0 1.501690 1_555
O1 S1 1.486450 1_555
O1 Zr0 2.237160 1_545
O2 Si0 1.644976 1_555
O2 Zr0 2.020100 1_555
O3 Si1 1.672187 1_555
O4 Si3 1.651021 1_555
O4 Zr0 2.045267 1_545
O5 Si2 1.670129 1_555
O6 S2 1.511424 1_555
O7 S3 1.483470 1_555
O8 Si5 1.642996 1_555
O9 Si4 1.632226 1_655
O10 Si6 1.650305 1_545
O11 Si7 1.646719 1_545
O12 Si6 1.627509 1_555
O12 Zr1 1.983610 1_555
O13 Si7 1.643778 1_555
O14 S2 1.473849 1_555
O15 S3 1.480879 1_555
O15 Zr1 2.250156 1_545
O16 Si4 1.666699 1_555
O17 Si5 1.639484 1_555
O17 Zr1 2.007494 1_555
O18 Si0 1.634167 1_555
O18 Zr2 1.997940 1_565
O19 Si1 1.643178 1_555
O20 Si2 1.633542 1_455
O21 Si3 1.643436 1_555
O21 Zr2 1.985651 1_555
O22 S0 1.455604 1_565
O23 S1 1.466886 1_565
O23 Zr2 2.191923 1_565
O24 S4 1.484543 1_555
O24 Zr3 2.150015 1_555
O25 S5 1.491380 1_555
O25 Zr4 2.139647 1_555
O26 Si8 1.634201 1_555
O26 Zr3 2.061568 1_555
O27 Si9 1.633661 1_555
O27 Zr4 2.053090 1_555
O28 Si10 1.646251 1_555
O28 Zr3 2.023501 1_555
O29 Si11 1.620272 1_555
O29 Zr4 1.985331 1_555
O30 S6 1.485716 1_555
O30 Zr5 2.197123 1_555
O31 S7 1.524579 1_555
O32 Si12 1.643780 1_555
O32 Zr5 2.090708 1_555
O33 Si13 1.643545 1_555
O34 Si14 1.622149 1_555
O34 Zr5 1.991832 1_555
O35 Si15 1.643220 1_555
O36 Si14 1.640980 1_555
O36 Zr6 2.035088 1_554
O37 Si15 1.644232 1_555
O38 S6 1.480441 1_555
O38 Zr6 2.271532 1_554
O39 S7 1.486219 1_555
O40 Si12 1.646346 1_555
O40 Zr6 2.010098 1_554
O41 Si13 1.662713 1_555
O42 Si8 1.640480 1_555
O42 Zr7 2.024753 1_555
O43 Si9 1.644447 1_555
O43 Zr8 2.017761 1_555
O44 Si10 1.638381 1_555
O44 Zr7 2.029780 1_555
O45 Si11 1.645028 1_555
O45 Zr8 2.054109 1_555
O46 S4 1.486448 1_555
O46 Zr7 2.242868 1_555
O47 S5 1.496111 1_555
O47 Zr8 2.222801 1_555
O48 Si16 1.635673 1_555
O49 S8 1.509198 1_555
O50 Si17 1.642486 1_555
O51 Si18 1.660113 1_555
O52 Si19 1.622104 1_555
O53 Si20 1.647479 1_555
O54 Si21 1.632792 1_555
O55 Si22 1.635865 1_555
O55 Zr9 1.991378 1_555
O56 Si23 1.642224 1_555
O57 Si24 1.612464 1_555
O57 Zr9 2.052941 1_555
O58 Si25 1.660720 1_555
O59 Si26 1.632059 1_555
O59 Zr9 2.087483 1_555
O60 Si25 1.609588 1_555
O60 Zr10 2.024301 1_555
O61 Si26 1.625175 1_555
O61 Zr11 2.045677 1_555
O62 Si21 1.620059 1_555
O62 Zr10 2.127009 1_555
O63 Si22 1.617203 1_555
O63 Zr11 2.116432 1_555
O64 Si23 1.620992 1_555
O64 Zr10 1.980492 1_555
O65 Si24 1.629166 1_555
O65 Zr11 1.982241 1_555
O66 Si17 1.626164 1_555
O67 Si18 1.647038 1_555
O68 Si19 1.626828 1_555
O69 Si20 1.667467 1_555
O70 Si16 1.634800 1_555
O71 S8 1.476704 1_555
O72 Si25 1.654822 1_555
O73 Si26 1.630990 1_555
O73 Zr0 2.097716 1_555
O74 Si21 1.641121 1_555
O74 Zr0 2.068295 1_555
O75 Si22 1.636432 1_555
O76 Si23 1.645380 1_555
O77 Si24 1.620700 1_555
O77 Zr0 2.118810 1_545
O78 Si17 1.700445 1_555
O79 Si18 1.659496 1_555
O80 Si19 1.673568 1_555
O81 Si20 1.644010 1_555
O82 Si16 1.667943 1_555
O83 S8 1.509588 1_555
O84 S4 1.468967 1_555
O84 Zr1 2.236470 1_545
O85 S5 1.460521 1_555
O86 Si8 1.663591 1_555
O87 Si9 1.634850 1_555
O87 Zr1 2.121449 1_545
O88 Si10 1.643076 1_555
O88 Zr1 2.033580 1_555
O89 Si11 1.649811 1_555
O90 S6 1.472428 1_555
O90 Zr2 2.254665 1_565
O91 S7 1.470228 1_555
O92 Si12 1.661851 1_555
O92 Zr2 2.044801 1_555
O93 Si13 1.663827 1_555
O94 Si14 1.683708 1_555
O95 Si15 1.653713 1_555
O95 Zr2 2.150234 1_555
O96 Si6 1.656523 1_545
O96 Zr3 2.158191 1_555
O97 Si7 1.642586 1_545
O97 Zr4 2.121763 1_555
O98 S2 1.505043 1_555
O98 Zr3 2.195154 1_555
O99 S3 1.508720 1_555
O99 Zr4 2.252933 1_555
O100 Si5 1.624553 1_555
O100 Zr3 2.111219 1_555
O101 Si4 1.621787 1_655
O101 Zr4 2.083021 1_555
O102 Si0 1.613206 1_555
O102 Zr5 2.042355 1_555
O103 Si1 1.646602 1_555
O104 Si3 1.629856 1_555
O104 Zr5 2.129639 1_555
O105 Si2 1.663591 1_555
O106 S0 1.499108 1_555
O106 Zr5 2.207178 1_555
O107 S1 1.487423 1_555
O108 Si16 1.643238 1_555
O108 Zr6 2.129731 1_555
O109 S8 1.458158 1_555
O110 Si18 1.665088 1_555
O110 Zr6 2.240521 1_555
O111 Si17 1.685625 1_655
O112 Si19 1.669465 1_545
O112 Zr6 2.025351 1_555
O113 Si20 1.660217 1_545
O114 Si21 1.626808 1_545
O114 Zr7 2.080979 1_555
O115 Si22 1.622539 1_545
O115 Zr8 2.131296 1_555
O116 Si23 1.637119 1_555
O116 Zr7 2.027154 1_555
O117 Si24 1.629202 1_555
O117 Zr8 2.032351 1_555
O118 Si26 1.635430 1_555
O118 Zr7 2.182825 1_555
O119 Si25 1.624638 1_655
O119 Zr8 2.121238 1_555
O120 Si14 1.645010 1_555
O121 Si15 1.680629 1_555
O122 S7 1.475147 1_455
O123 S6 1.483810 1_555
O124 Si12 1.628501 1_565
O125 Si13 1.640845 1_565
O126 Si8 1.655687 1_565
O127 Si9 1.633382 1_565
O127 Zr9 2.108206 1_555
O128 Si10 1.621285 1_555
O129 Si11 1.601615 1_555
O129 Zr9 2.065432 1_555
O130 S5 1.474453 1_455
O131 S4 1.465330 1_555
O131 Zr9 2.361317 1_555
O132 S0 1.478500 1_565
O132 Zr10 2.293313 1_555
O133 S1 1.478388 1_565
O133 Zr11 2.319926 1_555
O134 Si0 1.633460 1_555
O134 Zr10 2.125068 1_555
O135 Si1 1.643405 1_555
O135 Zr11 2.152573 1_555
O136 Si2 1.607907 1_455
O136 Zr10 2.041824 1_555
O137 Si3 1.615501 1_555
O137 Zr11 2.057097 1_555
O138 S2 1.457142 1_555
O139 S3 1.468550 1_555
O140 Si4 1.648373 1_555
O141 Si5 1.671116 1_555
O142 Si6 1.655909 1_555
O143 Si7 1.684657 1_555
