# generated using pymatgen
data_Tm2MgMo2(ClO4)2
_symmetry_space_group_name_H-M   'P 1'
_cell_length_a   6.45486291
_cell_length_b   6.45958286
_cell_length_c   6.90417514
_cell_angle_alpha   72.63247860
_cell_angle_beta   72.61905601
_cell_angle_gamma   65.68279122
_symmetry_Int_Tables_number   1
_chemical_formula_structural   Tm2MgMo2(ClO4)2
_chemical_formula_sum   'Tm2 Mg1 Mo2 Cl2 O8'
_cell_volume   245.20595968
_cell_formula_units_Z   1
loop_
 _symmetry_equiv_pos_site_id
 _symmetry_equiv_pos_as_xyz
  1  'x, y, z'
loop_
 _atom_site_type_symbol
 _atom_site_label
 _atom_site_symmetry_multiplicity
 _atom_site_fract_x
 _atom_site_fract_y
 _atom_site_fract_z
 _atom_site_occupancy
  Tm  Tm0  1  0.24740400  0.23677600  0.89588600  1
  Tm  Tm1  1  0.76419600  0.75331200  0.10414900  1
  Mg  Mg0  1  0.30761700  0.69298700  0.49967400  1
  Mo  Mo0  1  0.64025300  0.64358300  0.73236400  1
  Mo  Mo1  1  0.35746000  0.36000200  0.26777200  1
  Cl  Cl0  1  0.04518400  0.95722600  0.24590900  1
  Cl  Cl1  1  0.04371200  0.95518800  0.75392500  1
  O  O0  1  0.24783500  0.37884900  0.54671900  1
  O  O1  1  0.62134800  0.75274300  0.45348000  1
  O  O2  1  0.51348800  0.11506700  0.12975900  1
  O  O3  1  0.52716400  0.55147400  0.22111200  1
  O  O4  1  0.88547700  0.48789800  0.87020500  1
  O  O5  1  0.09241900  0.46232700  0.15644300  1
  O  O6  1  0.44948400  0.47319100  0.77921700  1
  O  O7  1  0.53821000  0.90854400  0.84338600  1
loop_
_geom_bond_atom_site_label_1
_geom_bond_atom_site_label_2
_geom_bond_distance
_geom_bond_site_symmetry_2
Mg0 O1 2.129816 1_555
Mg0 O0 2.132742 1_555
Mg0 O3 2.212937 1_555
Mg0 O6 2.220036 1_555
Mo0 O4 1.854776 1_555
Mo0 O1 1.865067 1_555
Mo0 O6 1.870320 1_555
Mo0 O7 1.871865 1_555
Mo1 O2 1.854700 1_555
Mo1 O0 1.865330 1_555
Mo1 O3 1.870983 1_555
Mo1 O5 1.872315 1_555
Cl0 Mg0 2.541483 1_555
Cl0 Tm0 2.873344 1_564
Cl0 Tm1 3.127359 1_455
Cl1 Mg0 2.542466 1_555
Cl1 Tm1 2.872515 1_456
Cl1 Tm0 3.130776 1_565
O0 Tm0 2.308910 1_555
O1 Tm1 2.309990 1_555
O2 Tm1 2.252104 1_545
O2 Tm0 2.441768 1_554
O3 Tm1 2.229140 1_555
O4 Tm0 2.252839 1_655
O4 Tm1 2.439971 1_556
O5 Tm1 2.219047 1_455
O5 Tm0 2.376726 1_554
O6 Tm0 2.227309 1_555
O7 Tm0 2.219210 1_565
O7 Tm1 2.379327 1_556
