# generated using pymatgen
data_Al2CuO4
_symmetry_space_group_name_H-M   'P 1'
_cell_length_a   5.70083425
_cell_length_b   5.70083142
_cell_length_c   5.70083060
_cell_angle_alpha   59.99997723
_cell_angle_beta   59.99998966
_cell_angle_gamma   59.99999673
_symmetry_Int_Tables_number   1
_chemical_formula_structural   Al2CuO4
_chemical_formula_sum   'Al4 Cu2 O8'
_cell_volume   131.00854749
_cell_formula_units_Z   2
loop_
 _symmetry_equiv_pos_site_id
 _symmetry_equiv_pos_as_xyz
  1  'x, y, z'
loop_
 _atom_site_type_symbol
 _atom_site_label
 _atom_site_symmetry_multiplicity
 _atom_site_fract_x
 _atom_site_fract_y
 _atom_site_fract_z
 _atom_site_occupancy
  Al  Al0  1  0.50000000  0.00000000  0.50000000  1
  Al  Al1  1  0.00000000  0.50000000  0.50000000  1
  Al  Al2  1  0.50000000  0.50000000  0.00000000  1
  Al  Al3  1  0.50000000  0.50000000  0.50000000  1
  Cu  Cu0  1  0.12500000  0.12500000  0.12500000  1
  Cu  Cu1  1  0.87500000  0.87500000  0.87500000  1
  O  O0  1  0.73554453  0.73554453  0.73554453  1
  O  O1  1  0.26445447  0.26445547  0.70663560  1
  O  O2  1  0.26445547  0.70663560  0.26445547  1
  O  O3  1  0.70663560  0.26445547  0.26445547  1
  O  O4  1  0.73554453  0.29336440  0.73554453  1
  O  O5  1  0.29336440  0.73554453  0.73554453  1
  O  O6  1  0.26445547  0.26445547  0.26445547  1
  O  O7  1  0.73554553  0.73554453  0.29336440  1
loop_
_geom_bond_atom_site_label_1
_geom_bond_atom_site_label_2
_geom_bond_distance
_geom_bond_site_symmetry_2
Al0 O0 1.906144 1_545
Al0 O6 1.906144 1_555
Al0 O3 1.906152 1_555
Al0 O5 1.906152 1_545
Al0 O1 1.906152 1_555
Al0 O7 1.906152 1_545
Al1 O0 1.906144 1_455
Al1 O6 1.906144 1_555
Al1 O1 1.906148 1_555
Al1 O7 1.906148 1_455
Al1 O2 1.906152 1_555
Al1 O4 1.906152 1_455
Al2 O0 1.906144 1_554
Al2 O6 1.906144 1_555
Al2 O2 1.906152 1_555
Al2 O4 1.906152 1_554
Al2 O3 1.906152 1_555
Al2 O5 1.906152 1_554
Al3 O5 1.906143 1_555
Al3 O3 1.906143 1_555
Al3 O4 1.906144 1_555
Al3 O2 1.906144 1_555
Al3 O7 1.906148 1_555
Al3 O1 1.906148 1_555
Cu0 O1 1.947364 1_554
Cu0 O2 1.947364 1_545
Cu0 O3 1.947366 1_455
Cu0 O6 1.947374 1_555
Cu1 O7 1.947364 1_556
Cu1 O4 1.947364 1_565
Cu1 O5 1.947366 1_655
Cu1 O0 1.947374 1_555
