# generated using pymatgen
data_Sr4MgFe4O11
_symmetry_space_group_name_H-M   'P 1'
_cell_length_a   6.16319852
_cell_length_b   6.79281790
_cell_length_c   7.13893871
_cell_angle_alpha   111.67843260
_cell_angle_beta   95.94305196
_cell_angle_gamma   86.58985835
_symmetry_Int_Tables_number   1
_chemical_formula_structural   Sr4MgFe4O11
_chemical_formula_sum   'Sr4 Mg1 Fe4 O11'
_cell_volume   276.17052897
_cell_formula_units_Z   1
loop_
 _symmetry_equiv_pos_site_id
 _symmetry_equiv_pos_as_xyz
  1  'x, y, z'
loop_
 _atom_site_type_symbol
 _atom_site_label
 _atom_site_symmetry_multiplicity
 _atom_site_fract_x
 _atom_site_fract_y
 _atom_site_fract_z
 _atom_site_occupancy
  Sr  Sr0  1  0.04776862  0.77525182  0.28769582  1
  Sr  Sr1  1  0.89830490  0.27755051  0.81164794  1
  Sr  Sr2  1  0.50168535  0.95409156  0.96755839  1
  Sr  Sr3  1  0.59604906  0.50010822  0.46025003  1
  Mg  Mg0  1  0.24024167  0.34126600  0.60555931  1
  Fe  Fe0  1  0.55739866  -0.00131913  0.46555654  1
  Fe  Fe1  1  0.44320087  0.47308365  0.01143551  1
  Fe  Fe2  1  -0.00117646  0.25314878  0.24411262  1
  Fe  Fe3  1  0.00094638  0.76194517  0.75475495  1
  O  O0  1  0.16192537  0.96928404  0.71463813  1
  O  O1  1  0.26116233  0.11529204  0.33544435  1
  O  O2  1  0.84023483  0.70254960  0.94151756  1
  O  O3  1  0.71444036  0.31797579  0.10516436  1
  O  O4  1  0.79218537  0.10356403  0.36793605  1
  O  O5  1  0.71015881  0.86878572  0.64387834  1
  O  O6  1  0.19395026  0.36775146  0.09933426  1
  O  O7  1  0.28061699  0.61491174  0.84283083  1
  O  O8  1  0.00484819  0.49833613  0.49635559  1
  O  O9  1  0.47403459  0.72319492  0.25747188  1
  O  O10  1  0.52010982  0.27211396  0.70722254  1
loop_
_geom_bond_atom_site_label_1
_geom_bond_atom_site_label_2
_geom_bond_distance
_geom_bond_site_symmetry_2
Mg0 O10 1.902329 1_555
Mg0 O1 1.983038 1_555
Mg0 O7 2.006966 1_555
Mg0 O8 2.011733 1_555
Fe0 O5 1.941235 1_545
Fe0 O4 1.945631 1_555
Fe0 O9 1.968539 1_545
Fe0 O10 2.035447 1_555
Fe0 O1 2.200908 1_555
Fe1 O9 1.942240 1_555
Fe1 O7 1.968031 1_554
Fe1 O6 1.981827 1_555
Fe1 O3 2.105257 1_555
Fe1 O10 2.179606 1_554
Fe2 O8 1.948268 1_555
Fe2 O1 1.992204 1_555
Fe2 O6 2.020827 1_555
Fe2 O3 2.029957 1_455
Fe2 O4 2.118126 1_455
Fe3 O0 1.890260 1_555
Fe3 O2 1.907867 1_455
Fe3 O8 2.042935 1_555
Fe3 O5 2.083524 1_455
Fe3 O7 2.097293 1_555
O0 Sr1 2.502222 1_465
O0 Sr2 2.642850 1_555
O0 Sr0 2.867113 1_555
O1 Sr0 2.620707 1_545
O1 Sr2 2.963529 1_544
O2 Sr0 2.550753 1_656
O2 Sr2 2.594095 1_555
O2 Sr1 2.700083 1_555
O3 Sr1 2.404123 1_554
O3 Sr3 2.539209 1_555
O3 Sr2 2.668166 1_544
O4 Sr0 2.570637 1_645
O4 Sr3 2.759971 1_555
O4 Sr1 2.958981 1_555
O4 Sr2 3.068985 1_544
O5 Sr3 2.465374 1_555
O5 Sr2 2.619759 1_555
O5 Sr1 2.850874 1_565
O6 Sr1 2.518280 1_454
O6 Sr0 2.736128 1_555
O6 Sr2 3.187534 1_544
O7 Sr2 2.562061 1_555
O8 Sr3 2.505737 1_455
O8 Sr0 2.835157 1_555
O9 Sr3 2.493432 1_555
O9 Sr0 2.650297 1_555
O9 Sr2 3.045599 1_554
O10 Sr1 2.370704 1_555
O10 Sr3 2.828542 1_555
