# generated using pymatgen
data_Na2Y3Nb5(PO4)12
_symmetry_space_group_name_H-M   'P 1'
_cell_length_a   17.83941856
_cell_length_b   8.92675332
_cell_length_c   23.20060551
_cell_angle_alpha   89.96843709
_cell_angle_beta   90.03612901
_cell_angle_gamma   119.99388479
_symmetry_Int_Tables_number   1
_chemical_formula_structural   Na2Y3Nb5(PO4)12
_chemical_formula_sum   'Na6 Y9 Nb15 P36 O144'
_cell_volume   3199.85896084
_cell_formula_units_Z   3
loop_
 _symmetry_equiv_pos_site_id
 _symmetry_equiv_pos_as_xyz
  1  'x, y, z'
loop_
 _atom_site_type_symbol
 _atom_site_label
 _atom_site_symmetry_multiplicity
 _atom_site_fract_x
 _atom_site_fract_y
 _atom_site_fract_z
 _atom_site_occupancy
  Na  Na0  1  0.33167249  0.33001224  0.83038253  1
  Na  Na1  1  0.83514561  0.33718899  0.83113198  1
  Na  Na2  1  0.33161692  0.32841991  0.32980051  1
  Na  Na3  1  0.83463355  0.33844448  0.32815321  1
  Na  Na4  1  0.66774845  0.66641017  0.16689958  1
  Na  Na5  1  0.16588792  0.66538916  0.66490957  1
  Y  Y0  1  0.99446011  0.99638930  0.36031365  1
  Y  Y1  1  0.33799352  0.33510996  0.69062303  1
  Y  Y2  1  0.82870978  0.33082380  0.68929541  1
  Y  Y3  1  0.33112945  0.33122204  0.18885379  1
  Y  Y4  1  0.83487107  0.33449345  0.18753135  1
  Y  Y5  1  0.66696266  0.66752243  0.01586646  1
  Y  Y6  1  0.17100966  0.67327686  0.51869106  1
  Y  Y7  1  0.66878045  0.66823799  0.31087382  1
  Y  Y8  1  0.16611631  0.66664199  0.81093779  1
  Nb  Nb0  1  0.50266333  0.00356787  0.35737359  1
  Nb  Nb1  1  0.00291133  0.00202689  0.85683581  1
  Nb  Nb2  1  0.49711656  0.99733070  0.85689355  1
  Nb  Nb3  1  0.99806580  0.99795744  0.64150015  1
  Nb  Nb4  1  0.50248016  0.00300106  0.64132893  1
  Nb  Nb5  1  0.00252061  0.00233195  0.14624725  1
  Nb  Nb6  1  0.49767641  0.99776244  0.14365263  1
  Nb  Nb7  1  0.33599529  0.33758926  0.98343308  1
  Nb  Nb8  1  0.83091862  0.32811604  0.98334161  1
  Nb  Nb9  1  0.33030542  0.33376361  0.48055285  1
  Nb  Nb10  1  0.83730387  0.33659985  0.48184282  1
  Nb  Nb11  1  0.16587185  0.66552256  0.01891400  1
  Nb  Nb12  1  0.66446727  0.66550139  0.51917545  1
  Nb  Nb13  1  0.16533694  0.66451949  0.31015794  1
  Nb  Nb14  1  0.66752471  0.66727653  0.81033385  1
  P  P0  1  0.14112143  0.99186582  0.25201927  1
  P  P1  1  0.63880982  0.99761352  0.24994676  1
  P  P2  1  0.35851252  0.72164833  0.25353305  1
  P  P3  1  0.85432326  0.71559441  0.24766237  1
  P  P4  1  0.00429785  0.29171345  0.25122152  1
  P  P5  1  0.50070722  0.27979852  0.24983926  1
  P  P6  1  0.13910663  0.27880048  0.74939316  1
  P  P7  1  0.63748775  0.28329471  0.75262947  1
  P  P8  1  0.00005323  0.72180435  0.74938210  1
  P  P9  1  0.50429783  0.72525424  0.75254863  1
  P  P10  1  0.36067396  0.99569596  0.74893980  1
  P  P11  1  0.85873759  0.99622270  0.75299549  1
  P  P12  1  0.47861810  0.33166543  0.58102721  1
  P  P13  1  0.97821548  0.33173799  0.58623501  1
  P  P14  1  0.18672909  0.04743695  0.58524871  1
  P  P15  1  0.68841413  0.04018924  0.58228808  1
  P  P16  1  0.33647808  0.62588639  0.58604591  1
  P  P17  1  0.83200025  0.62476221  0.58161555  1
  P  P18  1  0.47919405  0.62773792  0.08561973  1
  P  P19  1  0.97972628  0.62939498  0.08093133  1
  P  P20  1  0.33257986  0.03966344  0.08174821  1
  P  P21  1  0.83665838  0.04054197  0.08496752  1
  P  P22  1  0.18739186  0.33471850  0.08230655  1
  P  P23  1  0.68383782  0.32656982  0.08415314  1
  P  P24  1  0.31205348  0.66303473  0.91768172  1
  P  P25  1  0.81258105  0.66038226  0.91368357  1
  P  P26  1  0.01875813  0.37375166  0.91762788  1
  P  P27  1  0.51840089  0.37683715  0.91371296  1
  P  P28  1  0.16964225  0.96311981  0.91783567  1
  P  P29  1  0.66888385  0.96273990  0.91354230  1
  P  P30  1  0.31249603  0.96527810  0.41323459  1
  P  P31  1  0.80728979  0.95990170  0.42000090  1
  P  P32  1  0.17299399  0.38448212  0.41566872  1
  P  P33  1  0.66916485  0.37685548  0.41813258  1
  P  P34  1  0.01894723  0.65146427  0.41586943  1
  P  P35  1  0.51938264  0.66341284  0.41740637  1
  O  O0  1  0.09928876  0.01642470  0.30424896  1
  O  O1  1  0.59061133  0.00467000  0.30566361  1
  O  O2  1  0.41554504  0.81723243  0.30656616  1
  O  O3  1  0.90188760  0.79970134  0.30242551  1
  O  O4  1  0.49995202  0.17517843  0.30431541  1
  O  O5  1  0.99025989  0.18718285  0.30477865  1
  O  O6  1  0.09061963  0.17629363  0.80556655  1
  O  O7  1  0.58856350  0.17169263  0.80516812  1
  O  O8  1  0.49491449  0.81739800  0.80624096  1
  O  O9  1  0.99984668  0.82444381  0.80431724  1
  O  O10  1  0.41099037  0.99632859  0.80420210  1
  O  O11  1  0.91484449  0.01351571  0.80657324  1
  O  O12  1  0.41135987  0.99044704  0.69415350  1
  O  O13  1  0.89885165  0.97250175  0.69746211  1
  O  O14  1  0.08378232  0.17769838  0.69540161  1
  O  O15  1  0.58754144  0.20198909  0.69605973  1
  O  O16  1  0.00199537  0.82425867  0.69392574  1
  O  O17  1  0.51615010  0.83325505  0.69746283  1
  O  O18  1  0.40011083  0.82595991  0.19745528  1
  O  O19  1  0.91033719  0.83087815  0.19280975  1
  O  O20  1  0.01552447  0.19925094  0.19606654  1
  O  O21  1  0.50215857  0.18005440  0.19384935  1
  O  O22  1  0.08791227  0.97458389  0.19495478  1
  O  O23  1  0.58364916  0.98979558  0.19532501  1
  O  O24  1  0.44718875  0.37451822  0.63550281  1
  O  O25  1  0.93588334  0.35736721  0.63891324  1
  O  O26  1  0.24185371  0.13137825  0.63762952  1
  O  O27  1  0.74110432  0.10318200  0.63717933  1
  O  O28  1  0.32513335  0.52105107  0.63946870  1
  O  O29  1  0.80981314  0.51382019  0.63521463  1
  O  O30  1  0.43878069  0.51702861  0.13799546  1
  O  O31  1  0.94768059  0.51788033  0.13367347  1
  O  O32  1  0.31010496  0.10700733  0.13411501  1
  O  O33  1  0.82141295  0.11918090  0.13767803  1
  O  O34  1  0.24244538  0.38211393  0.13557518  1
  O  O35  1  0.73926916  0.35505085  0.13618023  1
  O  O36  1  0.23607106  0.30732379  0.03001831  1
  O  O37  1  0.73311078  0.30447837  0.02904344  1
  O  O38  1  0.42021097  0.52939765  0.03081153  1
  O  O39  1  0.91657970  0.53268596  0.02825237  1
  O  O40  1  0.34926065  0.16464241  0.02889811  1
  O  O41  1  0.84503508  0.16171175  0.03032431  1
  O  O42  1  0.23348327  0.16257120  0.52972767  1
  O  O43  1  0.73345258  0.16433357  0.53128214  1
  O  O44  1  0.34634450  0.53109461  0.53152459  1
  O  O45  1  0.85005359  0.53541646  0.52978661  1
  O  O46  1  0.41668148  0.29827908  0.52923884  1
  O  O47  1  0.92003448  0.30929508  0.53169406  1
  O  O48  1  0.26615301  0.69202325  0.96919512  1
  O  O49  1  0.78108713  0.70381641  0.96731917  1
  O  O50  1  0.08004378  0.46761390  0.96906402  1
  O  O51  1  0.57070437  0.43781734  0.96770054  1
  O  O52  1  0.15457243  0.84072513  0.96916682  1
  O  O53  1  0.64728955  0.85780113  0.96756606  1
  O  O54  1  0.28306713  0.86306255  0.46839332  1
  O  O55  1  0.75394700  0.83738284  0.47071800  1
  O  O56  1  0.16300005  0.46203902  0.47039340  1
  O  O57  1  0.65313252  0.46752339  0.46974641  1
  O  O58  1  0.06970183  0.67525286  0.46999229  1
  O  O59  1  0.57778918  0.69025110  0.47021783  1
  O  O60  1  0.06641339  0.62652968  0.36209024  1
  O  O61  1  0.55212197  0.61954534  0.36369728  1
  O  O62  1  0.25093030  0.87427085  0.36177788  1
  O  O63  1  0.75578624  0.89665231  0.36490826  1
  O  O64  1  0.18753241  0.50517977  0.36230613  1
  O  O65  1  0.68980304  0.48368369  0.36377584  1
  O  O66  1  0.05155877  0.48377989  0.86361339  1
  O  O67  1  0.56511850  0.49944100  0.86162194  1
  O  O68  1  0.19119845  0.89772095  0.86358284  1
  O  O69  1  0.68412916  0.86910228  0.86168015  1
  O  O70  1  0.25808568  0.61941261  0.86333045  1
  O  O71  1  0.75020049  0.63129309  0.86168598  1
  O  O72  1  0.00077707  0.79557381  0.40708914  1
  O  O73  1  0.50929997  0.82568961  0.40897014  1
  O  O74  1  0.40445997  0.99476664  0.39882638  1
  O  O75  1  0.89583151  0.97922957  0.42183037  1
  O  O76  1  0.10090199  0.20381737  0.40672623  1
  O  O77  1  0.58808026  0.19414466  0.40930277  1
  O  O78  1  0.00945565  0.19226099  0.90904872  1
  O  O79  1  0.50282606  0.19275995  0.89924668  1
  O  O80  1  0.08801361  0.98187547  0.90906871  1
  O  O81  1  0.59210283  0.99288942  0.89903611  1
  O  O82  1  0.40343845  0.82546629  0.90943771  1
  O  O83  1  0.90400552  0.81480012  0.89865526  1
  O  O84  1  0.48940584  0.16922336  0.59111267  1
  O  O85  1  0.97928873  0.15767275  0.59397316  1
  O  O86  1  0.09629041  0.03734173  0.59220007  1
  O  O87  1  0.59835727  0.02618378  0.59279348  1
  O  O88  1  0.42314026  0.80708035  0.59385005  1
  O  O89  1  0.91371052  0.80465361  0.59138272  1
  O  O90  1  0.47930460  0.80201498  0.09262709  1
  O  O91  1  0.99019955  0.81015456  0.08948233  1
  O  O92  1  0.41366822  0.02223045  0.09028890  1
  O  O93  1  0.92310067  0.03777278  0.09211551  1
  O  O94  1  0.09877605  0.17164956  0.09062770  1
  O  O95  1  0.59471030  0.15486935  0.09122720  1
  O  O96  1  0.35831455  0.16287227  0.75122198  1
  O  O97  1  0.84590293  0.15213818  0.75221876  1
  O  O98  1  0.22656884  0.28827751  0.75068428  1
  O  O99  1  0.72736162  0.30479754  0.75258702  1
  O  O100  1  0.42544096  0.54587358  0.75216680  1
  O  O101  1  0.91699524  0.54701836  0.75085009  1
  O  O102  1  0.34751739  0.54124696  0.25181601  1
  O  O103  1  0.84556598  0.53785320  0.24372427  1
  O  O104  1  0.41768670  0.28839740  0.25053547  1
  O  O105  1  0.93016231  0.32723296  0.24479032  1
  O  O106  1  0.23285936  0.14137622  0.24549656  1
  O  O107  1  0.72662637  0.16198501  0.25045816  1
  O  O108  1  0.32726406  0.50918553  0.93207443  1
  O  O109  1  0.82205347  0.49622004  0.92115766  1
  O  O110  1  0.42620928  0.35658885  0.92135695  1
  O  O111  1  0.92720796  0.34558210  0.93248764  1
  O  O112  1  0.24663415  0.14717643  0.93231739  1
  O  O113  1  0.75120197  0.14585874  0.92150726  1
  O  O114  1  0.32286502  0.14997111  0.42197052  1
  O  O115  1  0.81643150  0.14034421  0.43423723  1
  O  O116  1  0.25942586  0.37205801  0.42355483  1
  O  O117  1  0.74696884  0.34994028  0.43290401  1
  O  O118  1  0.42814246  0.50766945  0.43271055  1
  O  O119  1  0.92674478  0.47858468  0.42277916  1
  O  O120  1  0.17309422  0.48795452  0.06436715  1
  O  O121  1  0.66872738  0.47594102  0.07493872  1
  O  O122  1  0.07030092  0.65422847  0.06343147  1
  O  O123  1  0.56974497  0.66174025  0.07621312  1
  O  O124  1  0.25593896  0.85851198  0.06434485  1
  O  O125  1  0.76209333  0.86096197  0.07493555  1
  O  O126  1  0.17064417  0.86595116  0.57851710  1
  O  O127  1  0.67005385  0.85529295  0.56742947  1
  O  O128  1  0.26332848  0.66321119  0.58000553  1
  O  O129  1  0.75602247  0.65374111  0.56503346  1
  O  O130  1  0.06970633  0.47792292  0.57874356  1
  O  O131  1  0.56934754  0.48347586  0.56556700  1
  O  O132  1  0.14605795  0.82054156  0.25952203  1
  O  O133  1  0.64144094  0.83066897  0.24933104  1
  O  O134  1  0.26960961  0.71213895  0.26299715  1
  O  O135  1  0.76729514  0.70921168  0.24270593  1
  O  O136  1  0.09121176  0.47178873  0.25863523  1
  O  O137  1  0.58344606  0.45339216  0.24931104  1
  O  O138  1  0.14321863  0.45319790  0.74946756  1
  O  O139  1  0.64410763  0.46427809  0.76243227  1
  O  O140  1  0.08305565  0.71273294  0.74924299  1
  O  O141  1  0.58828961  0.71259619  0.76253255  1
  O  O142  1  0.27265012  0.83174483  0.74826541  1
  O  O143  1  0.76846868  0.82628547  0.76336392  1
loop_
_geom_bond_atom_site_label_1
_geom_bond_atom_site_label_2
_geom_bond_distance
_geom_bond_site_symmetry_2
Na0 O98 2.524150 1_555
Na0 O96 2.556974 1_555
Na0 O100 2.565438 1_555
Na0 O110 2.636556 1_555
Na0 O112 2.843056 1_555
Na0 O108 2.874177 1_555
Na1 O101 2.524847 1_555
Na1 O97 2.537378 1_555
Na1 O99 2.557696 1_555
Na1 O109 2.601489 1_555
Na1 O113 2.645536 1_555
Na1 O111 2.846893 1_555
Na2 O104 2.533745 1_555
Na2 O102 2.534065 1_555
Na2 O106 2.602971 1_555
Na2 O114 2.623487 1_555
Na2 O116 2.654742 1_555
Na2 O118 2.910366 1_555
Na3 O107 2.531259 1_555
Na3 O103 2.587111 1_555
Na3 O105 2.613381 1_555
Na3 O119 2.651043 1_555
Na3 O117 2.920286 1_555
Na3 O115 2.951664 1_555
Na4 O135 2.389826 1_555
Na4 O137 2.583364 1_555
Na4 O133 2.592302 1_555
Na4 O123 2.721709 1_555
Na4 O121 2.734407 1_555
Na4 O125 2.734812 1_555
Na5 O142 2.596804 1_555
Na5 O140 2.611384 1_555
Na5 O138 2.613644 1_555
Na5 O130 2.620968 1_555
Na5 O128 2.634458 1_555
Na5 O126 2.659783 1_555
Nb0 O74 1.965870 1_545
Nb0 O1 1.971773 1_555
Nb0 O4 1.984031 1_555
Nb0 O2 1.996710 1_545
Nb0 O77 2.018846 1_555
Nb0 O73 2.038144 1_545
Nb1 O6 1.962077 1_555
Nb1 O83 1.974809 1_445
Nb1 O9 1.978894 1_445
Nb1 O11 1.999311 1_455
Nb1 O80 2.018972 1_545
Nb1 O78 2.041742 1_555
Nb2 O10 1.959356 1_555
Nb2 O79 1.960477 1_565
Nb2 O81 1.973297 1_555
Nb2 O8 1.975204 1_555
Nb2 O7 1.996453 1_565
Nb2 O82 2.017356 1_555
Nb3 O85 1.958592 1_565
Nb3 O86 1.971918 1_665
Nb3 O16 1.998764 1_655
Nb3 O89 1.999483 1_555
Nb3 O14 2.005816 1_665
Nb3 O13 2.114340 1_555
Nb4 O88 1.949530 1_545
Nb4 O87 1.970923 1_555
Nb4 O84 1.989283 1_555
Nb4 O12 1.994278 1_545
Nb4 O15 2.091743 1_555
Nb4 O17 2.102026 1_545
Nb5 O19 1.922972 1_445
Nb5 O22 2.008406 1_545
Nb5 O20 2.018413 1_555
Nb5 O93 2.032279 1_455
Nb5 O94 2.074600 1_555
Nb5 O91 2.085877 1_445
Nb6 O21 1.970426 1_565
Nb6 O23 1.975131 1_555
Nb6 O90 1.997855 1_555
Nb6 O95 2.004062 1_565
Nb6 O92 2.037434 1_565
Nb6 O18 2.066731 1_555
Nb7 O38 1.955799 1_556
Nb7 O40 1.978710 1_556
Nb7 O36 1.984780 1_556
Nb7 O108 2.006680 1_555
Nb7 O112 2.031643 1_555
Nb7 O110 2.103035 1_555
Nb8 O41 1.957044 1_556
Nb8 O37 1.961431 1_556
Nb8 O39 1.991405 1_556
Nb8 O111 2.025233 1_555
Nb8 O113 2.100991 1_555
Nb8 O109 2.143102 1_555
Nb9 O116 1.973313 1_555
Nb9 O118 1.994949 1_555
Nb9 O42 1.995462 1_555
Nb9 O44 2.020214 1_555
Nb9 O46 2.058153 1_555
Nb9 O114 2.083553 1_555
Nb10 O115 1.943493 1_555
Nb10 O47 1.983045 1_555
Nb10 O119 2.002239 1_555
Nb10 O45 2.009260 1_555
Nb10 O117 2.022317 1_555
Nb10 O43 2.065194 1_555
Nb11 O122 1.952931 1_555
Nb11 O120 1.960458 1_555
Nb11 O124 1.973031 1_555
Nb11 O50 2.024505 1_554
Nb11 O52 2.032662 1_554
Nb11 O48 2.041100 1_554
Nb12 O55 1.928157 1_555
Nb12 O131 1.980346 1_555
Nb12 O127 1.991679 1_555
Nb12 O129 1.994927 1_555
Nb12 O59 2.017185 1_555
Nb12 O57 2.030764 1_555
Nb13 O136 1.965481 1_555
Nb13 O132 1.978591 1_555
Nb13 O134 2.012352 1_555
Nb13 O60 2.021107 1_555
Nb13 O64 2.050449 1_555
Nb13 O62 2.100797 1_555
Nb14 O143 1.972377 1_555
Nb14 O139 1.984474 1_555
Nb14 O141 1.990192 1_555
Nb14 O71 2.041798 1_555
Nb14 O69 2.054541 1_555
Nb14 O67 2.064521 1_555
O0 P0 1.496113 1_545
O0 Y0 2.211224 1_445
O1 P1 1.571594 1_545
O2 P2 1.551999 1_555
O3 P3 1.503561 1_555
O3 Y0 2.171302 1_555
O4 P5 1.567137 1_555
O5 P4 1.497616 1_655
O5 Y0 2.165996 1_545
O6 P6 1.578842 1_555
O7 P7 1.539707 1_555
O8 P9 1.547711 1_555
O9 P8 1.571176 1_655
O10 P10 1.563030 1_555
O11 P11 1.554014 1_545
O12 P10 1.574577 1_555
O13 P11 1.539448 1_555
O14 P6 1.570611 1_555
O15 P7 1.547971 1_555
O16 P8 1.568483 1_555
O17 P9 1.550067 1_555
O18 P2 1.555464 1_555
O19 P3 1.627616 1_555
O20 P4 1.589211 1_555
O21 P5 1.582793 1_555
O22 P0 1.590547 1_555
O23 P1 1.583982 1_555
O24 P12 1.507954 1_555
O24 Y1 2.207094 1_555
O25 P13 1.513455 1_555
O25 Y2 2.151152 1_555
O26 P14 1.506045 1_555
O26 Y1 2.154503 1_555
O27 P15 1.514060 1_555
O27 Y2 2.204300 1_555
O28 P16 1.504208 1_555
O28 Y1 2.143472 1_555
O29 P17 1.513664 1_555
O29 Y2 2.214554 1_555
O30 P18 1.503482 1_555
O30 Y3 2.155787 1_555
O31 P19 1.498547 1_555
O31 Y4 2.235685 1_555
O32 P20 1.496875 1_555
O32 Y3 2.238568 1_555
O33 P21 1.501510 1_555
O33 Y4 2.151837 1_555
O34 P22 1.501508 1_555
O34 Y3 2.225487 1_555
O35 P23 1.498983 1_555
O35 Y4 2.161444 1_555
O36 P22 1.581005 1_555
O37 P23 1.619043 1_555
O38 P18 1.603354 1_555
O39 P19 1.592205 1_555
O40 P20 1.582314 1_555
O41 P21 1.623770 1_555
O42 P14 1.598145 1_555
O43 P15 1.543875 1_555
O44 P16 1.580322 1_555
O45 P17 1.563367 1_555
O46 P12 1.556532 1_555
O47 P13 1.584084 1_555
O48 P24 1.542483 1_555
O49 P25 1.494549 1_555
O49 Y5 2.204887 1_556
O50 P26 1.550808 1_555
O51 P27 1.492398 1_555
O51 Y5 2.209470 1_556
O52 P28 1.545831 1_555
O53 P29 1.495129 1_555
O53 Y5 2.203968 1_556
O54 P30 1.505483 1_555
O54 Y6 2.200635 1_555
O55 P31 1.563870 1_555
O56 P32 1.499257 1_555
O56 Y6 2.136469 1_555
O57 P33 1.550407 1_555
O58 P34 1.499422 1_555
O58 Y6 2.138308 1_555
O59 P35 1.547070 1_555
O60 P34 1.585378 1_555
O61 P35 1.509076 1_555
O61 Y7 2.262772 1_555
O62 P30 1.548804 1_555
O63 P31 1.509095 1_555
O63 Y7 2.230330 1_555
O64 P32 1.574941 1_555
O65 P33 1.511152 1_555
O65 Y7 2.230728 1_555
O66 P26 1.517393 1_555
O66 Y8 2.236118 1_555
O67 P27 1.562317 1_555
O68 P28 1.516213 1_555
O68 Y8 2.241956 1_555
O69 P29 1.565006 1_555
O70 P24 1.514195 1_555
O70 Y8 2.244022 1_555
O71 P25 1.571911 1_555
O72 P34 1.489299 1_555
O72 Y0 2.145601 1_455
O73 P35 1.558612 1_555
O74 P30 1.562486 1_555
O75 P31 1.501314 1_555
O75 Y0 2.211256 1_555
O76 P32 1.491408 1_555
O76 Y0 2.162877 1_445
O77 P33 1.560675 1_555
O78 P26 1.556746 1_555
O79 P27 1.560129 1_555
O80 P28 1.559902 1_555
O81 P29 1.558767 1_555
O82 P24 1.559952 1_555
O83 P25 1.560169 1_555
O84 P12 1.572610 1_555
O85 P13 1.573671 1_555
O86 P14 1.578623 1_555
O87 P15 1.567073 1_555
O88 P16 1.593406 1_555
O89 P17 1.553869 1_555
O90 P18 1.563309 1_555
O91 P19 1.541701 1_555
O92 P20 1.542959 1_555
O93 P21 1.563301 1_555
O94 P22 1.534488 1_555
O95 P23 1.570900 1_555
O96 P10 1.514777 1_545
O96 Y1 2.241939 1_555
O97 P11 1.519372 1_545
O97 Y2 2.292503 1_555
O98 P6 1.520027 1_555
O98 Y1 2.289030 1_555
O99 P7 1.516481 1_555
O99 Y2 2.249894 1_555
O100 P9 1.513593 1_555
O100 Y1 2.253404 1_555
O101 P8 1.523033 1_655
O101 Y2 2.281618 1_555
O102 P2 1.522396 1_555
O102 Y3 2.277891 1_555
O103 P3 1.517409 1_555
O103 Y4 2.165072 1_555
O104 P5 1.520961 1_555
O104 Y3 2.272706 1_555
O105 P4 1.513559 1_655
O105 Y4 2.183111 1_555
O106 P0 1.516164 1_545
O106 Y3 2.168490 1_555
O107 P1 1.519570 1_545
O107 Y4 2.293394 1_555
O108 P24 1.563094 1_555
O109 P25 1.566332 1_555
O110 P27 1.572289 1_555
O111 P26 1.561870 1_655
O112 P28 1.562902 1_545
O113 P29 1.569297 1_545
O114 P30 1.577638 1_545
O115 P31 1.571029 1_545
O116 P32 1.610531 1_555
O117 P33 1.560253 1_555
O118 P35 1.563954 1_555
O119 P34 1.604665 1_655
O120 P22 1.567644 1_555
O121 P23 1.501766 1_555
O121 Y5 2.203468 1_555
O122 P19 1.570793 1_455
O123 P18 1.503112 1_555
O123 Y5 2.210020 1_555
O124 P20 1.561036 1_565
O125 P21 1.503808 1_565
O125 Y5 2.193100 1_555
O126 P14 1.505596 1_565
O126 Y6 2.213298 1_555
O127 P15 1.552522 1_565
O128 P16 1.505978 1_555
O128 Y6 2.211076 1_555
O129 P17 1.549782 1_555
O130 P13 1.505868 1_455
O130 Y6 2.257824 1_555
O131 P12 1.546629 1_555
O132 P0 1.584731 1_555
O133 P1 1.514358 1_555
O133 Y7 2.254531 1_555
O134 P2 1.560946 1_555
O135 P3 1.529105 1_555
O135 Y7 2.254735 1_555
O136 P4 1.589233 1_555
O137 P5 1.514353 1_555
O137 Y7 2.262061 1_555
O138 P6 1.521461 1_555
O138 Y8 2.248390 1_555
O139 P7 1.576524 1_555
O140 P8 1.522818 1_555
O140 Y8 2.240509 1_555
O141 P9 1.574906 1_555
O142 P10 1.519955 1_555
O142 Y8 2.258082 1_555
O143 P11 1.584296 1_555
