# generated using pymatgen
data_Na4Y2Ti2Si3(SO8)3
_symmetry_space_group_name_H-M   'P 1'
_cell_length_a   9.14167954
_cell_length_b   9.11512227
_cell_length_c   22.97619228
_cell_angle_alpha   90.31696212
_cell_angle_beta   89.94511636
_cell_angle_gamma   119.56309553
_symmetry_Int_Tables_number   1
_chemical_formula_structural   Na4Y2Ti2Si3(SO8)3
_chemical_formula_sum   'Na12 Y6 Ti6 Si9 S9 O72'
_cell_volume   1665.27072313
_cell_formula_units_Z   3
loop_
 _symmetry_equiv_pos_site_id
 _symmetry_equiv_pos_as_xyz
  1  'x, y, z'
loop_
 _atom_site_type_symbol
 _atom_site_label
 _atom_site_symmetry_multiplicity
 _atom_site_fract_x
 _atom_site_fract_y
 _atom_site_fract_z
 _atom_site_occupancy
  Na  Na0  1  0.97780078  0.64141519  0.25322969  1
  Na  Na1  1  0.99285267  0.35356817  0.74352349  1
  Na  Na2  1  0.65630751  0.97851885  0.59505218  1
  Na  Na3  1  0.66485611  0.69475870  0.07839870  1
  Na  Na4  1  0.33839908  0.31111219  0.90475572  1
  Na  Na5  1  0.31460282  0.01636632  0.41982671  1
  Na  Na6  1  0.00837020  0.98262244  0.50718365  1
  Na  Na7  1  0.98634136  0.98450143  0.00062047  1
  Na  Na8  1  0.64615770  0.30581527  0.82430075  1
  Na  Na9  1  0.65176663  0.34186828  0.33629812  1
  Na  Na10  1  0.32288811  0.66957848  0.17237402  1
  Na  Na11  1  0.30487123  0.67018378  0.66140515  1
  Y  Y0  1  0.99333498  0.99320163  0.35342756  1
  Y  Y1  1  0.99114612  0.98692222  0.85117784  1
  Y  Y2  1  0.65812944  0.33351032  0.68573224  1
  Y  Y3  1  0.65708134  0.32380089  0.18776577  1
  Y  Y4  1  0.32734715  0.67489705  0.01789492  1
  Y  Y5  1  0.31806113  0.65626128  0.51996711  1
  Ti  Ti0  1  0.02349871  0.03787047  0.64742555  1
  Ti  Ti1  1  0.98570298  0.96551960  0.15594896  1
  Ti  Ti2  1  0.68567340  0.36474737  0.98100519  1
  Ti  Ti3  1  0.68353695  0.33505087  0.48880585  1
  Ti  Ti4  1  0.31898672  0.66708319  0.31191593  1
  Ti  Ti5  1  0.37671167  0.67633448  0.80637607  1
  Si  Si0  1  0.28888586  0.98743740  0.25508672  1
  Si  Si1  1  0.68464838  0.70148473  0.25175123  1
  Si  Si2  1  0.29638455  0.30084430  0.75666758  1
  Si  Si3  1  0.71367464  0.99801066  0.74607409  1
  Si  Si4  1  0.96524213  0.32976858  0.58987267  1
  Si  Si5  1  0.36957181  0.04842723  0.58029985  1
  Si  Si6  1  0.96379095  0.63752347  0.08860604  1
  Si  Si7  1  0.63107142  0.66564023  0.92084724  1
  Si  Si8  1  0.02233228  0.64783626  0.41598798  1
  S  S0  1  0.01440835  0.29649322  0.24725076  1
  S  S1  1  0.02105864  0.71158968  0.74912654  1
  S  S2  1  0.68620901  0.63730446  0.57954099  1
  S  S3  1  0.68221472  0.04897270  0.07928767  1
  S  S4  1  0.36635462  0.32087492  0.07846123  1
  S  S5  1  0.02335979  0.37069364  0.91746428  1
  S  S6  1  0.35081213  0.97508372  0.91476016  1
  S  S7  1  0.61301728  0.96280009  0.41564590  1
  S  S8  1  0.34632515  0.38034188  0.41237014  1
  O  O0  1  0.21932323  0.01805069  0.31491297  1
  O  O1  1  0.81969973  0.79720323  0.30166326  1
  O  O2  1  0.99629353  0.20824962  0.30178653  1
  O  O3  1  0.21439365  0.20421794  0.81632589  1
  O  O4  1  0.00351175  0.78611451  0.80436037  1
  O  O5  1  0.81878867  0.01720884  0.80385238  1
  O  O6  1  0.80817509  0.97327739  0.68778338  1
  O  O7  1  0.16421194  0.19937441  0.69989470  1
  O  O8  1  0.03290875  0.81438965  0.69788514  1
  O  O9  1  0.78742713  0.82242974  0.19021659  1
  O  O10  1  0.02235571  0.20064626  0.19544897  1
  O  O11  1  0.14564855  0.95776650  0.20030220  1
  O  O12  1  0.88953449  0.35455764  0.64922032  1
  O  O13  1  0.49107104  0.13428832  0.63479820  1
  O  O14  1  0.66200489  0.54592529  0.63402556  1
  O  O15  1  0.87089250  0.53260070  0.14512028  1
  O  O16  1  0.66201369  0.12042797  0.13374821  1
  O  O17  1  0.47184056  0.34255758  0.12996547  1
  O  O18  1  0.45687822  0.30933550  0.02442337  1
  O  O19  1  0.82920965  0.52742772  0.03014064  1
  O  O20  1  0.68311317  0.14958473  0.02804446  1
  O  O21  1  0.46975722  0.16895665  0.52044842  1
  O  O22  1  0.68967412  0.53307339  0.52823532  1
  O  O23  1  0.82838863  0.30703093  0.53440923  1
  O  O24  1  0.53943563  0.66829223  0.98014731  1
  O  O25  1  0.13134067  0.46285051  0.96804501  1
  O  O26  1  0.33194976  0.87942966  0.96889357  1
  O  O27  1  0.54994660  0.87041838  0.47035661  1
  O  O28  1  0.34445951  0.46463895  0.46653955  1
  O  O29  1  0.15511377  0.68979386  0.46707393  1
  O  O30  1  0.12823890  0.63166860  0.35540896  1
  O  O31  1  0.49977755  0.86269932  0.36534454  1
  O  O32  1  0.34881609  0.48154718  0.36028338  1
  O  O33  1  0.09125201  0.46327952  0.86307614  1
  O  O34  1  0.35661657  0.88003714  0.86301499  1
  O  O35  1  0.50053801  0.63872486  0.86401260  1
  O  O36  1  0.00438532  0.81766135  0.41374329  1
  O  O37  1  0.78807265  0.00121152  0.40756276  1
  O  O38  1  0.19176437  0.20918571  0.41209274  1
  O  O39  1  0.01072653  0.20125148  0.91745432  1
  O  O40  1  0.20563640  0.00662266  0.91401122  1
  O  O41  1  0.82137718  0.81596252  0.91843419  1
  O  O42  1  0.95929302  0.14276336  0.58967161  1
  O  O43  1  0.18183258  0.03198236  0.59263084  1
  O  O44  1  0.84505727  0.80038830  0.57974663  1
  O  O45  1  0.96194442  0.82148619  0.09071973  1
  O  O46  1  0.84000756  0.03676427  0.08042126  1
  O  O47  1  0.19960402  0.16936180  0.08202017  1
  O  O48  1  0.68581275  0.15942105  0.74570968  1
  O  O49  1  0.48736542  0.34506749  0.75046310  1
  O  O50  1  0.87367177  0.53823297  0.74625790  1
  O  O51  1  0.67096347  0.51808309  0.24580967  1
  O  O52  1  0.87136881  0.33105031  0.24255499  1
  O  O53  1  0.47620552  0.13031785  0.24225999  1
  O  O54  1  0.63433125  0.47868640  0.92603380  1
  O  O55  1  0.85013317  0.34950022  0.92755066  1
  O  O56  1  0.50813923  0.14425465  0.91806422  1
  O  O57  1  0.61015850  0.12705721  0.41782697  1
  O  O58  1  0.49585084  0.35673994  0.41083543  1
  O  O59  1  0.83818405  0.47266141  0.42657375  1
  O  O60  1  0.35224716  0.47772134  0.07611503  1
  O  O61  1  0.15067372  0.66862072  0.08159107  1
  O  O62  1  0.53712507  0.87087052  0.07587404  1
  O  O63  1  0.35961968  0.86559146  0.57544882  1
  O  O64  1  0.54348930  0.67112871  0.57243659  1
  O  O65  1  0.15490976  0.47595371  0.58194713  1
  O  O66  1  0.28009150  0.79876262  0.25723957  1
  O  O67  1  0.50210762  0.69292396  0.26007331  1
  O  O68  1  0.17423512  0.46677926  0.24844766  1
  O  O69  1  0.29328949  0.48541123  0.76131060  1
  O  O70  1  0.17753625  0.69554608  0.75301444  1
  O  O71  1  0.52440171  0.82026523  0.75533163  1
loop_
_geom_bond_atom_site_label_1
_geom_bond_atom_site_label_2
_geom_bond_distance
_geom_bond_site_symmetry_2
Na0 O66 2.406285 1_655
Na0 O51 2.459291 1_555
Na0 O52 2.507352 1_555
Na0 O15 2.670163 1_555
Na0 O1 2.710795 1_555
Na0 O30 2.745894 1_655
Na0 O11 2.795975 1_655
Na0 O68 2.930704 1_655
Na1 O12 2.366309 1_555
Na1 O50 2.415084 1_555
Na1 O69 2.427811 1_655
Na1 O48 2.472240 1_555
Na1 O70 2.723012 1_655
Na1 O7 2.754671 1_655
Na1 O33 2.905371 1_655
Na2 O42 2.416192 1_565
Na2 O63 2.420937 1_555
Na2 O64 2.513515 1_555
Na2 O6 2.557630 1_555
Na2 O13 2.689062 1_565
Na3 O45 2.385934 1_555
Na3 O62 2.407188 1_555
Na3 O24 2.488941 1_554
Na3 O60 2.550245 1_555
Na3 O46 2.712437 1_565
Na3 O9 2.809994 1_555
Na3 O19 2.837705 1_555
Na4 O3 2.292416 1_555
Na4 O54 2.409895 1_555
Na4 O40 2.429716 1_555
Na4 O39 2.665035 1_555
Na4 O56 2.673832 1_555
Na4 O35 2.766130 1_555
Na4 O18 2.959165 1_556
Na5 O57 2.372871 1_555
Na5 O36 2.504382 1_545
Na5 O38 2.516552 1_555
Na5 O0 2.566540 1_555
Na5 O21 2.704673 1_555
Na5 O58 2.710658 1_555
Na5 O29 2.813415 1_545
Na5 O31 2.951404 1_545
Na6 O44 2.312254 1_455
Na6 O43 2.421472 1_565
Na6 O42 2.556954 1_465
Na6 O36 2.604197 1_555
Na6 O38 2.911274 1_565
Na7 O41 2.426386 1_554
Na7 O46 2.448008 1_565
Na7 O45 2.499852 1_555
Na7 O47 2.620789 1_665
Na7 O39 2.685287 1_664
Na7 O40 2.759964 1_664
Na8 O48 2.371097 1_555
Na8 O49 2.374302 1_555
Na8 O56 2.568690 1_555
Na8 O50 2.777810 1_555
Na8 O54 2.843437 1_555
Na8 O55 2.920392 1_555
Na9 O58 2.272950 1_555
Na9 O59 2.569511 1_555
Na9 O51 2.586777 1_555
Na9 O57 2.606113 1_555
Na9 O53 2.805215 1_555
Na9 O52 2.977201 1_555
Na10 O66 2.401962 1_555
Na10 O68 2.423077 1_555
Na10 O67 2.539152 1_555
Na10 O61 2.611871 1_555
Na10 O60 2.905344 1_555
Na10 O62 2.934105 1_555
Na11 O65 2.433278 1_555
Na11 O70 2.468655 1_555
Na11 O63 2.545748 1_555
Na11 O71 2.796933 1_555
Na11 O69 2.825464 1_555
Na11 O64 2.984987 1_555
O0 Si0 1.594023 1_545
O0 Y0 2.153916 1_445
O1 Si1 1.590382 1_555
O1 Y0 2.075501 1_555
O2 S0 1.457323 1_655
O2 Y0 2.285661 1_545
O3 Si2 1.605112 1_555
O3 Y1 2.180607 1_445
O4 S1 1.481654 1_555
O4 Y1 2.168491 1_455
O5 Si3 1.596952 1_545
O5 Y1 2.043776 1_545
O6 Si3 1.666579 1_555
O6 Ti0 1.984966 1_665
O7 Si2 1.704064 1_555
O7 Ti0 1.841174 1_555
O8 S1 1.479079 1_555
O8 Ti0 2.387544 1_565
O9 Si1 1.757744 1_555
O9 Ti1 1.811710 1_555
O10 S0 1.495363 1_555
O10 Ti1 2.190827 1_445
O11 Si0 1.738423 1_555
O11 Ti1 1.813024 1_455
O12 Si4 1.593269 1_555
O12 Y2 2.193975 1_555
O13 Si5 1.596294 1_555
O13 Y2 2.059807 1_555
O14 S2 1.462533 1_555
O14 Y2 2.262556 1_555
O15 Si6 1.591263 1_555
O15 Y3 2.179211 1_555
O16 S3 1.460581 1_555
O16 Y3 2.244055 1_555
O17 S4 1.476778 1_555
O17 Y3 2.225545 1_555
O18 S4 1.523119 1_555
O18 Ti2 2.141051 1_554
O19 Si6 1.759305 1_555
O19 Ti2 1.805399 1_554
O20 S3 1.493930 1_555
O20 Ti2 2.234544 1_554
O21 Si5 1.719969 1_555
O21 Ti3 1.931280 1_555
O22 S2 1.520026 1_555
O22 Ti3 1.990973 1_555
O23 Si4 1.725208 1_555
O23 Ti3 1.804417 1_555
O24 Si7 1.605037 1_555
O24 Y4 2.150890 1_556
O25 S5 1.484526 1_555
O25 Y4 2.195521 1_556
O26 S6 1.483294 1_555
O26 Y4 2.165833 1_556
O27 S7 1.467281 1_555
O27 Y5 2.353768 1_555
O28 S8 1.463575 1_555
O28 Y5 2.237770 1_555
O29 Si8 1.592820 1_555
O29 Y5 2.060617 1_555
O30 Si8 1.741355 1_555
O30 Ti4 1.894276 1_555
O31 S7 1.516071 1_555
O31 Ti4 2.118858 1_555
O32 S8 1.508370 1_555
O32 Ti4 2.155432 1_555
O33 S5 1.467084 1_555
O33 Ti5 2.701707 1_555
O34 S6 1.483490 1_555
O34 Ti5 2.341848 1_555
O35 Si7 1.702917 1_555
O35 Ti5 1.882394 1_555
O36 Si8 1.636250 1_555
O36 Y0 2.162231 1_455
O37 S7 1.471496 1_545
O37 Y0 2.281045 1_545
O38 S8 1.501710 1_555
O38 Y0 2.331223 1_445
O39 S5 1.490893 1_555
O39 Y1 2.406271 1_445
O40 S6 1.490251 1_545
O40 Y1 2.369871 1_445
O41 Si7 1.598620 1_555
O41 Y1 2.204655 1_555
O42 Si4 1.678390 1_555
O42 Ti0 1.894408 1_655
O43 Si5 1.671509 1_555
O43 Ti0 1.937883 1_555
O44 S2 1.479311 1_555
O44 Ti0 2.499616 1_665
O45 Si6 1.685667 1_555
O45 Ti1 1.927296 1_555
O46 S3 1.500782 1_555
O46 Ti1 2.465254 1_545
O47 S4 1.470159 1_555
O47 Ti1 2.569947 1_445
O48 Si3 1.612302 1_545
O48 Y2 2.214111 1_555
O49 Si2 1.592682 1_555
O49 Y2 2.194561 1_555
O50 S1 1.488221 1_655
O50 Y2 2.376330 1_555
O51 Si1 1.618672 1_555
O51 Y3 2.164072 1_555
O52 S0 1.492588 1_655
O52 Y3 2.302740 1_555
O53 Si0 1.586819 1_545
O53 Y3 2.134252 1_555
O54 Si7 1.723785 1_555
O54 Ti2 1.841418 1_555
O55 S5 1.515481 1_655
O55 Ti2 1.997205 1_555
O56 S6 1.504187 1_545
O56 Ti2 2.349119 1_555
O57 S7 1.510845 1_545
O57 Ti3 2.327425 1_555
O58 S8 1.485257 1_555
O58 Ti3 2.556717 1_555
O59 Si8 1.671453 1_655
O59 Ti3 1.970442 1_555
O60 S4 1.498770 1_555
O60 Y4 2.345696 1_555
O61 Si6 1.595982 1_455
O61 Y4 2.158433 1_555
O62 S3 1.508289 1_565
O62 Y4 2.289420 1_555
O63 Si5 1.626808 1_565
O63 Y5 2.160737 1_555
O64 S2 1.490581 1_555
O64 Y5 2.333656 1_555
O65 Si4 1.592897 1_455
O65 Y5 2.134627 1_555
O66 Si0 1.682588 1_555
O66 Ti4 1.893127 1_555
O67 Si1 1.642671 1_555
O67 Ti4 1.971520 1_555
O68 S0 1.518730 1_555
O68 Ti4 2.191185 1_555
O69 Si2 1.699253 1_555
O69 Ti5 1.831469 1_555
O70 S1 1.510767 1_555
O70 Ti5 2.273861 1_555
O71 Si3 1.703208 1_555
O71 Ti5 1.784846 1_555
