# generated using pymatgen
data_MgTi3CuO8
_symmetry_space_group_name_H-M   'P 1'
_cell_length_a   3.79302000
_cell_length_b   3.97650600
_cell_length_c   10.00176400
_cell_angle_alpha   90.00000000
_cell_angle_beta   90.00000000
_cell_angle_gamma   90.00000000
_symmetry_Int_Tables_number   1
_chemical_formula_structural   MgTi3CuO8
_chemical_formula_sum   'Mg1 Ti3 Cu1 O8'
_cell_volume   150.85627423
_cell_formula_units_Z   1
loop_
 _symmetry_equiv_pos_site_id
 _symmetry_equiv_pos_as_xyz
  1  'x, y, z'
loop_
 _atom_site_type_symbol
 _atom_site_label
 _atom_site_symmetry_multiplicity
 _atom_site_fract_x
 _atom_site_fract_y
 _atom_site_fract_z
 _atom_site_occupancy
  Mg  Mg0  1  0.50000000  0.50000000  0.94369400  1
  Ti  Ti0  1  0.00000000  0.00000000  0.01808600  1
  Ti  Ti1  1  0.00000000  0.50000000  0.26277700  1
  Ti  Ti2  1  0.50000000  0.00000000  0.72582500  1
  Cu  Cu0  1  0.50000000  0.49999900  0.49633900  1
  O  O0  1  0.00000000  0.00000000  0.20142100  1
  O  O1  1  0.50000000  0.50000000  0.74896400  1
  O  O2  1  0.00000000  0.50000000  0.44278600  1
  O  O3  1  0.50000000  0.00000000  0.97985800  1
  O  O4  1  0.50000000  0.00000000  0.54793400  1
  O  O5  1  0.00000000  0.50000000  0.01701900  1
  O  O6  1  0.50000000  0.50000000  0.23545200  1
  O  O7  1  0.00000000  0.00000000  0.80345800  1
loop_
_geom_bond_atom_site_label_1
_geom_bond_atom_site_label_2
_geom_bond_distance
_geom_bond_site_symmetry_2
Mg0 O1 1.947644 1_555
Mg0 O3 2.020886 1_555
Mg0 O3 2.020886 1_565
Mg0 O5 2.033370 1_556
Mg0 O5 2.033370 1_656
Cu0 O2 1.970696 1_555
Cu0 O2 1.970696 1_655
Cu0 O4 2.054126 1_555
Cu0 O4 2.054133 1_565
Cu0 O1 2.526696 1_555
Cu0 O6 2.609330 1_555
O0 Ti0 1.833673 1_555
O0 Ti1 2.080802 1_545
O0 Ti1 2.080802 1_555
O1 Ti2 2.001677 1_565
O1 Ti2 2.001677 1_555
O2 Ti1 1.800408 1_555
O3 Ti0 1.934668 1_556
O3 Ti0 1.934668 1_656
O4 Ti2 1.779224 1_555
O5 Ti0 1.988282 1_555
O5 Ti0 1.988282 1_565
O5 Ti1 2.458014 1_555
O6 Ti1 1.916101 1_655
O6 Ti1 1.916101 1_555
O7 Ti2 2.049305 1_555
O7 Ti2 2.049305 1_455
O7 Ti0 2.146659 1_556
