# generated using pymatgen
data_Na5Ta2Al2Si3(PO8)3
_symmetry_space_group_name_H-M   'P 1'
_cell_length_a   8.79051386
_cell_length_b   8.78574609
_cell_length_c   22.17106314
_cell_angle_alpha   89.59204398
_cell_angle_beta   90.40055478
_cell_angle_gamma   119.88623634
_symmetry_Int_Tables_number   1
_chemical_formula_structural   Na5Ta2Al2Si3(PO8)3
_chemical_formula_sum   'Na15 Ta6 Al6 Si9 P9 O72'
_cell_volume   1484.54150619
_cell_formula_units_Z   3
loop_
 _symmetry_equiv_pos_site_id
 _symmetry_equiv_pos_as_xyz
  1  'x, y, z'
loop_
 _atom_site_type_symbol
 _atom_site_label
 _atom_site_symmetry_multiplicity
 _atom_site_fract_x
 _atom_site_fract_y
 _atom_site_fract_z
 _atom_site_occupancy
  Na  Na0  1  0.99237185  0.62726947  0.24750165  1
  Na  Na1  1  0.37191802  0.00804194  0.74770518  1
  Na  Na2  1  0.03568613  0.69780213  0.58025005  1
  Na  Na3  1  0.65335893  0.95928550  0.58159917  1
  Na  Na4  1  0.30164105  0.96408827  0.08022600  1
  Na  Na5  1  0.03878128  0.34558907  0.08260378  1
  Na  Na6  1  0.97331574  0.67324289  0.91637566  1
  Na  Na7  1  0.96861736  0.29579787  0.41270403  1
  Na  Na8  1  0.33029249  0.02666114  0.41593302  1
  Na  Na9  1  0.99621802  0.99367797  0.49504834  1
  Na  Na10  1  0.99690928  0.00096739  0.99411174  1
  Na  Na11  1  0.66822542  0.32976428  0.82839471  1
  Na  Na12  1  0.66337912  0.33118989  0.32752435  1
  Na  Na13  1  0.34474927  0.66211528  0.16273980  1
  Na  Na14  1  0.33713190  0.65405397  0.66237359  1
  Ta  Ta0  1  0.99760054  0.99988251  0.64648285  1
  Ta  Ta1  1  -0.00002195  0.00164875  0.14596944  1
  Ta  Ta2  1  0.65734090  0.32935884  0.97854543  1
  Ta  Ta3  1  0.66669635  0.33963916  0.47920307  1
  Ta  Ta4  1  0.33296239  0.66613380  0.31201287  1
  Ta  Ta5  1  0.33999159  0.67072420  0.81186504  1
  Al  Al0  1  0.98547701  0.99102318  0.35295285  1
  Al  Al1  1  0.00371403  0.01004827  0.85331180  1
  Al  Al2  1  0.66617641  0.33146711  0.68624649  1
  Al  Al3  1  0.66889422  0.33357346  0.18589537  1
  Al  Al4  1  0.33065644  0.66429855  0.01932595  1
  Al  Al5  1  0.34078502  0.67463172  0.51973833  1
  Si  Si0  1  0.98780707  0.28238082  0.25250805  1
  Si  Si1  1  0.72108005  0.01462835  0.75286093  1
  Si  Si2  1  0.37957357  0.04377010  0.58579765  1
  Si  Si3  1  0.65106855  0.61141731  0.58726380  1
  Si  Si4  1  0.95567844  0.61856550  0.08473875  1
  Si  Si5  1  0.38848155  0.34912135  0.08687937  1
  Si  Si6  1  0.32578248  0.95428640  0.91810793  1
  Si  Si7  1  0.62875897  0.94992657  0.41887640  1
  Si  Si8  1  0.04686523  0.67589305  0.41823471  1
  P  P0  1  0.29648224  0.01251470  0.25225994  1
  P  P1  1  0.71222661  0.70859009  0.25143235  1
  P  P2  1  0.28994621  0.28663530  0.75217549  1
  P  P3  1  0.98784635  0.70249129  0.75251423  1
  P  P4  1  0.95930523  0.34039137  0.58498845  1
  P  P5  1  0.65973839  0.04163172  0.08495416  1
  P  P6  1  0.62310770  0.67519048  0.91916570  1
  P  P7  1  0.04886879  0.37297929  0.91801122  1
  P  P8  1  0.33057132  0.38097138  0.41878771  1
  O  O0  1  0.20401044  0.02852469  0.30805735  1
  O  O1  1  0.83309687  0.79638785  0.30583296  1
  O  O2  1  0.97377222  0.16710761  0.31110561  1
  O  O3  1  0.20240204  0.16555667  0.80642967  1
  O  O4  1  0.97148652  0.79453856  0.80827538  1
  O  O5  1  0.84089225  0.02882150  0.80919981  1
  O  O6  1  0.79937451  0.97237329  0.69084719  1
  O  O7  1  0.17205800  0.20095040  0.69480887  1
  O  O8  1  0.03399901  0.82772015  0.69515575  1
  O  O9  1  0.79900314  0.82735109  0.19445537  1
  O  O10  1  0.02625632  0.19815299  0.19134427  1
  O  O11  1  0.17195229  0.96755568  0.19487096  1
  O  O12  1  0.87140428  0.36891948  0.63889893  1
  O  O13  1  0.50406006  0.13186667  0.64350649  1
  O  O14  1  0.64058779  0.49502430  0.64367561  1
  O  O15  1  0.86872000  0.49583788  0.14313914  1
  O  O16  1  0.62984163  0.12701099  0.13948776  1
  O  O17  1  0.50497795  0.36099129  0.14346338  1
  O  O18  1  0.46590970  0.29423395  0.02680067  1
  O  O19  1  0.83598810  0.53249960  0.02323582  1
  O  O20  1  0.70292671  0.16434098  0.02806425  1
  O  O21  1  0.46612902  0.16436666  0.52408904  1
  O  O22  1  0.70592069  0.53542996  0.52689031  1
  O  O23  1  0.84011032  0.29768191  0.52668994  1
  O  O24  1  0.53038486  0.69481200  0.97349544  1
  O  O25  1  0.15651785  0.45882270  0.97502588  1
  O  O26  1  0.29710290  0.83043587  0.97626071  1
  O  O27  1  0.53556646  0.83741230  0.47825641  1
  O  O28  1  0.29827953  0.46685038  0.47286174  1
  O  O29  1  0.16707192  0.70021823  0.47683990  1
  O  O30  1  0.13147807  0.63057905  0.35816951  1
  O  O31  1  0.49608570  0.86361398  0.35996120  1
  O  O32  1  0.36529517  0.49605594  0.36099666  1
  O  O33  1  0.13405890  0.49648046  0.86227788  1
  O  O34  1  0.35974553  0.86256916  0.85794773  1
  O  O35  1  0.50498393  0.63656642  0.86157908  1
  O  O36  1  0.03466501  0.85109516  0.40663034  1
  O  O37  1  0.82602622  0.98525056  0.41024370  1
  O  O38  1  0.17306993  0.19552912  0.41062491  1
  O  O39  1  0.02677749  0.19042945  0.90959155  1
  O  O40  1  0.15073652  0.96952833  0.90714835  1
  O  O41  1  0.80879772  0.83017911  0.91047921  1
  O  O42  1  0.97101263  0.16844492  0.58990528  1
  O  O43  1  0.18122003  0.02029012  0.59013636  1
  O  O44  1  0.83456192  0.81213244  0.59131258  1
  O  O45  1  0.98025244  0.81769801  0.09008845  1
  O  O46  1  0.83118100  0.02890462  0.08987041  1
  O  O47  1  0.18810835  0.16569154  0.09104384  1
  O  O48  1  0.68403359  0.17601959  0.74326466  1
  O  O49  1  0.47065864  0.30507086  0.74403208  1
  O  O50  1  0.83112947  0.52257558  0.74257130  1
  O  O51  1  0.69529911  0.52826643  0.24382065  1
  O  O52  1  0.82294489  0.31465959  0.24330749  1
  O  O53  1  0.47648173  0.16848655  0.24257908  1
  O  O54  1  0.64443806  0.50628706  0.92288596  1
  O  O55  1  0.86515647  0.36338176  0.92248675  1
  O  O56  1  0.50663605  0.14712666  0.92151402  1
  O  O57  1  0.64316191  0.14769754  0.42293819  1
  O  O58  1  0.49706372  0.35957690  0.42240410  1
  O  O59  1  0.85567045  0.49289273  0.42203983  1
  O  O60  1  0.35202011  0.50870191  0.07428247  1
  O  O61  1  0.15273695  0.64659962  0.07634052  1
  O  O62  1  0.49944854  0.86078801  0.07511319  1
  O  O63  1  0.35078592  0.84659746  0.57783457  1
  O  O64  1  0.48866221  0.64420051  0.57637150  1
  O  O65  1  0.13977756  0.50071799  0.57536048  1
  O  O66  1  0.30429180  0.83607201  0.25586793  1
  O  O67  1  0.52972489  0.69470808  0.25630238  1
  O  O68  1  0.16781906  0.48278383  0.25562654  1
  O  O69  1  0.30310054  0.46917806  0.75739031  1
  O  O70  1  0.16253136  0.69170264  0.75691786  1
  O  O71  1  0.51917642  0.83244587  0.75681213  1
loop_
_geom_bond_atom_site_label_1
_geom_bond_atom_site_label_2
_geom_bond_distance
_geom_bond_site_symmetry_2
Na0 O51 2.305896 1_555
Na0 O52 2.386502 1_555
Na0 O66 2.429601 1_655
Na0 O68 2.442614 1_655
Na0 O15 2.573079 1_555
Na0 O30 2.727641 1_655
Na0 O1 2.822479 1_555
Na0 O11 2.839811 1_655
Na1 O49 2.304517 1_555
Na1 O48 2.383670 1_555
Na1 O70 2.460317 1_545
Na1 O71 2.465477 1_545
Na1 O13 2.571422 1_555
Na1 O34 2.727989 1_545
Na1 O3 2.817562 1_555
Na1 O8 2.824733 1_545
Na2 O65 2.330278 1_555
Na2 O63 2.403467 1_555
Na2 O44 2.444231 1_455
Na2 O43 2.470826 1_565
Na2 O29 2.569589 1_555
Na2 O22 2.773579 1_455
Na2 O8 2.802152 1_555
Na2 O12 2.817753 1_455
Na3 O63 2.331390 1_555
Na3 O64 2.404357 1_555
Na3 O42 2.468187 1_565
Na3 O44 2.509692 1_555
Na3 O27 2.522939 1_555
Na3 O6 2.709415 1_555
Na3 O13 2.818383 1_565
Na3 O23 2.851078 1_565
Na4 O62 2.331729 1_555
Na4 O61 2.421702 1_555
Na4 O47 2.441690 1_565
Na4 O45 2.463154 1_455
Na4 O26 2.585366 1_554
Na4 O18 2.775334 1_565
Na4 O11 2.799567 1_555
Na4 O16 2.820830 1_565
Na5 O61 2.318043 1_555
Na5 O60 2.395949 1_555
Na5 O46 2.456672 1_455
Na5 O47 2.513186 1_555
Na5 O25 2.593123 1_554
Na5 O10 2.705463 1_555
Na5 O15 2.792583 1_455
Na5 O20 2.829587 1_455
Na6 O40 2.280648 1_655
Na6 O55 2.398058 1_555
Na6 O41 2.447779 1_555
Na6 O54 2.511400 1_555
Na6 O4 2.619207 1_555
Na6 O19 2.666480 1_556
Na6 O26 2.797727 1_655
Na6 O33 2.843243 1_655
Na7 O38 2.363853 1_655
Na7 O37 2.368809 1_545
Na7 O59 2.397596 1_555
Na7 O57 2.494901 1_555
Na7 O2 2.538328 1_555
Na7 O23 2.778884 1_555
Na7 O30 2.817785 1_655
Na7 O28 2.840717 1_655
Na8 O36 2.275407 1_545
Na8 O57 2.408484 1_555
Na8 O38 2.482697 1_555
Na8 O58 2.540615 1_555
Na8 O0 2.633117 1_555
Na8 O21 2.683511 1_555
Na8 O31 2.801281 1_545
Na8 O29 2.824687 1_545
Na9 O37 2.373008 1_555
Na9 O36 2.447954 1_655
Na9 O38 2.512216 1_665
Na9 O43 2.593082 1_665
Na9 O44 2.617962 1_555
Na9 O42 2.687230 1_565
Na10 O39 2.424489 1_655
Na10 O41 2.438871 1_545
Na10 O40 2.457338 1_645
Na10 O45 2.619665 1_546
Na10 O46 2.664032 1_556
Na10 O47 2.666021 1_656
Na11 O48 2.373450 1_555
Na11 O50 2.472979 1_555
Na11 O49 2.479223 1_555
Na11 O56 2.564613 1_555
Na11 O55 2.623866 1_555
Na11 O54 2.685785 1_555
Na12 O52 2.391318 1_555
Na12 O53 2.438063 1_555
Na12 O51 2.449092 1_555
Na12 O57 2.603211 1_555
Na12 O59 2.620389 1_555
Na12 O58 2.653026 1_555
Na13 O60 2.406722 1_555
Na13 O61 2.503227 1_555
Na13 O62 2.508694 1_555
Na13 O67 2.554666 1_555
Na13 O68 2.588247 1_555
Na13 O66 2.705988 1_555
Na14 O64 2.360149 1_555
Na14 O63 2.478865 1_555
Na14 O65 2.491464 1_555
Na14 O69 2.577103 1_555
Na14 O71 2.627111 1_555
Na14 O70 2.723918 1_555
Al0 O2 1.844332 1_565
Al0 O1 1.879627 1_555
Al0 O37 1.879826 1_555
Al0 O36 1.901665 1_655
Al0 O0 2.044742 1_665
Al0 O38 2.152459 1_665
Al1 O5 1.801577 1_455
Al1 O3 1.903859 1_555
Al1 O40 1.911189 1_545
Al1 O39 1.952954 1_555
Al1 O4 2.037327 1_445
Al1 O41 2.083993 1_445
Al2 O14 1.818284 1_555
Al2 O13 1.875725 1_555
Al2 O48 1.916822 1_555
Al2 O12 1.973537 1_555
Al2 O50 2.014807 1_555
Al2 O49 2.068442 1_555
Al3 O17 1.828386 1_555
Al3 O15 1.877496 1_555
Al3 O52 1.918023 1_555
Al3 O16 1.967436 1_555
Al3 O53 2.025563 1_555
Al3 O51 2.064110 1_555
Al4 O26 1.880014 1_554
Al4 O60 1.901993 1_555
Al4 O24 1.933622 1_554
Al4 O25 1.953763 1_554
Al4 O61 1.962307 1_555
Al4 O62 2.040503 1_555
Al5 O27 1.840073 1_555
Al5 O29 1.898864 1_555
Al5 O64 1.912221 1_555
Al5 O63 1.960418 1_555
Al5 O28 1.973349 1_555
Al5 O65 2.071395 1_555
O0 P0 1.530170 1_555
O1 P1 1.535326 1_555
O2 Si0 1.608644 1_555
O3 P2 1.532850 1_555
O4 P3 1.528302 1_555
O5 Si1 1.593103 1_555
O6 Si1 1.666437 1_565
O6 Ta0 1.913925 1_555
O7 P2 1.573552 1_555
O7 Ta0 1.981074 1_445
O8 P3 1.592097 1_455
O8 Ta0 2.002251 1_455
O9 P1 1.570946 1_555
O9 Ta1 1.982111 1_665
O10 Si0 1.664545 1_455
O10 Ta1 1.915736 1_555
O11 P0 1.590617 1_565
O11 Ta1 1.993562 1_565
O12 P4 1.516142 1_555
O13 Si2 1.607499 1_555
O14 Si3 1.583661 1_555
O15 Si4 1.611218 1_555
O16 P5 1.519017 1_555
O17 Si5 1.584580 1_555
O18 Si5 1.678977 1_555
O18 Ta2 1.890649 1_554
O19 Si4 1.655268 1_555
O19 Ta2 1.960491 1_554
O20 P5 1.573773 1_555
O20 Ta2 2.004499 1_554
O21 Si2 1.662489 1_555
O21 Ta3 1.940930 1_555
O22 Si3 1.677034 1_555
O22 Ta3 1.904055 1_555
O23 P4 1.582868 1_555
O23 Ta3 2.024887 1_555
O24 P6 1.517144 1_555
O25 P7 1.532248 1_555
O26 Si6 1.618971 1_555
O27 Si7 1.603442 1_555
O28 P8 1.522581 1_555
O29 Si8 1.615622 1_555
O30 Si8 1.673818 1_555
O30 Ta4 1.936805 1_555
O31 Si7 1.659176 1_555
O31 Ta4 1.929291 1_555
O32 P8 1.560979 1_555
O32 Ta4 1.972019 1_555
O33 P7 1.564957 1_555
O33 Ta5 2.027816 1_555
O34 Si6 1.666775 1_555
O34 Ta5 1.909269 1_555
O35 P6 1.568424 1_555
O35 Ta5 1.953253 1_555
O36 Si8 1.614178 1_555
O37 Si7 1.614764 1_555
O38 P8 1.535196 1_555
O39 P7 1.529125 1_555
O40 Si6 1.626150 1_555
O41 P6 1.530143 1_555
O42 P4 1.567500 1_555
O42 Ta0 2.033641 1_545
O43 Si2 1.653983 1_555
O43 Ta0 1.983620 1_445
O44 Si3 1.698565 1_555
O44 Ta0 1.979753 1_555
O45 Si4 1.657572 1_555
O45 Ta1 1.980707 1_665
O46 P5 1.568791 1_555
O46 Ta1 2.032257 1_655
O47 Si5 1.696903 1_555
O47 Ta1 1.980640 1_555
O48 Si1 1.617650 1_555
O49 P2 1.526276 1_555
O50 P3 1.508523 1_555
O51 P1 1.526133 1_555
O52 Si0 1.620772 1_555
O53 P0 1.505746 1_555
O54 P6 1.587254 1_555
O54 Ta2 2.024457 1_555
O55 P7 1.578404 1_655
O55 Ta2 2.110354 1_555
O56 Si6 1.649099 1_545
O56 Ta2 1.951635 1_555
O57 Si7 1.681103 1_545
O57 Ta3 2.030121 1_555
O58 P8 1.567178 1_555
O58 Ta3 2.017663 1_555
O59 Si8 1.650455 1_655
O59 Ta3 1.988669 1_555
O60 Si5 1.608549 1_555
O61 Si4 1.635445 1_455
O62 P5 1.525455 1_565
O63 Si2 1.631860 1_565
O64 Si3 1.607292 1_555
O65 P4 1.523151 1_455
O66 P0 1.586941 1_565
O66 Ta4 2.046050 1_555
O67 P1 1.551613 1_555
O67 Ta4 2.042802 1_555
O68 Si0 1.682995 1_455
O68 Ta4 1.984448 1_555
O69 P2 1.554501 1_555
O69 Ta5 2.037663 1_555
O70 P3 1.587236 1_455
O70 Ta5 2.051421 1_555
O71 Si1 1.699647 1_565
O71 Ta5 1.939464 1_555
