# generated using pymatgen
data_Mo(PO3)4
_symmetry_space_group_name_H-M   'P 1'
_cell_length_a   8.35317600
_cell_length_b   9.49590900
_cell_length_c   13.14281000
_cell_angle_alpha   90.00000000
_cell_angle_beta   90.00000000
_cell_angle_gamma   90.00000000
_symmetry_Int_Tables_number   1
_chemical_formula_structural   Mo(PO3)4
_chemical_formula_sum   'Mo4 P16 O48'
_cell_volume   1042.50082093
_cell_formula_units_Z   4
loop_
 _symmetry_equiv_pos_site_id
 _symmetry_equiv_pos_as_xyz
  1  'x, y, z'
loop_
 _atom_site_type_symbol
 _atom_site_label
 _atom_site_symmetry_multiplicity
 _atom_site_fract_x
 _atom_site_fract_y
 _atom_site_fract_z
 _atom_site_occupancy
  Mo  Mo0  1  0.85425100  0.75000000  0.50000000  1
  Mo  Mo1  1  0.14574900  0.25000000  0.50000000  1
  Mo  Mo2  1  0.64574900  0.25000000  0.00000000  1
  Mo  Mo3  1  0.35425100  0.75000000  0.00000000  1
  P  P0  1  0.46282700  0.48314500  0.84948600  1
  P  P1  1  0.53717300  0.98314500  0.84948600  1
  P  P2  1  0.18071600  0.99578000  0.85325800  1
  P  P3  1  0.96282700  0.48314500  0.65051400  1
  P  P4  1  0.18071600  0.50422000  0.14674200  1
  P  P5  1  0.81928400  0.00422000  0.14674200  1
  P  P6  1  0.46282700  0.01685500  0.15051400  1
  P  P7  1  0.53717300  0.51685500  0.15051400  1
  P  P8  1  0.03717300  0.51685500  0.34948600  1
  P  P9  1  0.96282700  0.01685500  0.34948600  1
  P  P10  1  0.81928400  0.49578000  0.85325800  1
  P  P11  1  0.68071600  0.50422000  0.35325800  1
  P  P12  1  0.31928400  0.49578000  0.64674200  1
  P  P13  1  0.68071600  0.99578000  0.64674200  1
  P  P14  1  0.03717300  0.98314500  0.65051400  1
  P  P15  1  0.31928400  0.00422000  0.35325800  1
  O  O0  1  0.80628100  0.37204200  0.92743600  1
  O  O1  1  0.19371900  0.87204200  0.92743600  1
  O  O2  1  0.52830300  0.86581400  0.92770700  1
  O  O3  1  0.47169700  0.36581400  0.92770700  1
  O  O4  1  0.19371900  0.62795800  0.07256400  1
  O  O5  1  0.80628100  0.12795800  0.07256400  1
  O  O6  1  0.47169700  0.13418600  0.07229300  1
  O  O7  1  0.52830300  0.63418600  0.07229300  1
  O  O8  1  0.09020000  0.37717500  0.12191600  1
  O  O9  1  0.90980000  0.87717500  0.12191600  1
  O  O10  1  0.36518700  0.89017700  0.11600100  1
  O  O11  1  0.63481300  0.39017700  0.11600100  1
  O  O12  1  0.36437700  0.46555500  0.18282000  1
  O  O13  1  0.63562300  0.96555500  0.18282000  1
  O  O14  1  0.11762500  0.58124300  0.25139000  1
  O  O15  1  0.88237500  0.08124300  0.25139000  1
  O  O16  1  0.38237500  0.08124300  0.24861000  1
  O  O17  1  0.09020000  0.12282500  0.87808400  1
  O  O18  1  0.13562300  0.96555500  0.31718000  1
  O  O19  1  0.86437700  0.46555500  0.31718000  1
  O  O20  1  0.13481300  0.39017700  0.38399900  1
  O  O21  1  0.86518700  0.89017700  0.38399900  1
  O  O22  1  0.40980000  0.87717500  0.37808400  1
  O  O23  1  0.59020000  0.37717500  0.37808400  1
  O  O24  1  0.02830300  0.63418600  0.42770700  1
  O  O25  1  0.97169700  0.13418600  0.42770700  1
  O  O26  1  0.30628100  0.12795800  0.42743600  1
  O  O27  1  0.69371900  0.62795800  0.42743600  1
  O  O28  1  0.30628100  0.37204200  0.57256400  1
  O  O29  1  0.69371900  0.87204200  0.57256400  1
  O  O30  1  0.02830300  0.86581400  0.57229300  1
  O  O31  1  0.97169700  0.36581400  0.57229300  1
  O  O32  1  0.40980000  0.62282500  0.62191600  1
  O  O33  1  0.59020000  0.12282500  0.62191600  1
  O  O34  1  0.13481300  0.10982300  0.61600100  1
  O  O35  1  0.86518700  0.60982300  0.61600100  1
  O  O36  1  0.13562300  0.53444500  0.68282000  1
  O  O37  1  0.86437700  0.03444500  0.68282000  1
  O  O38  1  0.38237500  0.41875700  0.75139000  1
  O  O39  1  0.61762500  0.91875700  0.75139000  1
  O  O40  1  0.11762500  0.91875700  0.74861000  1
  O  O41  1  0.88237500  0.41875700  0.74861000  1
  O  O42  1  0.36437700  0.03444500  0.81718000  1
  O  O43  1  0.63562300  0.53444500  0.81718000  1
  O  O44  1  0.36518700  0.60982300  0.88399900  1
  O  O45  1  0.63481300  0.10982300  0.88399900  1
  O  O46  1  0.90980000  0.62282500  0.87808400  1
  O  O47  1  0.61762500  0.58124300  0.24861000  1
loop_
_geom_bond_atom_site_label_1
_geom_bond_atom_site_label_2
_geom_bond_distance
_geom_bond_site_symmetry_2
Mo0 O29 2.012644 1_555
Mo0 O27 2.012644 1_555
Mo0 O21 2.025965 1_555
Mo0 O35 2.025965 1_555
Mo0 O30 2.055726 1_655
Mo0 O24 2.055726 1_655
Mo1 O28 2.012644 1_555
Mo1 O26 2.012644 1_555
Mo1 O20 2.025965 1_555
Mo1 O34 2.025965 1_555
Mo1 O31 2.055726 1_455
Mo1 O25 2.055726 1_455
Mo2 O5 2.012644 1_555
Mo2 O0 2.012644 1_554
Mo2 O11 2.025965 1_555
Mo2 O45 2.025965 1_554
Mo2 O3 2.055726 1_554
Mo2 O6 2.055726 1_555
Mo3 O4 2.012644 1_555
Mo3 O1 2.012644 1_554
Mo3 O10 2.025965 1_555
Mo3 O44 2.025965 1_554
Mo3 O2 2.055726 1_554
Mo3 O7 2.055726 1_555
O0 P10 1.530646 1_555
O1 P2 1.530646 1_555
O2 P1 1.517803 1_555
O3 P0 1.517803 1_555
O4 P4 1.530646 1_555
O5 P5 1.530646 1_555
O6 P6 1.517803 1_555
O7 P7 1.517803 1_555
O8 P4 1.460672 1_555
O9 P5 1.460672 1_565
O10 P6 1.522493 1_565
O11 P7 1.522493 1_555
O12 P7 1.581447 1_555
O12 P4 1.647199 1_555
O13 P6 1.581447 1_565
O13 P5 1.647199 1_565
O14 P8 1.577227 1_555
O14 P4 1.644485 1_555
O15 P9 1.577227 1_555
O15 P5 1.644485 1_555
O16 P6 1.577227 1_555
O16 P15 1.644485 1_555
O17 P2 1.460672 1_545
O18 P9 1.581447 1_465
O18 P15 1.647199 1_565
O19 P8 1.581447 1_655
O19 P11 1.647199 1_555
O20 P8 1.522493 1_555
O21 P9 1.522493 1_565
O22 P15 1.460672 1_565
O23 P11 1.460672 1_555
O24 P8 1.517803 1_555
O25 P9 1.517803 1_555
O26 P15 1.530646 1_555
O27 P11 1.530646 1_555
O28 P12 1.530646 1_555
O29 P13 1.530646 1_555
O30 P14 1.517803 1_555
O31 P3 1.517803 1_555
O32 P12 1.460672 1_555
O33 P13 1.460672 1_545
O34 P14 1.522493 1_545
O35 P3 1.522493 1_555
O36 P3 1.581447 1_455
O36 P12 1.647199 1_555
O37 P14 1.581447 1_645
O37 P13 1.647199 1_545
O38 P0 1.577227 1_555
O38 P12 1.644485 1_555
O39 P1 1.577227 1_555
O39 P13 1.644485 1_555
O40 P14 1.577227 1_555
O40 P2 1.644485 1_555
O41 P3 1.577227 1_555
O41 P10 1.644485 1_555
O42 P1 1.581447 1_545
O42 P2 1.647199 1_545
O43 P0 1.581447 1_555
O43 P10 1.647199 1_555
O44 P0 1.522493 1_555
O45 P1 1.522493 1_545
O46 P10 1.460672 1_555
O47 P7 1.577227 1_555
O47 P11 1.644485 1_555
