# generated using pymatgen
data_CoH2SeO5
_symmetry_space_group_name_H-M   'P 1'
_cell_length_a   7.11730402
_cell_length_b   8.16552396
_cell_length_c   7.69871409
_cell_angle_alpha   89.99999939
_cell_angle_beta   115.86218824
_cell_angle_gamma   90.00000556
_symmetry_Int_Tables_number   1
_chemical_formula_structural   CoH2SeO5
_chemical_formula_sum   'Co4 H8 Se4 O20'
_cell_volume   402.61122834
_cell_formula_units_Z   4
loop_
 _symmetry_equiv_pos_site_id
 _symmetry_equiv_pos_as_xyz
  1  'x, y, z'
loop_
 _atom_site_type_symbol
 _atom_site_label
 _atom_site_symmetry_multiplicity
 _atom_site_fract_x
 _atom_site_fract_y
 _atom_site_fract_z
 _atom_site_occupancy
  Co  Co0  1  0.00000000  0.50000000  0.00000000  1
  Co  Co1  1  0.00000000  0.00000000  0.50000000  1
  Co  Co2  1  0.50000000  0.00000000  0.00000000  1
  Co  Co3  1  0.50000000  0.50000000  0.50000000  1
  H  H0  1  0.33092300  0.70099800  0.20226800  1
  H  H1  1  0.83092300  0.20099800  0.20226800  1
  H  H2  1  0.66907700  0.20099800  0.29773200  1
  H  H3  1  0.16907700  0.70099800  0.29773200  1
  H  H4  1  0.66907700  0.29900200  0.79773200  1
  H  H5  1  0.16907700  0.79900200  0.79773200  1
  H  H6  1  0.33092300  0.79900200  0.70226800  1
  H  H7  1  0.83092300  0.29900200  0.70226800  1
  Se  Se0  1  0.75000000  0.83511600  0.75000000  1
  Se  Se1  1  0.25000000  0.33511600  0.75000000  1
  Se  Se2  1  0.25000000  0.16488400  0.25000000  1
  Se  Se3  1  0.75000000  0.66488400  0.25000000  1
  O  O0  1  0.25000000  0.87129800  0.75000000  1
  O  O1  1  0.75000000  0.37129800  0.75000000  1
  O  O2  1  0.75000000  0.12870200  0.25000000  1
  O  O3  1  0.25000000  0.62870200  0.25000000  1
  O  O4  1  0.76533400  0.95226800  0.57921300  1
  O  O5  1  0.26533400  0.45226800  0.57921300  1
  O  O6  1  0.73466600  0.95226800  0.92078700  1
  O  O7  1  0.23466600  0.45226800  0.92078700  1
  O  O8  1  0.23466600  0.04773200  0.42078700  1
  O  O9  1  0.73466600  0.54773200  0.42078700  1
  O  O10  1  0.26533400  0.04773200  0.07921300  1
  O  O11  1  0.76533400  0.54773200  0.07921300  1
  O  O12  1  0.46740700  0.21818300  0.85006800  1
  O  O13  1  0.96740700  0.71818300  0.85006800  1
  O  O14  1  0.53259300  0.71818300  0.64993200  1
  O  O15  1  0.03259300  0.21818300  0.64993200  1
  O  O16  1  0.53259300  0.78181700  0.14993200  1
  O  O17  1  0.03259300  0.28181700  0.14993200  1
  O  O18  1  0.46740700  0.28181700  0.35006800  1
  O  O19  1  0.96740700  0.78181700  0.35006800  1
loop_
_geom_bond_atom_site_label_1
_geom_bond_atom_site_label_2
_geom_bond_distance
_geom_bond_site_symmetry_2
Co0 O7 2.049864 1_554
Co0 O11 2.049864 1_455
Co0 O13 2.080049 1_454
Co0 O17 2.080049 1_555
Co0 O1 2.233185 1_454
Co0 O3 2.233185 1_555
Co1 O4 2.049863 1_445
Co1 O8 2.049863 1_555
Co1 O15 2.080049 1_555
Co1 O19 2.080049 1_445
Co1 O0 2.233185 1_545
Co1 O2 2.233185 1_455
Co2 O10 2.049864 1_555
Co2 O6 2.049864 1_544
Co2 O12 2.080049 1_554
Co2 O16 2.080049 1_545
Co2 O2 2.233185 1_555
Co2 O0 2.233185 1_544
Co3 O5 2.049863 1_555
Co3 O9 2.049863 1_555
Co3 O18 2.080049 1_555
Co3 O14 2.080049 1_555
Co3 O1 2.233185 1_555
Co3 O3 2.233185 1_555
H0 O3 0.999951 1_555
H1 O2 0.999951 1_555
H2 O2 0.999951 1_555
H3 O3 0.999951 1_555
H4 O1 0.999951 1_555
H5 O0 0.999951 1_555
H6 O0 0.999951 1_555
H7 O1 0.999951 1_555
O4 Se0 1.667634 1_555
O5 Se1 1.667634 1_555
O6 Se0 1.667634 1_555
O7 Se1 1.667634 1_555
O8 Se2 1.667634 1_555
O9 Se3 1.667634 1_555
O10 Se2 1.667634 1_555
O11 Se3 1.667634 1_555
O12 Se1 1.691006 1_555
O13 Se0 1.691006 1_555
O14 Se0 1.691006 1_555
O15 Se1 1.691006 1_555
O16 Se3 1.691006 1_555
O17 Se2 1.691006 1_555
O18 Se2 1.691006 1_555
O19 Se3 1.691006 1_555
