# generated using pymatgen
data_VCo2Si
_symmetry_space_group_name_H-M   'P 1'
_cell_length_a   3.99996447
_cell_length_b   3.99996447
_cell_length_c   3.99996447
_cell_angle_alpha   60.00000000
_cell_angle_beta   60.00000000
_cell_angle_gamma   60.00000000
_symmetry_Int_Tables_number   1
_chemical_formula_structural   VCo2Si
_chemical_formula_sum   'V1 Co2 Si1'
_cell_volume   45.25362802
_cell_formula_units_Z   1
loop_
 _symmetry_equiv_pos_site_id
 _symmetry_equiv_pos_as_xyz
  1  'x, y, z'
loop_
 _atom_site_type_symbol
 _atom_site_label
 _atom_site_symmetry_multiplicity
 _atom_site_fract_x
 _atom_site_fract_y
 _atom_site_fract_z
 _atom_site_occupancy
  V  V0  1  0.00000000  0.00000000  0.00000000  1
  Co  Co0  1  0.75000000  0.75000000  0.75000000  1
  Co  Co1  1  0.25000000  0.25000000  0.25000000  1
  Si  Si0  1  0.50000000  0.50000000  0.50000000  1
loop_
_geom_bond_atom_site_label_1
_geom_bond_atom_site_label_2
_geom_bond_distance
_geom_bond_site_symmetry_2
Co0 Si0 2.449468 1_655
Co0 V0 2.449468 1_566
Co0 Si0 2.449468 1_565
Co0 Si0 2.449468 1_555
Co0 V0 2.449468 1_656
Co0 Si0 2.449468 1_556
Co0 V0 2.449468 1_665
Co0 V0 2.449468 1_666
Co1 Si0 2.449468 1_455
Co1 V0 2.449468 1_655
Co1 Si0 2.449468 1_555
Co1 Si0 2.449468 1_545
Co1 V0 2.449468 1_565
Co1 V0 2.449468 1_555
Co1 Si0 2.449468 1_554
Co1 V0 2.449468 1_556
Si0 V0 2.828402 1_565
Si0 V0 2.828402 1_655
Si0 V0 2.828402 1_656
Si0 V0 2.828402 1_665
Si0 V0 2.828402 1_566
Si0 V0 2.828402 1_556
