# generated using pymatgen
data_Na6MgV2O8
_symmetry_space_group_name_H-M   'P 1'
_cell_length_a   7.32662763
_cell_length_b   6.42576124
_cell_length_c   5.33798483
_cell_angle_alpha   91.08723137
_cell_angle_beta   88.99905970
_cell_angle_gamma   90.98052523
_symmetry_Int_Tables_number   1
_chemical_formula_structural   Na6MgV2O8
_chemical_formula_sum   'Na6 Mg1 V2 O8'
_cell_volume   251.18885770
_cell_formula_units_Z   1
loop_
 _symmetry_equiv_pos_site_id
 _symmetry_equiv_pos_as_xyz
  1  'x, y, z'
loop_
 _atom_site_type_symbol
 _atom_site_label
 _atom_site_symmetry_multiplicity
 _atom_site_fract_x
 _atom_site_fract_y
 _atom_site_fract_z
 _atom_site_occupancy
  Na  Na0  1  0.00669100  0.15394400  0.50422300  1
  Na  Na1  1  0.24889200  0.30413700  0.99410000  1
  Na  Na2  1  0.25403200  0.66229600  0.45730500  1
  Na  Na3  1  0.45311100  0.79535200  0.93374600  1
  Na  Na4  1  0.74030300  0.66933000  0.47587000  1
  Na  Na5  1  0.79526200  0.40870700  0.95730000  1
  Mg  Mg0  1  0.70823900  0.03887200  0.10975300  1
  V  V0  1  0.00832200  0.82568300  0.00621800  1
  V  V1  1  0.50121100  0.17573000  0.52007400  1
  O  O0  1  0.97312500  0.10934900  0.95214400  1
  O  O1  1  0.00132100  0.82583700  0.34085200  1
  O  O2  1  0.17861100  0.65007400  0.88619700  1
  O  O3  1  0.30082700  0.30497900  0.43330200  1
  O  O4  1  0.53711800  0.15935100  0.85546000  1
  O  O5  1  0.51632600  0.91150400  0.35846900  1
  O  O6  1  0.71401000  0.28740000  0.36798600  1
  O  O7  1  0.76630400  0.74870800  0.92361600  1
loop_
_geom_bond_atom_site_label_1
_geom_bond_atom_site_label_2
_geom_bond_distance
_geom_bond_site_symmetry_2
Na0 O1 2.266215 1_545
Na0 O3 2.375544 1_555
Na0 O0 2.421260 1_455
Na0 O6 2.450236 1_455
Na1 O0 2.370152 1_455
Na1 O2 2.374100 1_555
Na1 O3 2.381574 1_556
Na1 O4 2.420568 1_555
Na2 O1 2.247326 1_555
Na2 O3 2.328084 1_555
Na2 O2 2.348210 1_555
Na2 O5 2.535160 1_555
Na3 O2 2.219287 1_555
Na3 O7 2.318784 1_555
Na3 O5 2.423272 1_556
Na3 O4 2.450118 1_565
Na4 O1 2.258664 1_655
Na4 O5 2.380661 1_555
Na4 O7 2.444416 1_555
Na4 O6 2.515127 1_555
Na5 O7 2.209671 1_555
Na5 O0 2.341303 1_555
Na5 O6 2.402345 1_556
Na5 O4 2.517767 1_555
Mg0 O4 2.036253 1_554
Mg0 O5 2.084742 1_545
Mg0 O6 2.090079 1_555
Mg0 O7 2.141669 1_544
Mg0 O0 2.146307 1_554
O0 V0 1.873756 1_646
O1 V0 1.786094 1_555
O2 V0 1.798119 1_556
O3 V1 1.771957 1_555
O4 V1 1.819330 1_555
O5 V1 1.893843 1_565
O6 V1 1.882651 1_555
O7 V0 1.890038 1_656
