# generated using pymatgen
data_MgV4(OF6)2
_symmetry_space_group_name_H-M   'P 1'
_cell_length_a   8.61462641
_cell_length_b   6.67608721
_cell_length_c   5.34507537
_cell_angle_alpha   83.30636904
_cell_angle_beta   103.26711700
_cell_angle_gamma   110.39174895
_symmetry_Int_Tables_number   1
_chemical_formula_structural   MgV4(OF6)2
_chemical_formula_sum   'Mg1 V4 O2 F12'
_cell_volume   280.22547626
_cell_formula_units_Z   1
loop_
 _symmetry_equiv_pos_site_id
 _symmetry_equiv_pos_as_xyz
  1  'x, y, z'
loop_
 _atom_site_type_symbol
 _atom_site_label
 _atom_site_symmetry_multiplicity
 _atom_site_fract_x
 _atom_site_fract_y
 _atom_site_fract_z
 _atom_site_occupancy
  Mg  Mg0  1  0.86873600  0.28961100  0.92311500  1
  V  V0  1  0.19539000  0.26202700  0.27942200  1
  V  V1  1  0.33528400  0.53209200  0.79336300  1
  V  V2  1  0.79736100  0.73265300  0.70147700  1
  V  V3  1  0.66517100  0.48385700  0.18127100  1
  O  O0  1  0.14762800  0.38976400  0.95519000  1
  O  O1  1  0.56507100  0.57687800  0.84055700  1
  F  F0  1  0.00719000  0.80771400  0.63107900  1
  F  F1  1  0.25178700  0.56379100  0.43838400  1
  F  F2  1  0.36219000  0.79136200  0.89038900  1
  F  F3  1  0.28056800  0.23870300  0.65247800  1
  F  F4  1  0.17567100  0.00159000  0.22624100  1
  F  F5  1  0.42761000  0.38320800  0.23562800  1
  F  F6  1  0.81334100  0.00967200  0.79570400  1
  F  F7  1  0.69208000  0.75375200  0.32785800  1
  F  F8  1  0.66248000  0.22145400  0.07427000  1
  F  F9  1  0.76160000  0.42910200  0.57870300  1
  F  F10  1  0.88429600  0.58968000  0.04919300  1
  F  F11  1  0.97152900  0.22218900  0.29295200  1
loop_
_geom_bond_atom_site_label_1
_geom_bond_atom_site_label_2
_geom_bond_distance
_geom_bond_site_symmetry_2
Mg0 O0 2.228655 1_655
O0 V0 1.863512 1_556
O0 V1 1.908968 1_555
O1 V1 1.856744 1_555
O1 V3 1.958205 1_556
O1 V2 2.165836 1_555
F0 V2 1.815794 1_455
F1 V1 1.883698 1_555
F1 V0 2.131686 1_555
F2 V1 1.786963 1_555
F3 V0 1.968359 1_555
F3 V1 2.040408 1_555
F4 V0 1.737804 1_555
F5 V0 1.937576 1_555
F5 V3 1.998296 1_555
F5 V1 2.519713 1_554
F6 V2 1.923748 1_545
F6 Mg0 1.926221 1_555
F7 V3 1.966965 1_555
F7 V2 2.005653 1_555
F8 V3 1.896237 1_555
F8 Mg0 2.006655 1_554
F9 V2 2.101084 1_555
F9 Mg0 2.127784 1_555
F9 V3 2.134712 1_555
F10 V3 2.031470 1_555
F10 V2 2.090921 1_554
F10 Mg0 2.138080 1_554
F11 V0 1.870053 1_655
F11 Mg0 2.039952 1_554
