# generated using pymatgen
data_KIO4
_symmetry_space_group_name_H-M   'P 1'
_cell_length_a   5.73391451
_cell_length_b   5.73070878
_cell_length_c   7.42095513
_cell_angle_alpha   112.65119479
_cell_angle_beta   112.64208196
_cell_angle_gamma   90.00251606
_symmetry_Int_Tables_number   1
_chemical_formula_structural   KIO4
_chemical_formula_sum   'K2 I2 O8'
_cell_volume   204.52228152
_cell_formula_units_Z   2
loop_
 _symmetry_equiv_pos_site_id
 _symmetry_equiv_pos_as_xyz
  1  'x, y, z'
loop_
 _atom_site_type_symbol
 _atom_site_label
 _atom_site_symmetry_multiplicity
 _atom_site_fract_x
 _atom_site_fract_y
 _atom_site_fract_z
 _atom_site_occupancy
  K  K0  1  0.62485776  0.87490394  0.24985734  1
  K  K1  1  0.37514224  0.12509606  0.75014266  1
  I  I0  1  0.87506179  0.62513725  0.74993353  1
  I  I1  1  0.12493821  0.37486275  0.25006647  1
  O  O0  1  0.92892333  0.76448525  0.59013752  1
  O  O1  1  0.82606922  0.42879384  0.09064029  1
  O  O2  1  0.26436706  0.16112964  0.09051297  1
  O  O3  1  0.66177727  0.32650561  0.59060522  1
  O  O4  1  0.33822273  0.67349439  0.40939478  1
  O  O5  1  0.73563294  0.83887036  0.90948703  1
  O  O6  1  0.17393078  0.57120616  0.90935971  1
  O  O7  1  0.07107667  0.23551475  0.40986248  1
loop_
_geom_bond_atom_site_label_1
_geom_bond_atom_site_label_2
_geom_bond_distance
_geom_bond_site_symmetry_2
K0 O0 2.767282 1_555
K0 O5 2.767610 1_554
K0 O6 2.771475 1_554
K0 O3 2.771990 1_565
K0 O2 2.823774 1_565
K0 O4 2.825892 1_555
K0 O1 2.825983 1_555
K0 O7 2.827945 1_665
K1 O7 2.767282 1_555
K1 O2 2.767610 1_556
K1 O1 2.771475 1_556
K1 O4 2.771990 1_545
K1 O5 2.823774 1_545
K1 O3 2.825892 1_555
K1 O6 2.825983 1_555
K1 O0 2.827945 1_445
I0 O3 1.774918 1_555
I0 O0 1.775006 1_555
I0 O6 1.775561 1_655
I0 O5 1.775730 1_555
I1 O4 1.774918 1_555
I1 O7 1.775006 1_555
I1 O1 1.775561 1_455
I1 O2 1.775730 1_555
