# generated using pymatgen
data_LiTi2(PO4)3
_symmetry_space_group_name_H-M   'P 1'
_cell_length_a   8.49768954
_cell_length_b   8.44562365
_cell_length_c   8.93544430
_cell_angle_alpha   90.17840191
_cell_angle_beta   118.00570471
_cell_angle_gamma   59.86730457
_symmetry_Int_Tables_number   1
_chemical_formula_structural   LiTi2(PO4)3
_chemical_formula_sum   'Li2 Ti4 P6 O24'
_cell_volume   466.40339163
_cell_formula_units_Z   2
loop_
 _symmetry_equiv_pos_site_id
 _symmetry_equiv_pos_as_xyz
  1  'x, y, z'
loop_
 _atom_site_type_symbol
 _atom_site_label
 _atom_site_symmetry_multiplicity
 _atom_site_fract_x
 _atom_site_fract_y
 _atom_site_fract_z
 _atom_site_occupancy
  Li  Li0  1  0.60982800  0.31395900  0.85866800  1
  Li  Li1  1  0.39017200  0.68604100  0.14133200  1
  Ti  Ti0  1  0.28427400  0.35266200  0.93654000  1
  Ti  Ti1  1  0.28443200  0.86428800  0.43237500  1
  Ti  Ti2  1  0.71556800  0.13571200  0.56762500  1
  Ti  Ti3  1  0.71572600  0.64733800  0.06346000  1
  P  P0  1  0.77633900  0.46996900  0.74838900  1
  P  P1  1  0.21940500  0.74945900  0.75626200  1
  P  P2  1  0.50221800  0.96375200  0.25223500  1
  P  P3  1  0.49778200  0.03624800  0.74776500  1
  P  P4  1  0.78059500  0.25054100  0.24373800  1
  P  P5  1  0.22366100  0.53003100  0.25161100  1
  O  O0  1  0.99531600  0.89949800  0.72253200  1
  O  O1  1  0.65513600  0.84046900  0.89449100  1
  O  O2  1  0.98271600  0.46526600  0.81070900  1
  O  O3  1  0.72830600  0.48307300  0.89857600  1
  O  O4  1  0.38788200  0.75776000  0.92493800  1
  O  O5  1  0.63339200  0.98241900  0.43208300  1
  O  O6  1  0.81036300  0.27953700  0.71486700  1
  O  O7  1  0.58682300  0.63875800  0.57887000  1
  O  O8  1  0.26975800  0.54393400  0.78776600  1
  O  O9  1  0.22389000  0.79580600  0.59216200  1
  O  O10  1  0.65879400  0.81307700  0.20408100  1
  O  O11  1  0.62937100  0.10794200  0.73885300  1
  O  O12  1  0.37062900  0.89205800  0.26114700  1
  O  O13  1  0.34120600  0.18692300  0.79591900  1
  O  O14  1  0.77611000  0.20419400  0.40783800  1
  O  O15  1  0.73024200  0.45606600  0.21223400  1
  O  O16  1  0.41317700  0.36124200  0.42113000  1
  O  O17  1  0.18963700  0.72046300  0.28513300  1
  O  O18  1  0.36660800  0.01758100  0.56791700  1
  O  O19  1  0.61211800  0.24224000  0.07506200  1
  O  O20  1  0.27169400  0.51692700  0.10142400  1
  O  O21  1  0.01728400  0.53473400  0.18929100  1
  O  O22  1  0.34486400  0.15953100  0.10550900  1
  O  O23  1  0.00468400  0.10050200  0.27746800  1
loop_
_geom_bond_atom_site_label_1
_geom_bond_atom_site_label_2
_geom_bond_distance
_geom_bond_site_symmetry_2
Li0 O19 2.016459 1_556
Li0 O11 2.016537 1_555
Li0 O3 2.069820 1_555
Li0 O8 2.275482 1_555
Li0 O6 2.489187 1_555
Li1 O4 2.016459 1_554
Li1 O12 2.016537 1_555
Li1 O20 2.069820 1_555
Li1 O15 2.275482 1_555
Li1 O17 2.489187 1_555
O0 P1 1.537340 1_655
O0 Ti2 1.926798 1_565
O1 P3 1.545371 1_565
O1 Ti3 1.909783 1_556
O2 P0 1.549293 1_555
O2 Ti0 1.894550 1_655
O3 P0 1.564581 1_555
O3 Ti3 2.023120 1_556
O4 P1 1.549162 1_555
O4 Ti3 2.079281 1_556
O5 P2 1.530518 1_555
O5 Ti2 1.932426 1_565
O6 P0 1.539954 1_555
O6 Ti2 1.957680 1_555
O7 P0 1.528954 1_555
O7 Ti1 1.971566 1_555
O8 P1 1.555480 1_555
O8 Ti0 2.012780 1_555
O9 P1 1.541349 1_555
O9 Ti1 1.905629 1_555
O10 P2 1.552132 1_555
O10 Ti3 1.911084 1_555
O11 P3 1.545011 1_555
O11 Ti2 2.039508 1_555
O12 P2 1.545011 1_555
O12 Ti1 2.039508 1_555
O13 P3 1.552132 1_555
O13 Ti0 1.911084 1_555
O14 P4 1.541349 1_555
O14 Ti2 1.905629 1_555
O15 P4 1.555480 1_555
O15 Ti3 2.012780 1_555
O16 P5 1.528954 1_555
O16 Ti2 1.971566 1_555
O17 P5 1.539954 1_555
O17 Ti1 1.957680 1_555
O18 P3 1.530518 1_555
O18 Ti1 1.932426 1_545
O19 P4 1.549162 1_555
O19 Ti0 2.079281 1_554
O20 P5 1.564581 1_555
O20 Ti0 2.023120 1_554
O21 P5 1.549293 1_555
O21 Ti3 1.894550 1_455
O22 P2 1.545371 1_545
O22 Ti0 1.909783 1_554
O23 P4 1.537340 1_455
O23 Ti1 1.926798 1_545
