# generated using pymatgen
data_K4MgMn4O8
_symmetry_space_group_name_H-M   'P 1'
_cell_length_a   6.57119504
_cell_length_b   6.57158184
_cell_length_c   7.77128172
_cell_angle_alpha   115.00343629
_cell_angle_beta   114.99689933
_cell_angle_gamma   90.17780056
_symmetry_Int_Tables_number   1
_chemical_formula_structural   K4MgMn4O8
_chemical_formula_sum   'K4 Mg1 Mn4 O8'
_cell_volume   268.81970381
_cell_formula_units_Z   1
loop_
 _symmetry_equiv_pos_site_id
 _symmetry_equiv_pos_as_xyz
  1  'x, y, z'
loop_
 _atom_site_type_symbol
 _atom_site_label
 _atom_site_symmetry_multiplicity
 _atom_site_fract_x
 _atom_site_fract_y
 _atom_site_fract_z
 _atom_site_occupancy
  K  K0  1  0.03958700  0.03782600  0.07860200  1
  K  K1  1  0.50972700  0.99325500  0.98767800  1
  K  K2  1  0.50495100  0.52167500  0.51321300  1
  K  K3  1  0.45754600  0.95947000  0.42039200  1
  Mg  Mg0  1  0.87988500  0.62962900  0.24925400  1
  Mn  Mn0  1  0.96908300  0.44859000  0.91790200  1
  Mn  Mn1  1  0.02961500  0.05011600  0.58117300  1
  Mn  Mn2  1  0.03915300  0.55185600  0.60403400  1
  Mn  Mn3  1  0.44742300  0.43504100  0.89439100  1
  O  O0  1  0.19336600  0.78543300  0.51643900  1
  O  O1  1  0.76865500  0.67690300  0.98285600  1
  O  O2  1  0.78237400  0.30984300  0.01246900  1
  O  O3  1  0.79564100  0.76743000  0.48494000  1
  O  O4  1  0.19818200  0.25282200  0.92917300  1
  O  O5  1  0.82243600  0.26776500  0.57000500  1
  O  O6  1  0.22734600  0.26530600  0.56014900  1
  O  O7  1  0.20471500  0.66724000  0.93827700  1
loop_
_geom_bond_atom_site_label_1
_geom_bond_atom_site_label_2
_geom_bond_distance
_geom_bond_site_symmetry_2
K0 O2 2.525389 1_455
K0 O1 2.590606 1_444
K0 O4 2.613695 1_554
K0 O7 2.658741 1_544
K0 O6 3.019709 1_555
K1 O2 2.630920 1_566
K1 O4 2.682928 1_565
K1 O1 2.688557 1_555
K1 O7 2.717048 1_555
K1 O0 2.986370 1_555
K2 O3 2.634542 1_555
K2 O5 2.682799 1_555
K2 O0 2.688095 1_555
K2 O6 2.713276 1_555
K2 O1 2.976678 1_555
K3 O3 2.528017 1_555
K3 O0 2.585188 1_555
K3 O5 2.613079 1_565
K3 O6 2.658819 1_565
K3 O7 3.020389 1_554
Mg0 O2 1.984722 1_555
Mg0 O3 1.984722 1_555
Mg0 O0 2.043998 1_655
Mg0 O1 2.045227 1_554
Mn0 O4 1.981160 1_655
Mn0 O7 2.018375 1_655
Mn0 O1 2.043149 1_555
Mn0 O2 2.048966 1_556
Mn0 O5 2.173788 1_555
Mn1 O5 1.980883 1_455
Mn1 O6 2.019421 1_555
Mn1 O0 2.041031 1_545
Mn1 O3 2.051897 1_445
Mn1 O4 2.174626 1_555
Mn2 O7 2.108833 1_555
Mn2 O5 2.198010 1_455
Mn2 O6 2.240454 1_555
Mn2 O3 2.301052 1_455
Mn2 O0 2.302838 1_555
Mn3 O6 2.109172 1_555
Mn3 O4 2.196590 1_555
Mn3 O7 2.241262 1_555
Mn3 O1 2.298628 1_555
Mn3 O2 2.303472 1_556
