# generated using pymatgen
data_Hf3ZnP2(SO6)4
_symmetry_space_group_name_H-M   'P 1'
_cell_length_a   8.84347075
_cell_length_b   8.87138150
_cell_length_c   22.83662204
_cell_angle_alpha   90.03557372
_cell_angle_beta   89.93005766
_cell_angle_gamma   119.95987069
_symmetry_Int_Tables_number   1
_chemical_formula_structural   Hf3ZnP2(SO6)4
_chemical_formula_sum   'Hf9 Zn3 P6 S12 O72'
_cell_volume   1552.21417565
_cell_formula_units_Z   3
loop_
 _symmetry_equiv_pos_site_id
 _symmetry_equiv_pos_as_xyz
  1  'x, y, z'
loop_
 _atom_site_type_symbol
 _atom_site_label
 _atom_site_symmetry_multiplicity
 _atom_site_fract_x
 _atom_site_fract_y
 _atom_site_fract_z
 _atom_site_occupancy
  Hf  Hf0  1  0.00107366  0.00053230  0.85905632  1
  Hf  Hf1  1  0.99892529  0.00498163  0.64365253  1
  Hf  Hf2  1  0.00550286  0.00598473  0.14461871  1
  Hf  Hf3  1  0.65885002  0.33128222  0.97669507  1
  Hf  Hf4  1  0.67238609  0.32590294  0.47599084  1
  Hf  Hf5  1  0.33331132  0.66103811  0.02187625  1
  Hf  Hf6  1  0.33509610  0.66633829  0.52071826  1
  Hf  Hf7  1  0.33962132  0.67365180  0.30864796  1
  Hf  Hf8  1  0.33186793  0.66606662  0.81377302  1
  Zn  Zn0  1  0.99012772  0.99968808  0.35307158  1
  Zn  Zn1  1  0.67668179  0.33634447  0.68627811  1
  Zn  Zn2  1  0.65988698  0.33531465  0.18607505  1
  P  P0  1  0.95412697  0.33686016  0.58494000  1
  P  P1  1  0.38259466  0.33473154  0.08542599  1
  P  P2  1  0.61993691  0.66613372  0.91658621  1
  P  P3  1  0.04405233  0.37992484  0.91697536  1
  P  P4  1  0.33423724  0.95224984  0.91724538  1
  P  P5  1  0.62668179  0.95170615  0.41559185  1
  S  S0  1  0.29046781  0.00594429  0.25147299  1
  S  S1  1  0.71574827  0.70815880  0.25050924  1
  S  S2  1  0.99421685  0.28837436  0.25083387  1
  S  S3  1  0.29378243  0.28899517  0.74948704  1
  S  S4  1  0.99649787  0.70904909  0.74957139  1
  S  S5  1  0.71062598  0.00294852  0.75003777  1
  S  S6  1  0.37986534  0.04571673  0.58438275  1
  S  S7  1  0.66603482  0.61894542  0.58422671  1
  S  S8  1  0.95393076  0.62055053  0.08467083  1
  S  S9  1  0.66588661  0.04553973  0.08461146  1
  S  S10  1  0.33068686  0.37482136  0.41603124  1
  S  S11  1  0.04643707  0.67178868  0.41585710  1
  O  O0  1  0.20795174  0.02821179  0.30359787  1
  O  O1  1  0.81916613  0.78861005  0.30289188  1
  O  O2  1  0.97032656  0.18295218  0.30269868  1
  O  O3  1  0.20586949  0.17894999  0.80139826  1
  O  O4  1  0.97499754  0.79720514  0.80172979  1
  O  O5  1  0.82179907  0.02596280  0.80164983  1
  O  O6  1  0.79498959  0.97186971  0.69743046  1
  O  O7  1  0.17746315  0.20410117  0.69713428  1
  O  O8  1  0.02737312  0.82311314  0.69715321  1
  O  O9  1  0.79345867  0.82275270  0.19778773  1
  O  O10  1  0.02954201  0.20698595  0.19788601  1
  O  O11  1  0.17596918  0.97034116  0.19827514  1
  O  O12  1  0.87595706  0.36814826  0.63874466  1
  O  O13  1  0.48418151  0.11950172  0.63663296  1
  O  O14  1  0.63265465  0.51422513  0.63663049  1
  O  O15  1  0.88107126  0.51473673  0.13670163  1
  O  O16  1  0.63663292  0.12050708  0.13682760  1
  O  O17  1  0.49209984  0.36664038  0.13909691  1
  O  O18  1  0.46379504  0.30281944  0.02966087  1
  O  O19  1  0.84636809  0.54241971  0.03138619  1
  O  O20  1  0.69847459  0.15429474  0.03139515  1
  O  O21  1  0.45706442  0.15551043  0.53132422  1
  O  O22  1  0.69522119  0.54108313  0.53109662  1
  O  O23  1  0.83832389  0.30411488  0.52951700  1
  O  O24  1  0.53745792  0.69869632  0.97056328  1
  O  O25  1  0.16079061  0.46363779  0.97055155  1
  O  O26  1  0.30286140  0.83862665  0.97108618  1
  O  O27  1  0.53098254  0.83905945  0.47045591  1
  O  O28  1  0.30658130  0.46165787  0.46911646  1
  O  O29  1  0.15409915  0.69168162  0.46907522  1
  O  O30  1  0.12554360  0.63473800  0.36438771  1
  O  O31  1  0.50190946  0.86400751  0.36264055  1
  O  O32  1  0.36262035  0.48965196  0.36455688  1
  O  O33  1  0.13010328  0.49364848  0.86194069  1
  O  O34  1  0.36294356  0.86817123  0.86183281  1
  O  O35  1  0.50561876  0.63643881  0.86173364  1
  O  O36  1  0.02805629  0.82335027  0.40895941  1
  O  O37  1  0.80468408  0.97485919  0.40818493  1
  O  O38  1  0.17992726  0.20391144  0.40906270  1
  O  O39  1  0.02589104  0.20002876  0.90584118  1
  O  O40  1  0.17437008  0.97446309  0.90611442  1
  O  O41  1  0.80087204  0.82682775  0.90592890  1
  O  O42  1  0.97572406  0.17337277  0.59342969  1
  O  O43  1  0.20154337  0.02324664  0.59201972  1
  O  O44  1  0.82245096  0.79641581  0.59225544  1
  O  O45  1  0.97345250  0.79728203  0.09255664  1
  O  O46  1  0.82202956  0.02296939  0.09224775  1
  O  O47  1  0.19655888  0.17188660  0.09358526  1
  O  O48  1  0.69088517  0.15419550  0.74212411  1
  O  O49  1  0.46451742  0.30723425  0.74056984  1
  O  O50  1  0.84327512  0.53859294  0.74253975  1
  O  O51  1  0.69065786  0.53535091  0.24156355  1
  O  O52  1  0.84555591  0.31179687  0.23985688  1
  O  O53  1  0.46438056  0.15139199  0.24176483  1
  O  O54  1  0.64262688  0.50769893  0.92574557  1
  O  O55  1  0.86416857  0.35867954  0.92715086  1
  O  O56  1  0.49473166  0.13308094  0.92545553  1
  O  O57  1  0.63570390  0.13079599  0.42621057  1
  O  O58  1  0.49168762  0.36432036  0.42682330  1
  O  O59  1  0.87165703  0.51258583  0.42570510  1
  O  O60  1  0.35497763  0.49109734  0.07344465  1
  O  O61  1  0.13145963  0.64660850  0.07432217  1
  O  O62  1  0.51310660  0.87006441  0.07427427  1
  O  O63  1  0.35541948  0.86940257  0.57357267  1
  O  O64  1  0.51370246  0.64483701  0.57400237  1
  O  O65  1  0.13745088  0.49223756  0.57143791  1
  O  O66  1  0.30245199  0.84142137  0.25833202  1
  O  O67  1  0.53720180  0.69290122  0.25831130  1
  O  O68  1  0.15714141  0.46366662  0.25912036  1
  O  O69  1  0.30528698  0.46083902  0.75721521  1
  O  O70  1  0.15655851  0.69546425  0.75737946  1
  O  O71  1  0.53843052  0.84248448  0.75739249  1
loop_
_geom_bond_atom_site_label_1
_geom_bond_atom_site_label_2
_geom_bond_distance
_geom_bond_site_symmetry_2
Hf0 O40 1.978729 1_545
Hf0 O41 1.981786 1_445
Hf0 O39 1.982968 1_555
Hf0 O4 2.145473 1_445
Hf0 O5 2.155399 1_455
Hf0 O3 2.157021 1_555
Hf1 O42 1.974332 1_555
Hf1 O6 2.076789 1_545
Hf1 O7 2.078782 1_655
Hf1 O43 2.081437 1_655
Hf1 O44 2.086726 1_545
Hf1 O8 2.137235 1_645
Hf2 O47 1.973000 1_555
Hf2 O10 2.079400 1_555
Hf2 O46 2.082029 1_455
Hf2 O11 2.086893 1_545
Hf2 O45 2.096617 1_445
Hf2 O9 2.141356 1_445
Hf3 O56 2.005020 1_555
Hf3 O54 2.012634 1_555
Hf3 O18 2.015575 1_556
Hf3 O55 2.047097 1_555
Hf3 O20 2.168302 1_556
Hf3 O19 2.172119 1_556
Hf4 O57 1.957328 1_555
Hf4 O23 1.993226 1_555
Hf4 O59 2.061423 1_555
Hf4 O58 2.116438 1_555
Hf4 O21 2.151573 1_555
Hf4 O22 2.209323 1_555
Hf5 O60 1.996929 1_555
Hf5 O25 2.025215 1_554
Hf5 O24 2.033966 1_554
Hf5 O26 2.080058 1_554
Hf5 O61 2.098584 1_555
Hf5 O62 2.110835 1_555
Hf6 O27 2.003109 1_555
Hf6 O65 2.020667 1_555
Hf6 O28 2.071255 1_555
Hf6 O64 2.077926 1_555
Hf6 O29 2.089940 1_555
Hf6 O63 2.099738 1_555
Hf7 O31 2.003221 1_555
Hf7 O67 2.025073 1_555
Hf7 O66 2.033523 1_555
Hf7 O68 2.086384 1_555
Hf7 O30 2.159983 1_555
Hf7 O32 2.161213 1_555
Hf8 O34 2.000225 1_555
Hf8 O33 2.001175 1_555
Hf8 O35 2.009363 1_555
Hf8 O70 2.130548 1_555
Hf8 O71 2.141359 1_555
Hf8 O69 2.146765 1_555
O0 S0 1.459466 1_555
O0 Zn0 2.135276 1_445
O1 S1 1.458248 1_555
O1 Zn0 2.068658 1_555
O2 S2 1.457933 1_555
O2 Zn0 2.069872 1_545
O3 S3 1.484580 1_555
O4 S4 1.487737 1_555
O5 S5 1.483081 1_555
O6 S5 1.509563 1_565
O7 S3 1.510903 1_555
O8 S4 1.502062 1_455
O9 S1 1.502348 1_555
O10 S2 1.517972 1_455
O11 S0 1.511300 1_565
O12 P0 1.501275 1_555
O12 Zn1 1.965367 1_555
O13 S6 1.449783 1_555
O13 Zn1 2.148288 1_555
O14 S7 1.452229 1_555
O14 Zn1 2.131728 1_555
O15 S8 1.450376 1_555
O15 Zn2 2.125587 1_555
O16 S9 1.449572 1_555
O16 Zn2 2.131917 1_555
O17 P1 1.499619 1_555
O17 Zn2 1.961126 1_555
O18 P1 1.554974 1_555
O19 S8 1.486344 1_555
O20 S9 1.487852 1_555
O21 S6 1.489380 1_555
O22 S7 1.480588 1_555
O23 P0 1.562266 1_555
O24 P2 1.530596 1_555
O25 P3 1.533123 1_555
O26 P4 1.525180 1_555
O27 P5 1.561710 1_555
O28 S10 1.506908 1_555
O29 S11 1.499799 1_555
O30 S11 1.485314 1_555
O31 P5 1.558759 1_555
O32 S10 1.487500 1_555
O33 P3 1.552075 1_555
O34 P4 1.552192 1_555
O35 P2 1.548310 1_555
O36 S11 1.441422 1_555
O36 Zn0 2.171693 1_455
O37 P5 1.491720 1_555
O37 Zn0 1.989120 1_555
O38 S10 1.443239 1_555
O38 Zn0 2.167888 1_445
O39 P3 1.543054 1_555
O40 P4 1.543187 1_555
O41 P2 1.540453 1_555
O42 P0 1.566755 1_555
O43 S6 1.497475 1_555
O44 S7 1.500291 1_555
O45 S8 1.499926 1_555
O46 S9 1.501339 1_555
O47 P1 1.566577 1_555
O48 S5 1.448385 1_555
O48 Zn1 2.111659 1_555
O49 S3 1.450067 1_555
O49 Zn1 2.152915 1_555
O50 S4 1.449910 1_555
O50 Zn1 2.098123 1_555
O51 S1 1.449540 1_555
O51 Zn2 2.084394 1_555
O52 S2 1.451933 1_555
O52 Zn2 2.143692 1_555
O53 S0 1.448077 1_555
O53 Zn2 2.109155 1_555
O54 P2 1.530262 1_555
O55 P3 1.523104 1_655
O56 P4 1.532741 1_545
O57 P5 1.569182 1_545
O58 S10 1.493320 1_555
O59 S11 1.501186 1_655
O60 P1 1.548482 1_555
O61 S8 1.486867 1_455
O62 S9 1.484639 1_565
O63 S6 1.488677 1_565
O64 S7 1.493979 1_555
O65 P0 1.546208 1_455
O66 S0 1.523438 1_565
O67 S1 1.526137 1_555
O68 S2 1.514094 1_455
O69 S3 1.486732 1_555
O70 S4 1.490289 1_455
O71 S5 1.485980 1_565
