# generated using pymatgen
data_Na8Ca3Ge(PO4)6
_symmetry_space_group_name_H-M   'P 1'
_cell_length_a   9.33075741
_cell_length_b   9.33075707
_cell_length_c   22.22573764
_cell_angle_alpha   90.00000000
_cell_angle_beta   90.00000000
_cell_angle_gamma   120.00000124
_symmetry_Int_Tables_number   1
_chemical_formula_structural   Na8Ca3Ge(PO4)6
_chemical_formula_sum   'Na24 Ca9 Ge3 P18 O72'
_cell_volume   1675.79384420
_cell_formula_units_Z   3
loop_
 _symmetry_equiv_pos_site_id
 _symmetry_equiv_pos_as_xyz
  1  'x, y, z'
loop_
 _atom_site_type_symbol
 _atom_site_label
 _atom_site_symmetry_multiplicity
 _atom_site_fract_x
 _atom_site_fract_y
 _atom_site_fract_z
 _atom_site_occupancy
  Na  Na0  1  0.63662109  0.00043487  0.25530695  1
  Na  Na1  1  0.36381377  0.36337891  0.25530695  1
  Na  Na2  1  0.99956513  0.63618623  0.25530695  1
  Na  Na3  1  0.64918664  0.64764043  0.74382059  1
  Na  Na4  1  0.99845379  0.35081336  0.74382059  1
  Na  Na5  1  0.35235957  0.00154621  0.74382059  1
  Na  Na6  1  0.29441049  0.33701267  0.57699370  1
  Na  Na7  1  0.04260318  0.70558951  0.57699370  1
  Na  Na8  1  0.66298733  0.95739682  0.57699370  1
  Na  Na9  1  0.29568548  0.95785127  0.08954025  1
  Na  Na10  1  0.66216680  0.70431452  0.08954025  1
  Na  Na11  1  0.04214873  0.33783320  0.08954025  1
  Na  Na12  1  0.96492440  0.66995318  0.91334815  1
  Na  Na13  1  0.70502777  0.03507560  0.91334815  1
  Na  Na14  1  0.33004682  0.29497223  0.91334815  1
  Na  Na15  1  0.98237455  0.31561951  0.40882099  1
  Na  Na16  1  0.33324396  0.01762545  0.40882099  1
  Na  Na17  1  0.68438049  0.66675604  0.40882099  1
  Na  Na18  1  -0.00000000  0.00000000  0.49704008  1
  Na  Na19  1  -0.00000000  0.00000000  0.00165252  1
  Na  Na20  1  0.66666700  0.33333300  0.83313475  1
  Na  Na21  1  0.66666700  0.33333300  0.33013105  1
  Na  Na22  1  0.33333300  0.66666700  0.17820597  1
  Na  Na23  1  0.33333300  0.66666700  0.66209022  1
  Ca  Ca0  1  -0.00000000  0.00000000  0.34862829  1
  Ca  Ca1  1  -0.00000000  0.00000000  0.84641710  1
  Ca  Ca2  1  -0.00000000  0.00000000  0.65039088  1
  Ca  Ca3  1  -0.00000000  0.00000000  0.15054193  1
  Ca  Ca4  1  0.66666700  0.33333300  0.68523498  1
  Ca  Ca5  1  0.66666700  0.33333300  0.18507097  1
  Ca  Ca6  1  0.33333300  0.66666700  0.01574799  1
  Ca  Ca7  1  0.33333300  0.66666700  0.51154200  1
  Ca  Ca8  1  0.33333300  0.66666700  0.32373780  1
  Ge  Ge0  1  0.66666700  0.33333300  0.98297785  1
  Ge  Ge1  1  0.66666700  0.33333300  0.48525257  1
  Ge  Ge2  1  0.33333300  0.66666700  0.81874729  1
  P  P0  1  0.30697717  0.99305573  0.24972625  1
  P  P1  1  0.68607856  0.69302283  0.24972625  1
  P  P2  1  0.00694427  0.31392144  0.24972625  1
  P  P3  1  0.30790068  0.32681095  0.75657890  1
  P  P4  1  0.01891027  0.69209932  0.75657890  1
  P  P5  1  0.67318905  0.98108973  0.75657890  1
  P  P6  1  0.95555581  0.32825761  0.58235299  1
  P  P7  1  0.37270280  0.04444419  0.58235299  1
  P  P8  1  0.67174239  0.62729720  0.58235299  1
  P  P9  1  0.95152264  0.62563941  0.07709765  1
  P  P10  1  0.67411778  0.04847736  0.07709765  1
  P  P11  1  0.37436059  0.32588222  0.07709765  1
  P  P12  1  0.62498004  0.65334536  0.91677708  1
  P  P13  1  0.02836433  0.37501996  0.91677708  1
  P  P14  1  0.34665464  0.97163567  0.91677708  1
  P  P15  1  0.64651717  0.99575229  0.42323736  1
  P  P16  1  0.34923412  0.35348283  0.42323736  1
  P  P17  1  0.00424771  0.65076588  0.42323736  1
  O  O0  1  0.21128632  0.99689753  0.30585086  1
  O  O1  1  0.78561121  0.78871368  0.30585086  1
  O  O2  1  0.00310247  0.21438879  0.30585086  1
  O  O3  1  0.22729754  0.22172978  0.81227411  1
  O  O4  1  0.99443224  0.77270246  0.81227411  1
  O  O5  1  0.77827022  0.00556776  0.81227411  1
  O  O6  1  0.75079197  0.95111631  0.69986041  1
  O  O7  1  0.20032434  0.24920803  0.69986041  1
  O  O8  1  0.04888369  0.79967566  0.69986041  1
  O  O9  1  0.77138636  0.78623076  0.19093039  1
  O  O10  1  0.01484440  0.22861364  0.19093039  1
  O  O11  1  0.21376924  0.98515560  0.19093039  1
  O  O12  1  0.88251635  0.33862844  0.64256470  1
  O  O13  1  0.45611309  0.11748365  0.64256470  1
  O  O14  1  0.66137156  0.54388691  0.64256470  1
  O  O15  1  0.87073396  0.53335602  0.13434290  1
  O  O16  1  0.66262305  0.12926604  0.13434290  1
  O  O17  1  0.46664398  0.33737695  0.13434290  1
  O  O18  1  0.47311642  0.31088548  0.01810055  1
  O  O19  1  0.83777006  0.52688358  0.01810055  1
  O  O20  1  0.68911452  0.16222994  0.01810055  1
  O  O21  1  0.47888962  0.15979150  0.52780025  1
  O  O22  1  0.68090288  0.52111038  0.52780025  1
  O  O23  1  0.84020850  0.31909712  0.52780025  1
  O  O24  1  0.55525931  0.67771977  0.97456185  1
  O  O25  1  0.12245946  0.44474069  0.97456185  1
  O  O26  1  0.32228023  0.87754054  0.97456185  1
  O  O27  1  0.56591120  0.88872637  0.47885428  1
  O  O28  1  0.32281417  0.43408880  0.47885428  1
  O  O29  1  0.11127363  0.67718583  0.47885428  1
  O  O30  1  0.08369307  0.62104717  0.36721988  1
  O  O31  1  0.53735310  0.91630693  0.36721988  1
  O  O32  1  0.37895283  0.46264690  0.36721988  1
  O  O33  1  0.12763376  0.49388332  0.86113894  1
  O  O34  1  0.36624855  0.87236624  0.86113894  1
  O  O35  1  0.50611668  0.63375145  0.86113894  1
  O  O36  1  0.97274688  0.79717421  0.41794563  1
  O  O37  1  0.82442733  0.02725312  0.41794563  1
  O  O38  1  0.20282579  0.17557267  0.41794563  1
  O  O39  1  0.99803131  0.19920051  0.90794622  1
  O  O40  1  0.20116920  0.00196869  0.90794622  1
  O  O41  1  0.80079949  0.79883080  0.90794622  1
  O  O42  1  0.96568230  0.16735684  0.57817377  1
  O  O43  1  0.20167455  0.03431770  0.57817377  1
  O  O44  1  0.83264316  0.79832545  0.57817377  1
  O  O45  1  0.96394025  0.79661478  0.07259342  1
  O  O46  1  0.83267453  0.03605975  0.07259342  1
  O  O47  1  0.20338522  0.16732547  0.07259342  1
  O  O48  1  0.64076270  0.12720414  0.75224495  1
  O  O49  1  0.48644244  0.35923730  0.75224495  1
  O  O50  1  0.87279586  0.51355756  0.75224495  1
  O  O51  1  0.66811882  0.51862914  0.25309731  1
  O  O52  1  0.85051132  0.33188118  0.25309731  1
  O  O53  1  0.48137086  0.14948868  0.25309731  1
  O  O54  1  0.63227838  0.48471246  0.91635617  1
  O  O55  1  0.85243508  0.36772162  0.91635617  1
  O  O56  1  0.51528754  0.14756492  0.91635617  1
  O  O57  1  0.65571146  0.17093650  0.42806569  1
  O  O58  1  0.51522604  0.34428854  0.42806569  1
  O  O59  1  0.82906350  0.48477396  0.42806569  1
  O  O60  1  0.35640711  0.48068959  0.07369836  1
  O  O61  1  0.12428148  0.64359289  0.07369836  1
  O  O62  1  0.51931041  0.87571852  0.07369836  1
  O  O63  1  0.35140630  0.86927466  0.57772648  1
  O  O64  1  0.51786736  0.64859370  0.57772648  1
  O  O65  1  0.13072534  0.48213264  0.57772648  1
  O  O66  1  0.32390902  0.83668376  0.25090839  1
  O  O67  1  0.51277374  0.67609098  0.25090839  1
  O  O68  1  0.16331624  0.48722626  0.25090839  1
  O  O69  1  0.31397600  0.50124137  0.76196221  1
  O  O70  1  0.18726437  0.68602400  0.76196221  1
  O  O71  1  0.49875863  0.81273563  0.76196221  1
loop_
_geom_bond_atom_site_label_1
_geom_bond_atom_site_label_2
_geom_bond_distance
_geom_bond_site_symmetry_2
Na0 O53 2.459642 1_555
Na0 O66 2.529756 1_545
Na0 O31 2.633237 1_545
Na0 O67 2.647005 1_545
Na0 O52 2.716200 1_555
Na0 O16 2.905229 1_555
Na1 O51 2.459650 1_555
Na1 O67 2.529756 1_555
Na1 O32 2.633238 1_555
Na1 O68 2.647014 1_555
Na1 O53 2.716208 1_555
Na1 O17 2.905232 1_555
Na2 O52 2.459650 1_555
Na2 O68 2.529748 1_655
Na2 O30 2.633235 1_655
Na2 O66 2.647007 1_655
Na2 O51 2.716199 1_555
Na2 O15 2.905230 1_555
Na3 O49 2.344394 1_555
Na3 O14 2.474854 1_555
Na3 O71 2.582233 1_555
Na3 O6 2.680887 1_555
Na3 O69 2.745712 1_555
Na3 O35 2.902563 1_555
Na3 O50 2.926411 1_555
Na4 O50 2.344386 1_555
Na4 O12 2.474850 1_555
Na4 O69 2.582224 1_655
Na4 O7 2.680888 1_655
Na4 O70 2.745712 1_655
Na4 O33 2.902562 1_655
Na4 O48 2.926403 1_555
Na5 O48 2.344395 1_555
Na5 O13 2.474851 1_555
Na5 O70 2.582225 1_545
Na5 O8 2.680888 1_545
Na5 O71 2.745704 1_545
Na5 O34 2.902559 1_545
Na5 O49 2.926402 1_555
Na6 O28 2.325590 1_555
Na6 O65 2.496909 1_555
Na6 O43 2.506509 1_555
Na6 O64 2.595793 1_555
Na6 O42 2.656933 1_455
Na6 O7 2.860064 1_555
Na7 O29 2.325583 1_555
Na7 O63 2.496893 1_555
Na7 O44 2.506518 1_455
Na7 O65 2.595780 1_555
Na7 O43 2.656933 1_565
Na7 O8 2.860065 1_555
Na8 O27 2.325588 1_555
Na8 O64 2.496892 1_555
Na8 O42 2.506512 1_565
Na8 O63 2.595798 1_555
Na8 O44 2.656925 1_555
Na8 O6 2.860063 1_555
Na9 O11 2.433513 1_555
Na9 O47 2.527289 1_565
Na9 O61 2.567170 1_555
Na9 O62 2.581515 1_555
Na9 O45 2.707402 1_455
Na9 O26 2.709160 1_554
Na10 O9 2.433510 1_555
Na10 O45 2.527280 1_555
Na10 O62 2.567186 1_555
Na10 O60 2.581528 1_555
Na10 O46 2.707402 1_565
Na10 O24 2.709166 1_554
Na11 O10 2.433510 1_555
Na11 O46 2.527282 1_455
Na11 O60 2.567169 1_555
Na11 O61 2.581533 1_555
Na11 O47 2.707394 1_555
Na11 O25 2.709164 1_554
Na12 O41 2.376396 1_555
Na12 O4 2.403646 1_555
Na12 O55 2.469590 1_555
Na12 O19 2.650737 1_556
Na12 O54 2.694623 1_555
Na12 O40 2.764402 1_665
Na12 O33 2.973994 1_655
Na13 O39 2.376404 1_555
Na13 O5 2.403650 1_555
Na13 O56 2.469573 1_555
Na13 O20 2.650732 1_556
Na13 O55 2.694621 1_555
Na13 O41 2.764409 1_545
Na13 O34 2.973994 1_545
Na14 O40 2.376404 1_555
Na14 O3 2.403647 1_555
Na14 O54 2.469588 1_555
Na14 O18 2.650741 1_556
Na14 O56 2.694638 1_555
Na14 O39 2.764400 1_455
Na14 O35 2.973994 1_555
Na15 O37 2.342526 1_555
Na15 O2 2.519904 1_655
Na15 O59 2.641645 1_555
Na15 O30 2.678846 1_655
Na15 O57 2.679743 1_555
Na15 O38 2.944113 1_655
Na15 O23 2.965907 1_555
Na16 O38 2.342518 1_555
Na16 O0 2.519900 1_545
Na16 O57 2.641661 1_555
Na16 O31 2.678846 1_545
Na16 O58 2.679744 1_555
Na16 O36 2.944106 1_445
Na16 O21 2.965911 1_555
Na17 O36 2.342527 1_555
Na17 O1 2.519901 1_555
Na17 O58 2.641660 1_555
Na17 O32 2.678846 1_555
Na17 O59 2.679759 1_555
Na17 O37 2.944104 1_565
Na17 O22 2.965916 1_555
Na18 O36 2.501072 1_445
Na18 O38 2.501072 1_555
Na18 O37 2.501073 1_455
Na18 O42 2.508542 1_455
Na18 O44 2.508542 1_445
Na18 O43 2.508542 1_555
Na19 O45 2.358415 1_445
Na19 O47 2.358415 1_555
Na19 O46 2.358415 1_455
Na19 O41 2.797645 1_444
Na19 O39 2.797645 1_454
Na19 O40 2.797645 1_554
Na20 O56 2.443876 1_555
Na20 O54 2.443876 1_555
Na20 O55 2.443876 1_555
Na20 O48 2.554404 1_555
Na20 O50 2.554404 1_555
Na20 O49 2.554404 1_555
Na21 O51 2.428464 1_555
Na21 O53 2.428464 1_555
Na21 O52 2.428464 1_555
Na21 O57 2.624790 1_555
Na21 O59 2.624790 1_555
Na21 O58 2.624790 1_555
Na22 O68 2.296707 1_555
Na22 O66 2.296707 1_555
Na22 O67 2.296707 1_555
Na22 O62 2.970938 1_555
Na22 O60 2.970938 1_555
Na22 O61 2.970938 1_555
Na23 O63 2.607558 1_555
Na23 O65 2.607558 1_555
Na23 O64 2.607558 1_555
Na23 O69 2.657737 1_555
Na23 O71 2.657737 1_555
Na23 O70 2.657737 1_555
Ca0 O2 2.201934 1_555
Ca0 O1 2.201934 1_445
Ca0 O0 2.201934 1_545
Ca0 O36 2.353418 1_445
Ca0 O38 2.353418 1_555
Ca0 O37 2.353418 1_455
Ca1 O4 2.228545 1_445
Ca1 O3 2.228545 1_555
Ca1 O5 2.228545 1_455
Ca1 O41 2.315028 1_445
Ca1 O39 2.315028 1_455
Ca1 O40 2.315028 1_555
Ca2 O42 2.370091 1_455
Ca2 O44 2.370091 1_445
Ca2 O43 2.370091 1_555
Ca2 O7 2.400695 1_555
Ca2 O8 2.400695 1_545
Ca2 O6 2.400696 1_445
Ca3 O10 2.253842 1_555
Ca3 O9 2.253842 1_445
Ca3 O11 2.253842 1_545
Ca3 O45 2.465264 1_445
Ca3 O47 2.465264 1_555
Ca3 O46 2.465264 1_455
Ca4 O13 2.204245 1_555
Ca4 O14 2.204245 1_555
Ca4 O12 2.204245 1_555
Ca4 O48 2.347535 1_555
Ca4 O50 2.347535 1_555
Ca4 O49 2.347535 1_555
Ca5 O16 2.196897 1_555
Ca5 O15 2.196897 1_555
Ca5 O17 2.196897 1_555
Ca5 O51 2.291722 1_555
Ca5 O53 2.291722 1_555
Ca5 O52 2.291722 1_555
Ca6 O25 2.218781 1_554
Ca6 O26 2.218781 1_554
Ca6 O24 2.218781 1_554
Ca6 O62 2.256143 1_555
Ca6 O60 2.256143 1_555
Ca6 O61 2.256143 1_555
Ca7 O28 2.243640 1_555
Ca7 O27 2.243640 1_555
Ca7 O29 2.243640 1_555
Ca7 O63 2.333966 1_555
Ca7 O65 2.333966 1_555
Ca7 O64 2.333966 1_555
Ca8 O68 2.298694 1_555
Ca8 O66 2.298694 1_555
Ca8 O67 2.298694 1_555
Ca8 O31 2.355720 1_555
Ca8 O32 2.355721 1_555
Ca8 O30 2.355721 1_555
Ge0 O19 1.880565 1_556
Ge0 O20 1.880565 1_556
Ge0 O18 1.880565 1_556
Ge0 O56 2.178031 1_555
Ge0 O54 2.178031 1_555
Ge0 O55 2.178031 1_555
Ge1 O22 1.936244 1_555
Ge1 O21 1.936244 1_555
Ge1 O23 1.936244 1_555
Ge1 O57 1.940909 1_555
Ge1 O59 1.940909 1_555
Ge1 O58 1.940909 1_555
Ge2 O69 1.931124 1_555
Ge2 O71 1.931124 1_555
Ge2 O70 1.931124 1_555
Ge2 O35 2.019007 1_555
Ge2 O33 2.019007 1_555
Ge2 O34 2.019007 1_555
O0 P0 1.544843 1_555
O1 P1 1.544843 1_555
O2 P2 1.544843 1_555
O3 P3 1.523776 1_555
O4 P4 1.523776 1_655
O5 P5 1.523776 1_545
O6 P5 1.547314 1_555
O7 P3 1.547314 1_555
O8 P4 1.547314 1_555
O9 P1 1.550929 1_555
O10 P2 1.550929 1_555
O11 P0 1.550929 1_555
O12 P6 1.526658 1_555
O13 P7 1.526658 1_555
O14 P8 1.526658 1_555
O15 P9 1.509765 1_555
O16 P10 1.509765 1_555
O17 P11 1.509765 1_555
O18 P11 1.648336 1_555
O19 P9 1.648336 1_555
O20 P10 1.648336 1_555
O21 P7 1.594923 1_555
O22 P8 1.594923 1_555
O23 P6 1.594923 1_555
O24 P12 1.507429 1_555
O25 P13 1.507429 1_555
O26 P14 1.507429 1_555
O27 P15 1.529663 1_555
O28 P16 1.529663 1_555
O29 P17 1.529663 1_555
O30 P17 1.543391 1_555
O31 P15 1.543391 1_555
O32 P16 1.543391 1_555
O33 P13 1.609317 1_555
O34 P14 1.609317 1_555
O35 P12 1.609317 1_555
O36 P17 1.538827 1_655
O37 P15 1.538837 1_545
O38 P16 1.538833 1_555
O39 P13 1.531550 1_655
O40 P14 1.531541 1_545
O41 P12 1.531546 1_555
O42 P6 1.553510 1_555
O43 P7 1.553519 1_555
O44 P8 1.553515 1_555
O45 P9 1.543917 1_555
O46 P10 1.543908 1_555
O47 P11 1.543913 1_555
O48 P5 1.540152 1_545
O49 P3 1.540161 1_555
O50 P4 1.540158 1_655
O51 P1 1.552054 1_555
O52 P2 1.552044 1_655
O53 P0 1.552050 1_545
O54 P12 1.608631 1_555
O55 P13 1.608612 1_655
O56 P14 1.608621 1_545
O57 P15 1.597049 1_545
O58 P16 1.597068 1_555
O59 P17 1.597058 1_655
O60 P11 1.536958 1_555
O61 P9 1.536940 1_455
O62 P10 1.536948 1_565
O63 P7 1.548143 1_565
O64 P8 1.548161 1_555
O65 P6 1.548150 1_455
O66 P0 1.544359 1_555
O67 P1 1.544369 1_555
O68 P2 1.544365 1_555
O69 P3 1.604445 1_555
O70 P4 1.604436 1_555
O71 P5 1.604441 1_555
