# generated using pymatgen
data_Na2YAlSi(SO6)2
_symmetry_space_group_name_H-M   'P 1'
_cell_length_a   8.89799420
_cell_length_b   8.95214267
_cell_length_c   22.86443411
_cell_angle_alpha   89.42562954
_cell_angle_beta   89.32751115
_cell_angle_gamma   120.02007538
_symmetry_Int_Tables_number   1
_chemical_formula_structural   Na2YAlSi(SO6)2
_chemical_formula_sum   'Na12 Y6 Al6 Si6 S12 O72'
_cell_volume   1576.59150094
_cell_formula_units_Z   6
loop_
 _symmetry_equiv_pos_site_id
 _symmetry_equiv_pos_as_xyz
  1  'x, y, z'
loop_
 _atom_site_type_symbol
 _atom_site_label
 _atom_site_symmetry_multiplicity
 _atom_site_fract_x
 _atom_site_fract_y
 _atom_site_fract_z
 _atom_site_occupancy
  Na  Na0  1  0.99888998  0.62878022  0.25236142  1
  Na  Na1  1  0.37885128  0.00825163  0.74594456  1
  Na  Na2  1  0.65894584  0.96295730  0.59452029  1
  Na  Na3  1  0.03073281  0.33878957  0.09797075  1
  Na  Na4  1  0.99168545  0.67838732  0.92948746  1
  Na  Na5  1  0.32393883  0.02009736  0.42014453  1
  Na  Na6  1  0.01086146  0.98433392  0.50082912  1
  Na  Na7  1  0.02048259  0.98162271  0.00300389  1
  Na  Na8  1  0.66543335  0.30089417  0.82880526  1
  Na  Na9  1  0.68407453  0.33663301  0.33712771  1
  Na  Na10  1  0.33133198  0.65531636  0.17430827  1
  Na  Na11  1  0.33315895  0.66699664  0.66281213  1
  Y  Y0  1  0.99533593  0.00760694  0.84506378  1
  Y  Y1  1  0.99936208  0.98969990  0.15865055  1
  Y  Y2  1  0.65508193  0.32387396  0.98183310  1
  Y  Y3  1  0.33134247  0.68401819  0.02391673  1
  Y  Y4  1  0.31563210  0.67732907  0.51572214  1
  Y  Y5  1  0.35524934  0.68504198  0.80727271  1
  Al  Al0  1  0.97384960  0.99065959  0.34966571  1
  Al  Al1  1  0.01485276  0.00081417  0.64738319  1
  Al  Al2  1  0.66382007  0.32097517  0.67924242  1
  Al  Al3  1  0.68755879  0.32458825  0.18983973  1
  Al  Al4  1  0.67434562  0.35525982  0.48703265  1
  Al  Al5  1  0.29430250  0.63023575  0.32009548  1
  Si  Si0  1  0.00074825  0.29289059  0.25224105  1
  Si  Si1  1  0.71834481  0.01759293  0.73633013  1
  Si  Si2  1  0.37756497  0.06417376  0.58207879  1
  Si  Si3  1  0.95077814  0.62336765  0.08744240  1
  Si  Si4  1  0.33205567  0.97553634  0.90958167  1
  Si  Si5  1  0.01773294  0.66894362  0.41283305  1
  S  S0  1  0.31460157  0.00074075  0.25613864  1
  S  S1  1  0.68410582  0.69501535  0.25791213  1
  S  S2  1  0.30484019  0.29419775  0.73934560  1
  S  S3  1  0.98305764  0.69546359  0.74196197  1
  S  S4  1  0.94327006  0.32782730  0.58289834  1
  S  S5  1  0.67782976  0.62003519  0.58590049  1
  S  S6  1  0.66557625  0.04207916  0.09223652  1
  S  S7  1  0.37887664  0.33449260  0.09259233  1
  S  S8  1  0.63348760  0.66576369  0.91681768  1
  S  S9  1  0.04301497  0.36938946  0.91767685  1
  S  S10  1  0.63097931  0.96058020  0.41332918  1
  S  S11  1  0.32718703  0.36752457  0.41377092  1
  O  O0  1  0.23096063  0.03116704  0.30721469  1
  O  O1  1  0.81637571  0.78895149  0.30388255  1
  O  O2  1  0.97854813  0.15213496  0.30269963  1
  O  O3  1  0.24056729  0.19441721  0.79523972  1
  O  O4  1  0.95946488  0.76085525  0.79874974  1
  O  O5  1  0.80690275  0.03291495  0.79898633  1
  O  O6  1  0.83056791  0.99652528  0.68226612  1
  O  O7  1  0.18981286  0.19377955  0.69126240  1
  O  O8  1  0.02076278  0.82627621  0.69442975  1
  O  O9  1  0.74661459  0.79258285  0.20166150  1
  O  O10  1  0.03343292  0.23343657  0.18885353  1
  O  O11  1  0.19778822  0.95243364  0.20460171  1
  O  O12  1  0.86222010  0.35005395  0.63621316  1
  O  O13  1  0.49889964  0.15393316  0.63822070  1
  O  O14  1  0.66329739  0.51424458  0.63731609  1
  O  O15  1  0.83790514  0.49754460  0.14409564  1
  O  O16  1  0.65007009  0.13582812  0.14300555  1
  O  O17  1  0.47727035  0.32860077  0.14309133  1
  O  O18  1  0.45292566  0.32222796  0.03618572  1
  O  O19  1  0.86860418  0.54314045  0.02385710  1
  O  O20  1  0.67664422  0.13092911  0.03665543  1
  O  O21  1  0.47729888  0.17938281  0.52126769  1
  O  O22  1  0.69708812  0.54160534  0.53106731  1
  O  O23  1  0.84001552  0.31611403  0.53030274  1
  O  O24  1  0.54144173  0.66247081  0.97075850  1
  O  O25  1  0.13460296  0.44815585  0.97249658  1
  O  O26  1  0.31321602  0.85276747  0.96629835  1
  O  O27  1  0.57167596  0.86624359  0.47079931  1
  O  O28  1  0.30122733  0.44154357  0.46783783  1
  O  O29  1  0.15198850  0.73447525  0.46788629  1
  O  O30  1  0.11755780  0.63273819  0.35809022  1
  O  O31  1  0.50797834  0.86090366  0.36685069  1
  O  O32  1  0.34998291  0.48325992  0.36291663  1
  O  O33  1  0.14202052  0.47078587  0.86550481  1
  O  O34  1  0.33867244  0.88438911  0.84802752  1
  O  O35  1  0.53428493  0.65337120  0.86413615  1
  O  O36  1  0.00564948  0.84477171  0.39720106  1
  O  O37  1  0.80773670  0.98544923  0.40325135  1
  O  O38  1  0.17467227  0.19067606  0.40641124  1
  O  O39  1  0.01277717  0.19268451  0.91669721  1
  O  O40  1  0.14913249  0.97636893  0.91280038  1
  O  O41  1  0.80379349  0.82677184  0.91535057  1
  O  O42  1  0.95504695  0.16864176  0.58432554  1
  O  O43  1  0.17843439  0.03395052  0.59214339  1
  O  O44  1  0.83352211  0.79693271  0.58868711  1
  O  O45  1  0.97917018  0.81724687  0.08992333  1
  O  O46  1  0.82680877  0.03417749  0.09420825  1
  O  O47  1  0.19795080  0.18570504  0.09283155  1
  O  O48  1  0.68669304  0.18514229  0.73313123  1
  O  O49  1  0.48292186  0.32235669  0.73202792  1
  O  O50  1  0.82867570  0.52789098  0.73186503  1
  O  O51  1  0.67393838  0.52413750  0.25272890  1
  O  O52  1  0.82726631  0.32077881  0.24735577  1
  O  O53  1  0.48321072  0.15927656  0.24286865  1
  O  O54  1  0.66800885  0.52056594  0.91462940  1
  O  O55  1  0.87504588  0.36717161  0.91647884  1
  O  O56  1  0.50333424  0.16396832  0.91118822  1
  O  O57  1  0.64054873  0.13089956  0.41766259  1
  O  O58  1  0.48602688  0.35177220  0.41702499  1
  O  O59  1  0.83128918  0.49380818  0.43065697  1
  O  O60  1  0.36905819  0.49546155  0.09276276  1
  O  O61  1  0.13895445  0.62703669  0.09187830  1
  O  O62  1  0.51287112  0.86752919  0.09384060  1
  O  O63  1  0.36912393  0.87420933  0.57914055  1
  O  O64  1  0.52069299  0.63884840  0.58297587  1
  O  O65  1  0.12127424  0.47958153  0.57993477  1
  O  O66  1  0.33824437  0.84818272  0.26583697  1
  O  O67  1  0.51402776  0.67800929  0.27151741  1
  O  O68  1  0.16671367  0.49109162  0.26262278  1
  O  O69  1  0.30993868  0.46105810  0.74223729  1
  O  O70  1  0.14105391  0.67755997  0.74381095  1
  O  O71  1  0.51983285  0.84602442  0.73514191  1
loop_
_geom_bond_atom_site_label_1
_geom_bond_atom_site_label_2
_geom_bond_distance
_geom_bond_site_symmetry_2
Na0 O68 2.376654 1_655
Na0 O52 2.396859 1_555
Na0 O51 2.554786 1_555
Na0 O30 2.642793 1_655
Na0 O66 2.677703 1_655
Na0 O11 2.734925 1_655
Na0 O15 2.831529 1_555
Na0 O1 2.898293 1_555
Na1 O71 2.359369 1_545
Na1 O48 2.393355 1_555
Na1 O49 2.497057 1_555
Na1 O34 2.517354 1_545
Na1 O70 2.642160 1_545
Na1 O13 2.718154 1_555
Na1 O3 2.760229 1_555
Na2 O63 2.319924 1_555
Na2 O42 2.347161 1_565
Na2 O6 2.464187 1_555
Na2 O64 2.540280 1_555
Na2 O44 2.636105 1_555
Na2 O13 2.895910 1_565
Na2 O27 2.963563 1_555
Na3 O61 2.260222 1_555
Na3 O10 2.278738 1_555
Na3 O46 2.406933 1_455
Na3 O47 2.478951 1_555
Na3 O60 2.609090 1_555
Na4 O40 2.334915 1_655
Na4 O19 2.426189 1_556
Na4 O55 2.461353 1_555
Na4 O54 2.523368 1_555
Na4 O41 2.624956 1_555
Na4 O26 2.635241 1_655
Na5 O29 2.461853 1_545
Na5 O57 2.474409 1_555
Na5 O38 2.494814 1_555
Na5 O36 2.522535 1_545
Na5 O58 2.570940 1_555
Na5 O21 2.726629 1_555
Na5 O0 2.736503 1_555
Na5 O31 2.919012 1_545
Na6 O43 2.491716 1_565
Na6 O44 2.559098 1_455
Na6 O36 2.679757 1_555
Na6 O38 2.710956 1_565
Na6 O42 2.733946 1_465
Na6 O37 2.890796 1_455
Na7 O40 2.359389 1_554
Na7 O45 2.373408 1_455
Na7 O41 2.669794 1_454
Na7 O47 2.704511 1_565
Na7 O39 2.743522 1_564
Na7 O46 2.878602 1_465
Na8 O56 2.291697 1_555
Na8 O48 2.475222 1_555
Na8 O55 2.617920 1_555
Na8 O54 2.784207 1_555
Na8 O49 2.821098 1_555
Na8 O50 2.834209 1_555
Na9 O52 2.445818 1_555
Na9 O57 2.476750 1_555
Na9 O59 2.559429 1_555
Na9 O58 2.574763 1_555
Na9 O51 2.576861 1_555
Na9 O53 2.771216 1_555
Na10 O68 2.469949 1_555
Na10 O60 2.481205 1_555
Na10 O61 2.489596 1_555
Na10 O62 2.528435 1_555
Na10 O66 2.708068 1_555
Na10 O67 2.717985 1_555
Na11 O71 2.348721 1_555
Na11 O69 2.506460 1_555
Na11 O70 2.540007 1_555
Na11 O63 2.554189 1_555
Na11 O64 2.557062 1_555
Na11 O65 2.634912 1_555
Al0 O2 1.775353 1_565
Al0 O36 1.820861 1_655
Al0 O37 1.890862 1_555
Al0 O1 1.964792 1_555
Al0 O38 2.232056 1_665
Al0 O0 2.327704 1_665
Al1 O6 1.797811 1_445
Al1 O43 1.821854 1_555
Al1 O8 1.910785 1_545
Al1 O7 1.948012 1_555
Al1 O44 2.211098 1_445
Al1 O42 2.322443 1_455
Al2 O13 1.770317 1_555
Al2 O48 1.806020 1_555
Al2 O12 1.909574 1_555
Al2 O14 1.971646 1_555
Al2 O49 2.005571 1_555
Al2 O50 2.097109 1_555
Al3 O15 1.772857 1_555
Al3 O52 1.831887 1_555
Al3 O16 1.895800 1_555
Al3 O53 2.046002 1_555
Al3 O17 2.181376 1_555
Al3 O51 2.353202 1_555
Al4 O59 1.828281 1_555
Al4 O21 1.829390 1_555
Al4 O22 1.881007 1_555
Al4 O23 1.954191 1_555
Al4 O58 2.320047 1_555
Al4 O57 2.472035 1_555
Al5 O68 1.794469 1_555
Al5 O30 1.797794 1_555
Al5 O32 1.890263 1_555
Al5 O67 2.083721 1_555
Al5 O66 2.162281 1_555
Al5 O31 2.277128 1_555
O0 S0 1.476722 1_555
O1 S1 1.501188 1_555
O2 Si0 1.635319 1_655
O3 S2 1.485602 1_555
O3 Y0 2.260090 1_455
O4 S3 1.484742 1_555
O4 Y0 2.334968 1_565
O5 Si1 1.616900 1_555
O5 Y0 2.095064 1_555
O6 Si1 1.650723 1_565
O7 S2 1.479847 1_555
O8 S3 1.495945 1_455
O9 S1 1.483574 1_555
O9 Y1 2.254131 1_555
O10 Si0 1.621371 1_555
O10 Y1 2.168642 1_445
O11 S0 1.498371 1_565
O11 Y1 2.226742 1_455
O12 S4 1.474279 1_555
O13 Si2 1.626102 1_555
O14 S5 1.465337 1_555
O15 Si3 1.662411 1_555
O16 S6 1.484079 1_555
O17 S7 1.473493 1_555
O18 S7 1.471328 1_555
O18 Y2 2.168154 1_554
O19 Si3 1.638455 1_555
O19 Y2 2.176000 1_554
O20 S6 1.468258 1_555
O20 Y2 2.210276 1_554
O21 Si2 1.676592 1_555
O22 S5 1.492368 1_555
O23 S4 1.494439 1_555
O24 S8 1.464296 1_555
O24 Y3 2.306852 1_556
O25 S9 1.482943 1_555
O25 Y3 2.303183 1_556
O26 Si4 1.643061 1_555
O26 Y3 2.062182 1_556
O27 S10 1.494616 1_555
O27 Y4 2.271691 1_555
O28 S11 1.477674 1_555
O28 Y4 2.334406 1_555
O29 Si5 1.644561 1_555
O29 Y4 2.085603 1_555
O30 Si5 1.652510 1_555
O31 S10 1.480720 1_555
O32 S11 1.492189 1_555
O33 S9 1.475290 1_555
O33 Y5 2.302086 1_555
O34 Si4 1.648996 1_555
O34 Y5 2.090052 1_555
O35 S8 1.473780 1_555
O35 Y5 2.191296 1_555
O36 Si5 1.666093 1_555
O37 S10 1.488764 1_555
O38 S11 1.495767 1_555
O39 S9 1.466370 1_555
O39 Y0 2.292351 1_455
O40 Si4 1.632192 1_555
O40 Y0 2.184854 1_465
O41 S8 1.478965 1_555
O41 Y0 2.287125 1_565
O42 S4 1.480334 1_555
O43 Si2 1.665877 1_555
O44 S5 1.496659 1_555
O45 Si3 1.625741 1_555
O45 Y1 2.159334 1_555
O46 S6 1.472496 1_555
O46 Y1 2.310843 1_545
O47 S7 1.489937 1_555
O47 Y1 2.290904 1_445
O48 Si1 1.659946 1_555
O49 S2 1.481771 1_555
O50 S3 1.463947 1_555
O51 S1 1.492545 1_555
O52 Si0 1.687229 1_655
O53 S0 1.485689 1_555
O54 S8 1.478807 1_555
O54 Y2 2.283355 1_555
O55 S9 1.485334 1_655
O55 Y2 2.318308 1_555
O56 Si4 1.612362 1_545
O56 Y2 2.155206 1_555
O57 S10 1.488344 1_545
O58 S11 1.491537 1_555
O59 Si5 1.656845 1_655
O60 S7 1.486692 1_555
O60 Y3 2.442487 1_555
O61 Si3 1.662521 1_455
O61 Y3 2.157131 1_555
O62 S6 1.470541 1_565
O62 Y3 2.306954 1_555
O63 Si2 1.666361 1_565
O63 Y4 2.159528 1_555
O64 S5 1.491778 1_555
O64 Y4 2.548863 1_555
O65 S4 1.483727 1_455
O65 Y4 2.259459 1_555
O66 S0 1.497041 1_565
O67 S1 1.472295 1_555
O68 Si0 1.667400 1_555
O69 S2 1.473765 1_555
O69 Y5 2.378912 1_555
O70 S3 1.493522 1_455
O70 Y5 2.383602 1_555
O71 Si1 1.663467 1_565
O71 Y5 2.173791 1_555
