# generated using pymatgen
data_Na6MgZr3Si2(PO6)4
_symmetry_space_group_name_H-M   'P 1'
_cell_length_a   15.86221140
_cell_length_b   9.11208526
_cell_length_c   9.17060347
_cell_angle_alpha   90.34042030
_cell_angle_beta   124.74950096
_cell_angle_gamma   90.01452650
_symmetry_Int_Tables_number   1
_chemical_formula_structural   Na6MgZr3Si2(PO6)4
_chemical_formula_sum   'Na12 Mg2 Zr6 Si4 P8 O48'
_cell_volume   1089.06891250
_cell_formula_units_Z   2
loop_
 _symmetry_equiv_pos_site_id
 _symmetry_equiv_pos_as_xyz
  1  'x, y, z'
loop_
 _atom_site_type_symbol
 _atom_site_label
 _atom_site_symmetry_multiplicity
 _atom_site_fract_x
 _atom_site_fract_y
 _atom_site_fract_z
 _atom_site_occupancy
  Na  Na0  1  0.24999453  0.74913922  0.99947639  1
  Na  Na1  1  0.74135223  0.74571776  0.47466515  1
  Na  Na2  1  0.74999453  0.24913922  0.99947639  1
  Na  Na3  1  0.24135223  0.24571776  0.47466515  1
  Na  Na4  1  0.51070074  0.09090472  0.77289446  1
  Na  Na5  1  0.49679215  0.88513792  0.23143805  1
  Na  Na6  1  0.01070074  0.59090472  0.77289446  1
  Na  Na7  1  0.99679215  0.38513792  0.23143805  1
  Na  Na8  1  0.79641509  0.92643615  0.20651396  1
  Na  Na9  1  0.18558902  0.08155637  0.81337466  1
  Na  Na10  1  0.29641509  0.42643615  0.20651396  1
  Na  Na11  1  0.68558902  0.58155637  0.81337466  1
  Mg  Mg0  1  0.10384572  0.24403764  0.06016319  1
  Mg  Mg1  1  0.60384572  0.74403764  0.06016319  1
  Zr  Zr0  1  0.10479239  0.74795710  0.55772006  1
  Zr  Zr1  1  0.89406182  0.75631148  0.93458972  1
  Zr  Zr2  1  0.89581878  0.25402221  0.44271622  1
  Zr  Zr3  1  0.60479239  0.24795710  0.55772006  1
  Zr  Zr4  1  0.39406182  0.25631148  0.93458972  1
  Zr  Zr5  1  0.39581878  0.75402221  0.44271622  1
  Si  Si0  1  0.64943292  0.89878032  0.75258935  1
  Si  Si1  1  0.34961592  0.10157533  0.25117969  1
  Si  Si2  1  0.14943292  0.39878032  0.75258935  1
  Si  Si3  1  0.84961592  0.60157533  0.25117969  1
  P  P0  1  0.99964974  0.95888696  0.74789147  1
  P  P1  1  0.00278658  0.04820833  0.25587330  1
  P  P2  1  0.49964974  0.45888696  0.74789147  1
  P  P3  1  0.50278658  0.54820833  0.25587330  1
  P  P4  1  0.35780080  0.89571492  0.76747880  1
  P  P5  1  0.64547101  0.10267100  0.23880497  1
  P  P6  1  0.85780080  0.39571492  0.76747880  1
  P  P7  1  0.14547101  0.60267100  0.23880497  1
  O  O0  1  0.15708638  0.57916156  0.74175407  1
  O  O1  1  0.85316084  0.56842933  0.75583714  1
  O  O2  1  0.84755744  0.41964443  0.25382404  1
  O  O3  1  0.15027154  0.43409892  0.24669391  1
  O  O4  1  0.65708638  0.07916156  0.74175407  1
  O  O5  1  0.35316084  0.06842933  0.75583714  1
  O  O6  1  0.34755744  0.91964443  0.25382404  1
  O  O7  1  0.65027154  0.93409892  0.24669391  1
  O  O8  1  0.43174351  0.54574336  0.57157713  1
  O  O9  1  0.56144780  0.56076259  0.90713456  1
  O  O10  1  0.56600272  0.45583204  0.42703002  1
  O  O11  1  0.44417188  0.43937742  0.09434593  1
  O  O12  1  0.93174351  0.04574336  0.57157713  1
  O  O13  1  0.06144780  0.06076259  0.90713456  1
  O  O14  1  0.06600272  0.95583204  0.42703002  1
  O  O15  1  0.94417188  0.93937742  0.09434593  1
  O  O16  1  0.25863126  0.84374542  0.74869502  1
  O  O17  1  0.74309335  0.81743614  0.75319082  1
  O  O18  1  0.74093203  0.16326525  0.24989896  1
  O  O19  1  0.25778630  0.18307006  0.24447921  1
  O  O20  1  0.75863126  0.34374542  0.74869502  1
  O  O21  1  0.24309335  0.31743614  0.75319082  1
  O  O22  1  0.24093203  0.66326525  0.24989896  1
  O  O23  1  0.75778630  0.68307006  0.24447921  1
  O  O24  1  0.35831938  0.84600264  0.60384584  1
  O  O25  1  0.64929191  0.86258804  0.92428382  1
  O  O26  1  0.64519199  0.16011784  0.39895467  1
  O  O27  1  0.35302508  0.14078070  0.07617939  1
  O  O28  1  0.85831938  0.34600264  0.60384584  1
  O  O29  1  0.14929191  0.36258804  0.92428382  1
  O  O30  1  0.14519199  0.66011784  0.39895467  1
  O  O31  1  0.85302508  0.64078070  0.07617939  1
  O  O32  1  0.45357378  0.84183644  0.93935872  1
  O  O33  1  0.54060100  0.83480995  0.57297223  1
  O  O34  1  0.54689048  0.15904290  0.06498914  1
  O  O35  1  0.46296639  0.15854323  0.42528655  1
  O  O36  1  0.95357378  0.34183644  0.93935872  1
  O  O37  1  0.04060100  0.33480995  0.57297223  1
  O  O38  1  0.04689048  0.65904290  0.06498914  1
  O  O39  1  0.96296639  0.65854323  0.42528655  1
  O  O40  1  0.08005108  0.86304410  0.73961676  1
  O  O41  1  0.92913172  0.84595852  0.75733245  1
  O  O42  1  0.91489724  0.13108181  0.25373790  1
  O  O43  1  0.07005543  0.15856991  0.24161227  1
  O  O44  1  0.58005108  0.36304410  0.73961676  1
  O  O45  1  0.42913172  0.34595852  0.75733245  1
  O  O46  1  0.41489724  0.63108181  0.25373790  1
  O  O47  1  0.57005543  0.65856991  0.24161227  1
loop_
_geom_bond_atom_site_label_1
_geom_bond_atom_site_label_2
_geom_bond_distance
_geom_bond_site_symmetry_2
Na0 O6 2.467827 1_556
Na0 O0 2.478199 1_555
Na0 O22 2.510901 1_556
Na0 O16 2.536482 1_555
Na0 O46 2.552357 1_556
Na0 O40 2.594332 1_555
Na1 O23 2.337301 1_555
Na1 O47 2.437196 1_555
Na1 O7 2.450558 1_555
Na1 O17 2.617585 1_555
Na1 O1 2.691028 1_555
Na1 O41 2.755807 1_555
Na2 O2 2.467827 1_556
Na2 O4 2.478199 1_555
Na2 O18 2.510901 1_556
Na2 O20 2.536482 1_555
Na2 O42 2.552357 1_556
Na2 O44 2.594332 1_555
Na3 O19 2.337301 1_555
Na3 O43 2.437196 1_555
Na3 O3 2.450558 1_555
Na3 O21 2.617585 1_555
Na3 O5 2.691028 1_555
Na3 O45 2.755807 1_555
Na4 O5 2.421738 1_555
Na4 O34 2.473356 1_556
Na4 O4 2.498075 1_555
Na4 O45 2.625020 1_555
Na4 O25 2.765114 1_545
Na4 O44 2.800491 1_555
Na4 O35 2.896048 1_555
Na5 O47 2.345487 1_555
Na5 O32 2.386266 1_554
Na5 O7 2.399154 1_555
Na5 O6 2.509624 1_555
Na5 O46 2.719447 1_555
Na5 O33 2.835342 1_555
Na5 O27 2.999115 1_565
Na6 O1 2.421738 1_455
Na6 O38 2.473356 1_556
Na6 O0 2.498075 1_555
Na6 O41 2.625020 1_455
Na6 O29 2.765114 1_555
Na6 O40 2.800491 1_555
Na6 O39 2.896048 1_455
Na7 O43 2.345487 1_655
Na7 O36 2.386266 1_554
Na7 O3 2.399154 1_655
Na7 O2 2.509624 1_555
Na7 O42 2.719447 1_555
Na7 O37 2.835342 1_655
Na7 O31 2.999115 1_555
Na8 O25 2.362057 1_554
Na8 O23 2.380331 1_555
Na8 O18 2.445357 1_565
Na8 O42 2.501545 1_565
Na8 O7 2.547163 1_555
Na9 O27 2.416696 1_556
Na9 O40 2.432275 1_545
Na9 O21 2.518604 1_555
Na9 O13 2.566064 1_555
Na9 O16 2.675692 1_545
Na10 O29 2.362057 1_554
Na10 O19 2.380331 1_555
Na10 O22 2.445357 1_555
Na10 O46 2.501545 1_555
Na10 O3 2.547163 1_555
Na11 O31 2.416696 1_556
Na11 O44 2.432275 1_555
Na11 O17 2.518604 1_555
Na11 O9 2.566064 1_555
Na11 O20 2.675692 1_555
Mg0 O13 2.026414 1_554
Mg0 O29 2.068565 1_554
Mg0 O19 2.105934 1_555
Mg0 O43 2.166703 1_555
Mg0 O36 2.169260 1_454
Mg0 O3 2.235147 1_555
Mg1 O9 2.026414 1_554
Mg1 O25 2.068565 1_554
Mg1 O23 2.105934 1_555
Mg1 O47 2.166703 1_555
Mg1 O32 2.169260 1_554
Mg1 O7 2.235147 1_555
O0 Si2 1.655834 1_555
O0 Zr0 2.082710 1_555
O1 P6 1.576935 1_555
O1 Zr1 2.189235 1_555
O2 Si3 1.658677 1_555
O2 Zr2 2.093860 1_555
O3 P7 1.538038 1_555
O4 Si0 1.655834 1_545
O4 Zr3 2.082710 1_555
O5 P4 1.576935 1_545
O5 Zr4 2.189235 1_555
O6 Si1 1.658677 1_565
O6 Zr5 2.093860 1_555
O7 P5 1.538038 1_565
O8 P2 1.559236 1_555
O8 Zr5 2.140700 1_555
O9 P2 1.518816 1_555
O10 P3 1.549063 1_555
O10 Zr3 2.142384 1_555
O11 P3 1.566579 1_555
O11 Zr4 2.050260 1_554
O12 P0 1.559236 1_545
O12 Zr2 2.140700 1_555
O13 P0 1.518816 1_445
O14 P1 1.549063 1_565
O14 Zr0 2.142384 1_555
O15 P1 1.566579 1_665
O15 Zr1 2.050260 1_554
O16 P4 1.555042 1_555
O16 Zr0 2.211923 1_555
O17 Si0 1.657675 1_555
O17 Zr1 2.069427 1_555
O18 P5 1.559285 1_555
O18 Zr2 2.208137 1_555
O19 Si1 1.604996 1_555
O20 P6 1.555042 1_555
O20 Zr3 2.211923 1_555
O21 Si2 1.657675 1_555
O21 Zr4 2.069427 1_555
O22 P7 1.559285 1_555
O22 Zr5 2.208137 1_555
O23 Si3 1.604996 1_555
O24 P4 1.569425 1_555
O24 Zr5 2.056031 1_555
O25 Si0 1.611872 1_555
O26 P5 1.558620 1_555
O26 Zr3 2.054557 1_555
O27 Si1 1.676858 1_555
O27 Zr4 2.048749 1_554
O28 P6 1.569425 1_555
O28 Zr2 2.056031 1_555
O29 Si2 1.611872 1_555
O30 P7 1.558620 1_555
O30 Zr0 2.054557 1_555
O31 Si3 1.676858 1_555
O31 Zr1 2.048749 1_554
O32 P4 1.520937 1_555
O33 Si0 1.667230 1_555
O33 Zr5 2.025931 1_555
O34 P5 1.555166 1_555
O34 Zr4 2.191182 1_554
O35 Si1 1.663913 1_555
O35 Zr3 2.018040 1_555
O36 P6 1.520937 1_555
O37 Si2 1.667230 1_555
O37 Zr2 2.025931 1_455
O38 P7 1.555166 1_555
O38 Zr1 2.191182 1_454
O39 Si3 1.663913 1_555
O39 Zr0 2.018040 1_655
O40 P0 1.582739 1_455
O40 Zr0 2.182207 1_555
O41 P0 1.558347 1_555
O41 Zr1 2.159993 1_555
O42 P1 1.576005 1_655
O42 Zr2 2.219224 1_555
O43 P1 1.525465 1_555
O44 P2 1.582739 1_555
O44 Zr3 2.182207 1_555
O45 P2 1.558347 1_555
O45 Zr4 2.159993 1_555
O46 P3 1.576005 1_555
O46 Zr5 2.219224 1_555
O47 P3 1.525465 1_555
