# generated using pymatgen
data_MgV4(PO5)4
_symmetry_space_group_name_H-M   'P 1'
_cell_length_a   5.19316994
_cell_length_b   10.38593274
_cell_length_c   7.39793289
_cell_angle_alpha   71.38007781
_cell_angle_beta   68.80978405
_cell_angle_gamma   77.99426934
_symmetry_Int_Tables_number   1
_chemical_formula_structural   MgV4(PO5)4
_chemical_formula_sum   'Mg1 V4 P4 O20'
_cell_volume   350.62049409
_cell_formula_units_Z   1
loop_
 _symmetry_equiv_pos_site_id
 _symmetry_equiv_pos_as_xyz
  1  'x, y, z'
loop_
 _atom_site_type_symbol
 _atom_site_label
 _atom_site_symmetry_multiplicity
 _atom_site_fract_x
 _atom_site_fract_y
 _atom_site_fract_z
 _atom_site_occupancy
  Mg  Mg0  1  0.50000000  0.25000000  0.25000000  1
  V  V0  1  0.07736000  0.50762600  0.98363600  1
  V  V1  1  0.00000000  0.75000000  0.25000000  1
  V  V2  1  0.50000000  0.24999900  0.75000000  1
  V  V3  1  0.92264100  0.99237400  0.51636400  1
  P  P0  1  0.58428400  0.02099500  0.19646500  1
  P  P1  1  0.41571700  0.47900600  0.30353500  1
  P  P2  1  0.28517500  0.96464700  0.80477000  1
  P  P3  1  0.71482600  0.53535400  0.69523000  1
  O  O0  1  0.28443900  0.06831300  0.33083200  1
  O  O1  1  0.23105000  0.41960900  0.22396800  1
  O  O2  1  0.01932300  0.84776000  0.41785000  1
  O  O3  1  0.23322600  0.87997600  0.02191000  1
  O  O4  1  0.34381100  0.62994000  0.28512600  1
  O  O5  1  0.25016400  0.11936000  0.77702900  1
  O  O6  1  0.38680300  0.37844300  0.51215800  1
  O  O7  1  0.22396100  0.34343600  0.92422700  1
  O  O8  1  0.76895100  0.08039100  0.27603200  1
  O  O9  1  0.08197600  0.92759100  0.72026500  1
  O  O10  1  0.71556200  0.43168600  0.16916900  1
  O  O11  1  0.41560000  0.58045700  0.82177900  1
  O  O12  1  0.77603800  0.15656400  0.57577400  1
  O  O13  1  0.61319600  0.12155700  0.98784300  1
  O  O14  1  0.91802400  0.57241000  0.77973500  1
  O  O15  1  0.65619000  0.87005900  0.21487400  1
  O  O16  1  0.76677400  0.62002500  0.47809000  1
  O  O17  1  0.98067800  0.65223900  0.08215000  1
  O  O18  1  0.58440100  0.91954200  0.67822000  1
  O  O19  1  0.74983700  0.38064000  0.72297100  1
loop_
_geom_bond_atom_site_label_1
_geom_bond_atom_site_label_2
_geom_bond_distance
_geom_bond_site_symmetry_2
Mg0 O1 2.011264 1_555
Mg0 O8 2.011267 1_555
Mg0 O10 2.201303 1_555
Mg0 O0 2.201307 1_555
Mg0 O13 2.527480 1_554
Mg0 O6 2.527485 1_555
O0 P0 1.590261 1_555
O0 V3 2.024104 1_445
O1 P1 1.591488 1_555
O1 V0 2.078048 1_554
O2 V3 1.777594 1_455
O2 V1 1.876289 1_555
O3 P2 1.519837 1_554
O3 V1 1.970958 1_555
O4 P1 1.507395 1_555
O4 V1 2.003139 1_555
O5 P2 1.533610 1_545
O5 V2 1.983888 1_555
O6 P1 1.537453 1_555
O6 V2 2.035621 1_555
O7 V0 1.837746 1_555
O7 V2 1.882092 1_555
O8 P0 1.591482 1_555
O8 V3 2.078048 1_545
O9 P2 1.565889 1_555
O9 V3 1.853485 1_455
O10 P1 1.590264 1_555
O10 V0 2.024110 1_654
O11 P3 1.560806 1_555
O11 V0 1.882874 1_555
O12 V3 1.837750 1_545
O12 V2 1.882074 1_555
O13 P0 1.537445 1_556
O13 V2 2.035618 1_555
O14 P3 1.565884 1_555
O14 V0 1.853488 1_655
O15 P0 1.507415 1_565
O15 V1 2.003131 1_655
O16 P3 1.519837 1_555
O16 V1 1.970952 1_655
O17 V0 1.777584 1_654
O17 V1 1.876295 1_655
O18 P2 1.560814 1_555
O18 V3 1.882876 1_555
O19 P3 1.533620 1_555
O19 V2 1.983908 1_555
