# generated using pymatgen
data_La4Mg(MoO6)2
_symmetry_space_group_name_H-M   'P 1'
_cell_length_a   5.64825642
_cell_length_b   5.93212612
_cell_length_c   8.02016812
_cell_angle_alpha   88.89142471
_cell_angle_beta   92.23505318
_cell_angle_gamma   89.13409609
_symmetry_Int_Tables_number   1
_chemical_formula_structural   La4Mg(MoO6)2
_chemical_formula_sum   'La4 Mg1 Mo2 O12'
_cell_volume   268.43655751
_cell_formula_units_Z   1
loop_
 _symmetry_equiv_pos_site_id
 _symmetry_equiv_pos_as_xyz
  1  'x, y, z'
loop_
 _atom_site_type_symbol
 _atom_site_label
 _atom_site_symmetry_multiplicity
 _atom_site_fract_x
 _atom_site_fract_y
 _atom_site_fract_z
 _atom_site_occupancy
  La  La0  1  0.50875100  0.07052000  0.73491400  1
  La  La1  1  0.95998200  0.56467000  0.74222000  1
  La  La2  1  0.49125700  0.92947900  0.26509100  1
  La  La3  1  0.04001500  0.43532300  0.25778000  1
  Mg  Mg0  1  0.99999900  0.00000500  0.99999700  1
  Mo  Mo0  1  0.49999600  0.50000100  0.99999500  1
  Mo  Mo1  1  0.99999700  0.00000300  0.50000000  1
  O  O0  1  0.89986900  0.03723500  0.24980700  1
  O  O1  1  0.83886000  0.27838400  0.54866500  1
  O  O2  1  0.78485100  0.29770800  0.93819100  1
  O  O3  1  0.70305300  0.83090100  0.54880800  1
  O  O4  1  0.69488700  0.78387600  0.93298300  1
  O  O5  1  0.62318600  0.53189200  0.22283500  1
  O  O6  1  0.10012700  0.96276600  0.75019100  1
  O  O7  1  0.16113800  0.72161300  0.45133700  1
  O  O8  1  0.21515100  0.70229600  0.06180800  1
  O  O9  1  0.37681700  0.46810200  0.77717200  1
  O  O10  1  0.30511200  0.21612400  0.06701800  1
  O  O11  1  0.29694700  0.16909800  0.45119000  1
loop_
_geom_bond_atom_site_label_1
_geom_bond_atom_site_label_2
_geom_bond_distance
_geom_bond_site_symmetry_2
La0 O3 2.369710 1_545
La0 O6 2.411254 1_545
La0 O9 2.496046 1_555
La0 O4 2.496272 1_545
La0 O11 2.581890 1_555
La0 O2 2.618486 1_555
La0 O1 2.728319 1_555
La1 O1 2.411693 1_555
La1 O9 2.418975 1_655
La1 O2 2.455412 1_555
La1 O6 2.503202 1_655
La1 O4 2.543713 1_555
La1 O3 2.582012 1_555
La1 O7 2.784765 1_655
La1 O8 3.023557 1_656
La2 O11 2.369695 1_565
La2 O0 2.411196 1_565
La2 O5 2.496063 1_555
La2 O10 2.496315 1_565
La2 O3 2.581822 1_555
La2 O8 2.618519 1_555
La2 O7 2.728351 1_555
La3 O7 2.411722 1_555
La3 O5 2.418940 1_455
La3 O8 2.455471 1_555
La3 O0 2.503159 1_455
La3 O10 2.543693 1_555
La3 O11 2.581991 1_555
La3 O1 2.784768 1_455
La3 O2 3.023532 1_454
Mg0 O6 2.117623 1_645
Mg0 O0 2.117651 1_556
Mg0 O2 2.166916 1_555
Mg0 O8 2.166965 1_646
Mg0 O10 2.218945 1_656
Mg0 O4 2.218963 1_545
Mo0 O9 1.906201 1_555
Mo0 O5 1.906342 1_556
Mo0 O8 2.073940 1_556
Mo0 O2 2.073957 1_555
Mo0 O4 2.098463 1_555
Mo0 O10 2.098474 1_556
Mo1 O1 1.927436 1_555
Mo1 O7 1.927488 1_645
Mo1 O3 2.014803 1_545
Mo1 O11 2.014814 1_655
Mo1 O6 2.070157 1_645
Mo1 O0 2.070167 1_555
