# generated using pymatgen
data_Hg(Mo3Cl7)2
_symmetry_space_group_name_H-M   'P 1'
_cell_length_a   12.92440559
_cell_length_b   12.92440559
_cell_length_c   12.92440559
_cell_angle_alpha   90.00000000
_cell_angle_beta   90.00000000
_cell_angle_gamma   90.00000000
_symmetry_Int_Tables_number   1
_chemical_formula_structural   Hg(Mo3Cl7)2
_chemical_formula_sum   'Hg4 Mo24 Cl56'
_cell_volume   2158.89606822
_cell_formula_units_Z   4
loop_
 _symmetry_equiv_pos_site_id
 _symmetry_equiv_pos_as_xyz
  1  'x, y, z'
loop_
 _atom_site_type_symbol
 _atom_site_label
 _atom_site_symmetry_multiplicity
 _atom_site_fract_x
 _atom_site_fract_y
 _atom_site_fract_z
 _atom_site_occupancy
  Hg  Hg0  1  0.75000000  0.75000000  0.75000000  1
  Hg  Hg1  1  0.25000000  0.25000000  0.75000000  1
  Hg  Hg2  1  0.75000000  0.25000000  0.25000000  1
  Hg  Hg3  1  0.25000000  0.75000000  0.25000000  1
  Mo  Mo0  1  0.38672830  0.22524329  0.28055277  1
  Mo  Mo1  1  0.28055277  0.38672830  0.22524329  1
  Mo  Mo2  1  0.22524329  0.28055277  0.38672830  1
  Mo  Mo3  1  0.77475671  0.71944723  0.38672830  1
  Mo  Mo4  1  0.28055277  0.61327170  0.77475671  1
  Mo  Mo5  1  0.77475671  0.28055277  0.61327170  1
  Mo  Mo6  1  0.71944723  0.61327170  0.22524329  1
  Mo  Mo7  1  0.71944723  0.38672830  0.77475671  1
  Mo  Mo8  1  0.22524329  0.71944723  0.61327170  1
  Mo  Mo9  1  0.38672830  0.77475671  0.71944723  1
  Mo  Mo10  1  0.61327170  0.22524329  0.71944723  1
  Mo  Mo11  1  0.61327170  0.77475671  0.28055277  1
  Mo  Mo12  1  0.11327170  0.27475671  0.21944723  1
  Mo  Mo13  1  0.21944723  0.11327170  0.27475671  1
  Mo  Mo14  1  0.27475671  0.21944723  0.11327170  1
  Mo  Mo15  1  0.72524329  0.78055277  0.11327170  1
  Mo  Mo16  1  0.21944723  0.88672830  0.72524329  1
  Mo  Mo17  1  0.72524329  0.21944723  0.88672830  1
  Mo  Mo18  1  0.78055277  0.88672830  0.27475671  1
  Mo  Mo19  1  0.78055277  0.11327170  0.72524329  1
  Mo  Mo20  1  0.27475671  0.78055277  0.88672830  1
  Mo  Mo21  1  0.11327170  0.72524329  0.78055277  1
  Mo  Mo22  1  0.88672830  0.27475671  0.78055277  1
  Mo  Mo23  1  0.88672830  0.72524329  0.21944723  1
  Cl  Cl0  1  0.38624267  0.38624267  0.38624267  1
  Cl  Cl1  1  0.61375733  0.61375733  0.38624267  1
  Cl  Cl2  1  0.38624267  0.61375733  0.61375733  1
  Cl  Cl3  1  0.61375733  0.38624267  0.61375733  1
  Cl  Cl4  1  0.11375733  0.11375733  0.11375733  1
  Cl  Cl5  1  0.88624267  0.88624267  0.11375733  1
  Cl  Cl6  1  0.11375733  0.88624267  0.88624267  1
  Cl  Cl7  1  0.88624267  0.11375733  0.88624267  1
  Cl  Cl8  1  0.37535224  0.06708277  0.17320568  1
  Cl  Cl9  1  0.17320568  0.37535224  0.06708277  1
  Cl  Cl10  1  0.06708277  0.17320568  0.37535224  1
  Cl  Cl11  1  0.93291723  0.82679432  0.37535224  1
  Cl  Cl12  1  0.17320568  0.62464776  0.93291723  1
  Cl  Cl13  1  0.93291723  0.17320568  0.62464776  1
  Cl  Cl14  1  0.82679432  0.62464776  0.06708277  1
  Cl  Cl15  1  0.82679432  0.37535224  0.93291723  1
  Cl  Cl16  1  0.06708277  0.82679432  0.62464776  1
  Cl  Cl17  1  0.37535224  0.93291723  0.82679432  1
  Cl  Cl18  1  0.62464776  0.06708277  0.82679432  1
  Cl  Cl19  1  0.62464776  0.93291723  0.17320568  1
  Cl  Cl20  1  0.12464776  0.43291723  0.32679432  1
  Cl  Cl21  1  0.32679432  0.12464776  0.43291723  1
  Cl  Cl22  1  0.43291723  0.32679432  0.12464776  1
  Cl  Cl23  1  0.56708277  0.67320568  0.12464776  1
  Cl  Cl24  1  0.32679432  0.87535224  0.56708277  1
  Cl  Cl25  1  0.56708277  0.32679432  0.87535224  1
  Cl  Cl26  1  0.67320568  0.87535224  0.43291723  1
  Cl  Cl27  1  0.67320568  0.12464776  0.56708277  1
  Cl  Cl28  1  0.43291723  0.67320568  0.87535224  1
  Cl  Cl29  1  0.12464776  0.56708277  0.67320568  1
  Cl  Cl30  1  0.87535224  0.43291723  0.67320568  1
  Cl  Cl31  1  0.87535224  0.56708277  0.32679432  1
  Cl  Cl32  1  0.56715884  0.18691606  0.32878662  1
  Cl  Cl33  1  0.32878662  0.56715884  0.18691606  1
  Cl  Cl34  1  0.18691606  0.32878662  0.56715884  1
  Cl  Cl35  1  0.81308394  0.67121338  0.56715884  1
  Cl  Cl36  1  0.32878662  0.43284116  0.81308394  1
  Cl  Cl37  1  0.81308394  0.32878662  0.43284116  1
  Cl  Cl38  1  0.67121338  0.43284116  0.18691606  1
  Cl  Cl39  1  0.67121338  0.56715884  0.81308394  1
  Cl  Cl40  1  0.18691606  0.67121338  0.43284116  1
  Cl  Cl41  1  0.56715884  0.81308394  0.67121338  1
  Cl  Cl42  1  0.43284116  0.18691606  0.67121338  1
  Cl  Cl43  1  0.43284116  0.81308394  0.32878662  1
  Cl  Cl44  1  0.93284116  0.31308394  0.17121338  1
  Cl  Cl45  1  0.17121338  0.93284116  0.31308394  1
  Cl  Cl46  1  0.31308394  0.17121338  0.93284116  1
  Cl  Cl47  1  0.68691606  0.82878662  0.93284116  1
  Cl  Cl48  1  0.17121338  0.06715884  0.68691606  1
  Cl  Cl49  1  0.68691606  0.17121338  0.06715884  1
  Cl  Cl50  1  0.82878662  0.06715884  0.31308394  1
  Cl  Cl51  1  0.82878662  0.93284116  0.68691606  1
  Cl  Cl52  1  0.31308394  0.82878662  0.06715884  1
  Cl  Cl53  1  0.93284116  0.68691606  0.82878662  1
  Cl  Cl54  1  0.06715884  0.31308394  0.82878662  1
  Cl  Cl55  1  0.06715884  0.68691606  0.17121338  1
loop_
_geom_bond_atom_site_label_1
_geom_bond_atom_site_label_2
_geom_bond_distance
_geom_bond_site_symmetry_2
Cl0 Mo0 2.489127 1_555
Cl0 Mo2 2.489127 1_555
Cl0 Mo1 2.489127 1_555
Cl1 Mo3 2.489127 1_555
Cl1 Mo11 2.489127 1_555
Cl1 Mo6 2.489127 1_555
Cl2 Mo8 2.489127 1_555
Cl2 Mo9 2.489127 1_555
Cl2 Mo4 2.489127 1_555
Cl3 Mo10 2.489127 1_555
Cl3 Mo5 2.489127 1_555
Cl3 Mo7 2.489127 1_555
Cl4 Mo12 2.489127 1_555
Cl4 Mo14 2.489127 1_555
Cl4 Mo13 2.489127 1_555
Cl5 Mo15 2.489127 1_555
Cl5 Mo23 2.489127 1_555
Cl5 Mo18 2.489127 1_555
Cl6 Mo16 2.489127 1_555
Cl6 Mo20 2.489127 1_555
Cl6 Mo21 2.489127 1_555
Cl7 Mo17 2.489127 1_555
Cl7 Mo22 2.489127 1_555
Cl7 Mo19 2.489127 1_555
Cl8 Mo0 2.474865 1_555
Cl8 Mo13 2.477727 1_555
Cl8 Mo14 2.483588 1_555
Cl9 Mo1 2.474865 1_555
Cl9 Mo14 2.477727 1_555
Cl9 Mo12 2.483588 1_555
Cl10 Mo2 2.474865 1_555
Cl10 Mo12 2.477727 1_555
Cl10 Mo13 2.483588 1_555
Cl11 Mo3 2.474865 1_555
Cl11 Mo23 2.477727 1_555
Cl11 Mo18 2.483588 1_555
Cl12 Mo4 2.474865 1_555
Cl12 Mo20 2.477727 1_555
Cl12 Mo21 2.483588 1_555
Cl13 Mo5 2.474865 1_555
Cl13 Mo22 2.477727 1_555
Cl13 Mo19 2.483588 1_555
Cl14 Mo6 2.474865 1_555
Cl14 Mo15 2.477727 1_555
Cl14 Mo23 2.483588 1_555
Cl15 Mo7 2.474865 1_555
Cl15 Mo17 2.477727 1_555
Cl15 Mo22 2.483588 1_555
Cl16 Mo8 2.474865 1_555
Cl16 Mo21 2.477727 1_555
Cl16 Mo16 2.483588 1_555
Cl17 Mo9 2.474865 1_555
Cl17 Mo16 2.477727 1_555
Cl17 Mo20 2.483588 1_555
Cl18 Mo10 2.474865 1_555
Cl18 Mo19 2.477727 1_555
Cl18 Mo17 2.483588 1_555
Cl19 Mo11 2.474865 1_555
Cl19 Mo18 2.477727 1_555
Cl19 Mo15 2.483588 1_555
Cl20 Mo12 2.474865 1_555
Cl20 Mo1 2.477727 1_555
Cl20 Mo2 2.483588 1_555
Cl21 Mo13 2.474865 1_555
Cl21 Mo2 2.477727 1_555
Cl21 Mo0 2.483588 1_555
Cl22 Mo14 2.474865 1_555
Cl22 Mo0 2.477727 1_555
Cl22 Mo1 2.483588 1_555
Cl23 Mo15 2.474865 1_555
Cl23 Mo11 2.477727 1_555
Cl23 Mo6 2.483588 1_555
Cl24 Mo16 2.474865 1_555
Cl24 Mo8 2.477727 1_555
Cl24 Mo9 2.483588 1_555
Cl25 Mo17 2.474865 1_555
Cl25 Mo10 2.477727 1_555
Cl25 Mo7 2.483588 1_555
Cl26 Mo18 2.474865 1_555
Cl26 Mo3 2.477727 1_555
Cl26 Mo11 2.483588 1_555
Cl27 Mo19 2.474865 1_555
Cl27 Mo5 2.477727 1_555
Cl27 Mo10 2.483588 1_555
Cl28 Mo20 2.474865 1_555
Cl28 Mo9 2.477727 1_555
Cl28 Mo4 2.483588 1_555
Cl29 Mo21 2.474865 1_555
Cl29 Mo4 2.477727 1_555
Cl29 Mo8 2.483588 1_555
Cl30 Mo22 2.474865 1_555
Cl30 Mo7 2.477727 1_555
Cl30 Mo5 2.483588 1_555
Cl31 Mo23 2.474865 1_555
Cl31 Mo6 2.477727 1_555
Cl31 Mo3 2.483588 1_555
Cl32 Mo0 2.464148 1_555
Cl32 Hg2 2.699246 1_555
Cl33 Mo1 2.464148 1_555
Cl33 Hg3 2.699246 1_555
Cl34 Mo2 2.464148 1_555
Cl34 Hg1 2.699246 1_555
Cl35 Mo3 2.464148 1_555
Cl35 Hg0 2.699246 1_555
Cl36 Mo4 2.464148 1_555
Cl36 Hg1 2.699246 1_555
Cl37 Mo5 2.464148 1_555
Cl37 Hg2 2.699246 1_555
Cl38 Mo6 2.464148 1_555
Cl38 Hg2 2.699246 1_555
Cl39 Mo7 2.464148 1_555
Cl39 Hg0 2.699246 1_555
Cl40 Mo8 2.464148 1_555
Cl40 Hg3 2.699246 1_555
Cl41 Mo9 2.464148 1_555
Cl41 Hg0 2.699246 1_555
Cl42 Mo10 2.464148 1_555
Cl42 Hg1 2.699246 1_555
Cl43 Mo11 2.464148 1_555
Cl43 Hg3 2.699246 1_555
Cl44 Mo12 2.464148 1_655
Cl44 Hg2 2.699246 1_555
Cl45 Mo13 2.464148 1_565
Cl45 Hg3 2.699246 1_555
Cl46 Mo14 2.464148 1_556
Cl46 Hg1 2.699246 1_555
Cl47 Mo15 2.464148 1_556
Cl47 Hg0 2.699246 1_555
Cl48 Mo16 2.464148 1_545
Cl48 Hg1 2.699246 1_555
Cl49 Mo17 2.464148 1_554
Cl49 Hg2 2.699246 1_555
Cl50 Mo18 2.464148 1_545
Cl50 Hg2 2.699246 1_555
Cl51 Mo19 2.464148 1_565
Cl51 Hg0 2.699246 1_555
Cl52 Mo20 2.464148 1_554
Cl52 Hg3 2.699246 1_555
Cl53 Mo21 2.464148 1_655
Cl53 Hg0 2.699246 1_555
Cl54 Mo22 2.464148 1_455
Cl54 Hg1 2.699246 1_555
Cl55 Mo23 2.464148 1_455
Cl55 Hg3 2.699246 1_555
