# generated using pymatgen
data_MgTi3CuO8
_symmetry_space_group_name_H-M   'P 1'
_cell_length_a   3.78774400
_cell_length_b   3.90943200
_cell_length_c   10.04691600
_cell_angle_alpha   90.00000000
_cell_angle_beta   90.00000000
_cell_angle_gamma   90.00000000
_symmetry_Int_Tables_number   1
_chemical_formula_structural   MgTi3CuO8
_chemical_formula_sum   'Mg1 Ti3 Cu1 O8'
_cell_volume   148.77400475
_cell_formula_units_Z   1
loop_
 _symmetry_equiv_pos_site_id
 _symmetry_equiv_pos_as_xyz
  1  'x, y, z'
loop_
 _atom_site_type_symbol
 _atom_site_label
 _atom_site_symmetry_multiplicity
 _atom_site_fract_x
 _atom_site_fract_y
 _atom_site_fract_z
 _atom_site_occupancy
  Mg  Mg0  1  0.00000000  0.00000000  0.45886100  1
  Ti  Ti0  1  0.00000000  0.00000000  0.00132400  1
  Ti  Ti1  1  0.00000000  0.50000000  0.22613500  1
  Ti  Ti2  1  0.50000000  0.00000000  0.76303500  1
  Cu  Cu0  1  0.50000000  0.49999900  0.53258100  1
  O  O0  1  0.00000000  0.00000000  0.20009400  1
  O  O1  1  0.50000000  0.50000000  0.72968000  1
  O  O2  1  0.00000000  0.50000000  0.43585900  1
  O  O3  1  0.50000000  0.00000000  0.95859700  1
  O  O4  1  0.50000000  0.00000000  0.54803600  1
  O  O5  1  0.00000000  0.50000000  0.03021400  1
  O  O6  1  0.50000000  0.50000000  0.25437100  1
  O  O7  1  0.00000000  0.00000000  0.79871200  1
loop_
_geom_bond_atom_site_label_1
_geom_bond_atom_site_label_2
_geom_bond_distance
_geom_bond_site_symmetry_2
Mg0 O2 1.968330 1_545
Mg0 O2 1.968330 1_555
Mg0 O4 2.095101 1_455
Mg0 O4 2.095101 1_555
Mg0 O0 2.599810 1_555
Cu0 O4 1.960870 1_555
Cu0 O4 1.960877 1_565
Cu0 O1 1.980237 1_555
Cu0 O2 2.128630 1_655
Cu0 O2 2.128630 1_555
O0 Ti1 1.972148 1_555
O0 Ti1 1.972148 1_545
O0 Ti0 1.997025 1_555
O1 Ti2 1.983234 1_555
O1 Ti2 1.983234 1_565
O2 Ti1 2.107079 1_555
O3 Ti0 1.941913 1_656
O3 Ti0 1.941913 1_556
O3 Ti2 1.964795 1_555
O4 Ti2 2.160077 1_555
O5 Ti1 1.968402 1_555
O5 Ti0 1.976148 1_555
O5 Ti0 1.976148 1_565
O6 Ti1 1.915001 1_655
O6 Ti1 1.915001 1_555
O7 Ti2 1.927494 1_455
O7 Ti2 1.927494 1_555
O7 Ti0 2.035626 1_556
