# generated using pymatgen
data_MgCo4(AgO2)4
_symmetry_space_group_name_H-M   'P 1'
_cell_length_a   3.05723591
_cell_length_b   3.05723591
_cell_length_c   26.71768369
_cell_angle_alpha   89.83194119
_cell_angle_beta   90.16805881
_cell_angle_gamma   119.39796816
_symmetry_Int_Tables_number   1
_chemical_formula_structural   MgCo4(AgO2)4
_chemical_formula_sum   'Mg1 Co4 Ag4 O8'
_cell_volume   217.56429817
_cell_formula_units_Z   1
loop_
 _symmetry_equiv_pos_site_id
 _symmetry_equiv_pos_as_xyz
  1  'x, y, z'
loop_
 _atom_site_type_symbol
 _atom_site_label
 _atom_site_symmetry_multiplicity
 _atom_site_fract_x
 _atom_site_fract_y
 _atom_site_fract_z
 _atom_site_occupancy
  Mg  Mg0  1  0.33172943  0.66827057  0.93433845  1
  Co  Co0  1  0.33335447  0.66664553  0.14833610  1
  Co  Co1  1  0.67203932  0.32796068  0.84016913  1
  Co  Co2  1  0.66686150  0.33313850  0.61425971  1
  Co  Co3  1  0.33265556  0.66734444  0.38217183  1
  Ag  Ag0  1  0.99846309  0.00153691  0.02751950  1
  Ag  Ag1  1  0.00468933  0.99531067  0.49841300  1
  Ag  Ag2  1  0.65695754  0.34304246  0.26540156  1
  Ag  Ag3  1  0.33505111  0.66494889  0.73015214  1
  O  O0  1  0.00732448  0.99267552  0.11099394  1
  O  O1  1  0.99572911  0.00427089  0.90179480  1
  O  O2  1  0.99942841  0.00057159  0.57685972  1
  O  O3  1  0.00531123  0.99468877  0.41990322  1
  O  O4  1  0.66299826  0.33700174  0.18657925  1
  O  O5  1  0.33682960  0.66317040  0.80960843  1
  O  O6  1  0.33454216  0.66545784  0.65172964  1
  O  O7  1  0.65936839  0.34063161  0.34447759  1
loop_
_geom_bond_atom_site_label_1
_geom_bond_atom_site_label_2
_geom_bond_distance
_geom_bond_site_symmetry_2
Mg0 O1 1.972316 1_565
Mg0 O1 1.972316 1_455
Mg0 O1 1.972788 1_465
Co0 O0 1.986487 1_555
Co0 O4 2.015035 1_555
Co0 O0 2.055343 1_545
Co0 O0 2.055343 1_655
Co0 O4 2.058734 1_455
Co0 O4 2.058734 1_565
Co1 O5 1.946391 1_555
Co1 O5 1.951323 1_655
Co1 O5 1.951323 1_545
Co1 O1 2.368935 1_555
Co1 O1 2.442748 1_565
Co1 O1 2.442748 1_455
Co2 O6 2.022857 1_555
Co2 O2 2.023063 1_555
Co2 O2 2.037915 1_455
Co2 O2 2.037915 1_565
Co2 O6 2.039394 1_655
Co2 O6 2.039394 1_545
Co3 O7 2.000220 1_555
Co3 O3 2.003603 1_555
Co3 O3 2.054295 1_545
Co3 O3 2.054295 1_655
Co3 O7 2.055286 1_565
Co3 O7 2.055286 1_455
Ag0 O0 2.230575 1_645
Ag1 O2 2.096193 1_465
Ag1 O3 2.097613 1_555
Ag2 O4 2.106299 1_555
Ag2 O7 2.112723 1_555
Ag3 O6 2.095260 1_555
Ag3 O5 2.122877 1_555
