# generated using pymatgen
data_Na5Al3H14
_symmetry_space_group_name_H-M   'P 1'
_cell_length_a   6.67364466
_cell_length_b   6.67364466
_cell_length_c   10.20552098
_cell_angle_alpha   90.00000000
_cell_angle_beta   90.00000000
_cell_angle_gamma   90.00000000
_symmetry_Int_Tables_number   1
_chemical_formula_structural   Na5Al3H14
_chemical_formula_sum   'Na10 Al6 H28'
_cell_volume   454.52872792
_cell_formula_units_Z   2
loop_
 _symmetry_equiv_pos_site_id
 _symmetry_equiv_pos_as_xyz
  1  'x, y, z'
loop_
 _atom_site_type_symbol
 _atom_site_label
 _atom_site_symmetry_multiplicity
 _atom_site_fract_x
 _atom_site_fract_y
 _atom_site_fract_z
 _atom_site_occupancy
  Na  Na0  1  -0.00000000  -0.00000000  0.50000000  1
  Na  Na1  1  0.50000000  0.50000000  0.00000000  1
  Na  Na2  1  0.28734710  0.78734710  0.25000000  1
  Na  Na3  1  0.21265290  0.28734710  0.25000000  1
  Na  Na4  1  0.78734710  0.71265290  0.25000000  1
  Na  Na5  1  0.71265290  0.21265290  0.25000000  1
  Na  Na6  1  0.28734710  0.78734710  0.75000000  1
  Na  Na7  1  0.21265290  0.28734710  0.75000000  1
  Na  Na8  1  0.78734710  0.71265290  0.75000000  1
  Na  Na9  1  0.71265290  0.21265290  0.75000000  1
  Al  Al0  1  -0.00000000  -0.00000000  0.00000000  1
  Al  Al1  1  0.50000000  0.50000000  0.50000000  1
  Al  Al2  1  -0.00000000  0.50000000  0.00000000  1
  Al  Al3  1  0.50000000  -0.00000000  0.00000000  1
  Al  Al4  1  0.50000000  -0.00000000  0.50000000  1
  Al  Al5  1  -0.00000000  0.50000000  0.50000000  1
  H  H0  1  0.54379796  0.82005069  0.11751370  1
  H  H1  1  0.45620204  0.17994931  0.11751370  1
  H  H2  1  0.32005069  0.04379796  0.38248630  1
  H  H3  1  0.82005069  0.45620204  0.11751370  1
  H  H4  1  0.17994931  0.54379796  0.11751370  1
  H  H5  1  0.95620204  0.32005069  0.38248630  1
  H  H6  1  0.04379796  0.67994931  0.38248630  1
  H  H7  1  0.67994931  0.95620204  0.38248630  1
  H  H8  1  0.45620204  0.17994931  0.88248630  1
  H  H9  1  0.54379796  0.82005069  0.88248630  1
  H  H10  1  0.67994931  0.95620204  0.61751370  1
  H  H11  1  0.17994931  0.54379796  0.88248630  1
  H  H12  1  0.82005069  0.45620204  0.88248630  1
  H  H13  1  0.04379796  0.67994931  0.61751370  1
  H  H14  1  0.95620204  0.32005069  0.61751370  1
  H  H15  1  0.32005069  0.04379796  0.61751370  1
  H  H16  1  -0.00000000  -0.00000000  0.17050483  1
  H  H17  1  0.50000000  0.50000000  0.32949517  1
  H  H18  1  -0.00000000  -0.00000000  0.82949517  1
  H  H19  1  0.50000000  0.50000000  0.67050483  1
  H  H20  1  0.75237337  0.07512173  0.00000000  1
  H  H21  1  0.92487827  0.75237337  0.00000000  1
  H  H22  1  0.07512173  0.24762663  0.00000000  1
  H  H23  1  0.25237337  0.42487827  0.50000000  1
  H  H24  1  0.74762663  0.57512173  0.50000000  1
  H  H25  1  0.24762663  0.92487827  0.00000000  1
  H  H26  1  0.57512173  0.25237337  0.50000000  1
  H  H27  1  0.42487827  0.74762663  0.50000000  1
loop_
_geom_bond_atom_site_label_1
_geom_bond_atom_site_label_2
_geom_bond_distance
_geom_bond_site_symmetry_2
Al0 H22 1.726943 1_555
Al0 H20 1.726943 1_455
Al0 H21 1.726943 1_445
Al0 H25 1.726943 1_545
Al0 H16 1.740091 1_555
Al0 H18 1.740091 1_554
Al1 H27 1.726943 1_555
Al1 H24 1.726943 1_555
Al1 H26 1.726943 1_555
Al1 H23 1.726943 1_555
Al1 H17 1.740091 1_555
Al1 H19 1.740091 1_555
Al2 H4 1.722188 1_555
Al2 H3 1.722188 1_455
Al2 H12 1.722188 1_454
Al2 H11 1.722188 1_554
Al2 H21 1.757281 1_455
Al2 H22 1.757281 1_555
Al3 H1 1.722188 1_555
Al3 H0 1.722188 1_545
Al3 H9 1.722188 1_544
Al3 H8 1.722188 1_554
Al3 H20 1.757281 1_555
Al3 H25 1.757281 1_545
Al4 H2 1.722188 1_555
Al4 H7 1.722188 1_545
Al4 H15 1.722188 1_555
Al4 H10 1.722188 1_545
Al4 H26 1.757281 1_555
Al4 H27 1.757281 1_545
Al5 H5 1.722188 1_455
Al5 H6 1.722188 1_555
Al5 H14 1.722188 1_455
Al5 H13 1.722188 1_555
Al5 H23 1.757281 1_555
Al5 H24 1.757281 1_455
H0 Na2 2.192005 1_555
H0 Na4 2.232411 1_555
H0 Na1 2.466945 1_555
H1 Na5 2.192005 1_555
H1 Na3 2.232411 1_555
H1 Na1 2.466945 1_555
H2 Na2 2.192005 1_545
H2 Na3 2.232411 1_555
H2 Na0 2.466945 1_555
H3 Na4 2.192005 1_555
H3 Na5 2.232411 1_555
H3 Na1 2.466945 1_555
H4 Na3 2.192005 1_555
H4 Na2 2.232411 1_555
H4 Na1 2.466945 1_555
H5 Na3 2.192005 1_655
H5 Na5 2.232411 1_555
H5 Na0 2.466945 1_655
H6 Na4 2.192005 1_455
H6 Na2 2.232411 1_555
H6 Na0 2.466945 1_565
H7 Na5 2.192005 1_565
H7 Na4 2.232411 1_555
H7 Na0 2.466945 1_665
H8 Na9 2.192005 1_555
H8 Na7 2.232411 1_555
H8 Na1 2.466945 1_556
H9 Na6 2.192005 1_555
H9 Na8 2.232411 1_555
H9 Na1 2.466945 1_556
H10 Na9 2.192005 1_565
H10 Na8 2.232411 1_555
H10 Na0 2.466945 1_665
H11 Na7 2.192005 1_555
H11 Na6 2.232411 1_555
H11 Na1 2.466945 1_556
H12 Na8 2.192005 1_555
H12 Na9 2.232411 1_555
H12 Na1 2.466945 1_556
H13 Na8 2.192005 1_455
H13 Na6 2.232411 1_555
H13 Na0 2.466945 1_565
H14 Na7 2.192005 1_655
H14 Na9 2.232411 1_555
H14 Na0 2.466945 1_655
H15 Na6 2.192005 1_545
H15 Na7 2.232411 1_555
H15 Na0 2.466945 1_555
H16 Na5 2.519846 1_455
H16 Na4 2.519846 1_445
H16 Na3 2.519846 1_555
H16 Na2 2.519846 1_545
H17 Na5 2.519846 1_555
H17 Na2 2.519846 1_555
H17 Na3 2.519846 1_555
H17 Na4 2.519846 1_555
H18 Na9 2.519846 1_455
H18 Na8 2.519846 1_445
H18 Na7 2.519846 1_555
H18 Na6 2.519846 1_545
H19 Na8 2.519846 1_555
H19 Na6 2.519846 1_555
H19 Na9 2.519846 1_555
H19 Na7 2.519846 1_555
