# generated using pymatgen
data_MgSc2Ti2O7
_symmetry_space_group_name_H-M   'P 1'
_cell_length_a   5.55607403
_cell_length_b   5.55607403
_cell_length_c   5.53582843
_cell_angle_alpha   86.08899901
_cell_angle_beta   93.91100099
_cell_angle_gamma   67.66971457
_symmetry_Int_Tables_number   1
_chemical_formula_structural   MgSc2Ti2O7
_chemical_formula_sum   'Mg1 Sc2 Ti2 O7'
_cell_volume   156.88502710
_cell_formula_units_Z   1
loop_
 _symmetry_equiv_pos_site_id
 _symmetry_equiv_pos_as_xyz
  1  'x, y, z'
loop_
 _atom_site_type_symbol
 _atom_site_label
 _atom_site_symmetry_multiplicity
 _atom_site_fract_x
 _atom_site_fract_y
 _atom_site_fract_z
 _atom_site_occupancy
  Mg  Mg0  1  0.07804500  0.92195500  0.89297800  1
  Sc  Sc0  1  0.69115400  0.66592800  0.00678900  1
  Sc  Sc1  1  0.33407200  0.30884600  0.00678900  1
  Ti  Ti0  1  0.27138400  0.72861600  0.40275900  1
  Ti  Ti1  1  0.71021100  0.28978900  0.59540600  1
  O  O0  1  0.05275900  0.64415500  0.15547800  1
  O  O1  1  0.35584500  0.94724100  0.15547800  1
  O  O2  1  0.40268900  0.59731100  0.76114800  1
  O  O3  1  0.00166300  0.99833700  0.52134200  1
  O  O4  1  0.58140800  0.41859200  0.25280200  1
  O  O5  1  0.64555400  0.04145100  0.83076500  1
  O  O6  1  0.95854900  0.35444600  0.83076500  1
loop_
_geom_bond_atom_site_label_1
_geom_bond_atom_site_label_2
_geom_bond_distance
_geom_bond_site_symmetry_2
Mg0 O3 2.053699 1_555
Mg0 O0 2.097709 1_556
Mg0 O1 2.097709 1_556
Mg0 O2 2.219555 1_555
Mg0 O5 2.230961 1_465
Mg0 O6 2.230961 1_465
O0 Ti0 1.965594 1_555
O0 Sc0 2.074799 1_455
O0 Sc1 2.182485 1_555
O1 Ti0 1.965594 1_555
O1 Sc1 2.074799 1_565
O1 Sc0 2.182485 1_555
O2 Ti0 2.049710 1_555
O2 Sc0 2.191108 1_556
O2 Sc1 2.191108 1_556
O2 Ti1 2.211308 1_555
O3 Ti0 1.866637 1_555
O3 Ti1 1.897654 1_465
O4 Ti1 1.965168 1_555
O4 Sc0 2.147028 1_555
O4 Sc1 2.147028 1_555
O4 Ti0 2.181452 1_555
O5 Ti1 1.981337 1_555
O5 Sc1 2.150705 1_556
O5 Sc0 2.157363 1_546
O6 Ti1 1.981337 1_555
O6 Sc0 2.150705 1_556
O6 Sc1 2.157363 1_656
