# generated using pymatgen
data_SIO3F
_symmetry_space_group_name_H-M   'P 1'
_cell_length_a   5.72044900
_cell_length_b   12.50680100
_cell_length_c   13.71273400
_cell_angle_alpha   90.00000000
_cell_angle_beta   90.00000000
_cell_angle_gamma   90.00000000
_symmetry_Int_Tables_number   1
_chemical_formula_structural   SIO3F
_chemical_formula_sum   'S8 I8 O24 F8'
_cell_volume   981.07093453
_cell_formula_units_Z   8
loop_
 _symmetry_equiv_pos_site_id
 _symmetry_equiv_pos_as_xyz
  1  'x, y, z'
loop_
 _atom_site_type_symbol
 _atom_site_label
 _atom_site_symmetry_multiplicity
 _atom_site_fract_x
 _atom_site_fract_y
 _atom_site_fract_z
 _atom_site_occupancy
  S  S0  1  0.84085100  0.89982600  0.99092600  1
  S  S1  1  0.34085100  0.60017400  0.00907400  1
  S  S2  1  0.15914900  0.39982600  0.50907400  1
  S  S3  1  0.65914900  0.10017400  0.49092600  1
  S  S4  1  0.54083600  0.67755900  0.66907500  1
  S  S5  1  0.04083600  0.82244100  0.33092500  1
  S  S6  1  0.45916400  0.17755900  0.83092500  1
  S  S7  1  0.95916400  0.32244100  0.16907500  1
  I  I0  1  0.04460700  0.95168400  0.65774000  1
  I  I1  1  0.54460700  0.54831600  0.34226000  1
  I  I2  1  0.95539300  0.45168400  0.84226000  1
  I  I3  1  0.45539300  0.04831600  0.15774000  1
  I  I4  1  0.19786700  0.82410200  0.80309600  1
  I  I5  1  0.69786700  0.67589800  0.19690400  1
  I  I6  1  0.80213300  0.32410200  0.69690400  1
  I  I7  1  0.30213300  0.17589800  0.30309600  1
  O  O0  1  0.09531000  0.40927100  0.20593200  1
  O  O1  1  0.09906000  0.57583100  0.98416700  1
  O  O2  1  0.40094000  0.42416900  0.48416700  1
  O  O3  1  0.90094000  0.07583100  0.51583300  1
  O  O4  1  0.40469000  0.59072900  0.70593200  1
  O  O5  1  0.90469000  0.90927100  0.29406800  1
  O  O6  1  0.59531000  0.09072900  0.79406800  1
  O  O7  1  0.59906000  0.92416900  0.01583300  1
  O  O8  1  0.97037700  0.83056400  0.05490700  1
  O  O9  1  0.47037700  0.66943600  0.94509300  1
  O  O10  1  0.02962300  0.33056400  0.44509300  1
  O  O11  1  0.52962300  0.16943600  0.55490700  1
  O  O12  1  0.85686900  0.87223500  0.88503400  1
  O  O13  1  0.35686900  0.62776500  0.11496600  1
  O  O14  1  0.14313100  0.37223500  0.61496600  1
  O  O15  1  0.64313100  0.12776500  0.38503400  1
  O  O16  1  0.71643300  0.33345300  0.14690700  1
  O  O17  1  0.21643300  0.16654700  0.85309300  1
  O  O18  1  0.28356700  0.83345300  0.35309300  1
  O  O19  1  0.78356700  0.66654700  0.64690700  1
  O  O20  1  0.98669500  0.21762600  0.22979100  1
  O  O21  1  0.48669500  0.28237400  0.77020900  1
  O  O22  1  0.01330500  0.71762600  0.27020900  1
  O  O23  1  0.51330500  0.78237400  0.72979100  1
  F  F0  1  0.97186000  0.01257500  0.99615600  1
  F  F1  1  0.58401400  0.21371300  0.92993700  1
  F  F2  1  0.91598600  0.78628700  0.42993700  1
  F  F3  1  0.41598600  0.71371300  0.57006300  1
  F  F4  1  0.52814000  0.98742500  0.49615600  1
  F  F5  1  0.02814000  0.51257500  0.50384400  1
  F  F6  1  0.47186000  0.48742500  0.00384400  1
  F  F7  1  0.08401400  0.28628700  0.07006300  1
loop_
_geom_bond_atom_site_label_1
_geom_bond_atom_site_label_2
_geom_bond_distance
_geom_bond_site_symmetry_2
I0 O3 2.621621 1_465
I1 O2 2.621621 1_555
I2 O1 2.621621 1_655
I3 O7 2.621621 1_545
I4 O23 2.130456 1_555
I4 O12 2.330222 1_455
I5 O22 2.130456 1_655
I5 O13 2.330222 1_555
I6 O21 2.130456 1_555
I6 O14 2.330222 1_655
I7 O20 2.130456 1_455
I7 O15 2.330222 1_555
O0 S7 1.428746 1_455
O1 S1 1.456865 1_556
O2 S2 1.456865 1_555
O3 S3 1.456865 1_555
O4 S4 1.428746 1_555
O5 S5 1.428746 1_655
O6 S6 1.428746 1_555
O7 S0 1.456865 1_554
O8 S0 1.438449 1_554
O9 S1 1.438449 1_556
O10 S2 1.438449 1_555
O11 S3 1.438449 1_555
O12 S0 1.495318 1_555
O13 S1 1.495318 1_555
O14 S2 1.495318 1_555
O15 S3 1.495318 1_555
O16 S7 1.428072 1_555
O17 S6 1.428072 1_555
O18 S5 1.428072 1_555
O19 S4 1.428072 1_555
O20 S7 1.560915 1_555
O21 S6 1.560915 1_555
O22 S5 1.560915 1_555
O23 S4 1.560915 1_555
F0 S0 1.598516 1_545
F1 S6 1.599361 1_555
F2 S5 1.599361 1_655
F3 S4 1.599361 1_555
F4 S3 1.598516 1_565
F5 S2 1.598516 1_555
F6 S1 1.598516 1_555
F7 S7 1.599361 1_455
