# generated using pymatgen
data_Na10Sc4Ta4Si9(SO16)3
_symmetry_space_group_name_H-M   'P 1'
_cell_length_a   18.14085494
_cell_length_b   9.05258002
_cell_length_c   22.69843618
_cell_angle_alpha   90.02062856
_cell_angle_beta   89.52238762
_cell_angle_gamma   119.86083872
_symmetry_Int_Tables_number   1
_chemical_formula_structural   Na10Sc4Ta4Si9(SO16)3
_chemical_formula_sum   'Na30 Sc12 Ta12 Si27 S9 O144'
_cell_volume   3232.54627954
_cell_formula_units_Z   3
loop_
 _symmetry_equiv_pos_site_id
 _symmetry_equiv_pos_as_xyz
  1  'x, y, z'
loop_
 _atom_site_type_symbol
 _atom_site_label
 _atom_site_symmetry_multiplicity
 _atom_site_fract_x
 _atom_site_fract_y
 _atom_site_fract_z
 _atom_site_occupancy
  Na  Na0  1  0.18556636  0.36347162  0.24430040  1
  Na  Na1  1  0.68545002  0.36391755  0.24393181  1
  Na  Na2  1  0.18605199  0.00817952  0.74369367  1
  Na  Na3  1  0.68423290  0.00495540  0.74408511  1
  Na  Na4  1  0.65231083  0.34349140  0.58033269  1
  Na  Na5  1  0.02118019  0.70237758  0.57698389  1
  Na  Na6  1  0.51839439  0.68854564  0.58087657  1
  Na  Na7  1  0.32567110  0.96984662  0.58539409  1
  Na  Na8  1  0.15331236  0.96295403  0.08042931  1
  Na  Na9  1  0.65323570  0.96273628  0.08029983  1
  Na  Na10  1  0.32651640  0.68591907  0.08400454  1
  Na  Na11  1  0.82660094  0.68630096  0.08395721  1
  Na  Na12  1  0.01989772  0.34895816  0.08094067  1
  Na  Na13  1  0.51982344  0.34912279  0.08086390  1
  Na  Na14  1  0.48936959  0.67577737  0.91388201  1
  Na  Na15  1  0.98938014  0.67596960  0.91453437  1
  Na  Na16  1  0.35200299  0.66616839  0.41100363  1
  Na  Na17  1  0.85222480  0.67353654  0.41033665  1
  Na  Na18  1  0.01318953  0.01926442  0.49380069  1
  Na  Na19  1  0.51147802  0.01042033  0.49275351  1
  Na  Na20  1  0.00824662  0.02147771  0.99203934  1
  Na  Na21  1  0.50836161  0.02172613  0.99184625  1
  Na  Na22  1  0.34130313  0.33166050  0.82783166  1
  Na  Na23  1  0.84086898  0.33032663  0.82932785  1
  Na  Na24  1  0.34438970  0.34006511  0.32934648  1
  Na  Na25  1  0.84547314  0.33890129  0.32683388  1
  Na  Na26  1  0.16737893  0.67300026  0.16249305  1
  Na  Na27  1  0.66743759  0.67287956  0.16215765  1
  Na  Na28  1  0.17364781  0.66071776  0.66337798  1
  Na  Na29  1  0.67265130  0.67291784  0.65986235  1
  Sc  Sc0  1  0.00082497  0.00117504  0.35344187  1
  Sc  Sc1  1  0.49995041  0.99908964  0.35310882  1
  Sc  Sc2  1  0.99732640  0.00620972  0.85280336  1
  Sc  Sc3  1  0.49765565  0.00596928  0.85258648  1
  Sc  Sc4  1  0.33917657  0.33860286  0.68551153  1
  Sc  Sc5  1  0.83452078  0.33381753  0.68725784  1
  Sc  Sc6  1  0.33966594  0.34199602  0.18605147  1
  Sc  Sc7  1  0.83967616  0.34208036  0.18576786  1
  Sc  Sc8  1  0.16220533  0.66271061  0.01785625  1
  Sc  Sc9  1  0.66223209  0.66272605  0.01773686  1
  Sc  Sc10  1  0.16432953  0.66125842  0.51762930  1
  Sc  Sc11  1  0.66362324  0.66653286  0.52014014  1
  Ta  Ta0  1  0.99573514  0.98578104  0.64703357  1
  Ta  Ta1  1  0.49352296  0.98442619  0.64404161  1
  Ta  Ta2  1  0.99497214  0.00107052  0.14576030  1
  Ta  Ta3  1  0.49475848  0.00113154  0.14561005  1
  Ta  Ta4  1  0.33351499  0.32231665  0.98031666  1
  Ta  Ta5  1  0.83342006  0.32231963  0.98043360  1
  Ta  Ta6  1  0.33369179  0.33840568  0.48157747  1
  Ta  Ta7  1  0.82966253  0.34120599  0.47790358  1
  Ta  Ta8  1  0.16121634  0.64696981  0.31288408  1
  Ta  Ta9  1  0.66096183  0.64944947  0.31249660  1
  Ta  Ta10  1  0.16319009  0.67692647  0.81279428  1
  Ta  Ta11  1  0.66254943  0.67706546  0.81242509  1
  Si  Si0  1  0.35267992  0.70800355  0.25364776  1
  Si  Si1  1  0.85299927  0.70823996  0.25395171  1
  Si  Si2  1  0.99570790  0.28605181  0.25177493  1
  Si  Si3  1  0.49557786  0.28583332  0.25196976  1
  Si  Si4  1  0.99585497  0.70296982  0.75355679  1
  Si  Si5  1  0.49496676  0.70421346  0.75316780  1
  Si  Si6  1  0.35342087  0.99891565  0.75179448  1
  Si  Si7  1  0.85347582  0.99879036  0.75192181  1
  Si  Si8  1  0.47874436  0.33111276  0.58290752  1
  Si  Si9  1  0.18681035  0.04589645  0.58567472  1
  Si  Si10  1  0.68952352  0.04264738  0.58661216  1
  Si  Si11  1  0.32784542  0.61701372  0.58523208  1
  Si  Si12  1  0.83253801  0.62514997  0.58476019  1
  Si  Si13  1  0.47844274  0.62580322  0.08189302  1
  Si  Si14  1  0.97848156  0.62593571  0.08188363  1
  Si  Si15  1  0.33141247  0.04130478  0.08547701  1
  Si  Si16  1  0.83149421  0.04121127  0.08552729  1
  Si  Si17  1  0.18873978  0.33183150  0.08592967  1
  Si  Si18  1  0.68870810  0.33189807  0.08597990  1
  Si  Si19  1  0.02005737  0.37081139  0.91854661  1
  Si  Si20  1  0.52022021  0.37079491  0.91853782  1
  Si  Si21  1  0.16723607  0.96609952  0.91860879  1
  Si  Si22  1  0.66724851  0.96610360  0.91861975  1
  Si  Si23  1  0.16543870  0.36640109  0.41871695  1
  Si  Si24  1  0.66253874  0.36911914  0.41895828  1
  Si  Si25  1  0.02081286  0.66692993  0.41972171  1
  Si  Si26  1  0.51973073  0.66621173  0.41929882  1
  S  S0  1  0.14374285  0.99291806  0.24959580  1
  S  S1  1  0.64382449  0.99355172  0.24977943  1
  S  S2  1  0.14281804  0.29194244  0.74978802  1
  S  S3  1  0.64417914  0.29437923  0.74987878  1
  S  S4  1  0.97692465  0.32703483  0.58297344  1
  S  S5  1  0.31034965  0.66268854  0.91649346  1
  S  S6  1  0.81013006  0.66234095  0.91646508  1
  S  S7  1  0.30972846  0.95968564  0.41615140  1
  S  S8  1  0.80980522  0.95890523  0.41660818  1
  O  O0  1  0.10259179  0.01786717  0.30141964  1
  O  O1  1  0.60290363  0.01781603  0.30140936  1
  O  O2  1  0.40764230  0.79366512  0.31116402  1
  O  O3  1  0.90766889  0.79341004  0.31167798  1
  O  O4  1  0.49423591  0.17728281  0.30709352  1
  O  O5  1  0.99366401  0.17648272  0.30686966  1
  O  O6  1  0.10372383  0.18605301  0.80227384  1
  O  O7  1  0.60421629  0.18598754  0.80138849  1
  O  O8  1  0.49367204  0.80149695  0.81148751  1
  O  O9  1  0.99095040  0.79688153  0.81156013  1
  O  O10  1  0.41284774  0.02422750  0.80622159  1
  O  O11  1  0.91223016  0.02558852  0.80706803  1
  O  O12  1  0.40207797  0.97491947  0.69100496  1
  O  O13  1  0.90549534  0.97846258  0.69278425  1
  O  O14  1  0.08900254  0.20993212  0.69635878  1
  O  O15  1  0.59267600  0.21671429  0.69506543  1
  O  O16  1  0.01605522  0.83469931  0.69404297  1
  O  O17  1  0.51597506  0.83475317  0.69372095  1
  O  O18  1  0.40404456  0.83202272  0.19374034  1
  O  O19  1  0.90419216  0.83185281  0.19396152  1
  O  O20  1  0.01667546  0.20081136  0.19155010  1
  O  O21  1  0.51686811  0.20088014  0.19172366  1
  O  O22  1  0.09175779  0.96919507  0.19487709  1
  O  O23  1  0.59200929  0.96889657  0.19492258  1
  O  O24  1  0.43656411  0.36819611  0.63873480  1
  O  O25  1  0.93792282  0.35443246  0.63578790  1
  O  O26  1  0.24315446  0.12043610  0.64395670  1
  O  O27  1  0.74151657  0.12850318  0.64534768  1
  O  O28  1  0.31652205  0.50544633  0.64149713  1
  O  O29  1  0.82171311  0.50341168  0.63867826  1
  O  O30  1  0.43574288  0.50194730  0.13709575  1
  O  O31  1  0.93577861  0.50210423  0.13704223  1
  O  O32  1  0.31165365  0.12561181  0.14008148  1
  O  O33  1  0.81168631  0.12565660  0.14006045  1
  O  O34  1  0.24315891  0.36416531  0.14467847  1
  O  O35  1  0.74310312  0.36412905  0.14474581  1
  O  O36  1  0.23813651  0.29951269  0.02858356  1
  O  O37  1  0.73816352  0.29956614  0.02865901  1
  O  O38  1  0.41638835  0.54025477  0.02301369  1
  O  O39  1  0.91648985  0.54022683  0.02298323  1
  O  O40  1  0.35305751  0.17057275  0.02636331  1
  O  O41  1  0.85307840  0.17060314  0.02641191  1
  O  O42  1  0.23746266  0.16922113  0.52726155  1
  O  O43  1  0.74115981  0.17478254  0.52892754  1
  O  O44  1  0.34954176  0.53484720  0.52517523  1
  O  O45  1  0.85234451  0.53634007  0.52428856  1
  O  O46  1  0.41430995  0.29531570  0.52570355  1
  O  O47  1  0.92409627  0.30238957  0.52964849  1
  O  O48  1  0.27246547  0.68300161  0.97123371  1
  O  O49  1  0.77272746  0.68298802  0.97124371  1
  O  O50  1  0.07197445  0.45645553  0.97802044  1
  O  O51  1  0.57202727  0.45633941  0.97810825  1
  O  O52  1  0.15502349  0.85022434  0.97567091  1
  O  O53  1  0.65539239  0.85060890  0.97576431  1
  O  O54  1  0.27180750  0.85947899  0.47065665  1
  O  O55  1  0.77090374  0.85410534  0.46905765  1
  O  O56  1  0.15858778  0.47168150  0.47304578  1
  O  O57  1  0.65944505  0.46493639  0.47684171  1
  O  O58  1  0.07296050  0.68996773  0.47908724  1
  O  O59  1  0.57421277  0.69216546  0.47758846  1
  O  O60  1  0.07430644  0.64711000  0.36199698  1
  O  O61  1  0.57432998  0.64794405  0.36128666  1
  O  O62  1  0.25582532  0.87075930  0.36389527  1
  O  O63  1  0.75706452  0.87959142  0.36312713  1
  O  O64  1  0.18236889  0.49618536  0.35821879  1
  O  O65  1  0.68292086  0.49999193  0.35961048  1
  O  O66  1  0.07363242  0.50503765  0.86187960  1
  O  O67  1  0.57390433  0.50542212  0.86200572  1
  O  O68  1  0.18096632  0.86614360  0.85889355  1
  O  O69  1  0.68112028  0.86692252  0.85884874  1
  O  O70  1  0.25659354  0.64311602  0.86447283  1
  O  O71  1  0.75710086  0.64334271  0.86447561  1
  O  O72  1  0.99861398  0.81820336  0.41307011  1
  O  O73  1  0.49947817  0.82060104  0.41252923  1
  O  O74  1  0.39439854  0.97434921  0.41084347  1
  O  O75  1  0.89490915  0.97693862  0.41063444  1
  O  O76  1  0.08462593  0.18125879  0.41137520  1
  O  O77  1  0.58489238  0.18137282  0.41125098  1
  O  O78  1  0.00532210  0.18240455  0.91218572  1
  O  O79  1  0.50548796  0.18264055  0.91204344  1
  O  O80  1  0.08128791  0.97421628  0.91091853  1
  O  O81  1  0.58145336  0.97484190  0.91143203  1
  O  O82  1  0.39688629  0.80944411  0.91138255  1
  O  O83  1  0.89734378  0.80994966  0.91150290  1
  O  O84  1  0.48612266  0.15534565  0.59024213  1
  O  O85  1  0.98682737  0.17346709  0.58903002  1
  O  O86  1  0.09114193  0.03138802  0.59164266  1
  O  O87  1  0.59516817  0.03786643  0.59093179  1
  O  O88  1  0.42146459  0.80765387  0.59012389  1
  O  O89  1  0.92359686  0.81260189  0.59085194  1
  O  O90  1  0.48632792  0.81645673  0.09101941  1
  O  O91  1  0.98623011  0.81637947  0.09092849  1
  O  O92  1  0.42221636  0.03432938  0.09100898  1
  O  O93  1  0.92221509  0.03412014  0.09107297  1
  O  O94  1  0.09421653  0.15301391  0.09124804  1
  O  O95  1  0.59425551  0.15302800  0.09130214  1
  O  O96  1  0.33060589  0.14947522  0.74660330  1
  O  O97  1  0.83178746  0.15106520  0.74548608  1
  O  O98  1  0.22719063  0.30742905  0.74326127  1
  O  O99  1  0.72904793  0.31045300  0.74422798  1
  O  O100  1  0.41529022  0.51749577  0.74759828  1
  O  O101  1  0.91785439  0.51583576  0.74431046  1
  O  O102  1  0.33147368  0.51285938  0.24679037  1
  O  O103  1  0.83148795  0.51264742  0.24714338  1
  O  O104  1  0.41560411  0.31256130  0.24671591  1
  O  O105  1  0.91567176  0.31252084  0.24644222  1
  O  O106  1  0.22804616  0.14783731  0.24390378  1
  O  O107  1  0.72824143  0.14766824  0.24406174  1
  O  O108  1  0.31830042  0.50429898  0.91958059  1
  O  O109  1  0.81869848  0.50456485  0.91960675  1
  O  O110  1  0.42838902  0.37563744  0.92222198  1
  O  O111  1  0.92831989  0.37573680  0.92203660  1
  O  O112  1  0.25536047  0.15416282  0.92312367  1
  O  O113  1  0.75550083  0.15454282  0.92307539  1
  O  O114  1  0.31749926  0.13045873  0.41979278  1
  O  O115  1  0.81927987  0.13323324  0.42312539  1
  O  O116  1  0.25684937  0.36419038  0.42271953  1
  O  O117  1  0.75609328  0.36513767  0.42295461  1
  O  O118  1  0.42504998  0.48659518  0.42271363  1
  O  O119  1  0.92604870  0.48343853  0.42432343  1
  O  O120  1  0.17507976  0.49416089  0.07709281  1
  O  O121  1  0.67514208  0.49429121  0.07718374  1
  O  O122  1  0.07457034  0.65692774  0.07778000  1
  O  O123  1  0.57455317  0.65690908  0.07778528  1
  O  O124  1  0.25562842  0.84892898  0.07595429  1
  O  O125  1  0.75562569  0.84890939  0.07602996  1
  O  O126  1  0.17086229  0.85235302  0.57760242  1
  O  O127  1  0.66982210  0.85025019  0.57923695  1
  O  O128  1  0.25571596  0.66977751  0.57706480  1
  O  O129  1  0.75138495  0.64668197  0.57686799  1
  O  O130  1  0.06181416  0.48102319  0.57747370  1
  O  O131  1  0.57400017  0.49163564  0.57742421  1
  O  O132  1  0.15265045  0.83894638  0.25524567  1
  O  O133  1  0.65295610  0.83887276  0.25528591  1
  O  O134  1  0.25779554  0.70067975  0.25783399  1
  O  O135  1  0.75800322  0.70062778  0.25813554  1
  O  O136  1  0.08783373  0.47846760  0.25681909  1
  O  O137  1  0.58816218  0.47865830  0.25709151  1
  O  O138  1  0.15139415  0.46452606  0.75575768  1
  O  O139  1  0.65348335  0.46697651  0.75657973  1
  O  O140  1  0.08903097  0.69875648  0.75653518  1
  O  O141  1  0.58835760  0.69768906  0.75690340  1
  O  O142  1  0.25859915  0.81581455  0.75792390  1
  O  O143  1  0.75878403  0.81766177  0.75776292  1
loop_
_geom_bond_atom_site_label_1
_geom_bond_atom_site_label_2
_geom_bond_distance
_geom_bond_site_symmetry_2
Na0 O102 2.296961 1_555
Na0 O106 2.429454 1_555
Na0 O136 2.477315 1_555
Na0 O34 2.481733 1_555
Na0 O134 2.674451 1_555
Na0 O64 2.863143 1_555
Na0 O20 2.925120 1_555
Na0 O0 3.002635 1_555
Na1 O103 2.299534 1_555
Na1 O107 2.438883 1_555
Na1 O137 2.469695 1_555
Na1 O35 2.474120 1_555
Na1 O135 2.671812 1_555
Na1 O65 2.909617 1_555
Na1 O21 2.915451 1_555
Na1 O1 3.009867 1_555
Na2 O96 2.275918 1_555
Na2 O98 2.425354 1_555
Na2 O140 2.472149 1_545
Na2 O26 2.478948 1_555
Na2 O142 2.675534 1_545
Na2 O68 2.894741 1_545
Na2 O16 2.912173 1_545
Na2 O6 2.991901 1_555
Na3 O97 2.321930 1_555
Na3 O141 2.453851 1_545
Na3 O99 2.463805 1_555
Na3 O27 2.481794 1_555
Na3 O143 2.662868 1_545
Na3 O69 2.877498 1_545
Na3 O17 2.893335 1_545
Na3 O7 2.969912 1_555
Na4 O131 2.391616 1_555
Na4 O129 2.419752 1_555
Na4 O87 2.434635 1_555
Na4 O57 2.568795 1_555
Na4 O84 2.629879 1_555
Na4 O15 2.826385 1_555
Na4 O43 2.951349 1_555
Na4 O29 2.988306 1_555
Na5 O126 2.355043 1_555
Na5 O58 2.429571 1_555
Na5 O89 2.444977 1_455
Na5 O130 2.455574 1_555
Na5 O86 2.614285 1_565
Na5 O45 2.923404 1_455
Na5 O16 2.933929 1_555
Na6 O127 2.384204 1_555
Na6 O131 2.447505 1_555
Na6 O88 2.486011 1_555
Na6 O59 2.539770 1_555
Na6 O87 2.758766 1_565
Na6 O24 2.832268 1_555
Na6 O17 2.892746 1_555
Na6 O44 2.955760 1_555
Na7 O128 2.365577 1_555
Na7 O126 2.466407 1_555
Na7 O84 2.538163 1_565
Na7 O12 2.768005 1_555
Na7 O88 2.780500 1_555
Na7 O54 2.793582 1_555
Na7 O26 2.804231 1_565
Na7 O46 2.889818 1_565
Na8 O122 2.404058 1_555
Na8 O94 2.449869 1_565
Na8 O124 2.534863 1_555
Na8 O52 2.593283 1_554
Na8 O91 2.643441 1_455
Na8 O22 2.830716 1_555
Na8 O32 2.846767 1_565
Na8 O36 2.887761 1_565
Na9 O123 2.402404 1_555
Na9 O95 2.450557 1_565
Na9 O125 2.534579 1_555
Na9 O53 2.588098 1_554
Na9 O90 2.641199 1_555
Na9 O23 2.831837 1_555
Na9 O33 2.849492 1_565
Na9 O37 2.887836 1_565
Na10 O124 2.399678 1_555
Na10 O120 2.417279 1_555
Na10 O90 2.534313 1_555
Na10 O48 2.744143 1_554
Na10 O92 2.745673 1_565
Na10 O18 2.852243 1_555
Na10 O34 2.872175 1_555
Na10 O38 2.900908 1_555
Na11 O125 2.397584 1_555
Na11 O121 2.417710 1_555
Na11 O91 2.531655 1_555
Na11 O49 2.741166 1_554
Na11 O93 2.741276 1_565
Na11 O19 2.856817 1_555
Na11 O35 2.876305 1_555
Na11 O39 2.903694 1_555
Na12 O120 2.443685 1_555
Na12 O122 2.450886 1_555
Na12 O93 2.506098 1_455
Na12 O50 2.519196 1_554
Na12 O94 2.721343 1_555
Na12 O31 2.818736 1_455
Na12 O20 2.833254 1_555
Na12 O41 2.914178 1_455
Na13 O121 2.445790 1_555
Na13 O123 2.449117 1_555
Na13 O92 2.505614 1_555
Na13 O51 2.515642 1_554
Na13 O95 2.724524 1_555
Na13 O30 2.817298 1_555
Na13 O21 2.839772 1_555
Na13 O40 2.913225 1_555
Na14 O81 2.370274 1_555
Na14 O110 2.376078 1_555
Na14 O82 2.511044 1_555
Na14 O8 2.571700 1_555
Na14 O108 2.693234 1_555
Na14 O38 2.779235 1_556
Na14 O67 2.905180 1_555
Na14 O53 2.978433 1_555
Na15 O80 2.364608 1_655
Na15 O111 2.375321 1_555
Na15 O83 2.506367 1_555
Na15 O9 2.575227 1_555
Na15 O109 2.686640 1_555
Na15 O39 2.765488 1_556
Na15 O66 2.912411 1_655
Na15 O52 2.965024 1_655
Na16 O73 2.321664 1_555
Na16 O116 2.411914 1_555
Na16 O74 2.497605 1_555
Na16 O2 2.508040 1_555
Na16 O118 2.573026 1_555
Na16 O44 2.842292 1_555
Na16 O64 2.935637 1_555
Na17 O72 2.304510 1_555
Na17 O75 2.454702 1_555
Na17 O117 2.462014 1_555
Na17 O3 2.466061 1_555
Na17 O119 2.675476 1_555
Na17 O45 2.870149 1_555
Na17 O65 2.911992 1_555
Na17 O55 2.998627 1_555
Na18 O76 2.323669 1_555
Na18 O72 2.503417 1_445
Na18 O86 2.615654 1_555
Na18 O85 2.737704 1_455
Na18 O75 2.750049 1_445
Na18 O89 2.812441 1_445
Na19 O77 2.345140 1_555
Na19 O73 2.438834 1_545
Na19 O87 2.648256 1_555
Na19 O84 2.722368 1_555
Na19 O74 2.729319 1_545
Na19 O88 2.806874 1_545
Na20 O78 2.343268 1_555
Na20 O80 2.419187 1_545
Na20 O94 2.669923 1_556
Na20 O83 2.697902 1_445
Na20 O93 2.760637 1_456
Na20 O91 2.809755 1_446
Na21 O79 2.341991 1_555
Na21 O81 2.406116 1_545
Na21 O95 2.673847 1_556
Na21 O82 2.703226 1_545
Na21 O92 2.764090 1_556
Na21 O90 2.815754 1_546
Na22 O100 2.379337 1_555
Na22 O96 2.417062 1_555
Na22 O110 2.583445 1_555
Na22 O112 2.672588 1_555
Na22 O108 2.754299 1_555
Na22 O98 2.762628 1_555
Na23 O97 2.453372 1_555
Na23 O101 2.473163 1_555
Na23 O111 2.553361 1_555
Na23 O113 2.636685 1_555
Na23 O109 2.732118 1_555
Na23 O99 2.753211 1_555
Na24 O104 2.351246 1_555
Na24 O102 2.527372 1_555
Na24 O118 2.551254 1_555
Na24 O114 2.667872 1_555
Na24 O116 2.711179 1_555
Na24 O106 2.766322 1_555
Na25 O105 2.296146 1_555
Na25 O103 2.493435 1_555
Na25 O119 2.625393 1_555
Na25 O107 2.729049 1_555
Na25 O115 2.752087 1_555
Na25 O117 2.787431 1_555
Na26 O122 2.522494 1_555
Na26 O124 2.523633 1_555
Na26 O120 2.572271 1_555
Na26 O134 2.661948 1_555
Na26 O132 2.673687 1_555
Na26 O136 2.681106 1_555
Na27 O125 2.516364 1_555
Na27 O123 2.517706 1_555
Na27 O121 2.563522 1_555
Na27 O135 2.675207 1_555
Na27 O133 2.678993 1_555
Na27 O137 2.689991 1_555
Na28 O128 2.427236 1_555
Na28 O142 2.617270 1_555
Na28 O126 2.625666 1_555
Na28 O138 2.643630 1_555
Na28 O130 2.709515 1_555
Na28 O140 2.723563 1_555
Na29 O129 2.436783 1_555
Na29 O127 2.452459 1_555
Na29 O131 2.554680 1_555
Na29 O143 2.667120 1_555
Na29 O141 2.743240 1_555
Na29 O139 2.785804 1_555
O0 S0 1.464611 1_545
O0 Sc0 2.124004 1_555
O1 S1 1.456157 1_545
O1 Sc1 2.131270 1_545
O2 Si0 1.597162 1_555
O2 Sc1 2.023154 1_555
O3 Si1 1.598253 1_555
O3 Sc0 2.037728 1_665
O4 Si3 1.583772 1_555
O4 Sc1 1.968078 1_545
O5 Si2 1.585123 1_555
O5 Sc0 1.965117 1_655
O6 S2 1.466598 1_555
O6 Sc2 2.127618 1_455
O7 S3 1.460724 1_555
O7 Sc3 2.137760 1_555
O8 Si5 1.596158 1_555
O8 Sc3 2.041661 1_565
O9 Si4 1.592677 1_555
O9 Sc2 2.064682 1_565
O10 Si6 1.586493 1_545
O10 Sc3 1.944780 1_555
O11 Si7 1.589426 1_545
O11 Sc2 1.946293 1_555
O12 Si6 1.703130 1_555
O12 Ta1 1.929790 1_555
O13 Si7 1.696429 1_555
O13 Ta0 1.904304 1_555
O14 S2 1.507447 1_555
O14 Ta0 2.201097 1_445
O15 S3 1.509917 1_555
O15 Ta1 2.294573 1_545
O16 Si4 1.714331 1_455
O16 Ta0 1.911714 1_455
O17 Si5 1.704864 1_555
O17 Ta1 1.957446 1_555
O18 Si0 1.707634 1_555
O18 Ta3 1.925557 1_565
O19 Si1 1.707047 1_555
O19 Ta2 1.927368 1_565
O20 Si2 1.700494 1_455
O20 Ta2 1.949696 1_455
O21 Si3 1.702012 1_555
O21 Ta3 1.951826 1_555
O22 S0 1.515179 1_555
O22 Ta2 2.224033 1_465
O23 S1 1.514661 1_555
O23 Ta3 2.235235 1_565
O24 Si8 1.594772 1_555
O24 Sc4 1.953955 1_555
O25 S4 1.469568 1_555
O25 Sc5 2.129176 1_555
O26 Si9 1.607874 1_555
O26 Sc4 2.103515 1_555
O27 Si10 1.600424 1_555
O27 Sc5 2.027035 1_555
O28 Si11 1.575837 1_555
O28 Sc4 2.018477 1_555
O29 Si12 1.591337 1_555
O29 Sc5 1.996903 1_555
O30 Si13 1.595987 1_555
O30 Sc6 1.955758 1_555
O31 Si14 1.595110 1_555
O31 Sc7 1.953268 1_555
O32 Si15 1.584763 1_555
O32 Sc6 2.049438 1_555
O33 Si16 1.584655 1_555
O33 Sc7 2.046789 1_555
O34 Si17 1.603876 1_555
O34 Sc6 2.089169 1_555
O35 Si18 1.604084 1_555
O35 Sc7 2.086050 1_555
O36 Si17 1.680557 1_555
O36 Ta4 1.962028 1_554
O37 Si18 1.680822 1_555
O37 Ta5 1.959837 1_554
O38 Si13 1.676112 1_555
O38 Ta4 2.039890 1_554
O39 Si14 1.676173 1_555
O39 Ta5 2.039043 1_554
O40 Si15 1.690785 1_555
O40 Ta4 1.896637 1_554
O41 Si16 1.691594 1_555
O41 Ta5 1.896738 1_554
O42 Si9 1.675682 1_555
O42 Ta6 1.943439 1_555
O43 Si10 1.699289 1_555
O43 Ta7 1.936590 1_555
O44 Si11 1.687702 1_555
O44 Ta6 1.928381 1_555
O45 Si12 1.714103 1_555
O45 Ta7 1.918420 1_555
O46 Si8 1.674839 1_555
O46 Ta6 1.971543 1_555
O47 S4 1.496495 1_555
O47 Ta7 2.251890 1_555
O48 S5 1.470178 1_555
O48 Sc8 2.180250 1_556
O49 S6 1.467443 1_555
O49 Sc9 2.182669 1_556
O50 Si19 1.613642 1_555
O50 Sc8 1.990780 1_556
O51 Si20 1.614616 1_555
O51 Sc9 1.989079 1_556
O52 Si21 1.609905 1_555
O52 Sc8 2.009672 1_556
O53 Si22 1.610662 1_555
O53 Sc9 2.007272 1_556
O54 S7 1.480525 1_555
O54 Sc10 2.154299 1_555
O55 S8 1.461344 1_555
O55 Sc11 2.165252 1_555
O56 Si23 1.599702 1_555
O56 Sc10 1.950040 1_555
O57 Si24 1.590026 1_555
O57 Sc11 2.040679 1_555
O58 Si25 1.605856 1_555
O58 Sc10 2.008369 1_555
O59 Si26 1.604036 1_555
O59 Sc11 2.004647 1_555
O60 Si25 1.686032 1_555
O60 Ta8 1.923842 1_555
O61 Si26 1.698093 1_555
O61 Ta9 1.909494 1_555
O62 S7 1.498642 1_555
O62 Ta8 2.227010 1_555
O63 S8 1.496405 1_555
O63 Ta9 2.261732 1_555
O64 Si23 1.730665 1_555
O64 Ta8 1.896973 1_555
O65 Si24 1.706351 1_555
O65 Ta9 1.917737 1_555
O66 Si19 1.696995 1_555
O66 Ta10 1.937987 1_555
O67 Si20 1.696674 1_555
O67 Ta11 1.936433 1_555
O68 Si21 1.713463 1_555
O68 Ta10 1.893999 1_555
O69 Si22 1.711294 1_555
O69 Ta11 1.898902 1_555
O70 S5 1.491181 1_555
O70 Ta10 2.211457 1_555
O71 S6 1.483789 1_555
O71 Ta11 2.233066 1_555
O72 Si25 1.615728 1_655
O72 Sc0 2.124049 1_665
O73 Si26 1.619987 1_555
O73 Sc1 2.101796 1_555
O74 S7 1.478272 1_555
O74 Sc1 2.228303 1_555
O75 S8 1.474479 1_555
O75 Sc0 2.228013 1_665
O76 Si23 1.594725 1_555
O76 Sc0 2.064420 1_555
O77 Si24 1.588477 1_555
O77 Sc1 2.083121 1_545
O78 Si19 1.596162 1_555
O78 Sc2 2.037952 1_455
O79 Si20 1.594211 1_555
O79 Sc3 2.043226 1_555
O80 Si21 1.607955 1_555
O80 Sc2 2.148710 1_465
O81 Si22 1.606888 1_555
O81 Sc3 2.152921 1_565
O82 S5 1.470756 1_555
O82 Sc3 2.238398 1_565
O83 S6 1.480977 1_555
O83 Sc2 2.230262 1_565
O84 Si8 1.670334 1_555
O84 Ta1 2.028354 1_545
O85 S4 1.494329 1_555
O85 Ta0 2.219195 1_545
O86 Si9 1.678302 1_555
O86 Ta0 1.999824 1_445
O87 Si10 1.692570 1_555
O87 Ta1 2.040207 1_545
O88 Si11 1.720286 1_555
O88 Ta1 1.926029 1_555
O89 Si12 1.685144 1_555
O89 Ta0 1.944211 1_555
O90 Si13 1.672281 1_555
O90 Ta3 2.025028 1_565
O91 Si14 1.671233 1_555
O91 Ta2 2.026643 1_565
O92 Si15 1.685305 1_555
O92 Ta3 1.944068 1_555
O93 Si16 1.684379 1_555
O93 Ta2 1.947628 1_555
O94 Si17 1.675679 1_555
O94 Ta2 2.040209 1_455
O95 Si18 1.675208 1_555
O95 Ta3 2.039822 1_555
O96 Si6 1.614150 1_545
O96 Sc4 2.147412 1_555
O97 Si7 1.617876 1_545
O97 Sc5 2.098831 1_555
O98 S2 1.472029 1_555
O98 Sc4 2.304337 1_555
O99 S3 1.477027 1_555
O99 Sc5 2.221230 1_555
O100 Si5 1.591305 1_555
O100 Sc4 2.078292 1_555
O101 Si4 1.591783 1_555
O101 Sc5 2.056228 1_555
O102 Si0 1.617720 1_555
O102 Sc6 2.130549 1_555
O103 Si1 1.619880 1_555
O103 Sc7 2.137855 1_555
O104 Si3 1.590604 1_555
O104 Sc6 2.064521 1_555
O105 Si2 1.590451 1_555
O105 Sc7 2.065962 1_555
O106 S0 1.477644 1_545
O106 Sc6 2.308054 1_555
O107 S1 1.475719 1_545
O107 Sc7 2.312798 1_555
O108 S5 1.512538 1_555
O108 Ta4 2.269685 1_555
O109 S6 1.513461 1_555
O109 Ta5 2.268462 1_555
O110 Si20 1.689533 1_555
O110 Ta4 2.017271 1_555
O111 Si19 1.688047 1_655
O111 Ta5 2.021895 1_555
O112 Si21 1.660415 1_545
O112 Ta4 1.973006 1_555
O113 Si22 1.663232 1_545
O113 Ta5 1.972640 1_555
O114 S7 1.483144 1_545
O114 Ta6 2.247450 1_555
O115 S8 1.507328 1_545
O115 Ta7 2.185199 1_555
O116 Si23 1.671546 1_555
O116 Ta6 2.034163 1_555
O117 Si24 1.718534 1_555
O117 Ta7 1.923441 1_555
O118 Si26 1.678337 1_555
O118 Ta6 2.020388 1_555
O119 Si25 1.696756 1_655
O119 Ta7 1.979418 1_555
O120 Si17 1.620101 1_555
O120 Sc8 2.133565 1_555
O121 Si18 1.619521 1_555
O121 Sc9 2.136087 1_555
O122 Si14 1.623644 1_455
O122 Sc8 2.064298 1_555
O123 Si13 1.623664 1_555
O123 Sc9 2.066634 1_555
O124 Si15 1.609394 1_565
O124 Sc8 2.154949 1_555
O125 Si16 1.609359 1_565
O125 Sc9 2.157351 1_555
O126 Si9 1.637958 1_565
O126 Sc10 2.157909 1_555
O127 Si10 1.603176 1_565
O127 Sc11 2.095863 1_555
O128 Si11 1.612804 1_555
O128 Sc10 2.117615 1_555
O129 Si12 1.589839 1_555
O129 Sc11 2.131719 1_555
O130 S4 1.479714 1_455
O130 Sc10 2.214447 1_555
O131 Si8 1.615312 1_555
O131 Sc11 2.060025 1_555
O132 S0 1.486644 1_555
O132 Ta8 2.242762 1_555
O133 S1 1.495058 1_555
O133 Ta9 2.213732 1_555
O134 Si0 1.691118 1_555
O134 Ta8 1.995759 1_555
O135 Si1 1.691918 1_555
O135 Ta9 1.997067 1_555
O136 Si2 1.715944 1_455
O136 Ta8 1.929557 1_555
O137 Si3 1.721947 1_555
O137 Ta9 1.925915 1_555
O138 S2 1.497194 1_555
O138 Ta10 2.238760 1_555
O139 S3 1.493493 1_555
O139 Ta11 2.222871 1_555
O140 Si4 1.711496 1_455
O140 Ta10 1.942469 1_555
O141 Si5 1.727136 1_555
O141 Ta11 1.926972 1_555
O142 Si6 1.697841 1_555
O142 Ta10 1.981385 1_555
O143 Si7 1.687757 1_555
O143 Ta11 1.989857 1_555
