# generated using pymatgen
data_MgCr3InO8
_symmetry_space_group_name_H-M   'P 1'
_cell_length_a   5.20590089
_cell_length_b   5.20590125
_cell_length_c   6.26132520
_cell_angle_alpha   85.72342009
_cell_angle_beta   85.72341924
_cell_angle_gamma   67.46523247
_symmetry_Int_Tables_number   1
_chemical_formula_structural   MgCr3InO8
_chemical_formula_sum   'Mg1 Cr3 In1 O8'
_cell_volume   156.10297806
_cell_formula_units_Z   1
loop_
 _symmetry_equiv_pos_site_id
 _symmetry_equiv_pos_as_xyz
  1  'x, y, z'
loop_
 _atom_site_type_symbol
 _atom_site_label
 _atom_site_symmetry_multiplicity
 _atom_site_fract_x
 _atom_site_fract_y
 _atom_site_fract_z
 _atom_site_occupancy
  Mg  Mg0  1  0.50000000  0.50000000  0.00000000  1
  Cr  Cr0  1  0.34213000  0.34213000  0.67277900  1
  Cr  Cr1  1  0.65787000  0.65787000  0.32722100  1
  Cr  Cr2  1  0.00000000  0.00000000  0.50000000  1
  In  In0  1  0.00000000  0.00000000  0.00000000  1
  O  O0  1  0.72794600  0.24246300  0.73608800  1
  O  O1  1  0.25310900  0.25310900  0.94078400  1
  O  O2  1  0.75753700  0.27205400  0.26391200  1
  O  O3  1  0.22487900  0.22487900  0.46868000  1
  O  O4  1  0.27205400  0.75753700  0.26391200  1
  O  O5  1  0.24246300  0.72794600  0.73608800  1
  O  O6  1  0.77512100  0.77512100  0.53132000  1
  O  O7  1  0.74689100  0.74689100  0.05921600  1
loop_
_geom_bond_atom_site_label_1
_geom_bond_atom_site_label_2
_geom_bond_distance
_geom_bond_site_symmetry_2
Mg0 O4 2.180536 1_555
Mg0 O0 2.180536 1_554
Mg0 O2 2.180536 1_555
Mg0 O5 2.180536 1_554
Mg0 O7 2.202220 1_555
Mg0 O1 2.202220 1_554
Cr0 O3 1.701920 1_555
Cr0 O1 1.782723 1_555
Cr0 O0 1.936435 1_555
Cr0 O5 1.936435 1_555
Cr1 O6 1.701920 1_555
Cr1 O7 1.782723 1_555
Cr1 O4 1.936435 1_555
Cr1 O2 1.936435 1_555
Cr2 O3 1.939469 1_555
Cr2 O6 1.939469 1_445
Cr2 O0 2.092857 1_455
Cr2 O4 2.092857 1_545
Cr2 O2 2.092857 1_455
Cr2 O5 2.092857 1_545
In0 O7 2.189749 1_445
In0 O1 2.189749 1_554
In0 O2 2.235484 1_455
In0 O5 2.235484 1_544
In0 O4 2.235484 1_545
In0 O0 2.235484 1_454
