# generated using pymatgen
data_BaYMgCuBiO5
_symmetry_space_group_name_H-M   'P 1'
_cell_length_a   3.89110945
_cell_length_b   3.89114588
_cell_length_c   11.94021322
_cell_angle_alpha   89.99813336
_cell_angle_beta   89.99463690
_cell_angle_gamma   90.02115966
_symmetry_Int_Tables_number   1
_chemical_formula_structural   BaYMgCuBiO5
_chemical_formula_sum   'Ba1 Y1 Mg1 Cu1 Bi1 O5'
_cell_volume   180.78525668
_cell_formula_units_Z   1
loop_
 _symmetry_equiv_pos_site_id
 _symmetry_equiv_pos_as_xyz
  1  'x, y, z'
loop_
 _atom_site_type_symbol
 _atom_site_label
 _atom_site_symmetry_multiplicity
 _atom_site_fract_x
 _atom_site_fract_y
 _atom_site_fract_z
 _atom_site_occupancy
  Ba  Ba0  1  0.00003457  0.00001352  0.09253353  1
  Y  Y0  1  0.99997462  0.99998430  0.40555883  1
  Mg  Mg0  1  0.49993943  0.49997108  0.53712775  1
  Cu  Cu0  1  0.49999913  0.50000140  0.25855711  1
  Bi  Bi0  1  0.50012086  0.50005269  0.83988002  1
  O  O0  1  0.99994580  0.49997641  0.50199276  1
  O  O1  1  0.49994258  0.99997480  0.50199158  1
  O  O2  1  -0.00000331  0.50000028  0.25644633  1
  O  O3  1  0.49999304  0.00000069  0.25644613  1
  O  O4  1  0.50004528  0.50001983  0.01595097  1
loop_
_geom_bond_atom_site_label_1
_geom_bond_atom_site_label_2
_geom_bond_distance
_geom_bond_site_symmetry_2
Ba0 O3 2.759627 1_455
Ba0 O2 2.759648 1_545
Ba0 O3 2.759657 1_555
Ba0 O2 2.759665 1_555
Ba0 O4 2.898896 1_555
Ba0 O4 2.898962 1_445
Ba0 O4 2.899868 1_545
Ba0 O4 2.899919 1_455
Mg0 O0 1.990257 1_555
Mg0 O0 1.990285 1_455
Mg0 O1 1.990291 1_545
Mg0 O1 1.990293 1_555
Cu0 O2 1.945706 1_655
Cu0 O2 1.945730 1_555
Cu0 O3 1.945733 1_565
Cu0 O3 1.945740 1_555
Bi0 O4 2.102325 1_556
O0 Y0 2.260762 1_555
O0 Y0 2.260774 1_545
O1 Y0 2.260731 1_455
O1 Y0 2.260760 1_555
O2 Y0 2.637269 1_455
O2 Y0 2.637275 1_445
O3 Y0 2.637190 1_445
O3 Y0 2.637330 1_545
