# generated using pymatgen
data_Na8Ca2Ga2Si3(SO8)3
_symmetry_space_group_name_H-M   'P 1'
_cell_length_a   9.49179360
_cell_length_b   9.29431970
_cell_length_c   22.60167543
_cell_angle_alpha   94.00937779
_cell_angle_beta   89.90316288
_cell_angle_gamma   120.62101306
_symmetry_Int_Tables_number   1
_chemical_formula_structural   Na8Ca2Ga2Si3(SO8)3
_chemical_formula_sum   'Na24 Ca6 Ga6 Si9 S9 O72'
_cell_volume   1710.33719352
_cell_formula_units_Z   3
loop_
 _symmetry_equiv_pos_site_id
 _symmetry_equiv_pos_as_xyz
  1  'x, y, z'
loop_
 _atom_site_type_symbol
 _atom_site_label
 _atom_site_symmetry_multiplicity
 _atom_site_fract_x
 _atom_site_fract_y
 _atom_site_fract_z
 _atom_site_occupancy
  Na  Na0  1  0.64388073  0.01927508  0.26127002  1
  Na  Na1  1  0.35398862  0.34785222  0.25794784  1
  Na  Na2  1  0.00345391  0.62973329  0.24108541  1
  Na  Na3  1  0.62667784  0.63447825  0.73451740  1
  Na  Na4  1  0.99225366  0.34957991  0.73875922  1
  Na  Na5  1  0.37427374  0.02562671  0.74896874  1
  Na  Na6  1  0.30626738  0.34733554  0.59284411  1
  Na  Na7  1  0.02044172  0.68411879  0.59006211  1
  Na  Na8  1  0.66895356  0.96118717  0.57675259  1
  Na  Na9  1  0.28322769  0.95465260  0.08213084  1
  Na  Na10  1  0.67802008  0.70019918  0.08046914  1
  Na  Na11  1  0.02776532  0.34229301  0.09397316  1
  Na  Na12  1  0.98863284  0.68282904  0.91591194  1
  Na  Na13  1  0.68249328  0.02588329  0.90101708  1
  Na  Na14  1  0.33688779  0.28999911  0.90500126  1
  Na  Na15  1  0.95105629  0.28631547  0.41732725  1
  Na  Na16  1  0.34190467  0.03859492  0.40747300  1
  Na  Na17  1  0.68804038  0.67444852  0.43150621  1
  Na  Na18  1  0.97935645  0.99339146  0.50519407  1
  Na  Na19  1  0.01501844  0.99475124  0.99965215  1
  Na  Na20  1  0.64936835  0.32486426  0.82581767  1
  Na  Na21  1  0.66317475  0.31419879  0.33668276  1
  Na  Na22  1  0.31068057  0.65900370  0.16992492  1
  Na  Na23  1  0.34065518  0.65285252  0.66285856  1
  Ca  Ca0  1  0.99856650  0.00493206  0.34942049  1
  Ca  Ca1  1  0.00266289  0.00639416  0.84538847  1
  Ca  Ca2  1  0.66809085  0.33535168  0.68312700  1
  Ca  Ca3  1  0.67020610  0.32924602  0.18467739  1
  Ca  Ca4  1  0.32740821  0.67113097  0.01354828  1
  Ca  Ca5  1  0.33763441  0.66490505  0.51733057  1
  Ga  Ga0  1  0.96758408  0.02693837  0.64900532  1
  Ga  Ga1  1  0.01574414  0.98500454  0.16326245  1
  Ga  Ga2  1  0.66924085  0.33492253  0.98358359  1
  Ga  Ga3  1  0.67987949  0.31645442  0.49675504  1
  Ga  Ga4  1  0.32064554  0.69249794  0.31163280  1
  Ga  Ga5  1  0.35641284  0.69879183  0.80488481  1
  Si  Si0  1  0.30223572  0.99521038  0.25303103  1
  Si  Si1  1  0.01336945  0.30171871  0.25256108  1
  Si  Si2  1  0.29121238  0.30599958  0.75403643  1
  Si  Si3  1  0.69204047  0.99642355  0.75241364  1
  Si  Si4  1  0.97035382  0.33171248  0.58589338  1
  Si  Si5  1  0.68107352  0.63516076  0.58534715  1
  Si  Si6  1  0.95737068  0.63624772  0.08646080  1
  Si  Si7  1  0.34342320  0.97285655  0.92143652  1
  Si  Si8  1  0.62383509  0.96982276  0.41996171  1
  S  S0  1  0.69265299  0.70776223  0.24647904  1
  S  S1  1  0.01472849  0.70063690  0.75315847  1
  S  S2  1  0.35914178  0.04136523  0.57996685  1
  S  S3  1  0.67960920  0.03769270  0.07867758  1
  S  S4  1  0.36945771  0.33063858  0.08027292  1
  S  S5  1  0.63312751  0.65752839  0.91773435  1
  S  S6  1  0.01567483  0.36145567  0.91977716  1
  S  S7  1  0.34511881  0.36924693  0.41286595  1
  S  S8  1  0.03194239  0.66064552  0.41304554  1
  O  O0  1  0.21863573  0.01571654  0.31195759  1
  O  O1  1  0.78792981  0.78090724  0.30252340  1
  O  O2  1  0.97271418  0.19566103  0.30958695  1
  O  O3  1  0.22540951  0.20261566  0.81211400  1
  O  O4  1  0.00570054  0.77877392  0.81098501  1
  O  O5  1  0.78565881  0.00647484  0.81304475  1
  O  O6  1  0.78313589  0.96760949  0.69338555  1
  O  O7  1  0.16054124  0.20279679  0.69412518  1
  O  O8  1  0.02834851  0.79846649  0.70284049  1
  O  O9  1  0.78634076  0.80846369  0.19512555  1
  O  O10  1  0.03952739  0.19468313  0.19146224  1
  O  O11  1  0.18601018  0.96358997  0.19163349  1
  O  O12  1  0.89079599  0.35764970  0.64511328  1
  O  O13  1  0.45215725  0.11400029  0.63674303  1
  O  O14  1  0.64505058  0.52876897  0.64208027  1
  O  O15  1  0.87914977  0.53286802  0.14311687  1
  O  O16  1  0.65470353  0.11005846  0.13481551  1
  O  O17  1  0.46065403  0.34657136  0.13530822  1
  O  O18  1  0.45775200  0.31664077  0.02668952  1
  O  O19  1  0.82665448  0.53690015  0.02540328  1
  O  O20  1  0.68381349  0.13602201  0.02797023  1
  O  O21  1  0.45598811  0.14202931  0.52920064  1
  O  O22  1  0.70450502  0.52717171  0.52393208  1
  O  O23  1  0.85316769  0.29877721  0.52483751  1
  O  O24  1  0.55927398  0.67332268  0.97377659  1
  O  O25  1  0.10971781  0.43942712  0.97644842  1
  O  O26  1  0.32036612  0.87735945  0.98059779  1
  O  O27  1  0.54721464  0.86697841  0.47680804  1
  O  O28  1  0.33544547  0.45456170  0.46854439  1
  O  O29  1  0.12802567  0.67734142  0.46666467  1
  O  O30  1  0.11807291  0.64812100  0.35795028  1
  O  O31  1  0.49717100  0.87259168  0.35773607  1
  O  O32  1  0.34760835  0.45982410  0.36075988  1
  O  O33  1  0.09877309  0.45860116  0.86931920  1
  O  O34  1  0.37476033  0.86938091  0.86217087  1
  O  O35  1  0.53098577  0.64290198  0.86567735  1
  O  O36  1  0.01131768  0.80943545  0.41320305  1
  O  O37  1  0.80592071  0.99243358  0.41361252  1
  O  O38  1  0.19980642  0.19652533  0.41305006  1
  O  O39  1  0.98530508  0.18791322  0.91607848  1
  O  O40  1  0.18559330  0.99760504  0.91527917  1
  O  O41  1  0.80335676  0.80406178  0.91710531  1
  O  O42  1  0.97527283  0.15383436  0.58495183  1
  O  O43  1  0.20320003  0.04068897  0.57878769  1
  O  O44  1  0.86316096  0.82000639  0.59099038  1
  O  O45  1  0.96895234  0.82832728  0.09176080  1
  O  O46  1  0.83647166  0.03783349  0.07974695  1
  O  O47  1  0.20326550  0.17702060  0.07776240  1
  O  O48  1  0.66560772  0.15580085  0.75042333  1
  O  O49  1  0.47700292  0.34146336  0.74620876  1
  O  O50  1  0.86961687  0.52969504  0.74968248  1
  O  O51  1  0.65750837  0.53340658  0.23966367  1
  O  O52  1  0.86443557  0.33794099  0.24324385  1
  O  O53  1  0.48649741  0.15681659  0.24939828  1
  O  O54  1  0.64179875  0.49805335  0.91579359  1
  O  O55  1  0.85100412  0.35429450  0.92232269  1
  O  O56  1  0.52247177  0.16442498  0.92572675  1
  O  O57  1  0.63536558  0.16125191  0.42531061  1
  O  O58  1  0.49842063  0.36061018  0.41298387  1
  O  O59  1  0.86841821  0.50467874  0.41032236  1
  O  O60  1  0.35296119  0.48252354  0.07905194  1
  O  O61  1  0.14039513  0.66008695  0.08028055  1
  O  O62  1  0.54160656  0.86035989  0.07362497  1
  O  O63  1  0.32524770  0.86680557  0.57373981  1
  O  O64  1  0.52923077  0.66859527  0.57764073  1
  O  O65  1  0.15493386  0.49176688  0.58146981  1
  O  O66  1  0.30745625  0.81705286  0.25051783  1
  O  O67  1  0.53576426  0.70760772  0.24623697  1
  O  O68  1  0.19608950  0.48759302  0.25808910  1
  O  O69  1  0.29220032  0.48996405  0.76150261  1
  O  O70  1  0.16939626  0.68899812  0.75352257  1
  O  O71  1  0.50627021  0.81873695  0.74758285  1
loop_
_geom_bond_atom_site_label_1
_geom_bond_atom_site_label_2
_geom_bond_distance
_geom_bond_site_symmetry_2
Na0 O53 2.435673 1_555
Na0 O67 2.528810 1_545
Na0 O31 2.650074 1_545
Na0 O52 2.677719 1_555
Na0 O66 2.759212 1_545
Na0 O2 2.858441 1_555
Na0 O16 3.023091 1_555
Na1 O68 2.432183 1_555
Na1 O32 2.492384 1_555
Na1 O51 2.545399 1_555
Na1 O53 2.645375 1_555
Na2 O52 2.339076 1_455
Na2 O15 2.398644 1_455
Na2 O66 2.497051 1_555
Na2 O68 2.787543 1_555
Na2 O30 2.818987 1_555
Na2 O51 2.930255 1_455
Na2 O11 2.980144 1_555
Na3 O14 2.290606 1_555
Na3 O49 2.379672 1_555
Na3 O71 2.499654 1_555
Na3 O69 2.831842 1_555
Na3 O50 2.953021 1_555
Na4 O12 2.348510 1_555
Na4 O50 2.478860 1_555
Na4 O69 2.489812 1_655
Na4 O48 2.702066 1_555
Na4 O70 2.709524 1_655
Na4 O7 2.729919 1_655
Na5 O48 2.387080 1_555
Na5 O49 2.584812 1_555
Na5 O13 2.705802 1_555
Na5 O70 2.725332 1_545
Na5 O71 2.777398 1_545
Na5 O3 2.961779 1_555
Na5 O8 2.994541 1_545
Na5 O34 3.030111 1_545
Na6 O65 2.438291 1_555
Na6 O43 2.492979 1_555
Na6 O64 2.686279 1_555
Na6 O42 2.708832 1_455
Na6 O7 2.735763 1_555
Na6 O14 2.940762 1_555
Na6 O28 3.011685 1_555
Na7 O44 2.396080 1_455
Na7 O63 2.543442 1_555
Na7 O65 2.671901 1_555
Na7 O8 2.678247 1_555
Na7 O43 2.883975 1_565
Na7 O22 2.934052 1_455
Na7 O29 2.975994 1_555
Na7 O12 2.998075 1_455
Na8 O64 2.342670 1_555
Na8 O27 2.430252 1_555
Na8 O42 2.519127 1_565
Na8 O44 2.783625 1_555
Na8 O6 2.837067 1_555
Na8 O63 2.914504 1_555
Na8 O23 3.032827 1_565
Na9 O61 2.353349 1_555
Na9 O26 2.435413 1_554
Na9 O47 2.546386 1_565
Na9 O45 2.605763 1_455
Na9 O11 2.650540 1_555
Na10 O45 2.391403 1_555
Na10 O62 2.431610 1_555
Na10 O24 2.604978 1_554
Na10 O60 2.691848 1_555
Na10 O46 2.703501 1_565
Na10 O9 2.715796 1_555
Na10 O19 2.784632 1_555
Na11 O46 2.459317 1_455
Na11 O61 2.621610 1_555
Na11 O60 2.701804 1_555
Na11 O10 2.707268 1_555
Na11 O47 2.791903 1_555
Na11 O25 2.844078 1_554
Na11 O15 2.936990 1_455
Na12 O41 2.525323 1_555
Na12 O40 2.547251 1_655
Na12 O4 2.567653 1_655
Na12 O55 2.655009 1_555
Na12 O54 2.833198 1_555
Na12 O33 2.907577 1_655
Na12 O19 2.942729 1_556
Na12 O26 3.027768 1_655
Na13 O5 2.251235 1_555
Na13 O56 2.483133 1_555
Na13 O39 2.483369 1_555
Na13 O34 2.630661 1_545
Na13 O55 2.632607 1_555
Na13 O41 2.866100 1_545
Na13 O20 2.976163 1_556
Na14 O3 2.253969 1_555
Na14 O40 2.369193 1_545
Na14 O54 2.531818 1_555
Na14 O56 2.618820 1_555
Na14 O18 2.927104 1_556
Na14 O39 2.984007 1_455
Na14 O35 3.031284 1_555
Na15 O37 2.345343 1_545
Na15 O59 2.535040 1_555
Na15 O2 2.563161 1_555
Na15 O57 2.615684 1_555
Na15 O23 2.616071 1_555
Na15 O38 2.876762 1_655
Na16 O0 2.401159 1_555
Na16 O57 2.434263 1_555
Na16 O38 2.445416 1_555
Na16 O58 2.568864 1_555
Na16 O36 2.761921 1_545
Na16 O31 2.807917 1_545
Na16 O21 2.871561 1_555
Na17 O58 2.531130 1_555
Na17 O22 2.623141 1_555
Na17 O37 2.635733 1_555
Na17 O36 2.703193 1_655
Na17 O27 2.865836 1_555
Na17 O59 2.879927 1_555
Na18 O42 2.271017 1_565
Na18 O44 2.488524 1_555
Na18 O43 2.536219 1_665
Na18 O37 2.643594 1_555
Na18 O36 2.714275 1_655
Na18 O38 2.964929 1_665
Na19 O47 2.384968 1_566
Na19 O40 2.492286 1_555
Na19 O41 2.565384 1_455
Na19 O45 2.583783 1_456
Na19 O46 2.624712 1_466
Na19 O39 2.804010 1_465
Na20 O48 2.295212 1_555
Na20 O49 2.498769 1_555
Na20 O54 2.528110 1_555
Na20 O50 2.710603 1_555
Na20 O56 2.721290 1_555
Na20 O55 2.809390 1_555
Na21 O59 2.405213 1_555
Na21 O53 2.439776 1_555
Na21 O57 2.473290 1_555
Na21 O58 2.485890 1_555
Na21 O52 2.789293 1_555
Na22 O66 2.268965 1_555
Na22 O68 2.522537 1_555
Na22 O67 2.581407 1_555
Na22 O61 2.597731 1_555
Na22 O60 2.695671 1_555
Na23 O71 2.375587 1_555
Na23 O65 2.381202 1_555
Na23 O64 2.587646 1_555
Na23 O69 2.689520 1_555
Na23 O70 2.720870 1_555
Na23 O63 2.981646 1_555
Ca0 O2 2.163394 1_555
Ca0 O0 2.209726 1_655
Ca0 O1 2.216731 1_545
Ca0 O38 2.252534 1_655
Ca0 O37 2.293529 1_545
Ca0 O36 2.446481 1_645
Ca1 O3 2.149451 1_555
Ca1 O5 2.187176 1_455
Ca1 O4 2.216560 1_545
Ca1 O39 2.308995 1_455
Ca1 O40 2.385086 1_545
Ca1 O41 2.556245 1_445
Ca2 O14 2.185078 1_555
Ca2 O12 2.195918 1_555
Ca2 O13 2.223177 1_555
Ca2 O50 2.300961 1_555
Ca2 O49 2.326079 1_555
Ca2 O48 2.326734 1_555
Ca3 O15 2.194539 1_555
Ca3 O16 2.194541 1_555
Ca3 O52 2.235853 1_555
Ca3 O51 2.249970 1_555
Ca3 O53 2.284978 1_555
Ca3 O17 2.363499 1_555
Ca4 O26 2.136199 1_554
Ca4 O25 2.197856 1_554
Ca4 O62 2.259032 1_555
Ca4 O61 2.294191 1_555
Ca4 O24 2.366911 1_554
Ca4 O60 2.474042 1_555
Ca5 O28 2.166918 1_555
Ca5 O27 2.179865 1_555
Ca5 O63 2.247298 1_555
Ca5 O64 2.259387 1_555
Ca5 O65 2.274470 1_555
Ca5 O29 2.354472 1_555
Ga0 O6 1.860984 1_545
Ga0 O42 1.908651 1_555
Ga0 O7 1.946678 1_655
Ga0 O44 2.027451 1_545
Ga1 O11 1.847080 1_555
Ga1 O10 1.906230 1_565
Ga1 O45 1.985931 1_455
Ga1 O9 2.114826 1_455
Ga2 O19 1.883928 1_556
Ga2 O56 1.905081 1_555
Ga2 O55 2.153229 1_555
Ga2 O18 2.162595 1_556
Ga2 O20 2.227860 1_556
Ga2 O54 2.332968 1_555
Ga3 O23 1.851669 1_555
Ga3 O22 1.906167 1_555
Ga3 O57 1.980526 1_555
Ga3 O21 2.081691 1_555
Ga4 O31 1.897342 1_555
Ga4 O66 1.906741 1_555
Ga4 O68 1.969278 1_555
Ga4 O30 2.051529 1_555
Ga5 O71 1.877146 1_555
Ga5 O69 1.905467 1_555
Ga5 O34 1.911278 1_555
Ga5 O70 2.081959 1_555
Ga5 O35 2.426477 1_555
O0 Si0 1.598369 1_545
O1 S0 1.463447 1_555
O2 Si1 1.603208 1_655
O3 Si2 1.612042 1_555
O4 S1 1.474187 1_555
O5 Si3 1.605582 1_545
O6 Si3 1.667723 1_555
O7 Si2 1.704134 1_555
O8 S1 1.470106 1_555
O9 S0 1.521349 1_555
O10 Si1 1.736853 1_555
O11 Si0 1.687286 1_555
O12 Si4 1.598991 1_555
O13 S2 1.468821 1_555
O14 Si5 1.603218 1_555
O15 Si6 1.598845 1_555
O16 S3 1.469615 1_555
O17 S4 1.471659 1_555
O18 S4 1.507183 1_555
O19 Si6 1.719574 1_555
O20 S3 1.503147 1_555
O21 S2 1.518982 1_555
O22 Si5 1.736422 1_555
O23 Si4 1.683594 1_555
O24 S5 1.480939 1_555
O25 S6 1.475691 1_555
O26 Si7 1.609578 1_555
O27 Si8 1.598052 1_555
O28 S7 1.468013 1_555
O29 S8 1.468930 1_555
O30 S8 1.518480 1_555
O31 Si8 1.720830 1_555
O32 S7 1.488119 1_555
O33 S6 1.467450 1_555
O34 Si7 1.708098 1_555
O35 S5 1.479859 1_555
O36 S8 1.491929 1_555
O37 Si8 1.638663 1_555
O38 S7 1.491572 1_555
O39 S6 1.483000 1_655
O40 Si7 1.634860 1_555
O41 S5 1.492203 1_555
O42 Si4 1.676186 1_555
O43 S2 1.477253 1_555
O44 Si5 1.703002 1_555
O45 Si6 1.727357 1_555
O46 S3 1.488476 1_555
O47 S4 1.491546 1_555
O48 Si3 1.627020 1_545
O49 Si2 1.632416 1_555
O50 S1 1.476881 1_655
O51 S0 1.475009 1_555
O52 Si1 1.628447 1_655
O53 Si0 1.631662 1_545
O54 S5 1.523425 1_555
O55 S6 1.531348 1_655
O56 Si7 1.720957 1_545
O57 Si8 1.721556 1_545
O58 S7 1.497607 1_555
O59 S8 1.486616 1_655
O60 S4 1.499575 1_555
O61 Si6 1.642547 1_455
O62 S3 1.490039 1_565
O63 S2 1.480551 1_565
O64 Si5 1.633648 1_555
O65 Si4 1.630214 1_455
O66 Si0 1.678677 1_555
O67 S0 1.488443 1_555
O68 Si1 1.710654 1_555
O69 Si2 1.701584 1_555
O70 S1 1.526092 1_555
O71 Si3 1.690385 1_555
