# generated using pymatgen
data_Pr(GeRh)2
_symmetry_space_group_name_H-M   'P 1'
_cell_length_a   4.17063596
_cell_length_b   4.17063615
_cell_length_c   6.02470814
_cell_angle_alpha   110.25066198
_cell_angle_beta   110.25064860
_cell_angle_gamma   90.00000253
_symmetry_Int_Tables_number   1
_chemical_formula_structural   Pr(GeRh)2
_chemical_formula_sum   'Pr1 Ge2 Rh2'
_cell_volume   91.38167442
_cell_formula_units_Z   1
loop_
 _symmetry_equiv_pos_site_id
 _symmetry_equiv_pos_as_xyz
  1  'x, y, z'
loop_
 _atom_site_type_symbol
 _atom_site_label
 _atom_site_symmetry_multiplicity
 _atom_site_fract_x
 _atom_site_fract_y
 _atom_site_fract_z
 _atom_site_occupancy
  Pr  Pr0  1  -0.00000000  -0.00000000  0.00000000  1
  Ge  Ge0  1  0.62589115  0.62589115  0.25178130  1
  Ge  Ge1  1  0.37410885  0.37410885  0.74821870  1
  Rh  Rh0  1  0.25000000  0.75000000  0.50000000  1
  Rh  Rh1  1  0.75000000  0.25000000  0.50000000  1
loop_
_geom_bond_atom_site_label_1
_geom_bond_atom_site_label_2
_geom_bond_distance
_geom_bond_site_symmetry_2
Pr0 Rh1 3.353885 1_444
Pr0 Rh0 3.353885 1_555
Pr0 Rh0 3.353886 1_444
Pr0 Rh1 3.353886 1_555
Pr0 Rh1 3.353886 1_455
Pr0 Rh0 3.353886 1_544
Pr0 Rh0 3.353886 1_545
Pr0 Rh1 3.353886 1_454
Ge0 Rh1 2.459481 1_565
Ge0 Rh0 2.459481 1_655
Ge0 Rh0 2.459485 1_555
Ge0 Rh1 2.459485 1_555
Ge0 Ge1 2.645501 1_554
Ge0 Pr0 3.232144 1_665
Ge0 Pr0 3.232147 1_655
Ge0 Pr0 3.232147 1_565
Ge0 Pr0 3.232149 1_555
Ge1 Rh0 2.459481 1_545
Ge1 Rh1 2.459481 1_455
Ge1 Rh1 2.459485 1_555
Ge1 Rh0 2.459485 1_555
Ge1 Pr0 3.232144 1_556
Ge1 Pr0 3.232147 1_566
Ge1 Pr0 3.232147 1_656
Ge1 Pr0 3.232149 1_666
