# generated using pymatgen
data_KPb2
_symmetry_space_group_name_H-M   'P 1'
_cell_length_a   6.78105709
_cell_length_b   6.78105647
_cell_length_c   10.57013394
_cell_angle_alpha   90.00000000
_cell_angle_beta   90.00000000
_cell_angle_gamma   119.99999790
_symmetry_Int_Tables_number   1
_chemical_formula_structural   KPb2
_chemical_formula_sum   'K4 Pb8'
_cell_volume   420.92613674
_cell_formula_units_Z   4
loop_
 _symmetry_equiv_pos_site_id
 _symmetry_equiv_pos_as_xyz
  1  'x, y, z'
loop_
 _atom_site_type_symbol
 _atom_site_label
 _atom_site_symmetry_multiplicity
 _atom_site_fract_x
 _atom_site_fract_y
 _atom_site_fract_z
 _atom_site_occupancy
  K  K0  1  0.33333300  0.66666700  0.06572476  1
  K  K1  1  0.66666700  0.33333300  0.56572476  1
  K  K2  1  0.66666700  0.33333300  0.93427524  1
  K  K3  1  0.33333300  0.66666700  0.43427624  1
  Pb  Pb0  1  0.00000000  -0.00000000  -0.00000000  1
  Pb  Pb1  1  0.00000000  -0.00000000  0.50000000  1
  Pb  Pb2  1  0.83141495  0.66282789  0.25000000  1
  Pb  Pb3  1  0.16858505  0.83141495  0.75000000  1
  Pb  Pb4  1  0.66282789  0.83141495  0.75000000  1
  Pb  Pb5  1  0.33717211  0.16858505  0.25000000  1
  Pb  Pb6  1  0.83141495  0.16858505  0.25000000  1
  Pb  Pb7  1  0.16858505  0.33717211  0.75000000  1
loop_
_geom_bond_atom_site_label_1
_geom_bond_atom_site_label_2
_geom_bond_distance
_geom_bond_site_symmetry_2
K0 Pb7 3.857643 1_554
K0 Pb4 3.857643 1_554
K0 Pb3 3.857646 1_554
K0 K3 3.895639 1_555
K0 Pb5 3.910256 1_565
K0 Pb2 3.910256 1_455
K0 Pb6 3.910265 1_565
K0 Pb6 3.910265 1_455
K0 Pb5 3.910273 1_555
K0 Pb2 3.910274 1_555
K0 Pb0 3.976202 1_565
K0 Pb0 3.976208 1_555
K0 Pb0 3.976208 1_665
K0 K2 4.154285 1_564
K0 K2 4.154286 1_454
K0 K2 4.154296 1_554
K1 Pb2 3.857643 1_555
K1 Pb5 3.857643 1_555
K1 Pb6 3.857646 1_555
K1 K2 3.895628 1_555
K1 Pb4 3.910256 1_545
K1 Pb7 3.910256 1_655
K1 Pb3 3.910265 1_545
K1 Pb3 3.910265 1_655
K1 Pb4 3.910273 1_555
K1 Pb7 3.910274 1_555
K1 Pb1 3.976202 1_655
K1 Pb1 3.976208 1_665
K1 Pb1 3.976208 1_555
K1 K3 4.154282 1_545
K1 K3 4.154282 1_655
K1 K3 4.154293 1_555
K2 Pb2 3.857643 1_556
K2 Pb5 3.857643 1_556
K2 Pb6 3.857646 1_556
K2 Pb4 3.910256 1_545
K2 Pb7 3.910256 1_655
K2 Pb3 3.910265 1_545
K2 Pb3 3.910265 1_655
K2 Pb4 3.910273 1_555
K2 Pb7 3.910274 1_555
K2 Pb0 3.976202 1_656
K2 Pb0 3.976208 1_666
K2 Pb0 3.976208 1_556
K3 Pb7 3.857634 1_555
K3 Pb4 3.857634 1_555
K3 Pb3 3.857637 1_555
K3 Pb5 3.910261 1_565
K3 Pb2 3.910261 1_455
K3 Pb6 3.910270 1_565
K3 Pb6 3.910270 1_455
K3 Pb5 3.910279 1_555
K3 Pb2 3.910279 1_555
K3 Pb1 3.976200 1_565
K3 Pb1 3.976206 1_555
K3 Pb1 3.976206 1_665
Pb0 Pb6 3.302060 1_455
Pb0 Pb3 3.302060 1_544
Pb0 Pb2 3.302067 1_445
Pb0 Pb7 3.302067 1_554
Pb0 Pb5 3.302067 1_555
Pb0 Pb4 3.302067 1_444
Pb1 Pb3 3.302060 1_545
Pb1 Pb6 3.302060 1_455
Pb1 Pb7 3.302067 1_555
Pb1 Pb2 3.302067 1_445
Pb1 Pb4 3.302067 1_445
Pb1 Pb5 3.302067 1_555
Pb2 Pb6 3.351489 1_555
Pb2 Pb5 3.351489 1_555
Pb2 Pb6 3.429568 1_565
Pb2 Pb5 3.429568 1_665
Pb3 Pb7 3.351489 1_555
Pb3 Pb4 3.351489 1_555
Pb3 Pb7 3.429568 1_565
Pb3 Pb4 3.429568 1_455
Pb4 Pb7 3.351489 1_555
Pb4 Pb7 3.429568 1_665
Pb5 Pb6 3.351489 1_555
Pb5 Pb6 3.429568 1_455
