# generated using pymatgen
data_Rb2AgCl3
_symmetry_space_group_name_H-M   'P 1'
_cell_length_a   4.48884574
_cell_length_b   9.21979032
_cell_length_c   17.87957182
_cell_angle_alpha   90.00000000
_cell_angle_beta   90.00000000
_cell_angle_gamma   90.00000000
_symmetry_Int_Tables_number   1
_chemical_formula_structural   Rb2AgCl3
_chemical_formula_sum   'Rb8 Ag4 Cl12'
_cell_volume   739.96783030
_cell_formula_units_Z   4
loop_
 _symmetry_equiv_pos_site_id
 _symmetry_equiv_pos_as_xyz
  1  'x, y, z'
loop_
 _atom_site_type_symbol
 _atom_site_label
 _atom_site_symmetry_multiplicity
 _atom_site_fract_x
 _atom_site_fract_y
 _atom_site_fract_z
 _atom_site_occupancy
  Rb  Rb0  1  0.75000000  0.57930079  0.21351218  1
  Rb  Rb1  1  0.75000000  0.24096279  0.54331661  1
  Rb  Rb2  1  0.25000000  0.25903721  0.04331661  1
  Rb  Rb3  1  0.75000000  0.74096279  0.95668339  1
  Rb  Rb4  1  0.75000000  0.07930079  0.28648782  1
  Rb  Rb5  1  0.25000000  0.92069921  0.71351218  1
  Rb  Rb6  1  0.25000000  0.42069921  0.78648782  1
  Rb  Rb7  1  0.25000000  0.75903721  0.45668339  1
  Ag  Ag0  1  0.25000000  0.37754825  0.36851631  1
  Ag  Ag1  1  0.75000000  0.62245175  0.63148369  1
  Ag  Ag2  1  0.25000000  0.87754825  0.13148369  1
  Ag  Ag3  1  0.75000000  0.12245175  0.86851631  1
  Cl  Cl0  1  0.75000000  0.50587972  0.40191022  1
  Cl  Cl1  1  0.25000000  0.49412028  0.59808978  1
  Cl  Cl2  1  0.75000000  0.00587972  0.09808978  1
  Cl  Cl3  1  0.25000000  0.99412028  0.90191022  1
  Cl  Cl4  1  0.25000000  0.31663297  0.22649332  1
  Cl  Cl5  1  0.75000000  0.68336703  0.77350668  1
  Cl  Cl6  1  0.25000000  0.81663297  0.27350668  1
  Cl  Cl7  1  0.75000000  0.18336703  0.72649332  1
  Cl  Cl8  1  0.25000000  0.12162694  0.42697096  1
  Cl  Cl9  1  0.75000000  0.37837306  0.92697096  1
  Cl  Cl10  1  0.25000000  0.62162694  0.07302904  1
  Cl  Cl11  1  0.75000000  0.87837306  0.57302904  1
loop_
_geom_bond_atom_site_label_1
_geom_bond_atom_site_label_2
_geom_bond_distance
_geom_bond_site_symmetry_2
Ag0 Cl8 2.580651 1_555
Ag0 Cl4 2.600677 1_555
Ag0 Cl0 2.606504 1_455
Ag0 Cl0 2.606504 1_555
Ag1 Cl11 2.580651 1_555
Ag1 Cl5 2.600677 1_555
Ag1 Cl1 2.606504 1_655
Ag1 Cl1 2.606504 1_555
Ag2 Cl10 2.580651 1_555
Ag2 Cl6 2.600677 1_555
Ag2 Cl2 2.606504 1_465
Ag2 Cl2 2.606504 1_565
Ag3 Cl9 2.580651 1_555
Ag3 Cl7 2.600677 1_555
Ag3 Cl3 2.606504 1_545
Ag3 Cl3 2.606504 1_645
Cl0 Rb7 3.382948 1_555
Cl0 Rb7 3.382948 1_655
Cl0 Rb0 3.435820 1_555
Cl0 Rb1 3.515385 1_555
Cl1 Rb1 3.382948 1_555
Cl1 Rb1 3.382948 1_455
Cl1 Rb6 3.435820 1_555
Cl1 Rb7 3.515385 1_555
Cl2 Rb2 3.382948 1_655
Cl2 Rb2 3.382948 1_555
Cl2 Rb4 3.435820 1_555
Cl2 Rb3 3.515385 1_544
Cl3 Rb3 3.382948 1_455
Cl3 Rb3 3.382948 1_555
Cl3 Rb5 3.435820 1_555
Cl3 Rb2 3.515385 1_566
Cl4 Rb0 3.310006 1_455
Cl4 Rb0 3.310006 1_555
Cl4 Rb4 3.313017 1_455
Cl4 Rb4 3.313017 1_555
Cl4 Rb2 3.317891 1_555
Cl5 Rb6 3.310006 1_655
Cl5 Rb6 3.310006 1_555
Cl5 Rb5 3.313017 1_555
Cl5 Rb5 3.313017 1_655
Cl5 Rb3 3.317891 1_555
Cl6 Rb4 3.310006 1_565
Cl6 Rb4 3.310006 1_465
Cl6 Rb0 3.313017 1_555
Cl6 Rb0 3.313017 1_455
Cl6 Rb7 3.317891 1_555
Cl7 Rb5 3.310006 1_645
Cl7 Rb5 3.310006 1_545
Cl7 Rb6 3.313017 1_555
Cl7 Rb6 3.313017 1_655
Cl7 Rb1 3.317891 1_555
Cl8 Rb1 3.251963 1_555
Cl8 Rb1 3.251963 1_455
Cl8 Rb7 3.384949 1_545
Cl8 Rb4 3.390981 1_455
Cl8 Rb4 3.390981 1_555
Cl9 Rb2 3.251963 1_656
Cl9 Rb2 3.251963 1_556
Cl9 Rb3 3.384949 1_555
Cl9 Rb6 3.390981 1_655
Cl9 Rb6 3.390981 1_555
Cl10 Rb3 3.251963 1_554
Cl10 Rb3 3.251963 1_454
Cl10 Rb2 3.384949 1_555
Cl10 Rb0 3.390981 1_455
Cl10 Rb0 3.390981 1_555
Cl11 Rb7 3.251963 1_655
Cl11 Rb7 3.251963 1_555
Cl11 Rb1 3.384949 1_565
Cl11 Rb5 3.390981 1_555
Cl11 Rb5 3.390981 1_655
