# generated using pymatgen
data_CsMoF7
_symmetry_space_group_name_H-M   'P 1'
_cell_length_a   10.55883315
_cell_length_b   10.55883315
_cell_length_c   10.55883315
_cell_angle_alpha   90.00000000
_cell_angle_beta   90.00000000
_cell_angle_gamma   90.00000000
_symmetry_Int_Tables_number   1
_chemical_formula_structural   CsMoF7
_chemical_formula_sum   'Cs8 Mo8 F56'
_cell_volume   1177.19330020
_cell_formula_units_Z   8
loop_
 _symmetry_equiv_pos_site_id
 _symmetry_equiv_pos_as_xyz
  1  'x, y, z'
loop_
 _atom_site_type_symbol
 _atom_site_label
 _atom_site_symmetry_multiplicity
 _atom_site_fract_x
 _atom_site_fract_y
 _atom_site_fract_z
 _atom_site_occupancy
  Cs  Cs0  1  -0.00000000  0.50000000  -0.00000000  1
  Cs  Cs1  1  -0.00000000  0.00000000  0.50000000  1
  Cs  Cs2  1  0.50000000  0.50000000  0.50000000  1
  Cs  Cs3  1  0.50000000  0.00000000  -0.00000000  1
  Cs  Cs4  1  -0.00000000  0.00000000  -0.00000000  1
  Cs  Cs5  1  -0.00000000  0.50000000  0.50000000  1
  Cs  Cs6  1  0.50000000  0.00000000  0.50000000  1
  Cs  Cs7  1  0.50000000  0.50000000  -0.00000000  1
  Mo  Mo0  1  0.77624700  0.22375300  0.72375300  1
  Mo  Mo1  1  0.22375300  0.72375300  0.77624700  1
  Mo  Mo2  1  0.72375300  0.77624700  0.22375300  1
  Mo  Mo3  1  0.27624700  0.27624700  0.27624700  1
  Mo  Mo4  1  0.22375300  0.77624700  0.27624700  1
  Mo  Mo5  1  0.77624700  0.27624700  0.22375300  1
  Mo  Mo6  1  0.27624700  0.22375300  0.77624700  1
  Mo  Mo7  1  0.72375300  0.72375300  0.72375300  1
  F  F0  1  0.88431985  0.35690725  0.76984941  1
  F  F1  1  0.11568015  0.85690725  0.73015059  1
  F  F2  1  0.61568015  0.64309275  0.26984941  1
  F  F3  1  0.38431985  0.14309275  0.23015059  1
  F  F4  1  0.76984941  0.88431985  0.35690725  1
  F  F5  1  0.73015059  0.11568015  0.85690725  1
  F  F6  1  0.26984941  0.61568015  0.64309275  1
  F  F7  1  0.23015059  0.38431985  0.14309275  1
  F  F8  1  0.35690725  0.76984941  0.88431985  1
  F  F9  1  0.85690725  0.73015059  0.11568015  1
  F  F10  1  0.64309275  0.26984941  0.61568015  1
  F  F11  1  0.14309275  0.23015059  0.38431985  1
  F  F12  1  0.11568015  0.64309275  0.23015059  1
  F  F13  1  0.88431985  0.14309275  0.26984941  1
  F  F14  1  0.38431985  0.35690725  0.73015059  1
  F  F15  1  0.61568015  0.85690725  0.76984941  1
  F  F16  1  0.23015059  0.11568015  0.64309275  1
  F  F17  1  0.26984941  0.88431985  0.14309275  1
  F  F18  1  0.73015059  0.38431985  0.35690725  1
  F  F19  1  0.76984941  0.61568015  0.85690725  1
  F  F20  1  0.64309275  0.23015059  0.11568015  1
  F  F21  1  0.14309275  0.26984941  0.88431985  1
  F  F22  1  0.35690725  0.73015059  0.38431985  1
  F  F23  1  0.85690725  0.76984941  0.61568015  1
  F  F24  1  0.93144035  0.13567991  0.75605667  1
  F  F25  1  0.06855965  0.63567991  0.74394333  1
  F  F26  1  0.56855965  0.86432009  0.25605667  1
  F  F27  1  0.43144035  0.36432009  0.24394333  1
  F  F28  1  0.75605667  0.93144035  0.13567991  1
  F  F29  1  0.74394333  0.06855965  0.63567991  1
  F  F30  1  0.25605667  0.56855965  0.86432009  1
  F  F31  1  0.24394333  0.43144035  0.36432009  1
  F  F32  1  0.13567991  0.75605667  0.93144035  1
  F  F33  1  0.63567991  0.74394333  0.06855965  1
  F  F34  1  0.86432009  0.25605667  0.56855965  1
  F  F35  1  0.36432009  0.24394333  0.43144035  1
  F  F36  1  0.06855965  0.86432009  0.24394333  1
  F  F37  1  0.93144035  0.36432009  0.25605667  1
  F  F38  1  0.43144035  0.13567991  0.74394333  1
  F  F39  1  0.56855965  0.63567991  0.75605667  1
  F  F40  1  0.24394333  0.06855965  0.86432009  1
  F  F41  1  0.25605667  0.93144035  0.36432009  1
  F  F42  1  0.74394333  0.43144035  0.13567991  1
  F  F43  1  0.75605667  0.56855965  0.63567991  1
  F  F44  1  0.86432009  0.24394333  0.06855965  1
  F  F45  1  0.36432009  0.25605667  0.93144035  1
  F  F46  1  0.13567991  0.74394333  0.43144035  1
  F  F47  1  0.63567991  0.75605667  0.56855965  1
  F  F48  1  0.67350390  0.32649610  0.82649610  1
  F  F49  1  0.32649610  0.82649610  0.67350390  1
  F  F50  1  0.82649610  0.67350390  0.32649610  1
  F  F51  1  0.17350390  0.17350390  0.17350390  1
  F  F52  1  0.32649610  0.67350390  0.17350390  1
  F  F53  1  0.67350390  0.17350390  0.32649610  1
  F  F54  1  0.17350390  0.32649610  0.67350390  1
  F  F55  1  0.82649610  0.82649610  0.82649610  1
loop_
_geom_bond_atom_site_label_1
_geom_bond_atom_site_label_2
_geom_bond_distance
_geom_bond_site_symmetry_2
Cs0 F0 3.111305 1_454
Cs0 F19 3.111305 1_454
Cs0 F21 3.111305 1_554
Cs0 F12 3.111305 1_555
Cs0 F7 3.111305 1_555
Cs0 F9 3.111305 1_455
Cs0 F30 3.144237 1_554
Cs0 F42 3.144237 1_455
Cs0 F25 3.144237 1_554
Cs0 F44 3.144237 1_455
Cs0 F32 3.144237 1_554
Cs0 F37 3.144237 1_455
Cs1 F23 3.111305 1_445
Cs1 F4 3.111305 1_445
Cs1 F11 3.111305 1_555
Cs1 F13 3.111305 1_455
Cs1 F16 3.111305 1_555
Cs1 F1 3.111305 1_545
Cs1 F41 3.144237 1_545
Cs1 F34 3.144237 1_455
Cs1 F29 3.144237 1_455
Cs1 F36 3.144237 1_545
Cs1 F24 3.144237 1_455
Cs1 F46 3.144237 1_545
Cs2 F2 3.111305 1_555
Cs2 F6 3.111305 1_555
Cs2 F10 3.111305 1_555
Cs2 F22 3.111305 1_555
Cs2 F14 3.111305 1_555
Cs2 F18 3.111305 1_555
Cs2 F43 3.144237 1_555
Cs2 F31 3.144237 1_555
Cs2 F39 3.144237 1_555
Cs2 F47 3.144237 1_555
Cs2 F35 3.144237 1_555
Cs2 F27 3.144237 1_555
Cs3 F15 3.111305 1_544
Cs3 F8 3.111305 1_544
Cs3 F17 3.111305 1_545
Cs3 F3 3.111305 1_555
Cs3 F20 3.111305 1_555
Cs3 F5 3.111305 1_554
Cs3 F28 3.144237 1_545
Cs3 F40 3.144237 1_554
Cs3 F38 3.144237 1_554
Cs3 F26 3.144237 1_545
Cs3 F33 3.144237 1_545
Cs3 F45 3.144237 1_554
Cs4 F40 3.034959 1_554
Cs4 F44 3.034959 1_455
Cs4 F28 3.034959 1_445
Cs4 F36 3.034959 1_545
Cs4 F24 3.034959 1_454
Cs4 F32 3.034959 1_544
Cs4 F51 3.173115 1_555
Cs4 F55 3.173115 1_444
Cs5 F37 3.034959 1_455
Cs5 F46 3.034959 1_555
Cs5 F34 3.034959 1_455
Cs5 F31 3.034959 1_555
Cs5 F43 3.034959 1_455
Cs5 F25 3.034959 1_555
Cs5 F50 3.173115 1_455
Cs5 F54 3.173115 1_555
Cs6 F41 3.034959 1_545
Cs6 F47 3.034959 1_545
Cs6 F38 3.034959 1_555
Cs6 F26 3.034959 1_545
Cs6 F29 3.034959 1_555
Cs6 F35 3.034959 1_555
Cs6 F53 3.173115 1_555
Cs6 F49 3.173115 1_545
Cs7 F30 3.034959 1_554
Cs7 F27 3.034959 1_555
Cs7 F39 3.034959 1_554
Cs7 F45 3.034959 1_554
Cs7 F33 3.034959 1_555
Cs7 F42 3.034959 1_555
Cs7 F48 3.173115 1_554
Cs7 F52 3.173115 1_555
F0 Mo0 1.875038 1_555
F1 Mo1 1.875038 1_555
F2 Mo2 1.875038 1_555
F3 Mo3 1.875038 1_555
F4 Mo2 1.875038 1_555
F5 Mo0 1.875038 1_555
F6 Mo1 1.875038 1_555
F7 Mo3 1.875038 1_555
F8 Mo1 1.875038 1_555
F9 Mo2 1.875038 1_555
F10 Mo0 1.875038 1_555
F11 Mo3 1.875038 1_555
F12 Mo4 1.875038 1_555
F13 Mo5 1.875038 1_555
F14 Mo6 1.875038 1_555
F15 Mo7 1.875038 1_555
F16 Mo6 1.875038 1_555
F17 Mo4 1.875038 1_555
F18 Mo5 1.875038 1_555
F19 Mo7 1.875038 1_555
F20 Mo5 1.875038 1_555
F21 Mo6 1.875038 1_555
F22 Mo4 1.875038 1_555
F23 Mo7 1.875038 1_555
F24 Mo0 1.914773 1_555
F25 Mo1 1.914773 1_555
F26 Mo2 1.914773 1_555
F27 Mo3 1.914773 1_555
F28 Mo2 1.914773 1_555
F29 Mo0 1.914773 1_555
F30 Mo1 1.914773 1_555
F31 Mo3 1.914773 1_555
F32 Mo1 1.914773 1_555
F33 Mo2 1.914773 1_555
F34 Mo0 1.914773 1_555
F35 Mo3 1.914773 1_555
F36 Mo4 1.914773 1_555
F37 Mo5 1.914773 1_555
F38 Mo6 1.914773 1_555
F39 Mo7 1.914773 1_555
F40 Mo6 1.914773 1_555
F41 Mo4 1.914773 1_555
F42 Mo5 1.914773 1_555
F43 Mo7 1.914773 1_555
F44 Mo5 1.914773 1_555
F45 Mo6 1.914773 1_555
F46 Mo4 1.914773 1_555
F47 Mo7 1.914773 1_555
F48 Mo0 1.879011 1_555
F49 Mo1 1.879011 1_555
F50 Mo2 1.879011 1_555
F51 Mo3 1.879011 1_555
F52 Mo4 1.879011 1_555
F53 Mo5 1.879011 1_555
F54 Mo6 1.879011 1_555
F55 Mo7 1.879011 1_555
