# generated using pymatgen
data_Cs3Mo2Br9
_symmetry_space_group_name_H-M   'P 1'
_cell_length_a   7.73463204
_cell_length_b   7.73456932
_cell_length_c   18.77806589
_cell_angle_alpha   89.99967310
_cell_angle_beta   90.00005071
_cell_angle_gamma   120.00080207
_symmetry_Int_Tables_number   1
_chemical_formula_structural   Cs3Mo2Br9
_chemical_formula_sum   'Cs6 Mo4 Br18'
_cell_volume   972.86767610
_cell_formula_units_Z   2
loop_
 _symmetry_equiv_pos_site_id
 _symmetry_equiv_pos_as_xyz
  1  'x, y, z'
loop_
 _atom_site_type_symbol
 _atom_site_label
 _atom_site_symmetry_multiplicity
 _atom_site_fract_x
 _atom_site_fract_y
 _atom_site_fract_z
 _atom_site_occupancy
  Cs  Cs0  1  0.66666839  0.33333462  0.93030347  1
  Cs  Cs1  1  0.33333171  0.66666256  0.43026254  1
  Cs  Cs2  1  0.66666474  0.33333800  0.56971924  1
  Cs  Cs3  1  0.33333406  0.66667007  0.06971544  1
  Cs  Cs4  1  0.00000167  0.00000371  0.75002756  1
  Cs  Cs5  1  0.00000010  0.00000236  0.24997634  1
  Mo  Mo0  1  0.33334103  0.66666190  0.67434631  1
  Mo  Mo1  1  0.66666517  0.33333919  0.17427378  1
  Mo  Mo2  1  0.66665283  0.33332236  0.32564590  1
  Mo  Mo3  1  0.33334049  0.66666654  0.82573396  1
  Br  Br0  1  0.82339389  0.64683322  0.09499336  1
  Br  Br1  1  0.17663887  0.82342033  0.59503046  1
  Br  Br2  1  0.64681372  0.82341742  0.59502276  1
  Br  Br3  1  0.35316369  0.17657566  0.09500045  1
  Br  Br4  1  0.82342419  0.17660480  0.09499538  1
  Br  Br5  1  0.17657174  0.35315917  0.90500723  1
  Br  Br6  1  0.17660378  0.82343578  0.90500955  1
  Br  Br7  1  0.17658144  0.35320043  0.59501101  1
  Br  Br8  1  0.64685607  0.82341450  0.90500639  1
  Br  Br9  1  0.35319246  0.17657902  0.40496612  1
  Br  Br10  1  0.82339157  0.64678356  0.40496625  1
  Br  Br11  1  0.82335521  0.17656197  0.40496543  1
  Br  Br12  1  0.50200831  0.00394491  0.24996754  1
  Br  Br13  1  0.49799225  0.50194448  0.75003748  1
  Br  Br14  1  0.00395879  0.50201664  0.75003887  1
  Br  Br15  1  -0.00394187  0.49805528  0.24997199  1
  Br  Br16  1  0.50193777  0.49800420  0.24996940  1
  Br  Br17  1  0.49806193  -0.00395167  0.75003978  1
loop_
_geom_bond_atom_site_label_1
_geom_bond_atom_site_label_2
_geom_bond_distance
_geom_bond_site_symmetry_2
Br0 Mo1 2.574052 1_555
Br0 Cs0 3.738125 1_554
Br0 Cs5 3.750467 1_665
Br0 Cs3 3.898436 1_555
Br0 Cs3 3.898768 1_655
Br1 Mo0 2.574285 1_555
Br1 Cs1 3.739172 1_555
Br1 Cs4 3.750910 1_565
Br1 Cs2 3.898409 1_565
Br1 Cs2 3.898849 1_455
Br2 Mo0 2.574423 1_555
Br2 Cs1 3.739158 1_555
Br2 Cs4 3.750869 1_665
Br2 Cs2 3.898590 1_565
Br2 Cs2 3.898676 1_555
Br3 Mo1 2.574040 1_555
Br3 Cs0 3.738253 1_554
Br3 Cs5 3.750337 1_555
Br3 Cs3 3.898515 1_545
Br3 Cs3 3.898656 1_555
Br4 Mo1 2.574067 1_555
Br4 Cs0 3.738109 1_554
Br4 Cs5 3.750482 1_655
Br4 Cs3 3.898450 1_655
Br4 Cs3 3.898643 1_545
Br5 Mo3 2.574047 1_555
Br5 Cs3 3.738456 1_556
Br5 Cs4 3.750361 1_555
Br5 Cs0 3.898572 1_455
Br5 Cs0 3.898711 1_555
Br6 Mo3 2.574105 1_555
Br6 Cs3 3.738365 1_556
Br6 Cs4 3.750462 1_565
Br6 Cs0 3.898437 1_565
Br6 Cs0 3.898716 1_455
Br7 Mo0 2.574485 1_555
Br7 Cs1 3.738877 1_555
Br7 Cs4 3.751050 1_555
Br7 Cs2 3.898527 1_455
Br7 Cs2 3.898753 1_555
Br8 Mo3 2.574107 1_555
Br8 Cs3 3.738506 1_556
Br8 Cs4 3.750304 1_665
Br8 Cs0 3.898502 1_555
Br8 Cs0 3.898717 1_565
Br9 Mo2 2.574319 1_555
Br9 Cs2 3.739011 1_555
Br9 Cs5 3.750669 1_555
Br9 Cs1 3.898507 1_545
Br9 Cs1 3.898731 1_555
Br10 Mo2 2.574321 1_555
Br10 Cs2 3.738884 1_555
Br10 Cs5 3.750755 1_665
Br10 Cs1 3.898651 1_555
Br10 Cs1 3.898657 1_655
Br11 Mo2 2.574337 1_555
Br11 Cs2 3.739012 1_555
Br11 Cs5 3.750725 1_655
Br11 Cs1 3.898294 1_545
Br11 Cs1 3.898892 1_655
Br12 Mo2 2.624336 1_555
Br12 Mo1 2.624572 1_555
Br12 Cs5 3.867121 1_655
Br12 Cs5 3.867692 1_555
Br12 Cs3 4.069481 1_545
Br12 Cs1 4.070156 1_545
Br13 Mo0 2.624434 1_555
Br13 Mo3 2.624527 1_555
Br13 Cs4 3.867078 1_555
Br13 Cs4 3.867610 1_665
Br13 Cs0 4.069741 1_555
Br13 Cs2 4.070546 1_555
Br14 Mo0 2.624512 1_555
Br14 Mo3 2.624540 1_555
Br14 Cs4 3.867110 1_565
Br14 Cs4 3.867641 1_555
Br14 Cs0 4.069729 1_455
Br14 Cs2 4.070610 1_455
Br15 Mo2 2.624452 1_455
Br15 Mo1 2.624635 1_455
Br15 Cs5 3.867189 1_565
Br15 Cs5 3.867560 1_555
Br15 Cs3 4.069549 1_555
Br15 Cs1 4.070080 1_555
Br16 Mo2 2.624444 1_555
Br16 Mo1 2.624623 1_555
Br16 Cs5 3.867110 1_555
Br16 Cs5 3.867577 1_665
Br16 Cs3 4.069492 1_555
Br16 Cs1 4.070099 1_555
Br17 Mo3 2.624506 1_545
Br17 Mo0 2.624540 1_545
Br17 Cs4 3.867113 1_655
Br17 Cs4 3.867701 1_555
Br17 Cs0 4.069705 1_555
Br17 Cs2 4.070582 1_555
