# generated using pymatgen
data_Na
_symmetry_space_group_name_H-M   'P 1'
_cell_length_a   7.44819170
_cell_length_b   7.47673214
_cell_length_c   24.98515412
_cell_angle_alpha   90.00000000
_cell_angle_beta   90.00000000
_cell_angle_gamma   119.87377991
_symmetry_Int_Tables_number   1
_chemical_formula_structural   Na
_chemical_formula_sum   Na32
_cell_volume   1206.49714284
_cell_formula_units_Z   32
loop_
 _symmetry_equiv_pos_site_id
 _symmetry_equiv_pos_as_xyz
  1  'x, y, z'
loop_
 _atom_site_type_symbol
 _atom_site_label
 _atom_site_symmetry_multiplicity
 _atom_site_fract_x
 _atom_site_fract_y
 _atom_site_fract_z
 _atom_site_occupancy
  Na  Na0_0  1  0.16387470  0.32774889  0.12500000  1
  Na  Na0_1  1  0.16387470  0.32774889  0.62500000  1
  Na  Na0_2  1  0.16387469  0.82774889  0.12500000  1
  Na  Na0_3  1  0.16387469  0.82774889  0.62500000  1
  Na  Na0_4  1  0.66387470  0.32774889  0.12500000  1
  Na  Na0_5  1  0.66387470  0.32774889  0.62500000  1
  Na  Na0_6  1  0.66387469  0.82774889  0.12500000  1
  Na  Na0_7  1  0.66387469  0.82774889  0.62500000  1
  Na  Na1_0  1  0.33612530  0.17225111  0.37500000  1
  Na  Na1_1  1  0.33612530  0.17225111  0.87500000  1
  Na  Na1_2  1  0.33612530  0.67225110  0.37500000  1
  Na  Na1_3  1  0.33612530  0.67225110  0.87500000  1
  Na  Na1_4  1  0.83612530  0.17225111  0.37500000  1
  Na  Na1_5  1  0.83612530  0.17225111  0.87500000  1
  Na  Na1_6  1  0.83612530  0.67225110  0.37500000  1
  Na  Na1_7  1  0.83612530  0.67225110  0.87500000  1
  Na  Na2_0  1  0.00000000  0.00000000  0.25000000  1
  Na  Na2_1  1  0.00000000  0.00000000  0.75000000  1
  Na  Na2_2  1  0.00000000  0.50000000  0.25000000  1
  Na  Na2_3  1  0.00000000  0.50000000  0.75000000  1
  Na  Na2_4  1  0.50000000  0.00000000  0.25000000  1
  Na  Na2_5  1  0.50000000  0.00000000  0.75000000  1
  Na  Na2_6  1  0.50000000  0.50000000  0.25000000  1
  Na  Na2_7  1  0.50000000  0.50000000  0.75000000  1
  Na  Na3_0  1  0.00000000  0.00000000  0.00000000  1
  Na  Na3_1  1  0.00000000  0.00000000  0.50000000  1
  Na  Na3_2  1  0.00000000  0.50000000  0.00000000  1
  Na  Na3_3  1  0.00000000  0.50000000  0.50000000  1
  Na  Na3_4  1  0.50000000  0.00000000  0.00000000  1
  Na  Na3_5  1  0.50000000  0.00000000  0.50000000  1
  Na  Na3_6  1  0.50000000  0.50000000  0.00000000  1
  Na  Na3_7  1  0.50000000  0.50000000  0.50000000  1
loop_
_geom_bond_atom_site_label_1
_geom_bond_atom_site_label_2
_geom_bond_distance
_geom_bond_site_symmetry_2
Na0_0 Na0_4 3.724096 1_455
Na0_0 Na0_4 3.724096 1_555
Na0_0 Na0_2 3.738366 1_555
Na0_0 Na0_2 3.738366 1_545
Na0_0 Na0_6 3.738368 1_555
Na0_0 Na0_6 3.738368 1_445
Na0_0 Na3_0 3.777453 1_555
Na0_0 Na2_0 3.777453 1_555
Na0_0 Na2_6 3.803732 1_555
Na0_0 Na3_6 3.803732 1_555
Na0_0 Na3_2 3.803733 1_555
Na0_0 Na2_2 3.803733 1_555
Na0_1 Na0_5 3.724096 1_455
Na0_1 Na0_5 3.724096 1_555
Na0_1 Na0_3 3.738366 1_555
Na0_1 Na0_3 3.738366 1_545
Na0_1 Na0_7 3.738368 1_555
Na0_1 Na0_7 3.738368 1_445
Na0_1 Na2_1 3.777453 1_555
Na0_1 Na3_1 3.777453 1_555
Na0_1 Na3_7 3.803732 1_555
Na0_1 Na2_7 3.803732 1_555
Na0_1 Na3_3 3.803733 1_555
Na0_1 Na2_3 3.803733 1_555
Na0_2 Na0_6 3.724096 1_555
Na0_2 Na0_6 3.724096 1_455
Na0_2 Na0_4 3.738368 1_455
Na0_2 Na0_4 3.738368 1_565
Na0_2 Na3_2 3.777453 1_555
Na0_2 Na2_2 3.777453 1_555
Na0_2 Na2_4 3.803732 1_565
Na0_2 Na3_4 3.803732 1_565
Na0_2 Na3_0 3.803733 1_565
Na0_2 Na2_0 3.803733 1_565
Na0_3 Na0_7 3.724096 1_555
Na0_3 Na0_7 3.724096 1_455
Na0_3 Na0_5 3.738368 1_455
Na0_3 Na0_5 3.738368 1_565
Na0_3 Na2_3 3.777453 1_555
Na0_3 Na3_3 3.777453 1_555
Na0_3 Na3_5 3.803732 1_565
Na0_3 Na2_5 3.803732 1_565
Na0_3 Na2_1 3.803733 1_565
Na0_3 Na3_1 3.803733 1_565
Na0_4 Na0_6 3.738366 1_545
Na0_4 Na0_6 3.738366 1_555
Na0_4 Na2_4 3.777453 1_555
Na0_4 Na3_4 3.777453 1_555
Na0_4 Na3_2 3.803732 1_655
Na0_4 Na2_2 3.803732 1_655
Na0_4 Na2_6 3.803733 1_555
Na0_4 Na3_6 3.803733 1_555
Na0_5 Na0_7 3.738366 1_545
Na0_5 Na0_7 3.738366 1_555
Na0_5 Na2_5 3.777453 1_555
Na0_5 Na3_5 3.777453 1_555
Na0_5 Na3_3 3.803732 1_655
Na0_5 Na2_3 3.803732 1_655
Na0_5 Na3_7 3.803733 1_555
Na0_5 Na2_7 3.803733 1_555
Na0_6 Na3_6 3.777453 1_555
Na0_6 Na2_6 3.777453 1_555
Na0_6 Na2_0 3.803732 1_665
Na0_6 Na3_0 3.803732 1_665
Na0_6 Na2_4 3.803733 1_565
Na0_6 Na3_4 3.803733 1_565
Na0_7 Na3_7 3.777453 1_555
Na0_7 Na2_7 3.777453 1_555
Na0_7 Na2_1 3.803732 1_665
Na0_7 Na3_1 3.803732 1_665
Na0_7 Na2_5 3.803733 1_565
Na0_7 Na3_5 3.803733 1_565
Na1_0 Na1_4 3.724096 1_555
Na1_0 Na1_4 3.724096 1_455
Na1_0 Na1_2 3.738366 1_555
Na1_0 Na1_2 3.738366 1_545
Na1_0 Na1_6 3.738368 1_555
Na1_0 Na1_6 3.738368 1_445
Na1_0 Na3_7 3.777453 1_555
Na1_0 Na2_6 3.777453 1_555
Na1_0 Na3_1 3.803732 1_555
Na1_0 Na2_0 3.803732 1_555
Na1_0 Na2_4 3.803733 1_555
Na1_0 Na3_5 3.803733 1_555
Na1_1 Na1_5 3.724096 1_555
Na1_1 Na1_5 3.724096 1_455
Na1_1 Na1_3 3.738366 1_555
Na1_1 Na1_3 3.738366 1_545
Na1_1 Na1_7 3.738368 1_555
Na1_1 Na1_7 3.738368 1_445
Na1_1 Na2_7 3.777453 1_555
Na1_1 Na3_6 3.777453 1_556
Na1_1 Na3_0 3.803732 1_556
Na1_1 Na2_1 3.803732 1_555
Na1_1 Na2_5 3.803733 1_555
Na1_1 Na3_4 3.803733 1_556
Na1_2 Na1_6 3.724096 1_455
Na1_2 Na1_6 3.724096 1_555
Na1_2 Na1_4 3.738368 1_455
Na1_2 Na1_4 3.738368 1_565
Na1_2 Na3_5 3.777453 1_565
Na1_2 Na2_4 3.777453 1_565
Na1_2 Na2_2 3.803732 1_555
Na1_2 Na3_3 3.803732 1_555
Na1_2 Na2_6 3.803733 1_555
Na1_2 Na3_7 3.803733 1_555
Na1_3 Na1_7 3.724096 1_455
Na1_3 Na1_7 3.724096 1_555
Na1_3 Na1_5 3.738368 1_455
Na1_3 Na1_5 3.738368 1_565
Na1_3 Na2_5 3.777453 1_565
Na1_3 Na3_4 3.777453 1_566
Na1_3 Na3_2 3.803732 1_556
Na1_3 Na2_3 3.803732 1_555
Na1_3 Na2_7 3.803733 1_555
Na1_3 Na3_6 3.803733 1_556
Na1_4 Na1_6 3.738366 1_555
Na1_4 Na1_6 3.738366 1_545
Na1_4 Na3_3 3.777453 1_655
Na1_4 Na2_2 3.777453 1_655
Na1_4 Na3_5 3.803732 1_555
Na1_4 Na2_4 3.803732 1_555
Na1_4 Na2_0 3.803733 1_655
Na1_4 Na3_1 3.803733 1_655
Na1_5 Na1_7 3.738366 1_555
Na1_5 Na1_7 3.738366 1_545
Na1_5 Na2_3 3.777453 1_655
Na1_5 Na3_2 3.777453 1_656
Na1_5 Na2_5 3.803732 1_555
Na1_5 Na3_4 3.803732 1_556
Na1_5 Na3_0 3.803733 1_656
Na1_5 Na2_1 3.803733 1_655
Na1_6 Na2_0 3.777453 1_665
Na1_6 Na3_1 3.777453 1_665
Na1_6 Na2_6 3.803732 1_555
Na1_6 Na3_7 3.803732 1_555
Na1_6 Na2_2 3.803733 1_655
Na1_6 Na3_3 3.803733 1_655
Na1_7 Na2_1 3.777453 1_665
Na1_7 Na3_0 3.777453 1_666
Na1_7 Na2_7 3.803732 1_555
Na1_7 Na3_6 3.803732 1_556
Na1_7 Na3_2 3.803733 1_656
Na1_7 Na2_3 3.803733 1_655
Na2_0 Na2_4 3.724096 1_455
Na2_0 Na2_4 3.724096 1_555
Na2_0 Na2_2 3.738366 1_555
Na2_0 Na2_2 3.738366 1_545
Na2_0 Na2_6 3.738368 1_555
Na2_0 Na2_6 3.738368 1_445
Na2_1 Na2_5 3.724096 1_455
Na2_1 Na2_5 3.724096 1_555
Na2_1 Na2_3 3.738366 1_555
Na2_1 Na2_3 3.738366 1_545
Na2_1 Na2_7 3.738368 1_555
Na2_1 Na2_7 3.738368 1_445
Na2_2 Na2_6 3.724096 1_555
Na2_2 Na2_6 3.724096 1_455
Na2_2 Na2_4 3.738368 1_455
Na2_2 Na2_4 3.738368 1_565
Na2_3 Na2_7 3.724096 1_455
Na2_3 Na2_7 3.724096 1_555
Na2_3 Na2_5 3.738368 1_565
Na2_3 Na2_5 3.738368 1_455
Na2_4 Na2_6 3.738366 1_555
Na2_4 Na2_6 3.738366 1_545
Na2_5 Na2_7 3.738366 1_555
Na2_5 Na2_7 3.738366 1_545
Na3_0 Na3_4 3.724096 1_555
Na3_0 Na3_4 3.724096 1_455
Na3_0 Na3_2 3.738366 1_545
Na3_0 Na3_2 3.738366 1_555
Na3_0 Na3_6 3.738368 1_555
Na3_0 Na3_6 3.738368 1_445
Na3_1 Na3_5 3.724096 1_555
Na3_1 Na3_5 3.724096 1_455
Na3_1 Na3_3 3.738366 1_545
Na3_1 Na3_3 3.738366 1_555
Na3_1 Na3_7 3.738368 1_555
Na3_1 Na3_7 3.738368 1_445
Na3_2 Na3_6 3.724096 1_455
Na3_2 Na3_6 3.724096 1_555
Na3_2 Na3_4 3.738368 1_565
Na3_2 Na3_4 3.738368 1_455
Na3_3 Na3_7 3.724096 1_555
Na3_3 Na3_7 3.724096 1_455
Na3_3 Na3_5 3.738368 1_455
Na3_3 Na3_5 3.738368 1_565
Na3_4 Na3_6 3.738366 1_555
Na3_4 Na3_6 3.738366 1_545
Na3_5 Na3_7 3.738366 1_555
Na3_5 Na3_7 3.738366 1_545
