# generated using pymatgen
data_Sc7(CCl5)2
_symmetry_space_group_name_H-M   'P 1'
_cell_length_a   9.56876100
_cell_length_b   9.56876100
_cell_length_c   11.92457814
_cell_angle_alpha   80.12321773
_cell_angle_beta   80.12321773
_cell_angle_gamma   21.12936429
_symmetry_Int_Tables_number   1
_chemical_formula_structural   Sc7(CCl5)2
_chemical_formula_sum   'Sc7 C2 Cl10'
_cell_volume   387.53905950
_cell_formula_units_Z   1
loop_
 _symmetry_equiv_pos_site_id
 _symmetry_equiv_pos_as_xyz
  1  'x, y, z'
loop_
 _atom_site_type_symbol
 _atom_site_label
 _atom_site_symmetry_multiplicity
 _atom_site_fract_x
 _atom_site_fract_y
 _atom_site_fract_z
 _atom_site_occupancy
  Sc  Sc0  1  0.81843265  0.81843265  0.50680849  1
  Sc  Sc1  1  0.18156735  0.18156735  0.49319151  1
  Sc  Sc2  1  0.69954384  0.69954384  0.72178446  1
  Sc  Sc3  1  0.30045616  0.30045616  0.27821554  1
  Sc  Sc4  1  0.34365897  0.34365897  0.73059862  1
  Sc  Sc5  1  0.65634103  0.65634103  0.26940138  1
  Sc  Sc6  1  0.00000000  0.00000000  -0.00000000  1
  C  C0  1  0.26055002  0.26055002  0.62485418  1
  C  C1  1  0.73944998  0.73944998  0.37514582  1
  Cl  Cl0  1  0.45203047  0.45203047  0.87923910  1
  Cl  Cl1  1  0.54796953  0.54796953  0.12076090  1
  Cl  Cl2  1  0.78541776  0.78541776  0.87197139  1
  Cl  Cl3  1  0.21458224  0.21458224  0.12802861  1
  Cl  Cl4  1  0.12188932  0.12188932  0.86603507  1
  Cl  Cl5  1  0.07393071  0.07393071  0.37349227  1
  Cl  Cl6  1  0.92606929  0.92606929  0.62650773  1
  Cl  Cl7  1  0.40369875  0.40369875  0.38498494  1
  Cl  Cl8  1  0.59630125  0.59630125  0.61501506  1
  Cl  Cl9  1  0.87811068  0.87811068  0.13396493  1
loop_
_geom_bond_atom_site_label_1
_geom_bond_atom_site_label_2
_geom_bond_distance
_geom_bond_site_symmetry_2
C0 Sc4 2.173175 1_555
C0 Sc2 2.295251 1_455
C0 Sc2 2.295251 1_545
C0 Sc1 2.342440 1_555
C0 Sc0 2.389609 1_455
C0 Sc0 2.389609 1_545
C1 Sc5 2.173175 1_555
C1 Sc3 2.295251 1_565
C1 Sc3 2.295251 1_655
C1 Sc0 2.342440 1_555
C1 Sc1 2.389609 1_655
C1 Sc1 2.389609 1_565
Cl0 Sc6 2.533670 1_656
Cl0 Sc6 2.533670 1_566
Cl0 Sc4 2.925662 1_555
Cl1 Sc6 2.533670 1_655
Cl1 Sc6 2.533670 1_565
Cl1 Sc5 2.925662 1_555
Cl2 Sc4 2.544756 1_655
Cl2 Sc4 2.544756 1_565
Cl2 Sc2 2.612872 1_555
Cl3 Sc5 2.544756 1_455
Cl3 Sc5 2.544756 1_545
Cl3 Sc3 2.612872 1_555
Cl4 Sc6 2.555768 1_556
Cl4 Sc2 2.700750 1_545
Cl4 Sc2 2.700750 1_455
Cl5 Sc5 2.520061 1_545
Cl5 Sc5 2.520061 1_455
Cl5 Sc1 2.673309 1_555
Cl6 Sc4 2.520061 1_565
Cl6 Sc4 2.520061 1_655
Cl6 Sc0 2.673309 1_555
Cl7 Sc3 2.501312 1_555
Cl7 Sc0 2.635941 1_455
Cl7 Sc0 2.635941 1_545
Cl8 Sc2 2.501312 1_555
Cl8 Sc1 2.635941 1_565
Cl8 Sc1 2.635941 1_655
Cl9 Sc6 2.555768 1_665
Cl9 Sc3 2.700750 1_655
Cl9 Sc3 2.700750 1_565
