# generated using pymatgen
data_MgMn3BiO8
_symmetry_space_group_name_H-M   'P 1'
_cell_length_a   5.97319291
_cell_length_b   5.97319212
_cell_length_c   6.64938251
_cell_angle_alpha   63.31058794
_cell_angle_beta   116.68940199
_cell_angle_gamma   119.99999073
_symmetry_Int_Tables_number   1
_chemical_formula_structural   MgMn3BiO8
_chemical_formula_sum   'Mg1 Mn3 Bi1 O8'
_cell_volume   175.66611225
_cell_formula_units_Z   1
loop_
 _symmetry_equiv_pos_site_id
 _symmetry_equiv_pos_as_xyz
  1  'x, y, z'
loop_
 _atom_site_type_symbol
 _atom_site_label
 _atom_site_symmetry_multiplicity
 _atom_site_fract_x
 _atom_site_fract_y
 _atom_site_fract_z
 _atom_site_occupancy
  Mg  Mg0  1  0.00000000  0.00000000  0.00000000  1
  Mn  Mn0  1  0.50000000  0.50000000  0.00000000  1
  Mn  Mn1  1  0.50000000  0.00000000  0.00000000  1
  Mn  Mn2  1  0.00000000  0.50000000  0.00000000  1
  Bi  Bi0  1  0.50000000  0.50000000  0.50000000  1
  O  O0  1  0.76253600  0.71230400  0.81276700  1
  O  O1  1  0.76253600  0.23746400  0.81276700  1
  O  O2  1  0.27740300  0.72259700  0.83221000  1
  O  O3  1  0.28769600  0.23746400  0.81276700  1
  O  O4  1  0.71230400  0.76253600  0.18723300  1
  O  O5  1  0.72259700  0.27740300  0.16779000  1
  O  O6  1  0.23746400  0.76253600  0.18723300  1
  O  O7  1  0.23746400  0.28769600  0.18723300  1
loop_
_geom_bond_atom_site_label_1
_geom_bond_atom_site_label_2
_geom_bond_distance
_geom_bond_site_symmetry_2
Mg0 O1 2.100728 1_454
Mg0 O6 2.100728 1_545
Mg0 O4 2.100732 1_445
Mg0 O3 2.100732 1_554
Mg0 O0 2.100733 1_444
Mg0 O7 2.100733 1_555
Mn0 O2 1.970589 1_554
Mn0 O5 1.970589 1_555
Mn0 O0 1.991039 1_554
Mn0 O7 1.991039 1_555
Mn0 O3 1.991039 1_554
Mn0 O4 1.991039 1_555
Mn1 O2 1.970585 1_544
Mn1 O5 1.970585 1_555
Mn1 O3 1.991034 1_554
Mn1 O4 1.991034 1_545
Mn1 O1 1.991038 1_554
Mn1 O6 1.991038 1_545
Mn2 O5 1.970585 1_455
Mn2 O2 1.970585 1_554
Mn2 O0 1.991034 1_454
Mn2 O7 1.991034 1_555
Mn2 O1 1.991038 1_454
Mn2 O6 1.991038 1_555
Bi0 O3 2.417296 1_555
Bi0 O4 2.417296 1_555
Bi0 O7 2.417296 1_555
Bi0 O0 2.417296 1_555
Bi0 O1 2.417299 1_555
Bi0 O6 2.417299 1_555
