# generated using pymatgen
data_Na3Nb2Al2SiP5O24
_symmetry_space_group_name_H-M   'P 1'
_cell_length_a   8.68389719
_cell_length_b   8.64975644
_cell_length_c   22.30971693
_cell_angle_alpha   90.04467819
_cell_angle_beta   89.95332678
_cell_angle_gamma   119.81357917
_symmetry_Int_Tables_number   1
_chemical_formula_structural   Na3Nb2Al2SiP5O24
_chemical_formula_sum   'Na9 Nb6 Al6 Si3 P15 O72'
_cell_volume   1453.97125151
_cell_formula_units_Z   3
loop_
 _symmetry_equiv_pos_site_id
 _symmetry_equiv_pos_as_xyz
  1  'x, y, z'
loop_
 _atom_site_type_symbol
 _atom_site_label
 _atom_site_symmetry_multiplicity
 _atom_site_fract_x
 _atom_site_fract_y
 _atom_site_fract_z
 _atom_site_occupancy
  Na  Na0  1  0.36261747  0.99527802  0.75148946  1
  Na  Na1  1  0.66991444  0.97097267  0.58566052  1
  Na  Na2  1  0.67226851  0.69970617  0.08371581  1
  Na  Na3  1  0.01042122  0.00071980  0.50366523  1
  Na  Na4  1  0.00799040  0.00488492  0.00344658  1
  Na  Na5  1  0.67336136  0.34035194  0.83807485  1
  Na  Na6  1  0.66557832  0.33242599  0.33731382  1
  Na  Na7  1  0.32599846  0.66618598  0.17161688  1
  Na  Na8  1  0.32837246  0.65508093  0.67074752  1
  Nb  Nb0  1  0.00090051  0.00083449  0.35525585  1
  Nb  Nb1  1  0.99428006  0.99985968  0.85566978  1
  Nb  Nb2  1  0.66785101  0.33137498  0.68771318  1
  Nb  Nb3  1  0.67210794  0.33538023  0.18905317  1
  Nb  Nb4  1  0.32571321  0.66574209  0.02107755  1
  Nb  Nb5  1  0.32922965  0.66684124  0.52075084  1
  Al  Al0  1  0.00378301  0.99967999  0.64741970  1
  Al  Al1  1  0.00675214  0.00167235  0.14720533  1
  Al  Al2  1  0.66850603  0.33693550  0.98059835  1
  Al  Al3  1  0.66047274  0.33071094  0.47991003  1
  Al  Al4  1  0.33317375  0.66671417  0.31371334  1
  Al  Al5  1  0.33772510  0.66482882  0.81375678  1
  Si  Si0  1  0.70727405  0.98603025  0.74668243  1
  Si  Si1  1  0.36735721  0.05331574  0.58069198  1
  Si  Si2  1  0.95173345  0.62748792  0.08105610  1
  P  P0  1  0.28340849  0.98960593  0.24847502  1
  P  P1  1  0.70557398  0.71790350  0.24849011  1
  P  P2  1  0.01165514  0.29215156  0.24817376  1
  P  P3  1  0.28057033  0.29366473  0.74887445  1
  P  P4  1  0.00496117  0.71390717  0.74915664  1
  P  P5  1  0.95204415  0.32791799  0.58083448  1
  P  P6  1  0.67574473  0.62279241  0.58058605  1
  P  P7  1  0.67645426  0.05332200  0.08129451  1
  P  P8  1  0.37355945  0.32040105  0.08163332  1
  P  P9  1  0.61470717  0.65453639  0.91564713  1
  P  P10  1  0.04058152  0.38542898  0.91400003  1
  P  P11  1  0.34461172  0.96329975  0.91431708  1
  P  P12  1  0.61566097  0.95975913  0.41449658  1
  P  P13  1  0.34489039  0.38544304  0.41409144  1
  P  P14  1  0.03832733  0.65387668  0.41407046  1
  O  O0  1  0.19966364  0.02696847  0.30557964  1
  O  O1  1  0.82774289  0.80035763  0.30466605  1
  O  O2  1  0.97311029  0.17290781  0.30543505  1
  O  O3  1  0.20575701  0.16971276  0.80530833  1
  O  O4  1  0.97165367  0.79839011  0.80626623  1
  O  O5  1  0.83504487  0.03075770  0.80684623  1
  O  O6  1  0.80263922  0.96784204  0.68775490  1
  O  O7  1  0.17003447  0.20287596  0.69366492  1
  O  O8  1  0.03869890  0.83350980  0.69476313  1
  O  O9  1  0.79374139  0.82718332  0.19209866  1
  O  O10  1  0.03126479  0.19915980  0.19324765  1
  O  O11  1  0.16910720  0.96723968  0.19382010  1
  O  O12  1  0.87243168  0.36707906  0.63853659  1
  O  O13  1  0.49846253  0.12908457  0.64191710  1
  O  O14  1  0.63773051  0.50711075  0.63818837  1
  O  O15  1  0.86434288  0.49886296  0.14139532  1
  O  O16  1  0.63371270  0.12868607  0.13880096  1
  O  O17  1  0.49625139  0.36568126  0.13823527  1
  O  O18  1  0.46225044  0.29741987  0.02617285  1
  O  O19  1  0.82363020  0.53154552  0.02515770  1
  O  O20  1  0.69714548  0.16473309  0.02614788  1
  O  O21  1  0.47354030  0.17062330  0.52420360  1
  O  O22  1  0.70019121  0.53365160  0.52559512  1
  O  O23  1  0.83432304  0.29987311  0.52666212  1
  O  O24  1  0.54054944  0.69530934  0.97379233  1
  O  O25  1  0.16032797  0.46623301  0.97151051  1
  O  O26  1  0.30679390  0.83964804  0.97105467  1
  O  O27  1  0.53907304  0.84300642  0.47290575  1
  O  O28  1  0.30461753  0.46431551  0.47149309  1
  O  O29  1  0.15930926  0.69494799  0.47155243  1
  O  O30  1  0.13252795  0.63397293  0.35984203  1
  O  O31  1  0.50060235  0.86513306  0.36047286  1
  O  O32  1  0.36374303  0.49835233  0.35937696  1
  O  O33  1  0.13469488  0.49957133  0.85977430  1
  O  O34  1  0.36446744  0.87184864  0.85844303  1
  O  O35  1  0.50215901  0.63613195  0.86091631  1
  O  O36  1  0.02408862  0.82827737  0.40950359  1
  O  O37  1  0.80391971  0.97412244  0.40916845  1
  O  O38  1  0.17177351  0.19591626  0.40913244  1
  O  O39  1  0.02877843  0.19767860  0.91049619  1
  O  O40  1  0.17192320  0.97677525  0.91059375  1
  O  O41  1  0.80475375  0.82709424  0.91024200  1
  O  O42  1  0.96941771  0.16283406  0.59028204  1
  O  O43  1  0.17341720  0.02269607  0.59278695  1
  O  O44  1  0.83209707  0.81147161  0.58929748  1
  O  O45  1  0.97151176  0.82069482  0.09276367  1
  O  O46  1  0.83522049  0.02539691  0.09128474  1
  O  O47  1  0.18828877  0.16474622  0.09205123  1
  O  O48  1  0.68781512  0.16988131  0.74413066  1
  O  O49  1  0.46944402  0.30900618  0.74335249  1
  O  O50  1  0.83458431  0.52926542  0.74429221  1
  O  O51  1  0.68886003  0.52804336  0.24399098  1
  O  O52  1  0.83678268  0.30515589  0.24420189  1
  O  O53  1  0.46989649  0.16146629  0.24352299  1
  O  O54  1  0.63787539  0.49190874  0.92347952  1
  O  O55  1  0.85579121  0.35918864  0.92404974  1
  O  O56  1  0.50681838  0.14568983  0.92504128  1
  O  O57  1  0.64281830  0.14617130  0.42375074  1
  O  O58  1  0.50609948  0.36203661  0.42312000  1
  O  O59  1  0.85501789  0.49441404  0.42510144  1
  O  O60  1  0.36429559  0.49833272  0.07610641  1
  O  O61  1  0.14912036  0.64362749  0.07730166  1
  O  O62  1  0.50868243  0.86022489  0.07592413  1
  O  O63  1  0.36052047  0.85484934  0.57592762  1
  O  O64  1  0.50460723  0.64303206  0.57565577  1
  O  O65  1  0.13943754  0.49653398  0.57660617  1
  O  O66  1  0.30579818  0.82695152  0.25877709  1
  O  O67  1  0.52103287  0.69393260  0.25853012  1
  O  O68  1  0.17088172  0.47750760  0.25810868  1
  O  O69  1  0.30359016  0.47768928  0.75907231  1
  O  O70  1  0.16855674  0.69295330  0.75880454  1
  O  O71  1  0.50764740  0.82434786  0.75819085  1
loop_
_geom_bond_atom_site_label_1
_geom_bond_atom_site_label_2
_geom_bond_distance
_geom_bond_site_symmetry_2
Na0 O70 2.307198 1_555
Na0 O71 2.376277 1_555
Na0 O49 2.398926 1_565
Na0 O48 2.457938 1_565
Na0 O34 2.618145 1_555
Na0 O13 2.710898 1_565
Na0 O8 2.749746 1_555
Na0 O3 2.758953 1_565
Na1 O42 2.288549 1_565
Na1 O63 2.364701 1_555
Na1 O44 2.413709 1_555
Na1 O64 2.471310 1_555
Na1 O6 2.559777 1_555
Na1 O27 2.755684 1_555
Na1 O13 2.771527 1_565
Na1 O23 2.797915 1_565
Na2 O45 2.277068 1_555
Na2 O60 2.362929 1_555
Na2 O62 2.436810 1_555
Na2 O46 2.450086 1_565
Na2 O9 2.649275 1_555
Na2 O24 2.699083 1_554
Na2 O19 2.728632 1_555
Na2 O17 2.788293 1_555
Na3 O43 2.393599 1_555
Na3 O44 2.491348 1_445
Na3 O42 2.513639 1_455
Na3 O36 2.612025 1_545
Na3 O38 2.628726 1_555
Na3 O37 2.703386 1_445
Na4 O45 2.472109 1_445
Na4 O47 2.473652 1_555
Na4 O46 2.526260 1_455
Na4 O40 2.591422 1_544
Na4 O39 2.611360 1_554
Na4 O41 2.665660 1_444
Na5 O54 2.416756 1_555
Na5 O55 2.441937 1_555
Na5 O56 2.504037 1_555
Na5 O50 2.594907 1_555
Na5 O48 2.600277 1_555
Na5 O49 2.683796 1_555
Na6 O58 2.448623 1_555
Na6 O57 2.457811 1_555
Na6 O59 2.492842 1_555
Na6 O51 2.627409 1_555
Na6 O52 2.631363 1_555
Na6 O53 2.637221 1_555
Na7 O66 2.446105 1_555
Na7 O68 2.452764 1_555
Na7 O67 2.507245 1_555
Na7 O61 2.555656 1_555
Na7 O60 2.689441 1_555
Na7 O62 2.691443 1_555
Na8 O69 2.441153 1_555
Na8 O71 2.471244 1_555
Na8 O70 2.517808 1_555
Na8 O65 2.597593 1_555
Na8 O64 2.646998 1_555
Na8 O63 2.657771 1_555
Nb0 O0 1.966686 1_555
Nb0 O2 1.967012 1_455
Nb0 O1 1.987169 1_445
Nb0 O38 2.000973 1_555
Nb0 O37 2.007524 1_445
Nb0 O36 2.008759 1_545
Nb1 O5 1.881580 1_565
Nb1 O4 1.986746 1_555
Nb1 O41 1.994531 1_555
Nb1 O39 2.000326 1_665
Nb1 O3 2.027253 1_665
Nb1 O40 2.056890 1_655
Nb2 O13 1.926032 1_555
Nb2 O48 1.951783 1_555
Nb2 O12 1.976610 1_555
Nb2 O14 1.999561 1_555
Nb2 O50 2.038347 1_555
Nb2 O49 2.052366 1_555
Nb3 O15 1.889178 1_555
Nb3 O16 1.992291 1_555
Nb3 O52 2.000545 1_555
Nb3 O51 2.014101 1_555
Nb3 O17 2.021737 1_555
Nb3 O53 2.048387 1_555
Nb4 O61 1.914991 1_555
Nb4 O26 1.945212 1_554
Nb4 O25 1.949026 1_554
Nb4 O24 2.044887 1_554
Nb4 O62 2.047887 1_555
Nb4 O60 2.049919 1_555
Nb5 O63 1.947248 1_555
Nb5 O29 1.949593 1_555
Nb5 O28 1.986756 1_555
Nb5 O27 2.005047 1_555
Nb5 O65 2.006127 1_555
Nb5 O64 2.043904 1_555
Al0 O43 1.844188 1_565
Al0 O6 1.859063 1_455
Al0 O8 1.926056 1_555
Al0 O7 1.927261 1_565
Al0 O42 2.031696 1_465
Al0 O44 2.034911 1_455
Al1 O45 1.881662 1_445
Al1 O11 1.891662 1_545
Al1 O10 1.911673 1_555
Al1 O47 1.943535 1_555
Al1 O9 1.981402 1_445
Al1 O46 2.030942 1_455
Al2 O19 1.838819 1_556
Al2 O20 1.919446 1_556
Al2 O18 1.935844 1_556
Al2 O54 1.961953 1_555
Al2 O56 1.983494 1_555
Al2 O55 1.989839 1_555
Al3 O21 1.814782 1_555
Al3 O22 1.906543 1_555
Al3 O58 1.959650 1_555
Al3 O23 1.960017 1_555
Al3 O57 1.973586 1_555
Al3 O59 1.993722 1_555
Al4 O32 1.901642 1_555
Al4 O31 1.914726 1_555
Al4 O30 1.918872 1_555
Al4 O66 1.952033 1_555
Al4 O67 1.961546 1_555
Al4 O68 1.977305 1_555
Al5 O35 1.887547 1_555
Al5 O71 1.895553 1_555
Al5 O33 1.923304 1_555
Al5 O69 1.927919 1_555
Al5 O34 1.959187 1_555
Al5 O70 2.019658 1_555
O0 P0 1.577308 1_545
O1 P1 1.566288 1_555
O2 P2 1.570323 1_655
O3 P3 1.569994 1_555
O4 P4 1.564964 1_655
O5 Si0 1.660467 1_545
O6 Si0 1.601982 1_555
O7 P3 1.518569 1_555
O8 P4 1.526002 1_555
O9 P1 1.530718 1_555
O10 P2 1.520487 1_555
O11 P0 1.523182 1_555
O12 P5 1.574998 1_555
O13 Si1 1.688382 1_555
O14 P6 1.560299 1_555
O15 Si2 1.669422 1_555
O16 P7 1.564349 1_555
O17 P8 1.571511 1_555
O18 P8 1.521159 1_555
O19 Si2 1.601275 1_555
O20 P7 1.517869 1_555
O21 Si1 1.593041 1_555
O22 P6 1.518407 1_555
O23 P5 1.522993 1_555
O24 P9 1.563836 1_555
O25 P10 1.579274 1_555
O26 P11 1.583104 1_555
O27 P12 1.578930 1_555
O28 P13 1.569353 1_555
O29 P14 1.582682 1_555
O30 P14 1.516766 1_555
O31 P12 1.519248 1_555
O32 P13 1.520918 1_555
O33 P10 1.517936 1_555
O34 P11 1.530700 1_555
O35 P9 1.522633 1_555
O36 P14 1.577037 1_555
O37 P12 1.581121 1_555
O38 P13 1.584024 1_555
O39 P10 1.577427 1_555
O40 P11 1.563119 1_555
O41 P9 1.586366 1_555
O42 P5 1.523459 1_555
O43 Si1 1.592222 1_555
O44 P6 1.530137 1_555
O45 Si2 1.613873 1_555
O46 P7 1.529897 1_555
O47 P8 1.516960 1_555
O48 Si0 1.681698 1_545
O49 P3 1.583093 1_555
O50 P4 1.549805 1_655
O51 P1 1.578245 1_555
O52 P2 1.580082 1_655
O53 P0 1.565501 1_545
O54 P9 1.526972 1_555
O55 P10 1.521240 1_655
O56 P11 1.523332 1_545
O57 P12 1.523018 1_545
O58 P13 1.524369 1_555
O59 P14 1.521070 1_655
O60 P8 1.585504 1_555
O61 Si2 1.651194 1_455
O62 P7 1.583339 1_565
O63 Si1 1.691217 1_565
O64 P6 1.584413 1_555
O65 P5 1.556969 1_455
O66 P0 1.530567 1_555
O67 P1 1.526556 1_555
O68 P2 1.525485 1_555
O69 P3 1.519392 1_555
O70 P4 1.534278 1_555
O71 Si0 1.617420 1_555
