# generated using pymatgen
data_Mg2VBiO6
_symmetry_space_group_name_H-M   'P 1'
_cell_length_a   5.52463400
_cell_length_b   8.01462700
_cell_length_c   12.49227700
_cell_angle_alpha   90.00000000
_cell_angle_beta   90.00000000
_cell_angle_gamma   90.00000000
_symmetry_Int_Tables_number   1
_chemical_formula_structural   Mg2VBiO6
_chemical_formula_sum   'Mg8 V4 Bi4 O24'
_cell_volume   553.13155220
_cell_formula_units_Z   4
loop_
 _symmetry_equiv_pos_site_id
 _symmetry_equiv_pos_as_xyz
  1  'x, y, z'
loop_
 _atom_site_type_symbol
 _atom_site_label
 _atom_site_symmetry_multiplicity
 _atom_site_fract_x
 _atom_site_fract_y
 _atom_site_fract_z
 _atom_site_occupancy
  Mg  Mg0  1  0.25000000  0.18780400  0.40524900  1
  Mg  Mg1  1  0.74999900  0.81219700  0.59475100  1
  Mg  Mg2  1  0.74999900  0.68780300  0.09475100  1
  Mg  Mg3  1  0.25000000  0.31219700  0.90524900  1
  Mg  Mg4  1  0.74999900  0.19876000  0.58473700  1
  Mg  Mg5  1  0.74999900  0.30123900  0.08473800  1
  Mg  Mg6  1  0.25000000  0.69876000  0.91526300  1
  Mg  Mg7  1  0.25000000  0.80124000  0.41526300  1
  V  V0  1  0.25000000  0.01866700  0.69841100  1
  V  V1  1  0.74999900  0.51866700  0.80158900  1
  V  V2  1  0.74999900  0.98133400  0.30159000  1
  V  V3  1  0.25000000  0.48133300  0.19841100  1
  Bi  Bi0  1  0.74999900  0.51272400  0.40928700  1
  Bi  Bi1  1  0.25000000  0.48727600  0.59071300  1
  Bi  Bi2  1  0.25000000  0.01272300  0.09071400  1
  Bi  Bi3  1  0.74999900  0.98727700  0.90928700  1
  O  O0  1  0.74999900  0.78915100  0.24077900  1
  O  O1  1  0.25000000  0.21084900  0.75922000  1
  O  O2  1  0.25000000  0.28915100  0.25922000  1
  O  O3  1  0.74999900  0.71084800  0.74078000  1
  O  O4  1  0.25000000  0.63655200  0.29352400  1
  O  O5  1  0.74999900  0.36344800  0.70647600  1
  O  O6  1  0.74999900  0.13655200  0.20647600  1
  O  O7  1  0.25000000  0.86344800  0.79352400  1
  O  O8  1  0.50210700  0.67131700  0.50738200  1
  O  O9  1  0.00210600  0.32868300  0.49261800  1
  O  O10  1  0.49789500  0.17131700  0.99261800  1
  O  O11  1  0.99789300  0.82868300  0.00738200  1
  O  O12  1  0.49789500  0.32868300  0.49261800  1
  O  O13  1  0.99789300  0.67131700  0.50738200  1
  O  O14  1  0.50210700  0.82868300  0.00738200  1
  O  O15  1  0.00210600  0.17131700  0.99261800  1
  O  O16  1  0.98966600  0.00656100  0.61727900  1
  O  O17  1  0.48966500  0.99343900  0.38272100  1
  O  O18  1  0.01033600  0.50656100  0.88272100  1
  O  O19  1  0.51033400  0.49344000  0.11728000  1
  O  O20  1  0.48966500  0.50656100  0.88272100  1
  O  O21  1  0.51033400  0.00656100  0.61727900  1
  O  O22  1  0.98966600  0.49344000  0.11728000  1
  O  O23  1  0.01033600  0.99343900  0.38272100  1
loop_
_geom_bond_atom_site_label_1
_geom_bond_atom_site_label_2
_geom_bond_distance
_geom_bond_site_symmetry_2
Mg0 O2 1.996897 1_555
Mg0 O23 2.063722 1_545
Mg0 O17 2.063726 1_545
Mg0 O9 2.083670 1_555
Mg0 O12 2.083674 1_555
Mg1 O3 1.996903 1_555
Mg1 O21 2.063720 1_565
Mg1 O16 2.063727 1_565
Mg1 O8 2.083667 1_555
Mg1 O13 2.083675 1_555
Mg2 O0 1.996888 1_555
Mg2 O19 2.063716 1_555
Mg2 O22 2.063723 1_555
Mg2 O14 2.083667 1_555
Mg2 O11 2.083675 1_555
Mg3 O1 1.996900 1_555
Mg3 O18 2.063716 1_555
Mg3 O20 2.063720 1_555
Mg3 O15 2.083675 1_555
Mg3 O10 2.083678 1_555
Mg4 O5 2.013702 1_555
Mg4 O21 2.071531 1_555
Mg4 O16 2.071538 1_555
Mg4 O12 2.085282 1_555
Mg4 O9 2.085293 1_655
Mg5 O6 2.013687 1_555
Mg5 O19 2.071543 1_555
Mg5 O22 2.071550 1_555
Mg5 O10 2.085285 1_554
Mg5 O15 2.085296 1_654
Mg6 O7 2.013702 1_555
Mg6 O18 2.071528 1_555
Mg6 O20 2.071531 1_555
Mg6 O14 2.085293 1_556
Mg6 O11 2.085293 1_456
Mg7 O4 2.013702 1_555
Mg7 O23 2.071528 1_555
Mg7 O17 2.071531 1_555
Mg7 O8 2.085293 1_555
Mg7 O13 2.085293 1_455
Bi0 O8 2.234468 1_555
Bi0 O13 2.234475 1_555
Bi0 O12 2.280174 1_555
Bi0 O9 2.280184 1_655
Bi1 O9 2.234475 1_555
Bi1 O12 2.234478 1_555
Bi1 O8 2.280184 1_555
Bi1 O13 2.280184 1_455
Bi2 O15 2.234486 1_554
Bi2 O10 2.234489 1_554
Bi2 O14 2.280185 1_545
Bi2 O11 2.280185 1_445
Bi3 O14 2.234472 1_556
Bi3 O11 2.234479 1_556
Bi3 O10 2.280169 1_565
Bi3 O15 2.280179 1_665
O0 V2 1.717423 1_555
O1 V0 1.717405 1_555
O2 V3 1.717405 1_555
O3 V1 1.717398 1_555
O4 V3 1.720279 1_555
O5 V1 1.720279 1_555
O6 V2 1.720281 1_545
O7 V0 1.720279 1_565
O16 V0 1.762160 1_655
O17 V2 1.762152 1_555
O18 V1 1.762173 1_455
O19 V3 1.762153 1_555
O20 V1 1.762160 1_555
O21 V0 1.762160 1_555
O22 V3 1.762153 1_655
O23 V2 1.762166 1_455
