# generated using pymatgen
data_NaMn2Mo2H3O10
_symmetry_space_group_name_H-M   'P 1'
_cell_length_a   5.73633423
_cell_length_b   5.73728982
_cell_length_c   7.63716474
_cell_angle_alpha   68.48989439
_cell_angle_beta   68.49790314
_cell_angle_gamma   68.42099462
_symmetry_Int_Tables_number   1
_chemical_formula_structural   NaMn2Mo2H3O10
_chemical_formula_sum   'Na1 Mn2 Mo2 H3 O10'
_cell_volume   209.50939788
_cell_formula_units_Z   1
loop_
 _symmetry_equiv_pos_site_id
 _symmetry_equiv_pos_as_xyz
  1  'x, y, z'
loop_
 _atom_site_type_symbol
 _atom_site_label
 _atom_site_symmetry_multiplicity
 _atom_site_fract_x
 _atom_site_fract_y
 _atom_site_fract_z
 _atom_site_occupancy
  Na  Na0  1  0.50226950  0.49266718  0.50087334  1
  Mn  Mn0  1  0.50102817  0.00246039  0.00381488  1
  Mn  Mn1  1  0.01086279  0.49212117  0.00392420  1
  Mo  Mo0  1  0.08691832  0.07775439  0.70789325  1
  Mo  Mo1  1  0.91813562  0.90862393  0.29479898  1
  H  H0  1  0.52602416  0.51732720  0.98438271  1
  H  H1  1  0.68422517  0.67515255  0.76848361  1
  H  H2  1  0.32567848  0.31672398  0.22672287  1
  O  O0  1  0.76077052  0.75129902  0.52666715  1
  O  O1  1  0.24597465  0.23668760  0.47860128  1
  O  O2  1  0.83190521  0.82267796  0.12373447  1
  O  O3  1  0.17035642  0.16120276  0.88111855  1
  O  O4  1  0.65039870  0.64155446  0.91142213  1
  O  O5  1  0.35740737  0.34871753  0.08567065  1
  O  O6  1  0.81612594  0.24979852  0.26341490  1
  O  O7  1  0.74545488  0.18010356  0.73757700  1
  O  O8  1  0.25939254  0.80673555  0.26332620  1
  O  O9  1  0.18907257  0.73639126  0.73757481  1
loop_
_geom_bond_atom_site_label_1
_geom_bond_atom_site_label_2
_geom_bond_distance
_geom_bond_site_symmetry_2
Na0 O7 2.461915 1_555
Na0 O9 2.464933 1_555
Na0 O6 2.467002 1_555
Na0 O8 2.467433 1_555
Na0 O1 2.510378 1_555
Na0 O0 2.546845 1_555
Mn0 O5 2.084547 1_555
Mn0 O7 2.140212 1_554
Mn0 O8 2.146921 1_545
Mn0 O2 2.155613 1_545
Mn0 O3 2.170707 1_554
Mn0 O4 2.200623 1_544
Mn1 O5 2.085299 1_555
Mn1 O9 2.141438 1_554
Mn1 O6 2.146432 1_455
Mn1 O2 2.153998 1_455
Mn1 O3 2.172636 1_554
Mn1 O4 2.198265 1_454
Mo0 O1 1.732103 1_555
Mo0 O9 1.777108 1_545
Mo0 O7 1.777346 1_455
Mo0 O3 1.818164 1_555
Mo1 O0 1.738031 1_555
Mo1 O6 1.774144 1_565
Mo1 O8 1.774241 1_655
Mo1 O2 1.822137 1_555
H0 O4 1.057759 1_555
H0 O5 1.435526 1_556
H1 O4 0.992178 1_555
H1 O0 1.658097 1_555
H2 O5 0.981378 1_555
H2 O1 1.726906 1_555
