# generated using pymatgen
data_Na10Hf4Si9Ge4(SO16)3
_symmetry_space_group_name_H-M   'P 1'
_cell_length_a   17.80504921
_cell_length_b   8.91435141
_cell_length_c   22.38192604
_cell_angle_alpha   90.34992247
_cell_angle_beta   89.64565150
_cell_angle_gamma   120.15375012
_symmetry_Int_Tables_number   1
_chemical_formula_structural   Na10Hf4Si9Ge4(SO16)3
_chemical_formula_sum   'Na30 Hf12 Si27 Ge12 S9 O144'
_cell_volume   3071.67427997
_cell_formula_units_Z   3
loop_
 _symmetry_equiv_pos_site_id
 _symmetry_equiv_pos_as_xyz
  1  'x, y, z'
loop_
 _atom_site_type_symbol
 _atom_site_label
 _atom_site_symmetry_multiplicity
 _atom_site_fract_x
 _atom_site_fract_y
 _atom_site_fract_z
 _atom_site_occupancy
  Na  Na0  1  0.31953486  0.00079957  0.24909064  1
  Na  Na1  1  0.81964114  0.00067890  0.25050562  1
  Na  Na2  1  0.18416233  0.99333834  0.74505501  1
  Na  Na3  1  0.68144514  0.99638222  0.74498027  1
  Na  Na4  1  0.01820914  0.70498589  0.57985879  1
  Na  Na5  1  0.52011375  0.70116475  0.57908556  1
  Na  Na6  1  0.02068049  0.33030784  0.07955143  1
  Na  Na7  1  0.51308514  0.33025283  0.08141300  1
  Na  Na8  1  0.48424052  0.66334561  0.91604842  1
  Na  Na9  1  0.34634706  0.02648903  0.91741136  1
  Na  Na10  1  0.85065435  0.04219756  0.91297327  1
  Na  Na11  1  0.16619495  0.30676478  0.92157582  1
  Na  Na12  1  0.48352242  0.30215655  0.41582540  1
  Na  Na13  1  0.98377584  0.30192759  0.41651478  1
  Na  Na14  1  0.16717110  0.02983142  0.42042724  1
  Na  Na15  1  0.66402605  0.03371544  0.41700180  1
  Na  Na16  1  0.35276552  0.67088392  0.41576145  1
  Na  Na17  1  0.84856819  0.66486940  0.41727800  1
  Na  Na18  1  0.00166748  0.00360254  0.50038089  1
  Na  Na19  1  0.50051743  0.00561254  0.50214792  1
  Na  Na20  1  0.00780184  0.00183244  0.00136537  1
  Na  Na21  1  0.50504132  0.00518151  0.00100930  1
  Na  Na22  1  0.34152381  0.34178484  0.83095802  1
  Na  Na23  1  0.84481634  0.34689087  0.83013838  1
  Na  Na24  1  0.33877730  0.35110540  0.33019479  1
  Na  Na25  1  0.83823162  0.35068012  0.33279356  1
  Na  Na26  1  0.17444869  0.66066322  0.16961910  1
  Na  Na27  1  0.67020598  0.65970736  0.17054561  1
  Na  Na28  1  0.17650190  0.67432859  0.66708781  1
  Na  Na29  1  0.67562615  0.67015018  0.66219420  1
  Hf  Hf0  1  0.99580644  0.99632755  0.35332524  1
  Hf  Hf1  1  0.99686600  0.99416842  0.84937841  1
  Hf  Hf2  1  0.49528354  0.99671850  0.85186901  1
  Hf  Hf3  1  0.99389282  0.98244311  0.64334609  1
  Hf  Hf4  1  0.99906895  0.01183122  0.14906765  1
  Hf  Hf5  1  0.82880732  0.33518524  0.18914897  1
  Hf  Hf6  1  0.82657660  0.32079156  0.98194551  1
  Hf  Hf7  1  0.17473126  0.67407708  0.02199990  1
  Hf  Hf8  1  0.66502324  0.66599509  0.02307072  1
  Hf  Hf9  1  0.17662771  0.67845955  0.52183171  1
  Hf  Hf10  1  0.16935489  0.67219927  0.81396982  1
  Hf  Hf11  1  0.65902005  0.66642727  0.80977098  1
  Si  Si0  1  0.35861898  0.71209867  0.24955487  1
  Si  Si1  1  0.84554040  0.70126830  0.25331940  1
  Si  Si2  1  0.00677023  0.31406588  0.25314082  1
  Si  Si3  1  0.50136800  0.29864679  0.25194510  1
  Si  Si4  1  0.99445990  0.68957486  0.74603737  1
  Si  Si5  1  0.49161238  0.69503547  0.74582740  1
  Si  Si6  1  0.35907606  0.00935584  0.74313694  1
  Si  Si7  1  0.85220147  0.00990053  0.74803101  1
  Si  Si8  1  0.19476980  0.05963297  0.58319520  1
  Si  Si9  1  0.68902706  0.04709040  0.58389198  1
  Si  Si10  1  0.33253328  0.60911244  0.58552653  1
  Si  Si11  1  0.82375732  0.60324790  0.58051115  1
  Si  Si12  1  0.33068355  0.05381491  0.08719514  1
  Si  Si13  1  0.83225264  0.03584781  0.08568645  1
  Si  Si14  1  0.19551824  0.33247251  0.08513720  1
  Si  Si15  1  0.67843365  0.31896761  0.08705816  1
  Si  Si16  1  0.31335063  0.65594539  0.91749423  1
  Si  Si17  1  0.01961789  0.37821735  0.91807775  1
  Si  Si18  1  0.51654815  0.37030889  0.92046632  1
  Si  Si19  1  0.16460182  0.95771001  0.91854470  1
  Si  Si20  1  0.66568895  0.96123018  0.91580167  1
  Si  Si21  1  0.31281996  0.96107773  0.41220099  1
  Si  Si22  1  0.80538340  0.95355929  0.41704183  1
  Si  Si23  1  0.16933244  0.37944326  0.41818289  1
  Si  Si24  1  0.66369933  0.37905713  0.41775575  1
  Si  Si25  1  0.02228554  0.65803574  0.41811451  1
  Si  Si26  1  0.52595779  0.66757786  0.41772794  1
  Ge  Ge0  1  0.49373402  0.99692154  0.35227092  1
  Ge  Ge1  1  0.49300151  0.96504873  0.64475048  1
  Ge  Ge2  1  0.49068846  0.02237535  0.14855709  1
  Ge  Ge3  1  0.33822638  0.33221751  0.68330411  1
  Ge  Ge4  1  0.83106623  0.33203453  0.68416357  1
  Ge  Ge5  1  0.33654569  0.34649470  0.18667551  1
  Ge  Ge6  1  0.32620690  0.31391181  0.97847369  1
  Ge  Ge7  1  0.32989369  0.34094019  0.47769038  1
  Ge  Ge8  1  0.82270010  0.33075173  0.47714073  1
  Ge  Ge9  1  0.67421735  0.67707518  0.51753698  1
  Ge  Ge10  1  0.16965139  0.64900991  0.31793221  1
  Ge  Ge11  1  0.66479122  0.64515658  0.31774818  1
  S  S0  1  0.14874920  0.00070480  0.24989162  1
  S  S1  1  0.63808838  0.99324806  0.25069445  1
  S  S2  1  0.14787194  0.29325452  0.74742551  1
  S  S3  1  0.64526377  0.28845166  0.74599261  1
  S  S4  1  0.47867712  0.32901579  0.58188254  1
  S  S5  1  0.97455517  0.33108301  0.58240658  1
  S  S6  1  0.47489495  0.62753750  0.08466111  1
  S  S7  1  0.97845037  0.62637960  0.08406511  1
  S  S8  1  0.81033275  0.66339188  0.91571231  1
  O  O0  1  0.10763718  0.02199863  0.30511524  1
  O  O1  1  0.60234017  0.02497584  0.30767054  1
  O  O2  1  0.41722991  0.79656592  0.31114017  1
  O  O3  1  0.90439736  0.78793508  0.31285578  1
  O  O4  1  0.48000833  0.16322720  0.30895660  1
  O  O5  1  0.98892645  0.18465262  0.30988709  1
  O  O6  1  0.10619653  0.18811290  0.80299911  1
  O  O7  1  0.60645960  0.18192195  0.80068357  1
  O  O8  1  0.48224461  0.78556853  0.80626584  1
  O  O9  1  0.98172100  0.78857118  0.80421495  1
  O  O10  1  0.41193230  0.04053517  0.80558921  1
  O  O11  1  0.90726008  0.03650113  0.80981395  1
  O  O12  1  0.41179609  0.98258093  0.68681593  1
  O  O13  1  0.90365208  0.98692957  0.69221181  1
  O  O14  1  0.09392200  0.20536536  0.69519354  1
  O  O15  1  0.59254134  0.21032229  0.69275632  1
  O  O16  1  0.01649844  0.82021207  0.68852928  1
  O  O17  1  0.51992719  0.83094523  0.68889724  1
  O  O18  1  0.40539198  0.84819455  0.19258276  1
  O  O19  1  0.89624049  0.83160371  0.19708102  1
  O  O20  1  0.01958712  0.22248955  0.19255704  1
  O  O21  1  0.51866511  0.21621195  0.19072865  1
  O  O22  1  0.09453376  0.97972922  0.19744894  1
  O  O23  1  0.58668630  0.97563117  0.19763658  1
  O  O24  1  0.43862403  0.36217101  0.63597804  1
  O  O25  1  0.93377971  0.35942144  0.63641109  1
  O  O26  1  0.25128786  0.14391736  0.64434928  1
  O  O27  1  0.74843419  0.13374153  0.64387445  1
  O  O28  1  0.32274802  0.48991986  0.64249070  1
  O  O29  1  0.81511752  0.48788317  0.63951928  1
  O  O30  1  0.43799445  0.51140122  0.13798825  1
  O  O31  1  0.93558070  0.51624864  0.13700704  1
  O  O32  1  0.32386522  0.15183064  0.14755695  1
  O  O33  1  0.82313350  0.12969937  0.14532257  1
  O  O34  1  0.25651137  0.36545680  0.14357975  1
  O  O35  1  0.74303277  0.35796759  0.14252209  1
  O  O36  1  0.23827220  0.30861882  0.02246732  1
  O  O37  1  0.72465690  0.29781313  0.02684867  1
  O  O38  1  0.42602126  0.55030777  0.02905470  1
  O  O39  1  0.92657864  0.54844565  0.02953753  1
  O  O40  1  0.35379882  0.17533745  0.02606388  1
  O  O41  1  0.84975034  0.15848081  0.02654929  1
  O  O42  1  0.24077024  0.17003801  0.52123622  1
  O  O43  1  0.73152667  0.16298548  0.52282268  1
  O  O44  1  0.35507253  0.53557179  0.52313753  1
  O  O45  1  0.84961042  0.52613311  0.52067588  1
  O  O46  1  0.42666692  0.30242147  0.52678300  1
  O  O47  1  0.92439964  0.30469372  0.52686311  1
  O  O48  1  0.27317805  0.70632613  0.97424752  1
  O  O49  1  0.77070849  0.69140766  0.96994190  1
  O  O50  1  0.07847433  0.45579016  0.97851238  1
  O  O51  1  0.57393172  0.45574679  0.97989380  1
  O  O52  1  0.14958658  0.83706181  0.97548817  1
  O  O53  1  0.65210064  0.83566382  0.97230646  1
  O  O54  1  0.27391989  0.83592609  0.47020932  1
  O  O55  1  0.76761946  0.82495808  0.47457815  1
  O  O56  1  0.14564780  0.46033148  0.47472706  1
  O  O57  1  0.64124757  0.46580523  0.47481978  1
  O  O58  1  0.07954608  0.69912121  0.47880028  1
  O  O59  1  0.58600838  0.70786148  0.47841573  1
  O  O60  1  0.07068110  0.62226752  0.36117580  1
  O  O61  1  0.56897178  0.62183203  0.36047192  1
  O  O62  1  0.24737850  0.87248385  0.35447063  1
  O  O63  1  0.74449643  0.87077087  0.35718694  1
  O  O64  1  0.19420392  0.50627656  0.35962778  1
  O  O65  1  0.69206812  0.50678056  0.35971824  1
  O  O66  1  0.06885131  0.49315543  0.85972291  1
  O  O67  1  0.56237046  0.49792731  0.86306403  1
  O  O68  1  0.18735678  0.88372688  0.85774495  1
  O  O69  1  0.68463098  0.87531827  0.85656428  1
  O  O70  1  0.25146402  0.61614555  0.85975025  1
  O  O71  1  0.75882858  0.63927571  0.86202349  1
  O  O72  1  0.01149064  0.82941848  0.41069108  1
  O  O73  1  0.51424757  0.84050435  0.40890422  1
  O  O74  1  0.40992867  0.97871396  0.40757768  1
  O  O75  1  0.90415204  0.98225128  0.41278443  1
  O  O76  1  0.08699039  0.18368914  0.41083386  1
  O  O77  1  0.57880586  0.18176938  0.40720122  1
  O  O78  1  0.00681328  0.18073185  0.91197231  1
  O  O79  1  0.50244563  0.17755972  0.91284247  1
  O  O80  1  0.08405019  0.99358012  0.91017863  1
  O  O81  1  0.57950473  0.97453542  0.90985937  1
  O  O82  1  0.40809082  0.82924997  0.91109654  1
  O  O83  1  0.89695797  0.82556891  0.91189789  1
  O  O84  1  0.48910716  0.17662626  0.58794543  1
  O  O85  1  0.98717436  0.18053088  0.58806791  1
  O  O86  1  0.09675884  0.03570943  0.58513714  1
  O  O87  1  0.58890746  0.02446739  0.59172206  1
  O  O88  1  0.42274377  0.80613915  0.58840362  1
  O  O89  1  0.91345565  0.79704116  0.58527732  1
  O  O90  1  0.48536408  0.79971536  0.09239824  1
  O  O91  1  0.98987521  0.80041343  0.09065126  1
  O  O92  1  0.41984221  0.03508518  0.09109215  1
  O  O93  1  0.92220846  0.02593846  0.08660106  1
  O  O94  1  0.09793270  0.15848584  0.08912201  1
  O  O95  1  0.58202849  0.13811678  0.09429866  1
  O  O96  1  0.34306319  0.17767409  0.73736788  1
  O  O97  1  0.83620399  0.17677917  0.74083572  1
  O  O98  1  0.23321561  0.30187349  0.74545684  1
  O  O99  1  0.73268470  0.30277770  0.74294675  1
  O  O100  1  0.40674028  0.50327861  0.73824531  1
  O  O101  1  0.90564074  0.50243591  0.73732463  1
  O  O102  1  0.34805303  0.51812447  0.24107483  1
  O  O103  1  0.83586341  0.51203177  0.24848247  1
  O  O104  1  0.41022312  0.30704986  0.24371517  1
  O  O105  1  0.91545860  0.31468523  0.24735887  1
  O  O106  1  0.23634179  0.16020077  0.24690563  1
  O  O107  1  0.72861968  0.14945042  0.24759171  1
  O  O108  1  0.32495816  0.48676221  0.92680849  1
  O  O109  1  0.82338051  0.51434666  0.92201315  1
  O  O110  1  0.42089915  0.35813089  0.92676102  1
  O  O111  1  0.92331891  0.35731839  0.92179429  1
  O  O112  1  0.25461243  0.14999735  0.92350606  1
  O  O113  1  0.75374054  0.15036026  0.91943855  1
  O  O114  1  0.32466682  0.15574449  0.42202077  1
  O  O115  1  0.81785377  0.15022335  0.42577730  1
  O  O116  1  0.25824939  0.36418321  0.42275940  1
  O  O117  1  0.75037476  0.35586632  0.42333056  1
  O  O118  1  0.42767526  0.49187676  0.42553946  1
  O  O119  1  0.92319898  0.48234120  0.42355095  1
  O  O120  1  0.17641514  0.49505418  0.08176339  1
  O  O121  1  0.66326025  0.48499553  0.08164735  1
  O  O122  1  0.06327732  0.63479203  0.08070325  1
  O  O123  1  0.56270582  0.64177904  0.08048150  1
  O  O124  1  0.24599145  0.86258755  0.08416108  1
  O  O125  1  0.74776903  0.84519738  0.08077079  1
  O  O126  1  0.17751970  0.85975122  0.58078904  1
  O  O127  1  0.67342328  0.84582780  0.57661537  1
  O  O128  1  0.24812126  0.63187284  0.58214433  1
  O  O129  1  0.73838178  0.62793570  0.57411069  1
  O  O130  1  0.06116646  0.49203971  0.57986384  1
  O  O131  1  0.56418659  0.49299487  0.57869894  1
  O  O132  1  0.15856575  0.84664962  0.25288190  1
  O  O133  1  0.64969555  0.84120403  0.25457521  1
  O  O134  1  0.26393294  0.70496911  0.25815935  1
  O  O135  1  0.75284594  0.70312443  0.25905074  1
  O  O136  1  0.09535448  0.50445476  0.25898489  1
  O  O137  1  0.58802026  0.48932550  0.26030431  1
  O  O138  1  0.15743634  0.46573034  0.75171072  1
  O  O139  1  0.65740374  0.46389394  0.75430711  1
  O  O140  1  0.08372309  0.68171943  0.75265358  1
  O  O141  1  0.58099851  0.68342256  0.75029266  1
  O  O142  1  0.26217017  0.83750270  0.74877447  1
  O  O143  1  0.75680167  0.83291974  0.75256713  1
loop_
_geom_bond_atom_site_label_1
_geom_bond_atom_site_label_2
_geom_bond_distance
_geom_bond_site_symmetry_2
Na0 O134 2.314510 1_545
Na0 O104 2.376495 1_555
Na0 O132 2.480228 1_545
Na0 O106 2.516339 1_555
Na0 O32 2.629420 1_555
Na0 O62 2.653505 1_545
Na0 O18 2.798471 1_545
Na0 O4 2.814791 1_555
Na1 O135 2.306709 1_545
Na1 O105 2.440103 1_555
Na1 O107 2.559529 1_555
Na1 O33 2.613109 1_555
Na1 O133 2.619511 1_545
Na1 O63 2.696315 1_545
Na1 O19 2.753998 1_545
Na1 O5 2.932204 1_555
Na2 O142 2.409802 1_555
Na2 O98 2.431874 1_565
Na2 O140 2.440253 1_555
Na2 O96 2.461940 1_565
Na2 O26 2.588937 1_565
Na2 O68 2.721632 1_555
Na2 O16 2.878976 1_555
Na2 O6 2.999236 1_565
Na3 O97 2.394640 1_565
Na3 O99 2.406675 1_565
Na3 O143 2.433602 1_555
Na3 O141 2.446351 1_555
Na3 O27 2.564385 1_565
Na3 O69 2.738870 1_555
Na3 O17 2.789653 1_555
Na3 O7 2.871456 1_565
Na4 O130 2.376367 1_555
Na4 O89 2.387576 1_455
Na4 O126 2.453277 1_555
Na4 O58 2.517323 1_555
Na4 O86 2.552871 1_565
Na4 O16 2.640428 1_555
Na4 O45 2.919437 1_455
Na4 O25 2.953490 1_455
Na5 O131 2.349929 1_555
Na5 O88 2.355383 1_555
Na5 O127 2.362151 1_555
Na5 O87 2.516790 1_565
Na5 O59 2.521015 1_555
Na5 O17 2.710764 1_555
Na5 O44 2.836774 1_555
Na5 O24 2.911665 1_555
Na6 O93 2.383962 1_455
Na6 O120 2.399516 1_555
Na6 O122 2.423720 1_555
Na6 O50 2.503997 1_554
Na6 O94 2.531425 1_555
Na6 O20 2.707713 1_555
Na6 O41 2.890502 1_455
Na7 O92 2.310934 1_555
Na7 O121 2.312357 1_555
Na7 O123 2.455320 1_555
Na7 O51 2.524096 1_554
Na7 O95 2.578037 1_555
Na7 O21 2.676662 1_555
Na7 O40 2.751912 1_555
Na7 O30 2.849865 1_555
Na8 O110 2.377813 1_555
Na8 O81 2.422032 1_555
Na8 O82 2.460940 1_555
Na8 O108 2.467817 1_555
Na8 O8 2.701592 1_555
Na8 O38 2.727008 1_556
Na8 O67 2.745003 1_555
Na8 O53 2.878948 1_555
Na9 O112 2.387606 1_555
Na9 O79 2.405545 1_555
Na9 O82 2.501396 1_545
Na9 O110 2.568907 1_555
Na9 O10 2.732047 1_555
Na9 O40 2.734931 1_556
Na9 O48 2.783782 1_545
Na9 O68 2.797013 1_545
Na10 O113 2.365349 1_555
Na10 O78 2.409620 1_655
Na10 O111 2.439062 1_555
Na10 O83 2.451142 1_545
Na10 O11 2.524008 1_555
Na10 O41 2.742420 1_556
Na10 O69 2.854925 1_545
Na10 O49 2.997483 1_545
Na11 O80 2.427393 1_545
Na11 O108 2.454392 1_555
Na11 O78 2.482554 1_555
Na11 O112 2.577787 1_555
Na11 O36 2.600103 1_556
Na11 O70 2.764062 1_555
Na11 O50 2.804898 1_555
Na11 O6 2.858172 1_555
Na12 O118 2.361913 1_555
Na12 O77 2.426871 1_555
Na12 O114 2.451806 1_555
Na12 O74 2.503047 1_545
Na12 O4 2.673361 1_555
Na12 O46 2.676475 1_555
Na12 O61 2.763061 1_555
Na12 O57 2.768520 1_555
Na13 O119 2.347798 1_555
Na13 O75 2.465246 1_545
Na13 O76 2.538877 1_655
Na13 O115 2.565451 1_555
Na13 O5 2.619162 1_555
Na13 O47 2.685400 1_555
Na13 O60 2.768269 1_655
Na13 O56 2.816649 1_655
Na14 O76 2.437183 1_555
Na14 O72 2.439314 1_545
Na14 O114 2.441998 1_555
Na14 O116 2.580572 1_555
Na14 O42 2.593632 1_555
Na14 O0 2.783313 1_555
Na14 O62 2.854334 1_545
Na14 O58 2.869349 1_545
Na15 O73 2.344969 1_545
Na15 O115 2.401087 1_555
Na15 O77 2.472228 1_555
Na15 O117 2.488550 1_555
Na15 O43 2.644339 1_555
Na15 O1 2.673079 1_555
Na15 O63 2.828147 1_545
Na15 O59 2.868472 1_545
Na16 O116 2.389794 1_555
Na16 O74 2.407799 1_555
Na16 O73 2.491254 1_555
Na16 O118 2.553294 1_555
Na16 O2 2.600528 1_555
Na16 O44 2.705334 1_555
Na16 O64 2.749827 1_555
Na16 O54 2.766296 1_555
Na17 O117 2.413712 1_555
Na17 O75 2.486654 1_555
Na17 O72 2.512122 1_655
Na17 O3 2.561446 1_555
Na17 O119 2.571035 1_555
Na17 O45 2.635176 1_555
Na17 O65 2.736304 1_555
Na17 O55 2.789243 1_555
Na18 O86 2.468486 1_555
Na18 O76 2.540378 1_555
Na18 O89 2.562873 1_445
Na18 O75 2.569097 1_445
Na18 O72 2.588781 1_545
Na18 O85 2.602073 1_455
Na19 O87 2.508708 1_555
Na19 O84 2.514652 1_555
Na19 O88 2.518263 1_545
Na19 O77 2.594224 1_555
Na19 O74 2.605150 1_545
Na19 O73 2.626627 1_545
Na20 O80 2.465390 1_544
Na20 O94 2.477384 1_555
Na20 O93 2.509232 1_455
Na20 O78 2.571843 1_554
Na20 O91 2.603749 1_445
Na20 O83 2.696064 1_444
Na21 O95 2.452805 1_555
Na21 O81 2.513587 1_544
Na21 O79 2.523291 1_554
Na21 O82 2.602662 1_544
Na21 O92 2.607549 1_555
Na21 O90 2.655864 1_545
Na22 O100 2.460506 1_555
Na22 O110 2.538347 1_555
Na22 O96 2.555577 1_555
Na22 O108 2.588609 1_555
Na22 O98 2.618329 1_555
Na22 O112 2.637039 1_555
Na23 O101 2.430964 1_555
Na23 O97 2.459941 1_555
Na23 O111 2.464411 1_555
Na23 O113 2.615775 1_555
Na23 O109 2.669774 1_555
Na23 O99 2.683127 1_555
Na24 O104 2.445629 1_555
Na24 O102 2.451101 1_555
Na24 O116 2.547522 1_555
Na24 O106 2.565692 1_555
Na24 O118 2.578296 1_555
Na24 O114 2.630168 1_555
Na25 O103 2.393036 1_555
Na25 O119 2.453070 1_555
Na25 O105 2.460363 1_555
Na25 O117 2.566657 1_555
Na25 O115 2.653438 1_555
Na25 O107 2.674023 1_555
Na26 O136 2.439683 1_555
Na26 O134 2.453353 1_555
Na26 O120 2.462306 1_555
Na26 O124 2.495906 1_555
Na26 O132 2.593932 1_555
Na26 O122 2.741584 1_555
Na27 O135 2.386089 1_555
Na27 O121 2.484265 1_555
Na27 O137 2.500439 1_555
Na27 O125 2.528018 1_555
Na27 O133 2.614608 1_555
Na27 O123 2.736615 1_555
Na28 O142 2.357570 1_555
Na28 O128 2.414533 1_555
Na28 O140 2.543540 1_555
Na28 O126 2.543967 1_555
Na28 O138 2.561497 1_555
Na28 O130 2.706889 1_555
Na29 O129 2.379701 1_555
Na29 O143 2.485792 1_555
Na29 O127 2.494427 1_555
Na29 O131 2.604821 1_555
Na29 O141 2.626231 1_555
Na29 O139 2.678626 1_555
Hf0 O3 1.969901 1_555
Hf0 O5 2.001651 1_565
Hf0 O75 2.054115 1_555
Hf0 O76 2.087481 1_665
Hf0 O72 2.094168 1_655
Hf0 O0 2.167956 1_665
Hf1 O9 1.984385 1_555
Hf1 O11 2.024453 1_565
Hf1 O80 2.072671 1_655
Hf1 O78 2.106812 1_665
Hf1 O6 2.114661 1_665
Hf1 O83 2.165693 1_555
Hf2 O10 2.008559 1_565
Hf2 O82 2.016540 1_555
Hf2 O8 2.044278 1_555
Hf2 O79 2.060640 1_565
Hf2 O81 2.073054 1_555
Hf2 O7 2.160637 1_565
Hf3 O13 1.954918 1_555
Hf3 O16 1.970745 1_655
Hf3 O89 2.022539 1_555
Hf3 O86 2.093245 1_665
Hf3 O85 2.214479 1_565
Hf3 O14 2.215710 1_665
Hf4 O20 1.974895 1_655
Hf4 O93 2.010492 1_555
Hf4 O19 2.032167 1_545
Hf4 O94 2.070772 1_655
Hf4 O22 2.158446 1_645
Hf4 O91 2.225039 1_545
Hf5 O35 1.948500 1_555
Hf5 O103 2.010508 1_555
Hf5 O33 2.030066 1_555
Hf5 O105 2.102894 1_555
Hf5 O31 2.119950 1_555
Hf5 O107 2.159825 1_555
Hf6 O41 1.970509 1_556
Hf6 O37 1.987868 1_556
Hf6 O113 1.991071 1_555
Hf6 O111 2.073344 1_555
Hf6 O39 2.188667 1_556
Hf6 O109 2.215293 1_555
Hf7 O48 1.942105 1_554
Hf7 O52 2.018123 1_554
Hf7 O124 2.054423 1_555
Hf7 O50 2.078029 1_554
Hf7 O120 2.100376 1_555
Hf7 O122 2.249925 1_555
Hf8 O53 2.001338 1_554
Hf8 O51 2.005120 1_554
Hf8 O125 2.006037 1_555
Hf8 O121 2.073081 1_555
Hf8 O49 2.133917 1_554
Hf8 O123 2.143807 1_555
Hf9 O54 1.964264 1_555
Hf9 O56 2.025182 1_555
Hf9 O128 2.043116 1_555
Hf9 O58 2.071716 1_555
Hf9 O126 2.074063 1_555
Hf9 O130 2.288252 1_555
Hf10 O66 1.981466 1_555
Hf10 O68 1.998103 1_555
Hf10 O70 2.048318 1_555
Hf10 O140 2.091067 1_555
Hf10 O142 2.140473 1_555
Hf10 O138 2.225832 1_555
Hf11 O69 1.975184 1_555
Hf11 O141 1.990413 1_555
Hf11 O67 2.009967 1_555
Hf11 O143 2.067077 1_555
Hf11 O139 2.173109 1_555
Hf11 O71 2.246263 1_555
Ge0 O2 1.855843 1_555
Ge0 O74 1.876566 1_555
Ge0 O4 1.892584 1_565
Ge0 O77 2.002968 1_565
Ge0 O73 2.055070 1_555
Ge0 O1 2.071642 1_565
Ge1 O12 1.791585 1_555
Ge1 O17 1.797584 1_555
Ge1 O88 1.838329 1_555
Ge1 O87 1.918097 1_565
Ge1 O15 2.275506 1_565
Ge1 O84 2.310916 1_565
Ge2 O21 1.801651 1_555
Ge2 O18 1.821940 1_545
Ge2 O92 1.850324 1_555
Ge2 O95 1.867975 1_555
Ge2 O23 2.246375 1_545
Ge2 O90 2.304465 1_545
Ge3 O28 1.815144 1_555
Ge3 O26 1.833667 1_555
Ge3 O100 1.858061 1_555
Ge3 O96 1.873611 1_555
Ge3 O24 1.972123 1_555
Ge3 O98 2.229014 1_555
Ge4 O29 1.850953 1_555
Ge4 O101 1.859396 1_555
Ge4 O27 1.867230 1_555
Ge4 O97 1.919067 1_555
Ge4 O25 2.019147 1_555
Ge4 O99 2.093838 1_555
Ge5 O34 1.802947 1_555
Ge5 O32 1.849085 1_555
Ge5 O102 1.879000 1_555
Ge5 O30 1.984632 1_555
Ge5 O104 1.990981 1_555
Ge5 O106 2.186150 1_555
Ge6 O36 1.824945 1_556
Ge6 O112 1.843852 1_555
Ge6 O40 1.879926 1_556
Ge6 O110 1.910857 1_555
Ge6 O108 1.941235 1_555
Ge6 O38 2.261438 1_556
Ge7 O42 1.832826 1_555
Ge7 O44 1.857038 1_555
Ge7 O116 1.862735 1_555
Ge7 O118 1.960755 1_555
Ge7 O114 2.026964 1_555
Ge7 O46 2.217332 1_555
Ge8 O45 1.832811 1_555
Ge8 O117 1.863083 1_555
Ge8 O43 1.864504 1_555
Ge8 O115 1.938556 1_555
Ge8 O119 2.007641 1_555
Ge8 O47 2.240981 1_555
Ge9 O55 1.794769 1_555
Ge9 O129 1.904692 1_555
Ge9 O57 1.918309 1_555
Ge9 O59 1.939499 1_555
Ge9 O127 2.002115 1_555
Ge9 O131 2.273610 1_555
Ge10 O64 1.805360 1_555
Ge10 O136 1.854570 1_555
Ge10 O60 1.912732 1_555
Ge10 O62 1.943440 1_555
Ge10 O134 1.998928 1_555
Ge10 O132 2.376352 1_555
Ge11 O65 1.805978 1_555
Ge11 O61 1.869270 1_555
Ge11 O137 1.882407 1_555
Ge11 O135 1.902614 1_555
Ge11 O63 1.991099 1_555
Ge11 O133 2.373283 1_555
O0 S0 1.491683 1_555
O1 S1 1.509225 1_545
O2 Si0 1.664834 1_555
O3 Si1 1.631580 1_555
O4 Si3 1.667854 1_555
O5 Si2 1.640008 1_655
O6 S2 1.510081 1_555
O7 S3 1.490686 1_555
O8 Si5 1.621149 1_555
O9 Si4 1.645955 1_555
O10 Si6 1.632643 1_555
O11 Si7 1.645805 1_555
O12 Si6 1.653455 1_565
O13 Si7 1.616529 1_565
O14 S2 1.466236 1_555
O15 S3 1.460442 1_555
O16 Si4 1.649197 1_455
O17 Si5 1.656167 1_555
O18 Si0 1.667972 1_555
O19 Si1 1.642955 1_555
O20 Si2 1.651361 1_555
O21 Si3 1.649848 1_555
O22 S0 1.474623 1_565
O23 S1 1.462634 1_555
O24 S4 1.502857 1_555
O25 S5 1.490501 1_555
O26 Si8 1.641803 1_555
O27 Si9 1.643751 1_555
O28 Si10 1.616377 1_555
O29 Si11 1.637286 1_555
O30 S6 1.500036 1_555
O31 S7 1.483480 1_555
O32 Si12 1.641197 1_555
O33 Si13 1.621132 1_555
O34 Si14 1.633679 1_555
O35 Si15 1.611059 1_555
O36 Si14 1.654678 1_555
O37 Si15 1.633414 1_555
O38 S6 1.476904 1_555
O39 S7 1.477860 1_555
O40 Si12 1.666794 1_555
O41 Si13 1.647565 1_555
O42 Si8 1.659925 1_555
O43 Si9 1.651449 1_555
O44 Si10 1.669404 1_555
O45 Si11 1.666438 1_555
O46 S4 1.491517 1_555
O47 S5 1.482365 1_555
O48 Si16 1.622151 1_555
O49 S8 1.481910 1_555
O50 Si17 1.638320 1_555
O51 Si18 1.617345 1_555
O52 Si19 1.605054 1_555
O53 Si20 1.628597 1_555
O54 Si21 1.624910 1_555
O55 Si22 1.630218 1_555
O56 Si23 1.608470 1_555
O57 Si24 1.637448 1_555
O58 Si25 1.629224 1_555
O59 Si26 1.656329 1_555
O60 Si25 1.650980 1_555
O61 Si26 1.640224 1_555
O62 Si21 1.653062 1_555
O63 Si22 1.648250 1_555
O64 Si23 1.643156 1_555
O65 Si24 1.634330 1_555
O66 Si17 1.619865 1_555
O67 Si18 1.637961 1_555
O68 Si19 1.643650 1_555
O69 Si20 1.643077 1_555
O70 Si16 1.621622 1_555
O71 S8 1.464093 1_555
O72 Si25 1.642291 1_555
O73 Si26 1.669106 1_555
O74 Si21 1.658266 1_555
O75 Si22 1.647254 1_555
O76 Si23 1.628136 1_555
O77 Si24 1.661990 1_555
O78 Si17 1.662551 1_555
O79 Si18 1.614929 1_555
O80 Si19 1.630675 1_555
O81 Si20 1.603764 1_555
O82 Si16 1.623048 1_555
O83 S8 1.495312 1_555
O84 S4 1.467756 1_555
O85 S5 1.474136 1_555
O86 Si8 1.648634 1_555
O87 Si9 1.698401 1_555
O88 Si10 1.683618 1_555
O89 Si11 1.665674 1_555
O90 S6 1.459532 1_555
O91 S7 1.466449 1_555
O92 Si12 1.680396 1_555
O93 Si13 1.648069 1_555
O94 Si14 1.650714 1_555
O95 Si15 1.670727 1_555
O96 Si6 1.667905 1_555
O97 Si7 1.658087 1_555
O98 S2 1.482832 1_555
O99 S3 1.497613 1_555
O100 Si5 1.624461 1_555
O101 Si4 1.634419 1_555
O102 Si0 1.652577 1_555
O103 Si1 1.610312 1_555
O104 Si3 1.673064 1_555
O105 Si2 1.634521 1_655
O106 S0 1.493471 1_555
O107 S1 1.512237 1_545
O108 Si16 1.636530 1_555
O109 S8 1.466949 1_555
O110 Si18 1.656334 1_555
O111 Si17 1.630649 1_655
O112 Si19 1.661022 1_545
O113 Si20 1.628321 1_545
O114 Si21 1.652978 1_545
O115 Si22 1.663215 1_545
O116 Si23 1.659508 1_555
O117 Si24 1.662281 1_555
O118 Si26 1.670920 1_555
O119 Si25 1.674522 1_655
O120 Si14 1.648876 1_555
O121 Si15 1.637818 1_555
O122 S7 1.475571 1_455
O123 S6 1.506072 1_555
O124 Si12 1.613001 1_565
O125 Si13 1.610782 1_565
O126 Si8 1.649645 1_565
O127 Si9 1.678934 1_565
O128 Si10 1.616706 1_555
O129 Si11 1.648903 1_555
O130 S5 1.488978 1_455
O131 S4 1.491275 1_555
O132 S0 1.470850 1_565
O133 S1 1.473216 1_555
O134 Si0 1.664885 1_555
O135 Si1 1.662960 1_555
O136 Si2 1.641888 1_555
O137 Si3 1.633902 1_555
O138 S2 1.462016 1_555
O139 S3 1.478048 1_555
O140 Si4 1.633300 1_455
O141 Si5 1.649628 1_555
O142 Si6 1.638292 1_565
O143 Si7 1.640773 1_565
