# generated using pymatgen
data_Na6Mg7Sn(SO4)12
_symmetry_space_group_name_H-M   'P 1'
_cell_length_a   17.40420834
_cell_length_b   8.69449468
_cell_length_c   22.66001954
_cell_angle_alpha   89.97984206
_cell_angle_beta   90.00643477
_cell_angle_gamma   119.89187954
_symmetry_Int_Tables_number   1
_chemical_formula_structural   Na6Mg7Sn(SO4)12
_chemical_formula_sum   'Na18 Mg21 Sn3 S36 O144'
_cell_volume   2972.77221972
_cell_formula_units_Z   3
loop_
 _symmetry_equiv_pos_site_id
 _symmetry_equiv_pos_as_xyz
  1  'x, y, z'
loop_
 _atom_site_type_symbol
 _atom_site_label
 _atom_site_symmetry_multiplicity
 _atom_site_fract_x
 _atom_site_fract_y
 _atom_site_fract_z
 _atom_site_occupancy
  Na  Na0  1  0.32066363  0.64080248  0.74985911  1
  Na  Na1  1  0.64867032  0.33064075  0.58403459  1
  Na  Na2  1  0.98648824  0.66709662  0.91700613  1
  Na  Na3  1  0.66515649  0.30064735  0.91569129  1
  Na  Na4  1  0.16708588  0.03046271  0.41693308  1
  Na  Na5  1  0.66638211  0.02884827  0.41703599  1
  Na  Na6  1  0.99729063  0.00174206  0.49714042  1
  Na  Na7  1  0.49100211  0.98887692  0.50074617  1
  Na  Na8  1  0.00206547  0.01031996  0.99835588  1
  Na  Na9  1  0.49455039  0.99093020  0.99694390  1
  Na  Na10  1  0.33612420  0.32925150  0.83540044  1
  Na  Na11  1  0.83165881  0.32331812  0.83086123  1
  Na  Na12  1  0.33721879  0.34038278  0.33334403  1
  Na  Na13  1  0.83769968  0.34056875  0.33293880  1
  Na  Na14  1  0.16747493  0.66664926  0.16665266  1
  Na  Na15  1  0.66617953  0.66622326  0.16674579  1
  Na  Na16  1  0.16661670  0.67030359  0.66455652  1
  Na  Na17  1  0.66382314  0.67094473  0.66880385  1
  Mg  Mg0  1  0.99656362  0.99967107  0.35197871  1
  Mg  Mg1  1  0.49529430  0.99801415  0.35199681  1
  Mg  Mg2  1  0.00111485  0.00846168  0.85199324  1
  Mg  Mg3  1  0.49609390  0.99389276  0.85027919  1
  Mg  Mg4  1  0.49613708  0.99212260  0.64988230  1
  Mg  Mg5  1  0.33781726  0.33296708  0.68269974  1
  Mg  Mg6  1  0.83117531  0.32859516  0.68582466  1
  Mg  Mg7  1  0.33367175  0.33377549  0.18449390  1
  Mg  Mg8  1  0.83351701  0.33313513  0.18521652  1
  Mg  Mg9  1  0.33361397  0.33619840  0.98091556  1
  Mg  Mg10  1  0.83342748  0.32264503  0.98388253  1
  Mg  Mg11  1  0.33778555  0.34337810  0.48336603  1
  Mg  Mg12  1  0.83831496  0.33764737  0.48197594  1
  Mg  Mg13  1  0.16979694  0.66790572  0.01679837  1
  Mg  Mg14  1  0.66432667  0.66761198  0.01741248  1
  Mg  Mg15  1  0.16900693  0.66384551  0.51761996  1
  Mg  Mg16  1  0.66472584  0.67155566  0.51635381  1
  Mg  Mg17  1  0.16702522  0.66454794  0.31629900  1
  Mg  Mg18  1  0.66631099  0.66463755  0.31569726  1
  Mg  Mg19  1  0.16764947  0.67264070  0.81796935  1
  Mg  Mg20  1  0.66344702  0.66439564  0.81460565  1
  Sn  Sn0  1  0.00045314  0.00245133  0.64961323  1
  Sn  Sn1  1  0.00024287  0.00136465  0.14985135  1
  Sn  Sn2  1  0.49875885  0.99896045  0.14954597  1
  S  S0  1  0.14782948  0.00043040  0.25188832  1
  S  S1  1  0.64762550  0.00080725  0.25183553  1
  S  S2  1  0.35254361  0.70439056  0.25160326  1
  S  S3  1  0.85293700  0.70534781  0.25143463  1
  S  S4  1  0.99977865  0.29487882  0.25161045  1
  S  S5  1  0.49980720  0.29420395  0.25143354  1
  S  S6  1  0.14715483  0.29361185  0.75164952  1
  S  S7  1  0.64692168  0.29376071  0.74997974  1
  S  S8  1  0.99959445  0.70466968  0.75176066  1
  S  S9  1  0.50119630  0.70881674  0.74977987  1
  S  S10  1  0.35370315  0.00234542  0.75013209  1
  S  S11  1  0.85306893  -0.00006765  0.75157566  1
  S  S12  1  0.47950310  0.33324313  0.58299833  1
  S  S13  1  0.97911751  0.33671528  0.58406606  1
  S  S14  1  0.18802837  0.04029736  0.58348298  1
  S  S15  1  0.68790966  0.04027191  0.58302128  1
  S  S16  1  0.33292422  0.62569247  0.58407804  1
  S  S17  1  0.83355333  0.62416797  0.58350411  1
  S  S18  1  0.47902452  0.62218304  0.08380912  1
  S  S19  1  0.97971594  0.62337320  0.08347284  1
  S  S20  1  0.33177296  0.04243186  0.08359693  1
  S  S21  1  0.83177947  0.04024857  0.08424745  1
  S  S22  1  0.18891156  0.33572031  0.08374825  1
  S  S23  1  0.68831344  0.33600684  0.08363283  1
  S  S24  1  0.31308876  0.66594659  0.91625089  1
  S  S25  1  0.81252810  0.66939914  0.91688719  1
  S  S26  1  0.02135020  0.37436307  0.91690054  1
  S  S27  1  0.52024197  0.37579159  0.91672380  1
  S  S28  1  0.16762128  0.96039519  0.91689982  1
  S  S29  1  0.66675235  0.95736088  0.91646332  1
  S  S30  1  0.31281525  0.95801315  0.41677596  1
  S  S31  1  0.81285820  0.95691574  0.41672503  1
  S  S32  1  0.16668505  0.37521781  0.41652235  1
  S  S33  1  0.66695937  0.37517566  0.41699598  1
  S  S34  1  0.02055928  0.66457534  0.41659178  1
  S  S35  1  0.52006885  0.66480183  0.41581848  1
  O  O0  1  0.10577284  0.02806045  0.30397440  1
  O  O1  1  0.60593364  0.02843372  0.30413333  1
  O  O2  1  0.40975396  0.79032098  0.30222579  1
  O  O3  1  0.90990262  0.79087310  0.30220483  1
  O  O4  1  0.48610551  0.18064006  0.30224847  1
  O  O5  1  0.98563062  0.18051524  0.30226406  1
  O  O6  1  0.10439448  0.18015730  0.80213281  1
  O  O7  1  0.60674365  0.18617605  0.80399115  1
  O  O8  1  0.48400117  0.78727975  0.80257930  1
  O  O9  1  0.98587234  0.78858544  0.80405566  1
  O  O10  1  0.40730974  0.02810713  0.80324761  1
  O  O11  1  0.91037164  0.02827409  0.80231018  1
  O  O12  1  0.39301566  0.96756019  0.69740027  1
  O  O13  1  0.89118675  0.96492911  0.69524149  1
  O  O14  1  0.09235335  0.21932352  0.69578071  1
  O  O15  1  0.59358400  0.21301313  0.69581210  1
  O  O16  1  0.01681060  0.81790498  0.69615165  1
  O  O17  1  0.51414173  0.81592158  0.69654944  1
  O  O18  1  0.39027989  0.81546659  0.19536341  1
  O  O19  1  0.89089352  0.81623122  0.19511562  1
  O  O20  1  0.01739417  0.21936371  0.19525918  1
  O  O21  1  0.51772714  0.21852495  0.19520313  1
  O  O22  1  0.09136087  0.96560986  0.19624840  1
  O  O23  1  0.59148460  0.96691858  0.19623498  1
  O  O24  1  0.44014564  0.36139095  0.63608652  1
  O  O25  1  0.93870660  0.35818734  0.63766675  1
  O  O26  1  0.23933461  0.12268853  0.63669738  1
  O  O27  1  0.74275438  0.12441263  0.63537994  1
  O  O28  1  0.31907889  0.51955372  0.63876146  1
  O  O29  1  0.81983232  0.51768651  0.63685712  1
  O  O30  1  0.43928338  0.52056775  0.13761177  1
  O  O31  1  0.93800767  0.51871251  0.13618109  1
  O  O32  1  0.32100984  0.12188386  0.13758101  1
  O  O33  1  0.82093113  0.12189962  0.13741266  1
  O  O34  1  0.23954833  0.35732434  0.13761840  1
  O  O35  1  0.74066693  0.35722250  0.13634567  1
  O  O36  1  0.22600694  0.30138617  0.03090825  1
  O  O37  1  0.72495211  0.30322815  0.02917323  1
  O  O38  1  0.42512388  0.54808021  0.03090389  1
  O  O39  1  0.92646008  0.55080507  0.02905264  1
  O  O40  1  0.34836805  0.15040984  0.03068112  1
  O  O41  1  0.84905002  0.14872233  0.03098633  1
  O  O42  1  0.22371803  0.14552678  0.52918388  1
  O  O43  1  0.72660335  0.15144180  0.52888777  1
  O  O44  1  0.34630203  0.54243114  0.53153363  1
  O  O45  1  0.84915717  0.54815713  0.53040736  1
  O  O46  1  0.42542560  0.30539223  0.53018773  1
  O  O47  1  0.92509942  0.30166484  0.53094975  1
  O  O48  1  0.27131196  0.69365085  0.96861916  1
  O  O49  1  0.77269975  0.69525633  0.97025776  1
  O  O50  1  0.07443814  0.45509622  0.97019137  1
  O  O51  1  0.57715424  0.45460470  0.96956995  1
  O  O52  1  0.14968053  0.84588300  0.96950161  1
  O  O53  1  0.65369792  0.85165290  0.96996372  1
  O  O54  1  0.27226229  0.85046276  0.46996369  1
  O  O55  1  0.77243737  0.84959342  0.47010548  1
  O  O56  1  0.15213716  0.45413032  0.46955877  1
  O  O57  1  0.65358524  0.45287209  0.47164018  1
  O  O58  1  0.07668101  0.69824386  0.46961304  1
  O  O59  1  0.57629708  0.69954376  0.46885778  1
  O  O60  1  0.06072262  0.63836829  0.36314484  1
  O  O61  1  0.56120885  0.63895314  0.36292398  1
  O  O62  1  0.25677064  0.87949489  0.36373164  1
  O  O63  1  0.75659769  0.87875889  0.36387290  1
  O  O64  1  0.18043511  0.48217332  0.36333514  1
  O  O65  1  0.68040172  0.48414631  0.36458223  1
  O  O66  1  0.06007014  0.48606808  0.86366983  1
  O  O67  1  0.56116267  0.48339104  0.86371027  1
  O  O68  1  0.17983625  0.87901584  0.86338046  1
  O  O69  1  0.68158714  0.87859477  0.86361680  1
  O  O70  1  0.26016251  0.63802240  0.86143580  1
  O  O71  1  0.75725159  0.63609784  0.86408100  1
  O  O72  1  0.01346896  0.82938810  0.40993562  1
  O  O73  1  0.51373663  0.83021252  0.40951600  1
  O  O74  1  0.40177942  0.97800791  0.40991943  1
  O  O75  1  0.90188648  0.97764007  0.41001241  1
  O  O76  1  0.08768588  0.19221622  0.41018043  1
  O  O77  1  0.58799767  0.19321076  0.41042186  1
  O  O78  1  0.01059166  0.19586010  0.90989876  1
  O  O79  1  0.51378252  0.19756833  0.91021807  1
  O  O80  1  0.08463582  0.97271911  0.90995936  1
  O  O81  1  0.58813704  0.98303747  0.91034231  1
  O  O82  1  0.40187914  0.82659680  0.91003802  1
  O  O83  1  0.90384952  0.82408071  0.91017013  1
  O  O84  1  0.49202367  0.17548478  0.58946180  1
  O  O85  1  0.98796363  0.16791364  0.58881549  1
  O  O86  1  0.09501483  0.02291906  0.58886271  1
  O  O87  1  0.59923866  0.02735781  0.58965403  1
  O  O88  1  0.41323459  0.80372600  0.58996342  1
  O  O89  1  0.91560658  0.80791044  0.58897485  1
  O  O90  1  0.48866021  0.80884284  0.08895030  1
  O  O91  1  0.98799852  0.80810382  0.08880544  1
  O  O92  1  0.41588499  0.02421048  0.08858595  1
  O  O93  1  0.91586102  0.02341512  0.08882279  1
  O  O94  1  0.09568466  0.16761907  0.08877293  1
  O  O95  1  0.59628351  0.16850759  0.08893350  1
  O  O96  1  0.34296514  0.15916241  0.74298850  1
  O  O97  1  0.84680688  0.16118519  0.74307721  1
  O  O98  1  0.23585631  0.31293229  0.74330635  1
  O  O99  1  0.73614121  0.31095826  0.74359036  1
  O  O100  1  0.41856097  0.53069426  0.74348887  1
  O  O101  1  0.91953386  0.53148202  0.74283501  1
  O  O102  1  0.34573356  0.53024629  0.24298851  1
  O  O103  1  0.84586333  0.53082476  0.24278052  1
  O  O104  1  0.41963127  0.30809675  0.24285999  1
  O  O105  1  0.91945757  0.30840669  0.24293971  1
  O  O106  1  0.23444207  0.16088933  0.24299732  1
  O  O107  1  0.73449494  0.16109042  0.24304752  1
  O  O108  1  0.32162083  0.50548690  0.92317362  1
  O  O109  1  0.82276140  0.50672813  0.92339993  1
  O  O110  1  0.43143180  0.35547532  0.92393517  1
  O  O111  1  0.93202013  0.36100275  0.92333452  1
  O  O112  1  0.24601053  0.13733283  0.92378110  1
  O  O113  1  0.74581057  0.14121133  0.92303823  1
  O  O114  1  0.31968343  0.13638534  0.42346865  1
  O  O115  1  0.81962977  0.13532351  0.42333229  1
  O  O116  1  0.24544067  0.34967983  0.42292103  1
  O  O117  1  0.74599073  0.35058424  0.42317525  1
  O  O118  1  0.43141029  0.50761532  0.42293402  1
  O  O119  1  0.93131627  0.50744772  0.42349268  1
  O  O120  1  0.17590488  0.49037947  0.07753768  1
  O  O121  1  0.67668490  0.49185720  0.07717748  1
  O  O122  1  0.06917473  0.64693173  0.07701117  1
  O  O123  1  0.56912928  0.64734534  0.07767027  1
  O  O124  1  0.25457728  0.86200530  0.07753993  1
  O  O125  1  0.75454633  0.86148556  0.07733199  1
  O  O126  1  0.17539812  0.86037056  0.57743045  1
  O  O127  1  0.67840832  0.86259334  0.57641245  1
  O  O128  1  0.25273786  0.64370543  0.57739604  1
  O  O129  1  0.75370246  0.64318790  0.57705863  1
  O  O130  1  0.06871546  0.49081742  0.57750485  1
  O  O131  1  0.57093386  0.49152953  0.57676447  1
  O  O132  1  0.15507081  0.83929813  0.25658058  1
  O  O133  1  0.65518592  0.83991021  0.25650374  1
  O  O134  1  0.26486618  0.69035670  0.25654336  1
  O  O135  1  0.76512062  0.69070740  0.25641738  1
  O  O136  1  0.08003696  0.47023926  0.25646974  1
  O  O137  1  0.58019582  0.46975915  0.25631321  1
  O  O138  1  0.15676981  0.47259634  0.75659434  1
  O  O139  1  0.65618310  0.47222089  0.75638923  1
  O  O140  1  0.08006419  0.69004026  0.75649587  1
  O  O141  1  0.57990113  0.68846827  0.75644048  1
  O  O142  1  0.26471871  0.83640674  0.75645781  1
  O  O143  1  0.76567907  0.84002263  0.75652913  1
loop_
_geom_bond_atom_site_label_1
_geom_bond_atom_site_label_2
_geom_bond_distance
_geom_bond_site_symmetry_2
Na0 O100 2.338012 1_555
Na0 O142 2.348069 1_555
Na0 O98 2.476559 1_555
Na0 O138 2.478005 1_555
Na0 O28 2.724453 1_555
Na0 O70 2.734406 1_555
Na0 O12 2.739005 1_555
Na0 O8 2.742651 1_555
Na1 O87 2.334138 1_555
Na1 O84 2.366831 1_555
Na1 O131 2.387576 1_555
Na1 O129 2.408231 1_555
Na1 O15 2.720665 1_555
Na1 O57 2.744223 1_555
Na1 O43 2.817251 1_555
Na1 O29 2.850157 1_555
Na2 O80 2.340906 1_655
Na2 O111 2.342444 1_555
Na2 O83 2.431460 1_555
Na2 O109 2.474824 1_555
Na2 O52 2.738292 1_655
Na2 O39 2.739728 1_556
Na2 O66 2.754781 1_655
Na2 O9 2.770571 1_555
Na3 O79 2.325083 1_555
Na3 O81 2.397468 1_545
Na3 O113 2.420542 1_555
Na3 O109 2.422048 1_555
Na3 O7 2.724589 1_555
Na3 O37 2.769899 1_556
Na3 O51 2.770064 1_555
Na3 O71 2.789571 1_555
Na4 O114 2.342153 1_555
Na4 O72 2.360264 1_545
Na4 O116 2.410156 1_555
Na4 O76 2.418223 1_555
Na4 O42 2.731420 1_555
Na4 O62 2.766995 1_545
Na4 O0 2.769142 1_555
Na4 O58 2.777049 1_545
Na5 O73 2.344471 1_545
Na5 O115 2.351605 1_555
Na5 O77 2.422540 1_555
Na5 O117 2.429245 1_555
Na5 O43 2.747080 1_555
Na5 O59 2.749255 1_545
Na5 O1 2.765457 1_555
Na5 O63 2.768254 1_545
Na6 O75 2.520247 1_545
Na6 O76 2.549930 1_655
Na6 O72 2.579238 1_645
Na6 O85 2.581686 1_555
Na6 O89 2.608030 1_545
Na6 O86 2.633224 1_655
Na7 O88 2.517360 1_555
Na7 O74 2.551343 1_555
Na7 O84 2.578280 1_565
Na7 O73 2.622876 1_555
Na7 O87 2.662854 1_565
Na7 O77 2.684052 1_565
Na8 O78 2.530086 1_555
Na8 O94 2.550135 1_556
Na8 O93 2.576328 1_456
Na8 O80 2.579478 1_545
Na8 O83 2.603797 1_445
Na8 O91 2.630674 1_446
Na9 O82 2.495044 1_555
Na9 O79 2.569080 1_565
Na9 O81 2.573114 1_555
Na9 O92 2.581942 1_566
Na9 O90 2.588345 1_556
Na9 O95 2.672173 1_566
Na10 O110 2.539861 1_555
Na10 O112 2.577755 1_555
Na10 O108 2.599086 1_555
Na10 O96 2.600758 1_555
Na10 O100 2.637652 1_555
Na10 O98 2.678246 1_555
Na11 O97 2.527063 1_555
Na11 O99 2.550929 1_555
Na11 O113 2.596643 1_555
Na11 O101 2.613929 1_555
Na11 O111 2.641679 1_555
Na11 O109 2.685624 1_555
Na12 O118 2.558986 1_555
Na12 O102 2.587071 1_555
Na12 O104 2.596629 1_555
Na12 O116 2.609152 1_555
Na12 O114 2.620637 1_555
Na12 O106 2.654317 1_555
Na13 O119 2.572050 1_555
Na13 O105 2.580631 1_555
Na13 O103 2.587224 1_555
Na13 O117 2.622141 1_555
Na13 O115 2.630050 1_555
Na13 O107 2.649185 1_555
Na14 O120 2.583494 1_555
Na14 O124 2.586978 1_555
Na14 O134 2.591508 1_555
Na14 O132 2.603391 1_555
Na14 O136 2.604287 1_555
Na14 O122 2.605681 1_555
Na15 O123 2.584034 1_555
Na15 O137 2.593627 1_555
Na15 O121 2.594156 1_555
Na15 O133 2.596947 1_555
Na15 O125 2.597786 1_555
Na15 O135 2.602610 1_555
Na16 O126 2.529436 1_555
Na16 O128 2.558794 1_555
Na16 O130 2.565302 1_555
Na16 O142 2.623201 1_555
Na16 O140 2.626321 1_555
Na16 O138 2.652881 1_555
Na17 O141 2.514521 1_555
Na17 O143 2.580495 1_555
Na17 O139 2.590486 1_555
Na17 O127 2.607709 1_555
Na17 O131 2.623863 1_555
Na17 O129 2.684137 1_555
Mg0 O5 2.018535 1_565
Mg0 O3 2.028433 1_555
Mg0 O75 2.041305 1_555
Mg0 O0 2.095115 1_665
Mg0 O76 2.100442 1_665
Mg0 O72 2.106185 1_655
Mg1 O4 2.017279 1_565
Mg1 O2 2.017598 1_555
Mg1 O74 2.029792 1_555
Mg1 O73 2.096592 1_555
Mg1 O1 2.108750 1_565
Mg1 O77 2.123209 1_565
Mg2 O6 2.015127 1_555
Mg2 O11 2.015440 1_455
Mg2 O78 2.034022 1_555
Mg2 O80 2.093903 1_545
Mg2 O9 2.097833 1_445
Mg2 O83 2.113669 1_445
Mg3 O8 2.015964 1_555
Mg3 O10 2.017314 1_565
Mg3 O82 2.063969 1_555
Mg3 O7 2.096170 1_565
Mg3 O79 2.129242 1_565
Mg3 O81 2.139542 1_555
Mg4 O17 2.010145 1_555
Mg4 O12 2.011063 1_555
Mg4 O88 2.062492 1_555
Mg4 O15 2.098209 1_565
Mg4 O84 2.129190 1_565
Mg4 O87 2.151434 1_565
Mg5 O24 1.977389 1_555
Mg5 O26 2.060228 1_555
Mg5 O28 2.062904 1_555
Mg5 O96 2.071570 1_555
Mg5 O100 2.102610 1_555
Mg5 O98 2.181222 1_555
Mg6 O27 2.025935 1_555
Mg6 O99 2.054303 1_555
Mg6 O97 2.066159 1_555
Mg6 O25 2.068784 1_555
Mg6 O29 2.072505 1_555
Mg6 O101 2.107789 1_555
Mg7 O30 2.041703 1_555
Mg7 O32 2.041895 1_555
Mg7 O34 2.046330 1_555
Mg7 O102 2.088801 1_555
Mg7 O104 2.090338 1_555
Mg7 O106 2.100271 1_555
Mg8 O33 2.048120 1_555
Mg8 O35 2.053871 1_555
Mg8 O31 2.054206 1_555
Mg8 O105 2.077067 1_555
Mg8 O103 2.082147 1_555
Mg8 O107 2.086758 1_555
Mg9 O108 2.055918 1_555
Mg9 O38 2.071238 1_556
Mg9 O110 2.075928 1_555
Mg9 O36 2.077883 1_556
Mg9 O40 2.087827 1_556
Mg9 O112 2.088993 1_555
Mg10 O41 1.976988 1_556
Mg10 O113 2.078001 1_555
Mg10 O37 2.080547 1_556
Mg10 O111 2.089947 1_555
Mg10 O39 2.098601 1_556
Mg10 O109 2.183804 1_555
Mg11 O44 1.988494 1_555
Mg11 O46 2.015643 1_555
Mg11 O118 2.061402 1_555
Mg11 O116 2.132914 1_555
Mg11 O42 2.138602 1_555
Mg11 O114 2.148684 1_555
Mg12 O47 2.020182 1_555
Mg12 O119 2.042795 1_555
Mg12 O45 2.060838 1_555
Mg12 O43 2.095961 1_555
Mg12 O115 2.097008 1_555
Mg12 O117 2.132948 1_555
Mg13 O48 1.992391 1_554
Mg13 O52 2.050482 1_554
Mg13 O50 2.057555 1_554
Mg13 O124 2.106868 1_555
Mg13 O120 2.109517 1_555
Mg13 O122 2.154955 1_555
Mg14 O53 2.011091 1_554
Mg14 O51 2.026677 1_554
Mg14 O49 2.074966 1_554
Mg14 O123 2.085649 1_555
Mg14 O125 2.124489 1_555
Mg14 O121 2.131076 1_555
Mg15 O56 2.016102 1_555
Mg15 O54 2.030075 1_555
Mg15 O128 2.059801 1_555
Mg15 O58 2.081638 1_555
Mg15 O130 2.129119 1_555
Mg15 O126 2.140325 1_555
Mg16 O59 1.989700 1_555
Mg16 O55 2.028701 1_555
Mg16 O127 2.067597 1_555
Mg16 O57 2.076814 1_555
Mg16 O131 2.107324 1_555
Mg16 O129 2.175103 1_555
Mg17 O64 2.018020 1_555
Mg17 O62 2.044279 1_555
Mg17 O60 2.045017 1_555
Mg17 O134 2.098325 1_555
Mg17 O136 2.106186 1_555
Mg17 O132 2.120503 1_555
Mg18 O65 2.032772 1_555
Mg18 O61 2.033291 1_555
Mg18 O63 2.052314 1_555
Mg18 O137 2.097126 1_555
Mg18 O135 2.103557 1_555
Mg18 O133 2.109868 1_555
Mg19 O68 1.986300 1_555
Mg19 O70 2.033635 1_555
Mg19 O66 2.044848 1_555
Mg19 O142 2.103767 1_555
Mg19 O140 2.125131 1_555
Mg19 O138 2.160685 1_555
Mg20 O67 2.022538 1_555
Mg20 O141 2.048894 1_555
Mg20 O69 2.053480 1_555
Mg20 O139 2.083022 1_555
Mg20 O71 2.093453 1_555
Mg20 O143 2.126137 1_555
O0 S0 1.470435 1_555
O1 S1 1.470617 1_555
O2 S2 1.457510 1_555
O3 S3 1.457725 1_555
O4 S5 1.456790 1_555
O5 S4 1.456717 1_555
O6 S6 1.450244 1_555
O7 S7 1.486372 1_555
O8 S9 1.480054 1_555
O9 S8 1.472395 1_555
O10 S10 1.470006 1_555
O11 S11 1.460144 1_555
O12 S10 1.481246 1_565
O13 S11 1.537522 1_565
O13 Sn0 2.042971 1_665
O14 S6 1.521801 1_555
O14 Sn0 2.050149 1_555
O15 S7 1.487278 1_555
O16 S8 1.533657 1_455
O16 Sn0 2.054685 1_565
O17 S9 1.470718 1_555
O18 S2 1.534675 1_555
O18 Sn2 2.045660 1_555
O19 S3 1.535915 1_555
O19 Sn1 2.052034 1_665
O20 S4 1.535224 1_455
O20 Sn1 2.043944 1_555
O21 S5 1.535899 1_555
O21 Sn2 2.048613 1_545
O22 S0 1.533161 1_565
O22 Sn1 2.051254 1_565
O23 S1 1.530334 1_565
O23 Sn2 2.061276 1_555
O24 S12 1.464151 1_555
O25 S13 1.461496 1_555
O26 S14 1.458545 1_555
O27 S15 1.469119 1_555
O28 S16 1.490880 1_555
O29 S17 1.467885 1_555
O30 S18 1.461397 1_555
O31 S19 1.456894 1_555
O32 S20 1.462302 1_555
O33 S21 1.457820 1_555
O34 S22 1.461844 1_555
O35 S23 1.457193 1_555
O36 S22 1.460177 1_555
O37 S23 1.480640 1_555
O38 S18 1.459520 1_555
O39 S19 1.481646 1_555
O40 S20 1.459996 1_555
O41 S21 1.467364 1_555
O42 S14 1.473013 1_555
O43 S15 1.497676 1_555
O44 S16 1.471256 1_555
O45 S17 1.462073 1_555
O46 S12 1.466051 1_555
O47 S13 1.462828 1_555
O48 S24 1.473031 1_555
O49 S25 1.466064 1_555
O50 S26 1.469198 1_555
O51 S27 1.486087 1_555
O52 S28 1.482874 1_555
O53 S29 1.468737 1_555
O54 S30 1.471975 1_555
O55 S31 1.474396 1_555
O56 S32 1.467305 1_555
O57 S33 1.483623 1_555
O58 S34 1.482648 1_555
O59 S35 1.482824 1_555
O60 S34 1.471889 1_555
O61 S35 1.469888 1_555
O62 S30 1.482850 1_555
O63 S31 1.480528 1_555
O64 S32 1.466989 1_555
O65 S33 1.463334 1_555
O66 S26 1.483016 1_555
O67 S27 1.469973 1_555
O68 S28 1.472134 1_555
O69 S29 1.465112 1_555
O70 S24 1.492424 1_555
O71 S25 1.470896 1_555
O72 S34 1.505808 1_555
O73 S35 1.502891 1_555
O74 S30 1.477665 1_555
O75 S31 1.475874 1_555
O76 S32 1.504095 1_555
O77 S33 1.498943 1_555
O78 S26 1.476290 1_555
O79 S27 1.504006 1_555
O80 S28 1.508773 1_555
O81 S29 1.498512 1_555
O82 S24 1.485707 1_555
O83 S25 1.492436 1_555
O84 S12 1.499356 1_555
O85 S13 1.553825 1_555
O85 Sn0 2.079681 1_655
O86 S14 1.553874 1_555
O86 Sn0 2.084154 1_555
O87 S15 1.498046 1_555
O88 S16 1.486974 1_555
O89 S17 1.527437 1_555
O89 Sn0 2.107426 1_665
O90 S18 1.550611 1_555
O90 Sn2 2.088203 1_555
O91 S19 1.544159 1_555
O91 Sn1 2.104049 1_665
O92 S20 1.553063 1_555
O92 Sn2 2.086067 1_545
O93 S21 1.545012 1_555
O93 Sn1 2.094270 1_655
O94 S22 1.554989 1_555
O94 Sn1 2.090479 1_555
O95 S23 1.541335 1_555
O95 Sn2 2.108470 1_545
O96 S10 1.474424 1_555
O97 S11 1.471973 1_555
O98 S6 1.479452 1_555
O99 S7 1.491009 1_555
O100 S9 1.505737 1_555
O101 S8 1.469248 1_555
O102 S2 1.471726 1_555
O103 S3 1.473123 1_555
O104 S5 1.472207 1_555
O105 S4 1.473240 1_555
O106 S0 1.470705 1_555
O107 S1 1.472197 1_555
O108 S24 1.483016 1_555
O109 S25 1.518152 1_555
O110 S27 1.474756 1_555
O111 S26 1.507293 1_655
O112 S28 1.469838 1_545
O113 S29 1.509459 1_545
O114 S30 1.502607 1_545
O115 S31 1.503452 1_545
O116 S32 1.500790 1_555
O117 S33 1.500109 1_555
O118 S35 1.474008 1_555
O119 S34 1.479253 1_655
O120 S22 1.477323 1_555
O121 S23 1.473665 1_555
O122 S19 1.472983 1_455
O123 S18 1.478018 1_555
O124 S20 1.477893 1_565
O125 S21 1.471340 1_565
O126 S14 1.473697 1_565
O127 S15 1.477089 1_565
O128 S16 1.487577 1_555
O129 S17 1.486292 1_555
O130 S13 1.471859 1_455
O131 S12 1.504404 1_555
O132 S0 1.471654 1_565
O133 S1 1.472699 1_565
O134 S2 1.473230 1_555
O135 S3 1.473430 1_555
O136 S4 1.471470 1_455
O137 S5 1.473440 1_555
O138 S6 1.484187 1_555
O139 S7 1.485083 1_555
O140 S8 1.471951 1_455
O141 S9 1.473739 1_555
O142 S10 1.507773 1_565
O143 S11 1.466675 1_565
