# generated using pymatgen
data_Na4Zn3GeP2(SO6)4
_symmetry_space_group_name_H-M   'P 1'
_cell_length_a   8.78681451
_cell_length_b   8.76723578
_cell_length_c   22.08640850
_cell_angle_alpha   90.62425821
_cell_angle_beta   89.99973854
_cell_angle_gamma   120.11013883
_symmetry_Int_Tables_number   1
_chemical_formula_structural   Na4Zn3GeP2(SO6)4
_chemical_formula_sum   'Na12 Zn9 Ge3 P6 S12 O72'
_cell_volume   1471.74435538
_cell_formula_units_Z   3
loop_
 _symmetry_equiv_pos_site_id
 _symmetry_equiv_pos_as_xyz
  1  'x, y, z'
loop_
 _atom_site_type_symbol
 _atom_site_label
 _atom_site_symmetry_multiplicity
 _atom_site_fract_x
 _atom_site_fract_y
 _atom_site_fract_z
 _atom_site_occupancy
  Na  Na0  1  0.63444817  0.99851163  0.25440241  1
  Na  Na1  1  0.36227422  0.36270794  0.25092454  1
  Na  Na2  1  0.30293357  0.33893897  0.59094540  1
  Na  Na3  1  0.66724031  0.95755804  0.58334850  1
  Na  Na4  1  0.97760037  0.67831920  0.91297589  1
  Na  Na5  1  0.32384209  0.29681331  0.91051741  1
  Na  Na6  1  0.98879900  0.98121814  0.49733815  1
  Na  Na7  1  0.98738007  0.00215625  0.99720067  1
  Na  Na8  1  0.66070102  0.32185791  0.82645592  1
  Na  Na9  1  0.67962146  0.34006094  0.33613040  1
  Na  Na10  1  0.31898948  0.66538678  0.16137646  1
  Na  Na11  1  0.32688978  0.66276139  0.67032498  1
  Zn  Zn0  1  0.99066083  0.99697273  0.35418964  1
  Zn  Zn1  1  0.99776250  0.00565840  0.84761582  1
  Zn  Zn2  1  0.99888086  0.99103644  0.65836227  1
  Zn  Zn3  1  0.99987200  0.99705717  0.14619669  1
  Zn  Zn4  1  0.65862848  0.34360090  0.68854541  1
  Zn  Zn5  1  0.67369826  0.33963416  0.18024185  1
  Zn  Zn6  1  0.33785068  0.66868622  0.01340586  1
  Zn  Zn7  1  0.34327432  0.67271405  0.51131135  1
  Zn  Zn8  1  0.33365452  0.67986448  0.32735857  1
  Ge  Ge0  1  0.66763721  0.32867483  0.97820281  1
  Ge  Ge1  1  0.67103453  0.33780321  0.48211389  1
  Ge  Ge2  1  0.33309449  0.65886859  0.81927197  1
  P  P0  1  0.29621403  0.30387514  0.75252892  1
  P  P1  1  0.67053478  0.62389368  0.58173411  1
  P  P2  1  0.62638122  0.66643972  0.91943333  1
  P  P3  1  0.03809889  0.37427036  0.91908859  1
  P  P4  1  0.34026289  0.95683230  0.91815496  1
  P  P5  1  0.63744111  0.97838719  0.41943598  1
  S  S0  1  0.29018659  0.99587290  0.24964089  1
  S  S1  1  0.70587006  0.70380501  0.24948305  1
  S  S2  1  0.00287878  0.29859119  0.24976082  1
  S  S3  1  0.01020554  0.70126388  0.75365928  1
  S  S4  1  0.69207728  0.99220065  0.75063500  1
  S  S5  1  0.95661550  0.33786930  0.58285194  1
  S  S6  1  0.37684834  0.04346775  0.58200719  1
  S  S7  1  0.95841502  0.62531193  0.08122555  1
  S  S8  1  0.66686613  0.04290337  0.08285073  1
  S  S9  1  0.37453835  0.33248006  0.08245226  1
  S  S10  1  0.33904427  0.36589029  0.41774394  1
  S  S11  1  0.03064072  0.66004500  0.41913017  1
  O  O0  1  0.20904974  0.02563603  0.30353007  1
  O  O1  1  0.80984894  0.78392789  0.30459927  1
  O  O2  1  0.97205860  0.18681349  0.30321115  1
  O  O3  1  0.21023802  0.19665621  0.80920602  1
  O  O4  1  0.98412975  0.78109602  0.80904325  1
  O  O5  1  0.80133350  0.01499076  0.80388831  1
  O  O6  1  0.76335759  0.96113608  0.69319829  1
  O  O7  1  0.18924353  0.22723671  0.69279153  1
  O  O8  1  0.03637501  0.80590479  0.69876702  1
  O  O9  1  0.78480720  0.81239247  0.19513662  1
  O  O10  1  0.03275635  0.21861532  0.19448046  1
  O  O11  1  0.19017097  0.97530879  0.19357568  1
  O  O12  1  0.87361786  0.35698897  0.63679339  1
  O  O13  1  0.48928841  0.12140413  0.63541924  1
  O  O14  1  0.63176758  0.50376654  0.63512285  1
  O  O15  1  0.87516727  0.52148080  0.13547856  1
  O  O16  1  0.64739386  0.12173777  0.14006310  1
  O  O17  1  0.47438877  0.35091571  0.13885795  1
  O  O18  1  0.46459688  0.30809201  0.02630169  1
  O  O19  1  0.84549179  0.53746897  0.02383971  1
  O  O20  1  0.69340177  0.16108547  0.02856861  1
  O  O21  1  0.46089085  0.15982493  0.52638899  1
  O  O22  1  0.69864328  0.53477352  0.52208670  1
  O  O23  1  0.83990597  0.30176446  0.52639664  1
  O  O24  1  0.55316992  0.69650076  0.97669066  1
  O  O25  1  0.15075034  0.45118312  0.97515271  1
  O  O26  1  0.30123216  0.84697419  0.97412411  1
  O  O27  1  0.55276121  0.87063316  0.47595656  1
  O  O28  1  0.31315742  0.44651010  0.47260280  1
  O  O29  1  0.13478322  0.68040423  0.47331869  1
  O  O30  1  0.10201718  0.62588491  0.36307350  1
  O  O31  1  0.52957101  0.90388073  0.35995742  1
  O  O32  1  0.36474765  0.47058055  0.36206180  1
  O  O33  1  0.12056660  0.50303240  0.86311460  1
  O  O34  1  0.37489848  0.87032894  0.86064177  1
  O  O35  1  0.49686700  0.61822411  0.86317875  1
  O  O36  1  0.00916377  0.81550246  0.41365263  1
  O  O37  1  0.82273287  0.00432861  0.41408162  1
  O  O38  1  0.18818666  0.18602473  0.41208957  1
  O  O39  1  0.01125775  0.19041870  0.90939015  1
  O  O40  1  0.18459361  0.98835236  0.90918519  1
  O  O41  1  0.81338615  0.81612976  0.90856997  1
  O  O42  1  0.97429915  0.17660182  0.58377180  1
  O  O43  1  0.20407096  0.03410042  0.58589840  1
  O  O44  1  0.83398060  0.81040539  0.58625607  1
  O  O45  1  0.96969396  0.79951185  0.08327188  1
  O  O46  1  0.82835480  0.02974684  0.08407575  1
  O  O47  1  0.19966921  0.17027137  0.08319800  1
  O  O48  1  0.67124419  0.14774928  0.74543782  1
  O  O49  1  0.48213884  0.33042946  0.74865749  1
  O  O50  1  0.85925097  0.52088389  0.74782461  1
  O  O51  1  0.67972074  0.52188782  0.24428378  1
  O  O52  1  0.84101363  0.31334711  0.24434693  1
  O  O53  1  0.47220160  0.15830947  0.24629078  1
  O  O54  1  0.63750577  0.48656170  0.92378454  1
  O  O55  1  0.85224572  0.36601554  0.92417983  1
  O  O56  1  0.51148316  0.14941795  0.92375916  1
  O  O57  1  0.64881136  0.16659855  0.42632308  1
  O  O58  1  0.50690075  0.35646967  0.42285506  1
  O  O59  1  0.84865616  0.49524329  0.42353606  1
  O  O60  1  0.36077483  0.49169888  0.07823821  1
  O  O61  1  0.13169199  0.64118562  0.07642959  1
  O  O62  1  0.50762922  0.87007643  0.07712676  1
  O  O63  1  0.35577153  0.86637137  0.57430912  1
  O  O64  1  0.50284957  0.64164785  0.57487986  1
  O  O65  1  0.13362499  0.49387901  0.57556100  1
  O  O66  1  0.31478002  0.83989545  0.25408478  1
  O  O67  1  0.52533300  0.68394456  0.25433778  1
  O  O68  1  0.16366816  0.47516814  0.25677130  1
  O  O69  1  0.30873407  0.49321918  0.75970383  1
  O  O70  1  0.17866841  0.69336287  0.75922724  1
  O  O71  1  0.51297848  0.82652609  0.75741831  1
loop_
_geom_bond_atom_site_label_1
_geom_bond_atom_site_label_2
_geom_bond_distance
_geom_bond_site_symmetry_2
Na0 O67 2.423242 1_555
Na0 O66 2.429881 1_555
Na0 O52 2.439130 1_565
Na0 O53 2.456967 1_565
Na0 O31 2.499537 1_555
Na0 O16 2.737447 1_565
Na0 O2 2.781248 1_565
Na0 O9 2.870185 1_555
Na1 O68 2.399541 1_555
Na1 O51 2.418335 1_555
Na1 O53 2.426405 1_555
Na1 O67 2.436624 1_555
Na1 O32 2.617035 1_555
Na1 O17 2.684049 1_555
Na1 O10 2.798078 1_555
Na1 O0 2.824638 1_555
Na2 O43 2.360916 1_555
Na2 O64 2.366006 1_555
Na2 O7 2.466434 1_555
Na2 O65 2.492297 1_555
Na2 O42 2.502165 1_455
Na2 O14 2.677485 1_555
Na2 O28 2.774522 1_555
Na2 O21 2.926307 1_555
Na3 O44 2.390267 1_555
Na3 O64 2.401500 1_555
Na3 O42 2.401792 1_565
Na3 O63 2.443449 1_555
Na3 O27 2.531806 1_555
Na3 O6 2.563676 1_555
Na3 O13 2.837008 1_565
Na3 O23 2.912011 1_565
Na4 O41 2.302825 1_555
Na4 O40 2.397513 1_655
Na4 O55 2.400040 1_555
Na4 O4 2.465306 1_555
Na4 O54 2.604160 1_555
Na4 O33 2.655675 1_655
Na4 O19 2.737807 1_556
Na4 O26 2.799047 1_655
Na5 O40 2.343032 1_545
Na5 O54 2.416318 1_555
Na5 O39 2.417353 1_555
Na5 O3 2.419117 1_555
Na5 O56 2.572902 1_555
Na5 O35 2.666617 1_555
Na5 O18 2.819717 1_556
Na5 O25 2.864607 1_555
Na6 O36 2.400298 1_655
Na6 O37 2.420000 1_565
Na6 O44 2.443386 1_555
Na6 O43 2.592133 1_665
Na6 O42 2.596641 1_565
Na6 O38 2.599226 1_665
Na7 O46 2.453906 1_556
Na7 O39 2.500390 1_655
Na7 O41 2.501597 1_545
Na7 O47 2.537728 1_656
Na7 O45 2.567287 1_546
Na7 O40 2.646072 1_645
Na8 O49 2.353941 1_555
Na8 O48 2.371275 1_555
Na8 O50 2.473084 1_555
Na8 O56 2.589442 1_555
Na8 O55 2.639930 1_555
Na8 O54 2.641071 1_555
Na9 O59 2.387284 1_555
Na9 O57 2.450959 1_555
Na9 O58 2.491169 1_555
Na9 O52 2.549157 1_555
Na9 O51 2.593328 1_555
Na9 O53 2.610617 1_555
Na10 O61 2.431980 1_555
Na10 O60 2.515027 1_555
Na10 O62 2.553165 1_555
Na10 O66 2.554074 1_555
Na10 O68 2.622194 1_555
Na10 O67 2.688149 1_555
Na11 O69 2.440862 1_555
Na11 O70 2.441873 1_555
Na11 O71 2.453486 1_555
Na11 O65 2.620397 1_555
Na11 O64 2.673429 1_555
Na11 O63 2.715892 1_555
Ge0 O56 1.895718 1_555
Ge0 O55 1.907301 1_555
Ge0 O20 1.953681 1_556
Ge0 O54 1.958247 1_555
Ge0 O19 1.974512 1_556
Ge0 O18 2.006287 1_556
Ge1 O22 1.834904 1_555
Ge1 O57 1.864160 1_555
Ge1 O23 1.932702 1_555
Ge1 O59 1.972922 1_555
Ge1 O21 1.985694 1_555
Ge1 O58 2.015254 1_555
Ge2 O69 1.879455 1_555
Ge2 O35 1.913177 1_555
Ge2 O34 1.920067 1_555
Ge2 O33 1.939218 1_555
Ge2 O70 2.027778 1_555
Ge2 O71 2.058612 1_555
O0 S0 1.474063 1_545
O0 Zn0 2.125954 1_445
O1 S1 1.465436 1_555
O1 Zn0 2.047088 1_555
O2 S2 1.478606 1_655
O2 Zn0 2.092460 1_545
O3 P0 1.527893 1_555
O3 Zn1 1.975742 1_455
O4 S3 1.476789 1_655
O4 Zn1 2.084011 1_565
O5 S4 1.465391 1_545
O5 Zn1 2.015411 1_555
O6 S4 1.496444 1_555
O6 Zn2 2.098475 1_555
O7 P0 1.556518 1_555
O7 Zn2 2.038321 1_445
O8 S3 1.475447 1_555
O8 Zn2 2.026677 1_455
O9 S1 1.480051 1_555
O9 Zn3 2.080642 1_555
O10 S2 1.489058 1_555
O10 Zn3 2.094178 1_445
O11 S0 1.474564 1_555
O11 Zn3 2.061946 1_455
O12 S5 1.448316 1_555
O12 Zn4 2.160854 1_555
O13 S6 1.462795 1_555
O13 Zn4 2.104200 1_555
O14 P1 1.510883 1_555
O14 Zn4 1.946365 1_555
O15 S7 1.468065 1_555
O15 Zn5 1.963590 1_555
O16 S8 1.484358 1_555
O16 Zn5 2.002596 1_555
O17 S9 1.483663 1_555
O17 Zn5 2.021888 1_555
O18 S9 1.540746 1_555
O19 S7 1.547937 1_555
O20 S8 1.532958 1_555
O21 S6 1.538324 1_555
O22 P1 1.605681 1_555
O23 S5 1.540235 1_555
O24 P2 1.498452 1_555
O24 Zn6 1.959076 1_556
O25 P3 1.509934 1_555
O25 Zn6 1.967834 1_556
O26 P4 1.505951 1_555
O26 Zn6 1.957977 1_556
O27 P5 1.524754 1_555
O27 Zn7 1.958006 1_555
O28 S10 1.470384 1_555
O28 Zn7 2.042169 1_555
O29 S11 1.460517 1_555
O29 Zn7 2.046941 1_555
O30 S11 1.481984 1_555
O30 Zn8 2.007621 1_555
O31 P5 1.552713 1_555
O31 Zn8 1.978926 1_555
O32 S10 1.490808 1_555
O32 Zn8 2.135971 1_555
O33 P3 1.592947 1_555
O34 P4 1.578583 1_555
O35 P2 1.588519 1_555
O36 S11 1.472918 1_555
O36 Zn0 2.141861 1_455
O37 P5 1.531522 1_545
O37 Zn0 2.006192 1_545
O38 S10 1.468959 1_555
O38 Zn0 2.112448 1_445
O39 P3 1.520096 1_555
O39 Zn1 2.063631 1_455
O40 P4 1.538518 1_555
O40 Zn1 2.195824 1_465
O41 P2 1.524184 1_555
O41 Zn1 2.132112 1_565
O42 S5 1.498210 1_555
O42 Zn2 2.412149 1_545
O43 S6 1.481218 1_555
O43 Zn2 2.298889 1_445
O44 P1 1.544870 1_555
O44 Zn2 2.187794 1_555
O45 S7 1.480201 1_555
O45 Zn3 2.118526 1_555
O46 S8 1.480473 1_555
O46 Zn3 2.162839 1_545
O47 S9 1.480457 1_555
O47 Zn3 2.166883 1_445
O48 S4 1.469807 1_545
O48 Zn4 2.185760 1_555
O49 P0 1.532734 1_555
O49 Zn4 2.001146 1_555
O50 S3 1.472363 1_655
O50 Zn4 2.108119 1_555
O51 S1 1.496011 1_555
O51 Zn5 2.102989 1_555
O52 S2 1.496282 1_655
O52 Zn5 2.136873 1_555
O53 S0 1.519385 1_545
O53 Zn5 2.239753 1_555
O54 P2 1.632113 1_555
O55 P3 1.601984 1_655
O56 P4 1.605113 1_545
O57 P5 1.607810 1_545
O58 S10 1.522299 1_555
O59 S11 1.529392 1_655
O60 S9 1.464261 1_555
O60 Zn6 2.204701 1_555
O61 S7 1.461670 1_455
O61 Zn6 2.201418 1_555
O62 S8 1.462287 1_565
O62 Zn6 2.150991 1_555
O63 S6 1.476367 1_565
O63 Zn7 2.142932 1_555
O64 P1 1.564843 1_555
O64 Zn7 2.098325 1_555
O65 S5 1.478580 1_455
O65 Zn7 2.239651 1_555
O66 S0 1.491906 1_555
O66 Zn8 2.213145 1_555
O67 S1 1.510489 1_555
O67 Zn8 2.319430 1_555
O68 S2 1.488945 1_555
O68 Zn8 2.265344 1_555
O69 P0 1.613671 1_555
O70 S3 1.521227 1_555
O71 S4 1.523185 1_555
