# generated using pymatgen
data_CePt2
_symmetry_space_group_name_H-M   'P 1'
_cell_length_a   5.48836461
_cell_length_b   5.48836503
_cell_length_c   5.48836390
_cell_angle_alpha   60.00000039
_cell_angle_beta   59.99999789
_cell_angle_gamma   60.00000474
_symmetry_Int_Tables_number   1
_chemical_formula_structural   CePt2
_chemical_formula_sum   'Ce2 Pt4'
_cell_volume   116.89982325
_cell_formula_units_Z   2
loop_
 _symmetry_equiv_pos_site_id
 _symmetry_equiv_pos_as_xyz
  1  'x, y, z'
loop_
 _atom_site_type_symbol
 _atom_site_label
 _atom_site_symmetry_multiplicity
 _atom_site_fract_x
 _atom_site_fract_y
 _atom_site_fract_z
 _atom_site_occupancy
  Ce  Ce0  1  0.12500000  0.12500000  0.12500000  1
  Ce  Ce1  1  0.87500000  0.87500000  0.87500000  1
  Pt  Pt0  1  -0.00000000  0.50000000  0.50000000  1
  Pt  Pt1  1  0.50000000  0.00000000  0.50000000  1
  Pt  Pt2  1  0.50000000  0.50000000  -0.00000000  1
  Pt  Pt3  1  0.50000000  0.50000000  0.50000000  1
loop_
_geom_bond_atom_site_label_1
_geom_bond_atom_site_label_2
_geom_bond_distance
_geom_bond_site_symmetry_2
Ce0 Pt1 3.217839 1_554
Ce0 Pt0 3.217839 1_554
Ce0 Pt3 3.217839 1_554
Ce0 Pt1 3.217839 1_555
Ce0 Pt1 3.217839 1_455
Ce0 Pt0 3.217839 1_555
Ce0 Pt3 3.217839 1_455
Ce0 Pt2 3.217839 1_555
Ce0 Pt2 3.217839 1_455
Ce0 Pt0 3.217839 1_545
Ce0 Pt3 3.217839 1_545
Ce0 Pt2 3.217839 1_545
Ce0 Ce1 3.360923 1_445
Ce0 Ce1 3.360923 1_444
Ce0 Ce1 3.360923 1_544
Ce0 Ce1 3.360924 1_454
Ce1 Pt1 3.217839 1_566
Ce1 Pt0 3.217839 1_656
Ce1 Pt3 3.217839 1_556
Ce1 Pt1 3.217839 1_565
Ce1 Pt1 3.217839 1_665
Ce1 Pt0 3.217839 1_655
Ce1 Pt3 3.217839 1_655
Ce1 Pt2 3.217839 1_556
Ce1 Pt2 3.217839 1_656
Ce1 Pt0 3.217839 1_665
Ce1 Pt3 3.217839 1_565
Ce1 Pt2 3.217839 1_566
Pt0 Pt2 2.744182 1_456
Pt0 Pt2 2.744182 1_555
Pt0 Pt3 2.744182 1_555
Pt0 Pt3 2.744182 1_455
Pt0 Pt1 2.744183 1_465
Pt0 Pt1 2.744183 1_555
Pt1 Pt2 2.744182 1_546
Pt1 Pt2 2.744182 1_555
Pt1 Pt3 2.744183 1_555
Pt1 Pt3 2.744183 1_545
Pt2 Pt3 2.744182 1_554
Pt2 Pt3 2.744182 1_555
