# generated using pymatgen
data_MgTe4Mo3W(SeS)2
_symmetry_space_group_name_H-M   'P 1'
_cell_length_a   3.42160101
_cell_length_b   3.42300904
_cell_length_c   40.05415590
_cell_angle_alpha   89.96629240
_cell_angle_beta   90.00721842
_cell_angle_gamma   119.98224102
_symmetry_Int_Tables_number   1
_chemical_formula_structural   MgTe4Mo3W(SeS)2
_chemical_formula_sum   'Mg1 Te4 Mo3 W1 Se2 S2'
_cell_volume   406.34342215
_cell_formula_units_Z   1
loop_
 _symmetry_equiv_pos_site_id
 _symmetry_equiv_pos_as_xyz
  1  'x, y, z'
loop_
 _atom_site_type_symbol
 _atom_site_label
 _atom_site_symmetry_multiplicity
 _atom_site_fract_x
 _atom_site_fract_y
 _atom_site_fract_z
 _atom_site_occupancy
  Mg  Mg0  1  0.00106700  0.00299800  0.36962000  1
  Te  Te0  1  0.33337700  0.66663100  0.70456300  1
  Te  Te1  1  0.66656000  0.33321500  0.04738300  1
  Te  Te2  1  0.66646300  0.33281700  0.14042500  1
  Te  Te3  1  0.33344000  0.66697800  0.61104900  1
  Mo  Mo0  1  0.33322400  0.66647500  0.09388400  1
  Mo  Mo1  1  0.33326000  0.66657700  0.47168700  1
  Mo  Mo2  1  0.66688000  0.33360900  0.27983200  1
  W  W0  1  0.66669300  0.33337400  0.65781100  1
  Se  Se0  1  0.66656600  0.33328800  0.42939000  1
  Se  Se1  1  0.66650700  0.33294200  0.51236800  1
  S  S0  1  0.33224100  0.66363600  0.31903500  1
  S  S1  1  0.33372100  0.66746000  0.24323000  1
loop_
_geom_bond_atom_site_label_1
_geom_bond_atom_site_label_2
_geom_bond_distance
_geom_bond_site_symmetry_2
Mg0 S0 2.817296 1_555
Mg0 S0 2.834845 1_445
Mg0 S0 2.838593 1_545
Mg0 Se0 3.101089 1_455
Mg0 Se0 3.102171 1_555
Mg0 Se0 3.109415 1_445
Te0 W0 2.722157 1_565
Te0 W0 2.722497 1_555
Te0 W0 2.722529 1_455
Te3 W0 2.722262 1_555
Te3 W0 2.722412 1_455
Te3 W0 2.723335 1_565
Mo0 Te1 2.715249 1_565
Mo0 Te1 2.715579 1_455
Mo0 Te1 2.715638 1_555
Mo0 Te2 2.716268 1_555
Mo0 Te2 2.716361 1_455
Mo0 Te2 2.717134 1_565
Mo1 Se1 2.560920 1_555
Mo1 Se1 2.560995 1_455
Mo1 Se1 2.561741 1_565
Mo1 Se0 2.602640 1_565
Mo1 Se0 2.602978 1_555
Mo1 Se0 2.603014 1_455
Mo2 S1 2.460457 1_545
Mo2 S1 2.460509 1_655
Mo2 S1 2.460555 1_555
Mo2 S0 2.519567 1_555
Mo2 S0 2.521009 1_655
Mo2 S0 2.531362 1_545
