# generated using pymatgen
data_MnV2O6
_symmetry_space_group_name_H-M   'P 1'
_cell_length_a   3.60038715
_cell_length_b   8.15741931
_cell_length_c   10.11709870
_cell_angle_alpha   117.87473529
_cell_angle_beta   90.00115497
_cell_angle_gamma   102.75030491
_symmetry_Int_Tables_number   1
_chemical_formula_structural   MnV2O6
_chemical_formula_sum   'Mn2 V4 O12'
_cell_volume   254.34244461
_cell_formula_units_Z   2
loop_
 _symmetry_equiv_pos_site_id
 _symmetry_equiv_pos_as_xyz
  1  'x, y, z'
loop_
 _atom_site_type_symbol
 _atom_site_label
 _atom_site_symmetry_multiplicity
 _atom_site_fract_x
 _atom_site_fract_y
 _atom_site_fract_z
 _atom_site_occupancy
  Mn  Mn0  1  0.49998561  0.99997176  0.49998807  1
  Mn  Mn1  1  1.00000422  0.00002567  0.00001654  1
  V  V0  1  0.15783597  0.31573509  0.40717178  1
  V  V1  1  0.84216594  0.68427109  0.59284853  1
  V  V2  1  0.65783487  0.31572671  0.90714969  1
  V  V3  1  0.34216709  0.68426746  0.09282986  1
  O  O0  1  0.06360452  0.12724473  0.44530063  1
  O  O1  1  0.56361222  0.12727300  0.94532355  1
  O  O2  1  0.93638176  0.87272551  0.55467789  1
  O  O3  1  0.43639155  0.87275779  0.05469640  1
  O  O4  1  0.11485682  0.22978695  0.22100612  1
  O  O5  1  0.61483659  0.22973514  0.72098084  1
  O  O6  1  0.88516647  0.77026198  0.77901934  1
  O  O7  1  0.38514938  0.77021668  0.27899218  1
  O  O8  1  0.30351002  0.60699564  0.53672020  1
  O  O9  1  0.80351363  0.60699744  0.03667798  1
  O  O10  1  0.69648994  0.39300490  0.46331559  1
  O  O11  1  0.19649240  0.39300445  0.96328480  1
loop_
_geom_bond_atom_site_label_1
_geom_bond_atom_site_label_2
_geom_bond_distance
_geom_bond_site_symmetry_2
Mn0 O7 2.102880 1_555
Mn0 O5 2.102883 1_565
Mn0 O2 2.260213 1_455
Mn0 O0 2.260327 1_665
Mn0 O2 2.260341 1_555
Mn0 O0 2.260445 1_565
Mn1 O4 2.102857 1_655
Mn1 O6 2.102913 1_544
Mn1 O1 2.260243 1_654
Mn1 O3 2.260259 1_545
Mn1 O1 2.260350 1_554
Mn1 O3 2.260397 1_645
O0 V0 1.718277 1_555
O1 V2 1.718284 1_555
O2 V1 1.718269 1_555
O3 V3 1.718307 1_555
O4 V0 1.667400 1_555
O5 V2 1.667385 1_555
O6 V1 1.667404 1_555
O7 V3 1.667367 1_555
O8 V1 1.899025 1_455
O8 V1 1.899102 1_555
O8 V0 2.043530 1_555
O9 V3 1.899051 1_555
O9 V3 1.899130 1_655
O9 V2 2.043577 1_554
O10 V0 1.899036 1_655
O10 V0 1.899120 1_555
O10 V1 2.043552 1_555
O11 V2 1.899036 1_555
O11 V2 1.899117 1_455
O11 V3 2.043543 1_556
