# generated using pymatgen
data_CsEr6CI12
_symmetry_space_group_name_H-M   'P 1'
_cell_length_a   9.53225615
_cell_length_b   9.53225615
_cell_length_c   9.53225651
_cell_angle_alpha   72.75704121
_cell_angle_beta   72.75704121
_cell_angle_gamma   72.75703917
_symmetry_Int_Tables_number   1
_chemical_formula_structural   CsEr6CI12
_chemical_formula_sum   'Cs1 Er6 C1 I12'
_cell_volume   769.10429612
_cell_formula_units_Z   1
loop_
 _symmetry_equiv_pos_site_id
 _symmetry_equiv_pos_as_xyz
  1  'x, y, z'
loop_
 _atom_site_type_symbol
 _atom_site_label
 _atom_site_symmetry_multiplicity
 _atom_site_fract_x
 _atom_site_fract_y
 _atom_site_fract_z
 _atom_site_occupancy
  Cs  Cs0  1  0.50000000  0.50000000  0.50000000  1
  Er  Er0  1  0.02885100  0.26510700  0.91187500  1
  Er  Er1  1  0.91187500  0.02885100  0.26510700  1
  Er  Er2  1  0.73489300  0.08812500  0.97114900  1
  Er  Er3  1  0.97114900  0.73489300  0.08812500  1
  Er  Er4  1  0.08812500  0.97114900  0.73489300  1
  Er  Er5  1  0.26510700  0.91187500  0.02885100  1
  C  C0  1  0.00000000  0.00000000  0.00000000  1
  I  I0  1  0.58043200  0.14465300  0.28122200  1
  I  I1  1  0.28122200  0.58043200  0.14465300  1
  I  I2  1  0.14465300  0.28122200  0.58043200  1
  I  I3  1  0.41956800  0.85534700  0.71877800  1
  I  I4  1  0.71877800  0.41956800  0.85534700  1
  I  I5  1  0.85534700  0.71877800  0.41956800  1
  I  I6  1  0.78844200  0.06868000  0.63995600  1
  I  I7  1  0.06868000  0.63995600  0.78844200  1
  I  I8  1  0.63995600  0.78844200  0.06868000  1
  I  I9  1  0.21155800  0.93132000  0.36004400  1
  I  I10  1  0.93132000  0.36004400  0.21155800  1
  I  I11  1  0.36004400  0.21155800  0.93132000  1
loop_
_geom_bond_atom_site_label_1
_geom_bond_atom_site_label_2
_geom_bond_distance
_geom_bond_site_symmetry_2
Cs0 I0 4.255673 1_555
Cs0 I3 4.255673 1_555
Cs0 I5 4.255673 1_555
Cs0 I2 4.255673 1_555
Cs0 I4 4.255673 1_555
Cs0 I1 4.255673 1_555
Cs0 I6 4.297046 1_555
Cs0 I9 4.297046 1_555
Cs0 I7 4.297046 1_555
Cs0 I10 4.297046 1_555
Cs0 I8 4.297047 1_555
Cs0 I11 4.297047 1_555
Er0 I2 2.994851 1_555
Er0 I4 3.014663 1_455
Er0 I10 3.050099 1_456
Er0 I11 3.097923 1_555
Er0 I7 3.513255 1_555
Er1 I0 2.994851 1_555
Er1 I5 3.014663 1_545
Er1 I9 3.050099 1_645
Er1 I10 3.097923 1_555
Er1 I6 3.513255 1_555
Er2 I4 2.994851 1_555
Er2 I0 3.014663 1_556
Er2 I8 3.050099 1_546
Er2 I6 3.097923 1_555
Er2 I11 3.513255 1_555
Er3 I5 2.994851 1_555
Er3 I1 3.014663 1_655
Er3 I7 3.050099 1_654
Er3 I8 3.097923 1_555
Er3 I10 3.513255 1_555
Er4 I3 2.994851 1_555
Er4 I2 3.014663 1_565
Er4 I6 3.050099 1_465
Er4 I7 3.097923 1_555
Er4 I9 3.513255 1_555
Er5 I1 2.994851 1_555
Er5 I3 3.014663 1_554
Er5 I11 3.050099 1_564
Er5 I9 3.097923 1_555
Er5 I8 3.513255 1_555
C0 Er2 2.486746 1_454
C0 Er5 2.486746 1_545
C0 Er0 2.486746 1_554
C0 Er3 2.486746 1_445
C0 Er1 2.486747 1_455
C0 Er4 2.486747 1_544
