# generated using pymatgen
data_Er7(NiTe)2
_symmetry_space_group_name_H-M   'P 1'
_cell_length_a   3.81799866
_cell_length_b   9.22689794
_cell_length_c   9.22691885
_cell_angle_alpha   61.94915324
_cell_angle_beta   78.05959249
_cell_angle_gamma   78.05955138
_symmetry_Int_Tables_number   1
_chemical_formula_structural   Er7(NiTe)2
_chemical_formula_sum   'Er7 Ni2 Te2'
_cell_volume   278.38814931
_cell_formula_units_Z   1
loop_
 _symmetry_equiv_pos_site_id
 _symmetry_equiv_pos_as_xyz
  1  'x, y, z'
loop_
 _atom_site_type_symbol
 _atom_site_label
 _atom_site_symmetry_multiplicity
 _atom_site_fract_x
 _atom_site_fract_y
 _atom_site_fract_z
 _atom_site_occupancy
  Er  Er0  1  0.50000050  0.17986185  0.82013714  1
  Er  Er1  1  0.81338990  0.24874152  0.12447868  1
  Er  Er2  1  0.18661048  0.87553093  0.75124911  1
  Er  Er3  1  0.85397507  0.55471880  0.73733005  1
  Er  Er4  1  0.14602667  0.26267034  0.44527632  1
  Er  Er5  1  0.63314155  0.63209855  0.10161836  1
  Er  Er6  1  0.36685912  0.89837633  0.36790543  1
  Ni  Ni0  1  0.26181224  0.49088907  0.98548745  1
  Ni  Ni1  1  0.73818803  0.01452283  0.50910010  1
  Te  Te0  1  0.99999682  0.91840363  0.08160274  1
  Te  Te1  1  0.49999963  0.51882714  0.48117361  1
loop_
_geom_bond_atom_site_label_1
_geom_bond_atom_site_label_2
_geom_bond_distance
_geom_bond_site_symmetry_2
Er0 Te0 3.132187 1_546
Er0 Te0 3.132188 1_446
Er0 Te1 3.219280 1_555
Er1 Ni0 2.747227 1_554
Er1 Ni0 2.747230 1_654
Er1 Ni1 3.157405 1_555
Er1 Te0 3.173840 1_545
Er2 Ni1 2.747238 1_565
Er2 Ni1 2.747242 1_465
Er2 Ni0 3.157578 1_555
Er2 Te0 3.173972 1_456
Er3 Ni0 2.800331 1_555
Er3 Ni0 2.800335 1_655
Er3 Te1 3.124992 1_555
Er3 Te1 3.124995 1_655
Er4 Ni1 2.800273 1_555
Er4 Ni1 2.800275 1_455
Er4 Te1 3.125014 1_555
Er4 Te1 3.125014 1_455
Er5 Ni0 2.749871 1_554
Er5 Ni0 2.749875 1_654
Er5 Te1 3.107463 1_555
Er5 Te0 3.152735 1_555
Er5 Te0 3.152735 1_455
Er6 Ni1 2.749870 1_565
Er6 Ni1 2.749873 1_465
Er6 Te1 3.107407 1_555
Er6 Te0 3.152690 1_455
Er6 Te0 3.152691 1_555
