# generated using pymatgen
data_Cr2CoS4
_symmetry_space_group_name_H-M   'P 1'
_cell_length_a   6.91551422
_cell_length_b   6.91551422
_cell_length_c   6.91551422
_cell_angle_alpha   60.00000000
_cell_angle_beta   60.00000000
_cell_angle_gamma   60.00000000
_symmetry_Int_Tables_number   1
_chemical_formula_structural   Cr2CoS4
_chemical_formula_sum   'Cr4 Co2 S8'
_cell_volume   233.86134231
_cell_formula_units_Z   2
loop_
 _symmetry_equiv_pos_site_id
 _symmetry_equiv_pos_as_xyz
  1  'x, y, z'
loop_
 _atom_site_type_symbol
 _atom_site_label
 _atom_site_symmetry_multiplicity
 _atom_site_fract_x
 _atom_site_fract_y
 _atom_site_fract_z
 _atom_site_occupancy
  Cr  Cr0  1  0.12500000  0.12500000  0.12500000  1
  Cr  Cr1  1  0.62500000  0.12500000  0.12500000  1
  Cr  Cr2  1  0.12500000  0.12500000  0.62500000  1
  Cr  Cr3  1  0.12500000  0.62500000  0.12500000  1
  Co  Co0  1  0.75000000  0.75000000  0.75000000  1
  Co  Co1  1  0.50000000  0.50000000  0.50000000  1
  S  S0  1  0.88094100  0.35717600  0.88094100  1
  S  S1  1  0.36905900  0.36905900  0.89282400  1
  S  S2  1  0.36905900  0.36905900  0.36905900  1
  S  S3  1  0.89282400  0.36905900  0.36905900  1
  S  S4  1  0.88094100  0.88094100  0.88094100  1
  S  S5  1  0.35717600  0.88094100  0.88094100  1
  S  S6  1  0.36905900  0.89282400  0.36905900  1
  S  S7  1  0.88094100  0.88094100  0.35717600  1
loop_
_geom_bond_atom_site_label_1
_geom_bond_atom_site_label_2
_geom_bond_distance
_geom_bond_site_symmetry_2
Cr0 S1 2.388315 1_554
Cr0 S6 2.388315 1_545
Cr0 S3 2.388315 1_455
Cr0 S0 2.388315 1_454
Cr0 S5 2.388315 1_544
Cr0 S7 2.388315 1_445
Cr1 S7 2.388310 1_545
Cr1 S0 2.388310 1_554
Cr1 S6 2.388310 1_545
Cr1 S1 2.388310 1_554
Cr1 S2 2.388314 1_555
Cr1 S4 2.388314 1_544
Cr2 S0 2.388310 1_455
Cr2 S5 2.388310 1_545
Cr2 S3 2.388310 1_455
Cr2 S6 2.388310 1_545
Cr2 S2 2.388314 1_555
Cr2 S4 2.388314 1_445
Cr3 S7 2.388310 1_455
Cr3 S5 2.388310 1_554
Cr3 S3 2.388310 1_455
Cr3 S1 2.388310 1_554
Cr3 S2 2.388314 1_555
Cr3 S4 2.388314 1_454
Co0 S4 2.218073 1_555
Co0 S0 2.218078 1_555
Co0 S7 2.218078 1_555
Co0 S5 2.218078 1_555
Co1 S2 2.218073 1_555
Co1 S1 2.218078 1_555
Co1 S6 2.218078 1_555
Co1 S3 2.218078 1_555
