# generated using pymatgen
data_Na3YSn3(PO4)6
_symmetry_space_group_name_H-M   'P 1'
_cell_length_a   8.90569200
_cell_length_b   8.91810926
_cell_length_c   23.00513841
_cell_angle_alpha   89.84520821
_cell_angle_beta   90.13389085
_cell_angle_gamma   120.25930821
_symmetry_Int_Tables_number   1
_chemical_formula_structural   Na3YSn3(PO4)6
_chemical_formula_sum   'Na9 Y3 Sn9 P18 O72'
_cell_volume   1578.16840587
_cell_formula_units_Z   3
loop_
 _symmetry_equiv_pos_site_id
 _symmetry_equiv_pos_as_xyz
  1  'x, y, z'
loop_
 _atom_site_type_symbol
 _atom_site_label
 _atom_site_symmetry_multiplicity
 _atom_site_fract_x
 _atom_site_fract_y
 _atom_site_fract_z
 _atom_site_occupancy
  Na  Na0  1  0.36159346  0.35638706  0.24697291  1
  Na  Na1  1  0.63546436  0.63068945  0.74938973  1
  Na  Na2  1  0.96977098  0.29766808  0.41543418  1
  Na  Na3  1  0.00062329  0.98867467  0.50169797  1
  Na  Na4  1  0.99998882  0.00011123  0.00239151  1
  Na  Na5  1  0.66754738  0.32174724  0.83594922  1
  Na  Na6  1  0.66711779  0.33349532  0.32960764  1
  Na  Na7  1  0.33261627  0.67831819  0.16341309  1
  Na  Na8  1  0.32146683  0.66764010  0.66469005  1
  Y  Y0  1  0.99707267  0.98743214  0.35468097  1
  Y  Y1  1  0.66762390  0.32513527  0.68522891  1
  Y  Y2  1  0.67566636  0.33311983  0.18007960  1
  Sn  Sn0  1  0.00344573  0.00275871  0.85598547  1
  Sn  Sn1  1  0.00264853  0.00339904  0.64741741  1
  Sn  Sn2  1  0.99671922  0.99709791  0.14716441  1
  Sn  Sn3  1  0.66629040  0.33360265  0.98305152  1
  Sn  Sn4  1  0.66134343  0.33408775  0.48454511  1
  Sn  Sn5  1  0.33346183  0.66557363  0.01582034  1
  Sn  Sn6  1  0.33780332  0.66916410  0.51999520  1
  Sn  Sn7  1  0.33571429  0.67476574  0.31485956  1
  Sn  Sn8  1  0.32813775  0.66721659  0.81709255  1
  P  P0  1  0.29058604  0.99247767  0.24882777  1
  P  P1  1  0.69735825  0.70573570  0.24908239  1
  P  P2  1  0.00642727  0.29863981  0.25298714  1
  P  P3  1  0.28429147  0.29350692  0.75261371  1
  P  P4  1  0.00910723  0.71972552  0.75214748  1
  P  P5  1  0.71037686  0.99337461  0.75359034  1
  P  P6  1  0.96724181  0.33162984  0.58060295  1
  P  P7  1  0.36371532  0.03229249  0.58181257  1
  P  P8  1  0.66881061  0.63451740  0.58410407  1
  P  P9  1  0.97022875  0.63778007  0.07952162  1
  P  P10  1  0.66735218  0.03106113  0.07995892  1
  P  P11  1  0.36427113  0.33273434  0.08203036  1
  P  P12  1  0.62618145  0.66398315  0.91566400  1
  P  P13  1  0.03715131  0.37319032  0.91690905  1
  P  P14  1  0.33604355  0.96150275  0.91677670  1
  P  P15  1  0.61869658  0.96365891  0.41953492  1
  P  P16  1  0.34404455  0.38469118  0.41772904  1
  P  P17  1  0.04088214  0.65767213  0.42051974  1
  O  O0  1  0.21119798  0.02132061  0.30324646  1
  O  O1  1  0.80080133  0.78469017  0.30413574  1
  O  O2  1  0.98904127  0.20175382  0.30971703  1
  O  O3  1  0.20130356  0.18344379  0.80704503  1
  O  O4  1  0.97792161  0.80301911  0.80595347  1
  O  O5  1  0.81972292  0.01593271  0.80780748  1
  O  O6  1  0.78854422  0.95796154  0.69802411  1
  O  O7  1  0.17635568  0.21349817  0.69649403  1
  O  O8  1  0.03694473  0.82739812  0.69596151  1
  O  O9  1  0.78349771  0.81721525  0.19393872  1
  O  O10  1  0.03877202  0.20985125  0.19930366  1
  O  O11  1  0.17850796  0.96609824  0.19368962  1
  O  O12  1  0.88628349  0.36138930  0.63382984  1
  O  O13  1  0.47144197  0.10961994  0.63608533  1
  O  O14  1  0.63973173  0.53237321  0.64019916  1
  O  O15  1  0.89788588  0.53252083  0.13472004  1
  O  O16  1  0.63413552  0.10299608  0.13494484  1
  O  O17  1  0.46479093  0.36263950  0.13867856  1
  O  O18  1  0.45452787  0.30300562  0.02887869  1
  O  O19  1  0.85194235  0.55020132  0.02561420  1
  O  O20  1  0.69887604  0.14890993  0.02590545  1
  O  O21  1  0.44739837  0.14628597  0.52677907  1
  O  O22  1  0.69775011  0.54698262  0.53007837  1
  O  O23  1  0.85695430  0.30328423  0.52424432  1
  O  O24  1  0.53972934  0.69509895  0.96795920  1
  O  O25  1  0.15260898  0.45587666  0.97025952  1
  O  O26  1  0.30334625  0.84625770  0.97007617  1
  O  O27  1  0.53545036  0.85283950  0.47351260  1
  O  O28  1  0.31486663  0.47319206  0.47013862  1
  O  O29  1  0.15098704  0.67974514  0.47415545  1
  O  O30  1  0.11954534  0.62359057  0.36480287  1
  O  O31  1  0.51154721  0.88295053  0.36340767  1
  O  O32  1  0.36895686  0.48829974  0.36027178  1
  O  O33  1  0.11625254  0.48400083  0.86119078  1
  O  O34  1  0.36810432  0.88339324  0.86115718  1
  O  O35  1  0.51936088  0.63488566  0.85855079  1
  O  O36  1  0.01723542  0.81397314  0.41848988  1
  O  O37  1  0.80372086  0.99333007  0.41706227  1
  O  O38  1  0.17875076  0.20587588  0.41590287  1
  O  O39  1  0.01985334  0.19138334  0.91192319  1
  O  O40  1  0.17144710  0.97909071  0.91163952  1
  O  O41  1  0.80943617  0.82859287  0.91147420  1
  O  O42  1  0.98260080  0.16601321  0.58640464  1
  O  O43  1  0.18161647  0.01496760  0.58663068  1
  O  O44  1  0.83351297  0.81801548  0.58756555  1
  O  O45  1  0.98603182  0.81895977  0.08499563  1
  O  O46  1  0.83322319  0.01549870  0.08581995  1
  O  O47  1  0.18063319  0.16748623  0.08633137  1
  O  O48  1  0.68705632  0.14990388  0.74976563  1
  O  O49  1  0.46942168  0.32335428  0.74856610  1
  O  O50  1  0.84371138  0.54081130  0.74799075  1
  O  O51  1  0.66385754  0.51984057  0.24419444  1
  O  O52  1  0.85197897  0.32512561  0.24700317  1
  O  O53  1  0.47048058  0.15523862  0.24362380  1
  O  O54  1  0.64232377  0.49970989  0.92241738  1
  O  O55  1  0.85537875  0.35450319  0.92300472  1
  O  O56  1  0.49915887  0.14416678  0.92303389  1
  O  O57  1  0.63624562  0.14669561  0.42398658  1
  O  O58  1  0.51005074  0.37126009  0.42375465  1
  O  O59  1  0.86078094  0.48591528  0.42484735  1
  O  O60  1  0.34527841  0.49458715  0.07286530  1
  O  O61  1  0.15219347  0.65803649  0.07176536  1
  O  O62  1  0.50653429  0.84806596  0.07188798  1
  O  O63  1  0.34151229  0.84936668  0.57557457  1
  O  O64  1  0.50695052  0.65476557  0.57638415  1
  O  O65  1  0.15179711  0.49202679  0.57519189  1
  O  O66  1  0.30375976  0.82546774  0.25396736  1
  O  O67  1  0.51421997  0.69024505  0.25339799  1
  O  O68  1  0.18089807  0.47849007  0.25541239  1
  O  O69  1  0.30259893  0.47754694  0.75736654  1
  O  O70  1  0.17400962  0.70339104  0.75756291  1
  O  O71  1  0.52980488  0.82088488  0.75822488  1
loop_
_geom_bond_atom_site_label_1
_geom_bond_atom_site_label_2
_geom_bond_distance
_geom_bond_site_symmetry_2
Na0 O51 2.328258 1_555
Na0 O68 2.362558 1_555
Na0 O53 2.432793 1_555
Na0 O67 2.580109 1_555
Na0 O17 2.648162 1_555
Na0 O10 2.717034 1_555
Na0 O32 2.849540 1_555
Na0 O0 2.890080 1_555
Na1 O71 2.327034 1_555
Na1 O50 2.362535 1_555
Na1 O49 2.369535 1_555
Na1 O69 2.570500 1_555
Na1 O14 2.669458 1_555
Na1 O35 2.725548 1_555
Na1 O6 2.784277 1_555
Na1 O4 2.936839 1_555
Na2 O59 2.335087 1_555
Na2 O37 2.347199 1_545
Na2 O38 2.381026 1_655
Na2 O57 2.577761 1_555
Na2 O2 2.614777 1_555
Na2 O23 2.709441 1_555
Na2 O30 2.768736 1_655
Na2 O28 2.936573 1_655
Na3 O43 2.465285 1_565
Na3 O44 2.479539 1_455
Na3 O36 2.522543 1_555
Na3 O42 2.568717 1_465
Na3 O37 2.631478 1_455
Na3 O38 2.657309 1_565
Na4 O45 2.453311 1_545
Na4 O47 2.475082 1_655
Na4 O46 2.475547 1_555
Na4 O39 2.636466 1_654
Na4 O41 2.641743 1_544
Na4 O40 2.651601 1_644
Na5 O56 2.524654 1_555
Na5 O55 2.527730 1_555
Na5 O48 2.568294 1_555
Na5 O54 2.627686 1_555
Na5 O49 2.676449 1_555
Na5 O50 2.697603 1_555
Na6 O52 2.542913 1_555
Na6 O51 2.579592 1_555
Na6 O53 2.588771 1_555
Na6 O57 2.662061 1_555
Na6 O58 2.693307 1_555
Na6 O59 2.694157 1_555
Na7 O66 2.546586 1_555
Na7 O67 2.593172 1_555
Na7 O61 2.598660 1_555
Na7 O62 2.599795 1_555
Na7 O68 2.654639 1_555
Na7 O60 2.691175 1_555
Na8 O63 2.559989 1_555
Na8 O65 2.567686 1_555
Na8 O70 2.613387 1_555
Na8 O64 2.660238 1_555
Na8 O69 2.672604 1_555
Na8 O71 2.717001 1_555
O0 P0 1.523961 1_545
O0 Y0 2.134390 1_445
O1 P1 1.514639 1_555
O1 Y0 2.119725 1_555
O2 P2 1.527675 1_655
O2 Y0 2.203427 1_545
O3 P3 1.531092 1_555
O3 Sn0 2.026546 1_555
O4 P4 1.541296 1_655
O4 Sn0 2.037464 1_665
O5 P5 1.530586 1_545
O5 Sn0 2.025799 1_655
O6 P5 1.564075 1_555
O6 Sn1 2.093898 1_665
O7 P3 1.551719 1_555
O7 Sn1 2.064109 1_555
O8 P4 1.552132 1_555
O8 Sn1 2.067890 1_565
O9 P1 1.554125 1_555
O9 Sn2 2.065746 1_555
O10 P2 1.572259 1_555
O10 Sn2 2.114949 1_445
O11 P0 1.555522 1_555
O11 Sn2 2.069881 1_455
O12 P6 1.512737 1_555
O12 Y1 2.160765 1_555
O13 P7 1.512327 1_555
O13 Y1 2.154745 1_555
O14 P8 1.523040 1_555
O14 Y1 2.236445 1_555
O15 P9 1.515467 1_555
O15 Y2 2.149539 1_555
O16 P10 1.515445 1_555
O16 Y2 2.161356 1_555
O17 P11 1.525335 1_555
O17 Y2 2.234245 1_555
O18 P11 1.559695 1_555
O18 Sn3 2.057090 1_554
O19 P9 1.558078 1_555
O19 Sn3 2.051235 1_554
O20 P10 1.557854 1_555
O20 Sn3 2.059302 1_554
O21 P7 1.557459 1_555
O21 Sn4 2.040373 1_555
O22 P8 1.558865 1_555
O22 Sn4 2.048387 1_555
O23 P6 1.566906 1_555
O23 Sn4 2.101858 1_555
O24 P12 1.529240 1_555
O24 Sn5 2.043640 1_556
O25 P13 1.530428 1_555
O25 Sn5 2.038886 1_556
O26 P14 1.528990 1_555
O26 Sn5 2.049616 1_556
O27 P15 1.525641 1_555
O27 Sn6 2.004598 1_555
O28 P16 1.535396 1_555
O28 Sn6 2.015350 1_555
O29 P17 1.524426 1_555
O29 Sn6 2.009591 1_555
O30 P17 1.564287 1_555
O30 Sn7 2.087234 1_555
O31 P15 1.550139 1_555
O31 Sn7 2.054128 1_555
O32 P16 1.561519 1_555
O32 Sn7 2.104689 1_555
O33 P13 1.552943 1_555
O33 Sn8 2.037715 1_555
O34 P14 1.552721 1_555
O34 Sn8 2.046548 1_555
O35 P12 1.563926 1_555
O35 Sn8 2.092531 1_555
O36 P17 1.511607 1_555
O36 Y0 2.201476 1_455
O37 P15 1.532750 1_555
O37 Y0 2.265069 1_555
O38 P16 1.531659 1_555
O38 Y0 2.285630 1_445
O39 P13 1.554007 1_555
O39 Sn0 2.066435 1_555
O40 P14 1.555018 1_555
O40 Sn0 2.056739 1_565
O41 P12 1.553449 1_555
O41 Sn0 2.078997 1_665
O42 P6 1.555786 1_555
O42 Sn1 2.086595 1_655
O43 P7 1.553816 1_555
O43 Sn1 2.085763 1_555
O44 P8 1.554616 1_555
O44 Sn1 2.095435 1_665
O45 P9 1.555072 1_555
O45 Sn2 2.106564 1_555
O46 P10 1.557286 1_555
O46 Sn2 2.090106 1_545
O47 P11 1.557937 1_555
O47 Sn2 2.107390 1_445
O48 P5 1.513597 1_545
O48 Y1 2.221525 1_555
O49 P3 1.534949 1_555
O49 Y1 2.285313 1_555
O50 P4 1.534983 1_655
O50 Y1 2.282097 1_555
O51 P1 1.533765 1_555
O51 Y2 2.269353 1_555
O52 P2 1.514276 1_655
O52 Y2 2.223020 1_555
O53 P0 1.531082 1_545
O53 Y2 2.251911 1_555
O54 P12 1.549829 1_555
O54 Sn3 2.119393 1_555
O55 P13 1.548234 1_655
O55 Sn3 2.114673 1_555
O56 P14 1.549190 1_545
O56 Sn3 2.108230 1_555
O57 P15 1.563064 1_545
O57 Sn4 2.101992 1_555
O58 P16 1.548112 1_555
O58 Sn4 2.078442 1_555
O59 P17 1.566084 1_655
O59 Sn4 2.109909 1_555
O60 P11 1.549443 1_555
O60 Sn5 2.051534 1_555
O61 P9 1.548129 1_455
O61 Sn5 2.041289 1_555
O62 P10 1.547185 1_565
O62 Sn5 2.040105 1_555
O63 P7 1.548237 1_565
O63 Sn6 2.043528 1_555
O64 P8 1.550150 1_555
O64 Sn6 2.037984 1_555
O65 P6 1.547119 1_455
O65 Sn6 2.052720 1_555
O66 P0 1.556016 1_555
O66 Sn7 2.054998 1_555
O67 P1 1.569273 1_555
O67 Sn7 2.081763 1_555
O68 P2 1.574276 1_555
O68 Sn7 2.099293 1_555
O69 P3 1.569574 1_555
O69 Sn8 2.103365 1_555
O70 P4 1.551803 1_555
O70 Sn8 2.073346 1_555
O71 P5 1.571793 1_555
O71 Sn8 2.111506 1_555
