# generated using pymatgen
data_Ti3Hg
_symmetry_space_group_name_H-M   'P 1'
_cell_length_a   5.17707834
_cell_length_b   5.17707834
_cell_length_c   5.17707834
_cell_angle_alpha   90.00000000
_cell_angle_beta   90.00000000
_cell_angle_gamma   90.00000000
_symmetry_Int_Tables_number   1
_chemical_formula_structural   Ti3Hg
_chemical_formula_sum   'Ti6 Hg2'
_cell_volume   138.75677918
_cell_formula_units_Z   2
loop_
 _symmetry_equiv_pos_site_id
 _symmetry_equiv_pos_as_xyz
  1  'x, y, z'
loop_
 _atom_site_type_symbol
 _atom_site_label
 _atom_site_symmetry_multiplicity
 _atom_site_fract_x
 _atom_site_fract_y
 _atom_site_fract_z
 _atom_site_occupancy
  Ti  Ti0  1  0.50000000  0.25000000  0.00000000  1
  Ti  Ti1  1  0.50000000  0.75000000  0.00000000  1
  Ti  Ti2  1  0.25000000  0.00000000  0.50000000  1
  Ti  Ti3  1  0.75000000  0.00000000  0.50000000  1
  Ti  Ti4  1  -0.00000000  0.50000000  0.25000000  1
  Ti  Ti5  1  -0.00000000  0.50000000  0.75000000  1
  Hg  Hg0  1  0.50000000  0.50000000  0.50000000  1
  Hg  Hg1  1  -0.00000000  0.00000000  0.00000000  1
loop_
_geom_bond_atom_site_label_1
_geom_bond_atom_site_label_2
_geom_bond_distance
_geom_bond_site_symmetry_2
Ti0 Ti1 2.588539 1_545
Ti0 Ti1 2.588539 1_555
Ti2 Ti3 2.588539 1_555
Ti2 Ti3 2.588539 1_455
Ti4 Ti5 2.588539 1_554
Ti4 Ti5 2.588539 1_555
Hg0 Ti2 2.894075 1_565
Hg0 Ti0 2.894075 1_556
Hg0 Ti0 2.894075 1_555
Hg0 Ti5 2.894075 1_655
Hg0 Ti3 2.894075 1_555
Hg0 Ti4 2.894075 1_555
Hg0 Ti2 2.894075 1_555
Hg0 Ti3 2.894075 1_565
Hg0 Ti1 2.894075 1_555
Hg0 Ti1 2.894075 1_556
Hg0 Ti4 2.894075 1_655
Hg0 Ti5 2.894075 1_555
Hg1 Ti3 2.894075 1_454
Hg1 Ti3 2.894075 1_455
Hg1 Ti0 2.894075 1_555
Hg1 Ti5 2.894075 1_544
Hg1 Ti1 2.894075 1_545
Hg1 Ti4 2.894075 1_555
Hg1 Ti5 2.894075 1_554
Hg1 Ti2 2.894075 1_554
Hg1 Ti2 2.894075 1_555
Hg1 Ti1 2.894075 1_445
Hg1 Ti4 2.894075 1_545
Hg1 Ti0 2.894075 1_455
