# generated using pymatgen
data_Na2Hf3ZnP4(SO12)2
_symmetry_space_group_name_H-M   'P 1'
_cell_length_a   8.81016377
_cell_length_b   8.81680351
_cell_length_c   23.16933375
_cell_angle_alpha   90.12346307
_cell_angle_beta   89.85695831
_cell_angle_gamma   120.05148683
_symmetry_Int_Tables_number   1
_chemical_formula_structural   Na2Hf3ZnP4(SO12)2
_chemical_formula_sum   'Na6 Hf9 Zn3 P12 S6 O72'
_cell_volume   1557.80171659
_cell_formula_units_Z   3
loop_
 _symmetry_equiv_pos_site_id
 _symmetry_equiv_pos_as_xyz
  1  'x, y, z'
loop_
 _atom_site_type_symbol
 _atom_site_label
 _atom_site_symmetry_multiplicity
 _atom_site_fract_x
 _atom_site_fract_y
 _atom_site_fract_z
 _atom_site_occupancy
  Na  Na0  1  0.00045139  0.99512188  0.50604869  1
  Na  Na1  1  0.00467368  0.99869763  0.00347806  1
  Na  Na2  1  0.66335712  0.32807042  0.83209419  1
  Na  Na3  1  0.66744935  0.33280849  0.33737512  1
  Na  Na4  1  0.32962906  0.66270120  0.17060202  1
  Na  Na5  1  0.34140043  0.66905388  0.66483090  1
  Hf  Hf0  1  0.00093435  -0.00001302  0.35707476  1
  Hf  Hf1  1  0.00190815  0.00788365  0.85250244  1
  Hf  Hf2  1  0.65282968  0.32502578  0.68530751  1
  Hf  Hf3  1  0.66854556  0.34139986  0.18605841  1
  Hf  Hf4  1  0.66396959  0.33904502  0.97968901  1
  Hf  Hf5  1  0.66055938  0.33595817  0.48001076  1
  Hf  Hf6  1  0.32739508  0.66106036  0.01975073  1
  Hf  Hf7  1  0.34010924  0.67231650  0.51848791  1
  Hf  Hf8  1  0.34014130  0.66801625  0.81311357  1
  Zn  Zn0  1  0.99803880  -0.00001416  0.64747443  1
  Zn  Zn1  1  0.01039232  0.99971437  0.14703663  1
  Zn  Zn2  1  0.33248062  0.66632804  0.32388281  1
  P  P0  1  0.28614912  0.28797326  0.74802354  1
  P  P1  1  0.71366398  0.00218067  0.74789923  1
  P  P2  1  0.36821569  0.03973970  0.58299815  1
  P  P3  1  0.67139114  0.62959938  0.58401001  1
  P  P4  1  0.95720020  0.62908881  0.08366741  1
  P  P5  1  0.37084449  0.32942187  0.08392596  1
  P  P6  1  0.62482663  0.66965575  0.91698459  1
  P  P7  1  0.04244102  0.37725836  0.91616885  1
  P  P8  1  0.33225246  0.95548449  0.91679988  1
  P  P9  1  0.62102402  0.95787974  0.41454958  1
  P  P10  1  0.33448992  0.38122769  0.41490182  1
  P  P11  1  0.04459312  0.66329622  0.41529809  1
  S  S0  1  0.28986109  0.99538179  0.24897459  1
  S  S1  1  0.70768398  0.71420554  0.24868248  1
  S  S2  1  0.00366080  0.29150843  0.24847524  1
  S  S3  1  -0.00001863  0.70924305  0.74945587  1
  S  S4  1  0.95676267  0.33227742  0.58326887  1
  S  S5  1  0.66943643  0.04376577  0.08355153  1
  O  O0  1  0.20944160  0.02767433  0.30134960  1
  O  O1  1  0.81895212  0.79225896  0.30122436  1
  O  O2  1  0.97282912  0.18076488  0.30118997  1
  O  O3  1  0.20576251  0.17718940  0.80386603  1
  O  O4  1  0.97300923  0.78935405  0.80249452  1
  O  O5  1  0.82235262  0.02588606  0.80391800  1
  O  O6  1  0.78935032  0.96681345  0.69475493  1
  O  O7  1  0.17838947  0.20960510  0.69462756  1
  O  O8  1  0.03126156  0.81358579  0.69772946  1
  O  O9  1  0.79072302  0.81591052  0.19667654  1
  O  O10  1  0.02318177  0.20798766  0.19652447  1
  O  O11  1  0.18647311  0.97410703  0.19723724  1
  O  O12  1  0.87533628  0.36085713  0.63571151  1
  O  O13  1  0.48863102  0.12571604  0.63696972  1
  O  O14  1  0.64193822  0.51009635  0.63749182  1
  O  O15  1  0.86993931  0.50822453  0.13723257  1
  O  O16  1  0.63944179  0.12602832  0.13572363  1
  O  O17  1  0.49096267  0.35875098  0.13726430  1
  O  O18  1  0.46392658  0.30759847  0.03015265  1
  O  O19  1  0.84444297  0.53322895  0.02998337  1
  O  O20  1  0.69052725  0.15068041  0.03136431  1
  O  O21  1  0.46594167  0.15408831  0.52997697  1
  O  O22  1  0.69091050  0.53523802  0.53019728  1
  O  O23  1  0.84949152  0.31163981  0.53126762  1
  O  O24  1  0.53865590  0.69564065  0.97114253  1
  O  O25  1  0.15600337  0.46110213  0.97061698  1
  O  O26  1  0.30666907  0.84306343  0.97108305  1
  O  O27  1  0.54084116  0.84400094  0.46955288  1
  O  O28  1  0.30302199  0.46068922  0.47010055  1
  O  O29  1  0.15749483  0.69552988  0.47011228  1
  O  O30  1  0.11672312  0.63238346  0.36023747  1
  O  O31  1  0.51584464  0.88398787  0.36018911  1
  O  O32  1  0.36773423  0.48508413  0.36014702  1
  O  O33  1  0.12755762  0.49016779  0.86268723  1
  O  O34  1  0.36018018  0.87032036  0.86292719  1
  O  O35  1  0.51060044  0.63829209  0.86322842  1
  O  O36  1  0.02326169  0.82928461  0.40846879  1
  O  O37  1  0.80694479  0.97667136  0.40823503  1
  O  O38  1  0.16991564  0.19356317  0.40853270  1
  O  O39  1  0.02429780  0.19425031  0.91018077  1
  O  O40  1  0.16865672  0.97450317  0.90951159  1
  O  O41  1  0.80827946  0.83020687  0.90926843  1
  O  O42  1  0.97464837  0.17747769  0.58800001  1
  O  O43  1  0.19053670  0.02449601  0.58913928  1
  O  O44  1  0.83229717  0.80954904  0.58885874  1
  O  O45  1  0.97243779  0.80696119  0.08943984  1
  O  O46  1  0.82342272  0.02545167  0.08962284  1
  O  O47  1  0.19032761  0.16966235  0.08939578  1
  O  O48  1  0.69380975  0.16814780  0.74366576  1
  O  O49  1  0.47490501  0.31227205  0.74433018  1
  O  O50  1  0.84236826  0.53087254  0.74432371  1
  O  O51  1  0.69393245  0.53364986  0.24340065  1
  O  O52  1  0.83756501  0.30483647  0.24287169  1
  O  O53  1  0.46904393  0.16046444  0.24281937  1
  O  O54  1  0.64247248  0.50406740  0.92346291  1
  O  O55  1  0.85880576  0.35493424  0.92462553  1
  O  O56  1  0.49700714  0.13846872  0.92457225  1
  O  O57  1  0.64905008  0.14332215  0.42530707  1
  O  O58  1  0.49371869  0.35320080  0.42396453  1
  O  O59  1  0.85854451  0.50416424  0.42513078  1
  O  O60  1  0.36283617  0.50083620  0.07695156  1
  O  O61  1  0.13939754  0.64216085  0.07705623  1
  O  O62  1  0.50699668  0.86883525  0.07733981  1
  O  O63  1  0.35720377  0.85855424  0.57669977  1
  O  O64  1  0.49925762  0.63750032  0.57685332  1
  O  O65  1  0.13213171  0.49429251  0.57711437  1
  O  O66  1  0.31343231  0.84361060  0.25570070  1
  O  O67  1  0.53092884  0.68710174  0.25547909  1
  O  O68  1  0.15506589  0.46772581  0.25527240  1
  O  O69  1  0.31084292  0.47377176  0.75837056  1
  O  O70  1  0.15647980  0.68781429  0.75835621  1
  O  O71  1  0.52589125  0.84140951  0.75827097  1
loop_
_geom_bond_atom_site_label_1
_geom_bond_atom_site_label_2
_geom_bond_distance
_geom_bond_site_symmetry_2
Na0 O44 2.474801 1_455
Na0 O43 2.481412 1_565
Na0 O42 2.567629 1_465
Na0 O36 2.750919 1_555
Na0 O38 2.789081 1_565
Na0 O37 2.794431 1_455
Na1 O45 2.536940 1_455
Na1 O47 2.538535 1_565
Na1 O46 2.636015 1_465
Na1 O40 2.676492 1_554
Na1 O39 2.718620 1_564
Na1 O41 2.719498 1_454
Na2 O48 2.573224 1_555
Na2 O49 2.587439 1_555
Na2 O50 2.644848 1_555
Na2 O56 2.660707 1_555
Na2 O54 2.681989 1_555
Na2 O55 2.687970 1_555
Na3 O58 2.580445 1_555
Na3 O59 2.589861 1_555
Na3 O57 2.590341 1_555
Na3 O52 2.729986 1_555
Na3 O53 2.740167 1_555
Na3 O51 2.744289 1_555
Na4 O68 2.553516 1_555
Na4 O66 2.581675 1_555
Na4 O67 2.586946 1_555
Na4 O60 2.689250 1_555
Na4 O61 2.692903 1_555
Na4 O62 2.751315 1_555
Na5 O64 2.556851 1_555
Na5 O63 2.600141 1_555
Na5 O65 2.657766 1_555
Na5 O71 2.677258 1_555
Na5 O69 2.698675 1_555
Na5 O70 2.761857 1_555
Hf0 O38 2.001497 1_555
Hf0 O37 2.001829 1_445
Hf0 O36 2.006788 1_545
Hf0 O0 2.154405 1_555
Hf0 O1 2.158369 1_445
Hf0 O2 2.164276 1_455
Hf1 O3 2.008910 1_555
Hf1 O5 2.013930 1_455
Hf1 O39 2.047434 1_555
Hf1 O41 2.101222 1_445
Hf1 O40 2.105684 1_545
Hf1 O4 2.149448 1_445
Hf2 O13 1.971944 1_555
Hf2 O14 2.015996 1_555
Hf2 O49 2.037980 1_555
Hf2 O48 2.093412 1_555
Hf2 O12 2.152477 1_555
Hf2 O50 2.217515 1_555
Hf3 O15 1.993662 1_555
Hf3 O17 1.999639 1_555
Hf3 O51 2.073730 1_555
Hf3 O16 2.129765 1_555
Hf3 O52 2.132235 1_555
Hf3 O53 2.133762 1_555
Hf4 O18 2.012889 1_556
Hf4 O19 2.022727 1_556
Hf4 O54 2.033539 1_555
Hf4 O56 2.077543 1_555
Hf4 O55 2.083925 1_555
Hf4 O20 2.155355 1_556
Hf5 O22 2.008199 1_555
Hf5 O21 2.023805 1_555
Hf5 O58 2.025865 1_555
Hf5 O59 2.065166 1_555
Hf5 O57 2.078524 1_555
Hf5 O23 2.143685 1_555
Hf6 O25 2.004457 1_554
Hf6 O26 2.045026 1_554
Hf6 O61 2.060941 1_555
Hf6 O24 2.061119 1_554
Hf6 O60 2.073997 1_555
Hf6 O62 2.176423 1_555
Hf7 O27 2.005138 1_555
Hf7 O29 2.055816 1_555
Hf7 O28 2.056047 1_555
Hf7 O63 2.069245 1_555
Hf7 O64 2.081152 1_555
Hf7 O65 2.186867 1_555
Hf8 O35 2.019016 1_555
Hf8 O71 2.030298 1_555
Hf8 O69 2.039101 1_555
Hf8 O34 2.054624 1_555
Hf8 O33 2.083613 1_555
Hf8 O70 2.133623 1_555
O0 S0 1.500624 1_545
O1 S1 1.497735 1_555
O2 S2 1.502241 1_655
O3 P0 1.561305 1_555
O4 S3 1.492778 1_655
O5 P1 1.565181 1_555
O6 P1 1.503500 1_565
O6 Zn0 2.029457 1_565
O7 P0 1.501486 1_555
O7 Zn0 2.047626 1_455
O8 S3 1.451824 1_555
O8 Zn0 2.152699 1_465
O9 S1 1.460963 1_555
O9 Zn1 2.133122 1_655
O10 S2 1.463776 1_555
O10 Zn1 2.117485 1_545
O11 S0 1.461215 1_555
O11 Zn1 2.042370 1_555
O12 S4 1.493278 1_555
O13 P2 1.568725 1_555
O14 P3 1.563053 1_555
O15 P4 1.564378 1_555
O16 S5 1.497882 1_555
O17 P5 1.563679 1_555
O18 P5 1.553603 1_555
O19 P4 1.552098 1_555
O20 S5 1.487782 1_555
O21 P2 1.548398 1_555
O22 P3 1.553711 1_555
O23 S4 1.486746 1_555
O24 P6 1.539993 1_555
O25 P7 1.549338 1_555
O26 P8 1.547673 1_555
O27 P9 1.556229 1_555
O28 P10 1.546683 1_555
O29 P11 1.550712 1_555
O30 P11 1.507811 1_555
O30 Zn2 1.958479 1_555
O31 P9 1.505688 1_555
O31 Zn2 1.973567 1_555
O32 P10 1.506063 1_555
O32 Zn2 1.964737 1_555
O33 P7 1.530297 1_555
O34 P8 1.536818 1_555
O35 P6 1.538351 1_555
O36 P11 1.574409 1_555
O37 P9 1.568112 1_555
O38 P10 1.568120 1_555
O39 P7 1.545690 1_555
O40 P8 1.541879 1_555
O41 P6 1.534995 1_555
O42 S4 1.454566 1_555
O42 Zn0 2.173465 1_555
O43 P2 1.508967 1_555
O43 Zn0 2.091038 1_455
O44 P3 1.512233 1_555
O44 Zn0 2.083340 1_565
O45 P4 1.511189 1_555
O45 Zn1 2.050397 1_655
O46 S5 1.451481 1_555
O46 Zn1 2.218337 1_645
O47 P5 1.511806 1_555
O47 Zn1 2.039807 1_545
O48 P1 1.561578 1_555
O49 P0 1.568832 1_555
O50 S3 1.492791 1_655
O51 S1 1.539462 1_555
O52 S2 1.531418 1_655
O53 S0 1.526235 1_545
O54 P6 1.551311 1_555
O55 P7 1.540857 1_655
O56 P8 1.548162 1_545
O57 P9 1.546144 1_545
O58 P10 1.556269 1_555
O59 P11 1.550262 1_655
O60 P5 1.556632 1_555
O61 P4 1.557862 1_455
O62 S5 1.495652 1_565
O63 P2 1.557717 1_565
O64 P3 1.561828 1_555
O65 S4 1.495752 1_455
O66 S0 1.461985 1_555
O66 Zn2 2.289450 1_555
O67 S1 1.460525 1_555
O67 Zn2 2.295390 1_555
O68 S2 1.463667 1_555
O68 Zn2 2.301187 1_555
O69 P0 1.558832 1_555
O70 S3 1.497243 1_555
O71 P1 1.566725 1_565
