# generated using pymatgen
data_Fe2GeO4
_symmetry_space_group_name_H-M   'P 1'
_cell_length_a   5.92709196
_cell_length_b   5.92710462
_cell_length_c   5.92712507
_cell_angle_alpha   59.99992976
_cell_angle_beta   59.99986832
_cell_angle_gamma   60.00038495
_symmetry_Int_Tables_number   1
_chemical_formula_structural   Fe2GeO4
_chemical_formula_sum   'Fe4 Ge2 O8'
_cell_volume   147.23598061
_cell_formula_units_Z   2
loop_
 _symmetry_equiv_pos_site_id
 _symmetry_equiv_pos_as_xyz
  1  'x, y, z'
loop_
 _atom_site_type_symbol
 _atom_site_label
 _atom_site_symmetry_multiplicity
 _atom_site_fract_x
 _atom_site_fract_y
 _atom_site_fract_z
 _atom_site_occupancy
  Fe  Fe0  1  0.50000000  -0.00000000  0.50000000  1
  Fe  Fe1  1  0.00000000  0.50000000  0.50000000  1
  Fe  Fe2  1  0.50000000  0.50000000  0.00000000  1
  Fe  Fe3  1  0.50000000  0.50000000  0.50000000  1
  Ge  Ge0  1  0.87500061  0.87499839  0.87499613  1
  Ge  Ge1  1  0.12499939  0.12500161  0.12500387  1
  O  O0  1  0.75230963  0.75230689  0.75229885  1
  O  O1  1  0.24769332  0.24769534  0.75691225  1
  O  O2  1  0.24768629  0.75691230  0.24770188  1
  O  O3  1  0.75691134  0.24768897  0.24770057  1
  O  O4  1  0.75231371  0.24308770  0.75229812  1
  O  O5  1  0.24308866  0.75231103  0.75229943  1
  O  O6  1  0.24769037  0.24769311  0.24770115  1
  O  O7  1  0.75230668  0.75230466  0.24308775  1
loop_
_geom_bond_atom_site_label_1
_geom_bond_atom_site_label_2
_geom_bond_distance
_geom_bond_site_symmetry_2
Fe0 O5 2.114993 1_545
Fe0 O3 2.114993 1_555
Fe0 O1 2.115044 1_555
Fe0 O7 2.115044 1_545
Fe0 O0 2.115048 1_545
Fe0 O6 2.115048 1_555
Fe1 O2 2.114986 1_555
Fe1 O4 2.114986 1_455
Fe1 O7 2.115035 1_455
Fe1 O1 2.115035 1_555
Fe1 O0 2.115037 1_455
Fe1 O6 2.115037 1_555
Fe2 O0 2.115061 1_554
Fe2 O6 2.115061 1_555
Fe2 O5 2.115062 1_554
Fe2 O3 2.115062 1_555
Fe2 O4 2.115071 1_554
Fe2 O2 2.115071 1_555
Fe3 O1 2.115039 1_555
Fe3 O7 2.115039 1_555
Fe3 O5 2.115056 1_555
Fe3 O3 2.115056 1_555
Fe3 O4 2.115061 1_555
Fe3 O2 2.115061 1_555
Ge0 O0 1.781307 1_555
Ge0 O5 1.781348 1_655
Ge0 O4 1.781359 1_565
Ge0 O7 1.781367 1_556
Ge1 O6 1.781307 1_555
Ge1 O3 1.781348 1_455
Ge1 O2 1.781359 1_545
Ge1 O1 1.781367 1_554
