# generated using pymatgen
data_Na9Ta2Zn10P3(S5O24)3
_symmetry_space_group_name_H-M   'P 1'
_cell_length_a   8.79037380
_cell_length_b   8.80006770
_cell_length_c   22.68113744
_cell_angle_alpha   89.68661852
_cell_angle_beta   90.28669541
_cell_angle_gamma   119.91777432
_symmetry_Int_Tables_number   1
_chemical_formula_structural   Na9Ta2Zn10P3(S5O24)3
_chemical_formula_sum   'Na9 Ta2 Zn10 P3 S15 O72'
_cell_volume   1520.68782296
_cell_formula_units_Z   1
loop_
 _symmetry_equiv_pos_site_id
 _symmetry_equiv_pos_as_xyz
  1  'x, y, z'
loop_
 _atom_site_type_symbol
 _atom_site_label
 _atom_site_symmetry_multiplicity
 _atom_site_fract_x
 _atom_site_fract_y
 _atom_site_fract_z
 _atom_site_occupancy
  Na  Na0  1  0.66764884  0.96908481  0.58608692  1
  Na  Na1  1  0.30112166  0.96907136  0.08604297  1
  Na  Na2  1  0.33235107  0.04051096  0.41556797  1
  Na  Na3  1  0.00501508  0.00684844  0.50080672  1
  Na  Na4  1  0.99108514  0.00155815  0.00026584  1
  Na  Na5  1  0.66872940  0.32819630  0.83157893  1
  Na  Na6  1  0.66468230  0.33673785  0.33091160  1
  Na  Na7  1  0.33342031  0.66107777  0.16188323  1
  Na  Na8  1  0.32628671  0.65922734  0.66160907  1
  Ta  Ta0  1  0.33377898  0.66310610  0.31265852  1
  Ta  Ta1  1  0.33851718  0.67091151  0.81277348  1
  Zn  Zn0  1  0.01073166  0.01091028  0.34772029  1
  Zn  Zn1  1  0.99379824  0.00257020  0.84811142  1
  Zn  Zn2  1  0.99754295  0.99842246  0.65220692  1
  Zn  Zn3  1  0.00023925  0.99786017  0.15194923  1
  Zn  Zn4  1  0.66823463  0.32733385  0.68355461  1
  Zn  Zn5  1  0.65835139  0.32577546  0.18343882  1
  Zn  Zn6  1  0.67106740  0.33647691  0.98497173  1
  Zn  Zn7  1  0.66525445  0.34574796  0.48448128  1
  Zn  Zn8  1  0.33263278  0.65822559  0.01761885  1
  Zn  Zn9  1  0.32401225  0.64789640  0.51777628  1
  P  P0  1  0.29673721  0.00594039  0.25029914  1
  P  P1  1  0.71362247  0.00898950  0.74950478  1
  P  P2  1  0.33219405  0.37163221  0.41846645  1
  S  S0  1  0.71218145  0.70826430  0.25111757  1
  S  S1  1  0.99511420  0.29025282  0.25017619  1
  S  S2  1  0.29369859  0.29018051  0.75112992  1
  S  S3  1  0.99668835  0.70716321  0.75129143  1
  S  S4  1  0.95960042  0.33513591  0.58310092  1
  S  S5  1  0.36845270  0.03753386  0.58247120  1
  S  S6  1  0.66859431  0.62701888  0.58431522  1
  S  S7  1  0.95783382  0.62518861  0.08343948  1
  S  S8  1  0.66992318  0.04005023  0.08285635  1
  S  S9  1  0.37393627  0.33531879  0.08286352  1
  S  S10  1  0.62696454  0.66697920  0.91798089  1
  S  S11  1  0.04192416  0.37427441  0.91731416  1
  S  S12  1  0.33123976  0.95954742  0.91765293  1
  S  S13  1  0.62917530  0.95729964  0.41762116  1
  S  S14  1  0.04094461  0.66467537  0.41721586  1
  O  O0  1  0.21612583  0.02602390  0.30722915  1
  O  O1  1  0.81193840  0.78831174  0.30483884  1
  O  O2  1  0.97000443  0.18858280  0.30400546  1
  O  O3  1  0.21653202  0.18741025  0.80459157  1
  O  O4  1  0.97655186  0.78683218  0.80474916  1
  O  O5  1  0.81797562  0.02893359  0.80495122  1
  O  O6  1  0.77329853  0.96065102  0.69264503  1
  O  O7  1  0.18632729  0.22372358  0.69775342  1
  O  O8  1  0.03990262  0.81486786  0.69785920  1
  O  O9  1  0.77660468  0.81529938  0.19766594  1
  O  O10  1  0.03561640  0.22281345  0.19740785  1
  O  O11  1  0.18575334  0.96187679  0.19383655  1
  O  O12  1  0.88042260  0.36027898  0.63662913  1
  O  O13  1  0.48290339  0.11896315  0.63449915  1
  O  O14  1  0.64184017  0.51946784  0.63723487  1
  O  O15  1  0.87863481  0.51915910  0.13672063  1
  O  O16  1  0.63580061  0.11749452  0.13562195  1
  O  O17  1  0.47986783  0.36254785  0.13651279  1
  O  O18  1  0.45192215  0.30201940  0.02969121  1
  O  O19  1  0.85427756  0.54747291  0.02929186  1
  O  O20  1  0.69543403  0.14516200  0.02871792  1
  O  O21  1  0.44519386  0.13934557  0.52693664  1
  O  O22  1  0.69429762  0.55057521  0.53015772  1
  O  O23  1  0.84795137  0.30249529  0.52959698  1
  O  O24  1  0.54458002  0.69376135  0.96963212  1
  O  O25  1  0.14842124  0.45609764  0.96988207  1
  O  O26  1  0.30665112  0.85469392  0.97126887  1
  O  O27  1  0.54919143  0.85594738  0.47155647  1
  O  O28  1  0.30489696  0.45700529  0.47150258  1
  O  O29  1  0.15418218  0.70014730  0.46911768  1
  O  O30  1  0.13534590  0.64507795  0.36309624  1
  O  O31  1  0.50691521  0.86407952  0.36425602  1
  O  O32  1  0.35273870  0.49394044  0.36234233  1
  O  O33  1  0.13687102  0.49015288  0.86336152  1
  O  O34  1  0.35258430  0.86133864  0.86429190  1
  O  O35  1  0.50931259  0.64602137  0.86360249  1
  O  O36  1  0.02419588  0.82240715  0.40891228  1
  O  O37  1  0.80016506  0.97206192  0.40820491  1
  O  O38  1  0.17033280  0.18746362  0.41086905  1
  O  O39  1  0.02747129  0.20146015  0.91002212  1
  O  O40  1  0.17371159  0.97398592  0.90807981  1
  O  O41  1  0.79986845  0.82307753  0.90958895  1
  O  O42  1  0.97468153  0.17244248  0.58815355  1
  O  O43  1  0.19295591  0.01964316  0.58944862  1
  O  O44  1  0.82676638  0.80754006  0.58833176  1
  O  O45  1  0.98106574  0.80627357  0.08756416  1
  O  O46  1  0.82668817  0.02014335  0.08969189  1
  O  O47  1  0.19702183  0.17254947  0.08814490  1
  O  O48  1  0.67772095  0.16139148  0.74421059  1
  O  O49  1  0.47337716  0.32258743  0.74467812  1
  O  O50  1  0.84664755  0.52964048  0.74486103  1
  O  O51  1  0.68391453  0.53030506  0.24501231  1
  O  O52  1  0.84777584  0.32263354  0.24394501  1
  O  O53  1  0.48314638  0.16170616  0.24464229  1
  O  O54  1  0.63412421  0.50340183  0.91912001  1
  O  O55  1  0.86920688  0.36416488  0.91885261  1
  O  O56  1  0.49408793  0.13064630  0.91878467  1
  O  O57  1  0.63588210  0.12905094  0.41857236  1
  O  O58  1  0.49964437  0.35482874  0.41872538  1
  O  O59  1  0.87089699  0.50262218  0.41946873  1
  O  O60  1  0.35447981  0.49285320  0.07705309  1
  O  O61  1  0.14042097  0.65020764  0.07845271  1
  O  O62  1  0.50477262  0.86361571  0.07721656  1
  O  O63  1  0.35769693  0.86167908  0.57725641  1
  O  O64  1  0.51166878  0.65268041  0.57954753  1
  O  O65  1  0.13577589  0.49332860  0.57828020  1
  O  O66  1  0.31386457  0.83174619  0.26188337  1
  O  O67  1  0.52578385  0.68931736  0.25954806  1
  O  O68  1  0.16302598  0.47447514  0.25909100  1
  O  O69  1  0.30957983  0.47458005  0.76047879  1
  O  O70  1  0.16275457  0.68673736  0.76066284  1
  O  O71  1  0.51999892  0.83321776  0.76209094  1
loop_
_geom_bond_atom_site_label_1
_geom_bond_atom_site_label_2
_geom_bond_distance
_geom_bond_site_symmetry_2
Na0 O42 2.381327 1_565
Na0 O63 2.405135 1_555
Na0 O64 2.418470 1_555
Na0 O44 2.441695 1_555
Na0 O6 2.598756 1_555
Na0 O13 2.784406 1_565
Na0 O27 2.791156 1_555
Na0 O23 2.846525 1_565
Na1 O47 2.383655 1_565
Na1 O62 2.401830 1_555
Na1 O61 2.438803 1_555
Na1 O45 2.439012 1_455
Na1 O11 2.639883 1_555
Na1 O16 2.788462 1_565
Na1 O26 2.805509 1_554
Na1 O18 2.842041 1_565
Na2 O38 2.355041 1_555
Na2 O57 2.378189 1_555
Na2 O58 2.400451 1_555
Na2 O36 2.420152 1_545
Na2 O0 2.635620 1_555
Na2 O21 2.694305 1_555
Na2 O29 2.863443 1_545
Na2 O31 2.921278 1_545
Na3 O38 2.547431 1_555
Na3 O42 2.558118 1_455
Na3 O43 2.562773 1_555
Na3 O44 2.593055 1_445
Na3 O37 2.677106 1_445
Na3 O36 2.705653 1_545
Na4 O46 2.549070 1_555
Na4 O45 2.587489 1_545
Na4 O39 2.606210 1_654
Na4 O47 2.606457 1_655
Na4 O41 2.624752 1_544
Na4 O40 2.726816 1_644
Na5 O48 2.497373 1_555
Na5 O55 2.557265 1_555
Na5 O56 2.573273 1_555
Na5 O50 2.585370 1_555
Na5 O49 2.592065 1_555
Na5 O54 2.630486 1_555
Na6 O53 2.509478 1_555
Na6 O58 2.521847 1_555
Na6 O51 2.530958 1_555
Na6 O52 2.594272 1_555
Na6 O59 2.609083 1_555
Na6 O57 2.619406 1_555
Na7 O60 2.497169 1_555
Na7 O61 2.505225 1_555
Na7 O62 2.539048 1_555
Na7 O68 2.709438 1_555
Na7 O67 2.716121 1_555
Na7 O66 2.779980 1_555
Na8 O65 2.463260 1_555
Na8 O64 2.499654 1_555
Na8 O63 2.527449 1_555
Na8 O69 2.723233 1_555
Na8 O70 2.749163 1_555
Na8 O71 2.799381 1_555
O0 P0 1.528799 1_555
O0 Zn0 1.973992 1_555
O1 S0 1.460251 1_555
O1 Zn0 2.103824 1_665
O2 S1 1.460681 1_555
O2 Zn0 2.023296 1_655
O3 S2 1.460363 1_555
O3 Zn1 2.068463 1_455
O4 S3 1.458839 1_555
O4 Zn1 2.080008 1_565
O5 P1 1.511308 1_555
O5 Zn1 1.934134 1_555
O6 P1 1.534494 1_565
O6 Zn2 2.049021 1_555
O7 S2 1.464307 1_555
O7 Zn2 2.115482 1_445
O8 S3 1.464324 1_455
O8 Zn2 2.097090 1_455
O9 S0 1.462866 1_555
O9 Zn3 2.091051 1_655
O10 S1 1.460893 1_455
O10 Zn3 2.117462 1_545
O11 P0 1.535492 1_565
O11 Zn3 2.039235 1_555
O12 S4 1.473899 1_555
O12 Zn4 2.042774 1_555
O13 S5 1.482031 1_555
O13 Zn4 2.068501 1_555
O14 S6 1.469735 1_555
O14 Zn4 2.094226 1_555
O15 S7 1.470993 1_555
O15 Zn5 2.117104 1_555
O16 S8 1.484302 1_555
O16 Zn5 2.057222 1_555
O17 S9 1.474603 1_555
O17 Zn5 2.045741 1_555
O18 S9 1.490904 1_555
O18 Zn6 2.065221 1_554
O19 S7 1.477045 1_555
O19 Zn6 2.018197 1_554
O20 S8 1.482263 1_555
O20 Zn6 2.050399 1_554
O21 S5 1.495867 1_555
O21 Zn7 2.112585 1_555
O22 S6 1.475084 1_555
O22 Zn7 1.986502 1_555
O23 S4 1.493006 1_555
O23 Zn7 2.088102 1_555
O24 S10 1.460890 1_555
O24 Zn8 2.046684 1_556
O25 S11 1.463643 1_555
O25 Zn8 2.022052 1_556
O26 S12 1.472537 1_555
O26 Zn8 2.125593 1_556
O27 S13 1.468833 1_555
O27 Zn9 2.180331 1_555
O28 P2 1.503871 1_555
O28 Zn9 1.920322 1_555
O29 S14 1.468466 1_555
O29 Zn9 2.078649 1_555
O30 S14 1.542840 1_555
O30 Ta0 2.029384 1_555
O31 S13 1.552867 1_555
O31 Ta0 2.033121 1_555
O32 P2 1.613977 1_555
O32 Ta0 1.934177 1_555
O33 S11 1.543214 1_555
O33 Ta1 2.043661 1_555
O34 S12 1.556402 1_555
O34 Ta1 2.000539 1_555
O35 S10 1.556997 1_555
O35 Ta1 1.984711 1_555
O36 S14 1.478020 1_555
O36 Zn0 2.204779 1_565
O37 S13 1.459391 1_555
O37 Zn0 2.194082 1_665
O38 P2 1.543096 1_555
O38 Zn0 2.064838 1_555
O39 S11 1.471758 1_555
O39 Zn1 2.151443 1_455
O40 S12 1.467299 1_555
O40 Zn1 2.187694 1_465
O41 S10 1.466516 1_555
O41 Zn1 2.158479 1_565
O42 S4 1.505952 1_555
O42 Zn2 2.185382 1_545
O43 S5 1.479729 1_555
O43 Zn2 2.171009 1_445
O44 S6 1.504050 1_555
O44 Zn2 2.159536 1_555
O45 S7 1.505558 1_555
O45 Zn3 2.178185 1_655
O46 S8 1.480554 1_555
O46 Zn3 2.152580 1_645
O47 S9 1.504163 1_555
O47 Zn3 2.190392 1_545
O48 P1 1.527334 1_555
O48 Zn4 2.032355 1_555
O49 S2 1.466263 1_555
O49 Zn4 2.193035 1_555
O50 S3 1.465121 1_555
O50 Zn4 2.186944 1_555
O51 S0 1.465369 1_555
O51 Zn5 2.204841 1_555
O52 S1 1.464404 1_555
O52 Zn5 2.163179 1_555
O53 P0 1.529736 1_555
O53 Zn5 2.040815 1_555
O54 S10 1.471976 1_555
O54 Zn6 2.222855 1_555
O55 S11 1.476474 1_655
O55 Zn6 2.222779 1_555
O56 S12 1.472058 1_545
O56 Zn6 2.269408 1_555
O57 S13 1.483172 1_545
O57 Zn7 2.339657 1_555
O58 P2 1.550988 1_555
O58 Zn7 2.107844 1_555
O59 S14 1.464335 1_655
O59 Zn7 2.205201 1_555
O60 S9 1.484173 1_555
O60 Zn8 2.055889 1_555
O61 S7 1.512075 1_455
O61 Zn8 2.160304 1_555
O62 S8 1.512111 1_565
O62 Zn8 2.159131 1_555
O63 S5 1.507889 1_565
O63 Zn9 2.216997 1_555
O64 S6 1.508145 1_555
O64 Zn9 2.143366 1_555
O65 S4 1.482476 1_455
O65 Zn9 2.056332 1_555
O66 P0 1.633084 1_565
O66 Ta0 1.948777 1_555
O67 S0 1.574589 1_555
O67 Ta0 1.995469 1_555
O68 S1 1.568873 1_455
O68 Ta0 2.000755 1_555
O69 S2 1.573275 1_555
O69 Ta1 2.009379 1_555
O70 S3 1.570566 1_455
O70 Ta1 1.999499 1_555
O71 P1 1.656762 1_565
O71 Ta1 1.906291 1_555
