# generated using pymatgen
data_CeMgTi2O6
_symmetry_space_group_name_H-M   'P 1'
_cell_length_a   4.03871203
_cell_length_b   5.25189982
_cell_length_c   6.97435056
_cell_angle_alpha   69.46593618
_cell_angle_beta   73.18272038
_cell_angle_gamma   67.38265199
_symmetry_Int_Tables_number   1
_chemical_formula_structural   CeMgTi2O6
_chemical_formula_sum   'Ce1 Mg1 Ti2 O6'
_cell_volume   125.82217679
_cell_formula_units_Z   1
loop_
 _symmetry_equiv_pos_site_id
 _symmetry_equiv_pos_as_xyz
  1  'x, y, z'
loop_
 _atom_site_type_symbol
 _atom_site_label
 _atom_site_symmetry_multiplicity
 _atom_site_fract_x
 _atom_site_fract_y
 _atom_site_fract_z
 _atom_site_occupancy
  Ce  Ce0  1  0.96440300  0.57992300  0.49079900  1
  Mg  Mg0  1  0.52382200  0.16303800  0.78875500  1
  Ti  Ti0  1  0.79739800  0.29141800  0.11354800  1
  Ti  Ti1  1  0.17946300  0.71694000  0.92348400  1
  O  O0  1  0.98425200  0.86571400  0.16546900  1
  O  O1  1  0.03365900  0.15925200  0.77294100  1
  O  O2  1  0.65984300  0.29626000  0.38356500  1
  O  O3  1  0.36428700  0.61853900  0.65261800  1
  O  O4  1  0.32243800  0.29198400  0.06284300  1
  O  O5  1  0.68829100  0.71693300  0.90597800  1
loop_
_geom_bond_atom_site_label_1
_geom_bond_atom_site_label_2
_geom_bond_distance
_geom_bond_site_symmetry_2
Ce0 O0 2.237330 1_555
Ce0 O3 2.321389 1_555
Ce0 O3 2.321697 1_655
Ce0 O1 2.371656 1_655
Ce0 O2 2.648603 1_555
Ce0 O2 2.648631 1_655
Mg0 O1 2.022285 1_555
Mg0 O1 2.022629 1_655
Mg0 O4 2.087859 1_556
Mg0 O5 2.091002 1_545
Mg0 O3 2.148138 1_555
Mg0 O2 2.605283 1_555
O0 Ti1 1.939516 1_654
O0 Ti0 1.997917 1_565
O1 Ti1 2.107123 1_545
O1 Ti0 2.524097 1_456
O2 Ti0 1.809157 1_555
O3 Ti1 1.991290 1_555
O4 Ti1 2.017650 1_554
O4 Ti0 2.047370 1_455
O4 Ti0 2.047452 1_555
O5 Ti1 2.022421 1_655
O5 Ti1 2.023051 1_555
O5 Ti0 2.150860 1_556
