# generated using pymatgen
data_Na14Sc4In4Si7S5O48
_symmetry_space_group_name_H-M   'P 1'
_cell_length_a   18.40830837
_cell_length_b   9.19644808
_cell_length_c   22.80384118
_cell_angle_alpha   89.90693694
_cell_angle_beta   89.61177077
_cell_angle_gamma   120.04284998
_symmetry_Int_Tables_number   1
_chemical_formula_structural   Na14Sc4In4Si7S5O48
_chemical_formula_sum   'Na42 Sc12 In12 Si21 S15 O144'
_cell_volume   3341.70183487
_cell_formula_units_Z   3
loop_
 _symmetry_equiv_pos_site_id
 _symmetry_equiv_pos_as_xyz
  1  'x, y, z'
loop_
 _atom_site_type_symbol
 _atom_site_label
 _atom_site_symmetry_multiplicity
 _atom_site_fract_x
 _atom_site_fract_y
 _atom_site_fract_z
 _atom_site_occupancy
  Na  Na0  1  0.81195083  0.99070919  0.24385072  1
  Na  Na1  1  0.18727667  0.36768531  0.25565461  1
  Na  Na2  1  0.68873709  0.36746846  0.25450508  1
  Na  Na3  1  0.99867266  0.64459015  0.24321430  1
  Na  Na4  1  0.50083026  0.64688476  0.24457076  1
  Na  Na5  1  0.31091560  0.63343552  0.75171573  1
  Na  Na6  1  0.99942077  0.35326704  0.74786636  1
  Na  Na7  1  0.50187044  0.35523480  0.74827142  1
  Na  Na8  1  0.18477723  0.00542894  0.75786400  1
  Na  Na9  1  0.68906847  0.00872693  0.75877283  1
  Na  Na10  1  0.14322619  0.33342244  0.58337114  1
  Na  Na11  1  0.64457930  0.33542744  0.58384002  1
  Na  Na12  1  0.33794008  0.97412444  0.58077857  1
  Na  Na13  1  0.83810652  0.97419437  0.58339946  1
  Na  Na14  1  0.14181596  0.95150057  0.08449535  1
  Na  Na15  1  0.65119805  0.95685985  0.08501318  1
  Na  Na16  1  0.33788634  0.70113737  0.08348585  1
  Na  Na17  1  0.83795492  0.71234101  0.08059254  1
  Na  Na18  1  0.48781385  0.68269594  0.92368154  1
  Na  Na19  1  0.98174587  0.67763271  0.92405106  1
  Na  Na20  1  0.34362298  0.01932835  0.91383070  1
  Na  Na21  1  0.84260267  0.02003216  0.91893295  1
  Na  Na22  1  0.16849288  0.29499661  0.91078003  1
  Na  Na23  1  0.67520184  0.30583611  0.91120142  1
  Na  Na24  1  0.48537791  0.28814510  0.42016957  1
  Na  Na25  1  0.98521417  0.28774941  0.42044360  1
  Na  Na26  1  0.17095118  0.04081398  0.40748046  1
  Na  Na27  1  0.66972795  0.04253264  0.40815857  1
  Na  Na28  1  0.34322203  0.66714122  0.41037635  1
  Na  Na29  1  0.84339706  0.66840188  0.41094322  1
  Na  Na30  1  0.99847878  0.01145519  0.49720990  1
  Na  Na31  1  0.49909137  0.01196825  0.49678175  1
  Na  Na32  1  0.99248911  0.98683442  0.00236334  1
  Na  Na33  1  0.50095704  0.98824116  0.99901123  1
  Na  Na34  1  0.32425926  0.32219377  0.83476117  1
  Na  Na35  1  0.82372718  0.33122965  0.83427906  1
  Na  Na36  1  0.32410043  0.31846238  0.32916523  1
  Na  Na37  1  0.82437618  0.32785851  0.32931921  1
  Na  Na38  1  0.16621642  0.67653355  0.16996137  1
  Na  Na39  1  0.66648710  0.67762054  0.16385931  1
  Na  Na40  1  0.16009457  0.65411317  0.66918901  1
  Na  Na41  1  0.66900344  0.65825090  0.67175179  1
  Sc  Sc0  1  0.00124927  0.99878634  0.34828897  1
  Sc  Sc1  1  0.49947537  0.99850007  0.34825974  1
  Sc  Sc2  1  0.99851612  0.99959435  0.84981979  1
  Sc  Sc3  1  0.50242766  0.00611808  0.85024281  1
  Sc  Sc4  1  0.33680829  0.32816198  0.68638252  1
  Sc  Sc5  1  0.83555590  0.33299783  0.18229101  1
  Sc  Sc6  1  0.33418893  0.34403827  0.98090074  1
  Sc  Sc7  1  0.83541166  0.33196278  0.98499460  1
  Sc  Sc8  1  0.33440339  0.32579183  0.48083127  1
  Sc  Sc9  1  0.83370118  0.32355307  0.48040307  1
  Sc  Sc10  1  0.67667389  0.67727263  0.31590618  1
  Sc  Sc11  1  0.17563136  0.67514557  0.81724281  1
  In  In0  1  0.99770276  0.01423021  0.65374444  1
  In  In1  1  0.49847104  0.01606387  0.65285166  1
  In  In2  1  0.99358938  0.98266799  0.14839047  1
  In  In3  1  0.49915228  0.98253300  0.15217038  1
  In  In4  1  0.83576466  0.33391420  0.68666756  1
  In  In5  1  0.33490058  0.33664936  0.18626356  1
  In  In6  1  0.16278783  0.67011651  0.01457935  1
  In  In7  1  0.67099629  0.68777160  0.01782839  1
  In  In8  1  0.16363607  0.65546789  0.51363359  1
  In  In9  1  0.66363103  0.65513171  0.51400908  1
  In  In10  1  0.18187405  0.68980176  0.31431835  1
  In  In11  1  0.68289915  0.67563179  0.81645248  1
  Si  Si0  1  0.14750258  0.99882725  0.24863956  1
  Si  Si1  1  0.64959386  0.99971263  0.25119516  1
  Si  Si2  1  0.35128983  0.70319917  0.24952584  1
  Si  Si3  1  0.85159696  0.70036671  0.25195364  1
  Si  Si4  1  0.14972707  0.30002839  0.74971330  1
  Si  Si5  1  0.64987981  0.30192236  0.74936809  1
  Si  Si6  1  0.35118047  0.99790324  0.75041004  1
  Si  Si7  1  0.85061323  0.99845612  0.74911764  1
  Si  Si8  1  0.48298005  0.34017974  0.58288472  1
  Si  Si9  1  0.98291749  0.34033038  0.58290015  1
  Si  Si10  1  0.48168445  0.62489169  0.08285941  1
  Si  Si11  1  0.98351903  0.62383053  0.08298319  1
  Si  Si12  1  0.83738907  0.04311659  0.08404771  1
  Si  Si13  1  0.31482078  0.66754157  0.91799297  1
  Si  Si14  1  0.81634002  0.66231726  0.91934755  1
  Si  Si15  1  0.16625332  0.96607958  0.91590712  1
  Si  Si16  1  0.66532143  0.96550324  0.91469391  1
  Si  Si17  1  0.31535573  0.96389022  0.42078814  1
  Si  Si18  1  0.81494121  0.96181366  0.41851271  1
  Si  Si19  1  0.16610118  0.36610049  0.41624200  1
  Si  Si20  1  0.66583106  0.36553298  0.41677794  1
  S  S0  1  -0.00000779  0.29380362  0.25069231  1
  S  S1  1  0.50034286  0.29267088  0.25073542  1
  S  S2  1  0.00059478  0.70882005  0.75017600  1
  S  S3  1  0.49905921  0.70740620  0.74909259  1
  S  S4  1  0.18562075  0.03854666  0.58406467  1
  S  S5  1  0.68430646  0.03531203  0.58296714  1
  S  S6  1  0.33602109  0.62743586  0.58401818  1
  S  S7  1  0.83572638  0.62783800  0.58271565  1
  S  S8  1  0.33567352  0.04342566  0.08267400  1
  S  S9  1  0.18617714  0.33518907  0.08259624  1
  S  S10  1  0.68438401  0.33146101  0.08403445  1
  S  S11  1  0.02000306  0.37254640  0.91477569  1
  S  S12  1  0.51959906  0.37315599  0.91649691  1
  S  S13  1  0.01871816  0.66695191  0.41631525  1
  S  S14  1  0.51929555  0.66745443  0.41622465  1
  O  O0  1  0.10508622  0.03315479  0.30729447  1
  O  O1  1  0.60346716  0.03094942  0.30793187  1
  O  O2  1  0.40950241  0.79579228  0.30718411  1
  O  O3  1  0.91107564  0.79051776  0.30925949  1
  O  O4  1  0.48923640  0.19099554  0.30445634  1
  O  O5  1  0.98659993  0.18939855  0.30449642  1
  O  O6  1  0.10577733  0.17485488  0.80594534  1
  O  O7  1  0.60379002  0.17567117  0.80556155  1
  O  O8  1  0.48486235  0.78383734  0.80228811  1
  O  O9  1  0.99031843  0.78927274  0.80339088  1
  O  O10  1  0.41236073  0.03221165  0.80620580  1
  O  O11  1  0.91172980  0.02550592  0.80500605  1
  O  O12  1  0.38495239  0.94837820  0.69095011  1
  O  O13  1  0.88573710  0.96252966  0.68770638  1
  O  O14  1  0.09720989  0.22338626  0.68873829  1
  O  O15  1  0.59656252  0.22441417  0.68821540  1
  O  O16  1  0.01582436  0.81426556  0.69697679  1
  O  O17  1  0.51339969  0.81356624  0.69633777  1
  O  O18  1  0.38804633  0.81231163  0.18908937  1
  O  O19  1  0.88689109  0.82079072  0.19423358  1
  O  O20  1  0.01561691  0.21781125  0.19880253  1
  O  O21  1  0.51489672  0.21664164  0.19801079  1
  O  O22  1  0.09282278  0.97508718  0.18933844  1
  O  O23  1  0.59518572  0.96863148  0.19117810  1
  O  O24  1  0.43511122  0.35343542  0.64188978  1
  O  O25  1  0.94093809  0.36302491  0.64287370  1
  O  O26  1  0.23806881  0.12232709  0.63663692  1
  O  O27  1  0.73538024  0.11307585  0.63593638  1
  O  O28  1  0.32425322  0.52210953  0.63671451  1
  O  O29  1  0.82084577  0.52052075  0.63491814  1
  O  O30  1  0.43901500  0.51908447  0.14322084  1
  O  O31  1  0.93704769  0.51855608  0.14288716  1
  O  O32  1  0.32075989  0.12057386  0.13488967  1
  O  O33  1  0.82085178  0.13002296  0.14183907  1
  O  O34  1  0.23760139  0.36187644  0.13578860  1
  O  O35  1  0.73626492  0.35390279  0.13696277  1
  O  O36  1  0.22755602  0.30904404  0.02991570  1
  O  O37  1  0.72408398  0.30474503  0.03085874  1
  O  O38  1  0.42018567  0.53338463  0.02614251  1
  O  O39  1  0.92526653  0.53610818  0.02527113  1
  O  O40  1  0.34266632  0.14022699  0.02853076  1
  O  O41  1  0.84304626  0.14744433  0.02420731  1
  O  O42  1  0.22565764  0.14539849  0.53097389  1
  O  O43  1  0.72498043  0.14485538  0.53028540  1
  O  O44  1  0.34254214  0.54475374  0.53011328  1
  O  O45  1  0.84264638  0.54550291  0.52864644  1
  O  O46  1  0.42325192  0.31280168  0.52604332  1
  O  O47  1  0.92267104  0.31153102  0.52593545  1
  O  O48  1  0.27276987  0.69787862  0.97709402  1
  O  O49  1  0.77592996  0.69890887  0.97805247  1
  O  O50  1  0.07285714  0.44450994  0.96725666  1
  O  O51  1  0.57324155  0.44995559  0.96775178  1
  O  O52  1  0.14560972  0.85125798  0.97516299  1
  O  O53  1  0.63973541  0.84302734  0.97235336  1
  O  O54  1  0.27586140  0.85091910  0.48131210  1
  O  O55  1  0.77381167  0.84944318  0.47858707  1
  O  O56  1  0.14403425  0.43681065  0.47593500  1
  O  O57  1  0.64379140  0.43555578  0.47664473  1
  O  O58  1  0.07203658  0.70006989  0.46879940  1
  O  O59  1  0.57198551  0.70022864  0.46883736  1
  O  O60  1  0.05443230  0.63250342  0.36372798  1
  O  O61  1  0.55693161  0.63613761  0.36386951  1
  O  O62  1  0.24940902  0.88969664  0.36733000  1
  O  O63  1  0.75316100  0.87704624  0.36243022  1
  O  O64  1  0.18271091  0.48694323  0.35907717  1
  O  O65  1  0.68039626  0.48823321  0.36069306  1
  O  O66  1  0.05992462  0.47898410  0.86207537  1
  O  O67  1  0.55341987  0.47506000  0.86226498  1
  O  O68  1  0.18162515  0.87498130  0.85896408  1
  O  O69  1  0.67967998  0.87894140  0.85608315  1
  O  O70  1  0.25447346  0.63036363  0.86064431  1
  O  O71  1  0.75181260  0.60574519  0.86452921  1
  O  O72  1  0.00939937  0.81822875  0.41083908  1
  O  O73  1  0.50930900  0.81776823  0.41033579  1
  O  O74  1  0.40738237  0.97795880  0.41263586  1
  O  O75  1  0.90798596  0.98023602  0.41169756  1
  O  O76  1  0.08350796  0.17616458  0.41100223  1
  O  O77  1  0.58328460  0.17595023  0.41094666  1
  O  O78  1  0.01035257  0.20233324  0.90878426  1
  O  O79  1  0.50924347  0.20142087  0.91082203  1
  O  O80  1  0.08413382  0.99057188  0.90952433  1
  O  O81  1  0.58198982  0.98941944  0.90948889  1
  O  O82  1  0.40746168  0.83618844  0.91057088  1
  O  O83  1  0.90812409  0.83624604  0.91027637  1
  O  O84  1  0.48885367  0.16309377  0.58320749  1
  O  O85  1  0.99025795  0.16477216  0.58294540  1
  O  O86  1  0.10117992  0.02038068  0.58895948  1
  O  O87  1  0.59962842  0.01856800  0.58739251  1
  O  O88  1  0.41212357  0.79750367  0.58719878  1
  O  O89  1  0.91234106  0.79702147  0.58646582  1
  O  O90  1  0.48834751  0.81454561  0.08266631  1
  O  O91  1  0.99367671  0.81409959  0.08299515  1
  O  O92  1  0.41233633  0.02832813  0.08644187  1
  O  O93  1  0.92059549  0.02162373  0.08584540  1
  O  O94  1  0.10290086  0.18306257  0.08700458  1
  O  O95  1  0.59985169  0.17710777  0.08909772  1
  O  O96  1  0.34347318  0.16943253  0.74429158  1
  O  O97  1  0.84823989  0.17682475  0.74861352  1
  O  O98  1  0.24518795  0.32540253  0.74288459  1
  O  O99  1  0.74130225  0.31153654  0.74415741  1
  O  O100  1  0.42038133  0.53883748  0.74370438  1
  O  O101  1  0.92546692  0.53949797  0.74661066  1
  O  O102  1  0.34848560  0.51969541  0.24950478  1
  O  O103  1  0.84361066  0.51463322  0.24661737  1
  O  O104  1  0.42495023  0.31129837  0.24730288  1
  O  O105  1  0.92227303  0.30633046  0.24613187  1
  O  O106  1  0.24057127  0.17093212  0.24434632  1
  O  O107  1  0.74335604  0.16754522  0.24705992  1
  O  O108  1  0.32478728  0.49829747  0.92183851  1
  O  O109  1  0.83038953  0.49956673  0.92436613  1
  O  O110  1  0.43303320  0.34963927  0.92431533  1
  O  O111  1  0.93598612  0.35649491  0.92066494  1
  O  O112  1  0.25372264  0.15009191  0.92235744  1
  O  O113  1  0.75081745  0.15015164  0.92120884  1
  O  O114  1  0.32862939  0.15565104  0.42534367  1
  O  O115  1  0.82511978  0.15135374  0.42291595  1
  O  O116  1  0.25293225  0.35576657  0.42435117  1
  O  O117  1  0.75310515  0.35657211  0.42382719  1
  O  O118  1  0.43391817  0.51651827  0.42387586  1
  O  O119  1  0.93303238  0.51696125  0.42479198  1
  O  O120  1  0.18130690  0.49106200  0.07642491  1
  O  O121  1  0.67802717  0.48452041  0.07881212  1
  O  O122  1  0.07995712  0.65051177  0.08169596  1
  O  O123  1  0.57584189  0.64971192  0.07962523  1
  O  O124  1  0.25997847  0.86985735  0.08002468  1
  O  O125  1  0.75193732  0.85322000  0.08412548  1
  O  O126  1  0.18157755  0.87341338  0.57936301  1
  O  O127  1  0.67917076  0.86971887  0.57679020  1
  O  O128  1  0.25928724  0.64606724  0.58231131  1
  O  O129  1  0.75978048  0.64942750  0.58027179  1
  O  O130  1  0.07963352  0.50451619  0.58035238  1
  O  O131  1  0.57885300  0.50407565  0.58107983  1
  O  O132  1  0.14531157  0.81768412  0.25438188  1
  O  O133  1  0.65313772  0.82469756  0.25775419  1
  O  O134  1  0.25352530  0.66156860  0.24961625  1
  O  O135  1  0.75643758  0.67600397  0.25712380  1
  O  O136  1  0.07348371  0.46488275  0.25714145  1
  O  O137  1  0.57579891  0.46358548  0.25684534  1
  O  O138  1  0.15413638  0.48295872  0.75592971  1
  O  O139  1  0.64653764  0.47681470  0.75498888  1
  O  O140  1  0.07624199  0.68861373  0.75576170  1
  O  O141  1  0.57154023  0.68196724  0.75476305  1
  O  O142  1  0.25587403  0.83486182  0.75532599  1
  O  O143  1  0.75298672  0.84454725  0.74950026  1
loop_
_geom_bond_atom_site_label_1
_geom_bond_atom_site_label_2
_geom_bond_distance
_geom_bond_site_symmetry_2
Na0 O107 2.509947 1_565
Na0 O133 2.548506 1_555
Na0 O135 2.558064 1_555
Na0 O105 2.579081 1_565
Na0 O33 2.618154 1_565
Na0 O19 2.787157 1_555
Na0 O63 2.897289 1_555
Na1 O134 2.346690 1_555
Na1 O106 2.465477 1_555
Na1 O102 2.572995 1_555
Na1 O64 2.621095 1_555
Na1 O136 2.657453 1_555
Na1 O34 2.889338 1_555
Na1 O0 2.905858 1_555
Na2 O135 2.463443 1_555
Na2 O103 2.474024 1_555
Na2 O107 2.503960 1_555
Na2 O137 2.635368 1_555
Na2 O65 2.700944 1_555
Na2 O35 2.836239 1_555
Na2 O1 2.936602 1_555
Na3 O132 2.365065 1_655
Na3 O103 2.482536 1_555
Na3 O31 2.567446 1_555
Na3 O136 2.647989 1_655
Na3 O105 2.697549 1_555
Na3 O22 2.904412 1_655
Na3 O60 2.961398 1_655
Na3 O3 2.968159 1_555
Na4 O102 2.440552 1_555
Na4 O133 2.459182 1_555
Na4 O30 2.592880 1_555
Na4 O137 2.675356 1_555
Na4 O104 2.676075 1_555
Na4 O23 2.840449 1_555
Na4 O61 2.935415 1_555
Na4 O2 3.003242 1_555
Na5 O98 2.470326 1_555
Na5 O138 2.500059 1_555
Na5 O142 2.518631 1_555
Na5 O100 2.569359 1_555
Na5 O70 2.680661 1_555
Na5 O12 2.859251 1_555
Na5 O28 2.870103 1_555
Na6 O97 2.419895 1_555
Na6 O138 2.484811 1_655
Na6 O25 2.651487 1_555
Na6 O101 2.668764 1_555
Na6 O140 2.679861 1_655
Na6 O66 2.849531 1_655
Na6 O11 2.911349 1_555
Na6 O14 2.934363 1_655
Na7 O139 2.321689 1_555
Na7 O96 2.538761 1_555
Na7 O141 2.615494 1_555
Na7 O24 2.723185 1_555
Na7 O100 2.765823 1_555
Na7 O67 2.804969 1_555
Na7 O10 2.888217 1_555
Na7 O15 2.904183 1_555
Na8 O142 2.496329 1_545
Na8 O96 2.545424 1_555
Na8 O140 2.579933 1_545
Na8 O68 2.584035 1_545
Na8 O98 2.593714 1_555
Na8 O6 2.827992 1_555
Na8 O26 2.942422 1_555
Na9 O143 2.342091 1_545
Na9 O99 2.470244 1_555
Na9 O69 2.481592 1_545
Na9 O97 2.546172 1_555
Na9 O141 2.685714 1_545
Na9 O7 2.890641 1_555
Na9 O27 2.938339 1_555
Na10 O130 2.386618 1_555
Na10 O85 2.441768 1_455
Na10 O14 2.573153 1_555
Na10 O86 2.582549 1_555
Na10 O128 2.584629 1_555
Na10 O56 2.623798 1_555
Na11 O131 2.398543 1_555
Na11 O84 2.486195 1_555
Na11 O15 2.559056 1_555
Na11 O129 2.589925 1_555
Na11 O87 2.601255 1_555
Na11 O57 2.613441 1_555
Na12 O84 2.430867 1_565
Na12 O126 2.544774 1_555
Na12 O54 2.545882 1_555
Na12 O88 2.597594 1_555
Na12 O128 2.612422 1_555
Na12 O12 2.711003 1_555
Na13 O85 2.449678 1_565
Na13 O13 2.561177 1_555
Na13 O129 2.587381 1_555
Na13 O127 2.587963 1_555
Na13 O89 2.599520 1_555
Na13 O55 2.667838 1_555
Na14 O91 2.363358 1_455
Na14 O122 2.410022 1_555
Na14 O94 2.564910 1_565
Na14 O22 2.597082 1_555
Na14 O124 2.634017 1_555
Na14 O52 2.672141 1_554
Na15 O123 2.449115 1_555
Na15 O125 2.473284 1_555
Na15 O90 2.603161 1_555
Na15 O95 2.630803 1_565
Na15 O23 2.648537 1_555
Na15 O53 2.745084 1_554
Na16 O90 2.422050 1_555
Na16 O120 2.549093 1_555
Na16 O124 2.588406 1_555
Na16 O18 2.605769 1_555
Na16 O92 2.609521 1_565
Na16 O48 2.706951 1_554
Na16 O38 2.950443 1_555
Na16 O34 2.959016 1_555
Na17 O93 2.467729 1_565
Na17 O125 2.499012 1_555
Na17 O91 2.532239 1_555
Na17 O49 2.585050 1_554
Na17 O121 2.623778 1_555
Na17 O19 2.768078 1_555
Na18 O81 2.481909 1_555
Na18 O82 2.522916 1_555
Na18 O108 2.605753 1_555
Na18 O38 2.670782 1_556
Na18 O53 2.673114 1_555
Na18 O110 2.702895 1_555
Na18 O8 2.928400 1_555
Na19 O109 2.424013 1_555
Na19 O83 2.459033 1_555
Na19 O80 2.549857 1_655
Na19 O39 2.589502 1_556
Na19 O111 2.635965 1_555
Na19 O52 2.870200 1_655
Na19 O9 2.910764 1_555
Na20 O82 2.490828 1_545
Na20 O112 2.492349 1_555
Na20 O79 2.643635 1_555
Na20 O110 2.644840 1_555
Na20 O10 2.728625 1_555
Na20 O40 2.847156 1_556
Na20 O68 2.883181 1_545
Na20 O48 2.936224 1_545
Na21 O113 2.512549 1_555
Na21 O83 2.527753 1_545
Na21 O41 2.671335 1_556
Na21 O78 2.684258 1_655
Na21 O111 2.684471 1_555
Na21 O11 2.874354 1_555
Na21 O49 2.894929 1_545
Na21 O69 2.983332 1_545
Na22 O80 2.428564 1_545
Na22 O112 2.530822 1_555
Na22 O108 2.542080 1_555
Na22 O78 2.592431 1_555
Na22 O6 2.652826 1_555
Na22 O70 2.898380 1_555
Na22 O36 2.912056 1_556
Na22 O50 3.007890 1_555
Na23 O113 2.457287 1_555
Na23 O109 2.518416 1_555
Na23 O81 2.532804 1_545
Na23 O71 2.608474 1_555
Na23 O79 2.705230 1_555
Na23 O7 2.727806 1_555
Na23 O37 2.880546 1_556
Na24 O74 2.476344 1_545
Na24 O77 2.492926 1_555
Na24 O114 2.509792 1_555
Na24 O118 2.703148 1_555
Na24 O46 2.722557 1_555
Na24 O4 2.799052 1_555
Na24 O57 2.845756 1_555
Na25 O75 2.457361 1_545
Na25 O76 2.495608 1_655
Na25 O115 2.560830 1_555
Na25 O47 2.716001 1_555
Na25 O119 2.720805 1_555
Na25 O5 2.799936 1_555
Na25 O56 2.840907 1_655
Na26 O76 2.480267 1_555
Na26 O116 2.539604 1_555
Na26 O0 2.578195 1_555
Na26 O114 2.579600 1_555
Na26 O62 2.617556 1_545
Na26 O72 2.634593 1_545
Na27 O77 2.448572 1_555
Na27 O117 2.529144 1_555
Na27 O115 2.538697 1_555
Na27 O1 2.575143 1_555
Na27 O73 2.623221 1_545
Na27 O63 2.843640 1_545
Na27 O43 2.960500 1_555
Na28 O74 2.487783 1_555
Na28 O116 2.507627 1_555
Na28 O2 2.632974 1_555
Na28 O73 2.650610 1_555
Na28 O118 2.668749 1_555
Na28 O64 2.827625 1_555
Na28 O44 2.949211 1_555
Na28 O54 3.015100 1_555
Na29 O75 2.494867 1_555
Na29 O117 2.508144 1_555
Na29 O3 2.596446 1_555
Na29 O72 2.649621 1_655
Na29 O119 2.658692 1_555
Na29 O65 2.852454 1_555
Na29 O45 2.907910 1_555
Na29 O55 2.984845 1_555
Na30 O85 2.460066 1_555
Na30 O76 2.486700 1_655
Na30 O75 2.495371 1_545
Na30 O89 2.712595 1_545
Na30 O72 2.727837 1_645
Na30 O86 2.803068 1_655
Na31 O77 2.473172 1_555
Na31 O84 2.473347 1_555
Na31 O74 2.479315 1_545
Na31 O73 2.730162 1_545
Na31 O88 2.735813 1_545
Na31 O87 2.763708 1_555
Na32 O93 2.422762 1_565
Na32 O91 2.435295 1_555
Na32 O83 2.576742 1_554
Na32 O80 2.687487 1_654
Na32 O94 2.739519 1_665
Na32 O78 2.813142 1_664
Na33 O90 2.420227 1_556
Na33 O81 2.516987 1_555
Na33 O82 2.575137 1_555
Na33 O92 2.707913 1_566
Na33 O95 2.728990 1_566
Na33 O79 2.755856 1_565
Na34 O112 2.465353 1_555
Na34 O108 2.561427 1_555
Na34 O98 2.567741 1_555
Na34 O96 2.617631 1_555
Na34 O110 2.791885 1_555
Na34 O100 2.796225 1_555
Na35 O113 2.493877 1_555
Na35 O99 2.515322 1_555
Na35 O109 2.540783 1_555
Na35 O97 2.583557 1_555
Na35 O101 2.741865 1_555
Na35 O111 2.789427 1_555
Na36 O106 2.430257 1_555
Na36 O102 2.464236 1_555
Na36 O116 2.638078 1_555
Na36 O104 2.647941 1_555
Na36 O114 2.678789 1_555
Na36 O118 2.907562 1_555
Na37 O107 2.400402 1_555
Na37 O103 2.450284 1_555
Na37 O117 2.597324 1_555
Na37 O105 2.682822 1_555
Na37 O115 2.683640 1_555
Na37 O119 2.890225 1_555
Na38 O132 2.457117 1_555
Na38 O134 2.482284 1_555
Na38 O122 2.508859 1_555
Na38 O124 2.685842 1_555
Na38 O136 2.696185 1_555
Na38 O120 2.830968 1_555
Na39 O125 2.407565 1_555
Na39 O123 2.481149 1_555
Na39 O133 2.609512 1_555
Na39 O135 2.708785 1_555
Na39 O121 2.709860 1_555
Na39 O137 2.793897 1_555
Na40 O130 2.489945 1_555
Na40 O138 2.493231 1_555
Na40 O140 2.613785 1_555
Na40 O142 2.617821 1_555
Na40 O128 2.711331 1_555
Na40 O126 2.756204 1_555
Na41 O139 2.417884 1_555
Na41 O143 2.421498 1_555
Na41 O131 2.596074 1_555
Na41 O141 2.682718 1_555
Na41 O129 2.690701 1_555
Na41 O127 2.850055 1_555
In0 O13 2.017402 1_545
In0 O14 2.046660 1_655
In0 O85 2.174346 1_555
In0 O16 2.253401 1_645
In0 O86 2.380730 1_655
In0 O89 2.390162 1_545
In1 O15 2.035351 1_555
In1 O12 2.044565 1_545
In1 O84 2.149052 1_555
In1 O17 2.244332 1_545
In1 O87 2.369721 1_555
In1 O88 2.377179 1_545
In2 O19 2.050910 1_555
In2 O22 2.089046 1_655
In2 O93 2.115282 1_565
In2 O91 2.153383 1_555
In2 O20 2.301891 1_665
In2 O94 2.375972 1_665
In3 O18 2.027068 1_555
In3 O23 2.044506 1_555
In3 O90 2.154736 1_555
In3 O21 2.280048 1_565
In3 O95 2.311075 1_565
In3 O92 2.383765 1_565
In4 O25 2.066713 1_555
In4 O99 2.096355 1_555
In4 O97 2.113105 1_555
In4 O29 2.209707 1_555
In4 O101 2.254484 1_555
In4 O27 2.270803 1_555
In5 O30 2.049629 1_555
In5 O106 2.098728 1_555
In5 O102 2.137128 1_555
In5 O32 2.209674 1_555
In5 O34 2.242746 1_555
In5 O104 2.270870 1_555
In6 O52 2.051694 1_554
In6 O48 2.086406 1_554
In6 O122 2.095742 1_555
In6 O50 2.191377 1_554
In6 O120 2.319002 1_555
In6 O124 2.357292 1_555
In7 O53 2.066672 1_554
In7 O49 2.083830 1_554
In7 O123 2.127825 1_555
In7 O125 2.142138 1_555
In7 O51 2.328242 1_554
In7 O121 2.383442 1_555
In8 O56 2.048444 1_555
In8 O54 2.073374 1_555
In8 O130 2.108303 1_555
In8 O58 2.184333 1_555
In8 O126 2.393049 1_555
In8 O128 2.397890 1_555
In9 O57 2.051435 1_555
In9 O55 2.074490 1_555
In9 O131 2.120046 1_555
In9 O59 2.191329 1_555
In9 O127 2.339956 1_555
In9 O129 2.355351 1_555
In10 O62 2.031149 1_555
In10 O134 2.074095 1_555
In10 O132 2.122273 1_555
In10 O64 2.131947 1_555
In10 O60 2.403184 1_555
In10 O136 2.423059 1_555
In11 O71 2.014264 1_555
In11 O143 2.089864 1_555
In11 O69 2.105190 1_555
In11 O139 2.133359 1_555
In11 O67 2.394292 1_555
In11 O141 2.518526 1_555
O0 Si0 1.653005 1_545
O0 Sc0 1.999347 1_545
O1 Si1 1.645610 1_545
O1 Sc1 2.000653 1_545
O2 Si2 1.646587 1_555
O2 Sc1 2.007705 1_555
O3 Si3 1.645558 1_555
O3 Sc0 2.014484 1_655
O4 S1 1.489402 1_555
O4 Sc1 2.120867 1_545
O5 S0 1.497705 1_655
O5 Sc0 2.148056 1_645
O6 Si4 1.634814 1_555
O6 Sc2 2.068549 1_445
O7 Si5 1.644395 1_555
O7 Sc3 2.001744 1_555
O8 S3 1.488720 1_555
O8 Sc3 2.197578 1_565
O9 S2 1.481806 1_655
O9 Sc2 2.145104 1_555
O10 Si6 1.628419 1_545
O10 Sc3 2.057932 1_555
O11 Si7 1.640771 1_545
O11 Sc2 2.013934 1_545
O12 Si6 1.645154 1_555
O13 Si7 1.640581 1_555
O14 Si4 1.644357 1_555
O15 Si5 1.654490 1_555
O16 S2 1.486620 1_555
O17 S3 1.484554 1_555
O18 Si2 1.633142 1_555
O19 Si3 1.626134 1_555
O20 S0 1.473310 1_555
O21 S1 1.480598 1_555
O22 Si0 1.639785 1_555
O23 Si1 1.640470 1_555
O24 Si8 1.641297 1_555
O24 Sc4 1.977695 1_555
O25 Si9 1.630716 1_555
O26 S4 1.495618 1_555
O26 Sc4 2.182580 1_555
O27 S5 1.483025 1_555
O28 S6 1.487208 1_555
O28 Sc4 2.219758 1_555
O29 S7 1.478932 1_555
O30 Si10 1.635290 1_555
O31 Si11 1.638833 1_555
O31 Sc5 1.997481 1_555
O32 S8 1.479831 1_555
O33 Si12 1.646151 1_555
O33 Sc5 1.977785 1_555
O34 S9 1.487142 1_555
O35 S10 1.493499 1_555
O35 Sc5 2.196131 1_555
O36 S9 1.501037 1_555
O36 Sc6 2.131327 1_554
O37 S10 1.494529 1_555
O37 Sc7 2.193819 1_554
O38 Si10 1.652891 1_555
O38 Sc6 1.967337 1_554
O39 Si11 1.639843 1_555
O39 Sc7 2.005243 1_554
O40 S8 1.487625 1_555
O40 Sc6 2.237360 1_554
O41 Si12 1.639287 1_555
O41 Sc7 1.983540 1_554
O42 S4 1.494459 1_555
O42 Sc8 2.168988 1_555
O43 S5 1.499110 1_555
O43 Sc9 2.160996 1_555
O44 S6 1.481908 1_555
O44 Sc8 2.246740 1_555
O45 S7 1.485699 1_555
O45 Sc9 2.253200 1_555
O46 Si8 1.641829 1_555
O46 Sc8 1.992579 1_555
O47 Si9 1.647445 1_555
O47 Sc9 1.994151 1_555
O48 Si13 1.642179 1_555
O49 Si14 1.642355 1_555
O50 S11 1.480031 1_555
O51 S12 1.469703 1_555
O52 Si15 1.634613 1_555
O53 Si16 1.635525 1_555
O54 Si17 1.654774 1_555
O55 Si18 1.647963 1_555
O56 Si19 1.643381 1_555
O57 Si20 1.643165 1_555
O58 S13 1.485367 1_555
O59 S14 1.481651 1_555
O60 S13 1.473006 1_555
O61 S14 1.475816 1_555
O61 Sc10 2.308499 1_555
O62 Si17 1.618250 1_555
O63 Si18 1.634595 1_555
O63 Sc10 1.979848 1_555
O64 Si19 1.636307 1_555
O65 Si20 1.633594 1_555
O65 Sc10 2.045626 1_555
O66 S11 1.485392 1_555
O66 Sc11 2.225629 1_555
O67 S12 1.482186 1_555
O68 Si15 1.644394 1_555
O68 Sc11 2.024560 1_555
O69 Si16 1.642954 1_555
O70 Si13 1.643798 1_555
O70 Sc11 1.967792 1_555
O71 Si14 1.627193 1_555
O72 S13 1.489689 1_555
O72 Sc0 2.249211 1_555
O73 S14 1.488931 1_555
O73 Sc1 2.257488 1_555
O74 Si17 1.642350 1_555
O74 Sc1 2.170126 1_555
O75 Si18 1.640816 1_555
O75 Sc0 2.177077 1_655
O76 Si19 1.649529 1_555
O76 Sc0 2.136053 1_545
O77 Si20 1.648392 1_555
O77 Sc1 2.145534 1_545
O78 S11 1.491022 1_555
O78 Sc2 2.221955 1_445
O79 S12 1.498993 1_555
O79 Sc3 2.221447 1_555
O80 Si15 1.643444 1_555
O80 Sc2 2.122315 1_455
O81 Si16 1.660064 1_555
O81 Sc3 2.060413 1_565
O82 Si13 1.639889 1_555
O82 Sc3 2.148439 1_565
O83 Si14 1.656543 1_555
O83 Sc2 2.094137 1_555
O84 Si8 1.685302 1_555
O85 Si9 1.686224 1_555
O86 S4 1.481262 1_555
O87 S5 1.490358 1_555
O88 S6 1.490582 1_555
O89 S7 1.490658 1_555
O90 Si10 1.686078 1_555
O91 Si11 1.664077 1_555
O92 S8 1.488636 1_555
O93 Si12 1.640362 1_555
O94 S9 1.472207 1_555
O95 S10 1.495006 1_555
O96 Si6 1.658803 1_545
O96 Sc4 2.016191 1_555
O97 Si7 1.662684 1_545
O98 Si4 1.659003 1_555
O98 Sc4 2.105448 1_555
O99 Si5 1.643917 1_555
O100 S3 1.506934 1_555
O100 Sc4 2.209113 1_555
O101 S2 1.479735 1_655
O102 Si2 1.662340 1_555
O103 Si3 1.644222 1_555
O103 Sc5 2.174142 1_555
O104 S1 1.483606 1_555
O105 S0 1.495973 1_655
O105 Sc5 2.269383 1_555
O106 Si0 1.652863 1_545
O107 Si1 1.643200 1_545
O107 Sc5 2.179495 1_555
O108 Si13 1.658183 1_555
O108 Sc6 2.024665 1_555
O109 Si14 1.645484 1_555
O109 Sc7 2.105543 1_555
O110 S12 1.506269 1_555
O110 Sc6 2.202861 1_555
O111 S11 1.483357 1_655
O111 Sc7 2.274746 1_555
O112 Si15 1.659421 1_545
O112 Sc6 2.132317 1_555
O113 Si16 1.646387 1_545
O113 Sc7 2.183545 1_555
O114 Si17 1.658302 1_545
O114 Sc8 1.975435 1_555
O115 Si18 1.660533 1_545
O115 Sc9 2.002600 1_555
O116 Si19 1.659579 1_555
O116 Sc8 2.103106 1_555
O117 Si20 1.658227 1_555
O117 Sc9 2.105620 1_555
O118 S14 1.496125 1_555
O118 Sc8 2.205065 1_555
O119 S13 1.498157 1_655
O119 Sc9 2.195460 1_555
O120 S9 1.486909 1_555
O121 S10 1.474379 1_555
O122 Si11 1.666052 1_455
O123 Si10 1.632135 1_555
O124 S8 1.505835 1_565
O125 Si12 1.665393 1_565
O126 S4 1.486863 1_565
O127 S5 1.484799 1_565
O128 S6 1.506389 1_555
O129 S7 1.508637 1_555
O130 Si9 1.661202 1_455
O131 Si8 1.650310 1_555
O132 Si0 1.651015 1_555
O133 Si1 1.649745 1_555
O133 Sc10 2.091530 1_555
O134 Si2 1.641788 1_555
O135 Si3 1.654317 1_555
O135 Sc10 1.985814 1_555
O136 S0 1.483037 1_555
O137 S1 1.495527 1_555
O137 Sc10 2.347886 1_555
O138 Si4 1.649561 1_555
O138 Sc11 2.133204 1_555
O139 Si5 1.645227 1_555
O140 S2 1.500449 1_555
O140 Sc11 2.364205 1_555
O141 S3 1.471894 1_555
O142 Si6 1.643650 1_555
O142 Sc11 2.031128 1_555
O143 Si7 1.638884 1_555
