# generated using pymatgen
data_PuPt4
_symmetry_space_group_name_H-M   'P 1'
_cell_length_a   5.03186102
_cell_length_b   5.03186102
_cell_length_c   4.37041100
_cell_angle_alpha   90.00000000
_cell_angle_beta   90.00000000
_cell_angle_gamma   115.11739190
_symmetry_Int_Tables_number   1
_chemical_formula_structural   PuPt4
_chemical_formula_sum   'Pu1 Pt4'
_cell_volume   100.19342639
_cell_formula_units_Z   1
loop_
 _symmetry_equiv_pos_site_id
 _symmetry_equiv_pos_as_xyz
  1  'x, y, z'
loop_
 _atom_site_type_symbol
 _atom_site_label
 _atom_site_symmetry_multiplicity
 _atom_site_fract_x
 _atom_site_fract_y
 _atom_site_fract_z
 _atom_site_occupancy
  Pu  Pu0  1  0.00000000  0.00000000  0.00000000  1
  Pt  Pt0  1  0.65855800  0.34144200  0.00000000  1
  Pt  Pt1  1  0.34144200  0.65855800  0.00000000  1
  Pt  Pt2  1  0.00000000  0.50000000  0.50000000  1
  Pt  Pt3  1  0.50000000  0.00000000  0.50000000  1
loop_
_geom_bond_atom_site_label_1
_geom_bond_atom_site_label_2
_geom_bond_distance
_geom_bond_site_symmetry_2
Pt0 Pt3 2.683244 1_554
Pt0 Pt2 2.683244 1_655
Pt0 Pt2 2.683244 1_654
Pt0 Pt3 2.683244 1_555
Pt0 Pt1 2.693327 1_555
Pt0 Pu0 2.899932 1_655
Pt0 Pu0 3.016546 1_555
Pt0 Pu0 3.016546 1_665
Pt1 Pt3 2.683244 1_565
Pt1 Pt2 2.683244 1_554
Pt1 Pt3 2.683244 1_564
Pt1 Pt2 2.683244 1_555
Pt1 Pu0 2.899932 1_565
Pt1 Pu0 3.016546 1_665
Pt1 Pu0 3.016546 1_555
Pt2 Pt3 2.699268 1_455
Pt2 Pt3 2.699268 1_565
Pt2 Pu0 3.332421 1_556
Pt2 Pu0 3.332421 1_565
Pt2 Pu0 3.332421 1_555
Pt2 Pu0 3.332421 1_566
Pt3 Pu0 3.332421 1_556
Pt3 Pu0 3.332421 1_655
Pt3 Pu0 3.332421 1_555
Pt3 Pu0 3.332421 1_656
