# generated using pymatgen
data_Hg2As3Br
_symmetry_space_group_name_H-M   'P 1'
_cell_length_a   6.23120071
_cell_length_b   6.23120126
_cell_length_c   8.26863955
_cell_angle_alpha   95.64572863
_cell_angle_beta   95.64573729
_cell_angle_gamma   97.81915037
_symmetry_Int_Tables_number   1
_chemical_formula_structural   Hg2As3Br
_chemical_formula_sum   'Hg4 As6 Br2'
_cell_volume   314.48538855
_cell_formula_units_Z   2
loop_
 _symmetry_equiv_pos_site_id
 _symmetry_equiv_pos_as_xyz
  1  'x, y, z'
loop_
 _atom_site_type_symbol
 _atom_site_label
 _atom_site_symmetry_multiplicity
 _atom_site_fract_x
 _atom_site_fract_y
 _atom_site_fract_z
 _atom_site_occupancy
  Hg  Hg0  1  0.85682113  0.59086865  0.65756364  1
  Hg  Hg1  1  0.40913135  0.14317887  0.84243636  1
  Hg  Hg2  1  0.59086865  0.85682113  0.15756364  1
  Hg  Hg3  1  0.14317887  0.40913135  0.34243636  1
  As  As0  1  0.93291433  0.81154729  0.01773999  1
  As  As1  1  0.18845271  0.06708567  0.48226001  1
  As  As2  1  0.06708567  0.18845271  0.98226001  1
  As  As3  1  0.79581987  0.20418013  0.75000000  1
  As  As4  1  0.20418013  0.79581987  0.25000000  1
  As  As5  1  0.81154729  0.93291433  0.51773999  1
  Br  Br0  1  0.36503090  0.63496910  0.75000000  1
  Br  Br1  1  0.63496910  0.36503090  0.25000000  1
loop_
_geom_bond_atom_site_label_1
_geom_bond_atom_site_label_2
_geom_bond_distance
_geom_bond_site_symmetry_2
As0 As2 2.439345 1_664
As0 As4 2.449159 1_655
As0 Hg2 2.557971 1_555
As0 Hg0 3.118362 1_554
As1 As5 2.439345 1_445
As1 As4 2.449159 1_545
As1 Hg3 2.557971 1_555
As1 Hg1 3.118362 1_555
As2 As3 2.449159 1_455
As2 Hg1 2.557971 1_555
As2 Hg3 3.118362 1_556
As3 As5 2.449159 1_545
As3 Hg1 2.589370 1_555
As3 Hg0 2.589370 1_555
As4 Hg2 2.589370 1_555
As4 Hg3 2.589370 1_555
As5 Hg0 2.557971 1_555
As5 Hg2 3.118362 1_555
Br0 Hg0 3.151780 1_455
Br0 Hg1 3.151780 1_565
Br0 Hg0 3.270958 1_555
Br0 Hg1 3.270958 1_555
Br1 Hg3 3.151780 1_655
Br1 Hg2 3.151780 1_545
Br1 Hg3 3.270958 1_555
Br1 Hg2 3.270958 1_555
