# generated using pymatgen
data_Na3Mg3Al(SO4)6
_symmetry_space_group_name_H-M   'P 1'
_cell_length_a   8.61321143
_cell_length_b   8.61637191
_cell_length_c   22.26390739
_cell_angle_alpha   90.00472042
_cell_angle_beta   89.99179049
_cell_angle_gamma   120.13756955
_symmetry_Int_Tables_number   1
_chemical_formula_structural   Na3Mg3Al(SO4)6
_chemical_formula_sum   'Na9 Mg9 Al3 S18 O72'
_cell_volume   1428.95269095
_cell_formula_units_Z   3
loop_
 _symmetry_equiv_pos_site_id
 _symmetry_equiv_pos_as_xyz
  1  'x, y, z'
loop_
 _atom_site_type_symbol
 _atom_site_label
 _atom_site_symmetry_multiplicity
 _atom_site_fract_x
 _atom_site_fract_y
 _atom_site_fract_z
 _atom_site_occupancy
  Na  Na0  1  0.63646007  0.99875214  0.24899400  1
  Na  Na1  1  0.36329291  0.36187053  0.24879659  1
  Na  Na2  1  0.03310246  0.69916095  0.58597390  1
  Na  Na3  1  0.99894777  0.00943987  0.49912751  1
  Na  Na4  1  0.99995720  0.99922465  0.99792640  1
  Na  Na5  1  0.66578988  0.33233251  0.83184459  1
  Na  Na6  1  0.67797192  0.34358365  0.33736811  1
  Na  Na7  1  0.32120756  0.66537255  0.15936644  1
  Na  Na8  1  0.34452364  0.66548194  0.67050904  1
  Mg  Mg0  1  0.99998083  0.99776313  0.35418931  1
  Mg  Mg1  1  0.00011021  0.00058305  0.85143926  1
  Mg  Mg2  1  0.99897483  0.00811626  0.65306353  1
  Mg  Mg3  1  0.99986641  0.99708640  0.14281434  1
  Mg  Mg4  1  0.66389479  0.33048731  0.68835971  1
  Mg  Mg5  1  0.67296254  0.33903835  0.18011487  1
  Mg  Mg6  1  0.33326613  0.66689328  0.01728166  1
  Mg  Mg7  1  0.33884643  0.66593178  0.51682940  1
  Mg  Mg8  1  0.32637794  0.66587898  0.32153383  1
  Al  Al0  1  0.66762345  0.33436211  0.98055090  1
  Al  Al1  1  0.66472291  0.33109471  0.48308509  1
  Al  Al2  1  0.33422513  0.66670923  0.81706855  1
  S  S0  1  0.29033372  0.99640919  0.24962549  1
  S  S1  1  0.70902928  0.70654290  0.25022348  1
  S  S2  1  0.00046375  0.29418644  0.24994653  1
  S  S3  1  0.29453777  0.30186524  0.75245703  1
  S  S4  1  0.00722075  0.70507174  0.75119023  1
  S  S5  1  0.69850382  0.99284012  0.75239925  1
  S  S6  1  0.95226289  0.33037862  0.58153173  1
  S  S7  1  0.37988336  0.04674174  0.58177554  1
  S  S8  1  0.66402163  0.61910515  0.58222885  1
  S  S9  1  0.95592449  0.62136902  0.08062077  1
  S  S10  1  0.66560555  0.04423242  0.08194811  1
  S  S11  1  0.37861629  0.33454330  0.08187488  1
  S  S12  1  0.62166454  0.66121984  0.91724433  1
  S  S13  1  0.03973113  0.37840851  0.91714307  1
  S  S14  1  0.33873802  0.96033203  0.91716777  1
  S  S15  1  0.62999327  0.97004450  0.41782199  1
  S  S16  1  0.33993144  0.37000922  0.41783322  1
  S  S17  1  0.03012647  0.66010238  0.41999445  1
  O  O0  1  0.21171266  0.02991475  0.30345068  1
  O  O1  1  0.81520799  0.78794008  0.30461957  1
  O  O2  1  0.96820625  0.18121603  0.30373871  1
  O  O3  1  0.21085533  0.18917288  0.80508061  1
  O  O4  1  0.97918353  0.79266109  0.80285635  1
  O  O5  1  0.81102328  0.02203127  0.80504802  1
  O  O6  1  0.77202989  0.95916098  0.69687567  1
  O  O7  1  0.18760484  0.22794605  0.69690125  1
  O  O8  1  0.03888512  0.80885383  0.69415282  1
  O  O9  1  0.78841781  0.81912031  0.19675016  1
  O  O10  1  0.03220405  0.21301911  0.19635102  1
  O  O11  1  0.18425854  0.97229688  0.19560649  1
  O  O12  1  0.87410792  0.36367466  0.63510555  1
  O  O13  1  0.48554079  0.12632256  0.63579729  1
  O  O14  1  0.64027201  0.51397509  0.63634365  1
  O  O15  1  0.88007841  0.51906786  0.13641362  1
  O  O16  1  0.64026584  0.11797461  0.13923434  1
  O  O17  1  0.47726743  0.35898732  0.13919686  1
  O  O18  1  0.47356784  0.31180176  0.02963577  1
  O  O19  1  0.84025795  0.52950093  0.02746359  1
  O  O20  1  0.68864926  0.16197175  0.02967615  1
  O  O21  1  0.46745854  0.15801962  0.52732038  1
  O  O22  1  0.69479204  0.53225765  0.52812593  1
  O  O23  1  0.84047999  0.30749321  0.52703291  1
  O  O24  1  0.54265496  0.68984246  0.97111457  1
  O  O25  1  0.14742281  0.45747698  0.97100556  1
  O  O26  1  0.31016119  0.85281359  0.97102723  1
  O  O27  1  0.54215363  0.85470897  0.46961694  1
  O  O28  1  0.31151783  0.45724328  0.46959420  1
  O  O29  1  0.13930201  0.68822164  0.47409467  1
  O  O30  1  0.10815005  0.62812312  0.36563818  1
  O  O31  1  0.52613224  0.89704273  0.36120778  1
  O  O32  1  0.37173803  0.47431789  0.36126632  1
  O  O33  1  0.12479333  0.49330419  0.86284836  1
  O  O34  1  0.36857504  0.87555237  0.86288263  1
  O  O35  1  0.50699668  0.63143118  0.86298318  1
  O  O36  1  0.01037251  0.81938140  0.41283529  1
  O  O37  1  0.81004416  0.99098913  0.41198828  1
  O  O38  1  0.18026126  0.19001857  0.41183244  1
  O  O39  1  0.01586428  0.19805690  0.90935069  1
  O  O40  1  0.18183627  0.98348695  0.90925047  1
  O  O41  1  0.80236773  0.81806959  0.90933784  1
  O  O42  1  0.96937161  0.16923667  0.58596663  1
  O  O43  1  0.19730708  0.02575461  0.58529585  1
  O  O44  1  0.83105836  0.79870961  0.58572859  1
  O  O45  1  0.96919325  0.79883934  0.08433664  1
  O  O46  1  0.82998866  0.03117261  0.08524075  1
  O  O47  1  0.20055816  0.17015332  0.08498235  1
  O  O48  1  0.67680174  0.15123325  0.74540073  1
  O  O49  1  0.47504330  0.32413779  0.74560357  1
  O  O50  1  0.84810727  0.52460081  0.74499644  1
  O  O51  1  0.68260554  0.52305723  0.24445909  1
  O  O52  1  0.83762020  0.31086551  0.24382511  1
  O  O53  1  0.47512243  0.16056806  0.24457917  1
  O  O54  1  0.63629017  0.49433051  0.92385198  1
  O  O55  1  0.85770392  0.36299959  0.92376547  1
  O  O56  1  0.50581280  0.14260270  0.92396846  1
  O  O57  1  0.64583206  0.15036620  0.42611209  1
  O  O58  1  0.50439116  0.35425842  0.42635464  1
  O  O59  1  0.84844183  0.49522269  0.42706176  1
  O  O60  1  0.36086301  0.49510712  0.07578355  1
  O  O61  1  0.13516978  0.64077079  0.07472953  1
  O  O62  1  0.50493270  0.86537933  0.07580711  1
  O  O63  1  0.35517194  0.86347607  0.57519572  1
  O  O64  1  0.50608798  0.63998249  0.57491682  1
  O  O65  1  0.13237060  0.49431438  0.57450867  1
  O  O66  1  0.31619915  0.83916894  0.25613037  1
  O  O67  1  0.52488848  0.68619929  0.25609997  1
  O  O68  1  0.16380253  0.47375603  0.25688388  1
  O  O69  1  0.31168743  0.48382572  0.76088626  1
  O  O70  1  0.17205839  0.68903489  0.76007472  1
  O  O71  1  0.51612100  0.82778208  0.76087131  1
loop_
_geom_bond_atom_site_label_1
_geom_bond_atom_site_label_2
_geom_bond_distance
_geom_bond_site_symmetry_2
Na0 O52 2.359788 1_565
Na0 O67 2.366944 1_555
Na0 O66 2.390878 1_555
Na0 O53 2.414614 1_565
Na0 O16 2.644710 1_565
Na0 O31 2.660087 1_555
Na0 O9 2.737715 1_555
Na0 O2 2.758931 1_565
Na1 O68 2.361661 1_555
Na1 O53 2.371213 1_555
Na1 O51 2.380489 1_555
Na1 O67 2.422266 1_555
Na1 O17 2.634824 1_555
Na1 O32 2.672642 1_555
Na1 O10 2.732900 1_555
Na1 O0 2.759807 1_555
Na2 O44 2.294151 1_455
Na2 O65 2.329556 1_555
Na2 O63 2.411116 1_555
Na2 O43 2.433703 1_565
Na2 O8 2.578563 1_555
Na2 O29 2.671312 1_555
Na2 O12 2.730006 1_455
Na2 O22 2.830324 1_455
Na3 O42 2.459724 1_555
Na3 O37 2.485470 1_545
Na3 O38 2.489329 1_655
Na3 O43 2.525653 1_655
Na3 O44 2.543358 1_545
Na3 O36 2.558071 1_645
Na4 O45 2.508676 1_556
Na4 O47 2.521171 1_666
Na4 O46 2.530166 1_566
Na4 O41 2.560435 1_555
Na4 O40 2.565666 1_655
Na4 O39 2.570524 1_665
Na5 O49 2.505049 1_555
Na5 O48 2.509178 1_555
Na5 O50 2.517247 1_555
Na5 O56 2.552589 1_555
Na5 O55 2.559831 1_555
Na5 O54 2.562139 1_555
Na6 O59 2.434084 1_555
Na6 O57 2.507915 1_555
Na6 O58 2.511187 1_555
Na6 O51 2.571046 1_555
Na6 O52 2.587670 1_555
Na6 O53 2.653476 1_555
Na7 O61 2.413100 1_555
Na7 O62 2.489224 1_555
Na7 O60 2.496875 1_555
Na7 O66 2.636258 1_555
Na7 O68 2.651379 1_555
Na7 O67 2.726372 1_555
Na8 O71 2.472334 1_555
Na8 O69 2.476788 1_555
Na8 O70 2.554604 1_555
Na8 O64 2.611582 1_555
Na8 O63 2.695427 1_555
Na8 O65 2.716042 1_555
Mg0 O1 2.032313 1_555
Mg0 O0 2.042260 1_665
Mg0 O36 2.052735 1_655
Mg0 O38 2.054162 1_665
Mg0 O37 2.058943 1_555
Mg0 O2 2.066382 1_565
Mg1 O3 2.009618 1_555
Mg1 O5 2.013993 1_455
Mg1 O4 2.021760 1_445
Mg1 O39 2.084172 1_555
Mg1 O41 2.084641 1_445
Mg1 O40 2.088172 1_545
Mg2 O7 2.022361 1_655
Mg2 O6 2.030246 1_545
Mg2 O8 2.120343 1_645
Mg2 O42 2.140041 1_555
Mg2 O43 2.226276 1_655
Mg2 O44 2.230365 1_545
Mg3 O45 2.056518 1_555
Mg3 O47 2.069022 1_665
Mg3 O11 2.071405 1_655
Mg3 O46 2.074214 1_565
Mg3 O9 2.075003 1_555
Mg3 O10 2.106968 1_665
Mg4 O13 2.027449 1_555
Mg4 O49 2.045290 1_555
Mg4 O48 2.045353 1_555
Mg4 O14 2.050731 1_555
Mg4 O50 2.059213 1_555
Mg4 O12 2.060430 1_555
Mg5 O15 1.938119 1_555
Mg5 O17 1.997994 1_555
Mg5 O16 1.999243 1_555
Mg5 O52 2.104427 1_555
Mg5 O51 2.107267 1_555
Mg5 O53 2.167189 1_555
Mg6 O25 1.994863 1_554
Mg6 O26 1.996705 1_554
Mg6 O24 1.997409 1_554
Mg6 O61 2.052217 1_555
Mg6 O62 2.066373 1_555
Mg6 O60 2.073059 1_555
Mg7 O27 1.989134 1_555
Mg7 O28 1.992334 1_555
Mg7 O64 2.030146 1_555
Mg7 O29 2.056231 1_555
Mg7 O65 2.087442 1_555
Mg7 O63 2.089239 1_555
Mg8 O30 1.997145 1_555
Mg8 O31 2.065583 1_555
Mg8 O32 2.075428 1_555
Mg8 O68 2.108422 1_555
Mg8 O66 2.118798 1_555
Mg8 O67 2.185209 1_555
Al0 O19 1.902260 1_556
Al0 O18 1.923282 1_556
Al0 O20 1.925050 1_556
Al0 O55 1.983302 1_555
Al0 O54 1.984968 1_555
Al0 O56 1.986753 1_555
Al1 O21 1.880464 1_555
Al1 O23 1.897366 1_555
Al1 O22 1.904200 1_555
Al1 O57 1.950812 1_555
Al1 O59 1.952512 1_555
Al1 O58 1.954354 1_555
Al2 O71 1.939710 1_555
Al2 O69 1.943702 1_555
Al2 O35 1.951044 1_555
Al2 O33 1.954107 1_555
Al2 O34 1.957346 1_555
Al2 O70 1.966842 1_555
O0 S0 1.474451 1_545
O1 S1 1.466650 1_555
O2 S2 1.479027 1_655
O3 S3 1.460200 1_555
O4 S4 1.460770 1_655
O5 S5 1.460137 1_545
O6 S5 1.482448 1_555
O7 S3 1.481553 1_555
O8 S4 1.497263 1_555
O9 S1 1.469610 1_555
O10 S2 1.476296 1_555
O11 S0 1.460824 1_555
O12 S6 1.466895 1_555
O13 S7 1.455510 1_555
O14 S8 1.458763 1_555
O15 S9 1.472564 1_555
O16 S10 1.488987 1_555
O17 S11 1.488499 1_555
O18 S11 1.490149 1_555
O19 S9 1.492667 1_555
O20 S10 1.490266 1_555
O21 S7 1.493941 1_555
O22 S8 1.509981 1_555
O23 S6 1.499257 1_555
O24 S12 1.459677 1_555
O25 S13 1.458839 1_555
O26 S14 1.458716 1_555
O27 S15 1.461068 1_555
O28 S16 1.461978 1_555
O29 S17 1.471475 1_555
O30 S17 1.475722 1_555
O31 S15 1.489906 1_555
O32 S16 1.490556 1_555
O33 S13 1.499898 1_555
O34 S14 1.499551 1_555
O35 S12 1.498835 1_555
O36 S17 1.473899 1_555
O37 S15 1.474239 1_555
O38 S16 1.474009 1_555
O39 S13 1.471865 1_555
O40 S14 1.472431 1_555
O41 S12 1.472310 1_555
O42 S6 1.471314 1_555
O43 S7 1.492055 1_555
O44 S8 1.495042 1_555
O45 S9 1.477396 1_555
O46 S10 1.477407 1_555
O47 S11 1.477097 1_555
O48 S5 1.475819 1_545
O49 S3 1.475681 1_555
O50 S4 1.474899 1_655
O51 S1 1.485405 1_555
O52 S2 1.486270 1_655
O53 S0 1.511923 1_545
O54 S12 1.512362 1_555
O55 S13 1.512745 1_655
O56 S14 1.513567 1_545
O57 S15 1.501278 1_545
O58 S16 1.501360 1_555
O59 S17 1.503152 1_655
O60 S11 1.472499 1_555
O61 S9 1.472918 1_455
O62 S10 1.472155 1_565
O63 S7 1.490888 1_565
O64 S8 1.468029 1_555
O65 S6 1.491923 1_455
O66 S0 1.486382 1_555
O67 S1 1.511341 1_555
O68 S2 1.487044 1_555
O69 S3 1.510816 1_555
O70 S4 1.507012 1_555
O71 S5 1.510796 1_555
