# generated using pymatgen
data_Na3InSi2GeSO12
_symmetry_space_group_name_H-M   'P 1'
_cell_length_a   9.04890591
_cell_length_b   9.04890559
_cell_length_c   22.28932248
_cell_angle_alpha   87.16708639
_cell_angle_beta   92.83291364
_cell_angle_gamma   119.25303369
_symmetry_Int_Tables_number   1
_chemical_formula_structural   Na3InSi2GeSO12
_chemical_formula_sum   'Na18 In6 Si12 Ge6 S6 O72'
_cell_volume   1589.73882563
_cell_formula_units_Z   6
loop_
 _symmetry_equiv_pos_site_id
 _symmetry_equiv_pos_as_xyz
  1  'x, y, z'
loop_
 _atom_site_type_symbol
 _atom_site_label
 _atom_site_symmetry_multiplicity
 _atom_site_fract_x
 _atom_site_fract_y
 _atom_site_fract_z
 _atom_site_occupancy
  Na  Na0  1  0.64082094  0.00550423  0.24336334  1
  Na  Na1  1  0.99604471  0.63258930  0.24942527  1
  Na  Na2  1  0.99449577  0.35917906  0.74336334  1
  Na  Na3  1  0.36741070  0.00395529  0.74942527  1
  Na  Na4  1  0.30748794  0.33883723  0.57669634  1
  Na  Na5  1  0.66271171  0.96592230  0.58275827  1
  Na  Na6  1  0.66116277  0.69251206  0.07669634  1
  Na  Na7  1  0.03407770  0.33728829  0.08275827  1
  Na  Na8  1  0.97415394  0.67217123  0.91003034  1
  Na  Na9  1  0.32937771  0.29925630  0.91609227  1
  Na  Na10  1  0.32782877  0.02584606  0.41003034  1
  Na  Na11  1  0.70074370  0.67062229  0.41609227  1
  Na  Na12  1  0.00157842  0.01766637  0.49795573  1
  Na  Na13  1  0.98233363  0.99842158  0.99795573  1
  Na  Na14  1  0.66824542  0.35099937  0.83128873  1
  Na  Na15  1  0.64900063  0.33175458  0.33128873  1
  Na  Na16  1  0.33491142  0.68433337  0.16462273  1
  Na  Na17  1  0.31566663  0.66508858  0.66462273  1
  In  In0  1  0.00426841  0.00648314  0.35134020  1
  In  In1  1  0.99351686  0.99573159  0.85134020  1
  In  In2  1  0.67093541  0.33981614  0.68467320  1
  In  In3  1  0.66018386  0.32906459  0.18467320  1
  In  In4  1  0.33760141  0.67315014  0.01800720  1
  In  In5  1  0.32684986  0.66239859  0.51800720  1
  Si  Si0  1  0.28674700  0.99222477  0.25277058  1
  Si  Si1  1  0.70310848  0.70146797  0.25166172  1
  Si  Si2  1  0.29853203  0.29689152  0.75166172  1
  Si  Si3  1  0.00777523  0.71325300  0.75277058  1
  Si  Si4  1  0.95341400  0.32555777  0.58610358  1
  Si  Si5  1  0.36977548  0.03480097  0.58499472  1
  Si  Si6  1  0.96519903  0.63022452  0.08499472  1
  Si  Si7  1  0.67444223  0.04658600  0.08610358  1
  Si  Si8  1  0.62008000  0.65889177  0.91943758  1
  Si  Si9  1  0.03644148  0.36813497  0.91832872  1
  Si  Si10  1  0.63186503  0.96355852  0.41832872  1
  Si  Si11  1  0.34110823  0.37992000  0.41943758  1
  Ge  Ge0  1  0.04642786  0.02684310  0.64649348  1
  Ge  Ge1  1  0.97315690  0.95357214  0.14649348  1
  Ge  Ge2  1  0.71309486  0.36017610  0.97982648  1
  Ge  Ge3  1  0.63982390  0.28690514  0.47982648  1
  Ge  Ge4  1  0.37976086  0.69351010  0.31316048  1
  Ge  Ge5  1  0.30648990  0.62023914  0.81316048  1
  S  S0  1  0.01274745  0.30463899  0.24761434  1
  S  S1  1  0.69536101  0.98725255  0.74761434  1
  S  S2  1  0.67941445  0.63797199  0.58094734  1
  S  S3  1  0.36202801  0.32058555  0.08094734  1
  S  S4  1  0.34608045  0.97130599  0.91428134  1
  S  S5  1  0.02869401  0.65391955  0.41428134  1
  O  O0  1  0.21573040  0.01787688  0.31347173  1
  O  O1  1  0.81475649  0.78582158  0.31118839  1
  O  O2  1  0.98615918  0.20016146  0.30294747  1
  O  O3  1  0.21417842  0.18524351  0.81118839  1
  O  O4  1  0.98212312  0.78426960  0.81347173  1
  O  O5  1  0.79983854  0.01384082  0.80294747  1
  O  O6  1  0.77690808  0.97516587  0.69406659  1
  O  O7  1  0.17463700  0.21557231  0.68979979  1
  O  O8  1  0.04514889  0.85538242  0.69445210  1
  O  O9  1  0.78442769  0.82536300  0.18979979  1
  O  O10  1  0.02483413  0.22309192  0.19406659  1
  O  O11  1  0.14461758  0.95485111  0.19445210  1
  O  O12  1  0.88239740  0.35120988  0.64680473  1
  O  O13  1  0.48142349  0.11915458  0.64452139  1
  O  O14  1  0.65282618  0.53349446  0.63628047  1
  O  O15  1  0.88084542  0.51857651  0.14452139  1
  O  O16  1  0.64879012  0.11760260  0.14680473  1
  O  O17  1  0.46650554  0.34717382  0.13628047  1
  O  O18  1  0.44357508  0.30849887  0.02739959  1
  O  O19  1  0.84130400  0.54890531  0.02313279  1
  O  O20  1  0.71181589  0.18871542  0.02778510  1
  O  O21  1  0.45109469  0.15869600  0.52313279  1
  O  O22  1  0.69150113  0.55642492  0.52739959  1
  O  O23  1  0.81128458  0.28818411  0.52778510  1
  O  O24  1  0.54906340  0.68454388  0.98013873  1
  O  O25  1  0.14808949  0.45248858  0.97785539  1
  O  O26  1  0.31949218  0.86682846  0.96961447  1
  O  O27  1  0.54751142  0.85191051  0.47785539  1
  O  O28  1  0.31545612  0.45093660  0.48013873  1
  O  O29  1  0.13317154  0.68050782  0.46961447  1
  O  O30  1  0.11024108  0.64183287  0.36073359  1
  O  O31  1  0.50797000  0.88223931  0.35646679  1
  O  O32  1  0.37848189  0.52204942  0.36111910  1
  O  O33  1  0.11776069  0.49203000  0.85646679  1
  O  O34  1  0.35816713  0.88975892  0.86073359  1
  O  O35  1  0.47795058  0.62151811  0.86111910  1
  O  O36  1  0.00878520  0.80998874  0.41338891  1
  O  O37  1  0.81615854  0.97920922  0.41304259  1
  O  O38  1  0.19054828  0.18690590  0.41189092  1
  O  O39  1  0.02079078  0.18384146  0.91304259  1
  O  O40  1  0.19001126  0.99121480  0.91338891  1
  O  O41  1  0.81309410  0.80945172  0.91189092  1
  O  O42  1  0.96042434  0.13758169  0.59192543  1
  O  O43  1  0.18461728  0.03633421  0.58736205  1
  O  O44  1  0.83071570  0.80891451  0.58583936  1
  O  O45  1  0.96366579  0.81538272  0.08736205  1
  O  O46  1  0.86241831  0.03957566  0.09192543  1
  O  O47  1  0.19108549  0.16928430  0.08583936  1
  O  O48  1  0.67545220  0.14332174  0.74672191  1
  O  O49  1  0.48282554  0.31254222  0.74637559  1
  O  O50  1  0.85721528  0.52023890  0.74522392  1
  O  O51  1  0.68745778  0.51717446  0.24637559  1
  O  O52  1  0.85667826  0.32454780  0.24672191  1
  O  O53  1  0.47976110  0.14278472  0.24522392  1
  O  O54  1  0.62709134  0.47091469  0.92525843  1
  O  O55  1  0.85128428  0.36966721  0.92069505  1
  O  O56  1  0.49738270  0.14224751  0.91917236  1
  O  O57  1  0.63033279  0.14871572  0.42069505  1
  O  O58  1  0.52908531  0.37290866  0.42525843  1
  O  O59  1  0.85775249  0.50261730  0.41917236  1
  O  O60  1  0.34211820  0.47665574  0.08005591  1
  O  O61  1  0.14949154  0.64587622  0.07970959  1
  O  O62  1  0.52388128  0.85357290  0.07855792  1
  O  O63  1  0.35412378  0.85050846  0.57970959  1
  O  O64  1  0.52334426  0.65788180  0.58005591  1
  O  O65  1  0.14642710  0.47611872  0.57855792  1
  O  O66  1  0.29375734  0.80424869  0.25859243  1
  O  O67  1  0.51795028  0.70300121  0.25402905  1
  O  O68  1  0.16404870  0.47558151  0.25250636  1
  O  O69  1  0.29699879  0.48204972  0.75402905  1
  O  O70  1  0.19575131  0.70624266  0.75859243  1
  O  O71  1  0.52441849  0.83595130  0.75250636  1
loop_
_geom_bond_atom_site_label_1
_geom_bond_atom_site_label_2
_geom_bond_distance
_geom_bond_site_symmetry_2
Na0 O16 2.322557 1_555
Na0 O53 2.334400 1_555
Na0 O67 2.402696 1_545
Na0 O52 2.579002 1_555
Na0 O66 2.783762 1_545
Na0 O31 2.784936 1_545
Na0 O9 2.861326 1_545
Na0 O2 3.012155 1_555
Na1 O66 2.366275 1_655
Na1 O52 2.436666 1_555
Na1 O51 2.455760 1_555
Na1 O68 2.534835 1_655
Na1 O15 2.562191 1_555
Na1 O30 2.629207 1_655
Na1 O11 2.791166 1_655
Na2 O12 2.322557 1_555
Na2 O50 2.334400 1_555
Na2 O69 2.402696 1_655
Na2 O48 2.579002 1_555
Na2 O70 2.783762 1_655
Na2 O33 2.784936 1_655
Na2 O7 2.861326 1_655
Na2 O5 3.012155 1_555
Na3 O70 2.366274 1_545
Na3 O48 2.436666 1_555
Na3 O49 2.455760 1_555
Na3 O71 2.534835 1_545
Na3 O13 2.562191 1_555
Na3 O34 2.629207 1_545
Na3 O8 2.791166 1_545
Na4 O28 2.322542 1_555
Na4 O65 2.334418 1_555
Na4 O43 2.402696 1_555
Na4 O64 2.579008 1_555
Na4 O42 2.783762 1_455
Na4 O7 2.784936 1_555
Na4 O21 2.861326 1_555
Na4 O14 3.012155 1_555
Na5 O42 2.366275 1_565
Na5 O64 2.436656 1_555
Na5 O63 2.455770 1_555
Na5 O44 2.534835 1_555
Na5 O27 2.562170 1_555
Na5 O6 2.629207 1_555
Na5 O23 2.791166 1_565
Na6 O24 2.322542 1_554
Na6 O62 2.334417 1_555
Na6 O45 2.402696 1_555
Na6 O60 2.579008 1_555
Na6 O46 2.783762 1_565
Na6 O9 2.784936 1_555
Na6 O19 2.861326 1_555
Na6 O17 3.012155 1_555
Na7 O46 2.366274 1_455
Na7 O60 2.436656 1_555
Na7 O61 2.455770 1_555
Na7 O47 2.534835 1_555
Na7 O25 2.562170 1_554
Na7 O10 2.629207 1_555
Na7 O20 2.791166 1_455
Na8 O4 2.322557 1_555
Na8 O41 2.334400 1_555
Na8 O55 2.402704 1_555
Na8 O40 2.579002 1_655
Na8 O54 2.783752 1_555
Na8 O19 2.784915 1_556
Na8 O33 2.861326 1_655
Na8 O26 3.012155 1_655
Na9 O54 2.366280 1_555
Na9 O40 2.436666 1_545
Na9 O39 2.455760 1_555
Na9 O56 2.534851 1_555
Na9 O3 2.562191 1_555
Na9 O18 2.629191 1_556
Na9 O35 2.791166 1_555
Na10 O0 2.322557 1_555
Na10 O38 2.334400 1_555
Na10 O57 2.402704 1_555
Na10 O36 2.579002 1_545
Na10 O58 2.783752 1_555
Na10 O21 2.784915 1_555
Na10 O31 2.861326 1_545
Na10 O29 3.012155 1_545
Na11 O58 2.366280 1_555
Na11 O36 2.436666 1_655
Na11 O37 2.455760 1_555
Na11 O59 2.534851 1_555
Na11 O1 2.562191 1_555
Na11 O22 2.629191 1_555
Na11 O32 2.791166 1_555
Na12 O37 2.387253 1_445
Na12 O43 2.485299 1_555
Na12 O42 2.529790 1_455
Na12 O38 2.534515 1_555
Na12 O44 2.622041 1_445
Na12 O36 2.751529 1_545
Na13 O39 2.387253 1_665
Na13 O45 2.485299 1_556
Na13 O46 2.529790 1_566
Na13 O41 2.534515 1_555
Na13 O47 2.622041 1_666
Na13 O40 2.751529 1_655
Na14 O49 2.387253 1_555
Na14 O55 2.485299 1_555
Na14 O54 2.529790 1_555
Na14 O50 2.534515 1_555
Na14 O56 2.622041 1_555
Na14 O48 2.751529 1_555
Na15 O51 2.387253 1_555
Na15 O57 2.485299 1_555
Na15 O58 2.529790 1_555
Na15 O53 2.534515 1_555
Na15 O59 2.622041 1_555
Na15 O52 2.751529 1_555
Na16 O61 2.387253 1_555
Na16 O67 2.485299 1_555
Na16 O66 2.529790 1_555
Na16 O62 2.534515 1_555
Na16 O68 2.622041 1_555
Na16 O60 2.751529 1_555
Na17 O63 2.387253 1_555
Na17 O69 2.485299 1_555
Na17 O70 2.529790 1_555
Na17 O65 2.534515 1_555
Na17 O71 2.622041 1_555
Na17 O64 2.751529 1_555
In0 O2 2.082834 1_455
In0 O0 2.083936 1_555
In0 O1 2.099312 1_445
In0 O38 2.152123 1_555
In0 O37 2.153391 1_445
In0 O36 2.213207 1_545
In1 O5 2.082834 1_565
In1 O4 2.083935 1_555
In1 O3 2.099313 1_665
In1 O41 2.152123 1_555
In1 O39 2.153391 1_665
In1 O40 2.213207 1_655
In2 O14 2.082834 1_555
In2 O12 2.083936 1_555
In2 O13 2.099312 1_555
In2 O50 2.152123 1_555
In2 O49 2.153391 1_555
In2 O48 2.213207 1_555
In3 O17 2.082834 1_555
In3 O16 2.083935 1_555
In3 O15 2.099313 1_555
In3 O53 2.152123 1_555
In3 O51 2.153391 1_555
In3 O52 2.213207 1_555
In4 O26 2.082834 1_554
In4 O24 2.083936 1_554
In4 O25 2.099312 1_554
In4 O62 2.152123 1_555
In4 O61 2.153391 1_555
In4 O60 2.213207 1_555
In5 O29 2.082834 1_555
In5 O28 2.083935 1_555
In5 O27 2.099313 1_555
In5 O65 2.152123 1_555
In5 O63 2.153391 1_555
In5 O64 2.213207 1_555
Ge0 O7 1.819371 1_555
Ge0 O43 1.831643 1_555
Ge0 O8 1.835702 1_545
Ge0 O42 1.907161 1_455
Ge0 O44 2.401533 1_445
Ge1 O9 1.819371 1_555
Ge1 O45 1.831643 1_555
Ge1 O11 1.835702 1_655
Ge1 O46 1.907161 1_565
Ge1 O47 2.401533 1_665
Ge2 O19 1.819371 1_556
Ge2 O55 1.831643 1_555
Ge2 O20 1.835702 1_556
Ge2 O54 1.907161 1_555
Ge2 O56 2.401533 1_555
Ge3 O21 1.819371 1_555
Ge3 O57 1.831643 1_555
Ge3 O23 1.835702 1_555
Ge3 O58 1.907161 1_555
Ge3 O59 2.401533 1_555
Ge4 O31 1.819371 1_555
Ge4 O67 1.831643 1_555
Ge4 O32 1.835702 1_555
Ge4 O66 1.907161 1_555
Ge4 O68 2.401533 1_555
Ge5 O33 1.819371 1_555
Ge5 O69 1.831643 1_555
Ge5 O35 1.835702 1_555
Ge5 O70 1.907161 1_555
Ge5 O71 2.401533 1_555
O0 Si0 1.600061 1_545
O1 Si1 1.605514 1_555
O2 S0 1.471249 1_655
O3 Si2 1.605514 1_555
O4 Si3 1.600061 1_655
O5 S1 1.471249 1_545
O6 S1 1.469646 1_555
O7 Si2 1.685481 1_555
O8 Si3 1.706242 1_555
O9 Si1 1.685481 1_555
O10 S0 1.469646 1_555
O11 Si0 1.706242 1_555
O12 Si4 1.600061 1_555
O13 Si5 1.605514 1_555
O14 S2 1.471249 1_555
O15 Si6 1.605514 1_555
O16 Si7 1.600061 1_555
O17 S3 1.471249 1_555
O18 S3 1.469646 1_555
O19 Si6 1.685481 1_555
O20 Si7 1.706242 1_555
O21 Si5 1.685481 1_555
O22 S2 1.469646 1_555
O23 Si4 1.706242 1_555
O24 Si8 1.600061 1_555
O25 Si9 1.605514 1_555
O26 S4 1.471249 1_555
O27 Si10 1.605514 1_555
O28 Si11 1.600061 1_555
O29 S5 1.471249 1_555
O30 S5 1.469646 1_555
O31 Si10 1.685481 1_555
O32 Si11 1.706242 1_555
O33 Si9 1.685481 1_555
O34 S4 1.469646 1_555
O35 Si8 1.706242 1_555
O36 S5 1.507594 1_555
O37 Si10 1.613060 1_555
O38 Si11 1.617320 1_555
O39 Si9 1.613060 1_555
O40 S4 1.507594 1_555
O41 Si8 1.617320 1_555
O42 Si4 1.731189 1_555
O43 Si5 1.685745 1_555
O44 S2 1.487008 1_555
O45 Si6 1.685745 1_555
O46 Si7 1.731189 1_555
O47 S3 1.487008 1_555
O48 S1 1.507594 1_545
O49 Si2 1.613060 1_555
O50 Si3 1.617320 1_655
O51 Si1 1.613060 1_555
O52 S0 1.507594 1_655
O53 Si0 1.617320 1_545
O54 Si8 1.731202 1_555
O55 Si9 1.685730 1_655
O56 S4 1.487005 1_545
O57 Si10 1.685730 1_545
O58 Si11 1.731202 1_555
O59 S5 1.487005 1_655
O60 S3 1.507609 1_555
O61 Si6 1.613044 1_455
O62 Si7 1.617314 1_565
O63 Si5 1.613044 1_565
O64 S2 1.507609 1_555
O65 Si4 1.617314 1_455
O66 Si0 1.731189 1_555
O67 Si1 1.685745 1_555
O68 S0 1.487008 1_555
O69 Si2 1.685745 1_555
O70 Si3 1.731189 1_555
O71 S1 1.487008 1_555
