# generated using pymatgen
data_MgCo4(O3F)2
_symmetry_space_group_name_H-M   'P 1'
_cell_length_a   5.13688012
_cell_length_b   5.14226528
_cell_length_c   5.84283004
_cell_angle_alpha   93.39253064
_cell_angle_beta   86.65057912
_cell_angle_gamma   107.07233634
_symmetry_Int_Tables_number   1
_chemical_formula_structural   MgCo4(O3F)2
_chemical_formula_sum   'Mg1 Co4 O6 F2'
_cell_volume   147.14363126
_cell_formula_units_Z   1
loop_
 _symmetry_equiv_pos_site_id
 _symmetry_equiv_pos_as_xyz
  1  'x, y, z'
loop_
 _atom_site_type_symbol
 _atom_site_label
 _atom_site_symmetry_multiplicity
 _atom_site_fract_x
 _atom_site_fract_y
 _atom_site_fract_z
 _atom_site_occupancy
  Mg  Mg0  1  0.70789891  0.29777279  0.51276981  1
  Co  Co0  1  0.00911671  0.99153638  0.00319043  1
  Co  Co1  1  0.03392862  0.96751716  0.49604403  1
  Co  Co2  1  0.46381585  0.53664933  0.23454510  1
  Co  Co3  1  0.39762693  0.60305272  0.75640556  1
  O  O0  1  0.17546362  0.82388888  0.74358435  1
  O  O1  1  0.29358393  0.32125567  0.98910383  1
  O  O2  1  0.31937355  0.30132633  0.49606637  1
  O  O3  1  0.67912702  0.70712202  0.98937938  1
  O  O4  1  0.69913242  0.68336471  0.49581292  1
  O  O5  1  0.88222157  0.11978181  0.27675272  1
  F  F0  1  0.21599431  0.78310654  0.24383517  1
  F  F1  1  0.83105057  0.16918166  0.76251034  1
loop_
_geom_bond_atom_site_label_1
_geom_bond_atom_site_label_2
_geom_bond_distance
_geom_bond_site_symmetry_2
Mg0 O5 1.931018 1_555
Mg0 O4 2.004895 1_555
Mg0 O2 2.009352 1_555
Co0 O5 1.849465 1_465
Co0 O1 1.888002 1_564
Co0 O3 1.888199 1_454
Co0 O0 1.974962 1_554
Co0 F1 2.107528 1_464
Co0 F0 2.297129 1_555
Co1 O5 1.858962 1_465
Co1 O4 1.901931 1_455
Co1 O2 1.902280 1_565
Co1 O0 1.931469 1_555
Co1 F0 2.034648 1_555
Co1 F1 2.199855 1_465
Co2 O1 1.854155 1_554
Co2 O3 1.854158 1_554
Co2 O4 1.975994 1_555
Co2 O2 1.977092 1_555
Co2 F0 2.039806 1_555
Co3 O0 1.838095 1_555
Co3 O3 1.979837 1_555
Co3 O1 1.981805 1_555
Co3 O2 2.075725 1_555
Co3 O4 2.076280 1_555
F1 Mg0 1.853206 1_555
