# generated using pymatgen
data_Na7Ga4SiP5O24
_symmetry_space_group_name_H-M   'P 1'
_cell_length_a   8.79858099
_cell_length_b   8.80601220
_cell_length_c   21.63966695
_cell_angle_alpha   90.21101312
_cell_angle_beta   89.50440502
_cell_angle_gamma   119.95208461
_symmetry_Int_Tables_number   1
_chemical_formula_structural   Na7Ga4SiP5O24
_chemical_formula_sum   'Na21 Ga12 Si3 P15 O72'
_cell_volume   1452.66758471
_cell_formula_units_Z   3
loop_
 _symmetry_equiv_pos_site_id
 _symmetry_equiv_pos_as_xyz
  1  'x, y, z'
loop_
 _atom_site_type_symbol
 _atom_site_label
 _atom_site_symmetry_multiplicity
 _atom_site_fract_x
 _atom_site_fract_y
 _atom_site_fract_z
 _atom_site_occupancy
  Na  Na0  1  0.36558030  0.36677764  0.25073281  1
  Na  Na1  1  0.99684223  0.63052329  0.24839751  1
  Na  Na2  1  0.63402055  0.63673164  0.74887732  1
  Na  Na3  1  0.99597150  0.36368624  0.75175468  1
  Na  Na4  1  0.37124133  0.00086364  0.74876709  1
  Na  Na5  1  0.29862151  0.32784339  0.58168791  1
  Na  Na6  1  0.03534844  0.70225301  0.58290112  1
  Na  Na7  1  0.66376596  0.96502251  0.58605761  1
  Na  Na8  1  0.29810324  0.96500819  0.08326950  1
  Na  Na9  1  0.67114331  0.70115698  0.08236215  1
  Na  Na10  1  0.03426774  0.33777799  0.08456373  1
  Na  Na11  1  0.96460573  0.66489423  0.91865159  1
  Na  Na12  1  0.70200684  0.03359452  0.91473438  1
  Na  Na13  1  0.96791692  0.30008973  0.41574023  1
  Na  Na14  1  0.33619403  0.03577372  0.41820951  1
  Na  Na15  1  0.99173645  0.98807020  0.49895022  1
  Na  Na16  1  0.01177421  0.00824208  0.99895649  1
  Na  Na17  1  0.65470454  0.32922560  0.83454914  1
  Na  Na18  1  0.66675331  0.33341263  0.33326105  1
  Na  Na19  1  0.34134065  0.67827648  0.16777724  1
  Na  Na20  1  0.33732920  0.67252549  0.66655450  1
  Ga  Ga0  1  0.99350818  0.99357236  0.35035010  1
  Ga  Ga1  1  0.00299066  0.00725675  0.85060811  1
  Ga  Ga2  1  0.00031415  0.99867483  0.64965281  1
  Ga  Ga3  1  0.99675864  0.99381985  0.14989059  1
  Ga  Ga4  1  0.66341812  0.32276547  0.68373204  1
  Ga  Ga5  1  0.67116420  0.32982033  0.18399611  1
  Ga  Ga6  1  0.66436928  0.33821427  0.98313068  1
  Ga  Ga7  1  0.66008387  0.33510499  0.48220251  1
  Ga  Ga8  1  0.32781312  0.66510830  0.01705699  1
  Ga  Ga9  1  0.33699459  0.67287152  0.51644680  1
  Ga  Ga10  1  0.33982692  0.67313243  0.31627243  1
  Ga  Ga11  1  0.33974399  0.67093957  0.81643386  1
  Si  Si0  1  0.70870630  0.00067466  0.75058797  1
  Si  Si1  1  0.37087857  0.03837487  0.58273933  1
  Si  Si2  1  0.96002656  0.62682422  0.08336192  1
  P  P0  1  0.29579134  0.00077702  0.25061000  1
  P  P1  1  0.70516355  0.70868828  0.24967858  1
  P  P2  1  0.99662547  0.28855849  0.25089094  1
  P  P3  1  0.29125852  0.29178530  0.74982601  1
  P  P4  1  0.99935020  0.70749511  0.75090213  1
  P  P5  1  0.95824063  0.33430293  0.58188165  1
  P  P6  1  0.66682092  0.62136138  0.58380814  1
  P  P7  1  0.66668272  0.04348798  0.08214193  1
  P  P8  1  0.37645469  0.33318370  0.08475738  1
  P  P9  1  0.62246687  0.66206065  0.91673973  1
  P  P10  1  0.04437512  0.37334749  0.91678778  1
  P  P11  1  0.33330104  0.96437810  0.91671583  1
  P  P12  1  0.62826409  0.95792085  0.41698038  1
  P  P13  1  0.33656453  0.37793795  0.41560662  1
  P  P14  1  0.03734619  0.66573673  0.41591639  1
  O  O0  1  0.21266779  0.03615562  0.30860536  1
  O  O1  1  0.82931751  0.79359457  0.30447745  1
  O  O2  1  0.97533729  0.18174295  0.30975410  1
  O  O3  1  0.21016232  0.16696323  0.80493261  1
  O  O4  1  0.96641488  0.78984364  0.80896150  1
  O  O5  1  0.83076302  0.03964376  0.81141655  1
  O  O6  1  0.79218171  0.95937086  0.68941290  1
  O  O7  1  0.18009955  0.21648835  0.69075571  1
  O  O8  1  0.03991621  0.82380720  0.69290403  1
  O  O9  1  0.78204264  0.81436127  0.18951847  1
  O  O10  1  0.03071335  0.20565140  0.19284676  1
  O  O11  1  0.17919768  0.96516948  0.19281028  1
  O  O12  1  0.88225813  0.37510244  0.64035411  1
  O  O13  1  0.49428304  0.11827498  0.64349580  1
  O  O14  1  0.63441175  0.51073763  0.64300192  1
  O  O15  1  0.87792869  0.50176215  0.14419811  1
  O  O16  1  0.62172151  0.12239078  0.13798825  1
  O  O17  1  0.48826157  0.36789758  0.14345673  1
  O  O18  1  0.45579267  0.28845988  0.02887087  1
  O  O19  1  0.83594944  0.54513700  0.02267210  1
  O  O20  1  0.70174523  0.15553806  0.02311844  1
  O  O21  1  0.45259065  0.16298136  0.52183944  1
  O  O22  1  0.70739347  0.53977922  0.52791177  1
  O  O23  1  0.84314094  0.30222512  0.52456059  1
  O  O24  1  0.53836645  0.69609212  0.97445408  1
  O  O25  1  0.15073670  0.45675796  0.97566820  1
  O  O26  1  0.29833300  0.84744792  0.97461890  1
  O  O27  1  0.55152999  0.85224673  0.47714008  1
  O  O28  1  0.30254883  0.46083368  0.47377909  1
  O  O29  1  0.15409267  0.70127830  0.47370057  1
  O  O30  1  0.12084782  0.63064465  0.35797016  1
  O  O31  1  0.50409969  0.87340035  0.36219447  1
  O  O32  1  0.35783298  0.48507382  0.35688364  1
  O  O33  1  0.12836724  0.49116917  0.85921743  1
  O  O34  1  0.36835613  0.88191856  0.85861426  1
  O  O35  1  0.51656106  0.63909502  0.85779592  1
  O  O36  1  0.02583762  0.83492202  0.40983240  1
  O  O37  1  0.81456972  0.98257345  0.41043834  1
  O  O38  1  0.16903252  0.19128388  0.41268511  1
  O  O39  1  0.02240644  0.18834970  0.91282141  1
  O  O40  1  0.16403476  0.97525979  0.91069174  1
  O  O41  1  0.80917664  0.82891877  0.91378725  1
  O  O42  1  0.97448191  0.16792669  0.58730834  1
  O  O43  1  0.17481264  0.01776862  0.58901782  1
  O  O44  1  0.82910407  0.80760153  0.58772853  1
  O  O45  1  0.98207010  0.82359832  0.08888060  1
  O  O46  1  0.83456444  0.02954361  0.08900370  1
  O  O47  1  0.18863248  0.17251595  0.09065455  1
  O  O48  1  0.69036822  0.17733707  0.74629567  1
  O  O49  1  0.47896869  0.31944504  0.74458444  1
  O  O50  1  0.83205293  0.52585440  0.74485291  1
  O  O51  1  0.68427664  0.52172001  0.24592741  1
  O  O52  1  0.83361093  0.31087150  0.24709391  1
  O  O53  1  0.47655642  0.16895278  0.24438226  1
  O  O54  1  0.64453211  0.49903520  0.92072264  1
  O  O55  1  0.85758462  0.35384467  0.91985108  1
  O  O56  1  0.50232327  0.14435145  0.92271655  1
  O  O57  1  0.64947181  0.14513696  0.42087594  1
  O  O58  1  0.49946548  0.35563571  0.41918588  1
  O  O59  1  0.85681910  0.49753470  0.42210180  1
  O  O60  1  0.36152104  0.50036730  0.07762846  1
  O  O61  1  0.15673053  0.64818599  0.07802616  1
  O  O62  1  0.50610468  0.85597018  0.07645894  1
  O  O63  1  0.35063098  0.84246495  0.57718325  1
  O  O64  1  0.49893147  0.63633791  0.57789351  1
  O  O65  1  0.14510626  0.49645732  0.57606575  1
  O  O66  1  0.30747992  0.83173612  0.25676884  1
  O  O67  1  0.51888224  0.68439562  0.25619518  1
  O  O68  1  0.16407318  0.47538096  0.25390636  1
  O  O69  1  0.30518787  0.47370061  0.75696361  1
  O  O70  1  0.16148068  0.68280785  0.75658813  1
  O  O71  1  0.51191697  0.82521699  0.75518539  1
loop_
_geom_bond_atom_site_label_1
_geom_bond_atom_site_label_2
_geom_bond_distance
_geom_bond_site_symmetry_2
Na0 O53 2.387777 1_555
Na0 O68 2.398615 1_555
Na0 O67 2.426811 1_555
Na0 O51 2.431235 1_555
Na0 O32 2.533164 1_555
Na0 O17 2.549592 1_555
Na0 O0 2.818044 1_555
Na0 O10 2.852999 1_555
Na1 O66 2.411010 1_655
Na1 O51 2.419733 1_555
Na1 O52 2.439296 1_555
Na1 O68 2.461137 1_655
Na1 O15 2.510381 1_555
Na1 O30 2.618435 1_655
Na1 O1 2.788770 1_555
Na1 O11 2.824330 1_655
Na2 O50 2.385881 1_555
Na2 O71 2.388344 1_555
Na2 O49 2.422903 1_555
Na2 O69 2.511587 1_555
Na2 O14 2.542665 1_555
Na2 O35 2.569583 1_555
Na2 O6 2.777141 1_555
Na2 O4 2.859556 1_555
Na3 O48 2.352636 1_555
Na3 O69 2.392874 1_655
Na3 O70 2.437791 1_655
Na3 O50 2.490715 1_555
Na3 O33 2.597460 1_655
Na3 O12 2.639398 1_555
Na3 O5 2.788402 1_555
Na3 O7 2.845091 1_655
Na4 O71 2.420742 1_545
Na4 O48 2.437786 1_555
Na4 O70 2.473013 1_545
Na4 O49 2.474302 1_555
Na4 O13 2.507477 1_555
Na4 O34 2.595939 1_545
Na4 O3 2.766292 1_555
Na4 O8 2.810529 1_545
Na5 O43 2.386968 1_555
Na5 O64 2.389793 1_555
Na5 O65 2.459827 1_555
Na5 O42 2.473152 1_455
Na5 O7 2.563769 1_555
Na5 O28 2.608406 1_555
Na5 O21 2.745882 1_555
Na5 O14 2.895494 1_555
Na6 O63 2.410421 1_555
Na6 O43 2.416324 1_565
Na6 O44 2.416930 1_455
Na6 O65 2.445775 1_555
Na6 O29 2.577170 1_555
Na6 O8 2.598797 1_555
Na6 O22 2.777358 1_455
Na6 O12 2.789647 1_455
Na7 O42 2.406345 1_565
Na7 O63 2.414731 1_555
Na7 O44 2.460541 1_555
Na7 O64 2.514187 1_555
Na7 O6 2.526272 1_555
Na7 O27 2.561317 1_555
Na7 O13 2.748635 1_565
Na7 O23 2.896951 1_565
Na8 O45 2.415587 1_455
Na8 O61 2.424596 1_555
Na8 O62 2.458052 1_555
Na8 O47 2.458666 1_565
Na8 O26 2.565885 1_554
Na8 O11 2.583024 1_555
Na8 O18 2.733850 1_565
Na8 O16 2.745205 1_565
Na9 O45 2.393056 1_555
Na9 O60 2.398318 1_555
Na9 O62 2.442282 1_555
Na9 O46 2.509788 1_565
Na9 O9 2.524607 1_555
Na9 O24 2.610336 1_554
Na9 O19 2.757287 1_555
Na9 O17 2.868076 1_555
Na10 O46 2.387621 1_455
Na10 O61 2.389976 1_555
Na10 O47 2.440936 1_555
Na10 O60 2.498144 1_555
Na10 O25 2.570038 1_554
Na10 O10 2.613013 1_555
Na10 O15 2.753509 1_455
Na10 O20 2.875138 1_455
Na11 O40 2.405790 1_655
Na11 O55 2.411359 1_555
Na11 O41 2.437957 1_555
Na11 O54 2.440743 1_555
Na11 O19 2.498353 1_556
Na11 O4 2.616538 1_555
Na11 O26 2.829622 1_655
Na11 O33 2.867951 1_655
Na12 O56 2.402607 1_555
Na12 O41 2.415490 1_545
Na12 O39 2.442989 1_655
Na12 O55 2.446366 1_555
Na12 O5 2.486297 1_555
Na12 O20 2.576399 1_556
Na12 O34 2.830413 1_545
Na12 O24 2.880855 1_545
Na13 O59 2.385495 1_555
Na13 O38 2.396702 1_655
Na13 O37 2.425851 1_545
Na13 O57 2.429564 1_555
Na13 O2 2.529482 1_555
Na13 O23 2.593540 1_555
Na13 O30 2.816582 1_655
Na13 O28 2.852915 1_655
Na14 O36 2.408585 1_545
Na14 O57 2.424906 1_555
Na14 O58 2.440815 1_555
Na14 O38 2.463387 1_555
Na14 O21 2.491630 1_555
Na14 O0 2.618204 1_555
Na14 O31 2.786017 1_545
Na14 O29 2.822338 1_545
Na15 O44 2.442966 1_555
Na15 O36 2.450049 1_655
Na15 O37 2.465057 1_555
Na15 O43 2.468144 1_665
Na15 O38 2.511425 1_665
Na15 O42 2.529862 1_565
Na16 O40 2.422282 1_545
Na16 O39 2.422622 1_555
Na16 O45 2.467570 1_446
Na16 O47 2.497216 1_556
Na16 O41 2.508494 1_445
Na16 O46 2.549526 1_456
Na17 O54 2.414878 1_555
Na17 O56 2.426350 1_555
Na17 O48 2.434053 1_555
Na17 O49 2.471062 1_555
Na17 O55 2.511656 1_555
Na17 O50 2.544582 1_555
Na18 O58 2.428927 1_555
Na18 O52 2.431563 1_555
Na18 O51 2.471412 1_555
Na18 O57 2.476496 1_555
Na18 O59 2.490597 1_555
Na18 O53 2.492405 1_555
Na19 O66 2.448753 1_555
Na19 O67 2.463909 1_555
Na19 O61 2.470155 1_555
Na19 O62 2.482568 1_555
Na19 O68 2.508046 1_555
Na19 O60 2.557505 1_555
Na20 O71 2.411561 1_555
Na20 O63 2.415762 1_555
Na20 O64 2.490988 1_555
Na20 O70 2.506869 1_555
Na20 O69 2.548391 1_555
Na20 O65 2.552484 1_555
Ga0 O1 1.909221 1_555
Ga0 O2 1.954672 1_565
Ga0 O0 1.981232 1_665
Ga0 O37 1.998031 1_555
Ga0 O36 2.026319 1_655
Ga0 O38 2.137684 1_665
Ga1 O5 1.884803 1_455
Ga1 O3 1.922684 1_555
Ga1 O4 1.989549 1_445
Ga1 O39 2.025059 1_555
Ga1 O40 2.052048 1_545
Ga1 O41 2.131849 1_445
Ga2 O6 1.885644 1_455
Ga2 O43 1.953508 1_565
Ga2 O8 1.980073 1_555
Ga2 O7 1.988578 1_565
Ga2 O44 2.093646 1_455
Ga2 O42 2.109868 1_465
Ga3 O45 1.949763 1_555
Ga3 O9 1.950020 1_555
Ga3 O10 1.966866 1_665
Ga3 O11 1.983648 1_655
Ga3 O47 2.072226 1_665
Ga3 O46 2.086954 1_565
Ga4 O13 1.884240 1_555
Ga4 O48 1.962335 1_555
Ga4 O12 1.971499 1_555
Ga4 O14 2.004601 1_555
Ga4 O49 2.069927 1_555
Ga4 O50 2.125109 1_555
Ga5 O15 1.890984 1_555
Ga5 O16 1.928119 1_555
Ga5 O17 2.009284 1_555
Ga5 O53 2.049154 1_555
Ga5 O52 2.051510 1_555
Ga5 O51 2.111007 1_555
Ga6 O19 1.896185 1_556
Ga6 O18 1.925728 1_556
Ga6 O20 1.997023 1_556
Ga6 O54 2.030977 1_555
Ga6 O56 2.059533 1_555
Ga6 O55 2.124052 1_555
Ga7 O21 1.893521 1_555
Ga7 O22 1.909189 1_555
Ga7 O23 2.002836 1_555
Ga7 O58 2.044434 1_555
Ga7 O59 2.058183 1_555
Ga7 O57 2.097179 1_555
Ga8 O25 1.937389 1_554
Ga8 O61 1.942133 1_555
Ga8 O24 1.955495 1_554
Ga8 O26 1.979831 1_554
Ga8 O62 2.079489 1_555
Ga8 O60 2.088287 1_555
Ga9 O63 1.944617 1_555
Ga9 O27 1.945878 1_555
Ga9 O28 1.964151 1_555
Ga9 O29 1.984297 1_555
Ga9 O65 2.070353 1_555
Ga9 O64 2.096499 1_555
Ga10 O31 1.911384 1_555
Ga10 O32 1.953206 1_555
Ga10 O30 1.979635 1_555
Ga10 O67 1.997861 1_555
Ga10 O66 2.026376 1_555
Ga10 O68 2.138918 1_555
Ga11 O35 1.939502 1_555
Ga11 O71 1.954657 1_555
Ga11 O33 1.965506 1_555
Ga11 O34 1.967918 1_555
Ga11 O69 2.056297 1_555
Ga11 O70 2.085176 1_555
O0 P0 1.554269 1_555
O1 P1 1.535846 1_555
O2 P2 1.539848 1_555
O3 P3 1.533340 1_555
O4 P4 1.544398 1_555
O5 Si0 1.629994 1_555
O6 Si0 1.634193 1_565
O7 P3 1.548545 1_555
O8 P4 1.545419 1_455
O9 P1 1.543839 1_555
O10 P2 1.551139 1_455
O11 P0 1.553457 1_565
O12 P5 1.548850 1_555
O13 Si1 1.630208 1_555
O14 P6 1.548086 1_555
O15 Si2 1.633282 1_555
O16 P7 1.536146 1_555
O17 P8 1.546985 1_555
O18 P8 1.536677 1_555
O19 Si2 1.633315 1_555
O20 P7 1.548757 1_555
O21 Si1 1.632230 1_555
O22 P6 1.532597 1_555
O23 P5 1.541912 1_555
O24 P9 1.549143 1_555
O25 P10 1.538215 1_555
O26 P11 1.552877 1_555
O27 P12 1.543670 1_555
O28 P13 1.553055 1_555
O29 P14 1.554023 1_555
O30 P14 1.554203 1_555
O31 P12 1.535238 1_555
O32 P13 1.538934 1_555
O33 P10 1.550033 1_555
O34 P11 1.553519 1_555
O35 P9 1.538388 1_555
O36 P14 1.549048 1_555
O37 P12 1.547610 1_555
O38 P13 1.568433 1_555
O39 P10 1.543857 1_555
O40 P11 1.546013 1_555
O41 P9 1.565362 1_555
O42 P5 1.546409 1_555
O43 Si1 1.646484 1_555
O44 P6 1.548682 1_555
O45 Si2 1.648558 1_555
O46 P7 1.550503 1_555
O47 P8 1.553059 1_555
O48 Si0 1.645237 1_555
O49 P3 1.547639 1_555
O50 P4 1.546959 1_555
O51 P1 1.564698 1_555
O52 P2 1.544713 1_555
O53 P0 1.544914 1_555
O54 P9 1.544535 1_555
O55 P10 1.565664 1_655
O56 P11 1.545497 1_545
O57 P12 1.565874 1_545
O58 P13 1.543381 1_555
O59 P14 1.543791 1_655
O60 P8 1.550382 1_555
O61 Si2 1.647939 1_455
O62 P7 1.552383 1_565
O63 Si1 1.647545 1_565
O64 P6 1.553638 1_555
O65 P5 1.552893 1_455
O66 P0 1.548794 1_565
O67 P1 1.548586 1_555
O68 P2 1.569075 1_455
O69 P3 1.551636 1_555
O70 P4 1.552501 1_455
O71 Si0 1.649825 1_565
