# generated using pymatgen
data_NiRhF6
_symmetry_space_group_name_H-M   'P 1'
_cell_length_a   5.29942520
_cell_length_b   5.29939153
_cell_length_c   5.29762915
_cell_angle_alpha   54.99426224
_cell_angle_beta   55.00233713
_cell_angle_gamma   54.98630498
_symmetry_Int_Tables_number   1
_chemical_formula_structural   NiRhF6
_chemical_formula_sum   'Ni1 Rh1 F6'
_cell_volume   92.94852076
_cell_formula_units_Z   1
loop_
 _symmetry_equiv_pos_site_id
 _symmetry_equiv_pos_as_xyz
  1  'x, y, z'
loop_
 _atom_site_type_symbol
 _atom_site_label
 _atom_site_symmetry_multiplicity
 _atom_site_fract_x
 _atom_site_fract_y
 _atom_site_fract_z
 _atom_site_occupancy
  Ni  Ni0  1  0.50000000  0.50000000  0.50000000  1
  Rh  Rh0  1  0.00000000  -0.00000000  -0.00000000  1
  F  F0  1  0.39646457  0.09821784  0.75677596  1
  F  F1  1  0.09771273  0.75706249  0.39700553  1
  F  F2  1  0.24395143  0.60302839  0.90215003  1
  F  F3  1  0.90228727  0.24293751  0.60299447  1
  F  F4  1  0.60353543  0.90178216  0.24322404  1
  F  F5  1  0.75604857  0.39697161  0.09784997  1
loop_
_geom_bond_atom_site_label_1
_geom_bond_atom_site_label_2
_geom_bond_distance
_geom_bond_site_symmetry_2
F0 Rh0 1.930178 1_556
F0 Ni0 1.961222 1_555
F1 Rh0 1.930457 1_565
F1 Ni0 1.961442 1_555
F2 Rh0 1.930574 1_566
F2 Ni0 1.961240 1_555
F3 Rh0 1.930457 1_656
F3 Ni0 1.961442 1_555
F4 Rh0 1.930178 1_665
F4 Ni0 1.961222 1_555
F5 Rh0 1.930574 1_655
F5 Ni0 1.961240 1_555
