# generated using pymatgen
data_LiV(PO4)2
_symmetry_space_group_name_H-M   'P 1'
_cell_length_a   7.47603100
_cell_length_b   5.06730200
_cell_length_c   7.67495884
_cell_angle_alpha   84.56244175
_cell_angle_beta   90.00000000
_cell_angle_gamma   90.00000000
_symmetry_Int_Tables_number   1
_chemical_formula_structural   LiV(PO4)2
_chemical_formula_sum   'Li2 V2 P4 O16'
_cell_volume   289.44445100
_cell_formula_units_Z   2
loop_
 _symmetry_equiv_pos_site_id
 _symmetry_equiv_pos_as_xyz
  1  'x, y, z'
loop_
 _atom_site_type_symbol
 _atom_site_label
 _atom_site_symmetry_multiplicity
 _atom_site_fract_x
 _atom_site_fract_y
 _atom_site_fract_z
 _atom_site_occupancy
  Li  Li0  1  0.12412400  0.65898000  0.83105400  1
  Li  Li1  1  0.62412400  0.34102000  0.16894600  1
  V  V0  1  0.01129100  0.25855200  0.25290900  1
  V  V1  1  0.51129100  0.74144800  0.74709100  1
  P  P0  1  0.18910800  0.71449400  0.45691200  1
  P  P1  1  0.68910800  0.28550600  0.54308800  1
  P  P2  1  0.31385500  0.19497200  0.95352000  1
  P  P3  1  0.81385500  0.80502800  0.04648000  1
  O  O0  1  0.13986200  0.96955200  0.32921200  1
  O  O1  1  0.18278600  0.48631100  0.33091400  1
  O  O2  1  0.55370400  0.33152700  0.40184500  1
  O  O3  1  0.88191800  0.24385200  0.47325600  1
  O  O4  1  0.38191800  0.75614800  0.52674400  1
  O  O5  1  0.05370400  0.66847300  0.59815500  1
  O  O6  1  0.63986200  0.03044800  0.67078800  1
  O  O7  1  0.68278600  0.51368900  0.66908600  1
  O  O8  1  0.30997400  0.96130200  0.83494500  1
  O  O9  1  0.36145000  0.45350200  0.82909500  1
  O  O10  1  0.94195800  0.85681700  0.90004100  1
  O  O11  1  0.62180800  0.73033700  0.97650000  1
  O  O12  1  0.12180800  0.26966300  0.02350000  1
  O  O13  1  0.44195800  0.14318300  0.09995900  1
  O  O14  1  0.80997400  0.03869800  0.16505500  1
  O  O15  1  0.86145000  0.54649800  0.17090500  1
loop_
_geom_bond_atom_site_label_1
_geom_bond_atom_site_label_2
_geom_bond_distance
_geom_bond_site_symmetry_2
Li0 O10 1.800183 1_455
Li0 O5 1.859651 1_555
Li0 O9 2.057988 1_555
Li0 O8 2.070493 1_555
Li0 O12 2.349793 1_556
Li1 O13 1.800183 1_555
Li1 O2 1.859651 1_555
Li1 O15 2.057988 1_555
Li1 O14 2.070493 1_555
Li1 O11 2.349793 1_554
O0 P0 1.589496 1_555
O0 V0 1.802481 1_565
O1 P0 1.576787 1_555
O1 V0 1.861495 1_555
O2 P1 1.485369 1_555
O3 P1 1.559176 1_555
O3 V0 1.943488 1_655
O4 P0 1.559176 1_555
O4 V1 1.943488 1_555
O5 P0 1.485369 1_555
O6 P1 1.589496 1_555
O6 V1 1.802481 1_545
O7 P1 1.576787 1_555
O7 V1 1.861495 1_555
O8 P2 1.560548 1_565
O8 V1 2.025670 1_555
O9 P2 1.586720 1_555
O9 V1 1.898936 1_555
O10 P3 1.480994 1_556
O11 P3 1.591107 1_556
O11 V1 1.940906 1_555
O12 P2 1.591107 1_554
O12 V0 1.940906 1_555
O13 P2 1.480994 1_554
O14 P3 1.560548 1_545
O14 V0 2.025670 1_655
O15 P3 1.586720 1_555
O15 V0 1.898936 1_655
