# generated using pymatgen
data_GaH18C3(N3F2)3
_symmetry_space_group_name_H-M   'P 1'
_cell_length_a   14.22982665
_cell_length_b   14.22982665
_cell_length_c   14.22982665
_cell_angle_alpha   90.00000000
_cell_angle_beta   90.00000000
_cell_angle_gamma   90.00000000
_symmetry_Int_Tables_number   1
_chemical_formula_structural   GaH18C3(N3F2)3
_chemical_formula_sum   'Ga8 H144 C24 N72 F48'
_cell_volume   2881.36866185
_cell_formula_units_Z   8
loop_
 _symmetry_equiv_pos_site_id
 _symmetry_equiv_pos_as_xyz
  1  'x, y, z'
loop_
 _atom_site_type_symbol
 _atom_site_label
 _atom_site_symmetry_multiplicity
 _atom_site_fract_x
 _atom_site_fract_y
 _atom_site_fract_z
 _atom_site_occupancy
  H  H0  1  0.89733247  0.81427607  0.53030212  1
  H  H1  1  0.53030212  0.89733247  0.81427607  1
  H  H2  1  0.81427607  0.53030212  0.89733247  1
  H  H3  1  0.68572393  0.46969788  0.39733247  1
  H  H4  1  0.03030212  0.60266753  0.18572393  1
  H  H5  1  0.18572393  0.03030212  0.60266753  1
  H  H6  1  0.96969788  0.10266753  0.31427607  1
  H  H7  1  0.46969788  0.39733247  0.68572393  1
  H  H8  1  0.31427607  0.96969788  0.10266753  1
  H  H9  1  0.39733247  0.68572393  0.46969788  1
  H  H10  1  0.10266753  0.31427607  0.96969788  1
  H  H11  1  0.60266753  0.18572393  0.03030212  1
  H  H12  1  0.10266753  0.18572393  0.46969788  1
  H  H13  1  0.46969788  0.10266753  0.18572393  1
  H  H14  1  0.18572393  0.46969788  0.10266753  1
  H  H15  1  0.31427607  0.53030212  0.60266753  1
  H  H16  1  0.96969788  0.39733247  0.81427607  1
  H  H17  1  0.81427607  0.96969788  0.39733247  1
  H  H18  1  0.03030212  0.89733247  0.68572393  1
  H  H19  1  0.53030212  0.60266753  0.31427607  1
  H  H20  1  0.68572393  0.03030212  0.89733247  1
  H  H21  1  0.60266753  0.31427607  0.53030212  1
  H  H22  1  0.89733247  0.68572393  0.03030212  1
  H  H23  1  0.39733247  0.81427607  0.96969788  1
  H  H24  1  0.89868296  0.69303115  0.51227981  1
  H  H25  1  0.51227981  0.89868296  0.69303115  1
  H  H26  1  0.69303115  0.51227981  0.89868296  1
  H  H27  1  0.80696885  0.48772019  0.39868296  1
  H  H28  1  0.01227981  0.60131704  0.30696885  1
  H  H29  1  0.30696885  0.01227981  0.60131704  1
  H  H30  1  0.98772019  0.10131704  0.19303115  1
  H  H31  1  0.48772019  0.39868296  0.80696885  1
  H  H32  1  0.19303115  0.98772019  0.10131704  1
  H  H33  1  0.39868296  0.80696885  0.48772019  1
  H  H34  1  0.10131704  0.19303115  0.98772019  1
  H  H35  1  0.60131704  0.30696885  0.01227981  1
  H  H36  1  0.10131704  0.30696885  0.48772019  1
  H  H37  1  0.48772019  0.10131704  0.30696885  1
  H  H38  1  0.30696885  0.48772019  0.10131704  1
  H  H39  1  0.19303115  0.51227981  0.60131704  1
  H  H40  1  0.98772019  0.39868296  0.69303115  1
  H  H41  1  0.69303115  0.98772019  0.39868296  1
  H  H42  1  0.01227981  0.89868296  0.80696885  1
  H  H43  1  0.51227981  0.60131704  0.19303115  1
  H  H44  1  0.80696885  0.01227981  0.89868296  1
  H  H45  1  0.60131704  0.19303115  0.51227981  1
  H  H46  1  0.89868296  0.80696885  0.01227981  1
  H  H47  1  0.39868296  0.69303115  0.98772019  1
  H  H48  1  0.64883993  0.83690212  0.53635726  1
  H  H49  1  0.53635726  0.64883993  0.83690212  1
  H  H50  1  0.83690212  0.53635726  0.64883993  1
  H  H51  1  0.66309788  0.46364274  0.14883993  1
  H  H52  1  0.03635726  0.85116007  0.16309788  1
  H  H53  1  0.16309788  0.03635726  0.85116007  1
  H  H54  1  0.96364274  0.35116007  0.33690212  1
  H  H55  1  0.46364274  0.14883993  0.66309788  1
  H  H56  1  0.33690212  0.96364274  0.35116007  1
  H  H57  1  0.14883993  0.66309788  0.46364274  1
  H  H58  1  0.35116007  0.33690212  0.96364274  1
  H  H59  1  0.85116007  0.16309788  0.03635726  1
  H  H60  1  0.35116007  0.16309788  0.46364274  1
  H  H61  1  0.46364274  0.35116007  0.16309788  1
  H  H62  1  0.16309788  0.46364274  0.35116007  1
  H  H63  1  0.33690212  0.53635726  0.85116007  1
  H  H64  1  0.96364274  0.14883993  0.83690212  1
  H  H65  1  0.83690212  0.96364274  0.14883993  1
  H  H66  1  0.03635726  0.64883993  0.66309788  1
  H  H67  1  0.53635726  0.85116007  0.33690212  1
  H  H68  1  0.66309788  0.03635726  0.64883993  1
  H  H69  1  0.85116007  0.33690212  0.53635726  1
  H  H70  1  0.64883993  0.66309788  0.03635726  1
  H  H71  1  0.14883993  0.83690212  0.96364274  1
  H  H72  1  0.75848717  0.89216543  0.54187395  1
  H  H73  1  0.54187395  0.75848717  0.89216543  1
  H  H74  1  0.89216543  0.54187395  0.75848717  1
  H  H75  1  0.60783457  0.45812605  0.25848717  1
  H  H76  1  0.04187395  0.74151283  0.10783457  1
  H  H77  1  0.10783457  0.04187395  0.74151283  1
  H  H78  1  0.95812605  0.24151283  0.39216543  1
  H  H79  1  0.45812605  0.25848717  0.60783457  1
  H  H80  1  0.39216543  0.95812605  0.24151283  1
  H  H81  1  0.25848717  0.60783457  0.45812605  1
  H  H82  1  0.24151283  0.39216543  0.95812605  1
  H  H83  1  0.74151283  0.10783457  0.04187395  1
  H  H84  1  0.24151283  0.10783457  0.45812605  1
  H  H85  1  0.45812605  0.24151283  0.10783457  1
  H  H86  1  0.10783457  0.45812605  0.24151283  1
  H  H87  1  0.39216543  0.54187395  0.74151283  1
  H  H88  1  0.95812605  0.25848717  0.89216543  1
  H  H89  1  0.89216543  0.95812605  0.25848717  1
  H  H90  1  0.04187395  0.75848717  0.60783457  1
  H  H91  1  0.54187395  0.74151283  0.39216543  1
  H  H92  1  0.60783457  0.04187395  0.75848717  1
  H  H93  1  0.74151283  0.39216543  0.54187395  1
  H  H94  1  0.75848717  0.60783457  0.04187395  1
  H  H95  1  0.25848717  0.89216543  0.95812605  1
  H  H96  1  0.65088221  0.66356058  0.50938612  1
  H  H97  1  0.50938612  0.65088221  0.66356058  1
  H  H98  1  0.66356058  0.50938612  0.65088221  1
  H  H99  1  0.83643942  0.49061388  0.15088221  1
  H  H100  1  0.00938612  0.84911779  0.33643942  1
  H  H101  1  0.33643942  0.00938612  0.84911779  1
  H  H102  1  0.99061388  0.34911779  0.16356058  1
  H  H103  1  0.49061388  0.15088221  0.83643942  1
  H  H104  1  0.16356058  0.99061388  0.34911779  1
  H  H105  1  0.15088221  0.83643942  0.49061388  1
  H  H106  1  0.34911779  0.16356058  0.99061388  1
  H  H107  1  0.84911779  0.33643942  0.00938612  1
  H  H108  1  0.34911779  0.33643942  0.49061388  1
  H  H109  1  0.49061388  0.34911779  0.33643942  1
  H  H110  1  0.33643942  0.49061388  0.34911779  1
  H  H111  1  0.16356058  0.50938612  0.84911779  1
  H  H112  1  0.99061388  0.15088221  0.66356058  1
  H  H113  1  0.66356058  0.99061388  0.15088221  1
  H  H114  1  0.00938612  0.65088221  0.83643942  1
  H  H115  1  0.50938612  0.84911779  0.16356058  1
  H  H116  1  0.83643942  0.00938612  0.65088221  1
  H  H117  1  0.84911779  0.16356058  0.50938612  1
  H  H118  1  0.65088221  0.83643942  0.00938612  1
  H  H119  1  0.15088221  0.66356058  0.99061388  1
  H  H120  1  0.76212550  0.61063532  0.50694352  1
  H  H121  1  0.50694352  0.76212550  0.61063532  1
  H  H122  1  0.61063532  0.50694352  0.76212550  1
  H  H123  1  0.88936468  0.49305648  0.26212550  1
  H  H124  1  0.00694352  0.73787450  0.38936468  1
  H  H125  1  0.38936468  0.00694352  0.73787450  1
  H  H126  1  0.99305648  0.23787450  0.11063532  1
  H  H127  1  0.49305648  0.26212550  0.88936468  1
  H  H128  1  0.11063532  0.99305648  0.23787450  1
  H  H129  1  0.26212550  0.88936468  0.49305648  1
  H  H130  1  0.23787450  0.11063532  0.99305648  1
  H  H131  1  0.73787450  0.38936468  0.00694352  1
  H  H132  1  0.23787450  0.38936468  0.49305648  1
  H  H133  1  0.49305648  0.23787450  0.38936468  1
  H  H134  1  0.38936468  0.49305648  0.23787450  1
  H  H135  1  0.11063532  0.50694352  0.73787450  1
  H  H136  1  0.99305648  0.26212550  0.61063532  1
  H  H137  1  0.61063532  0.99305648  0.26212550  1
  H  H138  1  0.00694352  0.76212550  0.88936468  1
  H  H139  1  0.50694352  0.73787450  0.11063532  1
  H  H140  1  0.88936468  0.00694352  0.76212550  1
  H  H141  1  0.73787450  0.11063532  0.50694352  1
  H  H142  1  0.76212550  0.88936468  0.00694352  1
  H  H143  1  0.26212550  0.61063532  0.99305648  1
  C  C0  1  0.76701876  0.75136026  0.52659016  1
  C  C1  1  0.52659016  0.76701876  0.75136026  1
  C  C2  1  0.75136026  0.52659016  0.76701876  1
  C  C3  1  0.74863974  0.47340984  0.26701876  1
  C  C4  1  0.02659016  0.73298124  0.24863974  1
  C  C5  1  0.24863974  0.02659016  0.73298124  1
  C  C6  1  0.97340984  0.23298124  0.25136026  1
  C  C7  1  0.47340984  0.26701876  0.74863974  1
  C  C8  1  0.25136026  0.97340984  0.23298124  1
  C  C9  1  0.26701876  0.74863974  0.47340984  1
  C  C10  1  0.23298124  0.25136026  0.97340984  1
  C  C11  1  0.73298124  0.24863974  0.02659016  1
  C  C12  1  0.23298124  0.24863974  0.47340984  1
  C  C13  1  0.47340984  0.23298124  0.24863974  1
  C  C14  1  0.24863974  0.47340984  0.23298124  1
  C  C15  1  0.25136026  0.52659016  0.73298124  1
  C  C16  1  0.97340984  0.26701876  0.75136026  1
  C  C17  1  0.75136026  0.97340984  0.26701876  1
  C  C18  1  0.02659016  0.76701876  0.74863974  1
  C  C19  1  0.52659016  0.73298124  0.25136026  1
  C  C20  1  0.74863974  0.02659016  0.76701876  1
  C  C21  1  0.73298124  0.25136026  0.52659016  1
  C  C22  1  0.76701876  0.74863974  0.02659016  1
  C  C23  1  0.26701876  0.75136026  0.97340984  1
  N  N0  1  0.86110640  0.75279437  0.52433896  1
  N  N1  1  0.52433896  0.86110640  0.75279437  1
  N  N2  1  0.75279437  0.52433896  0.86110640  1
  N  N3  1  0.74720563  0.47566104  0.36110640  1
  N  N4  1  0.02433896  0.63889360  0.24720563  1
  N  N5  1  0.24720563  0.02433896  0.63889360  1
  N  N6  1  0.97566104  0.13889360  0.25279437  1
  N  N7  1  0.47566104  0.36110640  0.74720563  1
  N  N8  1  0.25279437  0.97566104  0.13889360  1
  N  N9  1  0.36110640  0.74720563  0.47566104  1
  N  N10  1  0.13889360  0.25279437  0.97566104  1
  N  N11  1  0.63889360  0.24720563  0.02433896  1
  N  N12  1  0.13889360  0.24720563  0.47566104  1
  N  N13  1  0.47566104  0.13889360  0.24720563  1
  N  N14  1  0.24720563  0.47566104  0.13889360  1
  N  N15  1  0.25279437  0.52433896  0.63889360  1
  N  N16  1  0.97566104  0.36110640  0.75279437  1
  N  N17  1  0.75279437  0.97566104  0.36110640  1
  N  N18  1  0.02433896  0.86110640  0.74720563  1
  N  N19  1  0.52433896  0.63889360  0.25279437  1
  N  N20  1  0.74720563  0.02433896  0.86110640  1
  N  N21  1  0.63889360  0.25279437  0.52433896  1
  N  N22  1  0.86110640  0.74720563  0.02433896  1
  N  N23  1  0.36110640  0.75279437  0.97566104  1
  N  N24  1  0.72039077  0.83161207  0.54172386  1
  N  N25  1  0.54172386  0.72039077  0.83161207  1
  N  N26  1  0.83161207  0.54172386  0.72039077  1
  N  N27  1  0.66838793  0.45827614  0.22039077  1
  N  N28  1  0.04172386  0.77960923  0.16838793  1
  N  N29  1  0.16838793  0.04172386  0.77960923  1
  N  N30  1  0.95827614  0.27960923  0.33161207  1
  N  N31  1  0.45827614  0.22039077  0.66838793  1
  N  N32  1  0.33161207  0.95827614  0.27960923  1
  N  N33  1  0.22039077  0.66838793  0.45827614  1
  N  N34  1  0.27960923  0.33161207  0.95827614  1
  N  N35  1  0.77960923  0.16838793  0.04172386  1
  N  N36  1  0.27960923  0.16838793  0.45827614  1
  N  N37  1  0.45827614  0.27960923  0.16838793  1
  N  N38  1  0.16838793  0.45827614  0.27960923  1
  N  N39  1  0.33161207  0.54172386  0.77960923  1
  N  N40  1  0.95827614  0.22039077  0.83161207  1
  N  N41  1  0.83161207  0.95827614  0.22039077  1
  N  N42  1  0.04172386  0.72039077  0.66838793  1
  N  N43  1  0.54172386  0.77960923  0.33161207  1
  N  N44  1  0.66838793  0.04172386  0.72039077  1
  N  N45  1  0.77960923  0.33161207  0.54172386  1
  N  N46  1  0.72039077  0.66838793  0.04172386  1
  N  N47  1  0.22039077  0.83161207  0.95827614  1
  N  N48  1  0.72233503  0.66954772  0.51547758  1
  N  N49  1  0.51547758  0.72233503  0.66954772  1
  N  N50  1  0.66954772  0.51547758  0.72233503  1
  N  N51  1  0.83045228  0.48452242  0.22233503  1
  N  N52  1  0.01547758  0.77766497  0.33045228  1
  N  N53  1  0.33045228  0.01547758  0.77766497  1
  N  N54  1  0.98452242  0.27766497  0.16954772  1
  N  N55  1  0.48452242  0.22233503  0.83045228  1
  N  N56  1  0.16954772  0.98452242  0.27766497  1
  N  N57  1  0.22233503  0.83045228  0.48452242  1
  N  N58  1  0.27766497  0.16954772  0.98452242  1
  N  N59  1  0.77766497  0.33045228  0.01547758  1
  N  N60  1  0.27766497  0.33045228  0.48452242  1
  N  N61  1  0.48452242  0.27766497  0.33045228  1
  N  N62  1  0.33045228  0.48452242  0.27766497  1
  N  N63  1  0.16954772  0.51547758  0.77766497  1
  N  N64  1  0.98452242  0.22233503  0.66954772  1
  N  N65  1  0.66954772  0.98452242  0.22233503  1
  N  N66  1  0.01547758  0.72233503  0.83045228  1
  N  N67  1  0.51547758  0.77766497  0.16954772  1
  N  N68  1  0.83045228  0.01547758  0.72233503  1
  N  N69  1  0.77766497  0.16954772  0.51547758  1
  N  N70  1  0.72233503  0.83045228  0.01547758  1
  N  N71  1  0.22233503  0.66954772  0.98452242  1
  F  F0  1  0.03042208  0.63032390  0.02613510  1
  F  F1  1  0.02613510  0.03042208  0.63032390  1
  F  F2  1  0.63032390  0.02613510  0.03042208  1
  F  F3  1  0.86967610  0.97386490  0.53042208  1
  F  F4  1  0.52613510  0.46957792  0.36967610  1
  F  F5  1  0.36967610  0.52613510  0.46957792  1
  F  F6  1  0.47386490  0.96957792  0.13032390  1
  F  F7  1  0.97386490  0.53042208  0.86967610  1
  F  F8  1  0.13032390  0.47386490  0.96957792  1
  F  F9  1  0.53042208  0.86967610  0.97386490  1
  F  F10  1  0.96957792  0.13032390  0.47386490  1
  F  F11  1  0.46957792  0.36967610  0.52613510  1
  F  F12  1  0.96957792  0.36967610  0.97386490  1
  F  F13  1  0.97386490  0.96957792  0.36967610  1
  F  F14  1  0.36967610  0.97386490  0.96957792  1
  F  F15  1  0.13032390  0.02613510  0.46957792  1
  F  F16  1  0.47386490  0.53042208  0.63032390  1
  F  F17  1  0.63032390  0.47386490  0.53042208  1
  F  F18  1  0.52613510  0.03042208  0.86967610  1
  F  F19  1  0.02613510  0.46957792  0.13032390  1
  F  F20  1  0.86967610  0.52613510  0.03042208  1
  F  F21  1  0.46957792  0.13032390  0.02613510  1
  F  F22  1  0.03042208  0.86967610  0.52613510  1
  F  F23  1  0.53042208  0.63032390  0.47386490  1
  F  F24  1  0.02145330  0.63186288  0.47257929  1
  F  F25  1  0.47257929  0.02145330  0.63186288  1
  F  F26  1  0.63186288  0.47257929  0.02145330  1
  F  F27  1  0.86813712  0.52742071  0.52145330  1
  F  F28  1  0.97257929  0.47854670  0.36813712  1
  F  F29  1  0.36813712  0.97257929  0.47854670  1
  F  F30  1  0.02742071  0.97854670  0.13186288  1
  F  F31  1  0.52742071  0.52145330  0.86813712  1
  F  F32  1  0.13186288  0.02742071  0.97854670  1
  F  F33  1  0.52145330  0.86813712  0.52742071  1
  F  F34  1  0.97854670  0.13186288  0.02742071  1
  F  F35  1  0.47854670  0.36813712  0.97257929  1
  F  F36  1  0.97854670  0.36813712  0.52742071  1
  F  F37  1  0.52742071  0.97854670  0.36813712  1
  F  F38  1  0.36813712  0.52742071  0.97854670  1
  F  F39  1  0.13186288  0.47257929  0.47854670  1
  F  F40  1  0.02742071  0.52145330  0.63186288  1
  F  F41  1  0.63186288  0.02742071  0.52145330  1
  F  F42  1  0.97257929  0.02145330  0.86813712  1
  F  F43  1  0.47257929  0.47854670  0.13186288  1
  F  F44  1  0.86813712  0.97257929  0.02145330  1
  F  F45  1  0.47854670  0.13186288  0.47257929  1
  F  F46  1  0.02145330  0.86813712  0.97257929  1
  F  F47  1  0.52145330  0.63186288  0.02742071  1
  Ga  Ga0  1  0.00000000  0.50000000  0.00000000  1
  Ga  Ga1  1  0.00000000  0.00000000  0.50000000  1
  Ga  Ga2  1  0.50000000  0.00000000  0.00000000  1
  Ga  Ga3  1  0.50000000  0.50000000  0.50000000  1
  Ga  Ga4  1  0.00000000  0.50000000  0.50000000  1
  Ga  Ga5  1  0.50000000  0.00000000  0.50000000  1
  Ga  Ga6  1  0.50000000  0.50000000  0.00000000  1
  Ga  Ga7  1  0.00000000  0.00000000  0.00000000  1
loop_
_geom_bond_atom_site_label_1
_geom_bond_atom_site_label_2
_geom_bond_distance
_geom_bond_site_symmetry_2
H0 N0 1.018987 1_555
H1 N1 1.018987 1_555
H2 N2 1.018987 1_555
H3 N3 1.018987 1_555
H4 N4 1.018987 1_555
H5 N5 1.018987 1_555
H6 N6 1.018987 1_555
H7 N7 1.018987 1_555
H8 N8 1.018987 1_555
H9 N9 1.018987 1_555
H10 N10 1.018987 1_555
H11 N11 1.018987 1_555
H12 N12 1.018987 1_555
H13 N13 1.018987 1_555
H14 N14 1.018987 1_555
H15 N15 1.018987 1_555
H16 N16 1.018987 1_555
H17 N17 1.018987 1_555
H18 N18 1.018987 1_555
H19 N19 1.018987 1_555
H20 N20 1.018987 1_555
H21 N21 1.018987 1_555
H22 N22 1.018987 1_555
H23 N23 1.018987 1_555
H24 N0 1.019104 1_555
H25 N1 1.019104 1_555
H26 N2 1.019104 1_555
H27 N3 1.019104 1_555
H28 N4 1.019104 1_555
H29 N5 1.019104 1_555
H30 N6 1.019104 1_555
H31 N7 1.019104 1_555
H32 N8 1.019104 1_555
H33 N9 1.019104 1_555
H34 N10 1.019104 1_555
H35 N11 1.019104 1_555
H36 N12 1.019104 1_555
H37 N13 1.019104 1_555
H38 N14 1.019104 1_555
H39 N15 1.019104 1_555
H40 N16 1.019104 1_555
H41 N17 1.019104 1_555
H42 N18 1.019104 1_555
H43 N19 1.019104 1_555
H44 N20 1.019104 1_555
H45 N21 1.019104 1_555
H46 N22 1.019104 1_555
H47 N23 1.019104 1_555
H48 N24 1.023787 1_555
H49 N25 1.023787 1_555
H50 N26 1.023787 1_555
H51 N27 1.023787 1_555
H52 N28 1.023787 1_555
H53 N29 1.023787 1_555
H54 N30 1.023787 1_555
H55 N31 1.023787 1_555
H56 N32 1.023787 1_555
H57 N33 1.023787 1_555
H58 N34 1.023787 1_555
H59 N35 1.023787 1_555
H60 N36 1.023787 1_555
H61 N37 1.023787 1_555
H62 N38 1.023787 1_555
H63 N39 1.023787 1_555
H64 N40 1.023787 1_555
H65 N41 1.023787 1_555
H66 N42 1.023787 1_555
H67 N43 1.023787 1_555
H68 N44 1.023787 1_555
H69 N45 1.023787 1_555
H70 N46 1.023787 1_555
H71 N47 1.023787 1_555
H72 N24 1.018011 1_555
H73 N25 1.018011 1_555
H74 N26 1.018011 1_555
H75 N27 1.018011 1_555
H76 N28 1.018011 1_555
H77 N29 1.018011 1_555
H78 N30 1.018011 1_555
H79 N31 1.018011 1_555
H80 N32 1.018011 1_555
H81 N33 1.018011 1_555
H82 N34 1.018011 1_555
H83 N35 1.018011 1_555
H84 N36 1.018011 1_555
H85 N37 1.018011 1_555
H86 N38 1.018011 1_555
H87 N39 1.018011 1_555
H88 N40 1.018011 1_555
H89 N41 1.018011 1_555
H90 N42 1.018011 1_555
H91 N43 1.018011 1_555
H92 N44 1.018011 1_555
H93 N45 1.018011 1_555
H94 N46 1.018011 1_555
H95 N47 1.018011 1_555
H96 N48 1.024000 1_555
H97 N49 1.024000 1_555
H98 N50 1.024000 1_555
H99 N51 1.024000 1_555
H100 N52 1.024000 1_555
H101 N53 1.024000 1_555
H102 N54 1.024000 1_555
H103 N55 1.024000 1_555
H104 N56 1.024000 1_555
H105 N57 1.024000 1_555
H106 N58 1.024000 1_555
H107 N59 1.024000 1_555
H108 N60 1.024000 1_555
H109 N61 1.024000 1_555
H110 N62 1.024000 1_555
H111 N63 1.024000 1_555
H112 N64 1.024000 1_555
H113 N65 1.024000 1_555
H114 N66 1.024000 1_555
H115 N67 1.024000 1_555
H116 N68 1.024000 1_555
H117 N69 1.024000 1_555
H118 N70 1.024000 1_555
H119 N71 1.024000 1_555
H120 N48 1.018878 1_555
H121 N49 1.018878 1_555
H122 N50 1.018878 1_555
H123 N51 1.018878 1_555
H124 N52 1.018878 1_555
H125 N53 1.018878 1_555
H126 N54 1.018878 1_555
H127 N55 1.018878 1_555
H128 N56 1.018878 1_555
H129 N57 1.018878 1_555
H130 N58 1.018878 1_555
H131 N59 1.018878 1_555
H132 N60 1.018878 1_555
H133 N61 1.018878 1_555
H134 N62 1.018878 1_555
H135 N63 1.018878 1_555
H136 N64 1.018878 1_555
H137 N65 1.018878 1_555
H138 N66 1.018878 1_555
H139 N67 1.018878 1_555
H140 N68 1.018878 1_555
H141 N69 1.018878 1_555
H142 N70 1.018878 1_555
H143 N71 1.018878 1_555
C0 N48 1.335893 1_555
C0 N24 1.338175 1_555
C0 N0 1.339389 1_555
C1 N49 1.335893 1_555
C1 N25 1.338175 1_555
C1 N1 1.339389 1_555
C2 N50 1.335893 1_555
C2 N26 1.338175 1_555
C2 N2 1.339389 1_555
C3 N51 1.335893 1_555
C3 N27 1.338175 1_555
C3 N3 1.339389 1_555
C4 N52 1.335893 1_555
C4 N28 1.338175 1_555
C4 N4 1.339389 1_555
C5 N53 1.335893 1_555
C5 N29 1.338175 1_555
C5 N5 1.339389 1_555
C6 N54 1.335893 1_555
C6 N30 1.338175 1_555
C6 N6 1.339389 1_555
C7 N55 1.335893 1_555
C7 N31 1.338175 1_555
C7 N7 1.339389 1_555
C8 N56 1.335893 1_555
C8 N32 1.338175 1_555
C8 N8 1.339389 1_555
C9 N57 1.335893 1_555
C9 N33 1.338175 1_555
C9 N9 1.339389 1_555
C10 N58 1.335893 1_555
C10 N34 1.338175 1_555
C10 N10 1.339389 1_555
C11 N59 1.335893 1_555
C11 N35 1.338175 1_555
C11 N11 1.339389 1_555
C12 N60 1.335893 1_555
C12 N36 1.338175 1_555
C12 N12 1.339389 1_555
C13 N61 1.335893 1_555
C13 N37 1.338175 1_555
C13 N13 1.339389 1_555
C14 N62 1.335893 1_555
C14 N38 1.338175 1_555
C14 N14 1.339389 1_555
C15 N63 1.335893 1_555
C15 N39 1.338175 1_555
C15 N15 1.339389 1_555
C16 N64 1.335893 1_555
C16 N40 1.338175 1_555
C16 N16 1.339389 1_555
C17 N65 1.335893 1_555
C17 N41 1.338175 1_555
C17 N17 1.339389 1_555
C18 N66 1.335893 1_555
C18 N42 1.338175 1_555
C18 N18 1.339389 1_555
C19 N67 1.335893 1_555
C19 N43 1.338175 1_555
C19 N19 1.339389 1_555
C20 N68 1.335893 1_555
C20 N44 1.338175 1_555
C20 N20 1.339389 1_555
C21 N69 1.335893 1_555
C21 N45 1.338175 1_555
C21 N21 1.339389 1_555
C22 N70 1.335893 1_555
C22 N46 1.338175 1_555
C22 N22 1.339389 1_555
C23 N71 1.335893 1_555
C23 N47 1.338175 1_555
C23 N23 1.339389 1_555
F0 Ga0 1.940317 1_555
F1 Ga1 1.940317 1_555
F2 Ga2 1.940317 1_555
F3 Ga1 1.940317 1_665
F4 Ga3 1.940317 1_555
F5 Ga3 1.940317 1_555
F6 Ga2 1.940317 1_565
F7 Ga0 1.940317 1_656
F8 Ga0 1.940317 1_556
F9 Ga2 1.940317 1_566
F10 Ga1 1.940317 1_655
F11 Ga3 1.940317 1_555
F12 Ga0 1.940317 1_656
F13 Ga1 1.940317 1_665
F14 Ga2 1.940317 1_566
F15 Ga1 1.940317 1_555
F16 Ga3 1.940317 1_555
F17 Ga3 1.940317 1_555
F18 Ga2 1.940317 1_556
F19 Ga0 1.940317 1_555
F20 Ga0 1.940317 1_655
F21 Ga2 1.940317 1_555
F22 Ga1 1.940317 1_565
F23 Ga3 1.940317 1_555
F24 Ga4 1.940687 1_555
F25 Ga5 1.940687 1_555
F26 Ga6 1.940687 1_555
F27 Ga4 1.940687 1_655
F28 Ga4 1.940687 1_655
F29 Ga5 1.940687 1_565
F30 Ga7 1.940687 1_565
F31 Ga6 1.940687 1_556
F32 Ga7 1.940687 1_556
F33 Ga5 1.940687 1_565
F34 Ga7 1.940687 1_655
F35 Ga6 1.940687 1_556
F36 Ga4 1.940687 1_655
F37 Ga5 1.940687 1_565
F38 Ga6 1.940687 1_556
F39 Ga4 1.940687 1_555
F40 Ga4 1.940687 1_555
F41 Ga5 1.940687 1_555
F42 Ga7 1.940687 1_656
F43 Ga6 1.940687 1_555
F44 Ga7 1.940687 1_665
F45 Ga5 1.940687 1_555
F46 Ga7 1.940687 1_566
F47 Ga6 1.940687 1_555
