# generated using pymatgen
data_Na2Zn3Sn(SO4)6
_symmetry_space_group_name_H-M   'P 1'
_cell_length_a   8.70669687
_cell_length_b   8.70669659
_cell_length_c   22.78303290
_cell_angle_alpha   90.00000000
_cell_angle_beta   90.00000000
_cell_angle_gamma   120.00000109
_symmetry_Int_Tables_number   1
_chemical_formula_structural   Na2Zn3Sn(SO4)6
_chemical_formula_sum   'Na6 Zn9 Sn3 S18 O72'
_cell_volume   1495.71551747
_cell_formula_units_Z   3
loop_
 _symmetry_equiv_pos_site_id
 _symmetry_equiv_pos_as_xyz
  1  'x, y, z'
loop_
 _atom_site_type_symbol
 _atom_site_label
 _atom_site_symmetry_multiplicity
 _atom_site_fract_x
 _atom_site_fract_y
 _atom_site_fract_z
 _atom_site_occupancy
  Na  Na0  1  0.00000000  0.00000000  0.50512136  1
  Na  Na1  1  0.00000000  0.00000000  0.00458386  1
  Na  Na2  1  0.66666700  0.33333300  0.82865616  1
  Na  Na3  1  0.66666700  0.33333300  0.33605943  1
  Na  Na4  1  0.33333300  0.66666700  0.17306047  1
  Na  Na5  1  0.33333300  0.66666700  0.66125992  1
  Zn  Zn0  1  0.00000000  0.00000000  0.64334425  1
  Zn  Zn1  1  0.00000000  0.00000000  0.15245051  1
  Zn  Zn2  1  0.66666700  0.33333300  0.67592064  1
  Zn  Zn3  1  0.66666700  0.33333300  0.18690586  1
  Zn  Zn4  1  0.66666700  0.33333300  0.98588605  1
  Zn  Zn5  1  0.66666700  0.33333300  0.48687531  1
  Zn  Zn6  1  0.33333300  0.66666700  0.51948238  1
  Zn  Zn7  1  0.33333300  0.66666700  0.31966025  1
  Zn  Zn8  1  0.33333300  0.66666700  0.81095164  1
  Sn  Sn0  1  0.00000000  0.00000000  0.35197055  1
  Sn  Sn1  1  0.00000000  0.00000000  0.84610987  1
  Sn  Sn2  1  0.33333300  0.66666700  0.01832934  1
  S  S0  1  0.29396977  0.99882492  0.24864246  1
  S  S1  1  0.70485515  0.70603023  0.24864246  1
  S  S2  1  0.00117508  0.29514485  0.24864246  1
  S  S3  1  0.29655227  0.29565650  0.74849450  1
  S  S4  1  0.99910423  0.70344773  0.74849450  1
  S  S5  1  0.70434350  0.00089577  0.74849450  1
  S  S6  1  0.96076064  0.33430325  0.58331630  1
  S  S7  1  0.37354361  0.03923936  0.58331630  1
  S  S8  1  0.66569675  0.62645639  0.58331630  1
  S  S9  1  0.95667680  0.62659098  0.08281633  1
  S  S10  1  0.66991519  0.04332320  0.08281633  1
  S  S11  1  0.37340902  0.33008481  0.08281633  1
  S  S12  1  0.62666897  0.66520075  0.91511511  1
  S  S13  1  0.03853078  0.37333103  0.91511511  1
  S  S14  1  0.33479925  0.96146922  0.91511511  1
  S  S15  1  0.62355794  0.96028064  0.41611579  1
  S  S16  1  0.33672170  0.37644207  0.41611579  1
  S  S17  1  0.03971936  0.66327830  0.41611579  1
  O  O0  1  0.21492427  0.03266211  0.30326485  1
  O  O1  1  0.81773784  0.78507573  0.30326485  1
  O  O2  1  0.96733789  0.18226216  0.30326485  1
  O  O3  1  0.22240376  0.18666977  0.80667831  1
  O  O4  1  0.96426601  0.77759624  0.80667831  1
  O  O5  1  0.81333023  0.03573399  0.80667831  1
  O  O6  1  0.79220306  0.97164770  0.69913690  1
  O  O7  1  0.17944464  0.20779694  0.69913690  1
  O  O8  1  0.02835230  0.82055536  0.69913690  1
  O  O9  1  0.78717412  0.81639077  0.19634542  1
  O  O10  1  0.02921665  0.21282588  0.19634542  1
  O  O11  1  0.18360923  0.97078335  0.19634542  1
  O  O12  1  0.88383707  0.36310014  0.63759200  1
  O  O13  1  0.47926407  0.11616293  0.63759200  1
  O  O14  1  0.63689986  0.52073593  0.63759200  1
  O  O15  1  0.88243865  0.51745203  0.13535689  1
  O  O16  1  0.63501437  0.11756135  0.13535689  1
  O  O17  1  0.48254797  0.36498563  0.13535689  1
  O  O18  1  0.45151132  0.30802482  0.02828242  1
  O  O19  1  0.85651450  0.54848868  0.02828242  1
  O  O20  1  0.69197518  0.14348550  0.02828242  1
  O  O21  1  0.45251426  0.14769022  0.53017521  1
  O  O22  1  0.69517696  0.54748574  0.53017521  1
  O  O23  1  0.85230978  0.30482304  0.53017521  1
  O  O24  1  0.55278290  0.70256606  0.97049632  1
  O  O25  1  0.14978216  0.44721710  0.97049632  1
  O  O26  1  0.29743394  0.85021784  0.97049632  1
  O  O27  1  0.54956299  0.85078657  0.46862751  1
  O  O28  1  0.30122258  0.45043701  0.46862751  1
  O  O29  1  0.14921343  0.69877742  0.46862751  1
  O  O30  1  0.11799347  0.64133419  0.36159574  1
  O  O31  1  0.52333972  0.88200653  0.36159574  1
  O  O32  1  0.35866581  0.47666028  0.36159574  1
  O  O33  1  0.12394698  0.48235217  0.86382791  1
  O  O34  1  0.35840419  0.87605302  0.86382791  1
  O  O35  1  0.51764783  0.64159581  0.86382791  1
  O  O36  1  0.02324398  0.83220845  0.41049803  1
  O  O37  1  0.80896446  0.97675602  0.41049803  1
  O  O38  1  0.16779155  0.19103554  0.41049803  1
  O  O39  1  0.02330347  0.19173915  0.91114839  1
  O  O40  1  0.16843568  0.97669653  0.91114839  1
  O  O41  1  0.80826085  0.83156432  0.91114839  1
  O  O42  1  0.97762203  0.17280723  0.58921914  1
  O  O43  1  0.19518520  0.02237797  0.58921914  1
  O  O44  1  0.82719277  0.80481480  0.58921914  1
  O  O45  1  0.98231151  0.80680330  0.08823805  1
  O  O46  1  0.82449179  0.01768849  0.08823805  1
  O  O47  1  0.19319670  0.17550821  0.08823805  1
  O  O48  1  0.68849922  0.16087575  0.74524029  1
  O  O49  1  0.47237753  0.31150078  0.74524029  1
  O  O50  1  0.83912425  0.52762247  0.74524029  1
  O  O51  1  0.69098600  0.52984169  0.24395955  1
  O  O52  1  0.83885669  0.30901400  0.24395955  1
  O  O53  1  0.47015831  0.16114331  0.24395955  1
  O  O54  1  0.64675136  0.50911252  0.92343540  1
  O  O55  1  0.86236216  0.35324864  0.92343540  1
  O  O56  1  0.49088748  0.13763784  0.92343540  1
  O  O57  1  0.64936409  0.14041842  0.42162354  1
  O  O58  1  0.49105533  0.35063591  0.42162354  1
  O  O59  1  0.85958158  0.50894467  0.42162354  1
  O  O60  1  0.35672120  0.49896708  0.07722326  1
  O  O61  1  0.14224488  0.64327880  0.07722326  1
  O  O62  1  0.50103292  0.85775512  0.07722326  1
  O  O63  1  0.35543121  0.86062198  0.57765835  1
  O  O64  1  0.50518978  0.64456879  0.57765835  1
  O  O65  1  0.13937802  0.49481022  0.57765835  1
  O  O66  1  0.30925741  0.83884854  0.25621059  1
  O  O67  1  0.52959013  0.69074259  0.25621059  1
  O  O68  1  0.16115146  0.47040987  0.25621059  1
  O  O69  1  0.30798976  0.46921538  0.75745619  1
  O  O70  1  0.16122462  0.69201024  0.75745619  1
  O  O71  1  0.53078462  0.83877538  0.75745619  1
loop_
_geom_bond_atom_site_label_1
_geom_bond_atom_site_label_2
_geom_bond_distance
_geom_bond_site_symmetry_2
Na0 O44 2.503186 1_445
Na0 O42 2.503186 1_455
Na0 O43 2.503186 1_555
Na0 O36 2.668028 1_545
Na0 O38 2.668028 1_555
Na0 O37 2.668028 1_445
Na1 O45 2.495311 1_445
Na1 O47 2.495311 1_555
Na1 O46 2.495311 1_455
Na1 O39 2.649706 1_554
Na1 O41 2.649706 1_444
Na1 O40 2.649706 1_544
Na2 O50 2.487555 1_555
Na2 O48 2.487555 1_555
Na2 O49 2.487555 1_555
Na2 O56 2.701959 1_555
Na2 O54 2.701959 1_555
Na2 O55 2.701959 1_555
Na3 O57 2.528057 1_555
Na3 O59 2.528057 1_555
Na3 O58 2.528057 1_555
Na3 O51 2.648170 1_555
Na3 O53 2.648170 1_555
Na3 O52 2.648170 1_555
Na4 O68 2.488851 1_555
Na4 O66 2.488851 1_555
Na4 O67 2.488851 1_555
Na4 O62 2.690396 1_555
Na4 O60 2.690396 1_555
Na4 O61 2.690396 1_555
Na5 O63 2.488315 1_555
Na5 O65 2.488315 1_555
Na5 O64 2.488315 1_555
Na5 O69 2.725459 1_555
Na5 O71 2.725459 1_555
Na5 O70 2.725459 1_555
O0 S0 1.520492 1_545
O0 Sn0 2.069242 1_555
O1 S1 1.520492 1_555
O1 Sn0 2.069242 1_665
O2 S2 1.520492 1_655
O2 Sn0 2.069242 1_655
O3 S3 1.569025 1_555
O3 Sn1 2.012724 1_555
O4 S4 1.569025 1_555
O4 Sn1 2.012724 1_665
O5 S5 1.569025 1_555
O5 Sn1 2.012724 1_655
O6 S5 1.452364 1_565
O6 Zn0 2.122116 1_665
O7 S3 1.452364 1_555
O7 Zn0 2.122116 1_555
O8 S4 1.452364 1_455
O8 Zn0 2.122116 1_565
O9 S1 1.472389 1_555
O9 Zn1 2.006765 1_665
O10 S2 1.472389 1_555
O10 Zn1 2.006765 1_555
O11 S0 1.472390 1_555
O11 Zn1 2.006765 1_565
O12 S6 1.486084 1_555
O12 Zn2 1.978616 1_555
O13 S7 1.486084 1_555
O13 Zn2 1.978616 1_555
O14 S8 1.486084 1_555
O14 Zn2 1.978616 1_555
O15 S9 1.462680 1_555
O15 Zn3 2.113500 1_555
O16 S10 1.462680 1_555
O16 Zn3 2.113500 1_555
O17 S11 1.462680 1_555
O17 Zn3 2.113500 1_555
O18 S11 1.474312 1_555
O18 Zn4 2.019407 1_554
O19 S9 1.474312 1_555
O19 Zn4 2.019407 1_554
O20 S10 1.474312 1_555
O20 Zn4 2.019407 1_554
O21 S7 1.476805 1_555
O21 Zn5 2.012104 1_555
O22 S8 1.476805 1_555
O22 Zn5 2.012104 1_555
O23 S6 1.476805 1_555
O23 Zn5 2.012104 1_555
O24 S12 1.523477 1_555
O24 Sn2 2.082984 1_556
O25 S13 1.523477 1_555
O25 Sn2 2.082984 1_556
O26 S14 1.523477 1_555
O26 Sn2 2.082984 1_556
O27 S15 1.463227 1_555
O27 Zn6 2.106800 1_555
O28 S16 1.463227 1_555
O28 Zn6 2.106800 1_555
O29 S17 1.463227 1_555
O29 Zn6 2.106800 1_555
O30 S17 1.474470 1_555
O30 Zn7 2.015731 1_555
O31 S15 1.474470 1_555
O31 Zn7 2.015731 1_555
O32 S16 1.474469 1_555
O32 Zn7 2.015731 1_555
O33 S13 1.453789 1_555
O33 Zn8 2.103451 1_555
O34 S14 1.453789 1_555
O34 Zn8 2.103451 1_555
O35 S12 1.453789 1_555
O35 Zn8 2.103451 1_555
O36 S17 1.552825 1_555
O36 Sn0 2.061290 1_565
O37 S15 1.552833 1_555
O37 Sn0 2.061290 1_665
O38 S16 1.552829 1_555
O38 Sn0 2.061290 1_555
O39 S13 1.521807 1_555
O39 Sn1 2.164498 1_555
O40 S14 1.521798 1_555
O40 Sn1 2.164498 1_565
O41 S12 1.521803 1_555
O41 Sn1 2.164498 1_665
O42 S6 1.491030 1_555
O42 Zn0 2.028668 1_655
O43 S7 1.491039 1_555
O43 Zn0 2.028668 1_555
O44 S8 1.491035 1_555
O44 Zn0 2.028668 1_665
O45 S9 1.475399 1_555
O45 Zn1 2.175862 1_665
O46 S10 1.475390 1_555
O46 Zn1 2.175862 1_655
O47 S11 1.475395 1_555
O47 Zn1 2.175862 1_555
O48 S5 1.468619 1_555
O48 Zn2 2.251751 1_555
O49 S3 1.468628 1_555
O49 Zn2 2.251751 1_555
O50 S4 1.468624 1_555
O50 Zn2 2.251751 1_555
O51 S1 1.481196 1_555
O51 Zn3 2.073526 1_555
O52 S2 1.481188 1_655
O52 Zn3 2.073526 1_555
O53 S0 1.481193 1_545
O53 Zn3 2.073526 1_555
O54 S12 1.466645 1_555
O54 Zn4 2.159203 1_555
O55 S13 1.466628 1_655
O55 Zn4 2.159203 1_555
O56 S14 1.466635 1_545
O56 Zn4 2.159203 1_555
O57 S15 1.474356 1_545
O57 Zn5 2.191108 1_555
O58 S16 1.474373 1_555
O58 Zn5 2.191108 1_555
O59 S17 1.474362 1_655
O59 Zn5 2.191108 1_555
O60 S11 1.553412 1_555
O60 Sn2 2.066665 1_555
O61 S9 1.553394 1_455
O61 Sn2 2.066665 1_555
O62 S10 1.553402 1_565
O62 Sn2 2.066665 1_555
O63 S7 1.488215 1_565
O63 Zn6 2.078603 1_555
O64 S8 1.488232 1_555
O64 Zn6 2.078603 1_555
O65 S6 1.488222 1_455
O65 Zn6 2.078603 1_555
O66 S0 1.474083 1_555
O66 Zn7 2.166858 1_555
O67 S1 1.474091 1_555
O67 Zn7 2.166858 1_555
O68 S2 1.474088 1_555
O68 Zn7 2.166858 1_555
O69 S3 1.478046 1_555
O69 Zn8 2.027381 1_555
O70 S4 1.478037 1_455
O70 Zn8 2.027381 1_555
O71 S5 1.478042 1_565
O71 Zn8 2.027381 1_555
