# generated using pymatgen
data_Na3Mg2In2PS5O24
_symmetry_space_group_name_H-M   'P 1'
_cell_length_a   8.79544051
_cell_length_b   8.79372036
_cell_length_c   23.00230497
_cell_angle_alpha   90.08768555
_cell_angle_beta   89.94631062
_cell_angle_gamma   119.96632456
_symmetry_Int_Tables_number   1
_chemical_formula_structural   Na3Mg2In2PS5O24
_chemical_formula_sum   'Na9 Mg6 In6 P3 S15 O72'
_cell_volume   1541.27093861
_cell_formula_units_Z   3
loop_
 _symmetry_equiv_pos_site_id
 _symmetry_equiv_pos_as_xyz
  1  'x, y, z'
loop_
 _atom_site_type_symbol
 _atom_site_label
 _atom_site_symmetry_multiplicity
 _atom_site_fract_x
 _atom_site_fract_y
 _atom_site_fract_z
 _atom_site_occupancy
  Na  Na0  1  0.36816189  0.99576327  0.74918311  1
  Na  Na1  1  0.66024070  0.96945726  0.58856966  1
  Na  Na2  1  0.67317088  0.69477066  0.08142166  1
  Na  Na3  1  0.02847057  0.00334713  0.50367367  1
  Na  Na4  1  0.01495151  0.00271166  0.00279300  1
  Na  Na5  1  0.68267933  0.33809454  0.83346155  1
  Na  Na6  1  0.66674982  0.33337484  0.33308994  1
  Na  Na7  1  0.30421096  0.66280025  0.16651178  1
  Na  Na8  1  0.33021801  0.65848128  0.66665455  1
  Mg  Mg0  1  0.00318484  0.00015747  0.65094506  1
  Mg  Mg1  1  0.00852787  0.99977545  0.15085851  1
  Mg  Mg2  1  0.31734188  0.66676897  0.01643841  1
  Mg  Mg3  1  0.32711878  0.66935737  0.51570376  1
  Mg  Mg4  1  0.33174204  0.66611956  0.31566892  1
  Mg  Mg5  1  0.34335174  0.66769374  0.81564511  1
  In  In0  1  0.00235473  0.00017587  0.35073213  1
  In  In1  1  0.98946416  -0.00000058  0.85057390  1
  In  In2  1  0.67008830  0.33111741  0.68055906  1
  In  In3  1  0.67383787  0.33518158  0.18233899  1
  In  In4  1  0.67336787  0.33683538  0.98311341  1
  In  In5  1  0.65656888  0.32883788  0.48222426  1
  P  P0  1  0.69903792  0.99687801  0.74709551  1
  P  P1  1  0.35904656  0.02656566  0.58373439  1
  P  P2  1  0.96984858  0.63865251  0.08408372  1
  S  S0  1  0.29920315  0.99907788  0.24939817  1
  S  S1  1  0.69848738  0.70366529  0.24897212  1
  S  S2  1  0.00325626  0.29613121  0.24967416  1
  S  S3  1  0.29377350  0.29792526  0.74979414  1
  S  S4  1  0.00072899  0.70387097  0.75038746  1
  S  S5  1  0.97281140  0.33576828  0.58198393  1
  S  S6  1  0.66736480  0.63596161  0.58282474  1
  S  S7  1  0.66590204  0.02820219  0.08321032  1
  S  S8  1  0.36417908  0.33268195  0.08261213  1
  S  S9  1  0.62250454  0.66481755  0.91851002  1
  S  S10  1  0.04575748  0.37729413  0.91563953  1
  S  S11  1  0.33331274  0.96152196  0.91500714  1
  S  S12  1  0.62565559  0.95675481  0.41675027  1
  S  S13  1  0.33265785  0.37921399  0.41600250  1
  S  S14  1  0.03988663  0.66447578  0.41611892  1
  O  O0  1  0.22629943  0.02997305  0.30403639  1
  O  O1  1  0.80845984  0.78445292  0.30181319  1
  O  O2  1  0.97671639  0.19404764  0.30427780  1
  O  O3  1  0.22220681  0.18534110  0.80299607  1
  O  O4  1  0.97433475  0.77848609  0.80514038  1
  O  O5  1  0.80887049  0.02711046  0.80275710  1
  O  O6  1  0.78674115  0.98243123  0.69154205  1
  O  O7  1  0.18849910  0.20977672  0.69827584  1
  O  O8  1  0.02712826  0.81761446  0.70019834  1
  O  O9  1  0.78440565  0.80457012  0.19599440  1
  O  O10  1  0.01772709  0.20493158  0.19847232  1
  O  O11  1  0.19156343  0.98126960  0.19862559  1
  O  O12  1  0.89952088  0.37484484  0.63481682  1
  O  O13  1  0.47669512  0.10343105  0.63975929  1
  O  O14  1  0.64026787  0.52784804  0.63552608  1
  O  O15  1  0.88903799  0.52119314  0.13851121  1
  O  O16  1  0.62830618  0.10425005  0.13512278  1
  O  O17  1  0.48004171  0.36764768  0.13441531  1
  O  O18  1  0.44110072  0.29469049  0.03052085  1
  O  O19  1  0.84224115  0.55813988  0.03071495  1
  O  O20  1  0.69460130  0.13729170  0.03060483  1
  O  O21  1  0.44758333  0.14861989  0.53066964  1
  O  O22  1  0.70193125  0.55763930  0.53072287  1
  O  O23  1  0.85410402  0.30105952  0.53103229  1
  O  O24  1  0.54012708  0.67660879  0.97309328  1
  O  O25  1  0.14068084  0.46140881  0.96925076  1
  O  O26  1  0.31884572  0.85859167  0.96678119  1
  O  O27  1  0.54655190  0.86435507  0.47163057  1
  O  O28  1  0.32070796  0.46373724  0.46931645  1
  O  O29  1  0.13869984  0.68110657  0.46911536  1
  O  O30  1  0.12393617  0.65005430  0.36304628  1
  O  O31  1  0.52178562  0.86706968  0.36533499  1
  O  O32  1  0.34369675  0.47571923  0.36300854  1
  O  O33  1  0.13120272  0.47547243  0.86294422  1
  O  O34  1  0.34832253  0.88163656  0.86049844  1
  O  O35  1  0.52331880  0.65554414  0.86664575  1
  O  O36  1  0.02062241  0.82565369  0.41372862  1
  O  O37  1  0.80517371  0.97571940  0.41370272  1
  O  O38  1  0.17358682  0.19748387  0.41448632  1
  O  O39  1  0.02779864  0.19771999  0.91485283  1
  O  O40  1  0.17298627  0.98126979  0.91321027  1
  O  O41  1  0.80372190  0.82383228  0.91665913  1
  O  O42  1  0.97851115  0.17177434  0.58993645  1
  O  O43  1  0.17887202  0.00790506  0.59158755  1
  O  O44  1  0.82048444  0.81441782  0.58960381  1
  O  O45  1  0.97911071  0.81753814  0.09178109  1
  O  O46  1  0.82491809  0.01357645  0.09129646  1
  O  O47  1  0.18857027  0.18193741  0.09153019  1
  O  O48  1  0.67260149  0.16212881  0.74610554  1
  O  O49  1  0.47397345  0.31882712  0.74483570  1
  O  O50  1  0.84198050  0.52762506  0.74424527  1
  O  O51  1  0.67685778  0.52313267  0.24634813  1
  O  O52  1  0.84219119  0.31410299  0.24688615  1
  O  O53  1  0.47842152  0.15849198  0.24433055  1
  O  O54  1  0.63970978  0.50278741  0.91866266  1
  O  O55  1  0.86386840  0.35480728  0.91738140  1
  O  O56  1  0.49423875  0.14095897  0.91914356  1
  O  O57  1  0.64744401  0.13816305  0.41787917  1
  O  O58  1  0.49413805  0.36024004  0.41712801  1
  O  O59  1  0.85954235  0.50462966  0.41937457  1
  O  O60  1  0.35797741  0.49652671  0.07451509  1
  O  O61  1  0.14980350  0.65717205  0.07566529  1
  O  O62  1  0.51396362  0.84890071  0.07547738  1
  O  O63  1  0.35392631  0.84988677  0.57551825  1
  O  O64  1  0.50878185  0.65185772  0.57575710  1
  O  O65  1  0.14801431  0.48614057  0.57331160  1
  O  O66  1  0.31463367  0.84030361  0.25524895  1
  O  O67  1  0.52532811  0.68940849  0.25567667  1
  O  O68  1  0.16079022  0.47171175  0.25468526  1
  O  O69  1  0.30793176  0.46991530  0.75735310  1
  O  O70  1  0.15986365  0.68742393  0.75612706  1
  O  O71  1  0.51281896  0.83445009  0.75346228  1
loop_
_geom_bond_atom_site_label_1
_geom_bond_atom_site_label_2
_geom_bond_distance
_geom_bond_site_symmetry_2
Na0 O48 2.324188 1_565
Na0 O71 2.333330 1_555
Na0 O70 2.402546 1_555
Na0 O49 2.511269 1_565
Na0 O13 2.691259 1_565
Na0 O34 2.725059 1_555
Na0 O8 2.833321 1_555
Na0 O3 2.843947 1_565
Na1 O63 2.371680 1_555
Na1 O44 2.401159 1_555
Na1 O64 2.437855 1_555
Na1 O42 2.455040 1_565
Na1 O6 2.595869 1_555
Na1 O13 2.696813 1_565
Na1 O27 2.857216 1_555
Na1 O23 2.864037 1_565
Na2 O45 2.358271 1_555
Na2 O62 2.390293 1_555
Na2 O60 2.433475 1_555
Na2 O46 2.439915 1_565
Na2 O19 2.606268 1_555
Na2 O24 2.724234 1_554
Na2 O17 2.787786 1_555
Na2 O9 2.808620 1_555
Na3 O43 2.406805 1_555
Na3 O38 2.565411 1_555
Na3 O36 2.570912 1_545
Na3 O42 2.638843 1_455
Na3 O44 2.642105 1_445
Na3 O37 2.780054 1_445
Na4 O45 2.537138 1_445
Na4 O40 2.543420 1_544
Na4 O47 2.563964 1_555
Na4 O39 2.619526 1_554
Na4 O41 2.632369 1_444
Na4 O46 2.664539 1_455
Na5 O55 2.461393 1_555
Na5 O48 2.508730 1_555
Na5 O54 2.572532 1_555
Na5 O50 2.573838 1_555
Na5 O56 2.602050 1_555
Na5 O49 2.692488 1_555
Na6 O58 2.539467 1_555
Na6 O57 2.549111 1_555
Na6 O59 2.555119 1_555
Na6 O52 2.568296 1_555
Na6 O51 2.575871 1_555
Na6 O53 2.594065 1_555
Na7 O61 2.480211 1_555
Na7 O68 2.533096 1_555
Na7 O66 2.541425 1_555
Na7 O62 2.730151 1_555
Na7 O60 2.742078 1_555
Na7 O67 2.755919 1_555
Na8 O71 2.544580 1_555
Na8 O69 2.612605 1_555
Na8 O70 2.630409 1_555
Na8 O64 2.631830 1_555
Na8 O63 2.632594 1_555
Na8 O65 2.654298 1_555
Mg0 O43 2.036613 1_555
Mg0 O6 2.054539 1_445
Mg0 O7 2.058052 1_555
Mg0 O8 2.061162 1_545
Mg0 O44 2.148517 1_445
Mg0 O42 2.151330 1_455
Mg1 O45 2.015323 1_455
Mg1 O11 2.022629 1_555
Mg1 O10 2.075835 1_565
Mg1 O47 2.098713 1_565
Mg1 O9 2.128770 1_455
Mg1 O46 2.168006 1_465
Mg2 O61 1.976590 1_555
Mg2 O25 2.011890 1_554
Mg2 O26 2.033189 1_554
Mg2 O62 2.151960 1_555
Mg2 O24 2.160651 1_554
Mg2 O60 2.166816 1_555
Mg3 O29 2.019952 1_555
Mg3 O63 2.022088 1_555
Mg3 O65 2.073759 1_555
Mg3 O28 2.074493 1_555
Mg3 O27 2.094902 1_555
Mg3 O64 2.176064 1_555
Mg4 O32 2.044955 1_555
Mg4 O31 2.066019 1_555
Mg4 O30 2.070516 1_555
Mg4 O67 2.119775 1_555
Mg4 O66 2.130147 1_555
Mg4 O68 2.140071 1_555
Mg5 O35 2.016433 1_555
Mg5 O71 2.058365 1_555
Mg5 O69 2.090969 1_555
Mg5 O33 2.091333 1_555
Mg5 O34 2.125522 1_555
Mg5 O70 2.189415 1_555
In0 O2 2.118790 1_455
In0 O1 2.130351 1_445
In0 O0 2.140880 1_555
In0 O36 2.175886 1_545
In0 O37 2.185345 1_445
In0 O38 2.194353 1_555
In1 O5 2.042549 1_555
In1 O4 2.153925 1_545
In1 O3 2.170912 1_655
In1 O39 2.174934 1_655
In1 O41 2.203149 1_545
In1 O40 2.231402 1_645
In2 O13 2.092349 1_555
In2 O48 2.126442 1_555
In2 O12 2.132883 1_555
In2 O14 2.143354 1_555
In2 O50 2.191887 1_555
In2 O49 2.232149 1_555
In3 O15 2.045269 1_555
In3 O16 2.155347 1_555
In3 O17 2.166269 1_555
In3 O52 2.170378 1_555
In3 O53 2.176241 1_555
In3 O51 2.202050 1_555
In4 O19 2.073944 1_556
In4 O20 2.154286 1_556
In4 O18 2.177297 1_556
In4 O55 2.202262 1_555
In4 O54 2.203219 1_555
In4 O56 2.213578 1_555
In5 O21 2.055122 1_555
In5 O22 2.154979 1_555
In5 O58 2.181463 1_555
In5 O23 2.183386 1_555
In5 O57 2.206071 1_555
In5 O59 2.216273 1_555
O0 S0 1.495330 1_545
O1 S1 1.493567 1_555
O2 S2 1.493811 1_655
O3 S3 1.501234 1_555
O4 S4 1.489868 1_655
O5 P0 1.545277 1_545
O6 P0 1.529593 1_555
O7 S3 1.464504 1_555
O8 S4 1.469076 1_555
O9 S1 1.474839 1_555
O10 S2 1.464683 1_555
O11 S0 1.462258 1_555
O12 S5 1.493003 1_555
O13 P1 1.577814 1_555
O14 S6 1.485550 1_555
O15 P2 1.551890 1_555
O16 S7 1.483299 1_555
O17 S8 1.497016 1_555
O18 S8 1.492693 1_555
O19 P2 1.572920 1_555
O20 S7 1.486362 1_555
O21 P1 1.554209 1_555
O22 S6 1.486301 1_555
O23 S5 1.496567 1_555
O24 S9 1.478191 1_555
O25 S10 1.465307 1_555
O26 S11 1.463463 1_555
O27 S12 1.474659 1_555
O28 S13 1.463705 1_555
O29 S14 1.461936 1_555
O30 S14 1.464378 1_555
O31 S12 1.461071 1_555
O32 S13 1.461564 1_555
O33 S10 1.460382 1_555
O34 S11 1.473988 1_555
O35 S9 1.456547 1_555
O36 S14 1.510227 1_555
O37 S12 1.504180 1_555
O38 S13 1.509598 1_555
O39 S10 1.506537 1_555
O40 S11 1.505034 1_555
O41 S9 1.507037 1_555
O42 S5 1.479433 1_555
O43 P1 1.520083 1_555
O44 S6 1.479557 1_555
O45 P2 1.543921 1_555
O46 S7 1.479028 1_555
O47 S8 1.462811 1_555
O48 P0 1.582385 1_545
O49 S3 1.505830 1_555
O50 S4 1.486426 1_655
O51 S1 1.502723 1_555
O52 S2 1.503266 1_655
O53 S0 1.502053 1_545
O54 S9 1.506160 1_555
O55 S10 1.511267 1_655
O56 S11 1.506963 1_545
O57 S12 1.508879 1_545
O58 S13 1.510811 1_555
O59 S14 1.506725 1_655
O60 S8 1.480856 1_555
O61 P2 1.520276 1_455
O62 S7 1.482643 1_565
O63 P1 1.542997 1_565
O64 S6 1.478758 1_555
O65 S5 1.458631 1_455
O66 S0 1.475080 1_555
O67 S1 1.472393 1_555
O68 S2 1.476368 1_555
O69 S3 1.464335 1_555
O70 S4 1.483249 1_555
O71 P0 1.551573 1_555
