# generated using pymatgen
data_Na4Sn3S8
_symmetry_space_group_name_H-M   'P 1'
_cell_length_a   6.74425233
_cell_length_b   6.74425233
_cell_length_c   17.68499866
_cell_angle_alpha   85.95004313
_cell_angle_beta   85.95004313
_cell_angle_gamma   65.85656186
_symmetry_Int_Tables_number   1
_chemical_formula_structural   Na4Sn3S8
_chemical_formula_sum   'Na8 Sn6 S16'
_cell_volume   731.43241293
_cell_formula_units_Z   2
loop_
 _symmetry_equiv_pos_site_id
 _symmetry_equiv_pos_as_xyz
  1  'x, y, z'
loop_
 _atom_site_type_symbol
 _atom_site_label
 _atom_site_symmetry_multiplicity
 _atom_site_fract_x
 _atom_site_fract_y
 _atom_site_fract_z
 _atom_site_occupancy
  Na  Na0  1  0.09943814  0.43008317  0.37461327  1
  Na  Na1  1  0.90056186  0.56991683  0.62538673  1
  Na  Na2  1  0.43008317  0.09943814  0.87461327  1
  Na  Na3  1  0.56991683  0.90056186  0.12538673  1
  Na  Na4  1  0.48572187  0.23436936  0.66367043  1
  Na  Na5  1  0.76563064  0.51427813  0.83632957  1
  Na  Na6  1  0.23436936  0.48572187  0.16367043  1
  Na  Na7  1  0.51427813  0.76563064  0.33632957  1
  Sn  Sn0  1  0.26907148  0.93333745  0.53224855  1
  Sn  Sn1  1  0.06666255  0.73092852  0.96775145  1
  Sn  Sn2  1  0.73092852  0.06666255  0.46775145  1
  Sn  Sn3  1  0.93333745  0.26907148  0.03224855  1
  Sn  Sn4  1  0.08412122  0.91587878  0.75000000  1
  Sn  Sn5  1  0.91587878  0.08412122  0.25000000  1
  S  S0  1  0.13140469  0.82889093  0.42648566  1
  S  S1  1  0.17110907  0.86859531  0.07351434  1
  S  S2  1  0.33849934  0.69929382  0.64952053  1
  S  S3  1  0.69929382  0.33849934  0.14952053  1
  S  S4  1  0.30070618  0.66150066  0.85047947  1
  S  S5  1  0.66150066  0.30070618  0.35047947  1
  S  S6  1  0.26707216  0.32714505  0.01568554  1
  S  S7  1  0.67285495  0.73292784  0.48431446  1
  S  S8  1  0.73292784  0.67285495  0.98431446  1
  S  S9  1  0.32714505  0.26707216  0.51568554  1
  S  S10  1  0.74695597  0.88638082  0.75234506  1
  S  S11  1  0.11361918  0.25304403  0.74765494  1
  S  S12  1  0.25304403  0.11361918  0.24765494  1
  S  S13  1  0.88638082  0.74695597  0.25234506  1
  S  S14  1  0.86859531  0.17110907  0.57351434  1
  S  S15  1  0.82889093  0.13140469  0.92648566  1
loop_
_geom_bond_atom_site_label_1
_geom_bond_atom_site_label_2
_geom_bond_distance
_geom_bond_site_symmetry_2
Na0 S9 2.926436 1_555
Na0 S13 2.929419 1_455
Na0 S0 2.995517 1_555
Na0 S12 3.034680 1_555
Na0 S7 3.343189 1_455
Na1 S7 2.926436 1_555
Na1 S11 2.929419 1_655
Na1 S14 2.995517 1_555
Na1 S10 3.034680 1_555
Na1 S9 3.343189 1_655
Na2 S6 2.926436 1_556
Na2 S10 2.929419 1_545
Na2 S15 2.995517 1_555
Na2 S11 3.034680 1_555
Na2 S8 3.343189 1_545
Na3 S8 2.926436 1_554
Na3 S12 2.929419 1_565
Na3 S1 2.995517 1_555
Na3 S13 3.034680 1_555
Na3 S6 3.343189 1_565
Na4 S10 2.749409 1_545
Na4 S11 2.785876 1_555
Na4 S14 2.829349 1_555
Na4 S9 2.857023 1_555
Na4 S2 2.873620 1_555
Na5 S11 2.749409 1_655
Na5 S10 2.785876 1_555
Na5 S15 2.829349 1_555
Na5 S8 2.857023 1_555
Na5 S4 2.873620 1_555
Na6 S13 2.749409 1_455
Na6 S12 2.785876 1_555
Na6 S1 2.829349 1_555
Na6 S6 2.857023 1_555
Na6 S3 2.873620 1_555
Na7 S12 2.749409 1_565
Na7 S13 2.785876 1_555
Na7 S0 2.829349 1_555
Na7 S7 2.857023 1_555
Na7 S5 2.873620 1_555
S0 Sn0 2.413114 1_555
S0 Sn2 2.596694 1_465
S1 Sn1 2.413114 1_554
S1 Sn3 2.596694 1_465
S2 Sn0 2.466210 1_555
S2 Sn4 2.473982 1_555
S3 Sn3 2.466210 1_555
S3 Sn5 2.473982 1_555
S4 Sn1 2.466210 1_555
S4 Sn4 2.473982 1_555
S5 Sn2 2.466210 1_555
S5 Sn5 2.473982 1_555
S6 Sn3 2.432504 1_455
S6 Sn1 2.605023 1_554
S7 Sn2 2.432504 1_565
S7 Sn0 2.605023 1_555
S8 Sn1 2.432504 1_655
S8 Sn3 2.605023 1_556
S9 Sn0 2.432504 1_545
S9 Sn2 2.605023 1_555
S10 Sn4 2.359581 1_655
S11 Sn4 2.359581 1_545
S12 Sn5 2.359581 1_455
S13 Sn5 2.359581 1_565
S14 Sn2 2.413114 1_555
S14 Sn0 2.596694 1_645
S15 Sn3 2.413114 1_556
S15 Sn1 2.596694 1_645
