# generated using pymatgen
data_Na14Mg4Nb4Si9(SO16)3
_symmetry_space_group_name_H-M   'P 1'
_cell_length_a   18.24082837
_cell_length_b   9.09556750
_cell_length_c   22.44312671
_cell_angle_alpha   90.05993354
_cell_angle_beta   90.04615497
_cell_angle_gamma   119.96381866
_symmetry_Int_Tables_number   1
_chemical_formula_structural   Na14Mg4Nb4Si9(SO16)3
_chemical_formula_sum   'Na42 Mg12 Nb12 Si27 S9 O144'
_cell_volume   3225.86230671
_cell_formula_units_Z   3
loop_
 _symmetry_equiv_pos_site_id
 _symmetry_equiv_pos_as_xyz
  1  'x, y, z'
loop_
 _atom_site_type_symbol
 _atom_site_label
 _atom_site_symmetry_multiplicity
 _atom_site_fract_x
 _atom_site_fract_y
 _atom_site_fract_z
 _atom_site_occupancy
  Na  Na0  1  0.81774801  0.99886692  0.25525793  1
  Na  Na1  1  0.17485071  0.35001097  0.24957872  1
  Na  Na2  1  0.67071799  0.35722716  0.25116281  1
  Na  Na3  1  0.00590363  0.64784551  0.24709345  1
  Na  Na4  1  0.50911807  0.64209156  0.25166440  1
  Na  Na5  1  0.31806646  0.63659821  0.75749433  1
  Na  Na6  1  0.00974201  0.37556356  0.75582195  1
  Na  Na7  1  0.50514963  0.36833161  0.74900179  1
  Na  Na8  1  0.17230777  0.98487869  0.75442464  1
  Na  Na9  1  0.67128766  0.99156550  0.75265735  1
  Na  Na10  1  0.14645611  0.31529863  0.58583675  1
  Na  Na11  1  0.64361234  0.31460263  0.58740276  1
  Na  Na12  1  0.33815063  0.98393479  0.58160563  1
  Na  Na13  1  0.83666193  0.97011511  0.59109622  1
  Na  Na14  1  0.14568453  0.97628441  0.08765273  1
  Na  Na15  1  0.63964673  0.96906299  0.08588077  1
  Na  Na16  1  0.34223377  0.70160079  0.08856286  1
  Na  Na17  1  0.83728921  0.69473069  0.07906973  1
  Na  Na18  1  0.48066074  0.66549632  0.91867916  1
  Na  Na19  1  0.97824054  0.64999789  0.92011107  1
  Na  Na20  1  0.35127611  0.04441969  0.91637493  1
  Na  Na21  1  0.84885637  0.04184561  0.91843192  1
  Na  Na22  1  0.17006275  0.29485840  0.92396184  1
  Na  Na23  1  0.66646874  0.28437705  0.91766473  1
  Na  Na24  1  0.47860108  0.30743803  0.41851301  1
  Na  Na25  1  0.98354585  0.29819881  0.40912058  1
  Na  Na26  1  0.16738271  0.04992661  0.41413423  1
  Na  Na27  1  0.66840506  0.04300403  0.42122183  1
  Na  Na28  1  0.35007705  0.65477468  0.41536160  1
  Na  Na29  1  0.85013906  0.65918677  0.41351050  1
  Na  Na30  1  0.01035677  0.99431233  0.49889330  1
  Na  Na31  1  0.50571891  0.00168603  0.50407655  1
  Na  Na32  1  0.00616824  0.01124259  0.00638490  1
  Na  Na33  1  0.50831009  0.01251673  0.00405197  1
  Na  Na34  1  0.33308335  0.33219130  0.84159794  1
  Na  Na35  1  0.83271838  0.33896516  0.84343147  1
  Na  Na36  1  0.33179273  0.32351774  0.33794652  1
  Na  Na37  1  0.83291748  0.33374764  0.33805318  1
  Na  Na38  1  0.16770712  0.66603002  0.16850063  1
  Na  Na39  1  0.65294423  0.64773047  0.16987725  1
  Na  Na40  1  0.15624003  0.66175596  0.67301919  1
  Na  Na41  1  0.66538686  0.66789036  0.67063686  1
  Mg  Mg0  1  0.01046569  0.01904549  0.35092461  1
  Mg  Mg1  1  0.50999837  0.99956753  0.85273697  1
  Mg  Mg2  1  0.00512168  -0.00006850  0.65299971  1
  Mg  Mg3  1  0.51232345  0.00691943  0.64828644  1
  Mg  Mg4  1  0.01293582  0.01678520  0.14896087  1
  Mg  Mg5  1  0.50390865  0.00138049  0.14947073  1
  Mg  Mg6  1  0.33373168  0.33342683  0.98307944  1
  Mg  Mg7  1  0.83149911  0.33939313  0.97885328  1
  Mg  Mg8  1  0.33110286  0.32319420  0.47862038  1
  Mg  Mg9  1  0.83101659  0.33693361  0.48043199  1
  Mg  Mg10  1  0.65859333  0.65516159  0.31513560  1
  Mg  Mg11  1  0.15937052  0.66174687  0.81654125  1
  Nb  Nb0  1  0.50251264  0.00809838  0.35084498  1
  Nb  Nb1  1  0.00175029  0.99520885  0.85224420  1
  Nb  Nb2  1  0.33371892  0.32775381  0.68532131  1
  Nb  Nb3  1  0.82989812  0.32527840  0.69262643  1
  Nb  Nb4  1  0.33669604  0.34656552  0.18917456  1
  Nb  Nb5  1  0.83410783  0.33843129  0.18426401  1
  Nb  Nb6  1  0.15468441  0.65053700  0.02096336  1
  Nb  Nb7  1  0.65770768  0.64725413  0.01900319  1
  Nb  Nb8  1  0.16501827  0.67970080  0.51528675  1
  Nb  Nb9  1  0.65366441  0.65820468  0.52060074  1
  Nb  Nb10  1  0.16711780  0.66690664  0.31204946  1
  Nb  Nb11  1  0.66751424  0.66749785  0.81415252  1
  Si  Si0  1  0.14696791  0.00066658  0.24954273  1
  Si  Si1  1  0.64888497  0.99621489  0.24786685  1
  Si  Si2  1  0.35544321  0.71698554  0.24694057  1
  Si  Si3  1  0.99698079  0.28439426  0.25178903  1
  Si  Si4  1  0.50091462  0.29290718  0.24605557  1
  Si  Si5  1  0.14733809  0.29982281  0.74716821  1
  Si  Si6  1  0.64325206  0.29274833  0.74982227  1
  Si  Si7  1  0.00259405  0.70929705  0.74687311  1
  Si  Si8  1  0.49758532  0.71053748  0.75130898  1
  Si  Si9  1  0.85565157  0.99207978  0.74621189  1
  Si  Si10  1  0.47659132  0.32326247  0.58013492  1
  Si  Si11  1  0.18180037  0.03672105  0.58015845  1
  Si  Si12  1  0.68821449  0.04192218  0.57939439  1
  Si  Si13  1  0.47867252  0.62716396  0.07955067  1
  Si  Si14  1  0.97685145  0.63033479  0.08010487  1
  Si  Si15  1  0.18756737  0.33298677  0.07971681  1
  Si  Si16  1  0.68375048  0.32916665  0.07928537  1
  Si  Si17  1  0.81248590  0.66787038  0.91820465  1
  Si  Si18  1  0.01660838  0.36688509  0.91291140  1
  Si  Si19  1  0.51503782  0.36310452  0.91342895  1
  Si  Si20  1  0.17103227  0.96151768  0.91350997  1
  Si  Si21  1  0.66572948  0.95896431  0.91841321  1
  Si  Si22  1  0.31440326  0.96193904  0.41495057  1
  Si  Si23  1  0.16522730  0.37197637  0.41872711  1
  Si  Si24  1  0.67032306  0.38016072  0.41335407  1
  Si  Si25  1  0.01495952  0.66494780  0.41359612  1
  Si  Si26  1  0.51604608  0.66636737  0.41271564  1
  S  S0  1  0.85491197  0.71104830  0.24962140  1
  S  S1  1  0.35530481  -0.00112563  0.74873471  1
  S  S2  1  0.97903290  0.33600982  0.58168005  1
  S  S3  1  0.33276562  0.62527040  0.58336297  1
  S  S4  1  0.83557084  0.62616738  0.58150880  1
  S  S5  1  0.33420375  0.04353147  0.08123946  1
  S  S6  1  0.83372481  0.04164283  0.08315831  1
  S  S7  1  0.31100218  0.67020480  0.91571434  1
  S  S8  1  0.81197762  0.95407604  0.41727078  1
  O  O0  1  0.11231605  0.04586641  0.30916713  1
  O  O1  1  0.60197594  0.03477983  0.30745798  1
  O  O2  1  0.41693896  0.80451477  0.30708454  1
  O  O3  1  0.90651019  0.78417322  0.30360815  1
  O  O4  1  0.48670511  0.17393725  0.30955312  1
  O  O5  1  0.97275091  0.17401142  0.31261564  1
  O  O6  1  0.10055933  0.16698973  0.80569514  1
  O  O7  1  0.61169268  0.17580617  0.80828067  1
  O  O8  1  0.47223346  0.77232537  0.81146118  1
  O  O9  1  0.98544379  0.79588336  0.80878195  1
  O  O10  1  0.40676206  0.02960642  0.80267461  1
  O  O11  1  0.91736037  0.03074373  0.80548865  1
  O  O12  1  0.39398603  0.97969251  0.69443675  1
  O  O13  1  0.89420663  0.97397886  0.68517617  1
  O  O14  1  0.08945582  0.22359382  0.68899726  1
  O  O15  1  0.58876958  0.22415480  0.68989068  1
  O  O16  1  0.01978514  0.83303123  0.69315227  1
  O  O17  1  0.51573254  0.82865547  0.69447477  1
  O  O18  1  0.39225088  0.81631571  0.18690482  1
  O  O19  1  0.89427954  0.80958719  0.19526370  1
  O  O20  1  0.01541986  0.20117177  0.19559434  1
  O  O21  1  0.51825022  0.19780206  0.19419272  1
  O  O22  1  0.08760143  0.94876172  0.19127430  1
  O  O23  1  0.59014403  0.95764587  0.19088361  1
  O  O24  1  0.43082495  0.35518857  0.64079273  1
  O  O25  1  0.93969546  0.35926569  0.63700751  1
  O  O26  1  0.24897389  0.13595041  0.63966430  1
  O  O27  1  0.75201515  0.13975448  0.63962953  1
  O  O28  1  0.32000747  0.51388046  0.63769860  1
  O  O29  1  0.82307767  0.51451592  0.63424524  1
  O  O30  1  0.43202169  0.50432805  0.14023175  1
  O  O31  1  0.93184371  0.50674490  0.14093253  1
  O  O32  1  0.31907039  0.12577670  0.13384370  1
  O  O33  1  0.82194261  0.12954482  0.13787917  1
  O  O34  1  0.25087052  0.36559521  0.13960790  1
  O  O35  1  0.75094987  0.36172614  0.13952278  1
  O  O36  1  0.23072945  0.30896973  0.02139240  1
  O  O37  1  0.73113747  0.30540373  0.02328786  1
  O  O38  1  0.42357856  0.53731779  0.02160255  1
  O  O39  1  0.92294610  0.53966402  0.02217509  1
  O  O40  1  0.34272920  0.13781180  0.02604946  1
  O  O41  1  0.84494573  0.14261900  0.02956237  1
  O  O42  1  0.22979941  0.15173213  0.52362379  1
  O  O43  1  0.73574057  0.15468055  0.52263714  1
  O  O44  1  0.34341339  0.54671379  0.52964457  1
  O  O45  1  0.84514315  0.54861931  0.52684166  1
  O  O46  1  0.42216985  0.30521139  0.52249715  1
  O  O47  1  0.92911321  0.32095297  0.52881971  1
  O  O48  1  0.26813001  0.69035002  0.97032356  1
  O  O49  1  0.76843120  0.70194965  0.97718125  1
  O  O50  1  0.08243290  0.46703370  0.97291810  1
  O  O51  1  0.58199205  0.46573984  0.97157171  1
  O  O52  1  0.15488492  0.83170773  0.97305560  1
  O  O53  1  0.65586962  0.83104624  0.97553436  1
  O  O54  1  0.26719927  0.83766076  0.47569820  1
  O  O55  1  0.76889303  0.84704414  0.47195192  1
  O  O56  1  0.15483335  0.47839967  0.47811645  1
  O  O57  1  0.65577795  0.47966298  0.47375133  1
  O  O58  1  0.08405954  0.69999253  0.47178500  1
  O  O59  1  0.58185849  0.69731701  0.47367405  1
  O  O60  1  0.06577913  0.63863605  0.35800161  1
  O  O61  1  0.56168125  0.63837856  0.35750435  1
  O  O62  1  0.24888220  0.85156728  0.36174125  1
  O  O63  1  0.76001279  0.87806594  0.36390196  1
  O  O64  1  0.17530941  0.49494575  0.36135824  1
  O  O65  1  0.68747147  0.49826498  0.35647027  1
  O  O66  1  0.06049089  0.48301656  0.85640666  1
  O  O67  1  0.56805307  0.49291835  0.85760322  1
  O  O68  1  0.18660362  0.87809380  0.85550443  1
  O  O69  1  0.67613462  0.85911750  0.85918647  1
  O  O70  1  0.25947673  0.64625208  0.86207019  1
  O  O71  1  0.74951362  0.64830195  0.86183909  1
  O  O72  1  0.00655164  0.83268321  0.41179868  1
  O  O73  1  0.51537217  0.84761064  0.41305511  1
  O  O74  1  0.40514449  0.96654910  0.41176262  1
  O  O75  1  0.89571757  0.96383186  0.41463070  1
  O  O76  1  0.07779533  0.19256786  0.41797915  1
  O  O77  1  0.58020146  0.19325025  0.41253987  1
  O  O78  1  0.01537591  0.18314442  0.91186881  1
  O  O79  1  0.50803134  0.17990220  0.91041904  1
  O  O80  1  0.08025963  0.96792944  0.91109098  1
  O  O81  1  0.57861642  0.96376513  0.91706572  1
  O  O82  1  0.39505253  0.82678081  0.91329027  1
  O  O83  1  0.90520333  0.84351137  0.91007012  1
  O  O84  1  0.48667592  0.15814448  0.58892235  1
  O  O85  1  0.98712097  0.18168794  0.58567920  1
  O  O86  1  0.09099501  0.02248873  0.58760782  1
  O  O87  1  0.59613455  0.02184025  0.58615037  1
  O  O88  1  0.40370445  0.79833070  0.59167985  1
  O  O89  1  0.90711618  0.79946916  0.58752406  1
  O  O90  1  0.48996239  0.81409109  0.08675075  1
  O  O91  1  0.98632212  0.81498805  0.08911157  1
  O  O92  1  0.40623916  0.01599930  0.08768535  1
  O  O93  1  0.90545965  0.01274718  0.09184645  1
  O  O94  1  0.09484570  0.17015718  0.08722482  1
  O  O95  1  0.59285136  0.16691536  0.08825994  1
  O  O96  1  0.34575316  0.15901257  0.74447551  1
  O  O97  1  0.84710864  0.17208686  0.74322540  1
  O  O98  1  0.24190005  0.30584674  0.74183168  1
  O  O99  1  0.74127671  0.31555502  0.73862286  1
  O  O100  1  0.41330368  0.50965599  0.74004601  1
  O  O101  1  0.91645035  0.51560400  0.73910241  1
  O  O102  1  0.34606498  0.52194848  0.24608894  1
  O  O103  1  0.84607638  0.53320208  0.24496628  1
  O  O104  1  0.41466191  0.31216424  0.24253874  1
  O  O105  1  0.91399830  0.31871808  0.24144709  1
  O  O106  1  0.24191106  0.17029390  0.23769973  1
  O  O107  1  0.74328624  0.17973231  0.24337885  1
  O  O108  1  0.32059937  0.51760758  0.92071970  1
  O  O109  1  0.82156553  0.50187674  0.91751783  1
  O  O110  1  0.42602315  0.35932402  0.91804353  1
  O  O111  1  0.92415257  0.34153175  0.92363361  1
  O  O112  1  0.25019548  0.15161365  0.92179875  1
  O  O113  1  0.75183361  0.13962474  0.92008373  1
  O  O114  1  0.32156306  0.14360180  0.41732873  1
  O  O115  1  0.82403288  0.12773084  0.42407800  1
  O  O116  1  0.25106201  0.36367081  0.42167268  1
  O  O117  1  0.74999607  0.34919788  0.42146315  1
  O  O118  1  0.42386321  0.50605554  0.42384855  1
  O  O119  1  0.92713690  0.48890459  0.42232107  1
  O  O120  1  0.18735498  0.52080425  0.07606470  1
  O  O121  1  0.68683139  0.51777322  0.07891875  1
  O  O122  1  0.07506201  0.65077008  0.07829933  1
  O  O123  1  0.57697716  0.64862531  0.07779520  1
  O  O124  1  0.25332912  0.86842838  0.07793054  1
  O  O125  1  0.75310474  0.87403570  0.08229513  1
  O  O126  1  0.18213964  0.84885075  0.57961881  1
  O  O127  1  0.68812928  0.85460261  0.57704968  1
  O  O128  1  0.25136588  0.63251362  0.58194820  1
  O  O129  1  0.75438878  0.63612226  0.57901582  1
  O  O130  1  0.06754785  0.48935383  0.57926746  1
  O  O131  1  0.57503253  0.49948254  0.57856472  1
  O  O132  1  0.15790044  0.82977719  0.25893785  1
  O  O133  1  0.66976182  0.84519104  0.25897130  1
  O  O134  1  0.25695310  0.67280220  0.25863642  1
  O  O135  1  0.76850820  0.68644002  0.25462452  1
  O  O136  1  0.08117388  0.48086874  0.25786909  1
  O  O137  1  0.58244172  0.48225886  0.25384903  1
  O  O138  1  0.16895730  0.49349133  0.75774194  1
  O  O139  1  0.65729430  0.48599114  0.75742175  1
  O  O140  1  0.08304434  0.68083794  0.75439455  1
  O  O141  1  0.58084254  0.68054772  0.75729833  1
  O  O142  1  0.26829365  0.85041976  0.75370762  1
  O  O143  1  0.75717360  0.84156062  0.75663204  1
loop_
_geom_bond_atom_site_label_1
_geom_bond_atom_site_label_2
_geom_bond_distance
_geom_bond_site_symmetry_2
Na0 O133 2.340731 1_555
Na0 O135 2.516450 1_555
Na0 O105 2.557885 1_565
Na0 O107 2.618105 1_565
Na0 O63 2.667507 1_555
Na0 O5 2.771211 1_565
Na0 O33 2.876528 1_565
Na1 O106 2.497270 1_555
Na1 O136 2.530350 1_555
Na1 O134 2.551511 1_555
Na1 O102 2.706917 1_555
Na1 O0 2.756910 1_555
Na1 O20 2.795744 1_555
Na1 O34 2.800767 1_555
Na1 O64 2.830796 1_555
Na2 O137 2.391444 1_555
Na2 O107 2.554116 1_555
Na2 O135 2.611135 1_555
Na2 O65 2.631674 1_555
Na2 O21 2.726569 1_555
Na2 O103 2.774852 1_555
Na2 O1 2.847268 1_555
Na2 O35 2.892677 1_555
Na3 O132 2.431241 1_555
Na3 O136 2.516619 1_555
Na3 O103 2.559696 1_455
Na3 O105 2.602674 1_455
Na3 O22 2.686494 1_555
Na3 O31 2.721273 1_455
Na3 O60 2.735519 1_555
Na3 O3 2.946081 1_455
Na4 O137 2.418062 1_555
Na4 O61 2.567431 1_555
Na4 O133 2.572420 1_555
Na4 O102 2.609279 1_555
Na4 O104 2.617099 1_555
Na4 O30 2.833696 1_555
Na4 O23 2.838489 1_555
Na5 O138 2.357038 1_555
Na5 O142 2.525441 1_555
Na5 O100 2.551100 1_555
Na5 O70 2.599170 1_555
Na5 O98 2.631740 1_555
Na5 O8 2.724455 1_555
Na5 O28 2.917019 1_555
Na6 O140 2.406300 1_555
Na6 O66 2.448759 1_555
Na6 O138 2.544571 1_555
Na6 O97 2.611302 1_455
Na6 O101 2.612324 1_455
Na6 O14 2.877667 1_555
Na6 O25 2.927384 1_455
Na6 O11 2.941043 1_455
Na7 O139 2.432067 1_555
Na7 O141 2.467235 1_555
Na7 O96 2.560931 1_555
Na7 O100 2.578891 1_555
Na7 O67 2.689289 1_555
Na7 O24 2.753612 1_555
Na7 O15 2.793538 1_555
Na7 O10 2.941411 1_555
Na8 O140 2.408501 1_555
Na8 O68 2.532651 1_555
Na8 O98 2.552362 1_565
Na8 O142 2.588511 1_555
Na8 O96 2.750343 1_565
Na8 O16 2.773159 1_555
Na8 O6 2.818586 1_565
Na8 O26 2.927646 1_565
Na9 O141 2.464584 1_555
Na9 O143 2.541454 1_555
Na9 O99 2.580245 1_565
Na9 O69 2.699504 1_555
Na9 O7 2.714003 1_565
Na9 O17 2.782450 1_555
Na9 O97 2.787128 1_565
Na9 O27 2.906974 1_565
Na10 O86 2.329585 1_555
Na10 O14 2.505744 1_555
Na10 O85 2.529003 1_455
Na10 O128 2.545547 1_555
Na10 O130 2.622234 1_555
Na10 O56 2.801868 1_555
Na11 O87 2.353240 1_555
Na11 O84 2.480327 1_555
Na11 O15 2.480689 1_555
Na11 O131 2.556080 1_555
Na11 O129 2.601851 1_555
Na12 O84 2.363935 1_565
Na12 O126 2.473261 1_555
Na12 O88 2.519461 1_555
Na12 O54 2.713508 1_555
Na12 O12 2.736158 1_555
Na12 O128 2.769207 1_555
Na12 O46 2.861052 1_565
Na12 O26 2.915811 1_565
Na13 O13 2.349610 1_555
Na13 O127 2.387117 1_555
Na13 O85 2.444510 1_565
Na13 O89 2.461611 1_555
Na13 O129 2.645348 1_555
Na13 O27 2.886205 1_565
Na13 O55 2.921889 1_555
Na14 O94 2.367080 1_565
Na14 O22 2.516705 1_555
Na14 O91 2.518678 1_455
Na14 O122 2.580291 1_555
Na14 O124 2.605726 1_555
Na15 O95 2.346111 1_565
Na15 O90 2.365984 1_555
Na15 O23 2.507975 1_555
Na15 O123 2.550455 1_555
Na15 O125 2.612202 1_555
Na15 O53 2.856981 1_554
Na16 O90 2.357128 1_555
Na16 O18 2.415242 1_555
Na16 O120 2.474118 1_555
Na16 O92 2.491209 1_565
Na16 O124 2.729011 1_555
Na16 O34 2.890097 1_555
Na16 O48 2.955502 1_554
Na16 O38 2.984369 1_555
Na17 O91 2.380255 1_555
Na17 O121 2.389609 1_555
Na17 O93 2.529835 1_565
Na17 O49 2.624683 1_554
Na17 O125 2.743105 1_555
Na17 O19 2.806696 1_555
Na17 O39 2.874326 1_555
Na17 O35 2.956724 1_555
Na18 O81 2.389995 1_555
Na18 O110 2.444616 1_555
Na18 O108 2.532423 1_555
Na18 O38 2.564378 1_556
Na18 O82 2.625540 1_555
Na18 O8 2.628989 1_555
Na19 O111 2.467179 1_555
Na19 O109 2.477793 1_555
Na19 O39 2.503772 1_556
Na19 O80 2.548076 1_655
Na19 O83 2.695628 1_555
Na19 O9 2.802523 1_555
Na20 O82 2.477866 1_545
Na20 O112 2.482102 1_555
Na20 O110 2.482531 1_555
Na20 O79 2.488681 1_555
Na20 O40 2.633077 1_556
Na20 O10 2.773773 1_555
Na21 O113 2.344507 1_555
Na21 O111 2.364205 1_555
Na21 O83 2.489501 1_545
Na21 O78 2.645982 1_655
Na21 O41 2.669579 1_556
Na21 O11 2.850867 1_555
Na22 O112 2.395566 1_555
Na22 O36 2.424071 1_556
Na22 O108 2.468510 1_555
Na22 O78 2.490365 1_555
Na22 O80 2.596313 1_545
Na22 O6 2.918969 1_555
Na22 O50 2.952013 1_555
Na23 O113 2.491772 1_555
Na23 O109 2.515311 1_555
Na23 O81 2.530607 1_545
Na23 O79 2.556825 1_555
Na23 O37 2.610859 1_556
Na23 O7 2.646792 1_555
Na24 O118 2.465032 1_555
Na24 O114 2.482451 1_555
Na24 O77 2.540495 1_555
Na24 O46 2.547433 1_555
Na24 O74 2.698265 1_545
Na24 O4 2.765854 1_555
Na25 O76 2.359664 1_655
Na25 O5 2.403683 1_555
Na25 O119 2.436700 1_555
Na25 O115 2.545385 1_555
Na25 O75 2.639184 1_545
Na25 O47 2.907567 1_555
Na25 O60 2.919749 1_655
Na26 O116 2.479817 1_555
Na26 O114 2.499300 1_555
Na26 O76 2.545381 1_555
Na26 O0 2.553234 1_555
Na26 O72 2.592822 1_545
Na26 O42 2.670128 1_555
Na27 O117 2.414724 1_555
Na27 O73 2.455032 1_545
Na27 O43 2.542699 1_555
Na27 O115 2.543814 1_555
Na27 O77 2.586583 1_555
Na27 O1 2.810134 1_555
Na28 O118 2.344415 1_555
Na28 O116 2.348829 1_555
Na28 O74 2.492454 1_555
Na28 O73 2.624467 1_555
Na28 O44 2.728699 1_555
Na28 O2 2.756834 1_555
Na29 O75 2.463425 1_555
Na29 O72 2.476847 1_655
Na29 O117 2.484993 1_555
Na29 O119 2.565869 1_555
Na29 O3 2.697377 1_555
Na29 O45 2.720898 1_555
Na29 O65 2.870033 1_555
Na30 O86 2.410626 1_565
Na30 O76 2.420187 1_565
Na30 O72 2.424590 1_555
Na30 O89 2.706199 1_455
Na30 O75 2.727521 1_455
Na30 O85 2.755702 1_465
Na31 O87 2.416400 1_555
Na31 O84 2.502196 1_555
Na31 O73 2.531615 1_545
Na31 O77 2.597985 1_555
Na31 O74 2.677123 1_545
Na31 O88 2.706429 1_545
Na32 O94 2.377330 1_555
Na32 O91 2.475296 1_445
Na32 O78 2.591856 1_554
Na32 O93 2.661642 1_455
Na32 O80 2.662794 1_544
Na32 O83 2.751707 1_444
Na33 O95 2.397587 1_555
Na33 O90 2.493741 1_545
Na33 O81 2.494557 1_544
Na33 O79 2.597746 1_554
Na33 O92 2.656134 1_555
Na33 O82 2.787649 1_544
Na34 O110 2.335594 1_555
Na34 O112 2.398638 1_555
Na34 O108 2.535208 1_555
Na34 O98 2.726176 1_555
Na34 O100 2.755876 1_555
Na34 O96 2.764602 1_555
Na35 O109 2.301786 1_555
Na35 O113 2.400449 1_555
Na35 O111 2.445068 1_555
Na35 O97 2.796836 1_555
Na35 O101 2.821163 1_555
Na35 O99 2.828132 1_555
Na36 O114 2.363981 1_555
Na36 O116 2.524499 1_555
Na36 O118 2.548861 1_555
Na36 O104 2.653532 1_555
Na36 O102 2.667320 1_555
Na36 O106 2.719779 1_555
Na37 O117 2.455243 1_555
Na37 O119 2.467491 1_555
Na37 O107 2.617352 1_555
Na37 O115 2.640026 1_555
Na37 O105 2.667100 1_555
Na37 O103 2.699466 1_555
Na38 O132 2.574933 1_555
Na38 O134 2.576903 1_555
Na38 O120 2.577861 1_555
Na38 O136 2.589872 1_555
Na38 O122 2.594783 1_555
Na38 O124 2.664762 1_555
Na39 O137 2.355239 1_555
Na39 O123 2.489538 1_555
Na39 O121 2.583295 1_555
Na39 O133 2.599831 1_555
Na39 O135 2.726884 1_555
Na39 O125 2.774205 1_555
Na40 O140 2.320114 1_555
Na40 O138 2.524209 1_555
Na40 O126 2.592125 1_555
Na40 O142 2.624064 1_555
Na40 O130 2.637597 1_555
Na40 O128 2.779345 1_555
Na41 O139 2.513157 1_555
Na41 O141 2.521124 1_555
Na41 O143 2.523864 1_555
Na41 O127 2.602484 1_555
Na41 O131 2.607433 1_555
Na41 O129 2.723982 1_555
Mg0 O0 1.984919 1_555
Mg0 O5 2.041903 1_455
Mg0 O76 2.078437 1_555
Mg0 O72 2.151509 1_545
Mg0 O3 2.287506 1_445
Mg0 O75 2.373567 1_445
Mg1 O7 2.010496 1_565
Mg1 O81 2.040164 1_555
Mg1 O8 2.043880 1_555
Mg1 O79 2.102859 1_565
Mg1 O10 2.322570 1_565
Mg1 O82 2.330338 1_555
Mg2 O16 1.896355 1_545
Mg2 O14 2.006534 1_555
Mg2 O13 2.048445 1_445
Mg2 O86 2.081552 1_555
Mg2 O89 2.326782 1_445
Mg2 O85 2.381224 1_455
Mg3 O17 1.952315 1_545
Mg3 O15 1.990533 1_555
Mg3 O87 2.024077 1_555
Mg3 O84 2.128730 1_555
Mg3 O12 2.294280 1_545
Mg3 O88 2.318418 1_545
Mg4 O20 1.957150 1_555
Mg4 O22 1.995109 1_545
Mg4 O94 2.005869 1_555
Mg4 O91 2.124267 1_445
Mg4 O19 2.291144 1_445
Mg4 O93 2.326314 1_455
Mg5 O21 1.948496 1_555
Mg5 O23 2.029752 1_545
Mg5 O18 2.066059 1_545
Mg5 O95 2.086664 1_555
Mg5 O90 2.123580 1_545
Mg5 O92 2.312474 1_555
Mg6 O38 1.957291 1_556
Mg6 O36 1.975960 1_556
Mg6 O40 2.101821 1_556
Mg6 O112 2.103065 1_555
Mg6 O110 2.151417 1_555
Mg6 O108 2.286421 1_555
Mg7 O37 1.969700 1_556
Mg7 O39 2.001102 1_556
Mg7 O111 2.088825 1_555
Mg7 O109 2.093616 1_555
Mg7 O113 2.123032 1_555
Mg7 O41 2.236286 1_556
Mg8 O42 1.998633 1_555
Mg8 O46 2.006224 1_555
Mg8 O114 2.074071 1_555
Mg8 O118 2.082503 1_555
Mg8 O116 2.106081 1_555
Mg8 O44 2.243592 1_555
Mg9 O43 1.947735 1_555
Mg9 O117 2.027294 1_555
Mg9 O119 2.066940 1_555
Mg9 O45 2.087638 1_555
Mg9 O47 2.158539 1_555
Mg9 O115 2.233637 1_555
Mg10 O61 1.945741 1_555
Mg10 O65 1.981782 1_555
Mg10 O137 2.026055 1_555
Mg10 O133 2.066655 1_555
Mg10 O63 2.230756 1_555
Mg10 O135 2.319582 1_555
Mg11 O66 1.942455 1_555
Mg11 O68 1.975582 1_555
Mg11 O140 2.037833 1_555
Mg11 O138 2.092263 1_555
Mg11 O70 2.157006 1_555
Mg11 O142 2.341973 1_555
Nb0 O4 1.911588 1_555
Nb0 O1 1.965260 1_555
Nb0 O2 1.984035 1_545
Nb0 O77 2.090340 1_555
Nb0 O73 2.116823 1_545
Nb0 O74 2.121550 1_545
Nb1 O9 1.945248 1_455
Nb1 O6 1.993636 1_565
Nb1 O11 2.017486 1_465
Nb1 O80 2.051645 1_555
Nb1 O83 2.066320 1_455
Nb1 O78 2.084400 1_565
Nb2 O24 1.939157 1_555
Nb2 O26 1.944971 1_555
Nb2 O100 1.986687 1_555
Nb2 O98 2.030746 1_555
Nb2 O28 2.120661 1_555
Nb2 O96 2.122890 1_555
Nb3 O99 1.883270 1_555
Nb3 O97 1.941465 1_555
Nb3 O101 1.959800 1_555
Nb3 O27 1.969482 1_555
Nb3 O29 2.216578 1_555
Nb3 O25 2.247507 1_555
Nb4 O30 1.950152 1_555
Nb4 O102 1.982057 1_555
Nb4 O106 1.995889 1_555
Nb4 O34 1.996650 1_555
Nb4 O104 1.999346 1_555
Nb4 O32 2.242206 1_555
Nb5 O35 1.916535 1_555
Nb5 O31 1.935809 1_555
Nb5 O105 2.015263 1_555
Nb5 O107 2.051129 1_555
Nb5 O33 2.077760 1_555
Nb5 O103 2.156429 1_555
Nb6 O50 1.866028 1_554
Nb6 O122 1.941994 1_555
Nb6 O52 1.967021 1_554
Nb6 O120 1.995274 1_555
Nb6 O48 2.227351 1_554
Nb6 O124 2.286672 1_555
Nb7 O51 1.866185 1_554
Nb7 O53 1.951097 1_554
Nb7 O123 1.982711 1_555
Nb7 O121 2.025961 1_555
Nb7 O49 2.051340 1_554
Nb7 O125 2.388508 1_555
Nb8 O58 1.854285 1_555
Nb8 O54 1.912592 1_555
Nb8 O56 1.933798 1_555
Nb8 O126 2.015892 1_555
Nb8 O130 2.270444 1_555
Nb8 O128 2.361376 1_555
Nb9 O59 1.848062 1_555
Nb9 O131 1.942235 1_555
Nb9 O57 1.950188 1_555
Nb9 O127 2.015806 1_555
Nb9 O55 2.227441 1_555
Nb9 O129 2.345220 1_555
Nb10 O62 1.944307 1_555
Nb10 O132 1.973785 1_555
Nb10 O64 1.982459 1_555
Nb10 O134 2.010138 1_555
Nb10 O60 2.018788 1_555
Nb10 O136 2.035271 1_555
Nb11 O71 1.916193 1_555
Nb11 O69 1.950951 1_555
Nb11 O67 1.972888 1_555
Nb11 O139 2.017205 1_555
Nb11 O143 2.066162 1_555
Nb11 O141 2.079949 1_555
O0 Si0 1.618331 1_555
O1 Si1 1.715965 1_545
O2 Si2 1.678500 1_555
O3 S0 1.472221 1_555
O4 Si4 1.729924 1_555
O5 Si3 1.620968 1_555
O6 Si5 1.699558 1_555
O7 Si6 1.605169 1_555
O8 Si8 1.615927 1_555
O9 Si7 1.700920 1_655
O10 S1 1.469704 1_555
O11 Si9 1.661846 1_545
O12 S1 1.461921 1_565
O13 Si9 1.585838 1_555
O14 Si5 1.601422 1_555
O15 Si6 1.600875 1_555
O16 Si7 1.571457 1_555
O17 Si8 1.593456 1_555
O18 Si2 1.574982 1_555
O19 S0 1.472430 1_555
O20 Si3 1.590503 1_455
O21 Si4 1.573155 1_555
O22 Si0 1.609794 1_565
O23 Si1 1.589988 1_555
O24 Si10 1.696372 1_555
O25 S2 1.501329 1_555
O26 Si11 1.729065 1_555
O27 Si12 1.712961 1_555
O28 S3 1.528151 1_555
O29 S4 1.501951 1_555
O30 Si13 1.697777 1_555
O31 Si14 1.698372 1_555
O32 S5 1.494852 1_555
O33 S6 1.537426 1_555
O34 Si15 1.697819 1_555
O35 Si16 1.746934 1_555
O36 Si15 1.598085 1_555
O37 Si16 1.600347 1_555
O38 Si13 1.595141 1_555
O39 Si14 1.588385 1_555
O40 S5 1.470744 1_555
O41 S6 1.465339 1_555
O42 Si11 1.600138 1_555
O43 Si12 1.594480 1_555
O44 S3 1.462515 1_555
O45 S4 1.467938 1_555
O46 Si10 1.587578 1_555
O47 S2 1.459002 1_555
O48 S7 1.513752 1_555
O49 Si17 1.656347 1_555
O50 Si18 1.728417 1_555
O51 Si19 1.709339 1_555
O52 Si20 1.709762 1_555
O53 Si21 1.680470 1_555
O54 Si22 1.706106 1_555
O55 S8 1.520274 1_555
O56 Si23 1.711881 1_555
O57 Si24 1.721838 1_555
O58 Si25 1.729435 1_555
O59 Si26 1.746725 1_555
O60 Si25 1.642018 1_555
O61 Si26 1.582979 1_555
O62 Si22 1.630636 1_555
O63 S8 1.467283 1_555
O64 Si23 1.655441 1_555
O65 Si24 1.596716 1_555
O66 Si18 1.588868 1_555
O67 Si19 1.662391 1_555
O68 Si20 1.601561 1_555
O69 Si21 1.672634 1_555
O70 S7 1.474239 1_555
O71 Si17 1.656609 1_555
O72 Si25 1.608291 1_555
O73 Si26 1.654694 1_555
O74 Si22 1.636282 1_555
O75 S8 1.486392 1_555
O76 Si23 1.614583 1_555
O77 Si24 1.673662 1_555
O78 Si18 1.660252 1_555
O79 Si19 1.607660 1_555
O80 Si20 1.686486 1_555
O81 Si21 1.611528 1_555
O82 S7 1.483562 1_555
O83 Si17 1.657716 1_555
O84 Si10 1.613935 1_555
O85 S2 1.485645 1_555
O86 Si11 1.604544 1_555
O87 Si12 1.603580 1_555
O88 S3 1.466750 1_555
O89 S4 1.466434 1_555
O90 Si13 1.615193 1_555
O91 Si14 1.612737 1_555
O92 S5 1.462414 1_555
O93 S6 1.470544 1_555
O94 Si15 1.606620 1_555
O95 Si16 1.588891 1_555
O96 S1 1.553958 1_555
O97 Si9 1.721768 1_545
O98 Si5 1.702506 1_555
O99 Si6 1.712793 1_555
O100 Si8 1.719974 1_555
O101 Si7 1.684313 1_655
O102 Si2 1.695110 1_555
O103 S0 1.546854 1_555
O104 Si4 1.669535 1_555
O105 Si3 1.707091 1_555
O106 Si0 1.668193 1_555
O107 Si1 1.700290 1_545
O108 S7 1.487515 1_555
O109 Si17 1.599037 1_555
O110 Si19 1.610224 1_555
O111 Si18 1.602360 1_655
O112 Si20 1.616848 1_545
O113 Si21 1.609384 1_545
O114 Si22 1.591958 1_545
O115 S8 1.489623 1_545
O116 Si23 1.606074 1_555
O117 Si24 1.622664 1_555
O118 Si26 1.602583 1_555
O119 Si25 1.614740 1_655
O120 Si15 1.712293 1_555
O121 Si16 1.688147 1_555
O122 Si14 1.706744 1_455
O123 Si13 1.704569 1_555
O124 S5 1.539799 1_565
O125 S6 1.499164 1_565
O126 Si11 1.711917 1_565
O127 Si12 1.703760 1_565
O128 S3 1.519084 1_555
O129 S4 1.529050 1_555
O130 S2 1.518541 1_455
O131 Si10 1.708771 1_555
O132 Si0 1.676434 1_565
O133 Si1 1.617753 1_555
O134 Si2 1.654616 1_555
O135 S0 1.481445 1_555
O136 Si3 1.681780 1_455
O137 Si4 1.627528 1_555
O138 Si5 1.618602 1_555
O139 Si6 1.653369 1_555
O140 Si7 1.621152 1_555
O141 Si8 1.677026 1_555
O142 S1 1.488158 1_565
O143 Si9 1.643334 1_555
