# generated using pymatgen
data_CsI2Br
_symmetry_space_group_name_H-M   'P 1'
_cell_length_a   6.75237673
_cell_length_b   9.85461233
_cell_length_c   10.92567661
_cell_angle_alpha   90.00000000
_cell_angle_beta   90.00000000
_cell_angle_gamma   90.00000000
_symmetry_Int_Tables_number   1
_chemical_formula_structural   CsI2Br
_chemical_formula_sum   'Cs4 I8 Br4'
_cell_volume   727.01697368
_cell_formula_units_Z   4
loop_
 _symmetry_equiv_pos_site_id
 _symmetry_equiv_pos_as_xyz
  1  'x, y, z'
loop_
 _atom_site_type_symbol
 _atom_site_label
 _atom_site_symmetry_multiplicity
 _atom_site_fract_x
 _atom_site_fract_y
 _atom_site_fract_z
 _atom_site_occupancy
  Cs  Cs0  1  0.25000000  0.45215751  0.16695583  1
  Cs  Cs1  1  0.75000000  0.54784249  0.83304417  1
  Cs  Cs2  1  0.75000000  0.95215751  0.33304417  1
  Cs  Cs3  1  0.25000000  0.04784249  0.66695583  1
  I  I0  1  0.25000000  0.55058272  0.62923333  1
  I  I1  1  0.75000000  0.44941728  0.37076667  1
  I  I2  1  0.75000000  0.05058272  0.87076667  1
  I  I3  1  0.25000000  0.94941728  0.12923333  1
  I  I4  1  0.25000000  0.73347073  0.42846578  1
  I  I5  1  0.75000000  0.26652927  0.57153422  1
  I  I6  1  0.75000000  0.23347073  0.07153422  1
  I  I7  1  0.25000000  0.76652927  0.92846578  1
  Br  Br0  1  0.25000000  0.36969657  0.83434707  1
  Br  Br1  1  0.75000000  0.63030343  0.16565293  1
  Br  Br2  1  0.75000000  0.86969657  0.66565293  1
  Br  Br3  1  0.25000000  0.13030343  0.33434707  1
loop_
_geom_bond_atom_site_label_1
_geom_bond_atom_site_label_2
_geom_bond_distance
_geom_bond_site_symmetry_2
Cs0 I4 3.981044 1_555
Cs0 I1 4.044489 1_555
Cs0 I1 4.044489 1_455
Cs0 I7 4.048107 1_554
Cs0 I6 4.138827 1_555
Cs0 I6 4.138827 1_455
Cs1 I5 3.981044 1_555
Cs1 I0 4.044489 1_555
Cs1 I0 4.044489 1_655
Cs1 I6 4.048107 1_556
Cs1 I7 4.138827 1_555
Cs1 I7 4.138827 1_655
Cs2 I6 3.981044 1_565
Cs2 I3 4.044489 1_655
Cs2 I3 4.044489 1_555
Cs2 I5 4.048107 1_565
Cs2 I4 4.138827 1_655
Cs2 I4 4.138827 1_555
Cs3 I7 3.981044 1_545
Cs3 I2 4.044489 1_555
Cs3 I2 4.044489 1_455
Cs3 I4 4.048107 1_545
Cs3 I5 4.138827 1_455
Cs3 I5 4.138827 1_555
I0 I4 2.838976 1_555
I1 I5 2.838976 1_555
I2 I6 2.838976 1_556
I3 I7 2.838976 1_554
Br0 I0 2.863501 1_555
Br0 Cs3 3.661245 1_555
Br0 Cs0 3.723726 1_556
Br0 Cs1 3.805370 1_455
Br0 Cs1 3.805370 1_555
Br1 I1 2.863501 1_555
Br1 Cs2 3.661245 1_555
Br1 Cs1 3.723726 1_554
Br1 Cs0 3.805370 1_555
Br1 Cs0 3.805370 1_655
Br2 I2 2.863501 1_565
Br2 Cs1 3.661245 1_555
Br2 Cs2 3.723726 1_555
Br2 Cs3 3.805370 1_565
Br2 Cs3 3.805370 1_665
Br3 I3 2.863501 1_545
Br3 Cs0 3.661245 1_555
Br3 Cs3 3.723726 1_555
Br3 Cs2 3.805370 1_445
Br3 Cs2 3.805370 1_545
