# generated using pymatgen
data_K2(NbCl3)3
_symmetry_space_group_name_H-M   'P 1'
_cell_length_a   9.77709131
_cell_length_b   9.77709131
_cell_length_c   9.63134031
_cell_angle_alpha   77.23656880
_cell_angle_beta   77.23656880
_cell_angle_gamma   117.60736643
_symmetry_Int_Tables_number   1
_chemical_formula_structural   K2(NbCl3)3
_chemical_formula_sum   'K4 Nb6 Cl18'
_cell_volume   737.91810376
_cell_formula_units_Z   2
loop_
 _symmetry_equiv_pos_site_id
 _symmetry_equiv_pos_as_xyz
  1  'x, y, z'
loop_
 _atom_site_type_symbol
 _atom_site_label
 _atom_site_symmetry_multiplicity
 _atom_site_fract_x
 _atom_site_fract_y
 _atom_site_fract_z
 _atom_site_occupancy
  K  K0  1  0.44768730  0.76917797  0.67369112  1
  K  K1  1  0.23082203  0.55231270  0.32630888  1
  K  K2  1  0.55231270  0.23082203  0.32630888  1
  K  K3  1  0.76917797  0.44768730  0.67369112  1
  Nb  Nb0  1  0.22258238  0.04729697  0.85778366  1
  Nb  Nb1  1  0.95270303  0.77741762  0.14221634  1
  Nb  Nb2  1  0.04729697  0.22258238  0.85778366  1
  Nb  Nb3  1  0.77741762  0.95270303  0.14221634  1
  Nb  Nb4  1  0.12176525  0.12176525  0.12829376  1
  Nb  Nb5  1  0.87823475  0.87823475  0.87170624  1
  Cl  Cl0  1  0.87959830  0.08691080  0.31789344  1
  Cl  Cl1  1  0.49493443  0.89159590  0.32562994  1
  Cl  Cl2  1  0.27419673  0.27419673  0.28619478  1
  Cl  Cl3  1  0.72580327  0.72580327  0.71380522  1
  Cl  Cl4  1  0.89159590  0.49493443  0.32562994  1
  Cl  Cl5  1  0.50506557  0.10840410  0.67437006  1
  Cl  Cl6  1  0.67833849  0.67833849  0.33478078  1
  Cl  Cl7  1  0.32166151  0.32166151  0.66521922  1
  Cl  Cl8  1  0.79213029  0.20786971  -0.00000000  1
  Cl  Cl9  1  0.20786971  0.79213029  -0.00000000  1
  Cl  Cl10  1  0.08691080  0.87959830  0.31789344  1
  Cl  Cl11  1  0.19806133  0.40747921  0.98326790  1
  Cl  Cl12  1  0.40747921  0.19806133  0.98326790  1
  Cl  Cl13  1  0.80193867  0.59252079  0.01673210  1
  Cl  Cl14  1  0.59252079  0.80193867  0.01673210  1
  Cl  Cl15  1  0.91308920  0.12040170  0.68210656  1
  Cl  Cl16  1  0.12040170  0.91308920  0.68210656  1
  Cl  Cl17  1  0.10840410  0.50506557  0.67437006  1
loop_
_geom_bond_atom_site_label_1
_geom_bond_atom_site_label_2
_geom_bond_distance
_geom_bond_site_symmetry_2
Cl0 Nb3 2.468935 1_545
Cl0 Nb4 2.474579 1_655
Cl1 Nb3 2.637049 1_555
Cl1 K2 3.098651 1_565
Cl1 K1 3.117026 1_555
Cl1 K0 3.148698 1_555
Cl2 Nb4 2.588318 1_555
Cl2 K1 3.030432 1_555
Cl2 K2 3.030432 1_555
Cl3 Nb5 2.588318 1_555
Cl3 K3 3.030432 1_555
Cl3 K0 3.030432 1_555
Cl4 Nb1 2.637049 1_555
Cl4 K1 3.098651 1_655
Cl4 K2 3.117026 1_555
Cl4 K3 3.148698 1_555
Cl5 Nb0 2.637049 1_555
Cl5 K0 3.098651 1_545
Cl5 K3 3.117026 1_555
Cl5 K2 3.148698 1_555
Cl6 Nb1 2.484633 1_555
Cl6 Nb3 2.484633 1_555
Cl7 Nb2 2.484633 1_555
Cl7 Nb0 2.484633 1_555
Cl8 Nb3 2.488226 1_545
Cl8 Nb2 2.488226 1_654
Cl8 K3 3.601180 1_554
Cl8 K2 3.601180 1_555
Cl9 Nb1 2.488226 1_455
Cl9 Nb0 2.488226 1_564
Cl9 K0 3.601180 1_554
Cl9 K1 3.601180 1_555
Cl10 Nb1 2.468935 1_455
Cl10 Nb4 2.474579 1_565
Cl11 Nb2 2.486816 1_555
Cl11 Nb4 2.489000 1_556
Cl11 K0 3.388069 1_555
Cl12 Nb0 2.486816 1_555
Cl12 Nb4 2.489000 1_556
Cl12 K3 3.388069 1_555
Cl13 Nb1 2.486816 1_555
Cl13 Nb5 2.489000 1_554
Cl13 K2 3.388069 1_555
Cl14 Nb3 2.486816 1_555
Cl14 Nb5 2.489000 1_554
Cl14 K1 3.388069 1_555
Cl15 Nb2 2.468935 1_655
Cl15 Nb5 2.474579 1_545
Cl16 Nb0 2.468935 1_565
Cl16 Nb5 2.474579 1_455
Cl17 Nb2 2.637049 1_555
Cl17 K3 3.098651 1_455
Cl17 K0 3.117026 1_555
Cl17 K1 3.148698 1_555
