# generated using pymatgen
data_MgTiMnV4O12
_symmetry_space_group_name_H-M   'P 1'
_cell_length_a   7.15932795
_cell_length_b   7.15920597
_cell_length_c   5.47287296
_cell_angle_alpha   72.07523403
_cell_angle_beta   107.92631647
_cell_angle_gamma   104.00158729
_symmetry_Int_Tables_number   1
_chemical_formula_structural   MgTiMnV4O12
_chemical_formula_sum   'Mg1 Ti1 Mn1 V4 O12'
_cell_volume   250.55951606
_cell_formula_units_Z   1
loop_
 _symmetry_equiv_pos_site_id
 _symmetry_equiv_pos_as_xyz
  1  'x, y, z'
loop_
 _atom_site_type_symbol
 _atom_site_label
 _atom_site_symmetry_multiplicity
 _atom_site_fract_x
 _atom_site_fract_y
 _atom_site_fract_z
 _atom_site_occupancy
  Mg  Mg0  1  0.71791538  0.71791535  0.74999653  1
  Ti  Ti0  1  0.92003365  0.92004303  0.25000463  1
  Mn  Mn0  1  0.10840486  0.10840215  0.75000901  1
  V  V0  1  0.19339940  0.62069094  0.75598305  1
  V  V1  1  0.38950400  0.83682256  0.22113204  1
  V  V2  1  0.62069237  0.19340033  0.74402980  1
  V  V3  1  0.83681144  0.38948750  0.27887183  1
  O  O0  1  0.02649547  0.79565674  0.64728316  1
  O  O1  1  0.05323702  0.40625945  0.66031407  1
  O  O2  1  0.17172430  0.96805783  0.16892274  1
  O  O3  1  0.39999905  0.70076421  0.62108833  1
  O  O4  1  0.40625232  0.05323393  0.83968596  1
  O  O5  1  0.27844565  0.59381744  0.09469976  1
  O  O6  1  0.70076036  0.39999532  0.87890203  1
  O  O7  1  0.66827771  0.85423307  0.35238540  1
  O  O8  1  0.59380817  0.27843627  0.40527952  1
  O  O9  1  0.79565582  0.02648302  0.85271669  1
  O  O10  1  0.85422902  0.66827935  0.14761890  1
  O  O11  1  0.96805703  0.17172651  0.33107853  1
loop_
_geom_bond_atom_site_label_1
_geom_bond_atom_site_label_2
_geom_bond_distance
_geom_bond_site_symmetry_2
Mg0 O7 2.049048 1_555
Mg0 O10 2.049083 1_556
Mg0 O3 2.150090 1_555
Mg0 O6 2.150095 1_555
Mg0 O9 2.341536 1_565
Mg0 O0 2.341658 1_655
Mn0 O4 2.141944 1_555
Mn0 O1 2.141976 1_555
Mn0 O2 2.152677 1_546
Mn0 O11 2.152749 1_455
Mn0 O0 2.368468 1_545
Mn0 O9 2.368499 1_455
O0 V0 1.782917 1_555
O0 Ti0 2.053733 1_455
O1 V0 1.750342 1_555
O1 V3 2.201437 1_455
O2 Ti0 1.913284 1_455
O2 V1 1.914344 1_555
O3 V0 1.750095 1_555
O3 V1 2.089866 1_555
O4 V2 1.750409 1_555
O4 V1 2.201413 1_546
O5 V0 1.728145 1_554
O5 V1 1.967376 1_555
O6 V2 1.749949 1_555
O6 V3 2.089887 1_556
O7 V1 1.888668 1_555
O7 Ti0 1.957770 1_555
O8 V2 1.728312 1_555
O8 V3 1.967341 1_555
O9 V2 1.782982 1_555
O9 Ti0 2.053737 1_546
O10 V3 1.888774 1_555
O10 Ti0 1.957792 1_555
O11 Ti0 1.913163 1_545
O11 V3 1.914265 1_555
