# generated using pymatgen
data_Na6MgSi2Ge3(PO6)4
_symmetry_space_group_name_H-M   'P 1'
_cell_length_a   8.72860703
_cell_length_b   8.73241899
_cell_length_c   21.61756778
_cell_angle_alpha   90.33000799
_cell_angle_beta   90.05334882
_cell_angle_gamma   120.09608590
_symmetry_Int_Tables_number   1
_chemical_formula_structural   Na6MgSi2Ge3(PO6)4
_chemical_formula_sum   'Na18 Mg3 Si6 Ge9 P12 O72'
_cell_volume   1425.55580459
_cell_formula_units_Z   3
loop_
 _symmetry_equiv_pos_site_id
 _symmetry_equiv_pos_as_xyz
  1  'x, y, z'
loop_
 _atom_site_type_symbol
 _atom_site_label
 _atom_site_symmetry_multiplicity
 _atom_site_fract_x
 _atom_site_fract_y
 _atom_site_fract_z
 _atom_site_occupancy
  Na  Na0  1  0.00754482  0.00139419  0.50116283  1
  Na  Na1  1  0.00061706  0.00056839  0.99935481  1
  Na  Na2  1  0.65108058  0.30239562  0.83245530  1
  Na  Na3  1  0.65179721  0.33549984  0.32670392  1
  Na  Na4  1  0.32940769  0.66691175  0.16258149  1
  Na  Na5  1  0.32544234  0.66646033  0.66538527  1
  Na  Na6  1  0.64303658  0.01059334  0.24393297  1
  Na  Na7  1  0.99060231  0.62930504  0.24163655  1
  Na  Na8  1  0.62690164  0.61485190  0.74474899  1
  Na  Na9  1  0.99270462  0.37023612  0.74742316  1
  Na  Na10  1  0.66575410  0.97427300  0.58731368  1
  Na  Na11  1  0.66438078  0.68866951  0.08074946  1
  Na  Na12  1  0.02443669  0.33751998  0.08479630  1
  Na  Na13  1  0.96698357  0.66966696  0.91863976  1
  Na  Na14  1  0.33426408  0.30164342  0.91847191  1
  Na  Na15  1  0.96181178  0.28573373  0.41353581  1
  Na  Na16  1  0.32900281  0.03739346  0.41193071  1
  Na  Na17  1  0.71535462  0.68021122  0.41682994  1
  Mg  Mg0  1  0.99943937  0.99891962  0.35428201  1
  Mg  Mg1  1  0.66001117  0.32833385  0.68613993  1
  Mg  Mg2  1  0.66736038  0.33465136  0.18298822  1
  Si  Si0  1  0.66621544  0.62340619  0.58623281  1
  Si  Si1  1  0.96706779  0.63096912  0.08434386  1
  Si  Si2  1  0.61866404  0.67006293  0.91581280  1
  Si  Si3  1  0.04236295  0.37821554  0.91540697  1
  Si  Si4  1  0.34057836  0.95815470  0.91558332  1
  Si  Si5  1  0.61749723  0.95884208  0.41916655  1
  Ge  Ge0  1  0.99813367  0.00142331  0.85777904  1
  Ge  Ge1  1  0.00118080  0.99177276  0.64533595  1
  Ge  Ge2  1  0.00646083  -0.00020792  0.14727941  1
  Ge  Ge3  1  0.66972867  0.33703432  0.97833248  1
  Ge  Ge4  1  0.66468534  0.33091309  0.48544162  1
  Ge  Ge5  1  0.32902388  0.67102580  0.01535405  1
  Ge  Ge6  1  0.33718321  0.66503772  0.52249406  1
  Ge  Ge7  1  0.33725478  0.67064069  0.31280625  1
  Ge  Ge8  1  0.33388553  0.67429987  0.81617201  1
  P  P0  1  0.28919586  0.99606029  0.25350781  1
  P  P1  1  0.70216552  0.70907186  0.25191126  1
  P  P2  1  0.01249788  0.29609537  0.25228654  1
  P  P3  1  0.27870030  0.28078045  0.75151196  1
  P  P4  1  0.01324608  0.72176569  0.75191050  1
  P  P5  1  0.71113437  0.99159413  0.75059159  1
  P  P6  1  0.96541989  0.33758972  0.58502300  1
  P  P7  1  0.37002051  0.04004323  0.58277954  1
  P  P8  1  0.66315824  0.04060309  0.08426487  1
  P  P9  1  0.37329878  0.33075392  0.08245478  1
  P  P10  1  0.34120454  0.38868524  0.41746755  1
  P  P11  1  0.04763153  0.65759746  0.41779714  1
  O  O0  1  0.20973931  0.01120765  0.31344095  1
  O  O1  1  0.80711289  0.79047261  0.31093415  1
  O  O2  1  0.98975346  0.18861270  0.30976032  1
  O  O3  1  0.19332794  0.17789858  0.81172012  1
  O  O4  1  0.98322785  0.80732996  0.81027473  1
  O  O5  1  0.83297782  0.02206187  0.80666629  1
  O  O6  1  0.79263427  0.96060432  0.68982370  1
  O  O7  1  0.15397613  0.19086294  0.69449235  1
  O  O8  1  0.03721886  0.83205624  0.69303491  1
  O  O9  1  0.79065056  0.83243162  0.19355449  1
  O  O10  1  0.03295433  0.20628262  0.19149423  1
  O  O11  1  0.16269481  0.96227487  0.19667430  1
  O  O12  1  0.88736735  0.36332507  0.64362658  1
  O  O13  1  0.49837198  0.11951082  0.63560871  1
  O  O14  1  0.63597093  0.51772827  0.64787688  1
  O  O15  1  0.89444764  0.51360327  0.14466682  1
  O  O16  1  0.63908303  0.11125489  0.14514959  1
  O  O17  1  0.49065477  0.36371138  0.13728245  1
  O  O18  1  0.44872014  0.29924445  0.02115319  1
  O  O19  1  0.82879962  0.54112678  0.02425392  1
  O  O20  1  0.70157136  0.16944345  0.02947945  1
  O  O21  1  0.44775300  0.14983161  0.52108112  1
  O  O22  1  0.69862388  0.53177393  0.52283397  1
  O  O23  1  0.83711372  0.29336187  0.52649961  1
  O  O24  1  0.53273100  0.70286922  0.97765193  1
  O  O25  1  0.17437103  0.46086817  0.97514890  1
  O  O26  1  0.28129443  0.81965501  0.97242181  1
  O  O27  1  0.52517223  0.83187186  0.47834758  1
  O  O28  1  0.29986367  0.46726081  0.47466541  1
  O  O29  1  0.16875079  0.68789099  0.47315415  1
  O  O30  1  0.12358903  0.62038095  0.35704929  1
  O  O31  1  0.48999194  0.87601247  0.35645249  1
  O  O32  1  0.37926431  0.51035375  0.36001578  1
  O  O33  1  0.12436036  0.50773089  0.85434500  1
  O  O34  1  0.38485624  0.87825211  0.85418255  1
  O  O35  1  0.48822346  0.61906815  0.85486946  1
  O  O36  1  0.02558357  0.82053473  0.41489587  1
  O  O37  1  0.81281382  0.98342764  0.41652374  1
  O  O38  1  0.18254997  0.20130460  0.41243275  1
  O  O39  1  0.02639250  0.18405012  0.90985844  1
  O  O40  1  0.16329893  0.98099976  0.90938430  1
  O  O41  1  0.81978743  0.83935471  0.90972261  1
  O  O42  1  0.98422569  0.16843564  0.58714267  1
  O  O43  1  0.18754184  0.02872559  0.58942051  1
  O  O44  1  0.84390518  0.82911496  0.58762629  1
  O  O45  1  0.97652061  0.82602752  0.09068994  1
  O  O46  1  0.83649984  0.02280540  0.08756120  1
  O  O47  1  0.17954498  0.16739710  0.08906546  1
  O  O48  1  0.69346211  0.15616305  0.74659072  1
  O  O49  1  0.46299694  0.30376354  0.74839931  1
  O  O50  1  0.84995851  0.53471736  0.74910009  1
  O  O51  1  0.68097063  0.52617163  0.24391519  1
  O  O52  1  0.84805416  0.31782564  0.24796028  1
  O  O53  1  0.47620545  0.15116702  0.24561681  1
  O  O54  1  0.63909685  0.49210368  0.92186691  1
  O  O55  1  0.85058856  0.36488818  0.92414209  1
  O  O56  1  0.51121319  0.15573965  0.92535840  1
  O  O57  1  0.63261140  0.15792190  0.42480425  1
  O  O58  1  0.51420314  0.37685084  0.42235884  1
  O  O59  1  0.86082632  0.48720875  0.42290602  1
  O  O60  1  0.35273845  0.49898981  0.07717625  1
  O  O61  1  0.16078106  0.64633485  0.07345842  1
  O  O62  1  0.50314484  0.85048016  0.07524458  1
  O  O63  1  0.34083676  0.84919048  0.57466854  1
  O  O64  1  0.49404090  0.65605345  0.57792018  1
  O  O65  1  0.14735274  0.50535990  0.57458768  1
  O  O66  1  0.29703867  0.81591536  0.25277182  1
  O  O67  1  0.51854990  0.70389767  0.25437010  1
  O  O68  1  0.18403173  0.48509306  0.25450860  1
  O  O69  1  0.29136648  0.46844562  0.75291282  1
  O  O70  1  0.18516624  0.70605987  0.75390029  1
  O  O71  1  0.52942225  0.81452535  0.75467412  1
loop_
_geom_bond_atom_site_label_1
_geom_bond_atom_site_label_2
_geom_bond_distance
_geom_bond_site_symmetry_2
Na0 O44 2.383145 1_445
Na0 O43 2.403880 1_555
Na0 O42 2.427154 1_455
Na0 O37 2.446410 1_445
Na0 O36 2.492570 1_545
Na0 O38 2.535694 1_555
Na1 O41 2.441717 1_445
Na1 O45 2.445337 1_446
Na1 O47 2.449992 1_556
Na1 O46 2.450616 1_456
Na1 O39 2.456791 1_555
Na1 O40 2.464353 1_545
Na2 O56 2.372794 1_555
Na2 O48 2.379210 1_555
Na2 O49 2.451839 1_555
Na2 O55 2.507371 1_555
Na2 O54 2.574593 1_555
Na2 O50 2.625291 1_555
Na3 O53 2.345429 1_555
Na3 O51 2.376995 1_555
Na3 O52 2.474583 1_555
Na3 O58 2.505926 1_555
Na3 O57 2.590000 1_555
Na3 O59 2.635528 1_555
Na4 O61 2.374041 1_555
Na4 O60 2.422674 1_555
Na4 O66 2.432007 1_555
Na4 O62 2.456853 1_555
Na4 O68 2.469948 1_555
Na4 O67 2.493778 1_555
Na5 O70 2.387791 1_555
Na5 O64 2.426178 1_555
Na5 O65 2.453054 1_555
Na5 O69 2.486266 1_555
Na5 O71 2.494713 1_555
Na5 O63 2.496308 1_555
Na6 O16 2.320764 1_555
Na6 O53 2.328317 1_555
Na6 O67 2.343753 1_545
Na6 O52 2.364280 1_555
Na6 O66 2.627388 1_545
Na6 O9 2.694464 1_545
Na6 O31 2.747130 1_545
Na7 O15 2.289405 1_555
Na7 O66 2.343226 1_655
Na7 O52 2.361256 1_555
Na7 O51 2.382755 1_555
Na7 O68 2.578650 1_655
Na7 O11 2.703776 1_655
Na7 O30 2.768720 1_655
Na8 O14 2.271164 1_555
Na8 O71 2.300907 1_555
Na8 O49 2.353213 1_555
Na8 O50 2.378244 1_555
Na8 O69 2.547861 1_555
Na8 O35 2.680036 1_555
Na8 O6 2.877936 1_555
Na9 O69 2.302515 1_655
Na9 O50 2.326172 1_555
Na9 O48 2.328062 1_555
Na9 O12 2.413037 1_555
Na9 O70 2.548663 1_655
Na9 O33 2.585347 1_655
Na9 O7 2.817445 1_655
Na9 O5 2.936829 1_555
Na10 O64 2.413597 1_555
Na10 O42 2.423909 1_565
Na10 O44 2.449851 1_555
Na10 O63 2.489872 1_555
Na10 O6 2.506503 1_555
Na10 O13 2.584377 1_565
Na10 O27 2.651673 1_555
Na10 O23 2.756025 1_565
Na11 O45 2.372024 1_555
Na11 O60 2.372429 1_555
Na11 O62 2.446918 1_555
Na11 O46 2.527986 1_565
Na11 O24 2.538572 1_554
Na11 O19 2.655326 1_555
Na11 O9 2.703601 1_555
Na11 O17 2.751953 1_555
Na12 O61 2.353317 1_555
Na12 O46 2.393328 1_455
Na12 O47 2.463119 1_555
Na12 O60 2.485618 1_555
Na12 O10 2.598969 1_555
Na12 O15 2.656368 1_455
Na12 O25 2.666975 1_554
Na12 O20 2.711356 1_455
Na13 O55 2.328466 1_555
Na13 O40 2.387955 1_655
Na13 O41 2.407442 1_555
Na13 O54 2.480152 1_555
Na13 O19 2.569870 1_556
Na13 O4 2.610566 1_555
Na13 O26 2.639457 1_655
Na13 O33 2.783440 1_655
Na14 O54 2.326215 1_555
Na14 O39 2.353724 1_555
Na14 O40 2.430653 1_545
Na14 O18 2.437842 1_556
Na14 O56 2.450785 1_555
Na14 O3 2.576697 1_555
Na14 O25 2.704064 1_555
Na14 O35 2.773310 1_555
Na15 O37 2.285467 1_545
Na15 O59 2.337715 1_555
Na15 O38 2.383482 1_655
Na15 O2 2.449088 1_555
Na15 O57 2.519890 1_555
Na15 O23 2.688551 1_555
Na15 O30 2.816136 1_655
Na15 O28 2.871141 1_655
Na16 O57 2.325096 1_555
Na16 O0 2.328221 1_555
Na16 O38 2.349013 1_555
Na16 O36 2.361399 1_545
Na16 O21 2.560090 1_555
Na16 O58 2.576204 1_555
Na16 O31 2.714522 1_545
Na17 O58 2.335372 1_555
Na17 O37 2.340052 1_555
Na17 O36 2.347094 1_655
Na17 O1 2.462607 1_555
Na17 O59 2.572653 1_555
Na17 O22 2.607240 1_555
Na17 O32 2.814762 1_555
Na17 O27 2.909785 1_555
Mg0 O2 1.958584 1_565
Mg0 O1 1.980507 1_555
Mg0 O0 1.991755 1_665
Mg0 O37 2.065782 1_555
Mg0 O38 2.096656 1_665
Mg0 O36 2.138930 1_655
Mg1 O14 1.956270 1_555
Mg1 O13 1.975610 1_555
Mg1 O12 2.067543 1_555
Mg1 O49 2.110047 1_555
Mg1 O48 2.124987 1_555
Mg1 O50 2.195488 1_555
Mg2 O17 1.952487 1_555
Mg2 O15 1.992156 1_555
Mg2 O16 2.008468 1_555
Mg2 O51 2.078692 1_555
Mg2 O53 2.128899 1_555
Mg2 O52 2.170841 1_555
Ge0 O39 1.859013 1_655
Ge0 O41 1.870617 1_545
Ge0 O5 1.895100 1_555
Ge0 O40 1.900494 1_645
Ge0 O3 1.912245 1_655
Ge0 O4 1.924253 1_545
Ge1 O44 1.865283 1_455
Ge1 O8 1.887689 1_555
Ge1 O7 1.892387 1_565
Ge1 O43 1.921719 1_565
Ge1 O6 1.954977 1_455
Ge1 O42 2.057996 1_465
Ge2 O45 1.856773 1_445
Ge2 O11 1.885895 1_545
Ge2 O10 1.944221 1_555
Ge2 O47 1.953311 1_555
Ge2 O9 1.986041 1_445
Ge2 O46 2.050909 1_455
Ge3 O56 1.873898 1_555
Ge3 O55 1.882890 1_555
Ge3 O19 1.893394 1_556
Ge3 O54 1.943369 1_555
Ge3 O20 1.966604 1_556
Ge3 O18 2.013851 1_556
Ge4 O22 1.811019 1_555
Ge4 O57 1.905526 1_555
Ge4 O23 1.912157 1_555
Ge4 O21 1.921798 1_555
Ge4 O58 2.068157 1_555
Ge4 O59 2.074495 1_555
Ge5 O26 1.809664 1_554
Ge5 O24 1.847323 1_554
Ge5 O25 1.854850 1_554
Ge5 O61 1.862736 1_555
Ge5 O62 2.006535 1_555
Ge5 O60 2.102449 1_555
Ge6 O27 1.829525 1_555
Ge6 O64 1.849895 1_555
Ge6 O28 1.890105 1_555
Ge6 O29 1.905962 1_555
Ge6 O65 1.913741 1_555
Ge6 O63 1.945953 1_555
Ge7 O31 1.861230 1_555
Ge7 O32 1.914582 1_555
Ge7 O67 1.931668 1_555
Ge7 O30 1.942387 1_555
Ge7 O68 1.949947 1_555
Ge7 O66 1.970171 1_555
Ge8 O34 1.798016 1_555
Ge8 O35 1.844297 1_555
Ge8 O33 1.868198 1_555
Ge8 O70 1.984006 1_555
Ge8 O71 2.026530 1_555
Ge8 O69 2.130929 1_555
O0 P0 1.506256 1_545
O1 P1 1.518798 1_555
O2 P2 1.513617 1_655
O3 P3 1.549300 1_555
O4 P4 1.550775 1_655
O5 P5 1.543178 1_545
O6 P5 1.579778 1_555
O7 P3 1.565295 1_555
O8 P4 1.550400 1_555
O9 P1 1.591058 1_555
O10 P2 1.582108 1_555
O11 P0 1.575533 1_555
O12 P6 1.507147 1_555
O13 P7 1.499911 1_555
O14 Si0 1.570860 1_555
O15 Si1 1.586852 1_555
O16 P8 1.509410 1_555
O17 P9 1.495016 1_555
O18 P9 1.563433 1_555
O19 Si1 1.671891 1_555
O20 P8 1.555196 1_555
O21 P7 1.588232 1_555
O22 Si0 1.677422 1_555
O23 P6 1.600599 1_555
O24 Si2 1.626256 1_555
O25 Si3 1.633692 1_555
O26 Si4 1.621999 1_555
O27 Si5 1.624086 1_555
O28 P10 1.539244 1_555
O29 P11 1.527490 1_555
O30 P11 1.575608 1_555
O31 Si5 1.666842 1_555
O32 P10 1.563219 1_555
O33 Si3 1.655581 1_555
O34 Si4 1.630574 1_555
O35 Si2 1.646894 1_555
O36 P11 1.530051 1_555
O37 Si5 1.609064 1_555
O38 P10 1.527137 1_555
O39 Si3 1.633780 1_555
O40 Si4 1.661843 1_555
O41 Si2 1.638461 1_555
O42 P6 1.566805 1_555
O43 P7 1.552436 1_555
O44 Si0 1.684753 1_555
O45 Si1 1.668324 1_555
O46 P8 1.598203 1_555
O47 P9 1.580753 1_555
O48 P5 1.523225 1_545
O49 P3 1.519585 1_555
O50 P4 1.538492 1_655
O51 P1 1.521662 1_555
O52 P2 1.542123 1_655
O53 P0 1.521184 1_545
O54 Si2 1.656551 1_555
O55 Si3 1.629934 1_655
O56 Si4 1.630309 1_545
O57 Si5 1.679874 1_545
O58 P10 1.567930 1_555
O59 P11 1.566471 1_655
O60 P9 1.571563 1_555
O61 Si1 1.644965 1_455
O62 P8 1.554138 1_565
O63 P7 1.563326 1_565
O64 Si0 1.673883 1_555
O65 P6 1.546042 1_455
O66 P0 1.608509 1_555
O67 P1 1.581487 1_555
O68 P2 1.577535 1_555
O69 P3 1.586325 1_555
O70 P4 1.574448 1_555
O71 P5 1.567345 1_555
