# generated using pymatgen
data_AlBP2H5NO9
_symmetry_space_group_name_H-M   'P 1'
_cell_length_a   8.48483300
_cell_length_b   9.39488400
_cell_length_c   9.55394493
_cell_angle_alpha   75.33497417
_cell_angle_beta   90.00000000
_cell_angle_gamma   90.00000000
_symmetry_Int_Tables_number   1
_chemical_formula_structural   AlBP2H5NO9
_chemical_formula_sum   'Al4 B4 P8 H20 N4 O36'
_cell_volume   736.77286895
_cell_formula_units_Z   4
loop_
 _symmetry_equiv_pos_site_id
 _symmetry_equiv_pos_as_xyz
  1  'x, y, z'
loop_
 _atom_site_type_symbol
 _atom_site_label
 _atom_site_symmetry_multiplicity
 _atom_site_fract_x
 _atom_site_fract_y
 _atom_site_fract_z
 _atom_site_occupancy
  Al  Al0  1  0.34528800  0.70318500  0.06664700  1
  Al  Al1  1  0.84528800  0.29681500  0.43335300  1
  Al  Al2  1  0.65471200  0.29681500  0.93335300  1
  Al  Al3  1  0.15471200  0.70318500  0.56664700  1
  B  B0  1  0.94860800  0.83532900  0.30318400  1
  B  B1  1  0.55139200  0.83532900  0.80318400  1
  B  B2  1  0.05139200  0.16467100  0.69681600  1
  B  B3  1  0.44860800  0.16467100  0.19681600  1
  P  P0  1  0.73730000  0.08637200  0.72627400  1
  P  P1  1  0.76270000  0.08637200  0.22627400  1
  P  P2  1  0.26270000  0.91362800  0.27372600  1
  P  P3  1  0.23730000  0.91362800  0.77372600  1
  P  P4  1  0.56451500  0.42723300  0.20397200  1
  P  P5  1  0.06451500  0.57276700  0.29602800  1
  P  P6  1  0.43548500  0.57276700  0.79602800  1
  P  P7  1  0.93548500  0.42723300  0.70397200  1
  H  H0  1  0.65661200  0.77599800  0.39404400  1
  H  H1  1  0.15661200  0.22400200  0.10595600  1
  H  H2  1  0.34338800  0.22400200  0.60595600  1
  H  H3  1  0.84338800  0.77599800  0.89404400  1
  H  H4  1  0.55473200  0.64349300  0.34501900  1
  H  H5  1  0.05473200  0.35650700  0.15498100  1
  H  H6  1  0.44526800  0.35650700  0.65498100  1
  H  H7  1  0.94526800  0.64349300  0.84501900  1
  H  H8  1  0.51259400  0.68529800  0.50389300  1
  H  H9  1  0.01259400  0.31470200  0.99610700  1
  H  H10  1  0.48740600  0.31470200  0.49610700  1
  H  H11  1  0.98740600  0.68529800  0.00389300  1
  H  H12  1  0.31508400  0.40125800  0.51633000  1
  H  H13  1  0.81508400  0.59874200  0.98367000  1
  H  H14  1  0.56547900  0.88575700  0.00372200  1
  H  H15  1  0.06547900  0.11424300  0.49627800  1
  H  H16  1  0.43452100  0.11424300  0.99627800  1
  H  H17  1  0.93452100  0.88575700  0.50372200  1
  H  H18  1  0.68491600  0.59874200  0.48367000  1
  H  H19  1  0.18491600  0.40125800  0.01633000  1
  N  N0  1  0.89788100  0.67575800  0.93355200  1
  N  N1  1  0.60211900  0.67575800  0.43355200  1
  N  N2  1  0.10211900  0.32424200  0.06644800  1
  N  N3  1  0.39788100  0.32424200  0.56644800  1
  O  O0  1  0.69797100  0.91708100  0.75899600  1
  O  O1  1  0.57165500  0.69204600  0.77050600  1
  O  O2  1  0.92834500  0.69204600  0.27050600  1
  O  O3  1  0.42834500  0.30795400  0.22949400  1
  O  O4  1  0.21774100  0.84206300  0.93452700  1
  O  O5  1  0.71774100  0.15793700  0.56547300  1
  O  O6  1  0.78225900  0.15793700  0.06547300  1
  O  O7  1  0.28225900  0.84206300  0.43452700  1
  O  O8  1  0.13382200  0.84294000  0.67927300  1
  O  O9  1  0.63382200  0.15706000  0.82072700  1
  O  O10  1  0.48574700  0.57651200  0.19572100  1
  O  O11  1  0.36617800  0.84294000  0.17927300  1
  O  O12  1  0.19797100  0.08291900  0.74100400  1
  O  O13  1  0.07165500  0.30795400  0.72949400  1
  O  O14  1  0.80202900  0.91708100  0.25899600  1
  O  O15  1  0.30202900  0.08291900  0.24100400  1
  O  O16  1  0.41500800  0.91749200  0.72746400  1
  O  O17  1  0.91500800  0.08250800  0.77253600  1
  O  O18  1  0.98574700  0.42348800  0.30427900  1
  O  O19  1  0.08499200  0.91749200  0.22746400  1
  O  O20  1  0.96640600  0.80443700  0.46402600  1
  O  O21  1  0.46640600  0.19556300  0.03597400  1
  O  O22  1  0.03359400  0.19556300  0.53597400  1
  O  O23  1  0.53359400  0.80443700  0.96402600  1
  O  O24  1  0.84390700  0.42258900  0.56597400  1
  O  O25  1  0.66737100  0.39226200  0.34101500  1
  O  O26  1  0.16737100  0.60773800  0.15898500  1
  O  O27  1  0.33262900  0.60773800  0.65898500  1
  O  O28  1  0.51425300  0.42348800  0.80427900  1
  O  O29  1  0.01425300  0.57651200  0.69572100  1
  O  O30  1  0.83262900  0.39226200  0.84101500  1
  O  O31  1  0.65609300  0.42258900  0.06597400  1
  O  O32  1  0.15609300  0.57741100  0.43402600  1
  O  O33  1  0.34390700  0.57741100  0.93402600  1
  O  O34  1  0.58499200  0.08250800  0.27253600  1
  O  O35  1  0.86617800  0.15706000  0.32072700  1
loop_
_geom_bond_atom_site_label_1
_geom_bond_atom_site_label_2
_geom_bond_distance
_geom_bond_site_symmetry_2
Al0 O26 1.860293 1_555
Al0 O10 1.901111 1_555
Al0 O11 1.904865 1_555
Al0 O4 1.906033 1_554
Al0 O33 1.939045 1_554
Al0 O23 1.986628 1_554
Al1 O25 1.860293 1_555
Al1 O18 1.901111 1_555
Al1 O35 1.904865 1_555
Al1 O5 1.906033 1_555
Al1 O24 1.939045 1_555
Al1 O22 1.986628 1_655
Al2 O30 1.860293 1_555
Al2 O28 1.901111 1_555
Al2 O9 1.904865 1_555
Al2 O6 1.906033 1_556
Al2 O31 1.939045 1_556
Al2 O21 1.986628 1_556
Al3 O27 1.860293 1_555
Al3 O29 1.901111 1_555
Al3 O8 1.904865 1_555
Al3 O7 1.906033 1_555
Al3 O32 1.939045 1_555
Al3 O20 1.986628 1_455
B0 O14 1.466539 1_555
B0 O2 1.466930 1_555
B0 O19 1.474973 1_655
B0 O20 1.497528 1_555
B1 O0 1.466539 1_555
B1 O1 1.466930 1_555
B1 O16 1.474973 1_555
B1 O23 1.497528 1_555
B2 O12 1.466539 1_555
B2 O13 1.466930 1_555
B2 O17 1.474973 1_455
B2 O22 1.497528 1_555
B3 O15 1.466539 1_555
B3 O3 1.466930 1_555
B3 O34 1.474973 1_555
B3 O21 1.497528 1_555
H0 N1 1.031091 1_555
H1 N2 1.031091 1_555
H2 N3 1.031091 1_555
H3 N0 1.031091 1_555
H4 N1 1.048243 1_555
H5 N2 1.048243 1_555
H6 N3 1.048243 1_555
H7 N0 1.048243 1_555
H8 N1 1.033034 1_555
H9 N2 1.033034 1_556
H10 N3 1.033034 1_555
H11 N0 1.033034 1_554
H12 N3 1.034851 1_555
H13 N0 1.034851 1_555
H14 O23 0.973353 1_554
H15 O22 0.973353 1_555
H16 O21 0.973353 1_556
H17 O20 0.973353 1_555
H18 N1 1.034851 1_555
H19 N2 1.034851 1_555
O0 P0 1.576998 1_565
O1 P6 1.584859 1_555
O2 P5 1.584859 1_655
O3 P4 1.584859 1_555
O4 P3 1.522090 1_555
O5 P0 1.522090 1_555
O6 P1 1.522090 1_555
O7 P2 1.522090 1_555
O8 P3 1.526327 1_555
O9 P0 1.526327 1_555
O10 P4 1.537464 1_555
O11 P2 1.526327 1_555
O12 P3 1.576998 1_545
O13 P7 1.584859 1_455
O14 P1 1.576998 1_565
O15 P2 1.576998 1_545
O16 P3 1.569100 1_555
O17 P0 1.569100 1_555
O18 P5 1.537464 1_655
O19 P2 1.569100 1_555
O24 P7 1.540468 1_555
O25 P4 1.538193 1_555
O26 P5 1.538193 1_555
O27 P6 1.538193 1_555
O28 P6 1.537464 1_555
O29 P7 1.537464 1_455
O30 P7 1.538193 1_555
O31 P4 1.540468 1_555
O32 P5 1.540468 1_555
O33 P6 1.540468 1_555
O34 P1 1.569100 1_555
O35 P1 1.526327 1_555
