# generated using pymatgen
data_Na2MgSnP2SO12
_symmetry_space_group_name_H-M   'P 1'
_cell_length_a   8.87859107
_cell_length_b   8.81618445
_cell_length_c   22.52189878
_cell_angle_alpha   90.39257854
_cell_angle_beta   90.00000000
_cell_angle_gamma   120.23443716
_symmetry_Int_Tables_number   1
_chemical_formula_structural   Na2MgSnP2SO12
_chemical_formula_sum   'Na12 Mg6 Sn6 P12 S6 O72'
_cell_volume   1523.05606302
_cell_formula_units_Z   6
loop_
 _symmetry_equiv_pos_site_id
 _symmetry_equiv_pos_as_xyz
  1  'x, y, z'
loop_
 _atom_site_type_symbol
 _atom_site_label
 _atom_site_symmetry_multiplicity
 _atom_site_fract_x
 _atom_site_fract_y
 _atom_site_fract_z
 _atom_site_occupancy
  Na  Na0  1  0.99717413  0.63212343  0.24601814  1
  Na  Na1  1  0.63494931  0.63212343  0.74601814  1
  Na  Na2  1  0.66384113  0.96545643  0.57935114  1
  Na  Na3  1  0.30161631  0.96545643  0.07935114  1
  Na  Na4  1  0.33050713  0.29879043  0.91268514  1
  Na  Na5  1  0.96828231  0.29879043  0.41268514  1
  Na  Na6  1  0.99718723  0.98077494  0.49542049  1
  Na  Na7  1  0.98358771  0.98077494  0.99542049  1
  Na  Na8  1  0.66385423  0.31410794  0.82875349  1
  Na  Na9  1  0.65025471  0.31410794  0.32875349  1
  Na  Na10  1  0.33052023  0.64744194  0.16208749  1
  Na  Na11  1  0.31692071  0.64744194  0.66208749  1
  Mg  Mg0  1  0.00102248  0.99696136  0.35211424  1
  Mg  Mg1  1  0.99593888  0.99696136  0.85211424  1
  Mg  Mg2  1  0.66768948  0.33029436  0.68544724  1
  Mg  Mg3  1  0.66260588  0.33029436  0.18544724  1
  Mg  Mg4  1  0.33435548  0.66362836  0.01878124  1
  Mg  Mg5  1  0.32927188  0.66362836  0.51878124  1
  Sn  Sn0  1  0.99935568  0.00702609  0.65051375  1
  Sn  Sn1  1  0.00767041  0.00702609  0.15051375  1
  Sn  Sn2  1  0.66602268  0.34035909  0.98384675  1
  Sn  Sn3  1  0.67433741  0.34035909  0.48384675  1
  Sn  Sn4  1  0.33268868  0.67369309  0.31718075  1
  Sn  Sn5  1  0.34100341  0.67369309  0.81718075  1
  P  P0  1  0.29774201  0.00529998  0.25177345  1
  P  P1  1  0.99856699  0.29356918  0.25384216  1
  P  P2  1  0.29500220  0.29356918  0.75384216  1
  P  P3  1  0.70755797  0.00529998  0.75177345  1
  P  P4  1  0.96440901  0.33863298  0.58510645  1
  P  P5  1  0.66523399  0.62690218  0.58717516  1
  P  P6  1  0.96166920  0.62690218  0.08717516  1
  P  P7  1  0.37422497  0.33863298  0.08510645  1
  P  P8  1  0.63107501  0.67196698  0.91844045  1
  P  P9  1  0.33189999  0.96023618  0.92050916  1
  P  P10  1  0.62833520  0.96023618  0.42050916  1
  P  P11  1  0.04089097  0.67196698  0.41844045  1
  S  S0  1  0.70511920  0.70860341  0.25104773  1
  S  S1  1  0.00348421  0.70860341  0.75104773  1
  S  S2  1  0.37178620  0.04193641  0.58438073  1
  S  S3  1  0.67015121  0.04193641  0.08438073  1
  S  S4  1  0.03845220  0.37527041  0.91771473  1
  S  S5  1  0.33681721  0.37527041  0.41771473  1
  O  O0  1  0.20032237  0.02000068  0.30422121  1
  O  O1  1  0.81456953  0.79399478  0.30255958  1
  O  O2  1  0.97868029  0.18782922  0.30914185  1
  O  O3  1  0.20914893  0.18782922  0.80914185  1
  O  O4  1  0.97942524  0.79399478  0.80255958  1
  O  O5  1  0.81967832  0.02000068  0.80422121  1
  O  O6  1  0.77476471  0.95545682  0.69262472  1
  O  O7  1  0.18359452  0.21392339  0.69570141  1
  O  O8  1  0.03742991  0.81597031  0.69523366  1
  O  O9  1  0.77854040  0.81597031  0.19523366  1
  O  O10  1  0.03032886  0.21392339  0.19570141  1
  O  O11  1  0.18069211  0.95545682  0.19262472  1
  O  O12  1  0.86698937  0.35333368  0.63755421  1
  O  O13  1  0.48123653  0.12732778  0.63589258  1
  O  O14  1  0.64534729  0.52116222  0.64247485  1
  O  O15  1  0.87581593  0.52116222  0.14247485  1
  O  O16  1  0.64609224  0.12732778  0.13589258  1
  O  O17  1  0.48634532  0.35333368  0.13755421  1
  O  O18  1  0.44143171  0.28878982  0.02595772  1
  O  O19  1  0.85026152  0.54725639  0.02903441  1
  O  O20  1  0.70409691  0.14930331  0.02856666  1
  O  O21  1  0.44520740  0.14930331  0.52856666  1
  O  O22  1  0.69699586  0.54725639  0.52903441  1
  O  O23  1  0.84735911  0.28878982  0.52595772  1
  O  O24  1  0.53365537  0.68666768  0.97088821  1
  O  O25  1  0.14790253  0.46066178  0.96922658  1
  O  O26  1  0.31201329  0.85449622  0.97580885  1
  O  O27  1  0.54248193  0.85449622  0.47580885  1
  O  O28  1  0.31275824  0.46066178  0.46922658  1
  O  O29  1  0.15301132  0.68666768  0.47088821  1
  O  O30  1  0.10809771  0.62212382  0.35929172  1
  O  O31  1  0.51692752  0.88059039  0.36236841  1
  O  O32  1  0.37076291  0.48263731  0.36190066  1
  O  O33  1  0.11187340  0.48263731  0.86190066  1
  O  O34  1  0.36366186  0.88059039  0.86236841  1
  O  O35  1  0.51402511  0.62212382  0.85929172  1
  O  O36  1  0.01868299  0.82961101  0.41036233  1
  O  O37  1  0.81339806  0.99211229  0.41244906  1
  O  O38  1  0.17860530  0.20195151  0.41040049  1
  O  O39  1  0.02334621  0.20195151  0.91040049  1
  O  O40  1  0.17871423  0.99211229  0.91244906  1
  O  O41  1  0.81092802  0.82961101  0.91036233  1
  O  O42  1  0.97409809  0.16220791  0.58801452  1
  O  O43  1  0.19325571  0.02098185  0.58912620  1
  O  O44  1  0.83828673  0.81630182  0.58943501  1
  O  O45  1  0.97801509  0.81630182  0.08943501  1
  O  O46  1  0.82772614  0.02098185  0.08912620  1
  O  O47  1  0.18810983  0.16220791  0.08801452  1
  O  O48  1  0.68534999  0.16294401  0.74369533  1
  O  O49  1  0.48006506  0.32544529  0.74578206  1
  O  O50  1  0.84527230  0.53528451  0.74373349  1
  O  O51  1  0.69001321  0.53528451  0.24373349  1
  O  O52  1  0.84538123  0.32544529  0.24578206  1
  O  O53  1  0.47759502  0.16294401  0.24369533  1
  O  O54  1  0.64076509  0.49554091  0.92134752  1
  O  O55  1  0.85992271  0.35431485  0.92245920  1
  O  O56  1  0.50495373  0.14963482  0.92276801  1
  O  O57  1  0.64468209  0.14963482  0.42276801  1
  O  O58  1  0.49439314  0.35431485  0.42245920  1
  O  O59  1  0.85477683  0.49554091  0.42134752  1
  O  O60  1  0.35201599  0.49627801  0.07702933  1
  O  O61  1  0.14673106  0.65877929  0.07911606  1
  O  O62  1  0.51193830  0.86861851  0.07706749  1
  O  O63  1  0.35667921  0.86861851  0.57706749  1
  O  O64  1  0.51204723  0.65877929  0.57911606  1
  O  O65  1  0.14426102  0.49627801  0.57702933  1
  O  O66  1  0.30743109  0.82887491  0.25468152  1
  O  O67  1  0.52658871  0.68764885  0.25579320  1
  O  O68  1  0.17161973  0.48296882  0.25610201  1
  O  O69  1  0.31134809  0.48296882  0.75610201  1
  O  O70  1  0.16105914  0.68764885  0.75579320  1
  O  O71  1  0.52144283  0.82887491  0.75468152  1
loop_
_geom_bond_atom_site_label_1
_geom_bond_atom_site_label_2
_geom_bond_distance
_geom_bond_site_symmetry_2
Na0 O52 2.335953 1_555
Na0 O66 2.412116 1_655
Na0 O51 2.413198 1_555
Na0 O68 2.496958 1_655
Na0 O15 2.542316 1_555
Na0 O30 2.752545 1_655
Na0 O11 2.756104 1_655
Na0 O1 2.931190 1_555
Na1 O49 2.335953 1_555
Na1 O71 2.412123 1_555
Na1 O50 2.413206 1_555
Na1 O69 2.496965 1_555
Na1 O14 2.542318 1_555
Na1 O35 2.752549 1_555
Na1 O6 2.756104 1_555
Na1 O4 2.931189 1_555
Na2 O64 2.335945 1_555
Na2 O42 2.412116 1_565
Na2 O63 2.413208 1_555
Na2 O44 2.496958 1_555
Na2 O27 2.542296 1_555
Na2 O6 2.752545 1_555
Na2 O23 2.756104 1_565
Na2 O13 2.931190 1_565
Na3 O61 2.335946 1_555
Na3 O47 2.412123 1_565
Na3 O62 2.413191 1_555
Na3 O45 2.496965 1_455
Na3 O26 2.542291 1_554
Na3 O11 2.752549 1_555
Na3 O18 2.756104 1_565
Na3 O16 2.931189 1_565
Na4 O40 2.335953 1_545
Na4 O54 2.412120 1_555
Na4 O39 2.413198 1_555
Na4 O56 2.496971 1_555
Na4 O3 2.542316 1_555
Na4 O18 2.752530 1_556
Na4 O35 2.756104 1_555
Na4 O25 2.931190 1_555
Na5 O37 2.335953 1_545
Na5 O59 2.412106 1_555
Na5 O38 2.413206 1_655
Na5 O57 2.496955 1_555
Na5 O2 2.542318 1_555
Na5 O23 2.752523 1_555
Na5 O30 2.756104 1_655
Na5 O28 2.931189 1_655
Na6 O36 2.388188 1_655
Na6 O37 2.516244 1_555
Na6 O44 2.560892 1_555
Na6 O38 2.636536 1_665
Na6 O43 2.641648 1_665
Na6 O42 2.689601 1_565
Na7 O41 2.388188 1_555
Na7 O40 2.516244 1_655
Na7 O45 2.560892 1_556
Na7 O39 2.636536 1_665
Na7 O46 2.641648 1_566
Na7 O47 2.689601 1_666
Na8 O48 2.388188 1_555
Na8 O49 2.516244 1_555
Na8 O56 2.560892 1_555
Na8 O50 2.636536 1_555
Na8 O55 2.641648 1_555
Na8 O54 2.689601 1_555
Na9 O53 2.388188 1_555
Na9 O52 2.516244 1_555
Na9 O57 2.560892 1_555
Na9 O51 2.636536 1_555
Na9 O58 2.641648 1_555
Na9 O59 2.689601 1_555
Na10 O60 2.388188 1_555
Na10 O61 2.516244 1_555
Na10 O68 2.560892 1_555
Na10 O62 2.636536 1_555
Na10 O67 2.641648 1_555
Na10 O66 2.689601 1_555
Na11 O65 2.388188 1_555
Na11 O64 2.516244 1_555
Na11 O69 2.560892 1_555
Na11 O63 2.636536 1_555
Na11 O70 2.641648 1_555
Na11 O71 2.689601 1_555
Mg0 O0 1.994217 1_565
Mg0 O2 2.041095 1_465
Mg0 O1 2.043878 1_455
Mg0 O36 2.044955 1_555
Mg0 O37 2.133639 1_455
Mg0 O38 2.138488 1_565
Mg1 O5 1.994217 1_565
Mg1 O3 2.041095 1_665
Mg1 O4 2.043878 1_555
Mg1 O41 2.044955 1_555
Mg1 O40 2.133639 1_655
Mg1 O39 2.138488 1_665
Mg2 O12 1.994217 1_555
Mg2 O14 2.041095 1_555
Mg2 O13 2.043878 1_555
Mg2 O48 2.044955 1_555
Mg2 O49 2.133639 1_555
Mg2 O50 2.138488 1_555
Mg3 O17 1.994217 1_555
Mg3 O15 2.041095 1_555
Mg3 O16 2.043878 1_555
Mg3 O53 2.044955 1_555
Mg3 O52 2.133639 1_555
Mg3 O51 2.138488 1_555
Mg4 O24 1.994217 1_554
Mg4 O26 2.041095 1_554
Mg4 O25 2.043878 1_554
Mg4 O60 2.044955 1_555
Mg4 O61 2.133639 1_555
Mg4 O62 2.138488 1_555
Mg5 O29 1.994217 1_555
Mg5 O27 2.041095 1_555
Mg5 O28 2.043878 1_555
Mg5 O65 2.044955 1_555
Mg5 O64 2.133639 1_555
Mg5 O63 2.138488 1_555
O0 P0 1.506990 1_555
O1 S0 1.451996 1_555
O2 P1 1.517075 1_555
O3 P2 1.517075 1_555
O4 S1 1.451996 1_655
O5 P3 1.506990 1_555
O6 P3 1.606173 1_565
O6 Sn0 2.043367 1_565
O7 P2 1.572901 1_555
O7 Sn0 2.002089 1_455
O8 S1 1.515246 1_555
O8 Sn0 2.136002 1_465
O9 S0 1.515246 1_555
O9 Sn1 2.136002 1_665
O10 P1 1.572901 1_455
O10 Sn1 2.002089 1_555
O11 P0 1.606173 1_565
O11 Sn1 2.043367 1_565
O12 P4 1.506990 1_555
O13 S2 1.451996 1_555
O14 P5 1.517075 1_555
O15 P6 1.517075 1_555
O16 S3 1.451996 1_555
O17 P7 1.506990 1_555
O18 P7 1.606173 1_555
O18 Sn2 2.043367 1_554
O19 P6 1.572901 1_555
O19 Sn2 2.002089 1_554
O20 S3 1.515246 1_555
O20 Sn2 2.136002 1_554
O21 S2 1.515246 1_555
O21 Sn3 2.136002 1_555
O22 P5 1.572901 1_555
O22 Sn3 2.002089 1_555
O23 P4 1.606173 1_555
O23 Sn3 2.043367 1_555
O24 P8 1.506990 1_555
O25 S4 1.451996 1_555
O26 P9 1.517075 1_555
O27 P10 1.517075 1_555
O28 S5 1.451996 1_555
O29 P11 1.506990 1_555
O30 P11 1.606173 1_555
O30 Sn4 2.043367 1_555
O31 P10 1.572901 1_555
O31 Sn4 2.002089 1_555
O32 S5 1.515246 1_555
O32 Sn4 2.136002 1_555
O33 S4 1.515246 1_555
O33 Sn5 2.136002 1_555
O34 P9 1.572901 1_555
O34 Sn5 2.002089 1_555
O35 P8 1.606173 1_555
O35 Sn5 2.043367 1_555
O36 P11 1.510966 1_555
O37 P10 1.532115 1_555
O38 S5 1.473124 1_555
O39 S4 1.473128 1_555
O40 P9 1.532106 1_555
O41 P8 1.510971 1_555
O42 P4 1.602215 1_555
O42 Sn0 2.058816 1_555
O43 S2 1.504479 1_555
O43 Sn0 2.163193 1_455
O44 P5 1.602061 1_555
O44 Sn0 2.076386 1_565
O45 P6 1.602065 1_555
O45 Sn1 2.076386 1_665
O46 S3 1.504471 1_555
O46 Sn1 2.163193 1_655
O47 P7 1.602220 1_555
O47 Sn1 2.058816 1_555
O48 P3 1.510966 1_555
O49 P2 1.532115 1_555
O50 S1 1.473124 1_655
O51 S0 1.473128 1_555
O52 P1 1.532106 1_555
O53 P0 1.510971 1_555
O54 P8 1.602228 1_555
O54 Sn2 2.058816 1_555
O55 S4 1.504465 1_655
O55 Sn2 2.163193 1_555
O56 P9 1.602059 1_545
O56 Sn2 2.076386 1_555
O57 P10 1.602052 1_545
O57 Sn3 2.076386 1_555
O58 S5 1.504483 1_555
O58 Sn3 2.163193 1_555
O59 P11 1.602218 1_655
O59 Sn3 2.058816 1_555
O60 P7 1.510977 1_555
O61 P6 1.532100 1_455
O62 S3 1.473121 1_565
O63 S2 1.473113 1_565
O64 P5 1.532118 1_555
O65 P4 1.510966 1_455
O66 P0 1.602215 1_565
O66 Sn4 2.058816 1_555
O67 S0 1.504479 1_555
O67 Sn4 2.163193 1_555
O68 P1 1.602061 1_455
O68 Sn4 2.076386 1_555
O69 P2 1.602065 1_555
O69 Sn5 2.076386 1_555
O70 S1 1.504471 1_555
O70 Sn5 2.163193 1_555
O71 P3 1.602220 1_565
O71 Sn5 2.058816 1_555
