# generated using pymatgen
data_NdCoGe
_symmetry_space_group_name_H-M   'P 1'
_cell_length_a   4.29064834
_cell_length_b   4.29064834
_cell_length_c   6.55029580
_cell_angle_alpha   90.00000000
_cell_angle_beta   90.00000000
_cell_angle_gamma   90.00000000
_symmetry_Int_Tables_number   1
_chemical_formula_structural   NdCoGe
_chemical_formula_sum   'Nd2 Co2 Ge2'
_cell_volume   120.58873939
_cell_formula_units_Z   2
loop_
 _symmetry_equiv_pos_site_id
 _symmetry_equiv_pos_as_xyz
  1  'x, y, z'
loop_
 _atom_site_type_symbol
 _atom_site_label
 _atom_site_symmetry_multiplicity
 _atom_site_fract_x
 _atom_site_fract_y
 _atom_site_fract_z
 _atom_site_occupancy
  Nd  Nd0  1  0.50000000  0.00000000  0.30508490  1
  Nd  Nd1  1  -0.00000000  0.50000000  0.69491510  1
  Co  Co0  1  0.50000000  0.50000000  0.00000000  1
  Co  Co1  1  -0.00000000  0.00000000  0.00000000  1
  Ge  Ge0  1  0.50000000  -0.00000000  0.81026343  1
  Ge  Ge1  1  0.00000000  0.50000000  0.18973657  1
loop_
_geom_bond_atom_site_label_1
_geom_bond_atom_site_label_2
_geom_bond_distance
_geom_bond_site_symmetry_2
Co0 Ge1 2.479323 1_655
Co0 Ge0 2.479323 1_564
Co0 Ge0 2.479323 1_554
Co0 Ge1 2.479323 1_555
Co0 Nd1 2.931894 1_554
Co0 Nd0 2.931894 1_555
Co0 Nd0 2.931894 1_565
Co0 Nd1 2.931894 1_654
Co1 Ge1 2.479323 1_545
Co1 Ge0 2.479323 1_554
Co1 Ge0 2.479323 1_454
Co1 Ge1 2.479323 1_555
Co1 Nd1 2.931894 1_554
Co1 Nd0 2.931894 1_555
Co1 Nd1 2.931894 1_544
Co1 Nd0 2.931894 1_455
Ge0 Nd1 3.126613 1_555
Ge0 Nd1 3.126613 1_545
Ge0 Nd1 3.126613 1_655
Ge0 Nd1 3.126613 1_645
Ge0 Nd0 3.309069 1_555
Ge1 Nd0 3.126613 1_565
Ge1 Nd0 3.126613 1_455
Ge1 Nd0 3.126613 1_555
Ge1 Nd0 3.126613 1_465
Ge1 Nd1 3.309069 1_555
