# generated using pymatgen
data_LiIO3
_symmetry_space_group_name_H-M   'P 1'
_cell_length_a   5.45128639
_cell_length_b   5.45236587
_cell_length_c   5.09121354
_cell_angle_alpha   90.00528201
_cell_angle_beta   90.00709659
_cell_angle_gamma   120.00170409
_symmetry_Int_Tables_number   1
_chemical_formula_structural   LiIO3
_chemical_formula_sum   'Li2 I2 O6'
_cell_volume   131.04741729
_cell_formula_units_Z   2
loop_
 _symmetry_equiv_pos_site_id
 _symmetry_equiv_pos_as_xyz
  1  'x, y, z'
loop_
 _atom_site_type_symbol
 _atom_site_label
 _atom_site_symmetry_multiplicity
 _atom_site_fract_x
 _atom_site_fract_y
 _atom_site_fract_z
 _atom_site_occupancy
  Li  Li0  1  0.00018574  0.00024730  0.07746077  1
  Li  Li1  1  -0.00011618  -0.00008341  0.57738997  1
  I  I0  1  0.66662207  0.33336157  0.50477880  1
  I  I1  1  0.33336475  0.66660032  0.00470361  1
  O  O0  1  0.75349795  0.65957811  0.33607887  1
  O  O1  1  0.24645599  0.34033205  0.83608865  1
  O  O2  1  0.09397907  0.75353495  0.83620665  1
  O  O3  1  0.34024984  0.09375407  0.33625973  1
  O  O4  1  0.65965465  0.90620713  0.83616665  1
  O  O5  1  0.90610711  0.24646990  0.33626630  1
loop_
_geom_bond_atom_site_label_1
_geom_bond_atom_site_label_2
_geom_bond_distance
_geom_bond_site_symmetry_2
Li0 O1 2.064483 1_554
Li0 O4 2.065306 1_444
Li0 O2 2.065725 1_544
Li0 O3 2.118166 1_555
Li0 O5 2.118925 1_455
Li0 O0 2.120164 1_445
Li1 O3 2.064665 1_555
Li1 O5 2.064678 1_455
Li1 O0 2.064816 1_445
Li1 O4 2.118902 1_445
Li1 O1 2.119102 1_555
Li1 O2 2.119741 1_545
I0 O3 1.811959 1_555
I0 O0 1.812062 1_555
I0 O5 1.812063 1_555
I1 O2 1.811598 1_554
I1 O1 1.811845 1_554
I1 O4 1.812045 1_554
