# generated using pymatgen
data_EuAlO3
_symmetry_space_group_name_H-M   'P 1'
_cell_length_a   5.31899100
_cell_length_b   5.33985000
_cell_length_c   7.55593300
_cell_angle_alpha   90.00000000
_cell_angle_beta   90.00000000
_cell_angle_gamma   90.00000000
_symmetry_Int_Tables_number   1
_chemical_formula_structural   EuAlO3
_chemical_formula_sum   'Eu4 Al4 O12'
_cell_volume   214.60824910
_cell_formula_units_Z   4
loop_
 _symmetry_equiv_pos_site_id
 _symmetry_equiv_pos_as_xyz
  1  'x, y, z'
loop_
 _atom_site_type_symbol
 _atom_site_label
 _atom_site_symmetry_multiplicity
 _atom_site_fract_x
 _atom_site_fract_y
 _atom_site_fract_z
 _atom_site_occupancy
  Eu  Eu0  1  0.51669100  0.50120700  0.75000000  1
  Eu  Eu1  1  0.01669100  0.99879300  0.75000000  1
  Eu  Eu2  1  0.48330900  0.49879300  0.25000000  1
  Eu  Eu3  1  0.98330900  0.00120700  0.25000000  1
  Al  Al0  1  0.50000000  0.00000000  0.00000000  1
  Al  Al1  1  0.50000000  0.00000000  0.50000000  1
  Al  Al2  1  0.00000000  0.50000000  0.00000000  1
  Al  Al3  1  0.00000000  0.50000000  0.50000000  1
  O  O0  1  0.99441900  0.45748500  0.75000000  1
  O  O1  1  0.77817400  0.77806000  0.97826800  1
  O  O2  1  0.77817400  0.77806000  0.52173200  1
  O  O3  1  0.72182600  0.27806000  0.02173200  1
  O  O4  1  0.50558100  0.95748500  0.25000000  1
  O  O5  1  0.00558100  0.54251500  0.25000000  1
  O  O6  1  0.49441900  0.04251500  0.75000000  1
  O  O7  1  0.22182600  0.22194000  0.47826800  1
  O  O8  1  0.72182600  0.27806000  0.47826800  1
  O  O9  1  0.22182600  0.22194000  0.02173200  1
  O  O10  1  0.27817400  0.72194000  0.52173200  1
  O  O11  1  0.27817400  0.72194000  0.97826800  1
loop_
_geom_bond_atom_site_label_1
_geom_bond_atom_site_label_2
_geom_bond_distance
_geom_bond_site_symmetry_2
Eu0 O11 2.444109 1_555
Eu0 O10 2.444109 1_555
Eu0 O6 2.452210 1_555
Eu0 O0 2.551734 1_555
Eu0 O3 2.612652 1_556
Eu0 O8 2.612652 1_555
Eu0 O1 2.663603 1_555
Eu0 O2 2.663603 1_555
Eu0 O0 2.787754 1_455
Eu0 O6 2.892930 1_565
Eu0 O9 2.983156 1_556
Eu0 O7 2.983156 1_555
Eu1 O1 2.444109 1_455
Eu1 O2 2.444109 1_455
Eu1 O0 2.452210 1_465
Eu1 O6 2.551734 1_565
Eu1 O9 2.612652 1_566
Eu1 O7 2.612652 1_565
Eu1 O11 2.663603 1_555
Eu1 O10 2.663603 1_555
Eu1 O6 2.787754 1_465
Eu1 O0 2.892930 1_455
Eu1 O3 2.983156 1_466
Eu1 O8 2.983156 1_465
Eu2 O8 2.444109 1_555
Eu2 O3 2.444109 1_555
Eu2 O4 2.452210 1_555
Eu2 O5 2.551734 1_555
Eu2 O10 2.612652 1_555
Eu2 O11 2.612652 1_554
Eu2 O7 2.663603 1_555
Eu2 O9 2.663603 1_555
Eu2 O5 2.787754 1_655
Eu2 O4 2.892930 1_545
Eu2 O2 2.983156 1_555
Eu2 O1 2.983156 1_554
Eu3 O7 2.444109 1_655
Eu3 O9 2.444109 1_655
Eu3 O5 2.452210 1_645
Eu3 O4 2.551734 1_545
Eu3 O2 2.612652 1_545
Eu3 O1 2.612652 1_544
Eu3 O8 2.663603 1_555
Eu3 O3 2.663603 1_555
Eu3 O4 2.787754 1_645
Eu3 O5 2.892930 1_655
Eu3 O10 2.983156 1_645
Eu3 O11 2.983156 1_644
Al0 O6 1.902808 1_554
Al0 O4 1.902808 1_545
Al0 O1 1.902819 1_544
Al0 O9 1.902819 1_555
Al0 O3 1.903610 1_555
Al0 O11 1.903610 1_544
Al1 O6 1.902808 1_555
Al1 O4 1.902808 1_545
Al1 O2 1.902819 1_545
Al1 O7 1.902819 1_555
Al1 O10 1.903610 1_545
Al1 O8 1.903610 1_555
Al2 O0 1.902808 1_454
Al2 O5 1.902808 1_555
Al2 O3 1.902819 1_455
Al2 O11 1.902819 1_554
Al2 O9 1.903610 1_555
Al2 O1 1.903610 1_454
Al3 O0 1.902808 1_455
Al3 O5 1.902808 1_555
Al3 O10 1.902819 1_555
Al3 O8 1.902819 1_455
Al3 O7 1.903610 1_555
Al3 O2 1.903610 1_455
