# generated using pymatgen
data_NaMg2Ta2P3(SO8)3
_symmetry_space_group_name_H-M   'P 1'
_cell_length_a   8.72186312
_cell_length_b   8.71591341
_cell_length_c   22.56459611
_cell_angle_alpha   89.95046193
_cell_angle_beta   90.11134781
_cell_angle_gamma   119.97586047
_symmetry_Int_Tables_number   1
_chemical_formula_structural   NaMg2Ta2P3(SO8)3
_chemical_formula_sum   'Na3 Mg6 Ta6 P9 S9 O72'
_cell_volume   1485.88478400
_cell_formula_units_Z   3
loop_
 _symmetry_equiv_pos_site_id
 _symmetry_equiv_pos_as_xyz
  1  'x, y, z'
loop_
 _atom_site_type_symbol
 _atom_site_label
 _atom_site_symmetry_multiplicity
 _atom_site_fract_x
 _atom_site_fract_y
 _atom_site_fract_z
 _atom_site_occupancy
  Na  Na0  1  0.98499490  0.00010003  0.99962027  1
  Na  Na1  1  0.68145907  0.34955296  0.83586153  1
  Na  Na2  1  0.65419601  0.32537595  0.34299731  1
  Mg  Mg0  1  0.99167254  0.99416742  0.85725713  1
  Mg  Mg1  1  0.99311801  0.99392801  0.14819490  1
  Mg  Mg2  1  0.68149893  0.34068045  0.68513570  1
  Mg  Mg3  1  0.67539253  0.33687675  0.97713894  1
  Mg  Mg4  1  0.66763041  0.32420577  0.48062234  1
  Mg  Mg5  1  0.34699573  0.67385868  0.30979232  1
  Ta  Ta0  1  0.99844272  0.99579457  0.35624980  1
  Ta  Ta1  1  0.00091117  0.99859546  0.64465905  1
  Ta  Ta2  1  0.66057964  0.32430533  0.19112712  1
  Ta  Ta3  1  0.33946600  0.66637643  0.02471224  1
  Ta  Ta4  1  0.33390480  0.65847921  0.51750139  1
  Ta  Ta5  1  0.32623380  0.65979479  0.81061763  1
  P  P0  1  0.27770936  0.99031532  0.24834718  1
  P  P1  1  0.71146533  0.71321236  0.24776295  1
  P  P2  1  0.99225687  0.71020614  0.75335343  1
  P  P3  1  0.95383221  0.33637272  0.58349020  1
  P  P4  1  0.67667195  0.05242892  0.08028882  1
  P  P5  1  0.62266661  0.66435509  0.91662939  1
  P  P6  1  0.04290738  0.37402137  0.91766987  1
  P  P7  1  0.61920681  0.95901819  0.41367476  1
  P  P8  1  0.34013198  0.37783317  0.41239003  1
  S  S0  1  0.00483396  0.29053170  0.24960927  1
  S  S1  1  0.29122740  0.28440223  0.75142048  1
  S  S2  1  0.71167430  0.00282138  0.75149979  1
  S  S3  1  0.38017081  0.04324625  0.58402277  1
  S  S4  1  0.66480512  0.62005441  0.58358099  1
  S  S5  1  0.95338487  0.62340424  0.08168293  1
  S  S6  1  0.37704020  0.32710595  0.08197572  1
  S  S7  1  0.33343483  0.95461514  0.91678809  1
  S  S8  1  0.04360808  0.66242466  0.41473842  1
  O  O0  1  0.19643816  0.03378998  0.30477081  1
  O  O1  1  0.83669410  0.80089282  0.30444981  1
  O  O2  1  0.96333290  0.17158308  0.30324561  1
  O  O3  1  0.20789541  0.18081306  0.80373166  1
  O  O4  1  0.97484360  0.80270174  0.80643678  1
  O  O5  1  0.82133204  0.03217021  0.80326669  1
  O  O6  1  0.79627660  0.97341790  0.69711355  1
  O  O7  1  0.17685701  0.20329371  0.69695581  1
  O  O8  1  0.02238617  0.82916420  0.69590630  1
  O  O9  1  0.79692325  0.82018969  0.19368154  1
  O  O10  1  0.02524664  0.21114764  0.19612497  1
  O  O11  1  0.18144957  0.98371177  0.19280081  1
  O  O12  1  0.88446030  0.37165274  0.63954847  1
  O  O13  1  0.48293465  0.11789551  0.63779519  1
  O  O14  1  0.63056391  0.51513537  0.63702424  1
  O  O15  1  0.87306271  0.51138954  0.13564229  1
  O  O16  1  0.64394831  0.14028120  0.13733616  1
  O  O17  1  0.49062170  0.36128844  0.13635210  1
  O  O18  1  0.46030094  0.30751330  0.02929536  1
  O  O19  1  0.84644936  0.54290458  0.02905889  1
  O  O20  1  0.69271331  0.15992664  0.02643874  1
  O  O21  1  0.44838897  0.15218597  0.53159335  1
  O  O22  1  0.70034639  0.55011992  0.53071787  1
  O  O23  1  0.84406100  0.29585721  0.52873848  1
  O  O24  1  0.52109179  0.68413973  0.97228325  1
  O  O25  1  0.16224680  0.47899897  0.97214807  1
  O  O26  1  0.31136632  0.84189916  0.97033502  1
  O  O27  1  0.52872298  0.83822982  0.47151908  1
  O  O28  1  0.30740949  0.46705573  0.47094590  1
  O  O29  1  0.15720068  0.69320489  0.46999421  1
  O  O30  1  0.12406614  0.63716447  0.36296048  1
  O  O31  1  0.50537880  0.87128335  0.36141424  1
  O  O32  1  0.35709654  0.48945527  0.36029756  1
  O  O33  1  0.14411307  0.49559605  0.86086782  1
  O  O34  1  0.35486386  0.86321290  0.86256006  1
  O  O35  1  0.50393767  0.65063009  0.86105167  1
  O  O36  1  0.03564493  0.83192964  0.41079452  1
  O  O37  1  0.80426149  0.96708682  0.40699699  1
  O  O38  1  0.16447936  0.19297346  0.40684185  1
  O  O39  1  0.04157998  0.20137570  0.91241929  1
  O  O40  1  0.17259121  0.96442747  0.91219526  1
  O  O41  1  0.79848536  0.83399495  0.91456788  1
  O  O42  1  0.98648246  0.17366688  0.59775890  1
  O  O43  1  0.19397102  0.01870285  0.59458175  1
  O  O44  1  0.82236796  0.80640722  0.59383544  1
  O  O45  1  0.98600223  0.80341325  0.08865998  1
  O  O46  1  0.82956693  0.02057008  0.08909105  1
  O  O47  1  0.19903018  0.17867657  0.09001410  1
  O  O48  1  0.68087937  0.15055077  0.74204383  1
  O  O49  1  0.46701194  0.30948206  0.74129805  1
  O  O50  1  0.83779335  0.52624822  0.74430851  1
  O  O51  1  0.70384920  0.52441671  0.24031985  1
  O  O52  1  0.83310408  0.30189973  0.24367809  1
  O  O53  1  0.47279627  0.17093678  0.24233188  1
  O  O54  1  0.62432768  0.49286648  0.92028537  1
  O  O55  1  0.86699056  0.36796717  0.91833687  1
  O  O56  1  0.49457426  0.12521464  0.92029698  1
  O  O57  1  0.65217803  0.14415326  0.42367119  1
  O  O58  1  0.49661645  0.35432830  0.42564135  1
  O  O59  1  0.86575081  0.51513968  0.42492999  1
  O  O60  1  0.36400133  0.49562503  0.07660878  1
  O  O61  1  0.13281410  0.63458200  0.07430769  1
  O  O62  1  0.49881425  0.86403213  0.07321591  1
  O  O63  1  0.34866237  0.86009097  0.57430535  1
  O  O64  1  0.51047826  0.65076416  0.57476092  1
  O  O65  1  0.14647939  0.49650726  0.57062107  1
  O  O66  1  0.30745130  0.83995726  0.26042918  1
  O  O67  1  0.52821755  0.67474829  0.25907752  1
  O  O68  1  0.14844724  0.46578047  0.26031436  1
  O  O69  1  0.30434416  0.46516407  0.75627996  1
  O  O70  1  0.16949320  0.69972724  0.75963972  1
  O  O71  1  0.53525024  0.83490073  0.75739099  1
loop_
_geom_bond_atom_site_label_1
_geom_bond_atom_site_label_2
_geom_bond_distance
_geom_bond_site_symmetry_2
Na0 O41 2.462665 1_545
Na0 O46 2.489645 1_556
Na0 O39 2.515045 1_655
Na0 O45 2.642841 1_546
Na0 O47 2.674895 1_656
Na0 O40 2.680919 1_645
Na1 O55 2.415980 1_555
Na1 O54 2.463194 1_555
Na1 O50 2.530972 1_555
Na1 O56 2.632662 1_555
Na1 O48 2.736334 1_555
Na1 O49 2.739773 1_555
Na2 O57 2.403400 1_555
Na2 O58 2.405733 1_555
Na2 O59 2.549628 1_555
Na2 O53 2.708853 1_555
Na2 O51 2.794865 1_555
Na2 O52 2.798698 1_555
Mg0 O4 1.969603 1_555
Mg0 O41 2.028585 1_555
Mg0 O39 2.053455 1_665
Mg0 O5 2.070067 1_565
Mg0 O40 2.120005 1_655
Mg0 O3 2.145100 1_665
Mg1 O9 1.920806 1_555
Mg1 O11 1.964362 1_655
Mg1 O46 2.047057 1_565
Mg1 O10 2.074824 1_665
Mg1 O45 2.113379 1_555
Mg1 O47 2.158130 1_665
Mg2 O12 1.947742 1_555
Mg2 O50 2.012579 1_555
Mg2 O14 2.087634 1_555
Mg2 O48 2.093448 1_555
Mg2 O13 2.132340 1_555
Mg2 O49 2.163298 1_555
Mg3 O20 1.966763 1_556
Mg3 O19 2.035367 1_556
Mg3 O55 2.044991 1_555
Mg3 O54 2.071833 1_555
Mg3 O18 2.120903 1_556
Mg3 O56 2.150483 1_555
Mg4 O57 1.980866 1_555
Mg4 O23 1.995178 1_555
Mg4 O58 2.053385 1_555
Mg4 O21 2.089958 1_555
Mg4 O59 2.113260 1_555
Mg4 O22 2.162751 1_555
Mg5 O67 1.950040 1_555
Mg5 O31 1.961617 1_555
Mg5 O66 1.987497 1_555
Mg5 O32 2.006910 1_555
Mg5 O68 2.095725 1_555
Mg5 O30 2.170059 1_555
O0 P0 1.593659 1_545
O0 Ta0 1.968959 1_445
O1 P1 1.604773 1_555
O1 Ta0 1.960720 1_555
O2 S0 1.514987 1_655
O2 Ta0 2.082303 1_545
O3 S1 1.443082 1_555
O4 P2 1.494142 1_555
O5 S2 1.447870 1_555
O6 S2 1.519611 1_565
O6 Ta1 2.061789 1_655
O7 S1 1.515669 1_555
O7 Ta1 2.047265 1_545
O8 P2 1.597224 1_455
O8 Ta1 1.955932 1_555
O9 P1 1.490378 1_555
O10 S0 1.446476 1_555
O11 P0 1.492278 1_555
O12 P3 1.500087 1_555
O13 S3 1.453718 1_555
O14 S4 1.451304 1_555
O15 S5 1.498079 1_555
O15 Ta2 2.155614 1_555
O16 P4 1.595714 1_555
O16 Ta2 1.958849 1_555
O17 S6 1.508840 1_555
O17 Ta2 2.073299 1_555
O18 S6 1.448161 1_555
O19 S5 1.454443 1_555
O20 P4 1.497202 1_555
O21 S3 1.446182 1_555
O22 S4 1.442912 1_555
O23 P3 1.491974 1_555
O24 P5 1.596559 1_555
O24 Ta3 1.922202 1_556
O25 P6 1.573850 1_555
O25 Ta3 1.984158 1_556
O26 S7 1.507316 1_555
O26 Ta3 2.067911 1_556
O27 P7 1.614370 1_555
O27 Ta4 1.939634 1_555
O28 P8 1.630041 1_555
O28 Ta4 1.886117 1_555
O29 S8 1.529146 1_555
O29 Ta4 2.018701 1_555
O30 S8 1.436654 1_555
O31 P7 1.483028 1_555
O32 P8 1.484901 1_555
O33 P6 1.616222 1_555
O33 Ta5 1.894608 1_555
O34 S7 1.522574 1_555
O34 Ta5 2.034594 1_555
O35 P5 1.590853 1_555
O35 Ta5 1.954584 1_555
O36 S8 1.515820 1_555
O36 Ta0 2.029394 1_455
O37 P7 1.587520 1_555
O37 Ta0 1.955959 1_555
O38 P8 1.578535 1_555
O38 Ta0 1.965688 1_445
O39 P6 1.503789 1_555
O40 S7 1.450989 1_555
O41 P5 1.508086 1_555
O42 P3 1.611909 1_555
O42 Ta1 1.911222 1_645
O43 S3 1.547320 1_555
O43 Ta1 1.963427 1_545
O44 S4 1.532701 1_555
O44 Ta1 1.983902 1_655
O45 S5 1.456550 1_555
O46 P4 1.504577 1_555
O47 S6 1.452805 1_555
O48 S2 1.456179 1_555
O49 S1 1.454970 1_555
O50 P2 1.506123 1_555
O51 P1 1.622216 1_555
O51 Ta2 1.939226 1_555
O52 S0 1.555199 1_655
O52 Ta2 1.998691 1_555
O53 P0 1.647959 1_545
O53 Ta2 1.902962 1_555
O54 P5 1.504162 1_555
O55 P6 1.508755 1_655
O56 S7 1.450514 1_545
O57 P7 1.507991 1_545
O58 P8 1.507272 1_555
O59 S8 1.455388 1_655
O60 S6 1.533466 1_555
O60 Ta3 1.986517 1_555
O61 S5 1.528041 1_455
O61 Ta3 2.021382 1_555
O62 P4 1.606953 1_565
O62 Ta3 1.924084 1_555
O63 S3 1.494649 1_565
O63 Ta4 2.127104 1_555
O64 S4 1.510596 1_555
O64 Ta4 2.035003 1_555
O65 P3 1.585349 1_455
O65 Ta4 1.949499 1_555
O66 P0 1.482517 1_555
O67 P1 1.482575 1_555
O68 S0 1.431089 1_555
O69 S1 1.525603 1_555
O69 Ta5 2.023997 1_555
O70 P2 1.599457 1_455
O70 Ta5 1.944699 1_555
O71 S2 1.509140 1_565
O71 Ta5 2.078522 1_555
