# generated using pymatgen
data_MgFe3(PO4)3
_symmetry_space_group_name_H-M   'P 1'
_cell_length_a   5.43811313
_cell_length_b   5.54667957
_cell_length_c   11.69827726
_cell_angle_alpha   89.98375460
_cell_angle_beta   90.02134974
_cell_angle_gamma   120.79361222
_symmetry_Int_Tables_number   1
_chemical_formula_structural   MgFe3(PO4)3
_chemical_formula_sum   'Mg1 Fe3 P3 O12'
_cell_volume   303.11326325
_cell_formula_units_Z   1
loop_
 _symmetry_equiv_pos_site_id
 _symmetry_equiv_pos_as_xyz
  1  'x, y, z'
loop_
 _atom_site_type_symbol
 _atom_site_label
 _atom_site_symmetry_multiplicity
 _atom_site_fract_x
 _atom_site_fract_y
 _atom_site_fract_z
 _atom_site_occupancy
  Mg  Mg0  1  0.99972400  0.99968400  0.33995200  1
  Fe  Fe0  1  0.00035000  0.50046600  0.83190700  1
  Fe  Fe1  1  0.49969500  0.49995700  0.14186300  1
  Fe  Fe2  1  0.49987500  0.99956100  0.52936000  1
  P  P0  1  0.99984600  0.49976700  0.33528200  1
  P  P1  1  0.49974900  0.49969300  0.65529900  1
  P  P2  1  0.50051100  0.00058700  0.00751900  1
  O  O0  1  0.62907700  0.86716500  0.08386800  1
  O  O1  1  0.18193700  0.77510500  0.40556500  1
  O  O2  1  0.25972900  0.48579200  0.73070200  1
  O  O3  1  0.73884900  0.51418600  0.73153500  1
  O  O4  1  0.36065500  0.23634600  0.57884800  1
  O  O5  1  0.37059600  0.13302800  0.08351100  1
  O  O6  1  0.63945200  0.76269700  0.57852900  1
  O  O7  1  0.81918600  0.59575300  0.26581600  1
  O  O8  1  0.74720000  0.21907800  0.93160300  1
  O  O9  1  0.25551200  0.78307500  0.93073500  1
  O  O10  1  0.18033000  0.40375700  0.26584900  1
  O  O11  1  0.81772600  0.22430400  0.40559100  1
loop_
_geom_bond_atom_site_label_1
_geom_bond_atom_site_label_2
_geom_bond_distance
_geom_bond_site_symmetry_2
Mg0 O11 2.094061 1_565
Mg0 O1 2.094139 1_655
Mg0 O7 2.117551 1_555
Mg0 O10 2.117790 1_665
Fe0 O8 1.868571 1_455
Fe0 O9 1.868680 1_555
Fe0 O3 1.875177 1_455
Fe0 O2 1.875300 1_555
Fe1 O0 1.906851 1_555
Fe1 O5 1.907480 1_555
Fe1 O7 2.111140 1_555
Fe1 O10 2.111233 1_555
Fe2 O4 1.911060 1_565
Fe2 O6 1.911381 1_555
Fe2 O1 2.105180 1_555
Fe2 O11 2.105399 1_565
O0 P2 1.537253 1_565
O1 P0 1.562244 1_455
O2 P1 1.544502 1_555
O3 P1 1.544226 1_555
O4 P1 1.540975 1_555
O5 P2 1.536650 1_555
O6 P1 1.541693 1_555
O7 P0 1.563250 1_555
O8 P2 1.546842 1_556
O9 P2 1.546419 1_566
O10 P0 1.562906 1_455
O11 P0 1.562811 1_555
