# generated using pymatgen
data_MgNi4(SbS)4
_symmetry_space_group_name_H-M   'P 1'
_cell_length_a   6.16563652
_cell_length_b   6.16563652
_cell_length_c   6.16563652
_cell_angle_alpha   89.62584209
_cell_angle_beta   90.37415791
_cell_angle_gamma   90.37415791
_symmetry_Int_Tables_number   1
_chemical_formula_structural   MgNi4(SbS)4
_chemical_formula_sum   'Mg1 Ni4 Sb4 S4'
_cell_volume   234.37219866
_cell_formula_units_Z   1
loop_
 _symmetry_equiv_pos_site_id
 _symmetry_equiv_pos_as_xyz
  1  'x, y, z'
loop_
 _atom_site_type_symbol
 _atom_site_label
 _atom_site_symmetry_multiplicity
 _atom_site_fract_x
 _atom_site_fract_y
 _atom_site_fract_z
 _atom_site_occupancy
  Mg  Mg0  1  0.29064600  0.70935400  0.20935400  1
  Ni  Ni0  1  0.48763000  0.96056500  0.53653600  1
  Ni  Ni1  1  0.96346400  0.51237000  0.46056500  1
  Ni  Ni2  1  0.52910900  0.47089100  0.97089100  1
  Ni  Ni3  1  0.03943500  0.03653600  0.01237000  1
  Sb  Sb0  1  0.12116100  0.61817200  0.81905500  1
  Sb  Sb1  1  0.68094500  0.87883900  0.11817200  1
  Sb  Sb2  1  0.84542300  0.15457700  0.65457700  1
  Sb  Sb3  1  0.38182800  0.31905500  0.37883900  1
  S  S0  1  0.88808900  0.39722700  0.10877600  1
  S  S1  1  0.39122400  0.11191100  0.89722700  1
  S  S2  1  0.08035700  0.91964300  0.41964300  1
  S  S3  1  0.60277300  0.60877700  0.61191100  1
loop_
_geom_bond_atom_site_label_1
_geom_bond_atom_site_label_2
_geom_bond_distance
_geom_bond_site_symmetry_2
Mg0 S2 2.260335 1_555
Mg0 Ni2 2.563169 1_554
Mg0 Sb0 2.678837 1_554
Mg0 Sb3 2.678837 1_555
Mg0 Sb1 2.678837 1_555
Mg0 Ni1 2.815632 1_455
Mg0 Ni3 2.815632 1_565
Mg0 Ni0 2.815632 1_555
Ni0 S3 2.329627 1_555
Ni0 S1 2.494268 1_565
Ni0 Sb3 2.497780 1_565
Ni0 Sb2 2.604433 1_565
Ni0 S2 2.619002 1_555
Ni0 Sb1 2.897111 1_555
Ni1 S0 2.329633 1_555
Ni1 S3 2.494269 1_555
Ni1 Sb0 2.497780 1_655
Ni1 Sb2 2.604433 1_555
Ni1 S2 2.619002 1_655
Ni1 Sb3 2.897111 1_655
Ni2 S0 2.410689 1_556
Ni2 S1 2.410689 1_555
Ni2 S3 2.410691 1_555
Ni2 Sb1 2.831169 1_556
Ni2 Sb3 2.831169 1_556
Ni2 Sb0 2.831169 1_555
Ni3 S1 2.329633 1_554
Ni3 S0 2.494268 1_455
Ni3 Sb1 2.497780 1_445
Ni3 Sb2 2.604433 1_454
Ni3 S2 2.619002 1_545
Ni3 Sb0 2.897111 1_544
S0 Sb0 2.662319 1_654
S1 Sb1 2.662319 1_546
S2 Sb2 2.525237 1_465
S2 Sb1 3.085621 1_455
S2 Sb3 3.085621 1_565
S2 Sb0 3.085621 1_555
S3 Sb3 2.662323 1_555
