# generated using pymatgen
data_Ti4Bi2O11
_symmetry_space_group_name_H-M   'P 1'
_cell_length_a   7.60116198
_cell_length_b   7.60116198
_cell_length_c   10.15866067
_cell_angle_alpha   48.86348630
_cell_angle_beta   48.86348630
_cell_angle_gamma   28.81099515
_symmetry_Int_Tables_number   1
_chemical_formula_structural   Ti4Bi2O11
_chemical_formula_sum   'Ti4 Bi2 O11'
_cell_volume   207.60405789
_cell_formula_units_Z   1
loop_
 _symmetry_equiv_pos_site_id
 _symmetry_equiv_pos_as_xyz
  1  'x, y, z'
loop_
 _atom_site_type_symbol
 _atom_site_label
 _atom_site_symmetry_multiplicity
 _atom_site_fract_x
 _atom_site_fract_y
 _atom_site_fract_z
 _atom_site_occupancy
  Ti  Ti0  1  0.61874505  0.61874505  0.46791020  1
  Ti  Ti1  1  0.38125495  0.38125495  0.53208980  1
  Ti  Ti2  1  0.66261781  0.66261781  0.78247207  1
  Ti  Ti3  1  0.33738219  0.33738219  0.21752793  1
  Bi  Bi0  1  0.10965741  0.10965741  0.14081719  1
  Bi  Bi1  1  0.89034259  0.89034259  0.85918281  1
  O  O0  1  0.70876316  0.70876316  0.95010543  1
  O  O1  1  0.29123684  0.29123684  0.04989457  1
  O  O2  1  0.62577731  0.62577731  0.64492188  1
  O  O3  1  0.37422269  0.37422269  0.35507812  1
  O  O4  1  0.43631920  0.43631920  0.66942005  1
  O  O5  1  0.56368080  0.56368080  0.33057995  1
  O  O6  1  0.79915451  0.79915451  0.23951351  1
  O  O7  1  0.20084549  0.20084549  0.76048649  1
  O  O8  1  0.14456727  0.14456727  0.42950122  1
  O  O9  1  0.85543273  0.85543273  0.57049878  1
  O  O10  1  0.50000000  0.50000000  0.00000000  1
loop_
_geom_bond_atom_site_label_1
_geom_bond_atom_site_label_2
_geom_bond_distance
_geom_bond_site_symmetry_2
Bi0 O1 2.155654 1_555
Bi0 O0 2.370328 1_454
Bi0 O0 2.370328 1_544
Bi0 O5 2.444935 1_545
Bi0 O5 2.444935 1_455
Bi1 O0 2.155654 1_555
Bi1 O1 2.370328 1_566
Bi1 O1 2.370328 1_656
Bi1 O4 2.444935 1_565
Bi1 O4 2.444935 1_655
O0 Ti2 2.221133 1_555
O1 Ti3 2.221133 1_555
O2 Ti2 1.810092 1_555
O2 Ti0 1.870076 1_555
O3 Ti3 1.810092 1_555
O3 Ti1 1.870076 1_555
O4 Ti0 1.983980 1_555
O4 Ti1 2.034745 1_555
O5 Ti1 1.983980 1_555
O5 Ti0 2.034745 1_555
O6 Ti3 1.942155 1_655
O6 Ti3 1.942155 1_565
O6 Ti0 2.016770 1_555
O7 Ti2 1.942155 1_545
O7 Ti2 1.942155 1_455
O7 Ti1 2.016770 1_555
O8 Ti0 1.916065 1_545
O8 Ti0 1.916065 1_455
O8 Ti3 2.095838 1_555
O9 Ti1 1.916065 1_655
O9 Ti1 1.916065 1_565
O9 Ti2 2.095838 1_555
O10 Ti2 1.851711 1_554
O10 Ti3 1.851711 1_555
