# generated using pymatgen
data_Na3ZnGe(PO4)3
_symmetry_space_group_name_H-M   'P 1'
_cell_length_a   8.79632540
_cell_length_b   8.80788130
_cell_length_c   21.72908358
_cell_angle_alpha   89.99999999
_cell_angle_beta   90.08387115
_cell_angle_gamma   120.04346916
_symmetry_Int_Tables_number   1
_chemical_formula_structural   Na3ZnGe(PO4)3
_chemical_formula_sum   'Na18 Zn6 Ge6 P18 O72'
_cell_volume   1457.31610009
_cell_formula_units_Z   6
loop_
 _symmetry_equiv_pos_site_id
 _symmetry_equiv_pos_as_xyz
  1  'x, y, z'
loop_
 _atom_site_type_symbol
 _atom_site_label
 _atom_site_symmetry_multiplicity
 _atom_site_fract_x
 _atom_site_fract_y
 _atom_site_fract_z
 _atom_site_occupancy
  Na  Na0  1  0.98952537  0.97784702  0.49599296  1
  Na  Na1  1  0.98952537  0.01167835  0.99599296  1
  Na  Na2  1  0.66717075  0.33561436  0.82927199  1
  Na  Na3  1  0.66717075  0.33155539  0.32927199  1
  Na  Na4  1  0.33189777  0.66533022  0.16262695  1
  Na  Na5  1  0.33189777  0.66656855  0.66262695  1
  Na  Na6  1  0.36979200  0.36152725  0.24818081  1
  Na  Na7  1  0.98768116  0.62999446  0.24808625  1
  Na  Na8  1  0.98768116  0.35768670  0.74808625  1
  Na  Na9  1  0.36979200  0.00826475  0.74818081  1
  Na  Na10  1  0.30812474  0.34483461  0.58180190  1
  Na  Na11  1  0.65804959  0.96318094  0.58129272  1
  Na  Na12  1  0.30812474  0.96328913  0.08180190  1
  Na  Na13  1  0.65804959  0.69486765  0.08129272  1
  Na  Na14  1  0.97457454  0.67875077  0.91425964  1
  Na  Na15  1  0.32479757  0.29755396  0.91522217  1
  Na  Na16  1  0.97457454  0.29582477  0.41425964  1
  Na  Na17  1  0.32479757  0.02724462  0.41522217  1
  Zn  Zn0  1  0.99278434  0.99470082  0.35029311  1
  Zn  Zn1  1  0.99278434  0.99808352  0.85029311  1
  Zn  Zn2  1  0.66816419  0.34080160  0.68359986  1
  Zn  Zn3  1  0.66816419  0.32736159  0.18359986  1
  Zn  Zn4  1  0.32930225  0.66129877  0.01699049  1
  Zn  Zn5  1  0.32930225  0.66800448  0.51699049  1
  Ge  Ge0  1  0.99744754  0.99268155  0.64921549  1
  Ge  Ge1  1  0.99744754  0.00476599  0.14921549  1
  Ge  Ge2  1  0.66965233  0.32694309  0.98243537  1
  Ge  Ge3  1  0.66965233  0.34270824  0.48243537  1
  Ge  Ge4  1  0.33901274  0.67191020  0.31582581  1
  Ge  Ge5  1  0.33901274  0.66710353  0.81582581  1
  P  P0  1  0.29220339  0.99555606  0.25185423  1
  P  P1  1  0.70363693  0.71274593  0.25057662  1
  P  P2  1  0.00351359  0.29533451  0.25286511  1
  P  P3  1  0.29220339  0.29664733  0.75185423  1
  P  P4  1  0.00351359  0.70817908  0.75286511  1
  P  P5  1  0.70363693  0.99089100  0.75057662  1
  P  P6  1  0.95845580  0.33018929  0.58542140  1
  P  P7  1  0.36910112  0.04113290  0.58535837  1
  P  P8  1  0.67503681  0.62880694  0.58455062  1
  P  P9  1  0.95845580  0.62826551  0.08542140  1
  P  P10  1  0.67503681  0.04622887  0.08455062  1
  P  P11  1  0.36910112  0.32796723  0.08535837  1
  P  P12  1  0.62537463  0.66374955  0.91956270  1
  P  P13  1  0.03703913  0.37476800  0.91728342  1
  P  P14  1  0.34345435  0.96374136  0.91833263  1
  P  P15  1  0.62537463  0.96162608  0.41956270  1
  P  P16  1  0.34345435  0.37971399  0.41833263  1
  P  P17  1  0.03703913  0.66227213  0.41728342  1
  O  O0  1  0.21359224  0.02695447  0.30917586  1
  O  O1  1  0.82180828  0.79055292  0.30482143  1
  O  O2  1  0.98060636  0.19472957  0.31154898  1
  O  O3  1  0.21359224  0.18663776  0.80917586  1
  O  O4  1  0.98060636  0.78587679  0.81154898  1
  O  O5  1  0.82180828  0.03125536  0.80482143  1
  O  O6  1  0.78411729  0.95793324  0.68922913  1
  O  O7  1  0.16626667  0.21232803  0.69249586  1
  O  O8  1  0.04561573  0.83694507  0.69533879  1
  O  O9  1  0.78411729  0.82618405  0.18922913  1
  O  O10  1  0.04561573  0.20867065  0.19533879  1
  O  O11  1  0.16626667  0.95393864  0.19249586  1
  O  O12  1  0.87869120  0.35261997  0.64348589  1
  O  O13  1  0.47963967  0.11997054  0.64248499  1
  O  O14  1  0.63447177  0.51327038  0.63968819  1
  O  O15  1  0.87869120  0.52607022  0.14348589  1
  O  O16  1  0.63447177  0.12120040  0.13968819  1
  O  O17  1  0.47963967  0.35966813  0.14248499  1
  O  O18  1  0.45270961  0.28634065  0.02603036  1
  O  O19  1  0.83446966  0.54314360  0.02606675  1
  O  O20  1  0.71083805  0.16406246  0.02473449  1
  O  O21  1  0.45270961  0.16636795  0.52603036  1
  O  O22  1  0.71083805  0.54677460  0.52473449  1
  O  O23  1  0.83446966  0.29132506  0.52606675  1
  O  O24  1  0.54896426  0.68919014  0.97806561  1
  O  O25  1  0.15312176  0.45687867  0.97229452  1
  O  O26  1  0.30882770  0.85335561  0.97534172  1
  O  O27  1  0.54896426  0.85977512  0.47806561  1
  O  O28  1  0.30882770  0.45547309  0.47534172  1
  O  O29  1  0.15312176  0.69624409  0.47229452  1
  O  O30  1  0.11733645  0.61960787  0.35698093  1
  O  O31  1  0.49597206  0.87562169  0.36189077  1
  O  O32  1  0.37353324  0.49533920  0.35815587  1
  O  O33  1  0.11733645  0.49772958  0.85698093  1
  O  O34  1  0.37353324  0.87819504  0.85815587  1
  O  O35  1  0.49597206  0.62035138  0.86189077  1
  O  O36  1  0.01605172  0.82213022  0.41002402  1
  O  O37  1  0.81101999  0.99471128  0.41207094  1
  O  O38  1  0.18470348  0.19385442  0.41146871  1
  O  O39  1  0.01605172  0.19392150  0.91002402  1
  O  O40  1  0.18470348  0.99084907  0.91146871  1
  O  O41  1  0.81101999  0.81630871  0.91207094  1
  O  O42  1  0.96806033  0.15234965  0.58757835  1
  O  O43  1  0.18553941  0.03539411  0.58971357  1
  O  O44  1  0.84649184  0.81698894  0.58954541  1
  O  O45  1  0.96806033  0.81571068  0.08757835  1
  O  O46  1  0.84649184  0.02950290  0.08954541  1
  O  O47  1  0.18553941  0.15014530  0.08971357  1
  O  O48  1  0.67404175  0.14805138  0.74380605  1
  O  O49  1  0.47222736  0.31566425  0.74419953  1
  O  O50  1  0.85087714  0.52274725  0.74560563  1
  O  O51  1  0.67404175  0.52598937  0.24380605  1
  O  O52  1  0.85087714  0.32812890  0.24560563  1
  O  O53  1  0.47222736  0.15656211  0.24419953  1
  O  O54  1  0.63510635  0.48593399  0.92221583  1
  O  O55  1  0.85420461  0.37035578  0.92224432  1
  O  O56  1  0.51381291  0.15264092  0.92226058  1
  O  O57  1  0.63510635  0.14917135  0.42221583  1
  O  O58  1  0.51381291  0.36117099  0.42226058  1
  O  O59  1  0.85420461  0.48384783  0.42224432  1
  O  O60  1  0.34942317  0.48864325  0.07778564  1
  O  O61  1  0.14473333  0.66182738  0.07863989  1
  O  O62  1  0.51750402  0.85992601  0.07722083  1
  O  O63  1  0.34942317  0.86078093  0.57778564  1
  O  O64  1  0.51750402  0.65757901  0.57722083  1
  O  O65  1  0.14473333  0.48290695  0.57863989  1
  O  O66  1  0.29753464  0.81787463  0.25597850  1
  O  O67  1  0.51528411  0.69563162  0.25603613  1
  O  O68  1  0.18170920  0.48306248  0.25487532  1
  O  O69  1  0.29753464  0.47966101  0.75597850  1
  O  O70  1  0.18170920  0.69864772  0.75487532  1
  O  O71  1  0.51528411  0.81965349  0.75603613  1
loop_
_geom_bond_atom_site_label_1
_geom_bond_atom_site_label_2
_geom_bond_distance
_geom_bond_site_symmetry_2
Na0 O36 2.397248 1_655
Na0 O44 2.438283 1_555
Na0 O37 2.457245 1_555
Na0 O43 2.547862 1_665
Na0 O42 2.578772 1_565
Na0 O38 2.584392 1_665
Na1 O39 2.397248 1_655
Na1 O46 2.438283 1_556
Na1 O41 2.457245 1_545
Na1 O47 2.547862 1_656
Na1 O45 2.578772 1_546
Na1 O40 2.584392 1_645
Na2 O50 2.444322 1_555
Na2 O49 2.465258 1_555
Na2 O48 2.506388 1_555
Na2 O54 2.507356 1_555
Na2 O56 2.516104 1_555
Na2 O55 2.523440 1_555
Na3 O52 2.444322 1_555
Na3 O53 2.465258 1_555
Na3 O51 2.506388 1_555
Na3 O57 2.507356 1_555
Na3 O58 2.516104 1_555
Na3 O59 2.523440 1_555
Na4 O61 2.445870 1_555
Na4 O60 2.466835 1_555
Na4 O68 2.494913 1_555
Na4 O62 2.500823 1_555
Na4 O67 2.520395 1_555
Na4 O66 2.533702 1_555
Na5 O65 2.445870 1_555
Na5 O63 2.466836 1_555
Na5 O70 2.494913 1_555
Na5 O64 2.500824 1_555
Na5 O71 2.520395 1_555
Na5 O69 2.533702 1_555
Na6 O51 2.321365 1_555
Na6 O68 2.382914 1_555
Na6 O53 2.389052 1_555
Na6 O17 2.496190 1_555
Na6 O67 2.560291 1_555
Na6 O32 2.657362 1_555
Na6 O10 2.721876 1_555
Na6 O0 2.877423 1_555
Na7 O52 2.305708 1_555
Na7 O66 2.383057 1_655
Na7 O51 2.434714 1_555
Na7 O15 2.457202 1_555
Na7 O68 2.611609 1_655
Na7 O30 2.646597 1_655
Na7 O11 2.754160 1_655
Na7 O1 2.778483 1_555
Na8 O50 2.305701 1_555
Na8 O69 2.383056 1_655
Na8 O48 2.434716 1_555
Na8 O12 2.457201 1_555
Na8 O70 2.611616 1_655
Na8 O33 2.646599 1_655
Na8 O7 2.754160 1_655
Na8 O5 2.778483 1_555
Na9 O48 2.321366 1_555
Na9 O70 2.382907 1_545
Na9 O49 2.389044 1_555
Na9 O13 2.496189 1_555
Na9 O71 2.560283 1_545
Na9 O34 2.657358 1_545
Na9 O8 2.721876 1_545
Na9 O3 2.877423 1_555
Na10 O65 2.302005 1_555
Na10 O43 2.382955 1_555
Na10 O64 2.431138 1_555
Na10 O28 2.508974 1_555
Na10 O42 2.600205 1_455
Na10 O7 2.693529 1_555
Na10 O21 2.750157 1_555
Na10 O14 2.783659 1_555
Na11 O64 2.334331 1_555
Na11 O42 2.383366 1_565
Na11 O63 2.395192 1_555
Na11 O27 2.429004 1_555
Na11 O44 2.564009 1_555
Na11 O6 2.603130 1_555
Na11 O23 2.777796 1_565
Na11 O13 2.883429 1_565
Na12 O61 2.301990 1_555
Na12 O47 2.382964 1_565
Na12 O62 2.431125 1_555
Na12 O26 2.508968 1_554
Na12 O45 2.600206 1_455
Na12 O11 2.693531 1_555
Na12 O18 2.750157 1_565
Na12 O16 2.783659 1_565
Na13 O62 2.334347 1_555
Na13 O45 2.383365 1_555
Na13 O60 2.395189 1_555
Na13 O24 2.429007 1_554
Na13 O46 2.564016 1_565
Na13 O9 2.603132 1_555
Na13 O19 2.777796 1_555
Na13 O17 2.883429 1_555
Na14 O41 2.298957 1_555
Na14 O55 2.377016 1_555
Na14 O4 2.413358 1_555
Na14 O40 2.426799 1_655
Na14 O54 2.598912 1_555
Na14 O19 2.717091 1_556
Na14 O33 2.770855 1_655
Na14 O26 2.869220 1_655
Na15 O40 2.342916 1_545
Na15 O54 2.385491 1_555
Na15 O39 2.395525 1_555
Na15 O3 2.501506 1_555
Na15 O56 2.557558 1_555
Na15 O18 2.678877 1_556
Na15 O35 2.722527 1_555
Na15 O25 2.813378 1_555
Na16 O37 2.298964 1_545
Na16 O59 2.377000 1_555
Na16 O2 2.413361 1_555
Na16 O38 2.426805 1_655
Na16 O57 2.598911 1_555
Na16 O23 2.717087 1_555
Na16 O30 2.770855 1_655
Na16 O28 2.869220 1_655
Na17 O38 2.342908 1_555
Na17 O57 2.385493 1_555
Na17 O36 2.395527 1_545
Na17 O0 2.501504 1_555
Na17 O58 2.557543 1_555
Na17 O21 2.678873 1_555
Na17 O31 2.722527 1_545
Na17 O29 2.813378 1_545
Ge0 O8 1.909520 1_655
Ge0 O44 1.943305 1_555
Ge0 O6 1.949529 1_555
Ge0 O43 1.983333 1_665
Ge0 O7 1.987870 1_665
Ge0 O42 2.049728 1_565
Ge1 O10 1.909519 1_655
Ge1 O46 1.943305 1_555
Ge1 O9 1.949529 1_545
Ge1 O47 1.983333 1_655
Ge1 O11 1.987870 1_645
Ge1 O45 2.049728 1_545
Ge2 O20 1.885114 1_556
Ge2 O56 1.957858 1_555
Ge2 O19 1.964312 1_556
Ge2 O55 1.968968 1_555
Ge2 O18 1.997194 1_556
Ge2 O54 2.047080 1_555
Ge3 O22 1.885114 1_555
Ge3 O58 1.957858 1_555
Ge3 O23 1.964312 1_555
Ge3 O59 1.968968 1_555
Ge3 O21 1.997194 1_555
Ge3 O57 2.047080 1_555
Ge4 O31 1.908651 1_555
Ge4 O67 1.953764 1_555
Ge4 O32 1.956776 1_555
Ge4 O30 1.979854 1_555
Ge4 O66 1.986301 1_555
Ge4 O68 2.031111 1_555
Ge5 O35 1.908650 1_555
Ge5 O71 1.953764 1_555
Ge5 O34 1.956776 1_555
Ge5 O33 1.979854 1_555
Ge5 O69 1.986301 1_555
Ge5 O70 2.031111 1_555
O0 P0 1.516586 1_545
O0 Zn0 2.025842 1_445
O1 P1 1.490833 1_555
O1 Zn0 1.938857 1_555
O2 P2 1.507902 1_655
O2 Zn0 2.003243 1_545
O3 P3 1.516586 1_555
O3 Zn1 2.025842 1_445
O4 P4 1.507902 1_655
O4 Zn1 2.003243 1_555
O5 P5 1.490833 1_545
O5 Zn1 1.938857 1_545
O6 P5 1.603411 1_555
O7 P3 1.616895 1_555
O8 P4 1.602100 1_555
O9 P1 1.603411 1_555
O10 P2 1.602100 1_555
O11 P0 1.616895 1_555
O12 P6 1.504851 1_555
O12 Zn2 2.002922 1_555
O13 P7 1.512898 1_555
O13 Zn2 2.024181 1_555
O14 P8 1.495318 1_555
O14 Zn2 1.938001 1_555
O15 P9 1.504851 1_555
O15 Zn3 2.002922 1_555
O16 P10 1.495318 1_555
O16 Zn3 1.938001 1_555
O17 P11 1.512898 1_555
O17 Zn3 2.024181 1_555
O18 P11 1.615542 1_555
O19 P9 1.609993 1_555
O20 P10 1.593616 1_555
O21 P7 1.615542 1_555
O22 P8 1.593616 1_555
O23 P6 1.609993 1_555
O24 P12 1.507072 1_555
O24 Zn4 2.009648 1_556
O25 P13 1.500503 1_555
O25 Zn4 1.946373 1_556
O26 P14 1.509027 1_555
O26 Zn4 2.004391 1_556
O27 P15 1.507072 1_555
O27 Zn5 2.009648 1_555
O28 P16 1.509027 1_555
O28 Zn5 2.004391 1_555
O29 P17 1.500503 1_555
O29 Zn5 1.946373 1_555
O30 P17 1.620344 1_555
O31 P15 1.603847 1_555
O32 P16 1.596294 1_555
O33 P13 1.620344 1_555
O34 P14 1.596294 1_555
O35 P12 1.603847 1_555
O36 P17 1.517119 1_555
O36 Zn0 2.085064 1_455
O37 P15 1.517360 1_555
O37 Zn0 2.089199 1_555
O38 P16 1.537046 1_555
O38 Zn0 2.173057 1_445
O39 P13 1.517128 1_555
O39 Zn1 2.085064 1_445
O40 P14 1.537040 1_555
O40 Zn1 2.173057 1_455
O41 P12 1.517357 1_555
O41 Zn1 2.089199 1_555
O42 P6 1.611028 1_555
O43 P7 1.592918 1_555
O44 P8 1.590624 1_555
O45 P9 1.611037 1_555
O46 P10 1.590619 1_555
O47 P11 1.592914 1_555
O48 P5 1.538273 1_545
O48 Zn2 2.164272 1_555
O49 P3 1.516090 1_555
O49 Zn2 2.092366 1_555
O50 P4 1.516155 1_655
O50 Zn2 2.093137 1_555
O51 P1 1.538282 1_555
O51 Zn3 2.164272 1_555
O52 P2 1.516149 1_655
O52 Zn3 2.093137 1_555
O53 P0 1.516087 1_545
O53 Zn3 2.092366 1_555
O54 P12 1.611769 1_555
O55 P13 1.592982 1_655
O56 P14 1.588777 1_545
O57 P15 1.611751 1_545
O58 P16 1.588787 1_555
O59 P17 1.592991 1_655
O60 P11 1.518247 1_555
O60 Zn4 2.087551 1_555
O61 P9 1.519759 1_455
O61 Zn4 2.108148 1_555
O62 P10 1.536467 1_565
O62 Zn4 2.146569 1_555
O63 P7 1.518230 1_565
O63 Zn5 2.087551 1_555
O64 P8 1.536478 1_555
O64 Zn5 2.146569 1_555
O65 P6 1.519765 1_455
O65 Zn5 2.108148 1_555
O66 P0 1.591515 1_555
O67 P1 1.591327 1_555
O68 P2 1.611672 1_555
O69 P3 1.591524 1_555
O70 P4 1.611667 1_555
O71 P5 1.591323 1_555
