# generated using pymatgen
data_BaBiF7
_symmetry_space_group_name_H-M   'P 1'
_cell_length_a   9.74198727
_cell_length_b   5.52456613
_cell_length_c   10.21288360
_cell_angle_alpha   90.23961015
_cell_angle_beta   90.00000000
_cell_angle_gamma   90.00000000
_symmetry_Int_Tables_number   1
_chemical_formula_structural   BaBiF7
_chemical_formula_sum   'Ba4 Bi4 F28'
_cell_volume   549.65517124
_cell_formula_units_Z   4
loop_
 _symmetry_equiv_pos_site_id
 _symmetry_equiv_pos_as_xyz
  1  'x, y, z'
loop_
 _atom_site_type_symbol
 _atom_site_label
 _atom_site_symmetry_multiplicity
 _atom_site_fract_x
 _atom_site_fract_y
 _atom_site_fract_z
 _atom_site_occupancy
  Ba  Ba0  1  0.28771562  0.29131129  0.49960234  1
  Ba  Ba1  1  0.78771562  0.70868871  0.00039766  1
  Ba  Ba2  1  0.71228438  0.70868871  0.50039766  1
  Ba  Ba3  1  0.21228438  0.29131129  0.99960234  1
  Bi  Bi0  1  0.60834222  0.18971830  0.22248093  1
  Bi  Bi1  1  0.39165778  0.81028170  0.77751907  1
  Bi  Bi2  1  0.89165778  0.18971830  0.72248093  1
  Bi  Bi3  1  0.10834222  0.81028170  0.27751907  1
  F  F0  1  0.44311476  0.11578163  0.88020168  1
  F  F1  1  0.03632050  0.36565972  0.61719533  1
  F  F2  1  0.73576979  0.48768740  0.24726557  1
  F  F3  1  0.26423021  0.51231260  0.75273443  1
  F  F4  1  0.47897696  0.02870876  0.63394904  1
  F  F5  1  0.77500921  0.21648505  0.54832996  1
  F  F6  1  0.77555427  0.99159585  0.28285802  1
  F  F7  1  0.97897696  0.97129124  0.86605096  1
  F  F8  1  0.46367950  0.36565972  0.11719533  1
  F  F9  1  0.23576979  0.51231260  0.25273443  1
  F  F10  1  0.05688524  0.11578163  0.38020168  1
  F  F11  1  0.55688524  0.88421837  0.11979832  1
  F  F12  1  0.27555427  0.00840415  0.21714198  1
  F  F13  1  0.02362388  0.58687738  0.12870061  1
  F  F14  1  0.52102304  0.97129124  0.36605096  1
  F  F15  1  0.02102304  0.02870876  0.13394904  1
  F  F16  1  0.22444573  0.00840415  0.71714198  1
  F  F17  1  0.94311476  0.88421837  0.61979832  1
  F  F18  1  0.52362388  0.41312262  0.37129939  1
  F  F19  1  0.96367950  0.63434028  0.38280467  1
  F  F20  1  0.97637612  0.41312262  0.87129939  1
  F  F21  1  0.72444573  0.99159585  0.78285802  1
  F  F22  1  0.47637612  0.58687738  0.62870061  1
  F  F23  1  0.27500921  0.78351495  0.95167004  1
  F  F24  1  0.22499079  0.78351495  0.45167004  1
  F  F25  1  0.72499079  0.21648505  0.04832996  1
  F  F26  1  0.53632050  0.63434028  0.88280467  1
  F  F27  1  0.76423021  0.48768740  0.74726557  1
loop_
_geom_bond_atom_site_label_1
_geom_bond_atom_site_label_2
_geom_bond_distance
_geom_bond_site_symmetry_2
Ba0 F18 2.731124 1_555
Ba0 F10 2.733923 1_555
Ba0 F4 2.734172 1_555
Ba0 F1 2.757704 1_555
Ba0 F22 2.786504 1_555
Ba0 F16 2.790649 1_555
Ba0 F24 2.831657 1_555
Ba0 F9 2.851165 1_555
Ba0 F3 2.863553 1_555
Ba0 F24 2.910595 1_545
Ba0 F14 3.183061 1_545
Ba0 F12 3.277316 1_555
Ba1 F13 2.731124 1_655
Ba1 F11 2.733923 1_555
Ba1 F7 2.734172 1_554
Ba1 F26 2.757704 1_554
Ba1 F20 2.786504 1_554
Ba1 F21 2.790649 1_554
Ba1 F25 2.831657 1_555
Ba1 F2 2.851165 1_555
Ba1 F27 2.863553 1_554
Ba1 F25 2.910595 1_565
Ba1 F15 3.183061 1_665
Ba1 F6 3.277316 1_555
Ba2 F22 2.731124 1_555
Ba2 F17 2.733923 1_555
Ba2 F14 2.734172 1_555
Ba2 F19 2.757704 1_555
Ba2 F18 2.786504 1_555
Ba2 F6 2.790649 1_555
Ba2 F5 2.831657 1_555
Ba2 F27 2.851165 1_555
Ba2 F2 2.863553 1_555
Ba2 F5 2.910595 1_565
Ba2 F4 3.183061 1_565
Ba2 F21 3.277316 1_555
Ba3 F20 2.731124 1_455
Ba3 F0 2.733923 1_555
Ba3 F15 2.734172 1_556
Ba3 F8 2.757704 1_556
Ba3 F13 2.786504 1_556
Ba3 F12 2.790649 1_556
Ba3 F23 2.831657 1_555
Ba3 F3 2.851165 1_555
Ba3 F9 2.863553 1_556
Ba3 F23 2.910595 1_545
Ba3 F7 3.183061 1_445
Ba3 F16 3.277316 1_555
Bi0 F8 2.023824 1_555
Bi0 F11 2.045666 1_545
Bi0 F6 2.058509 1_545
Bi0 F2 2.076407 1_555
Bi0 F14 2.084350 1_545
Bi0 F25 2.116319 1_555
Bi0 F18 2.121024 1_555
Bi1 F26 2.023824 1_555
Bi1 F0 2.045666 1_565
Bi1 F16 2.058509 1_565
Bi1 F3 2.076407 1_555
Bi1 F4 2.084350 1_565
Bi1 F23 2.116319 1_555
Bi1 F22 2.121024 1_555
Bi2 F1 2.023824 1_655
Bi2 F17 2.045666 1_545
Bi2 F21 2.058509 1_545
Bi2 F27 2.076407 1_555
Bi2 F7 2.084350 1_545
Bi2 F5 2.116319 1_555
Bi2 F20 2.121024 1_555
Bi3 F19 2.023824 1_455
Bi3 F10 2.045666 1_565
Bi3 F12 2.058509 1_565
Bi3 F9 2.076407 1_555
Bi3 F15 2.084350 1_565
Bi3 F24 2.116319 1_555
Bi3 F13 2.121024 1_555
