# generated using pymatgen
data_MgTi4(FeO5)2
_symmetry_space_group_name_H-M   'P 1'
_cell_length_a   3.80421300
_cell_length_b   5.47409364
_cell_length_c   10.12007100
_cell_angle_alpha   90.00000000
_cell_angle_beta   90.00000000
_cell_angle_gamma   110.32881793
_symmetry_Int_Tables_number   1
_chemical_formula_structural   MgTi4(FeO5)2
_chemical_formula_sum   'Mg1 Ti4 Fe2 O10'
_cell_volume   197.62011835
_cell_formula_units_Z   1
loop_
 _symmetry_equiv_pos_site_id
 _symmetry_equiv_pos_as_xyz
  1  'x, y, z'
loop_
 _atom_site_type_symbol
 _atom_site_label
 _atom_site_symmetry_multiplicity
 _atom_site_fract_x
 _atom_site_fract_y
 _atom_site_fract_z
 _atom_site_occupancy
  Mg  Mg0  1  0.51751000  0.03903100  0.75000000  1
  Ti  Ti0  1  0.11682000  0.23320700  0.06654800  1
  Ti  Ti1  1  0.86234700  0.72735200  0.94014500  1
  Ti  Ti2  1  0.86234700  0.72735200  0.55985500  1
  Ti  Ti3  1  0.11682000  0.23320700  0.43345200  1
  Fe  Fe0  1  0.79207500  0.58351000  0.25000000  1
  Fe  Fe1  1  0.21173300  0.42618300  0.75000000  1
  O  O0  1  0.35991100  0.72076000  0.59687500  1
  O  O1  1  0.68462100  0.36840100  0.45318700  1
  O  O2  1  0.68462100  0.36840100  0.04681300  1
  O  O3  1  0.35991100  0.72076000  0.90312500  1
  O  O4  1  0.04837300  0.09558700  0.62284700  1
  O  O5  1  0.94348300  0.88740200  0.38489800  1
  O  O6  1  0.73642800  0.47501800  0.75000000  1
  O  O7  1  0.19328100  0.38584200  0.25000000  1
  O  O8  1  0.94348300  0.88740200  0.11510200  1
  O  O9  1  0.04837300  0.09558700  0.87715300  1
loop_
_geom_bond_atom_site_label_1
_geom_bond_atom_site_label_2
_geom_bond_distance
_geom_bond_site_symmetry_2
Mg0 O6 2.237984 1_555
Mg0 O3 2.251771 1_545
Mg0 O0 2.251771 1_545
Mg0 O4 2.306674 1_555
Mg0 O9 2.306674 1_555
Mg0 O9 2.322869 1_655
Mg0 O4 2.322869 1_655
Fe0 O8 2.072935 1_555
Fe0 O5 2.072935 1_555
Fe0 O7 2.155744 1_555
Fe0 O7 2.155885 1_655
Fe0 O2 2.333978 1_555
Fe0 O1 2.333978 1_555
Fe1 O6 1.917489 1_455
Fe1 O6 1.919618 1_555
Fe1 O4 2.129716 1_555
Fe1 O9 2.129716 1_555
Fe1 O0 2.165142 1_555
Fe1 O3 2.165142 1_555
O0 Ti2 1.935739 1_555
O0 Ti2 1.942154 1_455
O1 Ti3 2.033802 1_655
O1 Ti3 2.035346 1_555
O1 Ti2 2.135487 1_555
O2 Ti0 2.033802 1_655
O2 Ti0 2.035346 1_555
O2 Ti1 2.135487 1_554
O3 Ti1 1.935739 1_555
O3 Ti1 1.942154 1_455
O4 Ti2 1.994818 1_445
O4 Ti3 2.042728 1_555
O5 Ti3 1.841820 1_665
O5 Ti2 1.951902 1_555
O6 Ti2 2.319605 1_555
O6 Ti1 2.319605 1_555
O7 Ti0 2.015102 1_555
O7 Ti3 2.015102 1_555
O8 Ti0 1.841820 1_665
O8 Ti1 1.951902 1_554
O9 Ti1 1.994818 1_445
O9 Ti0 2.042728 1_556
