# generated using pymatgen
data_Na3HfInSi(PO6)2
_symmetry_space_group_name_H-M   'P 1'
_cell_length_a   15.79765710
_cell_length_b   9.10113839
_cell_length_c   9.11127237
_cell_angle_alpha   90.00000000
_cell_angle_beta   124.53478944
_cell_angle_gamma   90.00000000
_symmetry_Int_Tables_number   1
_chemical_formula_structural   Na3HfInSi(PO6)2
_chemical_formula_sum   'Na12 Hf4 In4 Si4 P8 O48'
_cell_volume   1079.14497356
_cell_formula_units_Z   4
loop_
 _symmetry_equiv_pos_site_id
 _symmetry_equiv_pos_as_xyz
  1  'x, y, z'
loop_
 _atom_site_type_symbol
 _atom_site_label
 _atom_site_symmetry_multiplicity
 _atom_site_fract_x
 _atom_site_fract_y
 _atom_site_fract_z
 _atom_site_occupancy
  Na  Na0  1  0.24979502  0.72773291  0.99372578  1
  Na  Na1  1  0.74979502  0.77226709  0.49372578  1
  Na  Na2  1  0.74979502  0.22773291  0.99372578  1
  Na  Na3  1  0.24979502  0.27226709  0.49372578  1
  Na  Na4  1  0.50635361  0.08483863  0.76062766  1
  Na  Na5  1  0.50635361  0.91516137  0.26062766  1
  Na  Na6  1  0.00635361  0.58483863  0.76062766  1
  Na  Na7  1  0.00635361  0.41516137  0.26062766  1
  Na  Na8  1  0.18084137  0.91994588  0.29585180  1
  Na  Na9  1  0.18084137  0.08005412  0.79585180  1
  Na  Na10  1  0.68084137  0.41994588  0.29585180  1
  Na  Na11  1  0.68084137  0.58005412  0.79585180  1
  Hf  Hf0  1  0.89645281  0.75608206  0.93837850  1
  Hf  Hf1  1  0.89645281  0.24391794  0.43837850  1
  Hf  Hf2  1  0.39645281  0.25608206  0.93837850  1
  Hf  Hf3  1  0.39645281  0.74391794  0.43837850  1
  In  In0  1  0.10238667  0.74644748  0.55833695  1
  In  In1  1  0.10238667  0.25355252  0.05833695  1
  In  In2  1  0.60238667  0.24644748  0.55833695  1
  In  In3  1  0.60238667  0.75355252  0.05833695  1
  Si  Si0  1  0.64745008  0.89674797  0.74304264  1
  Si  Si1  1  0.64745008  0.10325203  0.24304264  1
  Si  Si2  1  0.14745008  0.39674797  0.74304264  1
  Si  Si3  1  0.14745008  0.60325203  0.24304264  1
  P  P0  1  0.99914972  0.95566814  0.75352686  1
  P  P1  1  0.99914972  0.04433186  0.25352686  1
  P  P2  1  0.49914972  0.45566814  0.75352686  1
  P  P3  1  0.49914972  0.54433186  0.25352686  1
  P  P4  1  0.35102610  0.89928825  0.75374241  1
  P  P5  1  0.35102610  0.10071175  0.25374241  1
  P  P6  1  0.85102610  0.39928825  0.75374241  1
  P  P7  1  0.85102610  0.60071175  0.25374241  1
  O  O0  1  0.15088543  0.57537354  0.74603801  1
  O  O1  1  0.85112122  0.57197119  0.75788399  1
  O  O2  1  0.85112122  0.42802881  0.25788399  1
  O  O3  1  0.15088543  0.42462646  0.24603801  1
  O  O4  1  0.65088543  0.07537354  0.74603801  1
  O  O5  1  0.35112122  0.07197119  0.75788399  1
  O  O6  1  0.35112122  0.92802881  0.25788399  1
  O  O7  1  0.65088543  0.92462646  0.24603801  1
  O  O8  1  0.43878952  0.56055226  0.59078106  1
  O  O9  1  0.56521506  0.54389401  0.92556327  1
  O  O10  1  0.56521506  0.45610599  0.42556327  1
  O  O11  1  0.43878952  0.43944774  0.09078106  1
  O  O12  1  0.93878952  0.06055226  0.59078106  1
  O  O13  1  0.06521506  0.04389401  0.92556327  1
  O  O14  1  0.06521506  0.95610599  0.42556327  1
  O  O15  1  0.93878952  0.93944774  0.09078106  1
  O  O16  1  0.25566510  0.84781798  0.74522991  1
  O  O17  1  0.74438820  0.81342062  0.75621974  1
  O  O18  1  0.74438820  0.18657938  0.25621974  1
  O  O19  1  0.25566510  0.15218202  0.24522991  1
  O  O20  1  0.75566510  0.34781798  0.74522991  1
  O  O21  1  0.24438820  0.31342062  0.75621974  1
  O  O22  1  0.24438820  0.68657938  0.25621974  1
  O  O23  1  0.75566510  0.65218202  0.24522991  1
  O  O24  1  0.35058333  0.85940500  0.58542260  1
  O  O25  1  0.64669314  0.84988268  0.91234762  1
  O  O26  1  0.64669314  0.15011732  0.41234762  1
  O  O27  1  0.35058333  0.14059500  0.08542260  1
  O  O28  1  0.85058333  0.35940500  0.58542260  1
  O  O29  1  0.14669314  0.34988268  0.91234762  1
  O  O30  1  0.14669314  0.65011732  0.41234762  1
  O  O31  1  0.85058333  0.64059500  0.08542260  1
  O  O32  1  0.44774090  0.84048130  0.92359884  1
  O  O33  1  0.53917630  0.83240316  0.56274076  1
  O  O34  1  0.53917630  0.16759684  0.06274076  1
  O  O35  1  0.44774090  0.15951870  0.42359884  1
  O  O36  1  0.94774090  0.34048130  0.92359884  1
  O  O37  1  0.03917630  0.33240316  0.56274076  1
  O  O38  1  0.03917630  0.66759684  0.06274076  1
  O  O39  1  0.94774090  0.65951870  0.42359884  1
  O  O40  1  0.07564428  0.85936863  0.74146480  1
  O  O41  1  0.92064212  0.85446177  0.75547680  1
  O  O42  1  0.92064212  0.14553823  0.25547680  1
  O  O43  1  0.07564428  0.14063137  0.24146480  1
  O  O44  1  0.57564428  0.35936863  0.74146480  1
  O  O45  1  0.42064212  0.35446177  0.75547680  1
  O  O46  1  0.42064212  0.64553823  0.25547680  1
  O  O47  1  0.57564428  0.64063137  0.24146480  1
loop_
_geom_bond_atom_site_label_1
_geom_bond_atom_site_label_2
_geom_bond_distance
_geom_bond_site_symmetry_2
Na0 O0 2.336474 1_555
Na0 O22 2.469657 1_556
Na0 O46 2.496738 1_556
Na0 O16 2.562678 1_555
Na0 O40 2.667860 1_555
Na0 O6 2.703690 1_556
Na1 O7 2.336474 1_555
Na1 O17 2.469657 1_555
Na1 O41 2.496738 1_555
Na1 O23 2.562678 1_555
Na1 O47 2.667860 1_555
Na1 O1 2.703690 1_555
Na2 O4 2.336474 1_555
Na2 O18 2.469657 1_556
Na2 O42 2.496738 1_556
Na2 O20 2.562678 1_555
Na2 O44 2.667860 1_555
Na2 O2 2.703690 1_556
Na3 O3 2.336474 1_555
Na3 O21 2.469657 1_555
Na3 O45 2.496738 1_555
Na3 O19 2.562678 1_555
Na3 O43 2.667860 1_555
Na3 O5 2.703690 1_555
Na4 O4 2.362735 1_555
Na4 O5 2.441034 1_555
Na4 O34 2.606697 1_556
Na4 O35 2.743187 1_555
Na4 O44 2.772738 1_555
Na4 O45 2.790178 1_555
Na4 O25 2.814948 1_545
Na4 O24 2.891265 1_545
Na5 O7 2.362735 1_555
Na5 O6 2.441034 1_555
Na5 O33 2.606697 1_555
Na5 O32 2.743187 1_554
Na5 O47 2.772738 1_555
Na5 O46 2.790178 1_555
Na5 O26 2.814948 1_565
Na5 O27 2.891265 1_565
Na6 O0 2.362735 1_555
Na6 O1 2.441034 1_455
Na6 O38 2.606697 1_556
Na6 O39 2.743187 1_455
Na6 O40 2.772738 1_555
Na6 O41 2.790178 1_455
Na6 O29 2.814948 1_555
Na6 O28 2.891265 1_455
Na7 O3 2.362735 1_555
Na7 O2 2.441034 1_455
Na7 O37 2.606697 1_555
Na7 O36 2.743187 1_454
Na7 O43 2.772738 1_555
Na7 O42 2.790178 1_455
Na7 O30 2.814948 1_555
Na7 O31 2.891265 1_455
Na8 O22 2.461738 1_555
Na8 O43 2.471372 1_565
Na8 O24 2.536449 1_555
Na8 O19 2.587558 1_565
Na8 O14 2.699860 1_555
Na8 O30 2.845620 1_555
Na8 O6 2.901103 1_555
Na8 O13 3.000718 1_564
Na9 O21 2.461738 1_555
Na9 O40 2.471372 1_545
Na9 O27 2.536449 1_556
Na9 O16 2.587558 1_545
Na9 O13 2.699860 1_555
Na9 O29 2.845620 1_555
Na9 O5 2.901103 1_555
Na9 O14 3.000718 1_545
Na10 O18 2.461738 1_555
Na10 O47 2.471372 1_555
Na10 O28 2.536449 1_555
Na10 O23 2.587558 1_555
Na10 O10 2.699860 1_555
Na10 O26 2.845620 1_555
Na10 O2 2.901103 1_555
Na10 O9 3.000718 1_554
Na11 O17 2.461738 1_555
Na11 O44 2.471372 1_555
Na11 O31 2.536449 1_556
Na11 O20 2.587558 1_555
Na11 O9 2.699860 1_555
Na11 O25 2.845620 1_555
Na11 O1 2.901103 1_555
Na11 O10 3.000718 1_555
Hf0 O15 2.026699 1_556
Hf0 O38 2.029642 1_656
Hf0 O17 2.068150 1_555
Hf0 O41 2.108756 1_555
Hf0 O31 2.127326 1_556
Hf0 O1 2.165581 1_555
Hf1 O12 2.026699 1_555
Hf1 O37 2.029642 1_655
Hf1 O18 2.068150 1_555
Hf1 O42 2.108756 1_555
Hf1 O28 2.127326 1_555
Hf1 O2 2.165581 1_555
Hf2 O11 2.026699 1_556
Hf2 O34 2.029642 1_556
Hf2 O21 2.068150 1_555
Hf2 O45 2.108756 1_555
Hf2 O27 2.127326 1_556
Hf2 O5 2.165581 1_555
Hf3 O8 2.026699 1_555
Hf3 O33 2.029642 1_555
Hf3 O22 2.068150 1_555
Hf3 O46 2.108756 1_555
Hf3 O24 2.127326 1_555
Hf3 O6 2.165581 1_555
In0 O30 2.020753 1_555
In0 O0 2.109573 1_555
In0 O14 2.154951 1_555
In0 O39 2.168171 1_455
In0 O40 2.194966 1_555
In0 O16 2.222413 1_555
In1 O29 2.020753 1_554
In1 O3 2.109573 1_555
In1 O13 2.154951 1_554
In1 O36 2.168171 1_454
In1 O43 2.194966 1_555
In1 O19 2.222413 1_555
In2 O26 2.020753 1_555
In2 O4 2.109573 1_555
In2 O10 2.154951 1_555
In2 O35 2.168171 1_555
In2 O44 2.194966 1_555
In2 O20 2.222413 1_555
In3 O25 2.020753 1_554
In3 O7 2.109573 1_555
In3 O9 2.154951 1_554
In3 O32 2.168171 1_554
In3 O47 2.194966 1_555
In3 O23 2.222413 1_555
O0 Si2 1.626314 1_555
O1 P6 1.572045 1_555
O2 P7 1.572045 1_555
O3 Si3 1.626314 1_555
O4 Si0 1.626314 1_545
O5 P4 1.572045 1_545
O6 P5 1.572045 1_565
O7 Si1 1.626314 1_565
O8 P2 1.554369 1_555
O9 P2 1.528438 1_555
O10 P3 1.528438 1_555
O11 P3 1.554369 1_555
O12 P0 1.554369 1_545
O13 P0 1.528438 1_445
O14 P1 1.528438 1_465
O15 P1 1.554369 1_565
O16 P4 1.537028 1_555
O17 Si0 1.651137 1_555
O18 Si1 1.651137 1_555
O19 P5 1.537028 1_555
O20 P6 1.537028 1_555
O21 Si2 1.651137 1_555
O22 Si3 1.651137 1_555
O23 P7 1.537028 1_555
O24 P4 1.572131 1_555
O25 Si0 1.607031 1_555
O26 Si1 1.607031 1_555
O27 P5 1.572131 1_555
O28 P6 1.572131 1_555
O29 Si2 1.607031 1_555
O30 Si3 1.607031 1_555
O31 P7 1.572131 1_555
O32 P4 1.528062 1_555
O33 Si0 1.667767 1_555
O34 Si1 1.667767 1_555
O35 P5 1.528062 1_555
O36 P6 1.528062 1_555
O37 Si2 1.667767 1_555
O38 Si3 1.667767 1_555
O39 P7 1.528062 1_555
O40 P0 1.546322 1_455
O41 P0 1.553028 1_555
O42 P1 1.553028 1_555
O43 P1 1.546322 1_455
O44 P2 1.546322 1_555
O45 P2 1.553028 1_555
O46 P3 1.553028 1_555
O47 P3 1.546322 1_555
