# generated using pymatgen
data_ZrAs2
_symmetry_space_group_name_H-M   'P 1'
_cell_length_a   3.70903081
_cell_length_b   6.83543113
_cell_length_c   9.09211259
_cell_angle_alpha   90.00000000
_cell_angle_beta   90.00000000
_cell_angle_gamma   90.00000000
_symmetry_Int_Tables_number   1
_chemical_formula_structural   ZrAs2
_chemical_formula_sum   'Zr4 As8'
_cell_volume   230.51073629
_cell_formula_units_Z   4
loop_
 _symmetry_equiv_pos_site_id
 _symmetry_equiv_pos_as_xyz
  1  'x, y, z'
loop_
 _atom_site_type_symbol
 _atom_site_label
 _atom_site_symmetry_multiplicity
 _atom_site_fract_x
 _atom_site_fract_y
 _atom_site_fract_z
 _atom_site_occupancy
  Zr  Zr0  1  0.75000000  0.22553833  0.16156222  1
  Zr  Zr1  1  0.25000000  0.77446167  0.83843778  1
  Zr  Zr2  1  0.75000000  0.72553833  0.33843778  1
  Zr  Zr3  1  0.25000000  0.27446167  0.66156222  1
  As  As0  1  0.75000000  0.11769888  0.45763216  1
  As  As1  1  0.25000000  0.88230112  0.54236784  1
  As  As2  1  0.75000000  0.61769888  0.04236884  1
  As  As3  1  0.25000000  0.38230112  0.95763216  1
  As  As4  1  0.75000000  0.08377398  0.85178889  1
  As  As5  1  0.25000000  0.91622602  0.14821111  1
  As  As6  1  0.75000000  0.58377398  0.64821111  1
  As  As7  1  0.25000000  0.41622602  0.35178889  1
loop_
_geom_bond_atom_site_label_1
_geom_bond_atom_site_label_2
_geom_bond_distance
_geom_bond_site_symmetry_2
As0 As1 2.573288 1_545
As0 As1 2.573288 1_645
As0 Zr0 2.791002 1_555
As0 Zr3 2.832899 1_555
As0 Zr3 2.832899 1_655
As0 Zr2 2.891368 1_545
As0 As7 2.920482 1_555
As0 As7 2.920482 1_655
As1 Zr1 2.791002 1_555
As1 Zr2 2.832899 1_455
As1 Zr2 2.832899 1_555
As1 Zr3 2.891368 1_565
As1 As6 2.920482 1_555
As1 As6 2.920482 1_455
As2 As3 2.573291 1_554
As2 As3 2.573291 1_654
As2 Zr2 2.790993 1_555
As2 Zr1 2.832905 1_654
As2 Zr1 2.832905 1_554
As2 Zr0 2.891365 1_555
As2 As5 2.920479 1_555
As2 As5 2.920479 1_655
As3 Zr3 2.791002 1_555
As3 Zr0 2.832899 1_556
As3 Zr0 2.832899 1_456
As3 Zr1 2.891368 1_555
As3 As4 2.920482 1_455
As3 As4 2.920482 1_555
As4 Zr1 2.814988 1_545
As4 Zr1 2.814988 1_645
As4 Zr3 2.851237 1_555
As4 Zr3 2.851237 1_655
As4 Zr0 2.978530 1_556
As5 Zr0 2.814988 1_565
As5 Zr0 2.814988 1_465
As5 Zr2 2.851237 1_555
As5 Zr2 2.851237 1_455
As5 Zr1 2.978530 1_554
As6 Zr3 2.814988 1_655
As6 Zr3 2.814988 1_555
As6 Zr1 2.851237 1_655
As6 Zr1 2.851237 1_555
As6 Zr2 2.978530 1_555
As7 Zr2 2.814988 1_555
As7 Zr2 2.814988 1_455
As7 Zr0 2.851237 1_555
As7 Zr0 2.851237 1_455
As7 Zr3 2.978530 1_555
