# generated using pymatgen
data_Na14Nb4Al4Si11SO48
_symmetry_space_group_name_H-M   'P 1'
_cell_length_a   17.89659363
_cell_length_b   8.94277309
_cell_length_c   22.01421616
_cell_angle_alpha   90.07389089
_cell_angle_beta   90.13828951
_cell_angle_gamma   119.99806826
_symmetry_Int_Tables_number   1
_chemical_formula_structural   Na14Nb4Al4Si11SO48
_chemical_formula_sum   'Na42 Nb12 Al12 Si33 S3 O144'
_cell_volume   3051.27837010
_cell_formula_units_Z   3
loop_
 _symmetry_equiv_pos_site_id
 _symmetry_equiv_pos_as_xyz
  1  'x, y, z'
loop_
 _atom_site_type_symbol
 _atom_site_label
 _atom_site_symmetry_multiplicity
 _atom_site_fract_x
 _atom_site_fract_y
 _atom_site_fract_z
 _atom_site_occupancy
  Na  Na0  1  0.32109449  0.99982893  0.25007754  1
  Na  Na1  1  0.82169080  0.00025467  0.25006307  1
  Na  Na2  1  0.31718775  0.62850601  0.74876414  1
  Na  Na3  1  0.82206654  0.64424521  0.74894593  1
  Na  Na4  1  0.49512729  0.36408261  0.74790115  1
  Na  Na5  1  0.68235393  0.00143418  0.75063194  1
  Na  Na6  1  0.14876105  0.32556647  0.58536944  1
  Na  Na7  1  0.65222671  0.33295211  0.58255627  1
  Na  Na8  1  0.01745259  0.70903410  0.58589319  1
  Na  Na9  1  0.51205081  0.69121577  0.58309483  1
  Na  Na10  1  0.33114196  0.97697740  0.58337252  1
  Na  Na11  1  0.83872352  0.96896621  0.58647469  1
  Na  Na12  1  0.14904764  0.96282250  0.08206764  1
  Na  Na13  1  0.64876675  0.96263803  0.08198886  1
  Na  Na14  1  0.33214107  0.70475107  0.08334103  1
  Na  Na15  1  0.83222706  0.70458095  0.08391029  1
  Na  Na16  1  0.02016589  0.33509349  0.08360131  1
  Na  Na17  1  0.51966527  0.33444949  0.08357410  1
  Na  Na18  1  0.48336504  0.67505314  0.91398240  1
  Na  Na19  1  0.98522124  0.67370481  0.91368242  1
  Na  Na20  1  0.35324017  0.03121095  0.91427617  1
  Na  Na21  1  0.85271647  0.03139404  0.91382308  1
  Na  Na22  1  0.16358357  0.29903682  0.91552352  1
  Na  Na23  1  0.66161353  0.29236902  0.91458415  1
  Na  Na24  1  0.47906544  0.29573315  0.41651504  1
  Na  Na25  1  0.98067335  0.29612520  0.41645766  1
  Na  Na26  1  0.16743925  0.03769760  0.41972943  1
  Na  Na27  1  0.66786002  0.03724759  0.41748995  1
  Na  Na28  1  0.35167938  0.66351523  0.41683305  1
  Na  Na29  1  0.85291767  0.66561230  0.41623858  1
  Na  Na30  1  0.00174296  0.00012434  0.50026737  1
  Na  Na31  1  0.49893568  0.99867246  0.49534391  1
  Na  Na32  1  0.00034588  0.00168014  0.00035427  1
  Na  Na33  1  0.49942341  0.00007369  0.99937281  1
  Na  Na34  1  0.33024174  0.32374365  0.82773900  1
  Na  Na35  1  0.83935422  0.33510344  0.83262494  1
  Na  Na36  1  0.33625712  0.34471882  0.33716155  1
  Na  Na37  1  0.83704026  0.34539393  0.33668190  1
  Na  Na38  1  0.16443495  0.65484948  0.16319089  1
  Na  Na39  1  0.66429842  0.65467252  0.16308601  1
  Na  Na40  1  0.16330552  0.67389318  0.66822725  1
  Na  Na41  1  0.66699008  0.66689537  0.66648641  1
  Nb  Nb0  1  0.49713102  0.99685147  0.64597183  1
  Nb  Nb1  1  0.83998714  0.33897138  0.68925481  1
  Nb  Nb2  1  0.33956496  0.34836246  0.18769856  1
  Nb  Nb3  1  0.83983333  0.34881616  0.18771141  1
  Nb  Nb4  1  0.33320814  0.33537133  0.98029738  1
  Nb  Nb5  1  0.83292998  0.33323963  0.98102801  1
  Nb  Nb6  1  0.16670892  0.66960233  0.52042372  1
  Nb  Nb7  1  0.66611821  0.66570024  0.51859814  1
  Nb  Nb8  1  0.16527210  0.65115896  0.31230301  1
  Nb  Nb9  1  0.66533631  0.65198225  0.31201777  1
  Nb  Nb10  1  0.16383406  0.67336104  0.81330269  1
  Nb  Nb11  1  0.66787430  0.66978660  0.81320397  1
  Al  Al0  1  0.99199857  0.99607268  0.35617801  1
  Al  Al1  1  0.49150943  0.99549619  0.35557440  1
  Al  Al2  1  0.99361913  0.99026606  0.85617767  1
  Al  Al3  1  0.49753813  0.99833959  0.85369291  1
  Al  Al4  1  0.99675047  0.98745735  0.64374352  1
  Al  Al5  1  0.99412781  0.00424556  0.14417408  1
  Al  Al6  1  0.49373637  0.00400776  0.14397176  1
  Al  Al7  1  0.33720220  0.32779104  0.68240481  1
  Al  Al8  1  0.33122066  0.32980315  0.48084655  1
  Al  Al9  1  0.83482405  0.33362426  0.47962140  1
  Al  Al10  1  0.16689628  0.66629483  0.01962072  1
  Al  Al11  1  0.66668124  0.66629138  0.01998766  1
  Si  Si0  1  0.36205444  0.72263125  0.25022494  1
  Si  Si1  1  0.86227504  0.72301475  0.25031499  1
  Si  Si2  1  0.00087068  0.27700138  0.24967096  1
  Si  Si3  1  0.50070669  0.27685283  0.24961090  1
  Si  Si4  1  0.64293093  0.28447167  0.75358141  1
  Si  Si5  1  0.00343954  0.72892001  0.74974773  1
  Si  Si6  1  0.49456571  0.70459891  0.75261490  1
  Si  Si7  1  0.35377901  0.00663177  0.75282166  1
  Si  Si8  1  0.86428296  0.00474118  0.75010984  1
  Si  Si9  1  0.47335993  0.33369875  0.58213351  1
  Si  Si10  1  0.97744706  0.32560931  0.58022954  1
  Si  Si11  1  0.19068498  0.05726132  0.58440327  1
  Si  Si12  1  0.69168248  0.05048630  0.58064440  1
  Si  Si13  1  0.33182479  0.60660134  0.58391265  1
  Si  Si14  1  0.83625516  0.62230683  0.58069361  1
  Si  Si15  1  0.48501870  0.63736772  0.08310495  1
  Si  Si16  1  0.98518207  0.63760021  0.08292442  1
  Si  Si17  1  0.33139932  0.03433821  0.08459823  1
  Si  Si18  1  0.83141723  0.03357816  0.08508148  1
  Si  Si19  1  0.18326547  0.33154137  0.08442585  1
  Si  Si20  1  0.68312806  0.33147629  0.08455852  1
  Si  Si21  1  0.31142682  0.67334421  0.91793526  1
  Si  Si22  1  0.81236198  0.67170289  0.92018086  1
  Si  Si23  1  0.02418326  0.37341101  0.91937950  1
  Si  Si24  1  0.52389389  0.37441446  0.91932503  1
  Si  Si25  1  0.16279231  0.95472011  0.91996225  1
  Si  Si26  1  0.66263170  0.95293138  0.92001376  1
  Si  Si27  1  0.31427247  0.96572357  0.41510204  1
  Si  Si28  1  0.81474475  0.96649883  0.41506668  1
  Si  Si29  1  0.16609262  0.36328391  0.41781156  1
  Si  Si30  1  0.66654019  0.36257893  0.41665047  1
  Si  Si31  1  0.01767471  0.66836362  0.41521917  1
  Si  Si32  1  0.51704513  0.66805964  0.41498099  1
  S  S0  1  0.14148098  0.00011499  0.24988039  1
  S  S1  1  0.64163154  0.00035527  0.25005292  1
  S  S2  1  0.14267143  0.28156761  0.74991062  1
  O  O0  1  0.10218176  0.02035544  0.30566502  1
  O  O1  1  0.60237508  0.02030345  0.30579858  1
  O  O2  1  0.41566455  0.80449186  0.31218874  1
  O  O3  1  0.91564389  0.80501856  0.31224625  1
  O  O4  1  0.48460533  0.16268707  0.31044661  1
  O  O5  1  0.98417457  0.16233211  0.31043550  1
  O  O6  1  0.10207752  0.18381997  0.80600237  1
  O  O7  1  0.59727427  0.16307611  0.81103847  1
  O  O8  1  0.48307874  0.80149297  0.81047455  1
  O  O9  1  0.98585625  0.80784126  0.81079612  1
  O  O10  1  0.41582633  0.03440410  0.81041655  1
  O  O11  1  0.91559470  0.02442037  0.81245057  1
  O  O12  1  0.40006100  0.97159203  0.69177853  1
  O  O13  1  0.90371342  0.96960969  0.68929943  1
  O  O14  1  0.09098596  0.20219600  0.69437633  1
  O  O15  1  0.58513783  0.20029022  0.69111295  1
  O  O16  1  0.01279436  0.83092830  0.68767631  1
  O  O17  1  0.51526356  0.83013178  0.69156518  1
  O  O18  1  0.40304198  0.83719409  0.18955201  1
  O  O19  1  0.90289391  0.83700380  0.18946492  1
  O  O20  1  0.01328463  0.19512157  0.18781972  1
  O  O21  1  0.51354873  0.19530026  0.18783965  1
  O  O22  1  0.09181728  0.97996201  0.19408752  1
  O  O23  1  0.59187036  0.97994763  0.19418444  1
  O  O24  1  0.43723763  0.37278592  0.64384157  1
  O  O25  1  0.93229555  0.36651068  0.63949737  1
  O  O26  1  0.25658768  0.14075715  0.64091524  1
  O  O27  1  0.74882071  0.13281506  0.64290259  1
  O  O28  1  0.31663649  0.49483776  0.64517760  1
  O  O29  1  0.81562503  0.50013913  0.64210333  1
  O  O30  1  0.43467042  0.49989385  0.13957308  1
  O  O31  1  0.93458419  0.50002927  0.13942607  1
  O  O32  1  0.31525074  0.13012165  0.14277422  1
  O  O33  1  0.81523855  0.13016174  0.14287571  1
  O  O34  1  0.25241025  0.36499325  0.13967546  1
  O  O35  1  0.75249192  0.36521146  0.13963470  1
  O  O36  1  0.23073845  0.29778733  0.02464316  1
  O  O37  1  0.73100076  0.29809876  0.02478460  1
  O  O38  1  0.41827455  0.54180111  0.02506661  1
  O  O39  1  0.91816638  0.54150228  0.02486986  1
  O  O40  1  0.34918162  0.16713979  0.02607785  1
  O  O41  1  0.84912316  0.16611782  0.02632447  1
  O  O42  1  0.23109800  0.16688358  0.52221978  1
  O  O43  1  0.73479819  0.17029926  0.52238466  1
  O  O44  1  0.35127093  0.52961655  0.52350031  1
  O  O45  1  0.84996539  0.52890461  0.52283208  1
  O  O46  1  0.41483019  0.29799157  0.52236933  1
  O  O47  1  0.91600064  0.29390904  0.52239875  1
  O  O48  1  0.26508363  0.70153234  0.97615371  1
  O  O49  1  0.76535610  0.70044099  0.97720465  1
  O  O50  1  0.08419442  0.46484993  0.97787812  1
  O  O51  1  0.58511414  0.46852678  0.97698692  1
  O  O52  1  0.14638190  0.83080130  0.97729319  1
  O  O53  1  0.64935294  0.83071064  0.97720088  1
  O  O54  1  0.26665677  0.83453946  0.47410857  1
  O  O55  1  0.76568005  0.83365263  0.47372134  1
  O  O56  1  0.14762777  0.45988424  0.47539911  1
  O  O57  1  0.64780093  0.45795631  0.47500185  1
  O  O58  1  0.08179814  0.70111533  0.47506463  1
  O  O59  1  0.58134790  0.70136127  0.47537014  1
  O  O60  1  0.06953173  0.63426567  0.36002347  1
  O  O61  1  0.57022326  0.63565402  0.36035297  1
  O  O62  1  0.25031327  0.86928351  0.35700644  1
  O  O63  1  0.75013575  0.86986395  0.35722592  1
  O  O64  1  0.18415421  0.49973404  0.36066732  1
  O  O65  1  0.68432294  0.49999209  0.36041008  1
  O  O66  1  0.06806598  0.50339480  0.86029794  1
  O  O67  1  0.56722623  0.50030201  0.85838967  1
  O  O68  1  0.18415810  0.86583932  0.86049111  1
  O  O69  1  0.68322766  0.86939655  0.85840965  1
  O  O70  1  0.24916989  0.62974523  0.85687289  1
  O  O71  1  0.75133155  0.63395888  0.85822729  1
  O  O72  1  0.01359388  0.84466634  0.40874051  1
  O  O73  1  0.51392283  0.84559688  0.40893263  1
  O  O74  1  0.40774726  0.97645762  0.41225658  1
  O  O75  1  0.90769821  0.97621055  0.41255296  1
  O  O76  1  0.07971188  0.17845823  0.40771238  1
  O  O77  1  0.57972190  0.17792840  0.40767450  1
  O  O78  1  0.01315668  0.18309948  0.90924494  1
  O  O79  1  0.51161997  0.18330633  0.91052308  1
  O  O80  1  0.08078347  0.98183887  0.90801946  1
  O  O81  1  0.57917462  0.97615857  0.91109747  1
  O  O82  1  0.40750678  0.84005680  0.91021786  1
  O  O83  1  0.90833540  0.83872518  0.91273370  1
  O  O84  1  0.48747837  0.16365164  0.58742773  1
  O  O85  1  0.99078178  0.16124845  0.59202112  1
  O  O86  1  0.09277617  0.02716462  0.59157488  1
  O  O87  1  0.59389804  0.02393721  0.58706704  1
  O  O88  1  0.41674064  0.80756243  0.58885963  1
  O  O89  1  0.91943834  0.81542500  0.58740887  1
  O  O90  1  0.49067989  0.82188032  0.09262647  1
  O  O91  1  0.99053190  0.82177434  0.09245912  1
  O  O92  1  0.41938021  0.02360671  0.08765710  1
  O  O93  1  0.91954373  0.02359129  0.08769996  1
  O  O94  1  0.09105328  0.15527077  0.09101275  1
  O  O95  1  0.59108491  0.15518149  0.09100252  1
  O  O96  1  0.34650755  0.17851623  0.74299315  1
  O  O97  1  0.84437137  0.16705165  0.74578949  1
  O  O98  1  0.23145943  0.30746574  0.74651402  1
  O  O99  1  0.73978877  0.30911181  0.74733301  1
  O  O100  1  0.40990929  0.51407751  0.74443301  1
  O  O101  1  0.91520994  0.53051466  0.74510326  1
  O  O102  1  0.34536059  0.52258498  0.24460870  1
  O  O103  1  0.84528512  0.52268655  0.24465683  1
  O  O104  1  0.41222898  0.29698800  0.24471919  1
  O  O105  1  0.91226997  0.29740849  0.24462177  1
  O  O106  1  0.23166981  0.15502333  0.24679526  1
  O  O107  1  0.73177824  0.15498856  0.24696132  1
  O  O108  1  0.32002352  0.49657381  0.92188757  1
  O  O109  1  0.82022348  0.49521419  0.92140984  1
  O  O110  1  0.42795950  0.36018459  0.92202250  1
  O  O111  1  0.92776517  0.35735507  0.92235104  1
  O  O112  1  0.25182945  0.14488961  0.92174890  1
  O  O113  1  0.75200042  0.14464606  0.92186306  1
  O  O114  1  0.32075956  0.15154584  0.42249815  1
  O  O115  1  0.82084992  0.15183486  0.42264734  1
  O  O116  1  0.25438637  0.35766634  0.42312271  1
  O  O117  1  0.75451814  0.35680037  0.42269148  1
  O  O118  1  0.42510703  0.49409007  0.42209082  1
  O  O119  1  0.92536375  0.49371111  0.42248850  1
  O  O120  1  0.17880675  0.50668570  0.07748583  1
  O  O121  1  0.67861197  0.50638278  0.07741594  1
  O  O122  1  0.07596655  0.64293401  0.07694259  1
  O  O123  1  0.57597886  0.64302405  0.07700801  1
  O  O124  1  0.24497262  0.84837893  0.07673235  1
  O  O125  1  0.74505553  0.84794673  0.07728440  1
  O  O126  1  0.17900932  0.85705302  0.57759969  1
  O  O127  1  0.67997070  0.85501022  0.57860604  1
  O  O128  1  0.24835320  0.63932511  0.57856590  1
  O  O129  1  0.74799871  0.64024970  0.57767770  1
  O  O130  1  0.07227342  0.50389350  0.57858952  1
  O  O131  1  0.57273001  0.50280506  0.57751421  1
  O  O132  1  0.15426421  0.84526951  0.25285421  1
  O  O133  1  0.65431075  0.84519739  0.25298884  1
  O  O134  1  0.26348421  0.70250580  0.25529595  1
  O  O135  1  0.76355938  0.70278184  0.25539821  1
  O  O136  1  0.08387884  0.47726375  0.25515939  1
  O  O137  1  0.58382775  0.47727884  0.25539412  1
  O  O138  1  0.15351192  0.46213304  0.75308846  1
  O  O139  1  0.65349923  0.47835111  0.75402498  1
  O  O140  1  0.08488299  0.69139732  0.75489863  1
  O  O141  1  0.58380170  0.69031070  0.75433058  1
  O  O142  1  0.26148709  0.82171537  0.75433569  1
  O  O143  1  0.76295678  0.83183522  0.75460831  1
loop_
_geom_bond_atom_site_label_1
_geom_bond_atom_site_label_2
_geom_bond_distance
_geom_bond_site_symmetry_2
Na0 O104 2.324589 1_565
Na0 O134 2.325093 1_555
Na0 O132 2.589034 1_555
Na0 O106 2.591019 1_565
Na0 O62 2.655444 1_555
Na0 O32 2.660135 1_565
Na0 O4 2.857460 1_565
Na0 O18 2.859864 1_555
Na1 O105 2.323378 1_555
Na1 O135 2.325283 1_545
Na1 O107 2.595176 1_555
Na1 O133 2.597655 1_545
Na1 O33 2.659093 1_555
Na1 O63 2.663364 1_545
Na1 O5 2.843406 1_555
Na1 O19 2.854606 1_545
Na2 O100 2.346987 1_555
Na2 O142 2.390916 1_555
Na2 O98 2.488708 1_555
Na2 O138 2.539075 1_555
Na2 O28 2.571027 1_555
Na2 O70 2.678317 1_555
Na2 O8 2.904399 1_555
Na2 O12 2.942046 1_555
Na3 O101 2.348629 1_555
Na3 O143 2.392386 1_555
Na3 O99 2.595819 1_555
Na3 O139 2.615561 1_555
Na3 O29 2.654909 1_555
Na3 O71 2.701376 1_555
Na3 O13 2.844847 1_555
Na3 O9 2.876466 1_555
Na4 O96 2.329068 1_555
Na4 O100 2.485235 1_555
Na4 O139 2.489460 1_555
Na4 O24 2.529183 1_555
Na4 O141 2.533368 1_555
Na4 O67 2.733226 1_555
Na4 O10 2.904521 1_555
Na4 O15 2.944103 1_555
Na5 O99 2.409429 1_555
Na5 O141 2.439866 1_545
Na5 O97 2.513977 1_555
Na5 O143 2.564429 1_545
Na5 O27 2.653878 1_555
Na5 O69 2.655076 1_545
Na5 O17 2.893985 1_545
Na5 O7 2.895176 1_555
Na6 O86 2.339165 1_555
Na6 O85 2.454085 1_455
Na6 O128 2.464498 1_555
Na6 O130 2.573277 1_555
Na6 O14 2.631160 1_555
Na6 O56 2.708443 1_555
Na6 O42 2.865915 1_555
Na6 O28 2.911956 1_555
Na7 O129 2.406872 1_555
Na7 O87 2.419270 1_555
Na7 O131 2.550349 1_555
Na7 O84 2.556411 1_555
Na7 O57 2.637523 1_555
Na7 O15 2.675252 1_555
Na7 O29 2.847758 1_555
Na7 O43 2.864959 1_555
Na8 O89 2.377456 1_455
Na8 O86 2.467806 1_565
Na8 O130 2.480658 1_555
Na8 O16 2.510240 1_555
Na8 O126 2.514235 1_555
Na8 O58 2.716325 1_555
Na8 O25 2.906517 1_455
Na8 O45 2.941555 1_455
Na9 O88 2.404894 1_555
Na9 O131 2.421375 1_555
Na9 O87 2.578202 1_565
Na9 O127 2.605120 1_555
Na9 O59 2.659401 1_555
Na9 O17 2.677476 1_555
Na9 O24 2.809994 1_555
Na9 O44 2.812108 1_555
Na10 O126 2.378526 1_555
Na10 O84 2.439452 1_565
Na10 O128 2.617044 1_555
Na10 O88 2.641420 1_555
Na10 O54 2.692380 1_555
Na10 O12 2.695250 1_555
Na10 O26 2.736351 1_565
Na10 O46 2.829878 1_565
Na11 O85 2.386636 1_565
Na11 O89 2.440427 1_555
Na11 O127 2.498513 1_555
Na11 O13 2.541123 1_555
Na11 O129 2.557257 1_555
Na11 O55 2.780139 1_555
Na11 O47 2.889291 1_565
Na11 O27 2.939589 1_565
Na12 O124 2.401235 1_555
Na12 O94 2.421609 1_565
Na12 O91 2.473269 1_455
Na12 O122 2.482752 1_555
Na12 O52 2.579218 1_554
Na12 O22 2.705926 1_555
Na12 O36 2.889315 1_565
Na12 O32 2.897858 1_565
Na13 O125 2.408361 1_555
Na13 O95 2.418137 1_565
Na13 O90 2.467112 1_555
Na13 O123 2.480699 1_555
Na13 O53 2.592093 1_554
Na13 O23 2.707390 1_555
Na13 O37 2.890566 1_565
Na13 O33 2.903370 1_565
Na14 O120 2.412832 1_555
Na14 O124 2.471354 1_555
Na14 O92 2.474740 1_565
Na14 O90 2.492812 1_555
Na14 O18 2.637345 1_555
Na14 O48 2.638296 1_554
Na14 O38 2.897647 1_555
Na14 O34 2.913559 1_555
Na15 O121 2.417639 1_555
Na15 O125 2.469468 1_555
Na15 O93 2.475591 1_565
Na15 O91 2.487616 1_555
Na15 O19 2.623463 1_555
Na15 O49 2.625549 1_554
Na15 O39 2.903327 1_555
Na15 O35 2.905054 1_555
Na16 O122 2.418718 1_555
Na16 O93 2.448745 1_455
Na16 O120 2.465658 1_555
Na16 O94 2.502356 1_555
Na16 O20 2.588511 1_555
Na16 O50 2.601279 1_554
Na16 O31 2.880125 1_455
Na16 O41 2.931663 1_455
Na17 O123 2.423284 1_555
Na17 O92 2.443186 1_555
Na17 O121 2.470455 1_555
Na17 O95 2.505834 1_555
Na17 O21 2.588697 1_555
Na17 O51 2.632784 1_554
Na17 O30 2.877030 1_555
Na17 O40 2.926002 1_555
Na18 O81 2.361983 1_555
Na18 O82 2.455656 1_555
Na18 O110 2.480623 1_555
Na18 O108 2.541827 1_555
Na18 O8 2.546205 1_555
Na18 O38 2.718518 1_556
Na18 O53 2.922202 1_555
Na18 O67 2.922619 1_555
Na19 O80 2.413119 1_655
Na19 O83 2.470230 1_555
Na19 O111 2.488119 1_555
Na19 O9 2.561758 1_555
Na19 O109 2.566395 1_555
Na19 O39 2.726183 1_556
Na19 O66 2.856712 1_655
Na19 O52 2.859560 1_655
Na20 O82 2.352344 1_545
Na20 O79 2.457101 1_555
Na20 O112 2.490054 1_555
Na20 O10 2.542344 1_555
Na20 O110 2.556569 1_555
Na20 O40 2.760794 1_556
Na20 O68 2.872112 1_545
Na20 O48 2.899375 1_545
Na21 O83 2.382235 1_545
Na21 O113 2.476383 1_555
Na21 O78 2.490340 1_655
Na21 O11 2.516414 1_555
Na21 O111 2.533540 1_555
Na21 O41 2.767658 1_556
Na21 O69 2.893289 1_545
Na21 O49 2.923164 1_545
Na22 O78 2.355507 1_555
Na22 O108 2.455756 1_555
Na22 O80 2.462525 1_545
Na22 O112 2.567028 1_555
Na22 O6 2.633058 1_555
Na22 O36 2.686001 1_556
Na22 O50 2.865755 1_555
Na22 O70 2.872179 1_555
Na23 O79 2.354941 1_555
Na23 O81 2.450743 1_545
Na23 O109 2.493804 1_555
Na23 O7 2.551078 1_555
Na23 O113 2.554148 1_555
Na23 O37 2.711375 1_556
Na23 O51 2.898859 1_555
Na23 O71 2.926379 1_555
Na24 O118 2.409782 1_555
Na24 O114 2.460886 1_555
Na24 O74 2.478865 1_545
Na24 O77 2.508316 1_555
Na24 O46 2.605435 1_555
Na24 O4 2.643795 1_555
Na24 O57 2.911578 1_555
Na24 O61 2.913966 1_555
Na25 O119 2.422513 1_555
Na25 O76 2.480329 1_655
Na25 O75 2.482053 1_545
Na25 O115 2.485282 1_555
Na25 O47 2.601813 1_555
Na25 O5 2.636569 1_555
Na25 O56 2.890826 1_655
Na25 O60 2.902951 1_655
Na26 O114 2.403102 1_555
Na26 O72 2.421207 1_545
Na26 O76 2.468718 1_555
Na26 O116 2.482173 1_555
Na26 O42 2.527454 1_555
Na26 O0 2.738075 1_555
Na26 O58 2.880695 1_545
Na26 O62 2.934765 1_545
Na27 O115 2.398385 1_555
Na27 O73 2.416178 1_545
Na27 O77 2.470009 1_555
Na27 O117 2.480191 1_555
Na27 O43 2.595650 1_555
Na27 O1 2.692524 1_555
Na27 O63 2.894314 1_545
Na27 O59 2.900393 1_545
Na28 O116 2.402485 1_555
Na28 O118 2.454900 1_555
Na28 O74 2.458098 1_555
Na28 O73 2.527458 1_555
Na28 O2 2.604651 1_555
Na28 O44 2.635619 1_555
Na28 O64 2.872152 1_555
Na28 O54 2.928419 1_555
Na29 O117 2.426356 1_555
Na29 O75 2.441485 1_555
Na29 O119 2.460864 1_555
Na29 O72 2.501765 1_655
Na29 O3 2.583736 1_555
Na29 O45 2.635758 1_555
Na29 O65 2.883897 1_555
Na29 O55 2.940709 1_555
Na30 O89 2.483329 1_445
Na30 O75 2.496087 1_445
Na30 O72 2.515388 1_545
Na30 O86 2.518347 1_555
Na30 O76 2.537491 1_555
Na30 O85 2.543945 1_455
Na31 O74 2.389319 1_555
Na31 O73 2.434632 1_555
Na31 O77 2.467547 1_565
Na31 O87 2.571940 1_565
Na31 O84 2.573890 1_565
Na31 O88 2.613941 1_555
Na32 O93 2.474405 1_455
Na32 O83 2.476636 1_444
Na32 O94 2.500534 1_555
Na32 O78 2.519171 1_554
Na32 O91 2.541273 1_445
Na32 O80 2.550334 1_544
Na33 O81 2.485330 1_545
Na33 O92 2.487451 1_556
Na33 O79 2.492213 1_555
Na33 O82 2.495833 1_545
Na33 O95 2.526949 1_556
Na33 O90 2.557134 1_546
Na34 O96 2.372000 1_555
Na34 O100 2.426367 1_555
Na34 O98 2.463858 1_555
Na34 O112 2.566855 1_555
Na34 O110 2.623630 1_555
Na34 O108 2.644646 1_555
Na35 O97 2.459520 1_555
Na35 O111 2.472610 1_555
Na35 O101 2.501626 1_555
Na35 O99 2.514601 1_555
Na35 O109 2.544359 1_555
Na35 O113 2.562258 1_555
Na36 O118 2.379845 1_555
Na36 O116 2.433877 1_555
Na36 O114 2.474304 1_555
Na36 O102 2.541408 1_555
Na36 O104 2.600704 1_555
Na36 O106 2.671516 1_555
Na37 O119 2.389287 1_555
Na37 O117 2.437266 1_555
Na37 O115 2.484180 1_555
Na37 O103 2.532873 1_555
Na37 O105 2.587026 1_555
Na37 O107 2.667428 1_555
Na38 O120 2.391273 1_555
Na38 O122 2.437093 1_555
Na38 O124 2.494544 1_555
Na38 O136 2.536250 1_555
Na38 O134 2.580725 1_555
Na38 O132 2.670600 1_555
Na39 O121 2.390947 1_555
Na39 O123 2.433186 1_555
Na39 O125 2.483487 1_555
Na39 O137 2.541259 1_555
Na39 O135 2.585857 1_555
Na39 O133 2.673854 1_555
Na40 O140 2.422110 1_555
Na40 O142 2.466396 1_555
Na40 O126 2.508608 1_555
Na40 O130 2.521794 1_555
Na40 O138 2.604940 1_555
Na40 O128 2.606079 1_555
Na41 O139 2.493692 1_555
Na41 O127 2.499304 1_555
Na41 O141 2.514873 1_555
Na41 O143 2.516372 1_555
Na41 O131 2.517287 1_555
Na41 O129 2.517697 1_555
Nb0 O12 1.924184 1_555
Nb0 O17 1.954917 1_555
Nb0 O15 1.974995 1_565
Nb0 O88 2.016588 1_555
Nb0 O84 2.043880 1_565
Nb0 O87 2.081235 1_565
Nb1 O25 1.895314 1_555
Nb1 O101 1.984628 1_555
Nb1 O29 1.993712 1_555
Nb1 O97 2.010948 1_555
Nb1 O27 2.020261 1_555
Nb1 O99 2.110622 1_555
Nb2 O30 1.887280 1_555
Nb2 O34 1.948608 1_555
Nb2 O102 1.959734 1_555
Nb2 O104 2.017161 1_555
Nb2 O32 2.029828 1_555
Nb2 O106 2.256109 1_555
Nb3 O31 1.885061 1_555
Nb3 O35 1.951039 1_555
Nb3 O103 1.959949 1_555
Nb3 O105 2.012737 1_555
Nb3 O33 2.030701 1_555
Nb3 O107 2.260904 1_555
Nb4 O40 1.947663 1_556
Nb4 O36 1.955044 1_556
Nb4 O38 1.968436 1_556
Nb4 O108 2.032421 1_555
Nb4 O112 2.046605 1_555
Nb4 O110 2.050725 1_555
Nb5 O41 1.935845 1_556
Nb5 O37 1.946877 1_556
Nb5 O39 1.968387 1_556
Nb5 O113 2.044815 1_555
Nb5 O109 2.050664 1_555
Nb5 O111 2.059356 1_555
Nb6 O54 1.946585 1_555
Nb6 O58 1.951246 1_555
Nb6 O56 1.992378 1_555
Nb6 O126 2.016692 1_555
Nb6 O130 2.050111 1_555
Nb6 O128 2.057678 1_555
Nb7 O55 1.934689 1_555
Nb7 O59 1.945892 1_555
Nb7 O57 1.965936 1_555
Nb7 O131 2.044114 1_555
Nb7 O129 2.053227 1_555
Nb7 O127 2.060496 1_555
Nb8 O64 1.881779 1_555
Nb8 O60 1.952569 1_555
Nb8 O136 1.960533 1_555
Nb8 O134 2.019965 1_555
Nb8 O62 2.027070 1_555
Nb8 O132 2.260847 1_555
Nb9 O65 1.887231 1_555
Nb9 O61 1.952341 1_555
Nb9 O137 1.957015 1_555
Nb9 O135 2.015826 1_555
Nb9 O63 2.030027 1_555
Nb9 O133 2.249137 1_555
Nb10 O68 1.881965 1_555
Nb10 O66 1.930238 1_555
Nb10 O140 1.973623 1_555
Nb10 O70 1.998519 1_555
Nb10 O142 2.048522 1_555
Nb10 O138 2.236710 1_555
Nb11 O69 1.938030 1_555
Nb11 O71 1.946298 1_555
Nb11 O67 1.952906 1_555
Nb11 O143 2.051639 1_555
Nb11 O141 2.060253 1_555
Nb11 O139 2.060696 1_555
Al0 O3 1.837539 1_555
Al0 O5 1.858929 1_565
Al0 O75 1.894609 1_555
Al0 O76 1.959067 1_665
Al0 O72 1.961311 1_655
Al0 O0 2.180628 1_665
Al1 O2 1.828506 1_555
Al1 O4 1.850853 1_565
Al1 O74 1.894087 1_555
Al1 O73 1.969042 1_555
Al1 O77 1.969878 1_565
Al1 O1 2.181202 1_565
Al2 O11 1.841337 1_565
Al2 O9 1.856687 1_555
Al2 O83 1.913493 1_555
Al2 O78 1.962323 1_665
Al2 O80 1.962334 1_655
Al2 O6 2.153941 1_665
Al3 O8 1.899998 1_555
Al3 O10 1.901533 1_565
Al3 O7 1.902706 1_565
Al3 O82 1.970229 1_555
Al3 O79 1.985218 1_565
Al3 O81 2.013061 1_555
Al4 O16 1.838837 1_655
Al4 O13 1.883176 1_555
Al4 O89 1.917688 1_555
Al4 O86 1.949042 1_665
Al4 O85 1.973151 1_565
Al4 O14 2.126355 1_665
Al5 O20 1.833967 1_655
Al5 O19 1.861920 1_545
Al5 O93 1.892277 1_555
Al5 O91 1.962870 1_545
Al5 O94 1.968221 1_655
Al5 O22 2.163817 1_645
Al6 O21 1.836392 1_555
Al6 O18 1.859378 1_545
Al6 O92 1.887928 1_555
Al6 O90 1.959398 1_545
Al6 O95 1.970123 1_555
Al6 O23 2.172961 1_545
Al7 O26 1.813840 1_555
Al7 O24 1.837292 1_555
Al7 O28 1.894784 1_555
Al7 O96 1.953107 1_555
Al7 O100 2.037400 1_555
Al7 O98 2.296901 1_555
Al8 O44 1.885819 1_555
Al8 O42 1.887807 1_555
Al8 O46 1.890822 1_555
Al8 O116 1.975525 1_555
Al8 O114 1.980229 1_555
Al8 O118 2.049808 1_555
Al9 O45 1.883962 1_555
Al9 O43 1.902966 1_555
Al9 O47 1.906239 1_555
Al9 O115 1.966023 1_555
Al9 O119 1.987930 1_555
Al9 O117 1.992239 1_555
Al10 O48 1.886254 1_554
Al10 O50 1.898257 1_554
Al10 O52 1.925950 1_554
Al10 O124 1.973765 1_555
Al10 O122 1.988688 1_555
Al10 O120 2.003266 1_555
Al11 O51 1.887411 1_554
Al11 O49 1.889013 1_554
Al11 O53 1.898282 1_554
Al11 O125 1.976133 1_555
Al11 O123 1.981596 1_555
Al11 O121 1.999386 1_555
O0 S0 1.471882 1_555
O1 S1 1.469811 1_555
O2 Si0 1.614293 1_555
O3 Si1 1.612316 1_555
O4 Si3 1.621787 1_555
O5 Si2 1.621520 1_655
O6 S2 1.479450 1_555
O7 Si4 1.602385 1_555
O8 Si6 1.609978 1_555
O9 Si5 1.620177 1_655
O10 Si7 1.618319 1_555
O11 Si8 1.609156 1_555
O12 Si7 1.689354 1_565
O13 Si8 1.616769 1_565
O14 S2 1.479806 1_555
O15 Si4 1.655155 1_555
O16 Si5 1.605928 1_555
O17 Si6 1.671581 1_555
O18 Si0 1.621262 1_555
O19 Si1 1.621497 1_555
O20 Si2 1.612778 1_555
O21 Si3 1.612590 1_555
O22 S0 1.471399 1_565
O23 S1 1.473319 1_565
O24 Si9 1.616933 1_555
O25 Si10 1.669876 1_555
O26 Si11 1.614376 1_555
O27 Si12 1.644379 1_555
O28 Si13 1.620313 1_555
O29 Si14 1.661440 1_555
O30 Si15 1.664417 1_555
O31 Si16 1.666158 1_555
O32 Si17 1.644360 1_555
O33 Si18 1.642439 1_555
O34 Si19 1.649772 1_555
O35 Si20 1.649059 1_555
O36 Si19 1.675051 1_555
O37 Si20 1.677738 1_555
O38 Si15 1.660924 1_555
O39 Si16 1.664169 1_555
O40 Si17 1.673132 1_555
O41 Si18 1.675937 1_555
O42 Si11 1.630135 1_555
O43 Si12 1.603107 1_555
O44 Si13 1.613463 1_555
O45 Si14 1.607512 1_555
O46 Si9 1.608711 1_555
O47 Si10 1.609668 1_555
O48 Si21 1.614734 1_555
O49 Si22 1.603140 1_555
O50 Si23 1.610278 1_555
O51 Si24 1.608896 1_555
O52 Si25 1.608463 1_555
O53 Si26 1.606635 1_555
O54 Si27 1.673151 1_555
O55 Si28 1.678099 1_555
O56 Si29 1.657502 1_555
O57 Si30 1.665940 1_555
O58 Si31 1.671536 1_555
O59 Si32 1.682048 1_555
O60 Si31 1.648695 1_555
O61 Si32 1.648141 1_555
O62 Si27 1.640928 1_555
O63 Si28 1.641954 1_555
O64 Si29 1.669586 1_555
O65 Si30 1.661022 1_555
O66 Si23 1.660005 1_555
O67 Si24 1.674570 1_555
O68 Si25 1.672022 1_555
O69 Si26 1.675783 1_555
O70 Si21 1.660554 1_555
O71 Si22 1.670329 1_555
O72 Si31 1.620840 1_555
O73 Si32 1.621970 1_555
O74 Si27 1.628378 1_555
O75 Si28 1.622958 1_555
O76 Si29 1.616659 1_555
O77 Si30 1.616192 1_555
O78 Si23 1.627329 1_555
O79 Si24 1.621776 1_555
O80 Si25 1.623649 1_555
O81 Si26 1.619081 1_555
O82 Si21 1.626933 1_555
O83 Si22 1.626238 1_555
O84 Si9 1.665672 1_555
O85 Si10 1.623640 1_555
O86 Si11 1.642423 1_555
O87 Si12 1.650668 1_555
O88 Si13 1.678936 1_555
O89 Si14 1.627290 1_555
O90 Si15 1.615153 1_555
O91 Si16 1.614699 1_555
O92 Si17 1.625910 1_555
O93 Si18 1.624552 1_555
O94 Si19 1.621669 1_555
O95 Si20 1.619873 1_555
O96 Si7 1.620877 1_555
O97 Si8 1.661417 1_555
O98 S2 1.488887 1_555
O99 Si4 1.640588 1_555
O100 Si6 1.627098 1_555
O101 Si5 1.687938 1_655
O102 Si0 1.664259 1_555
O103 Si1 1.664919 1_555
O104 Si3 1.683943 1_555
O105 Si2 1.687753 1_655
O106 S0 1.514542 1_555
O107 S1 1.513152 1_555
O108 Si21 1.665447 1_555
O109 Si22 1.653387 1_555
O110 Si24 1.658162 1_555
O111 Si23 1.659897 1_655
O112 Si25 1.650038 1_545
O113 Si26 1.660321 1_545
O114 Si27 1.614854 1_545
O115 Si28 1.613982 1_545
O116 Si29 1.609842 1_555
O117 Si30 1.606173 1_555
O118 Si32 1.610708 1_555
O119 Si31 1.617441 1_655
O120 Si19 1.615074 1_555
O121 Si20 1.613940 1_555
O122 Si16 1.607149 1_455
O123 Si15 1.609127 1_555
O124 Si17 1.616736 1_565
O125 Si18 1.614453 1_565
O126 Si11 1.701985 1_565
O127 Si12 1.653833 1_565
O128 Si13 1.663575 1_555
O129 Si14 1.666701 1_555
O130 Si10 1.648692 1_455
O131 Si9 1.664931 1_555
O132 S0 1.513635 1_565
O133 S1 1.515234 1_565
O134 Si0 1.685328 1_555
O135 Si1 1.687532 1_555
O136 Si2 1.663447 1_555
O137 Si3 1.665546 1_555
O138 S2 1.528514 1_555
O139 Si4 1.647433 1_555
O140 Si5 1.654782 1_555
O141 Si6 1.664932 1_555
O142 Si7 1.653197 1_565
O143 Si8 1.698991 1_565
