# generated using pymatgen
data_MgFe6O7F5
_symmetry_space_group_name_H-M   'P 1'
_cell_length_a   5.30306075
_cell_length_b   5.18558743
_cell_length_c   8.96241435
_cell_angle_alpha   88.97318234
_cell_angle_beta   90.01169438
_cell_angle_gamma   102.95944405
_symmetry_Int_Tables_number   1
_chemical_formula_structural   MgFe6O7F5
_chemical_formula_sum   'Mg1 Fe6 O7 F5'
_cell_volume   240.14375467
_cell_formula_units_Z   1
loop_
 _symmetry_equiv_pos_site_id
 _symmetry_equiv_pos_as_xyz
  1  'x, y, z'
loop_
 _atom_site_type_symbol
 _atom_site_label
 _atom_site_symmetry_multiplicity
 _atom_site_fract_x
 _atom_site_fract_y
 _atom_site_fract_z
 _atom_site_occupancy
  Mg  Mg0  1  0.97046430  0.48726495  0.35343448  1
  Fe  Fe0  1  0.02266875  0.94172652  0.97337708  1
  Fe  Fe1  1  0.01194410  0.99707362  0.32497061  1
  Fe  Fe2  1  0.07901294  0.99232990  0.65128946  1
  Fe  Fe3  1  0.51667816  0.46408189  0.15644159  1
  Fe  Fe4  1  0.41634297  0.53959809  0.84042045  1
  Fe  Fe5  1  0.44849666  0.57559275  0.49392431  1
  O  O0  1  0.18149856  0.78155565  0.48839526  1
  O  O1  1  0.19149364  0.78926068  0.81866743  1
  O  O2  1  0.28566636  0.28146336  0.00284529  1
  O  O3  1  0.28067472  0.33944952  0.32625394  1
  O  O4  1  0.34031596  0.32371728  0.65925416  1
  O  O5  1  0.67703902  0.69792378  0.99258980  1
  O  O6  1  0.69936862  0.68715546  0.33102241  1
  F  F0  1  0.14708433  0.77804281  0.15722840  1
  F  F1  1  0.69773558  0.73530289  0.65614206  1
  F  F2  1  0.78219595  0.24361518  0.19177170  1
  F  F3  1  0.88776009  0.13986593  0.81535531  1
  F  F4  1  0.86355728  0.19108675  0.50233327  1
loop_
_geom_bond_atom_site_label_1
_geom_bond_atom_site_label_2
_geom_bond_distance
_geom_bond_site_symmetry_2
Mg0 O6 1.960200 1_555
Mg0 O3 1.981298 1_655
Mg0 O0 2.084225 1_655
Fe0 O1 1.925225 1_555
Fe0 O5 1.985068 1_455
Fe0 O2 2.008258 1_566
Fe1 O3 2.012224 1_565
Fe1 O6 2.033585 1_455
Fe1 O0 2.143427 1_555
Fe2 O4 1.953105 1_565
Fe2 O1 1.984883 1_555
Fe2 O0 1.986286 1_555
Fe3 O2 1.954042 1_555
Fe3 O5 1.955578 1_554
Fe3 O3 1.975613 1_555
Fe3 O6 2.070385 1_555
Fe4 O1 1.954269 1_555
Fe4 O2 1.976274 1_556
Fe4 O4 1.978526 1_555
Fe4 O5 1.993882 1_555
Fe5 O0 1.955583 1_555
Fe5 O4 1.955907 1_555
Fe5 O6 1.965074 1_555
Fe5 O3 2.031343 1_555
F0 Fe0 2.017787 1_554
F0 Fe1 2.119083 1_555
F0 Mg0 2.348476 1_455
F1 Fe5 2.024347 1_555
F1 Fe2 2.157731 1_655
F1 Fe4 2.290437 1_555
F2 Fe3 2.024540 1_555
F2 Mg0 2.047355 1_555
F2 Fe1 2.277576 1_645
F3 Fe0 1.962256 1_645
F3 Fe2 2.040853 1_645
F4 Mg0 1.999363 1_555
F4 Fe1 2.138022 1_645
F4 Fe2 2.151338 1_645
