# generated using pymatgen
data_CoSe2
_symmetry_space_group_name_H-M   'P 1'
_cell_length_a   5.88289015
_cell_length_b   5.88377538
_cell_length_c   5.88428850
_cell_angle_alpha   90.00032838
_cell_angle_beta   89.99874870
_cell_angle_gamma   89.99436756
_symmetry_Int_Tables_number   1
_chemical_formula_structural   CoSe2
_chemical_formula_sum   'Co4 Se8'
_cell_volume   203.67643212
_cell_formula_units_Z   4
loop_
 _symmetry_equiv_pos_site_id
 _symmetry_equiv_pos_as_xyz
  1  'x, y, z'
loop_
 _atom_site_type_symbol
 _atom_site_label
 _atom_site_symmetry_multiplicity
 _atom_site_fract_x
 _atom_site_fract_y
 _atom_site_fract_z
 _atom_site_occupancy
  Co  Co0  1  -0.00000000  0.00000000  0.00000000  1
  Co  Co1  1  0.50000000  0.00000000  0.50000000  1
  Co  Co2  1  0.50000000  0.50000000  0.00000000  1
  Co  Co3  1  -0.00000000  0.50000000  0.50000000  1
  Se  Se0  1  0.38139353  0.38142090  0.38139704  1
  Se  Se1  1  0.11857764  0.61860167  0.88134038  1
  Se  Se2  1  0.88142391  0.11866008  0.61867067  1
  Se  Se3  1  0.61859596  0.88133476  0.11863552  1
  Se  Se4  1  0.61860647  0.61857910  0.61860296  1
  Se  Se5  1  0.88142236  0.38139833  0.11865962  1
  Se  Se6  1  0.11857609  0.88133992  0.38132933  1
  Se  Se7  1  0.38140404  0.11866524  0.88136448  1
loop_
_geom_bond_atom_site_label_1
_geom_bond_atom_site_label_2
_geom_bond_distance
_geom_bond_site_symmetry_2
Co0 Se2 2.451307 1_454
Co0 Se6 2.451307 1_545
Co0 Se7 2.451429 1_554
Co0 Se3 2.451429 1_445
Co0 Se1 2.451450 1_544
Co0 Se5 2.451450 1_455
Co1 Se3 2.451503 1_545
Co1 Se7 2.451503 1_555
Co1 Se0 2.451541 1_555
Co1 Se4 2.451541 1_545
Co1 Se2 2.451611 1_555
Co1 Se6 2.451611 1_545
Co2 Se7 2.451232 1_554
Co2 Se3 2.451232 1_555
Co2 Se5 2.451363 1_555
Co2 Se1 2.451363 1_554
Co2 Se4 2.451598 1_554
Co2 Se0 2.451598 1_555
Co3 Se0 2.451045 1_555
Co3 Se4 2.451045 1_455
Co3 Se2 2.451284 1_455
Co3 Se6 2.451284 1_555
Co3 Se1 2.451303 1_555
Co3 Se5 2.451303 1_455
Se0 Se4 2.417268 1_555
Se1 Se5 2.417585 1_456
Se2 Se6 2.417879 1_645
Se3 Se7 2.417854 1_564
