# generated using pymatgen
data_EuHg2
_symmetry_space_group_name_H-M   'P 1'
_cell_length_a   10.03994354
_cell_length_b   10.03994335
_cell_length_c   7.43937048
_cell_angle_alpha   90.00000000
_cell_angle_beta   90.00000000
_cell_angle_gamma   119.99999398
_symmetry_Int_Tables_number   1
_chemical_formula_structural   EuHg2
_chemical_formula_sum   'Eu8 Hg16'
_cell_volume   649.42556060
_cell_formula_units_Z   8
loop_
 _symmetry_equiv_pos_site_id
 _symmetry_equiv_pos_as_xyz
  1  'x, y, z'
loop_
 _atom_site_type_symbol
 _atom_site_label
 _atom_site_symmetry_multiplicity
 _atom_site_fract_x
 _atom_site_fract_y
 _atom_site_fract_z
 _atom_site_occupancy
  Eu  Eu0_0  1  0.00000000  0.00000000  0.00000000  1
  Eu  Eu0_1  1  0.00000000  0.00000000  0.50000000  1
  Eu  Eu0_2  1  0.00000000  0.50000000  0.00000000  1
  Eu  Eu0_3  1  0.00000000  0.50000000  0.50000000  1
  Eu  Eu0_4  1  0.50000000  0.00000000  0.00000000  1
  Eu  Eu0_5  1  0.50000000  0.00000000  0.50000000  1
  Eu  Eu0_6  1  0.50000000  0.50000000  0.00000000  1
  Eu  Eu0_7  1  0.50000000  0.50000000  0.50000000  1
  Hg  Hg0_0  1  0.16666650  0.33333350  0.25000000  1
  Hg  Hg0_1  1  0.16666650  0.33333350  0.75000000  1
  Hg  Hg0_2  1  0.16666650  0.83333350  0.25000000  1
  Hg  Hg0_3  1  0.16666650  0.83333350  0.75000000  1
  Hg  Hg0_4  1  0.66666650  0.33333350  0.25000000  1
  Hg  Hg0_5  1  0.66666650  0.33333350  0.75000000  1
  Hg  Hg0_6  1  0.66666650  0.83333350  0.25000000  1
  Hg  Hg0_7  1  0.66666650  0.83333350  0.75000000  1
  Hg  Hg1_0  1  0.33333350  0.16666650  0.25000000  1
  Hg  Hg1_1  1  0.33333350  0.16666650  0.75000000  1
  Hg  Hg1_2  1  0.33333350  0.66666650  0.25000000  1
  Hg  Hg1_3  1  0.33333350  0.66666650  0.75000000  1
  Hg  Hg1_4  1  0.83333350  0.16666650  0.25000000  1
  Hg  Hg1_5  1  0.83333350  0.16666650  0.75000000  1
  Hg  Hg1_6  1  0.83333350  0.66666650  0.25000000  1
  Hg  Hg1_7  1  0.83333350  0.66666650  0.75000000  1
loop_
_geom_bond_atom_site_label_1
_geom_bond_atom_site_label_2
_geom_bond_distance
_geom_bond_site_symmetry_2
Eu0_0 Hg1_5 3.443695 1_454
Eu0_0 Hg1_4 3.443695 1_455
Eu0_0 Hg0_2 3.443695 1_545
Eu0_0 Hg0_3 3.443695 1_544
Eu0_0 Hg1_6 3.443699 1_445
Eu0_0 Hg1_7 3.443699 1_444
Eu0_0 Hg0_1 3.443699 1_554
Eu0_0 Hg0_0 3.443699 1_555
Eu0_0 Hg0_7 3.443699 1_444
Eu0_0 Hg0_6 3.443699 1_445
Eu0_0 Hg1_0 3.443699 1_555
Eu0_0 Hg1_1 3.443699 1_554
Eu0_0 Eu0_1 3.719685 1_554
Eu0_0 Eu0_1 3.719685 1_555
Eu0_1 Hg1_4 3.443695 1_455
Eu0_1 Hg0_3 3.443695 1_545
Eu0_1 Hg1_5 3.443695 1_455
Eu0_1 Hg0_2 3.443695 1_545
Eu0_1 Hg1_6 3.443699 1_445
Eu0_1 Hg1_7 3.443699 1_445
Eu0_1 Hg0_1 3.443699 1_555
Eu0_1 Hg0_0 3.443699 1_555
Eu0_1 Hg0_6 3.443699 1_445
Eu0_1 Hg0_7 3.443699 1_445
Eu0_1 Hg1_0 3.443699 1_555
Eu0_1 Hg1_1 3.443699 1_555
Eu0_2 Hg0_1 3.443695 1_554
Eu0_2 Hg0_0 3.443695 1_555
Eu0_2 Hg1_7 3.443695 1_454
Eu0_2 Hg1_6 3.443695 1_455
Eu0_2 Hg1_5 3.443699 1_454
Eu0_2 Hg1_4 3.443699 1_455
Eu0_2 Hg0_3 3.443699 1_554
Eu0_2 Hg0_2 3.443699 1_555
Eu0_2 Hg1_2 3.443699 1_555
Eu0_2 Hg1_3 3.443699 1_554
Eu0_2 Hg0_4 3.443699 1_455
Eu0_2 Hg0_5 3.443699 1_454
Eu0_2 Eu0_3 3.719685 1_555
Eu0_2 Eu0_3 3.719685 1_554
Eu0_3 Hg0_1 3.443695 1_555
Eu0_3 Hg0_0 3.443695 1_555
Eu0_3 Hg1_7 3.443695 1_455
Eu0_3 Hg1_6 3.443695 1_455
Eu0_3 Hg1_4 3.443699 1_455
Eu0_3 Hg1_5 3.443699 1_455
Eu0_3 Hg0_3 3.443699 1_555
Eu0_3 Hg0_2 3.443699 1_555
Eu0_3 Hg1_2 3.443699 1_555
Eu0_3 Hg1_3 3.443699 1_555
Eu0_3 Hg0_4 3.443699 1_455
Eu0_3 Hg0_5 3.443699 1_455
Eu0_4 Hg1_0 3.443695 1_555
Eu0_4 Hg1_1 3.443695 1_554
Eu0_4 Hg0_6 3.443695 1_545
Eu0_4 Hg0_7 3.443695 1_544
Eu0_4 Hg1_2 3.443699 1_545
Eu0_4 Hg1_3 3.443699 1_544
Eu0_4 Hg0_4 3.443699 1_555
Eu0_4 Hg0_5 3.443699 1_554
Eu0_4 Hg0_2 3.443699 1_545
Eu0_4 Hg0_3 3.443699 1_544
Eu0_4 Hg1_5 3.443699 1_554
Eu0_4 Hg1_4 3.443699 1_555
Eu0_4 Eu0_5 3.719685 1_554
Eu0_4 Eu0_5 3.719685 1_555
Eu0_5 Hg1_0 3.443695 1_555
Eu0_5 Hg1_1 3.443695 1_555
Eu0_5 Hg0_7 3.443695 1_545
Eu0_5 Hg0_6 3.443695 1_545
Eu0_5 Hg1_2 3.443699 1_545
Eu0_5 Hg1_3 3.443699 1_545
Eu0_5 Hg0_4 3.443699 1_555
Eu0_5 Hg0_5 3.443699 1_555
Eu0_5 Hg0_3 3.443699 1_545
Eu0_5 Hg0_2 3.443699 1_545
Eu0_5 Hg1_4 3.443699 1_555
Eu0_5 Hg1_5 3.443699 1_555
Eu0_6 Hg0_4 3.443695 1_555
Eu0_6 Hg0_5 3.443695 1_554
Eu0_6 Hg1_3 3.443695 1_554
Eu0_6 Hg1_2 3.443695 1_555
Eu0_6 Hg1_1 3.443699 1_554
Eu0_6 Hg1_0 3.443699 1_555
Eu0_6 Hg0_6 3.443699 1_555
Eu0_6 Hg0_7 3.443699 1_554
Eu0_6 Hg0_1 3.443699 1_554
Eu0_6 Hg1_6 3.443699 1_555
Eu0_6 Hg1_7 3.443699 1_554
Eu0_6 Hg0_0 3.443699 1_555
Eu0_6 Eu0_7 3.719685 1_555
Eu0_6 Eu0_7 3.719685 1_554
Eu0_7 Hg0_4 3.443695 1_555
Eu0_7 Hg0_5 3.443695 1_555
Eu0_7 Hg1_3 3.443695 1_555
Eu0_7 Hg1_2 3.443695 1_555
Eu0_7 Hg1_0 3.443699 1_555
Eu0_7 Hg1_1 3.443699 1_555
Eu0_7 Hg0_6 3.443699 1_555
Eu0_7 Hg0_7 3.443699 1_555
Eu0_7 Hg1_6 3.443699 1_555
Eu0_7 Hg0_1 3.443699 1_555
Eu0_7 Hg1_7 3.443699 1_555
Eu0_7 Hg0_0 3.443699 1_555
Hg0_0 Hg1_2 2.898279 1_555
Hg0_0 Hg1_4 2.898279 1_455
Hg0_0 Hg1_0 2.898288 1_555
Hg0_1 Hg1_3 2.898279 1_555
Hg0_1 Hg1_5 2.898279 1_455
Hg0_1 Hg1_1 2.898288 1_555
Hg0_2 Hg1_0 2.898279 1_565
Hg0_2 Hg1_6 2.898279 1_455
Hg0_2 Hg1_2 2.898288 1_555
Hg0_3 Hg1_1 2.898279 1_565
Hg0_3 Hg1_7 2.898279 1_455
Hg0_3 Hg1_3 2.898288 1_555
Hg0_4 Hg1_6 2.898279 1_555
Hg0_4 Hg1_0 2.898279 1_555
Hg0_4 Hg1_4 2.898288 1_555
Hg0_5 Hg1_7 2.898279 1_555
Hg0_5 Hg1_1 2.898279 1_555
Hg0_5 Hg1_5 2.898288 1_555
Hg0_6 Hg1_4 2.898279 1_565
Hg0_6 Hg1_2 2.898279 1_555
Hg0_6 Hg1_6 2.898288 1_555
Hg0_7 Hg1_5 2.898279 1_565
Hg0_7 Hg1_3 2.898279 1_555
Hg0_7 Hg1_7 2.898288 1_555
