# generated using pymatgen
data_MgCu2(SbO3)4
_symmetry_space_group_name_H-M   'P 1'
_cell_length_a   5.05082212
_cell_length_b   4.83735053
_cell_length_c   10.59663238
_cell_angle_alpha   89.80837608
_cell_angle_beta   118.35656925
_cell_angle_gamma   90.33796236
_symmetry_Int_Tables_number   1
_chemical_formula_structural   MgCu2(SbO3)4
_chemical_formula_sum   'Mg1 Cu2 Sb4 O12'
_cell_volume   227.83314323
_cell_formula_units_Z   1
loop_
 _symmetry_equiv_pos_site_id
 _symmetry_equiv_pos_as_xyz
  1  'x, y, z'
loop_
 _atom_site_type_symbol
 _atom_site_label
 _atom_site_symmetry_multiplicity
 _atom_site_fract_x
 _atom_site_fract_y
 _atom_site_fract_z
 _atom_site_occupancy
  Mg  Mg0  1  0.99074300  0.00269600  0.48907800  1
  Cu  Cu0  1  0.98904100  0.99896300  0.98835500  1
  Cu  Cu1  1  0.98198900  0.50267700  0.48723200  1
  Sb  Sb0  1  0.31001500  0.00000300  0.30885500  1
  Sb  Sb1  1  0.31991900  0.49888700  0.82066600  1
  Sb  Sb2  1  0.65771100  0.49969500  0.15588800  1
  Sb  Sb3  1  0.66657400  0.99928200  0.66742900  1
  O  O0  1  0.31605200  0.70123000  0.98870900  1
  O  O1  1  0.64993100  0.74221900  0.32029100  1
  O  O2  1  0.65353600  0.20014500  0.48802400  1
  O  O3  1  0.99778800  0.22687800  0.81602400  1
  O  O4  1  0.98146200  0.73993700  0.65525000  1
  O  O5  1  0.63084300  0.77129800  0.81552700  1
  O  O6  1  0.66164700  0.29693800  0.98818700  1
  O  O7  1  0.32707400  0.26027000  0.65450200  1
  O  O8  1  0.32246300  0.79943800  0.48768100  1
  O  O9  1  0.34515000  0.23028100  0.16155300  1
  O  O10  1  0.99429400  0.25936900  0.32086500  1
  O  O11  1  0.98154700  0.76979600  0.16088400  1
loop_
_geom_bond_atom_site_label_1
_geom_bond_atom_site_label_2
_geom_bond_distance
_geom_bond_site_symmetry_2
Mg0 O2 1.953009 1_555
Mg0 O8 1.953769 1_645
Mg0 O7 2.161475 1_655
Mg0 O10 2.175894 1_555
Mg0 O4 2.186586 1_545
Mg0 O1 2.194235 1_545
Cu0 O3 2.148210 1_565
Cu0 O11 2.150450 1_556
Cu0 O5 2.163939 1_555
Cu0 O9 2.170216 1_666
Cu0 O0 2.196468 1_655
Cu0 O6 2.199407 1_565
Cu1 O1 2.115627 1_555
Cu1 O4 2.122584 1_555
Cu1 O10 2.148454 1_555
Cu1 O7 2.151795 1_655
Cu1 O2 2.208712 1_555
Cu1 O8 2.231864 1_655
O0 Sb2 2.042302 1_556
O0 Sb1 2.043090 1_555
O1 Sb0 2.084197 1_565
O1 Sb2 2.119457 1_555
O2 Sb0 2.101358 1_555
O2 Sb3 2.105243 1_545
O3 Sb3 1.994428 1_545
O3 Sb1 2.068846 1_655
O4 Sb3 2.083180 1_555
O4 Sb1 2.125544 1_655
O5 Sb3 1.991673 1_555
O5 Sb1 2.064459 1_555
O6 Sb2 2.041026 1_556
O6 Sb1 2.045100 1_555
O7 Sb3 2.086692 1_545
O7 Sb1 2.123330 1_555
O8 Sb0 2.100320 1_565
O8 Sb3 2.105022 1_555
O9 Sb0 1.989455 1_555
O9 Sb2 2.063869 1_555
O10 Sb0 2.085831 1_655
O10 Sb2 2.117634 1_555
O11 Sb0 1.992462 1_665
O11 Sb2 2.068392 1_555
