# generated using pymatgen
data_Ca2Ta4P6(SO12)3
_symmetry_space_group_name_H-M   'P 1'
_cell_length_a   8.92442610
_cell_length_b   8.92442580
_cell_length_c   22.84867067
_cell_angle_alpha   90.00000000
_cell_angle_beta   90.00000000
_cell_angle_gamma   120.00000111
_symmetry_Int_Tables_number   1
_chemical_formula_structural   Ca2Ta4P6(SO12)3
_chemical_formula_sum   'Ca4 Ta8 P12 S6 O72'
_cell_volume   1575.98523913
_cell_formula_units_Z   2
loop_
 _symmetry_equiv_pos_site_id
 _symmetry_equiv_pos_as_xyz
  1  'x, y, z'
loop_
 _atom_site_type_symbol
 _atom_site_label
 _atom_site_symmetry_multiplicity
 _atom_site_fract_x
 _atom_site_fract_y
 _atom_site_fract_z
 _atom_site_occupancy
  Ca  Ca0  1  0.00000000  -0.00000000  0.36358233  1
  Ca  Ca1  1  0.00000000  -0.00000000  0.86358233  1
  Ca  Ca2  1  0.66666700  0.33333300  0.68539190  1
  Ca  Ca3  1  0.66666700  0.33333300  0.18539190  1
  Ta  Ta0  1  0.00000000  -0.00000000  0.64120213  1
  Ta  Ta1  1  0.00000000  -0.00000000  0.14120213  1
  Ta  Ta2  1  0.66666700  0.33333300  0.97787828  1
  Ta  Ta3  1  0.66666700  0.33333300  0.47787828  1
  Ta  Ta4  1  0.33333300  0.66666700  0.02267729  1
  Ta  Ta5  1  0.33333300  0.66666700  0.52267729  1
  Ta  Ta6  1  0.33333300  0.66666700  0.31305525  1
  Ta  Ta7  1  0.33333300  0.66666700  0.81305525  1
  P  P0  1  0.95738251  0.33266099  0.58231356  1
  P  P1  1  0.37527948  0.04261749  0.58231356  1
  P  P2  1  0.66733901  0.62472052  0.58231356  1
  P  P3  1  0.95738251  0.62472052  0.08231356  1
  P  P4  1  0.66733901  0.04261749  0.08231356  1
  P  P5  1  0.37527948  0.33266099  0.08231356  1
  P  P6  1  0.60738876  0.65282728  0.91816518  1
  P  P7  1  0.04543752  0.39261124  0.91816518  1
  P  P8  1  0.34717272  0.95456248  0.91816518  1
  P  P9  1  0.60738876  0.95456248  0.41816518  1
  P  P10  1  0.34717272  0.39261124  0.41816518  1
  P  P11  1  0.04543752  0.65282728  0.41816518  1
  S  S0  1  0.28143031  0.98876226  0.25039818  1
  S  S1  1  0.70733195  0.71856969  0.25039818  1
  S  S2  1  0.01123774  0.29266805  0.25039818  1
  S  S3  1  0.28143031  0.29266805  0.75039818  1
  S  S4  1  0.01123774  0.71856969  0.75039818  1
  S  S5  1  0.70733195  0.98876226  0.75039818  1
  O  O0  1  0.20331517  0.01264715  0.30179436  1
  O  O1  1  0.80933198  0.79668483  0.30179436  1
  O  O2  1  0.98735285  0.19066802  0.30179436  1
  O  O3  1  0.20331517  0.19066802  0.80179436  1
  O  O4  1  0.98735285  0.79668483  0.80179436  1
  O  O5  1  0.80933198  0.01264715  0.80179436  1
  O  O6  1  0.79474245  0.96259575  0.69658775  1
  O  O7  1  0.16785330  0.20525755  0.69658775  1
  O  O8  1  0.03740425  0.83214670  0.69658775  1
  O  O9  1  0.79474245  0.83214670  0.19658775  1
  O  O10  1  0.03740425  0.20525755  0.19658775  1
  O  O11  1  0.16785330  0.96259575  0.19658775  1
  O  O12  1  0.89897493  0.37725736  0.63694249  1
  O  O13  1  0.47828343  0.10102507  0.63694249  1
  O  O14  1  0.62274264  0.52171657  0.63694249  1
  O  O15  1  0.89897493  0.52171657  0.13694249  1
  O  O16  1  0.62274264  0.10102507  0.13694249  1
  O  O17  1  0.47828343  0.37725736  0.13694249  1
  O  O18  1  0.46405281  0.29741549  0.02911309  1
  O  O19  1  0.83336368  0.53594719  0.02911309  1
  O  O20  1  0.70258451  0.16663632  0.02911309  1
  O  O21  1  0.46405281  0.16663632  0.52911309  1
  O  O22  1  0.70258451  0.53594719  0.52911309  1
  O  O23  1  0.83336368  0.29741549  0.52911309  1
  O  O24  1  0.50897206  0.66804250  0.97108382  1
  O  O25  1  0.15906944  0.49102794  0.97108382  1
  O  O26  1  0.33195750  0.84093056  0.97108382  1
  O  O27  1  0.50897206  0.84093056  0.47108382  1
  O  O28  1  0.33195750  0.49102794  0.47108382  1
  O  O29  1  0.15906944  0.66804250  0.47108382  1
  O  O30  1  0.13528130  0.62521649  0.36213682  1
  O  O31  1  0.48993419  0.86471870  0.36213682  1
  O  O32  1  0.37478351  0.51006581  0.36213682  1
  O  O33  1  0.13528130  0.51006581  0.86213682  1
  O  O34  1  0.37478351  0.86471870  0.86213682  1
  O  O35  1  0.48993419  0.62521649  0.86213682  1
  O  O36  1  0.02674252  0.80763080  0.41383699  1
  O  O37  1  0.78088828  0.97325748  0.41383699  1
  O  O38  1  0.19236920  0.21911172  0.41383699  1
  O  O39  1  0.02674252  0.21911172  0.91383699  1
  O  O40  1  0.19236920  0.97325748  0.91383699  1
  O  O41  1  0.78088828  0.80763080  0.91383699  1
  O  O42  1  0.97477075  0.16511986  0.59340287  1
  O  O43  1  0.19034911  0.02522925  0.59340287  1
  O  O44  1  0.83488014  0.80965089  0.59340287  1
  O  O45  1  0.97477075  0.80965089  0.09340287  1
  O  O46  1  0.83488014  0.02522925  0.09340287  1
  O  O47  1  0.19034911  0.16511986  0.09340287  1
  O  O48  1  0.67428820  0.12939820  0.74097713  1
  O  O49  1  0.45511100  0.32571180  0.74097713  1
  O  O50  1  0.87060180  0.54488900  0.74097713  1
  O  O51  1  0.67428820  0.54488900  0.24097713  1
  O  O52  1  0.87060180  0.32571180  0.24097713  1
  O  O53  1  0.45511100  0.12939820  0.24097713  1
  O  O54  1  0.61655009  0.48354283  0.92831788  1
  O  O55  1  0.86699374  0.38344991  0.92831788  1
  O  O56  1  0.51645717  0.13300626  0.92831788  1
  O  O57  1  0.61655009  0.13300626  0.42831788  1
  O  O58  1  0.51645717  0.38344991  0.42831788  1
  O  O59  1  0.86699374  0.48354283  0.42831788  1
  O  O60  1  0.33601816  0.47891810  0.06617733  1
  O  O61  1  0.14289894  0.66398184  0.06617733  1
  O  O62  1  0.52108190  0.85710106  0.06617733  1
  O  O63  1  0.33601816  0.85710106  0.56617733  1
  O  O64  1  0.52108190  0.66398184  0.56617733  1
  O  O65  1  0.14289894  0.47891810  0.56617733  1
  O  O66  1  0.28910870  0.82126897  0.25749014  1
  O  O67  1  0.53215927  0.71089130  0.25749014  1
  O  O68  1  0.17873103  0.46784073  0.25749014  1
  O  O69  1  0.28910870  0.46784073  0.75749014  1
  O  O70  1  0.17873103  0.71089130  0.75749014  1
  O  O71  1  0.53215927  0.82126897  0.75749014  1
loop_
_geom_bond_atom_site_label_1
_geom_bond_atom_site_label_2
_geom_bond_distance
_geom_bond_site_symmetry_2
Ca0 O38 2.175436 1_555
Ca0 O36 2.175436 1_545
Ca0 O37 2.175436 1_445
Ca0 O1 2.256845 1_445
Ca0 O2 2.256845 1_455
Ca0 O0 2.256845 1_555
Ca1 O39 2.175436 1_555
Ca1 O41 2.175436 1_445
Ca1 O40 2.175436 1_545
Ca1 O4 2.256845 1_445
Ca1 O3 2.256845 1_555
Ca1 O5 2.256845 1_455
Ca2 O13 2.205594 1_555
Ca2 O14 2.205594 1_555
Ca2 O12 2.205594 1_555
Ca2 O50 2.248075 1_555
Ca2 O48 2.248075 1_555
Ca2 O49 2.248075 1_555
Ca3 O16 2.205594 1_555
Ca3 O15 2.205594 1_555
Ca3 O17 2.205594 1_555
Ca3 O51 2.248075 1_555
Ca3 O53 2.248075 1_555
Ca3 O52 2.248075 1_555
O0 S0 1.434954 1_545
O1 S1 1.434954 1_555
O2 S2 1.434954 1_655
O3 S3 1.434954 1_555
O4 S4 1.434954 1_655
O5 S5 1.434954 1_545
O6 S5 1.535220 1_555
O6 Ta0 2.111143 1_665
O7 S3 1.535220 1_555
O7 Ta0 2.111143 1_555
O8 S4 1.535220 1_555
O8 Ta0 2.111143 1_565
O9 S1 1.535220 1_555
O9 Ta1 2.111143 1_665
O10 S2 1.535220 1_555
O10 Ta1 2.111143 1_555
O11 S0 1.535220 1_555
O11 Ta1 2.111143 1_565
O12 P0 1.481744 1_555
O13 P1 1.481744 1_555
O14 P2 1.481744 1_555
O15 P3 1.481744 1_555
O16 P4 1.481744 1_555
O17 P5 1.481744 1_555
O18 P5 1.566329 1_555
O18 Ta2 2.040391 1_554
O19 P3 1.566329 1_555
O19 Ta2 2.040391 1_554
O20 P4 1.566329 1_555
O20 Ta2 2.040391 1_554
O21 P1 1.566329 1_555
O21 Ta3 2.040391 1_555
O22 P2 1.566329 1_555
O22 Ta3 2.040391 1_555
O23 P0 1.566329 1_555
O23 Ta3 2.040391 1_555
O24 P6 1.539840 1_555
O24 Ta4 1.956416 1_556
O25 P7 1.539840 1_555
O25 Ta4 1.956416 1_556
O26 P8 1.539840 1_555
O26 Ta4 1.956416 1_556
O27 P9 1.539840 1_555
O27 Ta5 1.956416 1_555
O28 P10 1.539840 1_555
O28 Ta5 1.956416 1_555
O29 P11 1.539840 1_555
O29 Ta5 1.956416 1_555
O30 P11 1.593746 1_555
O30 Ta6 1.965884 1_555
O31 P9 1.593746 1_555
O31 Ta6 1.965884 1_555
O32 P10 1.593746 1_555
O32 Ta6 1.965884 1_555
O33 P7 1.593746 1_555
O33 Ta7 1.965884 1_555
O34 P8 1.593746 1_555
O34 Ta7 1.965884 1_555
O35 P6 1.593746 1_555
O35 Ta7 1.965884 1_555
O36 P11 1.475380 1_555
O37 P9 1.475389 1_555
O38 P10 1.475385 1_555
O39 P7 1.475389 1_555
O40 P8 1.475380 1_555
O41 P6 1.475385 1_555
O42 P0 1.598735 1_555
O42 Ta0 1.935658 1_655
O43 P1 1.598744 1_555
O43 Ta0 1.935658 1_555
O44 P2 1.598740 1_555
O44 Ta0 1.935658 1_665
O45 P3 1.598744 1_555
O45 Ta1 1.935658 1_665
O46 P4 1.598735 1_555
O46 Ta1 1.935658 1_655
O47 P5 1.598740 1_555
O47 Ta1 1.935658 1_555
O48 S5 1.441765 1_545
O49 S3 1.441774 1_555
O50 S4 1.441771 1_655
O51 S1 1.441774 1_555
O52 S2 1.441765 1_655
O53 S0 1.441771 1_545
O54 P6 1.570488 1_555
O54 Ta2 1.969509 1_555
O55 P7 1.570470 1_655
O55 Ta2 1.969509 1_555
O56 P8 1.570478 1_545
O56 Ta2 1.969508 1_555
O57 P9 1.570470 1_545
O57 Ta3 1.969508 1_555
O58 P10 1.570488 1_555
O58 Ta3 1.969509 1_555
O59 P11 1.570478 1_655
O59 Ta3 1.969509 1_555
O60 P5 1.555555 1_555
O60 Ta4 1.958589 1_555
O61 P3 1.555538 1_455
O61 Ta4 1.958589 1_555
O62 P4 1.555544 1_565
O62 Ta4 1.958589 1_555
O63 P1 1.555538 1_565
O63 Ta5 1.958589 1_555
O64 P2 1.555555 1_555
O64 Ta5 1.958589 1_555
O65 P0 1.555544 1_455
O65 Ta5 1.958589 1_555
O66 S0 1.538751 1_555
O66 Ta6 2.053251 1_555
O67 S1 1.538760 1_555
O67 Ta6 2.053251 1_555
O68 S2 1.538756 1_555
O68 Ta6 2.053251 1_555
O69 S3 1.538760 1_555
O69 Ta7 2.053251 1_555
O70 S4 1.538751 1_555
O70 Ta7 2.053251 1_555
O71 S5 1.538756 1_555
O71 Ta7 2.053251 1_555
