# generated using pymatgen
data_Sn2SO5
_symmetry_space_group_name_H-M   'P 1'
_cell_length_a   11.26007300
_cell_length_b   11.26007300
_cell_length_c   9.06729200
_cell_angle_alpha   90.00000000
_cell_angle_beta   90.00000000
_cell_angle_gamma   90.00000000
_symmetry_Int_Tables_number   1
_chemical_formula_structural   Sn2SO5
_chemical_formula_sum   'Sn16 S8 O40'
_cell_volume   1149.63509749
_cell_formula_units_Z   8
loop_
 _symmetry_equiv_pos_site_id
 _symmetry_equiv_pos_as_xyz
  1  'x, y, z'
loop_
 _atom_site_type_symbol
 _atom_site_label
 _atom_site_symmetry_multiplicity
 _atom_site_fract_x
 _atom_site_fract_y
 _atom_site_fract_z
 _atom_site_occupancy
  Sn  Sn0  1  0.51749200  0.21387600  0.74336600  1
  Sn  Sn1  1  0.48250800  0.78612400  0.74336600  1
  Sn  Sn2  1  0.21387600  0.48250800  0.25663400  1
  Sn  Sn3  1  0.78612400  0.51749200  0.25663400  1
  Sn  Sn4  1  0.71387600  0.01749200  0.24336600  1
  Sn  Sn5  1  0.98250800  0.71387600  0.75663400  1
  Sn  Sn6  1  0.01749200  0.28612400  0.75663400  1
  Sn  Sn7  1  0.28612400  0.98250800  0.24336600  1
  Sn  Sn8  1  0.65919600  0.50642100  0.63516900  1
  Sn  Sn9  1  0.34080400  0.49357900  0.63516900  1
  Sn  Sn10  1  0.50642100  0.34080400  0.36483100  1
  Sn  Sn11  1  0.49357900  0.65919600  0.36483100  1
  Sn  Sn12  1  0.00642100  0.15919600  0.13516900  1
  Sn  Sn13  1  0.84080400  0.00642100  0.86483100  1
  Sn  Sn14  1  0.15919600  0.99357900  0.86483100  1
  Sn  Sn15  1  0.99357900  0.84080400  0.13516900  1
  S  S0  1  0.79292600  0.20981900  0.50784700  1
  S  S1  1  0.20707400  0.79018100  0.50784700  1
  S  S2  1  0.20981900  0.20707400  0.49215300  1
  S  S3  1  0.79018100  0.79292600  0.49215300  1
  S  S4  1  0.70981900  0.29292600  0.00784700  1
  S  S5  1  0.70707400  0.70981900  0.99215300  1
  S  S6  1  0.29292600  0.29018100  0.99215300  1
  S  S7  1  0.29018100  0.70707400  0.00784700  1
  O  O0  1  0.81752500  0.16488900  0.35291400  1
  O  O1  1  0.18247500  0.83511100  0.35291400  1
  O  O2  1  0.16488900  0.18247500  0.64708600  1
  O  O3  1  0.83511100  0.81752500  0.64708600  1
  O  O4  1  0.66488900  0.31752500  0.85291400  1
  O  O5  1  0.68247500  0.66488900  0.14708600  1
  O  O6  1  0.31752500  0.33511100  0.14708600  1
  O  O7  1  0.33511100  0.68247500  0.85291400  1
  O  O8  1  0.89218500  0.16958900  0.60540200  1
  O  O9  1  0.10781500  0.83041100  0.60540200  1
  O  O10  1  0.16958900  0.10781500  0.39459800  1
  O  O11  1  0.83041100  0.89218500  0.39459800  1
  O  O12  1  0.66958900  0.39218500  0.10540200  1
  O  O13  1  0.60781500  0.66958900  0.89459800  1
  O  O14  1  0.39218500  0.33041100  0.89459800  1
  O  O15  1  0.67863100  0.15731100  0.55736100  1
  O  O16  1  0.33041100  0.60781500  0.10540200  1
  O  O17  1  0.21194200  0.65851300  0.50275400  1
  O  O18  1  0.34148700  0.21194200  0.49724600  1
  O  O19  1  0.65851300  0.78805800  0.49724600  1
  O  O20  1  0.84148700  0.28805800  0.00275400  1
  O  O21  1  0.71194200  0.84148700  0.99724600  1
  O  O22  1  0.28805800  0.15851300  0.99724600  1
  O  O23  1  0.15851300  0.71194200  0.00275400  1
  O  O24  1  0.12478200  0.98481500  0.11315300  1
  O  O25  1  0.01518500  0.12478200  0.88684700  1
  O  O26  1  0.98481500  0.87521800  0.88684700  1
  O  O27  1  0.87521800  0.01518500  0.11315300  1
  O  O28  1  0.62478200  0.51518500  0.38684700  1
  O  O29  1  0.37521800  0.48481500  0.38684700  1
  O  O30  1  0.48481500  0.62478200  0.61315300  1
  O  O31  1  0.51518500  0.37521800  0.61315300  1
  O  O32  1  0.34268900  0.82136900  0.05736100  1
  O  O33  1  0.17863100  0.34268900  0.94263900  1
  O  O34  1  0.82136900  0.65731100  0.94263900  1
  O  O35  1  0.65731100  0.17863100  0.05736100  1
  O  O36  1  0.84268900  0.67863100  0.44263900  1
  O  O37  1  0.15731100  0.32136900  0.44263900  1
  O  O38  1  0.32136900  0.84268900  0.55736100  1
  O  O39  1  0.78805800  0.34148700  0.50275400  1
loop_
_geom_bond_atom_site_label_1
_geom_bond_atom_site_label_2
_geom_bond_distance
_geom_bond_site_symmetry_2
O0 S0 1.518617 1_555
O0 Sn4 2.259064 1_555
O1 S1 1.518617 1_555
O1 Sn7 2.259064 1_555
O2 S2 1.518617 1_555
O2 Sn6 2.259064 1_555
O3 S3 1.518617 1_555
O3 Sn5 2.259064 1_555
O4 S4 1.518617 1_556
O4 Sn0 2.259064 1_555
O5 S5 1.518617 1_554
O5 Sn3 2.259064 1_555
O6 S6 1.518617 1_554
O6 Sn2 2.259064 1_555
O7 S7 1.518617 1_556
O7 Sn1 2.259064 1_555
O8 S0 1.495600 1_555
O8 Sn6 2.364961 1_655
O9 S1 1.495600 1_555
O9 Sn5 2.364961 1_455
O10 S2 1.495600 1_555
O10 Sn7 2.364961 1_545
O11 S3 1.495600 1_555
O11 Sn4 2.364961 1_565
O12 S4 1.495600 1_555
O12 Sn3 2.364961 1_555
O13 S5 1.495600 1_555
O13 Sn1 2.364961 1_555
O14 S6 1.495600 1_555
O14 Sn0 2.364961 1_555
O15 S0 1.485740 1_555
O15 Sn0 2.557801 1_555
O16 S7 1.495600 1_555
O16 Sn2 2.364961 1_555
O17 S1 1.484323 1_555
O17 Sn9 2.644998 1_555
O18 S2 1.484323 1_555
O18 Sn10 2.644998 1_555
O19 S3 1.484323 1_555
O19 Sn11 2.644998 1_555
O20 S4 1.484323 1_555
O20 Sn12 2.644998 1_655
O21 S5 1.484323 1_555
O21 Sn13 2.644998 1_565
O22 S6 1.484323 1_555
O22 Sn14 2.644998 1_545
O23 S7 1.484323 1_555
O23 Sn15 2.644998 1_455
O24 Sn7 2.166832 1_555
O24 Sn15 2.202710 1_455
O24 Sn14 2.286840 1_554
O24 Sn12 2.381508 1_565
O25 Sn6 2.166832 1_555
O25 Sn14 2.202710 1_545
O25 Sn12 2.286840 1_556
O25 Sn13 2.381508 1_455
O26 Sn5 2.166832 1_555
O26 Sn13 2.202710 1_565
O26 Sn15 2.286840 1_556
O26 Sn14 2.381508 1_655
O27 Sn4 2.166832 1_555
O27 Sn12 2.202710 1_655
O27 Sn13 2.286840 1_554
O27 Sn15 2.381508 1_545
O28 Sn3 2.166832 1_555
O28 Sn11 2.202710 1_555
O28 Sn8 2.286840 1_555
O28 Sn10 2.381508 1_555
O29 Sn2 2.166832 1_555
O29 Sn10 2.202710 1_555
O29 Sn9 2.286840 1_555
O29 Sn11 2.381508 1_555
O30 Sn1 2.166832 1_555
O30 Sn9 2.202710 1_555
O30 Sn11 2.286840 1_555
O30 Sn8 2.381508 1_555
O31 Sn0 2.166832 1_555
O31 Sn8 2.202710 1_555
O31 Sn10 2.286840 1_555
O31 Sn9 2.381508 1_555
O32 S7 1.485740 1_555
O32 Sn7 2.557801 1_555
O33 S6 1.485740 1_555
O33 Sn6 2.557801 1_555
O34 S5 1.485740 1_555
O34 Sn5 2.557801 1_555
O35 S4 1.485740 1_555
O35 Sn4 2.557801 1_555
O36 S3 1.485740 1_555
O36 Sn3 2.557801 1_555
O37 S2 1.485740 1_555
O37 Sn2 2.557801 1_555
O38 S1 1.485740 1_555
O38 Sn1 2.557801 1_555
O39 S0 1.484323 1_555
O39 Sn8 2.644998 1_555
