# generated using pymatgen
data_MnTl2H2OF5
_symmetry_space_group_name_H-M   'P 1'
_cell_length_a   6.40146008
_cell_length_b   12.85191287
_cell_length_c   8.50629900
_cell_angle_alpha   89.99937533
_cell_angle_beta   89.99984550
_cell_angle_gamma   103.17628218
_symmetry_Int_Tables_number   1
_chemical_formula_structural   MnTl2H2OF5
_chemical_formula_sum   'Mn4 Tl8 H8 O4 F20'
_cell_volume   681.39781979
_cell_formula_units_Z   4
loop_
 _symmetry_equiv_pos_site_id
 _symmetry_equiv_pos_as_xyz
  1  'x, y, z'
loop_
 _atom_site_type_symbol
 _atom_site_label
 _atom_site_symmetry_multiplicity
 _atom_site_fract_x
 _atom_site_fract_y
 _atom_site_fract_z
 _atom_site_occupancy
  Mn  Mn0  1  0.00005800  0.49993200  0.50020000  1
  Mn  Mn1  1  0.99983900  0.99993400  0.99979500  1
  Mn  Mn2  1  0.00039700  0.00005600  0.49990500  1
  Mn  Mn3  1  0.00006300  0.50006600  0.00025800  1
  Tl  Tl0  1  0.88929900  0.24613600  0.75003300  1
  Tl  Tl1  1  0.88920600  0.74602000  0.74992600  1
  Tl  Tl2  1  0.11052400  0.25383100  0.24993800  1
  Tl  Tl3  1  0.11060200  0.75394700  0.25002300  1
  Tl  Tl4  1  0.49267100  0.44529600  0.75004400  1
  Tl  Tl5  1  0.49258600  0.94526300  0.74990200  1
  Tl  Tl6  1  0.50726300  0.05468900  0.24990000  1
  Tl  Tl7  1  0.50734200  0.55472600  0.25006000  1
  H  H0  1  0.36883700  0.18491600  0.84326800  1
  H  H1  1  0.36891400  0.68500000  0.84326700  1
  H  H2  1  0.63091300  0.31498300  0.34323700  1
  H  H3  1  0.63102200  0.81510700  0.34321400  1
  H  H4  1  0.36902100  0.18505900  0.65666600  1
  H  H5  1  0.36891400  0.68494400  0.65665800  1
  H  H6  1  0.63090400  0.31504700  0.15670600  1
  H  H7  1  0.63082400  0.81495200  0.15667500  1
  O  O0  1  0.44312700  0.22284000  0.75000900  1
  O  O1  1  0.44307000  0.72281800  0.74995700  1
  O  O2  1  0.55669200  0.27716900  0.24995900  1
  O  O3  1  0.55674000  0.77719400  0.25000600  1
  F  F0  1  0.00324600  0.00225100  0.24983300  1
  F  F1  1  0.00337100  0.50225000  0.25046700  1
  F  F2  1  0.99665300  0.49772700  0.75045300  1
  F  F3  1  0.99664700  0.99775200  0.74984700  1
  F  F4  1  0.18842800  0.40588000  0.00057500  1
  F  F5  1  0.18808200  0.90567300  0.00023200  1
  F  F6  1  0.81204100  0.09419600  0.50040400  1
  F  F7  1  0.81175800  0.59413200  0.50051900  1
  F  F8  1  0.81128700  0.09400100  0.99933300  1
  F  F9  1  0.81165200  0.59423300  0.99968500  1
  F  F10  1  0.18851400  0.40577700  0.49961800  1
  F  F11  1  0.18889300  0.90585200  0.49952100  1
  F  F12  1  0.24134300  0.12021200  0.00245700  1
  F  F13  1  0.24152800  0.62027100  0.00285500  1
  F  F14  1  0.75860000  0.37974700  0.50276900  1
  F  F15  1  0.75886100  0.87995600  0.50264800  1
  F  F16  1  0.24165400  0.12036000  0.49724400  1
  F  F17  1  0.24143100  0.62016000  0.49739600  1
  F  F18  1  0.75865600  0.37986900  0.99748300  1
  F  F19  1  0.75852700  0.87977400  0.99705400  1
loop_
_geom_bond_atom_site_label_1
_geom_bond_atom_site_label_2
_geom_bond_distance
_geom_bond_site_symmetry_2
H0 O0 0.993651 1_555
H1 O1 0.993164 1_555
H2 O2 0.993090 1_555
H3 O3 0.993242 1_555
H4 O0 0.993101 1_555
H5 O1 0.993374 1_555
H6 O2 0.993202 1_555
H7 O3 0.992845 1_555
O0 Tl0 2.803105 1_555
O0 Tl4 2.803748 1_555
O1 Tl1 2.803027 1_555
O1 Tl5 2.803629 1_555
O2 Tl2 2.803012 1_555
O2 Tl6 2.804143 1_555
O3 Tl3 2.802967 1_555
O3 Tl7 2.804013 1_555
F0 Mn1 2.127149 1_444
F0 Mn2 2.127397 1_555
F1 Mn0 2.124550 1_555
F1 Mn3 2.128580 1_555
F2 Mn3 2.125171 1_656
F2 Mn0 2.128961 1_655
F3 Mn2 2.126346 1_665
F3 Mn1 2.126354 1_555
F4 Mn3 1.893317 1_555
F5 Mn1 1.893464 1_454
F6 Mn2 1.892811 1_655
F7 Mn0 1.893133 1_655
F8 Mn1 1.893057 1_545
F9 Mn3 1.893361 1_656
F10 Mn0 1.893465 1_555
F11 Mn2 1.894156 1_565
F12 Mn1 1.921088 1_444
F13 Mn3 1.920344 1_555
F14 Mn0 1.920153 1_655
F15 Mn2 1.919803 1_665
F16 Mn2 1.920313 1_555
F17 Mn0 1.920182 1_555
F18 Mn3 1.920067 1_656
F19 Mn1 1.919390 1_555
