# generated using pymatgen
data_Ba2Mg(BiO3)2
_symmetry_space_group_name_H-M   'P 1'
_cell_length_a   6.23635152
_cell_length_b   6.82916932
_cell_length_c   7.37359257
_cell_angle_alpha   48.75815259
_cell_angle_beta   64.98317568
_cell_angle_gamma   62.83228159
_symmetry_Int_Tables_number   1
_chemical_formula_structural   Ba2Mg(BiO3)2
_chemical_formula_sum   'Ba2 Mg1 Bi2 O6'
_cell_volume   206.56562908
_cell_formula_units_Z   1
loop_
 _symmetry_equiv_pos_site_id
 _symmetry_equiv_pos_as_xyz
  1  'x, y, z'
loop_
 _atom_site_type_symbol
 _atom_site_label
 _atom_site_symmetry_multiplicity
 _atom_site_fract_x
 _atom_site_fract_y
 _atom_site_fract_z
 _atom_site_occupancy
  Ba  Ba0  1  0.78557913  0.74185845  0.68698329  1
  Ba  Ba1  1  0.21442087  0.25814155  0.31301671  1
  Mg  Mg0  1  0.50000000  -0.00000000  0.00000000  1
  Bi  Bi0  1  -0.00000000  -0.00000000  0.00000000  1
  Bi  Bi1  1  0.50000000  0.50000000  0.50000000  1
  O  O0  1  0.81901282  0.11979615  0.70837465  1
  O  O1  1  0.64718362  0.88020385  0.29162535  1
  O  O2  1  0.18098718  0.88020385  0.29162535  1
  O  O3  1  0.35281638  0.11979615  0.70837465  1
  O  O4  1  0.64538055  0.58114081  0.12809808  1
  O  O5  1  0.35461945  0.41885919  0.87190192  1
loop_
_geom_bond_atom_site_label_1
_geom_bond_atom_site_label_2
_geom_bond_distance
_geom_bond_site_symmetry_2
Ba0 O4 2.512512 1_556
Ba0 O3 2.790327 1_565
Ba0 O0 2.790327 1_565
Ba0 O2 2.808545 1_655
Ba0 O1 2.808546 1_555
Ba1 O5 2.512512 1_554
Ba1 O1 2.790327 1_545
Ba1 O2 2.790327 1_545
Ba1 O0 2.808545 1_455
Ba1 O3 2.808546 1_555
Mg0 O4 2.165662 1_545
Mg0 O5 2.165662 1_554
Mg0 O0 2.190857 1_554
Mg0 O2 2.190857 1_545
Mg0 O1 2.190858 1_545
Mg0 O3 2.190858 1_554
Bi0 O3 2.336065 1_554
Bi0 O1 2.336065 1_445
Bi0 O2 2.336066 1_545
Bi0 O0 2.336066 1_454
Bi1 O4 2.236406 1_555
Bi1 O5 2.236406 1_555
Bi1 O1 2.380883 1_555
Bi1 O3 2.380883 1_555
Bi1 O2 2.380883 1_555
Bi1 O0 2.380883 1_555
