# generated using pymatgen
data_K2S5O16
_symmetry_space_group_name_H-M   'P 1'
_cell_length_a   9.19526705
_cell_length_b   10.79557956
_cell_length_c   14.46544765
_cell_angle_alpha   90.00000000
_cell_angle_beta   90.00000000
_cell_angle_gamma   90.00000000
_symmetry_Int_Tables_number   1
_chemical_formula_structural   K2S5O16
_chemical_formula_sum   'K8 S20 O64'
_cell_volume   1435.95948583
_cell_formula_units_Z   4
loop_
 _symmetry_equiv_pos_site_id
 _symmetry_equiv_pos_as_xyz
  1  'x, y, z'
loop_
 _atom_site_type_symbol
 _atom_site_label
 _atom_site_symmetry_multiplicity
 _atom_site_fract_x
 _atom_site_fract_y
 _atom_site_fract_z
 _atom_site_occupancy
  K  K0  1  0.24007742  0.01159649  0.04397499  1
  K  K1  1  0.74007742  0.48840351  0.95602501  1
  K  K2  1  0.75992258  0.01159649  0.45602501  1
  K  K3  1  0.25992258  0.48840351  0.54397499  1
  K  K4  1  0.75992258  0.98840351  0.95602501  1
  K  K5  1  0.25992258  0.51159649  0.04397499  1
  K  K6  1  0.24007742  0.98840351  0.54397499  1
  K  K7  1  0.74007742  0.51159649  0.45602501  1
  S  S0  1  0.00000000  0.16878202  0.25000000  1
  S  S1  1  0.50000000  0.33121798  0.75000000  1
  S  S2  1  0.00000000  0.83121798  0.75000000  1
  S  S3  1  0.50000000  0.66878202  0.25000000  1
  S  S4  1  0.22065615  0.35063158  0.29231610  1
  S  S5  1  0.72065615  0.14936842  0.70768390  1
  S  S6  1  0.77934385  0.35063158  0.20768390  1
  S  S7  1  0.27934385  0.14936842  0.79231610  1
  S  S8  1  0.93101993  0.75168383  0.07280270  1
  S  S9  1  0.43101993  0.74831617  0.92719730  1
  S  S10  1  0.06898007  0.75168383  0.42719730  1
  S  S11  1  0.56898007  0.74831617  0.57280270  1
  S  S12  1  0.06898007  0.24831617  0.92719730  1
  S  S13  1  0.56898007  0.25168383  0.07280270  1
  S  S14  1  0.93101993  0.24831617  0.57280270  1
  S  S15  1  0.43101993  0.25168383  0.42719730  1
  S  S16  1  0.72065615  0.85063158  0.20768390  1
  S  S17  1  0.22065615  0.64936842  0.79231610  1
  S  S18  1  0.27934385  0.85063158  0.29231610  1
  S  S19  1  0.77934385  0.64936842  0.70768390  1
  O  O0  1  0.60380188  0.60568859  0.30406577  1
  O  O1  1  0.10380188  0.89431141  0.69593423  1
  O  O2  1  0.39619812  0.60568859  0.19593423  1
  O  O3  1  0.89619812  0.89431141  0.80406577  1
  O  O4  1  0.39619812  0.39431141  0.69593423  1
  O  O5  1  0.89619812  0.10568859  0.30406577  1
  O  O6  1  0.60380188  0.39431141  0.80406577  1
  O  O7  1  0.10380188  0.10568859  0.19593423  1
  O  O8  1  0.70893300  0.87284884  0.30356290  1
  O  O9  1  0.20893300  0.62715116  0.69643710  1
  O  O10  1  0.29106700  0.87284884  0.19643710  1
  O  O11  1  0.79106700  0.62715116  0.80356290  1
  O  O12  1  0.29106700  0.12715116  0.69643710  1
  O  O13  1  0.79106700  0.37284884  0.30356290  1
  O  O14  1  0.70893300  0.12715116  0.80356290  1
  O  O15  1  0.20893300  0.37284884  0.19643710  1
  O  O16  1  0.70741280  0.94707473  0.14213751  1
  O  O17  1  0.20741280  0.55292527  0.85786249  1
  O  O18  1  0.29258720  0.94707473  0.35786249  1
  O  O19  1  0.79258720  0.55292527  0.64213751  1
  O  O20  1  0.29258720  0.05292527  0.85786249  1
  O  O21  1  0.79258720  0.44707473  0.14213751  1
  O  O22  1  0.97337182  0.34814248  0.90721886  1
  O  O23  1  0.70741280  0.05292527  0.64213751  1
  O  O24  1  0.02662818  0.65185752  0.09278114  1
  O  O25  1  0.52662818  0.84814248  0.90721886  1
  O  O26  1  0.97337182  0.65185752  0.40721886  1
  O  O27  1  0.47337182  0.84814248  0.59278114  1
  O  O28  1  0.07811423  0.26014221  0.32049861  1
  O  O29  1  0.57811423  0.23985779  0.67950139  1
  O  O30  1  0.92188577  0.26014221  0.17950139  1
  O  O31  1  0.42188577  0.23985779  0.82049861  1
  O  O32  1  0.92188577  0.73985779  0.67950139  1
  O  O33  1  0.42188577  0.76014221  0.32049861  1
  O  O34  1  0.07811423  0.73985779  0.82049861  1
  O  O35  1  0.57811423  0.76014221  0.17950139  1
  O  O36  1  0.34853362  0.26545796  0.31071740  1
  O  O37  1  0.84853362  0.23454204  0.68928260  1
  O  O38  1  0.65146638  0.26545796  0.18928260  1
  O  O39  1  0.15146638  0.23454204  0.81071740  1
  O  O40  1  0.65146638  0.73454204  0.68928260  1
  O  O41  1  0.15146638  0.76545796  0.31071740  1
  O  O42  1  0.34853362  0.73454204  0.81071740  1
  O  O43  1  0.84853362  0.76545796  0.18928260  1
  O  O44  1  0.49198795  0.37263105  0.43862141  1
  O  O45  1  0.99198795  0.12736895  0.56137859  1
  O  O46  1  0.50801205  0.37263105  0.06137859  1
  O  O47  1  0.00801205  0.12736895  0.93862141  1
  O  O48  1  0.50801205  0.62736895  0.56137859  1
  O  O49  1  0.00801205  0.87263105  0.43862141  1
  O  O50  1  0.49198795  0.62736895  0.93862141  1
  O  O51  1  0.99198795  0.87263105  0.06137859  1
  O  O52  1  0.30525238  0.22574628  0.48251968  1
  O  O53  1  0.80525238  0.27425372  0.51748032  1
  O  O54  1  0.69474762  0.22574628  0.01748032  1
  O  O55  1  0.19474762  0.27425372  0.98251968  1
  O  O56  1  0.69474762  0.77425372  0.51748032  1
  O  O57  1  0.19474762  0.72574628  0.48251968  1
  O  O58  1  0.30525238  0.77425372  0.98251968  1
  O  O59  1  0.80525238  0.72574628  0.01748032  1
  O  O60  1  0.52662818  0.15185752  0.40721886  1
  O  O61  1  0.02662818  0.34814248  0.59278114  1
  O  O62  1  0.47337182  0.15185752  0.09278114  1
  O  O63  1  0.20741280  0.44707473  0.35786249  1
loop_
_geom_bond_atom_site_label_1
_geom_bond_atom_site_label_2
_geom_bond_distance
_geom_bond_site_symmetry_2
K0 O10 2.706909 1_545
K0 O62 2.719033 1_555
K0 O7 2.726526 1_555
K0 O51 2.741918 1_445
K0 O20 2.771308 1_554
K0 O58 2.777514 1_544
K0 O47 2.904850 1_554
K0 O55 3.000715 1_554
K1 O11 2.706909 1_555
K1 O22 2.719033 1_555
K1 O6 2.726526 1_555
K1 O50 2.741918 1_555
K1 O21 2.771308 1_556
K1 O59 2.777514 1_556
K1 O46 2.904850 1_556
K1 O54 3.000715 1_556
K2 O8 2.706909 1_545
K2 O60 2.719033 1_555
K2 O5 2.726526 1_555
K2 O49 2.741918 1_645
K2 O23 2.771308 1_555
K2 O56 2.777514 1_545
K2 O45 2.904850 1_555
K2 O53 3.000715 1_555
K3 O9 2.706909 1_555
K3 O61 2.719033 1_555
K3 O4 2.726526 1_555
K3 O48 2.741918 1_555
K3 O63 2.771308 1_555
K3 O57 2.777514 1_555
K3 O44 2.904850 1_555
K3 O52 3.000715 1_555
K4 O14 2.706909 1_565
K4 O25 2.719033 1_555
K4 O3 2.726526 1_555
K4 O47 2.741918 1_665
K4 O16 2.771308 1_556
K4 O54 2.777514 1_566
K4 O51 2.904850 1_556
K4 O59 3.000715 1_556
K5 O15 2.706909 1_555
K5 O24 2.719033 1_555
K5 O2 2.726526 1_555
K5 O46 2.741918 1_555
K5 O17 2.771308 1_554
K5 O55 2.777514 1_554
K5 O50 2.904850 1_554
K5 O58 3.000715 1_554
K6 O12 2.706909 1_565
K6 O27 2.719033 1_555
K6 O1 2.726526 1_555
K6 O45 2.741918 1_465
K6 O18 2.771308 1_555
K6 O52 2.777514 1_565
K6 O49 2.904850 1_555
K6 O57 3.000715 1_555
K7 O13 2.706909 1_555
K7 O26 2.719033 1_555
K7 O0 2.726526 1_555
K7 O44 2.741918 1_555
K7 O19 2.771308 1_555
K7 O53 2.777514 1_555
K7 O48 2.904850 1_555
K7 O56 3.000715 1_555
O0 S3 1.409482 1_555
O1 S2 1.409482 1_555
O2 S3 1.409482 1_555
O3 S2 1.409482 1_655
O4 S1 1.409482 1_555
O5 S0 1.409482 1_655
O6 S1 1.409482 1_555
O7 S0 1.409482 1_555
O8 S16 1.411641 1_555
O9 S17 1.411641 1_555
O10 S18 1.411641 1_555
O11 S19 1.411641 1_555
O12 S7 1.411641 1_555
O13 S6 1.411641 1_555
O14 S5 1.411641 1_555
O15 S4 1.411641 1_555
O16 S16 1.413452 1_555
O17 S17 1.413452 1_555
O18 S18 1.413452 1_555
O19 S19 1.413452 1_555
O20 S7 1.413452 1_555
O21 S6 1.413452 1_555
O22 S12 1.420497 1_655
O23 S5 1.413452 1_555
O24 S8 1.420497 1_455
O25 S9 1.420497 1_555
O26 S10 1.420497 1_655
O27 S11 1.420497 1_555
O28 S0 1.590179 1_555
O28 S4 1.684774 1_555
O29 S1 1.590179 1_555
O29 S5 1.684774 1_555
O30 S0 1.590179 1_655
O30 S6 1.684774 1_555
O31 S1 1.590179 1_555
O31 S7 1.684774 1_555
O32 S2 1.590179 1_655
O32 S19 1.684774 1_555
O33 S3 1.590179 1_555
O33 S18 1.684774 1_555
O34 S2 1.590179 1_555
O34 S17 1.684774 1_555
O35 S3 1.590179 1_555
O35 S16 1.684774 1_555
O36 S4 1.516244 1_555
O36 S15 1.853756 1_555
O37 S5 1.516244 1_555
O37 S14 1.853756 1_555
O38 S6 1.516244 1_555
O38 S13 1.853756 1_555
O39 S7 1.516244 1_555
O39 S12 1.853756 1_555
O40 S19 1.516244 1_555
O40 S11 1.853756 1_555
O41 S18 1.516244 1_555
O41 S10 1.853756 1_555
O42 S17 1.516244 1_555
O42 S9 1.853756 1_555
O43 S16 1.516244 1_555
O43 S8 1.853756 1_555
O44 S15 1.430539 1_555
O45 S14 1.430539 1_555
O46 S13 1.430539 1_555
O47 S12 1.430539 1_555
O48 S11 1.430539 1_555
O49 S10 1.430539 1_555
O50 S9 1.430539 1_555
O51 S8 1.430539 1_555
O52 S15 1.433960 1_555
O53 S14 1.433960 1_555
O54 S13 1.433960 1_555
O55 S12 1.433960 1_555
O56 S11 1.433960 1_555
O57 S10 1.433960 1_555
O58 S9 1.433960 1_555
O59 S8 1.433960 1_555
O60 S15 1.420497 1_555
O61 S14 1.420497 1_455
O62 S13 1.420497 1_555
O63 S4 1.413452 1_555
