# generated using pymatgen
data_MgFe2Si2BiO9
_symmetry_space_group_name_H-M   'P 1'
_cell_length_a   5.37844945
_cell_length_b   5.29093989
_cell_length_c   8.99690790
_cell_angle_alpha   99.85811553
_cell_angle_beta   94.79030025
_cell_angle_gamma   115.51446447
_symmetry_Int_Tables_number   1
_chemical_formula_structural   MgFe2Si2BiO9
_chemical_formula_sum   'Mg1 Fe2 Si2 Bi1 O9'
_cell_volume   224.05677816
_cell_formula_units_Z   1
loop_
 _symmetry_equiv_pos_site_id
 _symmetry_equiv_pos_as_xyz
  1  'x, y, z'
loop_
 _atom_site_type_symbol
 _atom_site_label
 _atom_site_symmetry_multiplicity
 _atom_site_fract_x
 _atom_site_fract_y
 _atom_site_fract_z
 _atom_site_occupancy
  Mg  Mg0  1  0.05712996  0.04110000  0.62717164  1
  Fe  Fe0  1  0.69695379  0.33384415  0.01576697  1
  Fe  Fe1  1  0.34164528  0.65956014  0.97907096  1
  Si  Si0  1  0.70046038  0.45968132  0.71562251  1
  Si  Si1  1  0.50587271  0.87403135  0.66115795  1
  Bi  Bi0  1  0.08637446  0.07974913  0.22116455  1
  O  O0  1  0.05788052  0.37431950  0.09810066  1
  O  O1  1  0.41787277  0.06911054  0.11657389  1
  O  O2  1  0.71057358  0.69513945  0.11452391  1
  O  O3  1  0.93720812  0.58366945  0.86469010  1
  O  O4  1  0.56307662  0.95241786  0.84739615  1
  O  O5  1  0.38736983  0.34557297  0.76271873  1
  O  O6  1  0.20374063  0.76345786  0.56340424  1
  O  O7  1  0.73223868  0.18011930  0.60972831  1
  O  O8  1  0.68960268  0.68872698  0.60891244  1
loop_
_geom_bond_atom_site_label_1
_geom_bond_atom_site_label_2
_geom_bond_distance
_geom_bond_site_symmetry_2
Mg0 O5 1.933316 1_555
Mg0 O6 1.973254 1_545
Mg0 O8 2.019006 1_445
Mg0 O7 2.172574 1_455
Fe0 O0 1.926217 1_655
Fe0 O2 1.932849 1_555
Fe0 O1 1.971978 1_555
Fe0 O4 2.098827 1_544
Fe0 O3 2.168307 1_554
Fe1 O4 2.120656 1_555
Fe1 O0 2.143810 1_556
Fe1 O1 2.150821 1_566
Fe1 O2 2.157230 1_556
Fe1 O3 2.164281 1_455
Fe1 O5 2.435951 1_555
Bi0 O1 2.101444 1_555
Bi0 O0 2.108736 1_555
Bi0 O2 2.147352 1_445
O3 Si0 1.595091 1_555
O4 Si1 1.624874 1_555
O5 Si0 1.646401 1_555
O6 Si1 1.588242 1_555
O7 Si0 1.699180 1_555
O7 Si1 1.723727 1_545
O8 Si0 1.686340 1_555
O8 Si1 1.706786 1_555
