# generated using pymatgen
data_Na7In2Si3Ge2(PO8)3
_symmetry_space_group_name_H-M   'P 1'
_cell_length_a   8.94140962
_cell_length_b   8.93928571
_cell_length_c   22.05372346
_cell_angle_alpha   89.92338286
_cell_angle_beta   89.55547549
_cell_angle_gamma   119.85262117
_symmetry_Int_Tables_number   1
_chemical_formula_structural   Na7In2Si3Ge2(PO8)3
_chemical_formula_sum   'Na21 In6 Si9 Ge6 P9 O72'
_cell_volume   1528.77489340
_cell_formula_units_Z   3
loop_
 _symmetry_equiv_pos_site_id
 _symmetry_equiv_pos_as_xyz
  1  'x, y, z'
loop_
 _atom_site_type_symbol
 _atom_site_label
 _atom_site_symmetry_multiplicity
 _atom_site_fract_x
 _atom_site_fract_y
 _atom_site_fract_z
 _atom_site_occupancy
  Na  Na0  1  0.61853666  0.00243326  0.25425267  1
  Na  Na1  1  0.37981497  0.38259056  0.24770091  1
  Na  Na2  1  0.00020361  0.61287006  0.25036541  1
  Na  Na3  1  0.62862341  0.63008407  0.74735840  1
  Na  Na4  1  0.99172883  0.36853863  0.74742339  1
  Na  Na5  1  0.37875078  0.00258308  0.74401946  1
  Na  Na6  1  0.02697596  0.69020726  0.58368086  1
  Na  Na7  1  0.66325910  0.96976651  0.58171132  1
  Na  Na8  1  0.66810287  0.68465684  0.08184912  1
  Na  Na9  1  0.02267275  0.33868372  0.08849396  1
  Na  Na10  1  0.95902195  0.66477291  0.92165256  1
  Na  Na11  1  0.70581881  0.03571442  0.91780715  1
  Na  Na12  1  0.34312088  0.29981584  0.91937632  1
  Na  Na13  1  0.96980153  0.30613011  0.41554488  1
  Na  Na14  1  0.33383329  0.02872745  0.41910649  1
  Na  Na15  1  0.99945087  0.99965201  0.49995584  1
  Na  Na16  1  0.01506984  0.99729945  0.00465685  1
  Na  Na17  1  0.66602432  0.33272313  0.83272839  1
  Na  Na18  1  0.67502613  0.35030282  0.33856701  1
  Na  Na19  1  0.32509494  0.67252962  0.16490797  1
  Na  Na20  1  0.33232571  0.65308975  0.65943839  1
  In  In0  1  0.99655244  0.99921994  0.85343804  1
  In  In1  1  0.67048611  0.33333720  0.67615845  1
  In  In2  1  0.67205517  0.33474664  0.18268371  1
  In  In3  1  0.66488934  0.33795324  0.98936168  1
  In  In4  1  0.32624981  0.66000958  0.31955855  1
  In  In5  1  0.33838199  0.66979226  0.81180296  1
  Si  Si0  1  0.99781881  0.27827297  0.25267650  1
  Si  Si1  1  0.71276648  0.00247057  0.74629172  1
  Si  Si2  1  0.97385050  0.33732488  0.58015291  1
  Si  Si3  1  0.36579488  0.03361463  0.58135900  1
  Si  Si4  1  0.98279701  0.64877264  0.08510542  1
  Si  Si5  1  0.35868570  0.33166562  0.08408336  1
  Si  Si6  1  0.62366884  0.66365363  0.91740901  1
  Si  Si7  1  0.62715307  0.96243296  0.41717029  1
  Si  Si8  1  0.02490909  0.66313266  0.41724918  1
  Ge  Ge0  1  0.98570933  0.99119621  0.35720347  1
  Ge  Ge1  1  0.00640842  0.01080301  0.64322690  1
  Ge  Ge2  1  0.00860169  0.00556564  0.14753077  1
  Ge  Ge3  1  0.66658489  0.32687601  0.48397685  1
  Ge  Ge4  1  0.33511745  0.66656890  0.02084935  1
  Ge  Ge5  1  0.32952144  0.67266676  0.51402486  1
  P  P0  1  0.27707458  0.00087288  0.25269445  1
  P  P1  1  0.72142211  0.72143199  0.25090928  1
  P  P2  1  0.28781947  0.28658904  0.74727506  1
  P  P3  1  0.99931962  0.71183902  0.74641112  1
  P  P4  1  0.65996027  0.62638192  0.58137004  1
  P  P5  1  0.66429866  0.02352947  0.08555502  1
  P  P6  1  0.04582750  0.37947009  0.91923827  1
  P  P7  1  0.33655741  0.95550538  0.91735727  1
  P  P8  1  0.34091967  0.37420975  0.41719265  1
  O  O0  1  0.19301996  0.01948945  0.31226182  1
  O  O1  1  0.83093375  0.80659017  0.30829970  1
  O  O2  1  0.98114988  0.16696175  0.31498294  1
  O  O3  1  0.22065558  0.19099114  0.80848998  1
  O  O4  1  0.98571574  0.78843155  0.80730141  1
  O  O5  1  0.81193597  0.03147499  0.81047537  1
  O  O6  1  0.81581745  0.97761252  0.68706943  1
  O  O7  1  0.17269889  0.18456910  0.69287776  1
  O  O8  1  0.02022569  0.82660486  0.69003401  1
  O  O9  1  0.80828704  0.82468526  0.19237686  1
  O  O10  1  0.00973330  0.18038720  0.19151691  1
  O  O11  1  0.16714555  0.98031270  0.19628898  1
  O  O12  1  0.91539285  0.39623680  0.64164429  1
  O  O13  1  0.47901956  0.09875818  0.64236570  1
  O  O14  1  0.63178144  0.53758269  0.64386963  1
  O  O15  1  0.90999748  0.51621663  0.14332772  1
  O  O16  1  0.63113971  0.09708394  0.14404013  1
  O  O17  1  0.48873892  0.38250265  0.14176196  1
  O  O18  1  0.42891892  0.29217512  0.02217854  1
  O  O19  1  0.85420472  0.57070595  0.02741913  1
  O  O20  1  0.70613713  0.14306031  0.03009536  1
  O  O21  1  0.46484704  0.16162706  0.52345987  1
  O  O22  1  0.69447556  0.52303309  0.53214912  1
  O  O23  1  0.82842232  0.29122617  0.52669484  1
  O  O24  1  0.51769036  0.68317828  0.97613634  1
  O  O25  1  0.15466928  0.47781276  0.97502737  1
  O  O26  1  0.31375761  0.83132422  0.96983200  1
  O  O27  1  0.52892422  0.83742285  0.47554578  1
  O  O28  1  0.30497080  0.47772395  0.46566854  1
  O  O29  1  0.16855839  0.70828841  0.47098658  1
  O  O30  1  0.08523234  0.60628049  0.35550528  1
  O  O31  1  0.51335839  0.89493753  0.35573096  1
  O  O32  1  0.37236246  0.46278641  0.35428726  1
  O  O33  1  0.11413250  0.47881366  0.85868751  1
  O  O34  1  0.35252263  0.88735081  0.85468235  1
  O  O35  1  0.52337212  0.63494264  0.85355068  1
  O  O36  1  0.02149148  0.84727530  0.41077445  1
  O  O37  1  0.82457765  0.98905069  0.41321302  1
  O  O38  1  0.17371800  0.19125067  0.41646023  1
  O  O39  1  0.04294671  0.20481849  0.92023800  1
  O  O40  1  0.17462908  0.97689248  0.91976474  1
  O  O41  1  0.81331334  0.83967046  0.92122169  1
  O  O42  1  0.98013588  0.15596949  0.58718635  1
  O  O43  1  0.16645808  0.00284852  0.58852142  1
  O  O44  1  0.82879725  0.80836221  0.58278927  1
  O  O45  1  0.98935851  0.83413929  0.09524525  1
  O  O46  1  0.82636793  0.00198205  0.09125350  1
  O  O47  1  0.16146364  0.16892406  0.09282923  1
  O  O48  1  0.69421362  0.17545652  0.74424778  1
  O  O49  1  0.47206585  0.31436760  0.74283365  1
  O  O50  1  0.83260574  0.53390477  0.74489242  1
  O  O51  1  0.70141743  0.53867161  0.25033371  1
  O  O52  1  0.82347032  0.29669136  0.25295692  1
  O  O53  1  0.45797962  0.16604236  0.24981392  1
  O  O54  1  0.64730780  0.49358845  0.91910693  1
  O  O55  1  0.85978522  0.34881804  0.92383634  1
  O  O56  1  0.50398576  0.13278351  0.92189227  1
  O  O57  1  0.64866516  0.15839845  0.42534129  1
  O  O58  1  0.49898787  0.35051689  0.42770823  1
  O  O59  1  0.83658828  0.49132518  0.43112253  1
  O  O60  1  0.33839004  0.50699951  0.07707552  1
  O  O61  1  0.17309270  0.66811236  0.07367214  1
  O  O62  1  0.50562485  0.84145181  0.07702964  1
  O  O63  1  0.34493548  0.83858055  0.57263237  1
  O  O64  1  0.50304909  0.65183546  0.57114593  1
  O  O65  1  0.16288308  0.50773337  0.56612542  1
  O  O66  1  0.29714158  0.83844616  0.25199140  1
  O  O67  1  0.54105383  0.70646299  0.25244102  1
  O  O68  1  0.17314712  0.46952231  0.25040528  1
  O  O69  1  0.29001406  0.46093417  0.74574625  1
  O  O70  1  0.16173667  0.69083110  0.74491845  1
  O  O71  1  0.52282970  0.82705050  0.74336483  1
loop_
_geom_bond_atom_site_label_1
_geom_bond_atom_site_label_2
_geom_bond_distance
_geom_bond_site_symmetry_2
Na0 O52 2.340563 1_555
Na0 O67 2.378555 1_545
Na0 O31 2.424515 1_545
Na0 O66 2.493643 1_545
Na0 O53 2.510314 1_555
Na0 O16 2.555725 1_555
Na1 O68 2.334572 1_555
Na1 O53 2.363273 1_555
Na1 O32 2.468492 1_555
Na1 O51 2.495515 1_555
Na1 O67 2.513823 1_555
Na1 O17 2.524387 1_555
Na2 O66 2.405919 1_555
Na2 O51 2.411049 1_455
Na2 O68 2.450716 1_555
Na2 O30 2.455515 1_555
Na2 O52 2.457784 1_455
Na2 O15 2.512096 1_455
Na3 O50 2.372440 1_555
Na3 O71 2.379451 1_555
Na3 O14 2.433269 1_555
Na3 O49 2.450422 1_555
Na3 O35 2.525663 1_555
Na3 O69 2.626493 1_555
Na4 O48 2.343685 1_555
Na4 O69 2.366909 1_655
Na4 O12 2.482067 1_555
Na4 O70 2.500516 1_655
Na4 O50 2.511482 1_555
Na4 O33 2.676703 1_655
Na5 O13 2.401063 1_555
Na5 O48 2.450535 1_555
Na5 O71 2.476744 1_545
Na5 O70 2.479479 1_545
Na5 O49 2.479777 1_555
Na5 O34 2.610780 1_545
Na6 O43 2.431153 1_565
Na6 O44 2.473807 1_455
Na6 O63 2.477022 1_555
Na6 O65 2.501029 1_555
Na6 O12 2.626087 1_455
Na6 O8 2.659010 1_555
Na6 O29 2.748091 1_555
Na6 O22 2.827993 1_455
Na7 O42 2.474608 1_565
Na7 O64 2.477413 1_555
Na7 O63 2.490594 1_555
Na7 O44 2.529767 1_555
Na7 O27 2.638300 1_555
Na7 O6 2.686792 1_555
Na7 O23 2.765647 1_565
Na7 O13 2.773764 1_565
Na8 O46 2.470230 1_565
Na8 O62 2.472983 1_555
Na8 O45 2.513357 1_555
Na8 O60 2.562946 1_555
Na8 O19 2.628162 1_555
Na8 O17 2.694176 1_555
Na8 O24 2.697260 1_554
Na8 O9 2.751947 1_555
Na9 O47 2.393403 1_555
Na9 O60 2.460853 1_555
Na9 O15 2.563980 1_455
Na9 O61 2.575945 1_555
Na9 O46 2.623407 1_455
Na9 O10 2.646181 1_555
Na9 O25 2.772383 1_554
Na9 O20 2.804012 1_455
Na10 O54 2.422751 1_555
Na10 O40 2.479235 1_655
Na10 O41 2.483928 1_555
Na10 O19 2.490481 1_556
Na10 O55 2.504186 1_555
Na10 O4 2.712800 1_555
Na11 O56 2.361055 1_555
Na11 O41 2.382937 1_545
Na11 O55 2.432014 1_555
Na11 O5 2.550669 1_555
Na11 O39 2.615508 1_655
Na11 O20 2.656502 1_556
Na12 O39 2.378095 1_555
Na12 O54 2.389052 1_555
Na12 O18 2.410809 1_556
Na12 O40 2.504593 1_545
Na12 O56 2.537829 1_555
Na12 O3 2.667039 1_555
Na13 O37 2.461750 1_545
Na13 O59 2.497154 1_555
Na13 O38 2.498805 1_655
Na13 O57 2.500039 1_555
Na13 O2 2.570221 1_555
Na13 O30 2.688870 1_655
Na13 O23 2.721741 1_555
Na13 O28 2.834718 1_655
Na14 O36 2.441996 1_545
Na14 O57 2.458639 1_555
Na14 O38 2.497110 1_555
Na14 O58 2.503635 1_555
Na14 O21 2.596861 1_555
Na14 O0 2.662213 1_555
Na14 O29 2.729291 1_545
Na14 O31 2.800259 1_545
Na15 O42 2.434254 1_565
Na15 O44 2.437278 1_555
Na15 O37 2.452106 1_555
Na15 O36 2.455786 1_655
Na15 O38 2.458119 1_665
Na15 O43 2.459395 1_665
Na16 O40 2.406732 1_554
Na16 O45 2.413026 1_455
Na16 O47 2.428286 1_565
Na16 O41 2.480626 1_454
Na16 O39 2.548091 1_564
Na16 O46 2.552721 1_465
Na17 O54 2.442699 1_555
Na17 O48 2.489999 1_555
Na17 O50 2.546448 1_555
Na17 O56 2.555146 1_555
Na17 O49 2.595356 1_555
Na17 O55 2.620313 1_555
Na18 O59 2.466207 1_555
Na18 O52 2.480491 1_555
Na18 O57 2.498472 1_555
Na18 O51 2.503217 1_555
Na18 O58 2.509445 1_555
Na18 O53 2.682497 1_555
Na19 O61 2.426206 1_555
Na19 O60 2.476896 1_555
Na19 O62 2.481705 1_555
Na19 O68 2.488157 1_555
Na19 O66 2.513937 1_555
Na19 O67 2.650193 1_555
Na20 O69 2.459639 1_555
Na20 O64 2.468365 1_555
Na20 O71 2.482963 1_555
Na20 O63 2.495825 1_555
Na20 O65 2.512848 1_555
Na20 O70 2.542359 1_555
In0 O5 2.050163 1_565
In0 O4 2.102411 1_555
In0 O3 2.116952 1_665
In0 O41 2.140841 1_555
In0 O39 2.231135 1_665
In0 O40 2.250888 1_655
In1 O13 2.081724 1_555
In1 O12 2.106657 1_555
In1 O48 2.142226 1_555
In1 O14 2.142384 1_555
In1 O49 2.235601 1_555
In1 O50 2.251135 1_555
In2 O17 2.098076 1_555
In2 O15 2.107837 1_555
In2 O16 2.147020 1_555
In2 O52 2.200040 1_555
In2 O51 2.270420 1_555
In2 O53 2.281731 1_555
In3 O18 2.063712 1_556
In3 O19 2.102218 1_556
In3 O54 2.139314 1_555
In3 O20 2.149170 1_556
In3 O55 2.219582 1_555
In3 O56 2.249729 1_555
In4 O31 2.091198 1_555
In4 O30 2.108402 1_555
In4 O32 2.142395 1_555
In4 O68 2.195034 1_555
In4 O67 2.283098 1_555
In4 O66 2.290295 1_555
In5 O35 2.053422 1_555
In5 O34 2.110576 1_555
In5 O33 2.135268 1_555
In5 O71 2.149832 1_555
In5 O69 2.237931 1_555
In5 O70 2.244321 1_555
Ge0 O2 1.843318 1_565
Ge0 O37 1.883266 1_555
Ge0 O1 1.885740 1_555
Ge0 O36 1.888111 1_655
Ge0 O0 1.996600 1_665
Ge0 O38 2.186179 1_665
Ge1 O6 1.843188 1_445
Ge1 O7 1.884979 1_555
Ge1 O42 1.889531 1_455
Ge1 O43 1.892962 1_555
Ge1 O8 1.998023 1_545
Ge1 O44 2.179839 1_445
Ge2 O10 1.836263 1_555
Ge2 O47 1.854355 1_555
Ge2 O45 1.858190 1_445
Ge2 O11 1.886380 1_545
Ge2 O9 1.971228 1_445
Ge2 O46 2.043518 1_455
Ge3 O21 1.874450 1_555
Ge3 O23 1.887461 1_555
Ge3 O59 1.890419 1_555
Ge3 O57 1.932432 1_555
Ge3 O22 1.959430 1_555
Ge3 O58 2.042957 1_555
Ge4 O24 1.841920 1_554
Ge4 O61 1.857376 1_555
Ge4 O60 1.900146 1_555
Ge4 O26 1.936604 1_554
Ge4 O25 1.947081 1_554
Ge4 O62 1.991260 1_555
Ge5 O27 1.851251 1_555
Ge5 O65 1.869754 1_555
Ge5 O29 1.884234 1_555
Ge5 O63 1.921904 1_555
Ge5 O28 1.962159 1_555
Ge5 O64 2.084791 1_555
O0 P0 1.558233 1_555
O1 P1 1.555623 1_555
O2 Si0 1.657096 1_555
O3 P2 1.544963 1_555
O4 P3 1.539379 1_555
O5 Si1 1.627474 1_555
O6 Si1 1.670378 1_565
O7 P2 1.554985 1_555
O8 P3 1.560571 1_455
O9 P1 1.545662 1_555
O10 Si0 1.640124 1_455
O11 P0 1.545012 1_565
O12 Si2 1.629277 1_555
O13 Si3 1.615711 1_555
O14 P4 1.544675 1_555
O15 Si4 1.640613 1_555
O16 P5 1.540869 1_555
O17 Si5 1.635608 1_555
O18 Si5 1.609823 1_555
O19 Si4 1.629042 1_555
O20 P5 1.539187 1_555
O21 Si3 1.641319 1_555
O22 P4 1.551909 1_555
O23 Si2 1.655967 1_555
O24 Si6 1.658929 1_555
O25 P6 1.550313 1_555
O26 P7 1.542960 1_555
O27 Si7 1.636794 1_555
O28 P8 1.547877 1_555
O29 Si8 1.651035 1_555
O30 Si8 1.633017 1_555
O31 Si7 1.627163 1_555
O32 P8 1.549191 1_555
O33 P6 1.545667 1_555
O34 P7 1.545271 1_555
O35 Si6 1.626309 1_555
O36 Si8 1.667482 1_555
O37 Si7 1.661250 1_555
O38 P8 1.573686 1_555
O39 P6 1.548724 1_555
O40 P7 1.552450 1_555
O41 Si6 1.644560 1_555
O42 Si2 1.656996 1_555
O43 Si3 1.668794 1_555
O44 P4 1.575551 1_555
O45 Si4 1.644281 1_555
O46 P5 1.559972 1_555
O47 Si5 1.644178 1_555
O48 Si1 1.635887 1_555
O49 P2 1.541241 1_555
O50 P3 1.547141 1_555
O51 P1 1.552563 1_555
O52 Si0 1.647047 1_555
O53 P0 1.555968 1_555
O54 Si6 1.636197 1_555
O55 P6 1.547922 1_655
O56 P7 1.550305 1_545
O57 Si7 1.674567 1_545
O58 P8 1.548925 1_555
O59 Si8 1.644361 1_655
O60 Si5 1.672239 1_555
O61 Si4 1.639812 1_455
O62 P5 1.550317 1_565
O63 Si3 1.670097 1_565
O64 P4 1.547135 1_555
O65 Si2 1.643295 1_455
O66 P0 1.549212 1_565
O67 P1 1.550580 1_555
O68 Si0 1.647216 1_455
O69 P2 1.549165 1_555
O70 P3 1.554390 1_455
O71 Si1 1.642594 1_565
