# generated using pymatgen
data_DyCo5
_symmetry_space_group_name_H-M   'P 1'
_cell_length_a   4.91976600
_cell_length_b   4.91976657
_cell_length_c   3.94836400
_cell_angle_alpha   90.00000000
_cell_angle_beta   90.00000000
_cell_angle_gamma   119.99999614
_symmetry_Int_Tables_number   1
_chemical_formula_structural   DyCo5
_chemical_formula_sum   'Dy1 Co5'
_cell_volume   82.76310515
_cell_formula_units_Z   1
loop_
 _symmetry_equiv_pos_site_id
 _symmetry_equiv_pos_as_xyz
  1  'x, y, z'
loop_
 _atom_site_type_symbol
 _atom_site_label
 _atom_site_symmetry_multiplicity
 _atom_site_fract_x
 _atom_site_fract_y
 _atom_site_fract_z
 _atom_site_occupancy
  Dy  Dy0  1  0.00000000  0.00000000  0.00000000  1
  Co  Co0  1  0.00000000  0.50000000  0.50000000  1
  Co  Co1  1  0.33333300  0.66666700  0.00000000  1
  Co  Co2  1  0.66666700  0.33333300  0.00000000  1
  Co  Co3  1  0.50000000  0.00000000  0.50000000  1
  Co  Co4  1  0.50000000  0.50000000  0.50000000  1
loop_
_geom_bond_atom_site_label_1
_geom_bond_atom_site_label_2
_geom_bond_distance
_geom_bond_site_symmetry_2
Co0 Co1 2.431954 1_555
Co0 Co2 2.431954 1_455
Co0 Co2 2.431954 1_456
Co0 Co1 2.431954 1_556
Co0 Co4 2.459883 1_455
Co0 Co4 2.459883 1_555
Co0 Co3 2.459883 1_565
Co0 Co3 2.459883 1_455
Co0 Dy0 3.154112 1_565
Co0 Dy0 3.154112 1_555
Co0 Dy0 3.154112 1_566
Co0 Dy0 3.154112 1_556
Co1 Co3 2.431954 1_565
Co1 Co3 2.431954 1_564
Co1 Co4 2.431956 1_555
Co1 Co4 2.431956 1_554
Co1 Dy0 2.840425 1_565
Co1 Dy0 2.840430 1_665
Co1 Dy0 2.840430 1_555
Co2 Co3 2.431954 1_555
Co2 Co3 2.431954 1_554
Co2 Co4 2.431956 1_555
Co2 Co4 2.431956 1_554
Co2 Dy0 2.840425 1_655
Co2 Dy0 2.840430 1_555
Co2 Dy0 2.840430 1_665
Co3 Co4 2.459883 1_555
Co3 Co4 2.459883 1_545
Co3 Dy0 3.154111 1_556
Co3 Dy0 3.154111 1_655
Co3 Dy0 3.154111 1_656
Co3 Dy0 3.154111 1_555
Co4 Dy0 3.154112 1_666
Co4 Dy0 3.154112 1_665
Co4 Dy0 3.154112 1_555
Co4 Dy0 3.154112 1_556
