# generated using pymatgen
data_NaSi
_symmetry_space_group_name_H-M   'P 1'
_cell_length_a   6.55294731
_cell_length_b   6.88312817
_cell_length_c   10.18317439
_cell_angle_alpha   77.69819125
_cell_angle_beta   71.23098781
_cell_angle_gamma   61.57451675
_symmetry_Int_Tables_number   1
_chemical_formula_structural   NaSi
_chemical_formula_sum   'Na8 Si8'
_cell_volume   381.46325253
_cell_formula_units_Z   8
loop_
 _symmetry_equiv_pos_site_id
 _symmetry_equiv_pos_as_xyz
  1  'x, y, z'
loop_
 _atom_site_type_symbol
 _atom_site_label
 _atom_site_symmetry_multiplicity
 _atom_site_fract_x
 _atom_site_fract_y
 _atom_site_fract_z
 _atom_site_occupancy
  Na  Na0  1  0.72393938  0.19276203  0.54708357  1
  Na  Na1  1  0.46378598  0.30723797  0.95291643  1
  Na  Na2  1  0.27606062  0.80723797  0.45291643  1
  Na  Na3  1  0.53621402  0.69276203  0.04708357  1
  Na  Na4  1  0.99203461  0.84293828  0.85686970  1
  Na  Na5  1  0.69184359  0.65706172  0.64313030  1
  Na  Na6  1  0.00796539  0.15706172  0.14313030  1
  Na  Na7  1  0.30815641  0.34293828  0.35686970  1
  Si  Si0  1  0.93745577  0.33806326  0.85804363  1
  Si  Si1  1  0.13356366  0.16193674  0.64195637  1
  Si  Si2  1  0.06254423  0.66193674  0.14195637  1
  Si  Si3  1  0.86643634  0.83806326  0.35804363  1
  Si  Si4  1  0.22843363  0.43360385  0.68739144  1
  Si  Si5  1  0.34942891  0.06639615  0.81260856  1
  Si  Si6  1  0.77156637  0.56639615  0.31260856  1
  Si  Si7  1  0.65057109  0.93360385  0.18739144  1
loop_
_geom_bond_atom_site_label_1
_geom_bond_atom_site_label_2
_geom_bond_distance
_geom_bond_site_symmetry_2
Na0 Si4 2.869153 1_555
Na0 Si3 3.035433 1_545
Na0 Si1 3.036904 1_655
Na0 Si6 3.174976 1_555
Na0 Si5 3.293976 1_555
Na1 Si5 2.869158 1_555
Na1 Si2 3.035433 1_556
Na1 Si0 3.036892 1_555
Na1 Si7 3.174974 1_546
Na1 Si4 3.293980 1_555
Na2 Si6 2.869153 1_555
Na2 Si1 3.035433 1_565
Na2 Si3 3.036904 1_455
Na2 Si4 3.174976 1_555
Na2 Si7 3.293976 1_555
Na3 Si7 2.869158 1_555
Na3 Si0 3.035433 1_554
Na3 Si2 3.036892 1_555
Na3 Si5 3.174974 1_564
Na3 Si6 3.293980 1_555
Na4 Si2 2.994577 1_656
Na4 Si1 3.009271 1_665
Na4 Si4 3.084298 1_655
Na4 Si5 3.241678 1_665
Na4 Si0 3.255269 1_565
Na4 Si7 3.382879 1_556
Na5 Si3 2.994574 1_555
Na5 Si0 3.009265 1_555
Na5 Si5 3.084299 1_565
Na5 Si4 3.241671 1_655
Na5 Si1 3.255269 1_655
Na5 Si6 3.382880 1_555
Na6 Si0 2.994577 1_454
Na6 Si3 3.009271 1_445
Na6 Si6 3.084298 1_455
Na6 Si7 3.241678 1_445
Na6 Si2 3.255269 1_545
Na6 Si5 3.382879 1_554
Na7 Si1 2.994574 1_555
Na7 Si2 3.009265 1_555
Na7 Si7 3.084299 1_545
Na7 Si6 3.241671 1_455
Na7 Si3 3.255269 1_455
Na7 Si4 3.382880 1_555
Si0 Si4 2.379623 1_655
Si0 Si5 2.399511 1_655
Si0 Si1 2.407691 1_655
Si1 Si5 2.379618 1_555
Si1 Si4 2.399507 1_555
Si2 Si6 2.379623 1_455
Si2 Si7 2.399511 1_455
Si2 Si3 2.407691 1_455
Si3 Si7 2.379618 1_555
Si3 Si6 2.399507 1_555
Si4 Si5 2.452010 1_555
Si6 Si7 2.452010 1_555
