# generated using pymatgen
data_Na18Mg8Nb16Si21(S5O48)3
_symmetry_space_group_name_H-M   'P 1'
_cell_length_a   17.85805077
_cell_length_b   8.93235494
_cell_length_c   22.80390496
_cell_angle_alpha   89.85181305
_cell_angle_beta   90.32527100
_cell_angle_gamma   120.09161473
_symmetry_Int_Tables_number   1
_chemical_formula_structural   Na18Mg8Nb16Si21(S5O48)3
_chemical_formula_sum   'Na18 Mg8 Nb16 Si21 S15 O144'
_cell_volume   3147.24964054
_cell_formula_units_Z   1
loop_
 _symmetry_equiv_pos_site_id
 _symmetry_equiv_pos_as_xyz
  1  'x, y, z'
loop_
 _atom_site_type_symbol
 _atom_site_label
 _atom_site_symmetry_multiplicity
 _atom_site_fract_x
 _atom_site_fract_y
 _atom_site_fract_z
 _atom_site_occupancy
  Na  Na0  1  0.31975664  0.01566209  0.23985954  1
  Na  Na1  1  0.81689052  0.01388580  0.24084841  1
  Na  Na2  1  0.99682500  0.63641052  0.24158668  1
  Na  Na3  1  0.32581945  0.62302079  0.74421606  1
  Na  Na4  1  0.81723499  0.61945094  0.74205380  1
  Na  Na5  1  0.49387863  0.35906059  0.74023953  1
  Na  Na6  1  0.99030158  0.98369186  0.48976429  1
  Na  Na7  1  0.49089303  0.98902308  0.49252580  1
  Na  Na8  1  0.99098463  0.99378164  0.98686878  1
  Na  Na9  1  0.49143138  0.99741777  0.98753990  1
  Na  Na10  1  0.32716510  0.33658107  0.82527159  1
  Na  Na11  1  0.82433346  0.31889115  0.82748307  1
  Na  Na12  1  0.32751315  0.33194305  0.32998855  1
  Na  Na13  1  0.81529816  0.31356232  0.33284240  1
  Na  Na14  1  0.16831777  0.67040274  0.16016208  1
  Na  Na15  1  0.65642481  0.66417913  0.16197893  1
  Na  Na16  1  0.15978327  0.65220890  0.66414894  1
  Na  Na17  1  0.66314301  0.66548656  0.66380147  1
  Mg  Mg0  1  0.00150672  0.99726644  0.35813795  1
  Mg  Mg1  1  0.50222804  0.99724881  0.35779211  1
  Mg  Mg2  1  0.00040476  0.00576729  0.85730680  1
  Mg  Mg3  1  0.50016622  0.99712346  0.85544475  1
  Mg  Mg4  1  0.33643887  0.34903864  0.68574309  1
  Mg  Mg5  1  0.83320270  0.33818598  0.68413916  1
  Mg  Mg6  1  0.33380782  0.32758761  0.18411687  1
  Mg  Mg7  1  0.82865799  0.32258072  0.18255912  1
  Nb  Nb0  1  0.00097747  0.01283240  0.64256193  1
  Nb  Nb1  1  0.50346998  0.99921989  0.64512518  1
  Nb  Nb2  1  0.00212404  0.99153888  0.14070927  1
  Nb  Nb3  1  0.50136332  0.98919260  0.14191020  1
  Nb  Nb4  1  0.34530246  0.34540795  0.97678990  1
  Nb  Nb5  1  0.84372029  0.34459452  0.97757167  1
  Nb  Nb6  1  0.34483158  0.34321224  0.47963567  1
  Nb  Nb7  1  0.84411856  0.34239754  0.47812651  1
  Nb  Nb8  1  0.16904411  0.66998138  0.01990117  1
  Nb  Nb9  1  0.66948996  0.66857863  0.01953466  1
  Nb  Nb10  1  0.16964782  0.67332111  0.52164469  1
  Nb  Nb11  1  0.66899129  0.67011714  0.52163129  1
  Nb  Nb12  1  0.16589332  0.68053933  0.31511126  1
  Nb  Nb13  1  0.65991865  0.67818999  0.31410728  1
  Nb  Nb14  1  0.16215244  0.64283320  0.81298574  1
  Nb  Nb15  1  0.66145642  0.64871004  0.81132579  1
  Si  Si0  1  0.14822479  0.01779464  0.25402038  1
  Si  Si1  1  0.64725867  0.01714723  0.25399644  1
  Si  Si2  1  0.14561784  0.27484556  0.75419874  1
  Si  Si3  1  0.64809061  0.27612335  0.75380595  1
  Si  Si4  1  0.49996501  0.71204788  0.75470195  1
  Si  Si5  1  0.48078350  0.33261132  0.58839406  1
  Si  Si6  1  0.97885435  0.34249783  0.58705784  1
  Si  Si7  1  0.33472194  0.62306792  0.58653209  1
  Si  Si8  1  0.83439597  0.61995527  0.58724472  1
  Si  Si9  1  0.47900184  0.61361315  0.08667270  1
  Si  Si10  1  0.97889673  0.61284395  0.08851900  1
  Si  Si11  1  0.33341290  0.04751125  0.08752205  1
  Si  Si12  1  0.83284220  0.04576458  0.08695971  1
  Si  Si13  1  0.31484099  0.66672419  0.91732814  1
  Si  Si14  1  0.81460477  0.66825379  0.91554286  1
  Si  Si15  1  0.02232790  0.36775423  0.91847904  1
  Si  Si16  1  0.52356295  0.36637568  0.91673649  1
  Si  Si17  1  0.31629142  0.96753545  0.41804643  1
  Si  Si18  1  0.81430507  0.96259599  0.41690870  1
  Si  Si19  1  0.02178261  0.67518076  0.41770414  1
  Si  Si20  1  0.52118101  0.67741695  0.41925125  1
  S  S0  1  0.35548832  0.70825548  0.25032431  1
  S  S1  1  0.85388243  0.70944611  0.24973417  1
  S  S2  1  0.00281807  0.28864288  0.25142955  1
  S  S3  1  0.50257861  0.28821542  0.25144907  1
  S  S4  1  0.00261028  0.71671214  0.75160186  1
  S  S5  1  0.35248236  0.99660846  0.74998752  1
  S  S6  1  0.85685390  0.00371326  0.75008892  1
  S  S7  1  0.18954638  0.04748972  0.58445224  1
  S  S8  1  0.69038253  0.04724166  0.58335868  1
  S  S9  1  0.18980760  0.33441665  0.08448672  1
  S  S10  1  0.68873901  0.33321568  0.08383075  1
  S  S11  1  0.16753505  0.95532476  0.91612240  1
  S  S12  1  0.66809635  0.95659551  0.91721015  1
  S  S13  1  0.16728731  0.38070448  0.41693328  1
  S  S14  1  0.66717052  0.38126600  0.41646876  1
  O  O0  1  0.09405273  0.01495728  0.30824590  1
  O  O1  1  0.59782520  0.02427497  0.30937978  1
  O  O2  1  0.40495623  0.79250876  0.30271072  1
  O  O3  1  0.90605859  0.79269758  0.30160498  1
  O  O4  1  0.48952291  0.18220047  0.30322874  1
  O  O5  1  0.99020912  0.18341457  0.30313708  1
  O  O6  1  0.09528844  0.17021030  0.80966409  1
  O  O7  1  0.59692426  0.17817170  0.80996963  1
  O  O8  1  0.47659977  0.79685253  0.80701758  1
  O  O9  1  0.98954340  0.79623886  0.80330578  1
  O  O10  1  0.40378546  0.02507765  0.80293101  1
  O  O11  1  0.90680634  0.02015240  0.80245312  1
  O  O12  1  0.39303594  0.96291566  0.69687392  1
  O  O13  1  0.89818033  0.97263289  0.69560162  1
  O  O14  1  0.08384940  0.18621335  0.69312427  1
  O  O15  1  0.58530902  0.19528567  0.69295794  1
  O  O16  1  0.01212564  0.81923140  0.69709707  1
  O  O17  1  0.51142463  0.83244271  0.69359589  1
  O  O18  1  0.39533950  0.82219890  0.19610111  1
  O  O19  1  0.89537335  0.82218568  0.19550928  1
  O  O20  1  0.01090929  0.20520897  0.19697374  1
  O  O21  1  0.51207693  0.20551576  0.19714501  1
  O  O22  1  0.08453226  0.97781497  0.19310837  1
  O  O23  1  0.58614768  0.98532314  0.19300581  1
  O  O24  1  0.44076559  0.35977619  0.64616613  1
  O  O25  1  0.93570687  0.36550040  0.64310436  1
  O  O26  1  0.24031273  0.12275119  0.63704211  1
  O  O27  1  0.73957766  0.12062376  0.63676709  1
  O  O28  1  0.31349237  0.51978918  0.64616327  1
  O  O29  1  0.81455345  0.51943266  0.64751456  1
  O  O30  1  0.43575046  0.50626121  0.14334208  1
  O  O31  1  0.93940084  0.51856216  0.14889075  1
  O  O32  1  0.31325891  0.10696378  0.14792742  1
  O  O33  1  0.81567942  0.11006374  0.14737732  1
  O  O34  1  0.23873384  0.35713555  0.13791514  1
  O  O35  1  0.73892638  0.35897195  0.13701793  1
  O  O36  1  0.22593379  0.30586963  0.03106266  1
  O  O37  1  0.72611182  0.30555432  0.03060378  1
  O  O38  1  0.41896919  0.53246658  0.02579524  1
  O  O39  1  0.91658932  0.52592142  0.02932802  1
  O  O40  1  0.34408695  0.17057870  0.02965323  1
  O  O41  1  0.84411760  0.16908801  0.02931436  1
  O  O42  1  0.22661029  0.14703623  0.53013019  1
  O  O43  1  0.73048246  0.14757813  0.52966168  1
  O  O44  1  0.34347292  0.51816839  0.52825313  1
  O  O45  1  0.84478571  0.51753173  0.52891052  1
  O  O46  1  0.41810596  0.30608334  0.52825099  1
  O  O47  1  0.91911553  0.30501486  0.52555123  1
  O  O48  1  0.25794064  0.67917478  0.97259525  1
  O  O49  1  0.76091319  0.68568354  0.97187360  1
  O  O50  1  0.07972640  0.48611069  0.97407059  1
  O  O51  1  0.58186414  0.48714452  0.97206519  1
  O  O52  1  0.16010118  0.85223130  0.97072960  1
  O  O53  1  0.66150002  0.85417091  0.97150538  1
  O  O54  1  0.26110146  0.83842702  0.47228890  1
  O  O55  1  0.76063061  0.83638062  0.47208235  1
  O  O56  1  0.15967638  0.46795955  0.47016166  1
  O  O57  1  0.66026309  0.46862121  0.47022896  1
  O  O58  1  0.08142193  0.67457759  0.47190408  1
  O  O59  1  0.58124593  0.67616046  0.47310316  1
  O  O60  1  0.06709487  0.64052199  0.35734271  1
  O  O61  1  0.56636632  0.64109728  0.35933516  1
  O  O62  1  0.25166370  0.86322515  0.35830933  1
  O  O63  1  0.75049548  0.85970153  0.35749363  1
  O  O64  1  0.17981024  0.49220951  0.36351387  1
  O  O65  1  0.68027555  0.49157482  0.36343974  1
  O  O66  1  0.06757063  0.49463296  0.85960528  1
  O  O67  1  0.56626684  0.49133885  0.85704725  1
  O  O68  1  0.18062753  0.87156151  0.86400071  1
  O  O69  1  0.68163756  0.87445368  0.86492376  1
  O  O70  1  0.25097975  0.64175292  0.85844993  1
  O  O71  1  0.75325107  0.64602557  0.85713012  1
  O  O72  1  0.01308353  0.84108157  0.41620321  1
  O  O73  1  0.51286522  0.84346221  0.41745592  1
  O  O74  1  0.40924771  0.99301341  0.41011025  1
  O  O75  1  0.90819458  0.99099921  0.40977755  1
  O  O76  1  0.08900448  0.21396059  0.41185483  1
  O  O77  1  0.58917628  0.21414907  0.41239525  1
  O  O78  1  0.01335851  0.18454188  0.91734785  1
  O  O79  1  0.51385836  0.18293684  0.91554728  1
  O  O80  1  0.08933578  0.96550463  0.91303411  1
  O  O81  1  0.59070355  0.96932293  0.91463232  1
  O  O82  1  0.40707103  0.83089179  0.91502004  1
  O  O83  1  0.90968623  0.82602259  0.91130230  1
  O  O84  1  0.49073360  0.15953732  0.58940436  1
  O  O85  1  0.98873185  0.16447044  0.59034849  1
  O  O86  1  0.09925934  0.02098154  0.58899391  1
  O  O87  1  0.60166938  0.02652484  0.58603302  1
  O  O88  1  0.42188412  0.81689742  0.58890878  1
  O  O89  1  0.92280971  0.81442879  0.59169851  1
  O  O90  1  0.48888548  0.81251243  0.09125912  1
  O  O91  1  0.98826539  0.81099361  0.09058057  1
  O  O92  1  0.42205872  0.03013578  0.09334009  1
  O  O93  1  0.92251106  0.02942753  0.09272322  1
  O  O94  1  0.09862022  0.17758576  0.08986157  1
  O  O95  1  0.59856754  0.17778307  0.08909397  1
  O  O96  1  0.33953795  0.14424046  0.74005298  1
  O  O97  1  0.84495176  0.15214823  0.74166531  1
  O  O98  1  0.24368731  0.32137431  0.74673739  1
  O  O99  1  0.74681801  0.32047062  0.74769174  1
  O  O100  1  0.42402461  0.51282832  0.74724682  1
  O  O101  1  0.92851450  0.53874445  0.74602222  1
  O  O102  1  0.34269039  0.53536230  0.24228680  1
  O  O103  1  0.84515290  0.53776364  0.24222868  1
  O  O104  1  0.42864188  0.31836981  0.24600115  1
  O  O105  1  0.92898917  0.32145132  0.24690082  1
  O  O106  1  0.24711274  0.16848195  0.24862587  1
  O  O107  1  0.74671652  0.16880694  0.24765199  1
  O  O108  1  0.30994681  0.47746286  0.92569074  1
  O  O109  1  0.81111011  0.48019918  0.92662652  1
  O  O110  1  0.42808614  0.36079455  0.92217874  1
  O  O111  1  0.92723869  0.36259453  0.92234763  1
  O  O112  1  0.24648326  0.12833643  0.92261545  1
  O  O113  1  0.74771486  0.13038402  0.92340697  1
  O  O114  1  0.30988109  0.14429879  0.42510718  1
  O  O115  1  0.80967945  0.14238351  0.42425215  1
  O  O116  1  0.24628431  0.36631453  0.42111282  1
  O  O117  1  0.74639061  0.36612424  0.42155657  1
  O  O118  1  0.42657342  0.49229385  0.42204623  1
  O  O119  1  0.92675673  0.49146281  0.42076008  1
  O  O120  1  0.17614400  0.48677720  0.07863534  1
  O  O121  1  0.67628651  0.48682850  0.07767478  1
  O  O122  1  0.07681583  0.64868889  0.07627239  1
  O  O123  1  0.57714033  0.65064444  0.07427082  1
  O  O124  1  0.25310841  0.84944288  0.07278356  1
  O  O125  1  0.75311086  0.84826670  0.07311068  1
  O  O126  1  0.17657946  0.86651026  0.57809600  1
  O  O127  1  0.67738640  0.86657876  0.57762630  1
  O  O128  1  0.25237425  0.65471349  0.57093214  1
  O  O129  1  0.75367123  0.65549096  0.57178183  1
  O  O130  1  0.07685596  0.50331341  0.57400406  1
  O  O131  1  0.57689486  0.50190238  0.57379671  1
  O  O132  1  0.15241905  0.82259928  0.25555756  1
  O  O133  1  0.65426644  0.82673578  0.25545794  1
  O  O134  1  0.26684358  0.69803577  0.25292554  1
  O  O135  1  0.76640163  0.69531682  0.25232526  1
  O  O136  1  0.08474930  0.46597109  0.25461001  1
  O  O137  1  0.58592755  0.46334284  0.25572606  1
  O  O138  1  0.15249560  0.47960070  0.75617063  1
  O  O139  1  0.65486589  0.48105411  0.75508262  1
  O  O140  1  0.08592808  0.70917019  0.75589608  1
  O  O141  1  0.59379524  0.70898245  0.75792795  1
  O  O142  1  0.26456904  0.83130145  0.75411438  1
  O  O143  1  0.77021337  0.83745252  0.75160322  1
loop_
_geom_bond_atom_site_label_1
_geom_bond_atom_site_label_2
_geom_bond_distance
_geom_bond_site_symmetry_2
Na0 O32 2.270858 1_555
Na0 O106 2.316534 1_555
Na0 O104 2.416257 1_555
Na0 O134 2.518252 1_545
Na0 O132 2.621726 1_545
Na0 O18 2.857801 1_545
Na0 O4 2.988526 1_555
Na0 O62 2.997777 1_545
Na1 O107 2.291661 1_555
Na1 O33 2.300101 1_555
Na1 O105 2.461298 1_555
Na1 O135 2.530766 1_545
Na1 O133 2.545476 1_545
Na2 O31 2.352108 1_555
Na2 O103 2.391674 1_555
Na2 O132 2.438617 1_655
Na2 O105 2.445278 1_555
Na2 O136 2.694587 1_655
Na2 O22 2.861405 1_655
Na2 O60 2.908731 1_655
Na2 O3 2.958641 1_555
Na3 O98 2.334888 1_555
Na3 O28 2.387445 1_555
Na3 O100 2.403843 1_555
Na3 O142 2.598881 1_555
Na3 O138 2.706931 1_555
Na3 O8 2.736322 1_555
Na3 O12 2.857857 1_555
Na3 O70 2.977607 1_555
Na4 O99 2.315689 1_555
Na4 O29 2.326820 1_555
Na4 O101 2.431290 1_555
Na4 O143 2.487637 1_555
Na4 O139 2.537241 1_555
Na5 O100 2.278100 1_555
Na5 O24 2.341933 1_555
Na5 O96 2.444435 1_555
Na5 O139 2.533095 1_555
Na5 O141 2.742596 1_555
Na5 O15 2.896869 1_555
Na5 O67 2.933918 1_555
Na5 O10 2.953499 1_555
Na6 O72 2.267296 1_655
Na6 O75 2.355040 1_555
Na6 O76 2.622040 1_665
Na6 O89 2.707062 1_555
Na6 O85 2.816859 1_565
Na6 O86 2.884675 1_665
Na7 O73 2.303425 1_555
Na7 O74 2.383253 1_555
Na7 O88 2.612791 1_555
Na7 O77 2.634667 1_565
Na7 O84 2.687425 1_565
Na7 O87 2.804248 1_565
Na8 O78 2.210633 1_665
Na8 O83 2.264090 1_555
Na8 O80 2.542466 1_655
Na8 O93 2.802040 1_566
Na8 O91 2.857161 1_556
Na8 O94 2.951350 1_666
Na9 O79 2.220259 1_565
Na9 O82 2.225832 1_555
Na9 O81 2.540026 1_555
Na9 O92 2.800311 1_566
Na9 O90 2.868777 1_556
Na9 O95 2.915000 1_566
Na10 O98 2.283847 1_555
Na10 O100 2.434333 1_555
Na10 O96 2.679519 1_555
Na10 O108 2.707935 1_555
Na10 O110 2.782941 1_555
Na10 O112 2.791243 1_555
Na11 O99 2.284304 1_555
Na11 O97 2.599396 1_555
Na11 O101 2.669328 1_555
Na11 O113 2.682706 1_555
Na11 O111 2.729310 1_555
Na11 O109 2.758156 1_555
Na12 O106 2.348916 1_555
Na12 O102 2.620741 1_555
Na12 O116 2.645869 1_555
Na12 O118 2.649621 1_555
Na12 O114 2.659528 1_555
Na12 O104 2.684098 1_555
Na13 O107 2.311672 1_555
Na13 O117 2.537690 1_555
Na13 O115 2.554443 1_555
Na13 O119 2.702949 1_555
Na13 O103 2.735885 1_555
Na13 O105 2.805158 1_555
Na14 O122 2.452745 1_555
Na14 O124 2.531842 1_555
Na14 O120 2.532740 1_555
Na14 O132 2.659033 1_555
Na14 O134 2.675150 1_555
Na14 O136 2.735668 1_555
Na15 O123 2.411865 1_555
Na15 O133 2.593643 1_555
Na15 O121 2.630241 1_555
Na15 O125 2.639589 1_555
Na15 O137 2.668212 1_555
Na15 O135 2.754711 1_555
Na16 O130 2.488419 1_555
Na16 O138 2.565685 1_555
Na16 O126 2.648864 1_555
Na16 O140 2.661846 1_555
Na16 O142 2.690958 1_555
Na16 O128 2.693649 1_555
Na17 O131 2.538265 1_555
Na17 O127 2.584982 1_555
Na17 O141 2.609378 1_555
Na17 O139 2.609659 1_555
Na17 O143 2.655493 1_555
Na17 O129 2.684976 1_555
Mg0 O0 1.951751 1_565
Mg0 O72 2.004714 1_555
Mg0 O75 2.023619 1_455
Mg0 O76 2.155522 1_565
Mg0 O5 2.168236 1_465
Mg0 O3 2.184098 1_455
Mg1 O1 1.948919 1_565
Mg1 O73 2.005811 1_555
Mg1 O74 2.034987 1_555
Mg1 O77 2.165394 1_565
Mg1 O4 2.165865 1_565
Mg1 O2 2.177439 1_555
Mg2 O6 1.930256 1_555
Mg2 O78 2.028657 1_555
Mg2 O83 2.030425 1_445
Mg2 O11 2.136789 1_455
Mg2 O9 2.168423 1_445
Mg2 O80 2.194062 1_545
Mg3 O8 1.961323 1_555
Mg3 O7 1.971278 1_565
Mg3 O79 2.072205 1_565
Mg3 O82 2.086658 1_555
Mg3 O10 2.205639 1_565
Mg3 O81 2.207619 1_555
Mg4 O28 1.980964 1_555
Mg4 O24 2.033277 1_555
Mg4 O100 2.060341 1_555
Mg4 O98 2.086425 1_555
Mg4 O26 2.185481 1_555
Mg4 O96 2.229879 1_555
Mg5 O25 1.963772 1_555
Mg5 O29 1.989974 1_555
Mg5 O99 2.069921 1_555
Mg5 O27 2.114516 1_555
Mg5 O97 2.204893 1_555
Mg5 O101 2.241870 1_555
Mg6 O30 1.955493 1_555
Mg6 O32 1.994778 1_555
Mg6 O106 2.095086 1_555
Mg6 O34 2.118949 1_555
Mg6 O102 2.223585 1_555
Mg6 O104 2.231251 1_555
Mg7 O33 1.966065 1_555
Mg7 O31 2.025776 1_555
Mg7 O107 2.056677 1_555
Mg7 O35 2.062439 1_555
Mg7 O103 2.252538 1_555
Mg7 O105 2.313300 1_555
Nb0 O85 1.893640 1_455
Nb0 O14 1.899913 1_555
Nb0 O89 1.986504 1_445
Nb0 O13 2.079380 1_445
Nb0 O86 2.115121 1_555
Nb0 O16 2.215408 1_545
Nb1 O17 1.913914 1_555
Nb1 O15 1.953979 1_565
Nb1 O88 2.007148 1_555
Nb1 O84 2.007701 1_565
Nb1 O87 2.132335 1_565
Nb1 O12 2.184079 1_555
Nb2 O91 1.890734 1_455
Nb2 O22 1.941329 1_555
Nb2 O93 1.948385 1_465
Nb2 O94 2.053484 1_565
Nb2 O19 2.147013 1_455
Nb2 O20 2.241343 1_565
Nb3 O90 1.878368 1_555
Nb3 O23 1.919251 1_555
Nb3 O92 1.966130 1_565
Nb3 O95 2.093463 1_565
Nb3 O18 2.126492 1_555
Nb3 O21 2.235161 1_565
Nb4 O38 1.886819 1_556
Nb4 O110 1.889864 1_555
Nb4 O40 1.961876 1_556
Nb4 O108 1.969567 1_555
Nb4 O112 2.226304 1_555
Nb4 O36 2.339515 1_556
Nb5 O39 1.894372 1_556
Nb5 O111 1.901594 1_555
Nb5 O109 1.961721 1_555
Nb5 O41 1.962506 1_556
Nb5 O113 2.196539 1_555
Nb5 O37 2.299438 1_556
Nb6 O46 1.862284 1_555
Nb6 O118 1.921532 1_555
Nb6 O44 1.928542 1_555
Nb6 O114 1.995805 1_555
Nb6 O42 2.271806 1_555
Nb6 O116 2.292770 1_555
Nb7 O47 1.872147 1_555
Nb7 O119 1.924730 1_555
Nb7 O45 1.943972 1_555
Nb7 O115 1.995105 1_555
Nb7 O43 2.236701 1_555
Nb7 O117 2.258055 1_555
Nb8 O48 1.891809 1_554
Nb8 O50 1.922733 1_554
Nb8 O124 1.963131 1_555
Nb8 O122 2.027305 1_555
Nb8 O52 2.045039 1_554
Nb8 O120 2.163961 1_555
Nb9 O49 1.907688 1_554
Nb9 O51 1.921908 1_554
Nb9 O125 1.970976 1_555
Nb9 O123 2.015164 1_555
Nb9 O53 2.047973 1_554
Nb9 O121 2.143076 1_555
Nb10 O128 1.923487 1_555
Nb10 O54 1.925114 1_555
Nb10 O58 1.940728 1_555
Nb10 O130 1.991816 1_555
Nb10 O126 2.108503 1_555
Nb10 O56 2.110952 1_555
Nb11 O55 1.932770 1_555
Nb11 O59 1.935907 1_555
Nb11 O129 1.946654 1_555
Nb11 O131 1.978031 1_555
Nb11 O57 2.089309 1_555
Nb11 O127 2.116155 1_555
Nb12 O62 1.861214 1_555
Nb12 O60 1.885005 1_555
Nb12 O132 1.950886 1_555
Nb12 O64 2.125203 1_555
Nb12 O136 2.209670 1_555
Nb12 O134 2.242927 1_555
Nb13 O61 1.851310 1_555
Nb13 O63 1.893221 1_555
Nb13 O133 1.919134 1_555
Nb13 O137 2.156783 1_555
Nb13 O65 2.183949 1_555
Nb13 O135 2.315580 1_555
Nb14 O66 1.872554 1_555
Nb14 O70 1.894171 1_555
Nb14 O138 1.894556 1_555
Nb14 O140 2.164160 1_555
Nb14 O142 2.215880 1_555
Nb14 O68 2.228990 1_555
Nb15 O67 1.889206 1_555
Nb15 O139 1.932096 1_555
Nb15 O71 1.949014 1_555
Nb15 O141 1.965907 1_555
Nb15 O69 2.229069 1_555
Nb15 O143 2.281211 1_555
O0 Si0 1.566658 1_555
O1 Si1 1.564563 1_555
O2 S0 1.449095 1_555
O3 S1 1.455181 1_555
O4 S3 1.456462 1_555
O5 S2 1.452442 1_655
O6 Si2 1.563835 1_555
O7 Si3 1.564150 1_555
O8 Si4 1.580647 1_555
O9 S4 1.457019 1_655
O10 S5 1.455013 1_545
O11 S6 1.449371 1_555
O12 S5 1.520675 1_555
O13 S6 1.543776 1_565
O14 Si2 1.701705 1_555
O15 Si3 1.696897 1_555
O16 S4 1.500926 1_555
O17 Si4 1.707309 1_555
O18 S0 1.532462 1_555
O19 S1 1.532280 1_555
O20 S2 1.494383 1_555
O21 S3 1.496901 1_555
O22 Si0 1.711136 1_565
O23 Si1 1.697031 1_565
O24 Si5 1.578429 1_555
O25 Si6 1.562279 1_555
O26 S7 1.446625 1_555
O27 S8 1.448904 1_555
O28 Si7 1.578781 1_555
O29 Si8 1.581401 1_555
O30 Si9 1.564705 1_555
O31 Si10 1.584750 1_555
O32 Si11 1.584320 1_555
O33 Si12 1.583487 1_555
O34 S9 1.449281 1_555
O35 S10 1.452444 1_555
O36 S9 1.463189 1_555
O37 S10 1.468284 1_555
O38 Si9 1.676608 1_555
O39 Si10 1.668799 1_555
O40 Si11 1.664759 1_555
O41 Si12 1.659851 1_555
O42 S7 1.475365 1_555
O43 S8 1.475181 1_555
O44 Si7 1.680546 1_555
O45 Si8 1.679378 1_555
O46 Si5 1.705366 1_555
O47 Si6 1.686633 1_555
O48 Si13 1.661879 1_555
O49 Si14 1.660842 1_555
O50 Si15 1.637360 1_555
O51 Si16 1.644834 1_555
O52 S11 1.513157 1_555
O53 S12 1.507193 1_555
O54 Si17 1.642579 1_555
O55 Si18 1.641805 1_555
O56 S13 1.487369 1_555
O57 S14 1.493380 1_555
O58 Si19 1.628723 1_555
O59 Si20 1.629662 1_555
O60 Si19 1.706274 1_555
O61 Si20 1.703091 1_555
O62 Si17 1.722275 1_555
O63 Si18 1.708115 1_555
O64 S13 1.516388 1_555
O65 S14 1.501256 1_555
O66 Si15 1.681040 1_555
O67 Si16 1.682429 1_555
O68 S11 1.486730 1_555
O69 S12 1.484655 1_555
O70 Si13 1.697689 1_555
O71 Si14 1.667593 1_555
O72 Si19 1.565826 1_555
O73 Si20 1.563337 1_555
O74 Si17 1.569896 1_555
O75 Si18 1.574293 1_555
O76 S13 1.448183 1_555
O77 S14 1.446113 1_555
O78 Si15 1.562635 1_555
O79 Si16 1.559169 1_555
O80 S11 1.445540 1_555
O81 S12 1.443308 1_555
O82 Si13 1.563502 1_555
O83 Si14 1.574835 1_555
O84 Si5 1.642353 1_555
O85 Si6 1.687010 1_555
O86 S7 1.511756 1_555
O87 S8 1.501617 1_555
O88 Si7 1.649392 1_555
O89 Si8 1.664199 1_555
O90 Si9 1.698482 1_555
O91 Si10 1.693015 1_555
O92 Si11 1.670806 1_555
O93 Si12 1.683627 1_555
O94 S9 1.530714 1_555
O95 S10 1.514754 1_555
O96 S5 1.465357 1_545
O97 S6 1.456307 1_555
O98 Si2 1.594355 1_555
O99 Si3 1.608407 1_555
O100 Si4 1.616682 1_555
O101 S4 1.477825 1_655
O102 S0 1.455294 1_555
O103 S1 1.471949 1_555
O104 S3 1.478492 1_555
O105 S2 1.490160 1_655
O106 Si0 1.601085 1_555
O107 Si1 1.612410 1_555
O108 Si13 1.659012 1_555
O109 Si14 1.668013 1_555
O110 Si16 1.685867 1_555
O111 Si15 1.678296 1_655
O112 S11 1.487239 1_545
O113 S12 1.495631 1_545
O114 Si17 1.647655 1_545
O115 Si18 1.657841 1_545
O116 S13 1.481895 1_555
O117 S14 1.491008 1_555
O118 Si20 1.670940 1_555
O119 Si19 1.669079 1_655
O120 S9 1.503723 1_555
O121 S10 1.502167 1_555
O122 Si10 1.637656 1_455
O123 Si9 1.638506 1_555
O124 Si11 1.659234 1_565
O125 Si12 1.648692 1_565
O126 S7 1.520984 1_565
O127 S8 1.516677 1_565
O128 Si7 1.667154 1_555
O129 Si8 1.660049 1_555
O130 Si6 1.642472 1_455
O131 Si5 1.656692 1_555
O132 Si0 1.782535 1_565
O133 Si1 1.767107 1_565
O134 S0 1.540760 1_555
O135 S1 1.504427 1_555
O136 S2 1.526556 1_555
O137 S3 1.528510 1_555
O138 Si2 1.771229 1_555
O139 Si3 1.773249 1_555
O140 S4 1.525378 1_555
O141 Si4 1.690704 1_555
O142 S5 1.526529 1_555
O143 S6 1.515528 1_565
