# generated using pymatgen
data_YPd2Pb
_symmetry_space_group_name_H-M   'P 1'
_cell_length_a   4.84158808
_cell_length_b   4.84158848
_cell_length_c   4.84158757
_cell_angle_alpha   59.99999925
_cell_angle_beta   59.99999648
_cell_angle_gamma   59.99999621
_symmetry_Int_Tables_number   1
_chemical_formula_structural   YPd2Pb
_chemical_formula_sum   'Y1 Pd2 Pb1'
_cell_volume   80.25063491
_cell_formula_units_Z   1
loop_
 _symmetry_equiv_pos_site_id
 _symmetry_equiv_pos_as_xyz
  1  'x, y, z'
loop_
 _atom_site_type_symbol
 _atom_site_label
 _atom_site_symmetry_multiplicity
 _atom_site_fract_x
 _atom_site_fract_y
 _atom_site_fract_z
 _atom_site_occupancy
  Y  Y0  1  0.50000000  0.50000000  0.50000000  1
  Pd  Pd0  1  0.25000000  0.25000000  0.25000000  1
  Pd  Pd1  1  0.75000000  0.75000000  0.75000000  1
  Pb  Pb0  1  -0.00000000  -0.00000000  0.00000000  1
loop_
_geom_bond_atom_site_label_1
_geom_bond_atom_site_label_2
_geom_bond_distance
_geom_bond_site_symmetry_2
Pd0 Y0 2.964855 1_554
Pd0 Y0 2.964855 1_455
Pd0 Y0 2.964855 1_555
Pd0 Y0 2.964855 1_545
Pd1 Y0 2.964855 1_556
Pd1 Y0 2.964855 1_655
Pd1 Y0 2.964855 1_555
Pd1 Y0 2.964855 1_565
Pb0 Pd1 2.964855 1_445
Pb0 Pd0 2.964855 1_554
Pb0 Pd0 2.964855 1_455
Pb0 Pd1 2.964855 1_544
Pb0 Pd1 2.964855 1_444
Pb0 Pd0 2.964855 1_555
Pb0 Pd1 2.964855 1_454
Pb0 Pd0 2.964855 1_545
