# generated using pymatgen
data_Na4La2Ti2Si3(SO8)3
_symmetry_space_group_name_H-M   'P 1'
_cell_length_a   9.32433390
_cell_length_b   9.37746555
_cell_length_c   23.28792940
_cell_angle_alpha   90.52845126
_cell_angle_beta   89.65132935
_cell_angle_gamma   119.67045832
_symmetry_Int_Tables_number   1
_chemical_formula_structural   Na4La2Ti2Si3(SO8)3
_chemical_formula_sum   'Na12 La6 Ti6 Si9 S9 O72'
_cell_volume   1769.20542198
_cell_formula_units_Z   3
loop_
 _symmetry_equiv_pos_site_id
 _symmetry_equiv_pos_as_xyz
  1  'x, y, z'
loop_
 _atom_site_type_symbol
 _atom_site_label
 _atom_site_symmetry_multiplicity
 _atom_site_fract_x
 _atom_site_fract_y
 _atom_site_fract_z
 _atom_site_occupancy
  Na  Na0  1  0.97436188  0.63966283  0.25162979  1
  Na  Na1  1  0.98967335  0.35294264  0.74459549  1
  Na  Na2  1  0.65199119  0.97438604  0.59170734  1
  Na  Na3  1  0.66319275  0.69561652  0.07743522  1
  Na  Na4  1  0.33559946  0.30683159  0.90575315  1
  Na  Na5  1  0.31551314  0.01671713  0.41678327  1
  Na  Na6  1  0.00852478  0.98352466  0.50867719  1
  Na  Na7  1  0.98674721  0.98859382  0.00232376  1
  Na  Na8  1  0.64632942  0.30201901  0.82490460  1
  Na  Na9  1  0.65533709  0.34150157  0.34006215  1
  Na  Na10  1  0.32433463  0.66669724  0.17470655  1
  Na  Na11  1  0.30229405  0.66966320  0.66302492  1
  La  La0  1  0.98888277  0.99570913  0.35248880  1
  La  La1  1  0.98695765  0.97907797  0.84924334  1
  La  La2  1  0.65310887  0.33555106  0.68376806  1
  La  La3  1  0.65251297  0.31787605  0.18667424  1
  La  La4  1  0.32323816  0.67816316  0.01581440  1
  La  La5  1  0.31233681  0.64964072  0.51846993  1
  Ti  Ti0  1  0.02635213  0.04875236  0.64747809  1
  Ti  Ti1  1  0.98386663  0.95716627  0.15659629  1
  Ti  Ti2  1  0.68534329  0.36932288  0.98093879  1
  Ti  Ti3  1  0.68552001  0.33821283  0.49126430  1
  Ti  Ti4  1  0.31589889  0.66761442  0.31100701  1
  Ti  Ti5  1  0.38485766  0.67384970  0.80505199  1
  Si  Si0  1  0.28437392  0.97777688  0.25480123  1
  Si  Si1  1  0.67952482  0.70003550  0.25189015  1
  Si  Si2  1  0.29395837  0.30514428  0.75736198  1
  Si  Si3  1  0.71285494  0.99654773  0.74521289  1
  Si  Si4  1  0.96073418  0.32277014  0.59074964  1
  Si  Si5  1  0.36555556  0.04960348  0.58048865  1
  Si  Si6  1  0.95752813  0.63838217  0.08841009  1
  Si  Si7  1  0.62859685  0.65792136  0.92085866  1
  Si  Si8  1  0.01851201  0.64351238  0.41517307  1
  S  S0  1  0.02331316  0.31045081  0.24778421  1
  S  S1  1  0.02819550  0.70598589  0.74824645  1
  S  S2  1  0.69267852  0.64487935  0.57816577  1
  S  S3  1  0.69050257  0.04541389  0.07856966  1
  S  S4  1  0.36370075  0.31873343  0.07668057  1
  S  S5  1  0.01456806  0.36786519  0.91699113  1
  S  S6  1  0.35887609  0.98695493  0.91435321  1
  S  S7  1  0.60833714  0.96972380  0.41614290  1
  S  S8  1  0.35484377  0.37806430  0.41146270  1
  O  O0  1  0.21930754  0.00748661  0.31440248  1
  O  O1  1  0.81063122  0.78853661  0.30167435  1
  O  O2  1  0.00228870  0.22547273  0.30232844  1
  O  O3  1  0.21022951  0.21585792  0.81642685  1
  O  O4  1  0.00792778  0.77150106  0.80393855  1
  O  O5  1  0.81080867  0.01697044  0.80353522  1
  O  O6  1  0.81482581  0.97675517  0.68890995  1
  O  O7  1  0.16559723  0.20476358  0.70036362  1
  O  O8  1  0.03632545  0.80721392  0.69953832  1
  O  O9  1  0.79169501  0.82486568  0.19192390  1
  O  O10  1  0.03055990  0.21460182  0.19771696  1
  O  O11  1  0.14287353  0.95160901  0.20059132  1
  O  O12  1  0.89028262  0.34324691  0.65052360  1
  O  O13  1  0.47964644  0.12110548  0.63593498  1
  O  O14  1  0.66707593  0.56206957  0.63331263  1
  O  O15  1  0.87203925  0.54066459  0.14520515  1
  O  O16  1  0.66793953  0.10967976  0.13389882  1
  O  O17  1  0.46122349  0.34148443  0.12857659  1
  O  O18  1  0.46034070  0.31029313  0.02480903  1
  O  O19  1  0.82572706  0.52826541  0.03060174  1
  O  O20  1  0.69019896  0.14530464  0.02982944  1
  O  O21  1  0.47693007  0.17752406  0.52390826  1
  O  O22  1  0.69220630  0.53382863  0.52989035  1
  O  O23  1  0.82690873  0.30780307  0.53639696  1
  O  O24  1  0.53633197  0.65745456  0.97914263  1
  O  O25  1  0.11942090  0.45266543  0.96738494  1
  O  O26  1  0.33625985  0.89781733  0.96872033  1
  O  O27  1  0.54794162  0.88319990  0.47059157  1
  O  O28  1  0.34539835  0.45220240  0.46665117  1
  O  O29  1  0.14770642  0.69077064  0.46618412  1
  O  O30  1  0.13207824  0.62944228  0.35619697  1
  O  O31  1  0.50009991  0.86889277  0.36687684  1
  O  O32  1  0.35340441  0.47696761  0.36203915  1
  O  O33  1  0.08342077  0.46051395  0.86428254  1
  O  O34  1  0.36380636  0.89172624  0.86466687  1
  O  O35  1  0.50318748  0.63589078  0.86364754  1
  O  O36  1  0.99816657  0.80542446  0.41033477  1
  O  O37  1  0.78118131  0.00817809  0.40940074  1
  O  O38  1  0.20848278  0.20814911  0.41111993  1
  O  O39  1  0.99568692  0.20195375  0.91608320  1
  O  O40  1  0.21736879  0.01994276  0.91285813  1
  O  O41  1  0.81479099  0.80523821  0.92006846  1
  O  O42  1  0.95524034  0.14018038  0.58983962  1
  O  O43  1  0.18280368  0.03997401  0.59344177  1
  O  O44  1  0.84949168  0.80083747  0.57671340  1
  O  O45  1  0.95704813  0.81895209  0.09212357  1
  O  O46  1  0.84542048  0.03499289  0.08013735  1
  O  O47  1  0.20173582  0.16812805  0.07895736  1
  O  O48  1  0.68048979  0.14990076  0.74454837  1
  O  O49  1  0.48071848  0.34486571  0.75367224  1
  O  O50  1  0.88607744  0.53573127  0.74511395  1
  O  O51  1  0.66534855  0.52227747  0.24400731  1
  O  O52  1  0.88672132  0.34807527  0.24331563  1
  O  O53  1  0.46898197  0.11662877  0.24226361  1
  O  O54  1  0.63418768  0.47697575  0.92664578  1
  O  O55  1  0.84638957  0.35375329  0.92818201  1
  O  O56  1  0.51348440  0.15155448  0.91765439  1
  O  O57  1  0.60570348  0.12895498  0.41780213  1
  O  O58  1  0.50534294  0.36267011  0.41108673  1
  O  O59  1  0.84065288  0.47076870  0.42847805  1
  O  O60  1  0.34692161  0.46844468  0.07347127  1
  O  O61  1  0.14288239  0.67353644  0.08151200  1
  O  O62  1  0.54955949  0.87167284  0.07502100  1
  O  O63  1  0.35072404  0.87042547  0.57275330  1
  O  O64  1  0.55511876  0.67919898  0.57054845  1
  O  O65  1  0.14862636  0.46440722  0.58372254  1
  O  O66  1  0.27685188  0.79428456  0.25738559  1
  O  O67  1  0.50298307  0.69674646  0.26050463  1
  O  O68  1  0.18177661  0.47463591  0.24990369  1
  O  O69  1  0.29770335  0.48924060  0.76057066  1
  O  O70  1  0.18413382  0.69380812  0.75135205  1
  O  O71  1  0.52912778  0.81618446  0.75504248  1
loop_
_geom_bond_atom_site_label_1
_geom_bond_atom_site_label_2
_geom_bond_distance
_geom_bond_site_symmetry_2
Na0 O52 2.441709 1_555
Na0 O66 2.455170 1_655
Na0 O51 2.531386 1_555
Na0 O15 2.650299 1_555
Na0 O1 2.774233 1_555
Na0 O11 2.815968 1_655
Na0 O30 2.879106 1_655
Na1 O50 2.347350 1_555
Na1 O12 2.367296 1_555
Na1 O69 2.528094 1_655
Na1 O48 2.549941 1_555
Na1 O70 2.790340 1_655
Na1 O7 2.809334 1_655
Na1 O33 2.941993 1_655
Na2 O42 2.462082 1_565
Na2 O64 2.495189 1_555
Na2 O63 2.516402 1_555
Na2 O6 2.727162 1_555
Na2 O13 2.771087 1_565
Na3 O62 2.363421 1_555
Na3 O45 2.414335 1_555
Na3 O24 2.523037 1_554
Na3 O60 2.650185 1_555
Na3 O46 2.768276 1_565
Na3 O19 2.872642 1_555
Na3 O9 2.924868 1_555
Na4 O3 2.330494 1_555
Na4 O40 2.355870 1_555
Na4 O54 2.477534 1_555
Na4 O56 2.711518 1_555
Na4 O39 2.824827 1_455
Na4 O35 2.861556 1_555
Na4 O18 3.006867 1_556
Na5 O57 2.368690 1_555
Na5 O38 2.452662 1_555
Na5 O0 2.538136 1_555
Na5 O36 2.626749 1_445
Na5 O58 2.827598 1_555
Na5 O29 2.902138 1_545
Na5 O21 2.914142 1_555
Na5 O31 2.922793 1_545
Na6 O44 2.269498 1_455
Na6 O43 2.446575 1_565
Na6 O42 2.576306 1_465
Na6 O36 2.795724 1_455
Na7 O46 2.394508 1_565
Na7 O41 2.538467 1_554
Na7 O45 2.568828 1_555
Na7 O47 2.585486 1_665
Na7 O39 2.819671 1_564
Na7 O40 2.895233 1_664
Na8 O49 2.440402 1_555
Na8 O48 2.455917 1_555
Na8 O56 2.546355 1_555
Na8 O54 2.902973 1_555
Na8 O50 2.903015 1_555
Na8 O55 2.938859 1_555
Na9 O58 2.229774 1_555
Na9 O57 2.570510 1_555
Na9 O59 2.572615 1_555
Na9 O51 2.792315 1_555
Na10 O68 2.395210 1_555
Na10 O66 2.409632 1_555
Na10 O67 2.532168 1_555
Na10 O61 2.780582 1_555
Na11 O70 2.388936 1_555
Na11 O65 2.530751 1_555
Na11 O63 2.717986 1_555
Na11 O69 2.832443 1_555
Na11 O71 2.842035 1_555
La0 O1 2.172990 1_555
La0 O0 2.271314 1_665
La0 O36 2.281432 1_555
La0 O37 2.389784 1_565
La0 O2 2.408416 1_665
La0 O38 2.443587 1_665
La1 O5 2.136138 1_565
La1 O4 2.297136 1_655
La1 O3 2.298664 1_665
La1 O41 2.319808 1_555
La1 O40 2.484049 1_665
La1 O39 2.563351 1_565
La2 O13 2.159015 1_555
La2 O12 2.305959 1_555
La2 O49 2.312167 1_555
La2 O48 2.364192 1_555
La2 O14 2.383272 1_555
La2 O50 2.496955 1_555
La3 O53 2.233094 1_555
La3 O51 2.280048 1_555
La3 O15 2.294927 1_555
La3 O17 2.342387 1_555
La3 O16 2.361039 1_555
La3 O52 2.450542 1_555
La4 O61 2.251320 1_555
La4 O24 2.252407 1_554
La4 O26 2.291891 1_554
La4 O25 2.314895 1_554
La4 O62 2.417723 1_555
La4 O60 2.490289 1_555
La5 O29 2.146016 1_555
La5 O65 2.247658 1_555
La5 O63 2.288297 1_555
La5 O28 2.344900 1_555
La5 O64 2.465444 1_555
La5 O27 2.473466 1_555
O0 Si0 1.588137 1_545
O1 Si1 1.588215 1_555
O2 S0 1.465569 1_555
O3 Si2 1.601115 1_555
O4 S1 1.480714 1_555
O5 Si3 1.597730 1_545
O6 Si3 1.677120 1_555
O6 Ti0 1.986815 1_665
O7 Si2 1.720875 1_555
O7 Ti0 1.857042 1_555
O8 S1 1.463244 1_555
O8 Ti0 2.620948 1_565
O9 Si1 1.792947 1_555
O9 Ti1 1.796342 1_555
O10 S0 1.487196 1_555
O10 Ti1 2.419978 1_445
O11 Si0 1.757496 1_555
O11 Ti1 1.829370 1_455
O12 Si4 1.585852 1_555
O13 Si5 1.594722 1_555
O14 S2 1.463031 1_555
O15 Si6 1.584564 1_555
O16 S3 1.474987 1_555
O17 S4 1.466135 1_555
O18 S4 1.527438 1_555
O18 Ti2 2.141581 1_554
O19 Si6 1.768361 1_555
O19 Ti2 1.824185 1_554
O20 S3 1.479220 1_555
O20 Ti2 2.418744 1_554
O21 Si5 1.741494 1_555
O21 Ti3 1.932100 1_555
O22 S2 1.523912 1_555
O22 Ti3 2.008730 1_555
O23 Si4 1.738245 1_555
O23 Ti3 1.821722 1_555
O24 Si7 1.601442 1_555
O25 S5 1.480719 1_555
O26 S6 1.479167 1_555
O27 S7 1.463285 1_555
O28 S8 1.478398 1_555
O29 Si8 1.593098 1_555
O30 Si8 1.772663 1_555
O30 Ti4 1.884417 1_555
O31 S7 1.509386 1_555
O31 Ti4 2.231101 1_555
O32 S8 1.489062 1_555
O32 Ti4 2.322513 1_555
O33 S5 1.459986 1_555
O34 S6 1.469478 1_555
O34 Ti5 2.545920 1_555
O35 Si7 1.720435 1_555
O35 Ti5 1.903218 1_555
O36 Si8 1.625600 1_655
O37 S7 1.474693 1_545
O38 S8 1.499483 1_555
O39 S5 1.476586 1_655
O40 S6 1.497576 1_545
O41 Si7 1.596417 1_555
O42 Si4 1.687397 1_555
O42 Ti0 1.889796 1_655
O43 Si5 1.686655 1_555
O43 Ti0 1.952712 1_555
O44 S2 1.470108 1_555
O44 Ti0 2.647053 1_665
O45 Si6 1.696915 1_555
O45 Ti1 1.909061 1_555
O46 S3 1.495975 1_555
O46 Ti1 2.520756 1_545
O47 S4 1.472060 1_555
O47 Ti1 2.711478 1_445
O48 Si3 1.609179 1_545
O49 Si2 1.592244 1_555
O50 S1 1.488223 1_655
O51 Si1 1.614405 1_555
O52 S0 1.484793 1_655
O53 Si0 1.589222 1_545
O54 Si7 1.729718 1_555
O54 Ti2 1.831087 1_555
O55 S5 1.527988 1_655
O55 Ti2 1.994244 1_555
O56 S6 1.504273 1_545
O56 Ti2 2.375621 1_555
O57 S7 1.505631 1_545
O57 Ti3 2.416410 1_555
O58 S8 1.480055 1_555
O58 Ti3 2.605565 1_555
O59 Si8 1.677429 1_655
O59 Ti3 2.000778 1_555
O60 S4 1.490157 1_555
O61 Si6 1.598453 1_455
O62 S3 1.505806 1_565
O63 Si5 1.624635 1_565
O64 S2 1.480791 1_555
O65 Si4 1.599082 1_455
O66 Si0 1.688699 1_555
O66 Ti4 1.887836 1_555
O67 Si1 1.642189 1_555
O67 Ti4 2.002510 1_555
O68 S0 1.517694 1_555
O68 Ti4 2.144124 1_555
O69 Si2 1.710287 1_555
O69 Ti5 1.820645 1_555
O70 S1 1.516004 1_555
O70 Ti5 2.341255 1_555
O71 Si3 1.726750 1_555
O71 Ti5 1.783112 1_555
