# generated using pymatgen
data_MgFe4(AsS)4
_symmetry_space_group_name_H-M   'P 1'
_cell_length_a   5.71199886
_cell_length_b   6.09190503
_cell_length_c   6.02313405
_cell_angle_alpha   109.38517409
_cell_angle_beta   91.18716590
_cell_angle_gamma   88.94346373
_symmetry_Int_Tables_number   1
_chemical_formula_structural   MgFe4(AsS)4
_chemical_formula_sum   'Mg1 Fe4 As4 S4'
_cell_volume   197.64766017
_cell_formula_units_Z   1
loop_
 _symmetry_equiv_pos_site_id
 _symmetry_equiv_pos_as_xyz
  1  'x, y, z'
loop_
 _atom_site_type_symbol
 _atom_site_label
 _atom_site_symmetry_multiplicity
 _atom_site_fract_x
 _atom_site_fract_y
 _atom_site_fract_z
 _atom_site_occupancy
  Mg  Mg0  1  0.48448900  0.50015400  0.49454600  1
  Fe  Fe0  1  0.48992100  0.73547400  0.22497000  1
  Fe  Fe1  1  0.99212400  0.26952200  0.26955900  1
  Fe  Fe2  1  0.49647300  0.26775500  0.76970400  1
  Fe  Fe3  1  0.99379300  0.73406500  0.72665100  1
  As  As0  1  0.65457000  0.90005600  0.62793600  1
  As  As1  1  0.13358000  0.14116600  0.86831800  1
  As  As2  1  0.32795400  0.09941400  0.37049100  1
  As  As3  1  0.85068200  0.86361000  0.12626800  1
  S  S0  1  0.64783900  0.34732800  0.12613400  1
  S  S1  1  0.11607000  0.64392000  0.33545100  1
  S  S2  1  0.33920900  0.65839000  0.86959500  1
  S  S3  1  0.86615400  0.35998000  0.65912500  1
loop_
_geom_bond_atom_site_label_1
_geom_bond_atom_site_label_2
_geom_bond_distance
_geom_bond_site_symmetry_2
Mg0 S2 2.307258 1_555
Mg0 S0 2.311633 1_555
Mg0 S1 2.553314 1_555
Mg0 S3 2.620736 1_555
Fe0 S2 2.194204 1_554
Fe0 S1 2.379738 1_555
Fe0 S0 2.401728 1_555
Fe0 Mg0 2.498258 1_555
Fe1 S0 2.237257 1_555
Fe1 S1 2.303864 1_655
Fe1 S3 2.350325 1_555
Fe2 S0 2.199793 1_556
Fe2 S3 2.359789 1_555
Fe2 S2 2.413514 1_555
Fe2 Mg0 2.510984 1_555
Fe3 S2 2.237440 1_655
Fe3 S3 2.307381 1_555
Fe3 S1 2.352955 1_655
As0 Fe2 2.291246 1_565
As0 Fe3 2.325860 1_555
As0 Fe0 2.470912 1_555
As0 Mg0 2.505961 1_555
As1 Fe2 2.378700 1_555
As1 Fe1 2.430639 1_456
As1 Fe3 2.481160 1_445
As1 S3 2.580300 1_455
As2 Fe0 2.282014 1_545
As2 Fe1 2.328036 1_455
As2 Fe2 2.462417 1_555
As2 Mg0 2.481829 1_555
As3 Fe0 2.372179 1_555
As3 Fe3 2.425118 1_554
As3 Fe1 2.477960 1_565
As3 S1 2.577192 1_655
