# generated using pymatgen
data_RbTiI3
_symmetry_space_group_name_H-M   'P 1'
_cell_length_a   14.13681755
_cell_length_b   14.13681755
_cell_length_c   7.00956200
_cell_angle_alpha   90.00000000
_cell_angle_beta   90.00000000
_cell_angle_gamma   119.99999791
_symmetry_Int_Tables_number   1
_chemical_formula_structural   RbTiI3
_chemical_formula_sum   'Rb6 Ti6 I18'
_cell_volume   1213.17884471
_cell_formula_units_Z   6
loop_
 _symmetry_equiv_pos_site_id
 _symmetry_equiv_pos_as_xyz
  1  'x, y, z'
loop_
 _atom_site_type_symbol
 _atom_site_label
 _atom_site_symmetry_multiplicity
 _atom_site_fract_x
 _atom_site_fract_y
 _atom_site_fract_z
 _atom_site_occupancy
  Rb  Rb0  1  0.67011800  0.67011800  0.78616300  1
  Rb  Rb1  1  0.00000000  0.67011800  0.28616300  1
  Rb  Rb2  1  0.67011800  0.00000000  0.28616300  1
  Rb  Rb3  1  0.32988200  0.00000000  0.78616300  1
  Rb  Rb4  1  0.00000000  0.32988200  0.78616300  1
  Rb  Rb5  1  0.32988200  0.32988200  0.28616300  1
  Ti  Ti0  1  0.66666700  0.33333300  0.08657200  1
  Ti  Ti1  1  0.33333300  0.66666700  0.58657200  1
  Ti  Ti2  1  0.66666700  0.33333300  0.58657200  1
  Ti  Ti3  1  0.33333300  0.66666700  0.08657200  1
  Ti  Ti4  1  0.00000000  0.00000000  0.49427100  1
  Ti  Ti5  1  0.00000000  0.00000000  0.99427100  1
  I  I0  1  0.16283400  0.00000000  0.24311500  1
  I  I1  1  0.16283400  0.16283400  0.74311500  1
  I  I2  1  0.00000000  0.83716600  0.74311500  1
  I  I3  1  0.00000000  0.16283400  0.24311500  1
  I  I4  1  0.83716600  0.83716600  0.24311500  1
  I  I5  1  0.83716600  0.00000000  0.74311500  1
  I  I6  1  0.50409900  0.17119600  0.33712600  1
  I  I7  1  0.33290300  0.50409900  0.83712600  1
  I  I8  1  0.17119600  0.66709700  0.83712600  1
  I  I9  1  0.82880400  0.33290300  0.33712600  1
  I  I10  1  0.66709700  0.49590100  0.33712600  1
  I  I11  1  0.49590100  0.82880400  0.83712600  1
  I  I12  1  0.66709700  0.17119600  0.83712600  1
  I  I13  1  0.50409900  0.33290300  0.83712600  1
  I  I14  1  0.82880400  0.49590100  0.83712600  1
  I  I15  1  0.17119600  0.50409900  0.33712600  1
  I  I16  1  0.33290300  0.82880400  0.33712600  1
  I  I17  1  0.49590100  0.66709700  0.33712600  1
loop_
_geom_bond_atom_site_label_1
_geom_bond_atom_site_label_2
_geom_bond_distance
_geom_bond_site_symmetry_2
I0 Ti5 2.888171 1_554
I0 Ti4 2.897988 1_555
I0 Rb3 3.979476 1_554
I0 Rb1 4.050060 1_545
I0 Rb5 4.050060 1_555
I1 Ti4 2.888171 1_555
I1 Ti5 2.897988 1_555
I1 Rb5 3.979477 1_555
I1 Rb4 4.050060 1_555
I1 Rb3 4.050060 1_555
I2 Ti4 2.888171 1_565
I2 Ti5 2.897988 1_565
I2 Rb1 3.979476 1_555
I2 Rb3 4.050060 1_565
I2 Rb0 4.050060 1_455
I3 Ti5 2.888171 1_554
I3 Ti4 2.897988 1_555
I3 Rb4 3.979476 1_554
I3 Rb2 4.050060 1_455
I3 Rb5 4.050060 1_555
I4 Ti5 2.888171 1_664
I4 Ti4 2.897988 1_665
I4 Rb0 3.979477 1_554
I4 Rb1 4.050060 1_655
I4 Rb2 4.050060 1_565
I5 Ti4 2.888171 1_655
I5 Ti5 2.897988 1_655
I5 Rb2 3.979476 1_555
I5 Rb4 4.050060 1_655
I5 Rb0 4.050060 1_545
I6 Ti2 2.885309 1_555
I6 Ti0 2.890022 1_555
I6 Rb3 3.983651 1_555
I6 Rb5 4.092777 1_555
I6 Rb2 4.144058 1_555
I7 Ti3 2.885315 1_556
I7 Ti1 2.890028 1_555
I7 Rb5 3.983651 1_556
I7 Rb4 4.092777 1_555
I7 Rb0 4.144058 1_555
I8 Ti3 2.885303 1_556
I8 Ti1 2.890017 1_555
I8 Rb1 3.983651 1_556
I8 Rb3 4.092777 1_565
I8 Rb4 4.144058 1_555
I9 Ti2 2.885303 1_555
I9 Ti0 2.890017 1_555
I9 Rb4 3.983651 1_655
I9 Rb2 4.092777 1_555
I9 Rb1 4.144058 1_655
I10 Ti2 2.885315 1_555
I10 Ti0 2.890028 1_555
I10 Rb0 3.983651 1_555
I10 Rb1 4.092777 1_655
I10 Rb5 4.144058 1_555
I11 Ti3 2.885309 1_556
I11 Ti1 2.890022 1_555
I11 Rb2 3.983651 1_566
I11 Rb0 4.092777 1_555
I11 Rb3 4.144058 1_565
I12 Ti0 2.885303 1_556
I12 Ti2 2.890017 1_555
I12 Rb2 3.983651 1_556
I12 Rb4 4.092777 1_655
I12 Rb3 4.144058 1_555
I13 Ti0 2.885315 1_556
I13 Ti2 2.890028 1_555
I13 Rb5 3.983651 1_556
I13 Rb3 4.092777 1_555
I13 Rb0 4.144058 1_555
I14 Ti0 2.885309 1_556
I14 Ti2 2.890022 1_555
I14 Rb1 3.983651 1_656
I14 Rb0 4.092777 1_555
I14 Rb4 4.144058 1_655
I15 Ti1 2.885309 1_555
I15 Ti3 2.890022 1_555
I15 Rb4 3.983651 1_555
I15 Rb5 4.092777 1_555
I15 Rb1 4.144058 1_555
I16 Ti1 2.885303 1_555
I16 Ti3 2.890017 1_555
I16 Rb3 3.983651 1_565
I16 Rb1 4.092777 1_555
I16 Rb2 4.144058 1_565
I17 Ti1 2.885315 1_555
I17 Ti3 2.890028 1_555
I17 Rb0 3.983651 1_555
I17 Rb2 4.092777 1_565
I17 Rb5 4.144058 1_555
