# generated using pymatgen
data_Na3Sm7Cl24
_symmetry_space_group_name_H-M   'P 1'
_cell_length_a   7.53736841
_cell_length_b   7.53866488
_cell_length_c   16.59166229
_cell_angle_alpha   89.99845328
_cell_angle_beta   90.00201165
_cell_angle_gamma   119.99284012
_symmetry_Int_Tables_number   1
_chemical_formula_structural   Na3Sm7Cl24
_chemical_formula_sum   'Na3 Sm7 Cl24'
_cell_volume   816.51852141
_cell_formula_units_Z   1
loop_
 _symmetry_equiv_pos_site_id
 _symmetry_equiv_pos_as_xyz
  1  'x, y, z'
loop_
 _atom_site_type_symbol
 _atom_site_label
 _atom_site_symmetry_multiplicity
 _atom_site_fract_x
 _atom_site_fract_y
 _atom_site_fract_z
 _atom_site_occupancy
  Na  Na0  1  -0.00019956  -0.00010087  0.50089960  1
  Na  Na1  1  0.66575410  0.33294467  0.32458130  1
  Na  Na2  1  0.66566017  0.33246629  0.67506516  1
  Sm  Sm0  1  -0.00005275  -0.00006176  0.74868965  1
  Sm  Sm1  1  0.00058956  0.00056109  -0.00006421  1
  Sm  Sm2  1  -0.00005155  -0.00000790  0.25138346  1
  Sm  Sm3  1  0.33360979  0.66689596  0.87652092  1
  Sm  Sm4  1  0.33360491  0.66691129  0.12339653  1
  Sm  Sm5  1  0.33317066  0.66647380  0.37990604  1
  Sm  Sm6  1  0.33318629  0.66640951  0.62011354  1
  Cl  Cl0  1  0.97254321  0.24528694  0.87587449  1
  Cl  Cl1  1  0.97268830  0.24534421  0.12397994  1
  Cl  Cl2  1  0.97379106  0.25207455  0.36850524  1
  Cl  Cl3  1  0.97379403  0.25200284  0.63154580  1
  Cl  Cl4  1  0.75517275  0.72748647  0.87589146  1
  Cl  Cl5  1  0.75512794  0.72760986  0.12397212  1
  Cl  Cl6  1  0.74788296  0.72182154  0.36854059  1
  Cl  Cl7  1  0.74784742  0.72166267  0.63153656  1
  Cl  Cl8  1  0.05660874  0.63433865  0.75296383  1
  Cl  Cl9  1  0.05880512  0.63602698  -0.00009991  1
  Cl  Cl10  1  0.05663497  0.63445084  0.24697845  1
  Cl  Cl11  1  0.05657506  0.62523760  0.50006592  1
  Cl  Cl12  1  0.27309651  0.02792592  0.87581574  1
  Cl  Cl13  1  0.27295481  0.02777775  0.12405219  1
  Cl  Cl14  1  0.27778550  0.02579049  0.36860234  1
  Cl  Cl15  1  0.27760099  0.02564215  0.63141462  1
  Cl  Cl16  1  0.57783502  0.94350584  0.75288607  1
  Cl  Cl17  1  0.57753597  0.94181563  -0.00009150  1
  Cl  Cl18  1  0.57782870  0.94343424  0.24706712  1
  Cl  Cl19  1  0.56863281  0.94312434  0.50008026  1
  Cl  Cl20  1  0.36575034  0.42217955  0.75291150  1
  Cl  Cl21  1  0.36476785  0.42302754  -0.00008765  1
  Cl  Cl22  1  0.36564548  0.42221589  0.24704147  1
  Cl  Cl23  1  0.37449084  0.43105945  0.50006139  1
loop_
_geom_bond_atom_site_label_1
_geom_bond_atom_site_label_2
_geom_bond_distance
_geom_bond_site_symmetry_2
Cl0 Sm1 2.841653 1_656
Cl0 Sm0 2.880776 1_655
Cl0 Sm3 2.976681 1_655
Cl1 Sm1 2.841390 1_655
Cl1 Sm2 2.882943 1_655
Cl1 Sm4 2.976054 1_655
Cl2 Na1 2.776422 1_555
Cl2 Sm2 2.793077 1_655
Cl2 Sm5 2.944876 1_655
Cl2 Na0 2.974908 1_655
Cl3 Na2 2.773455 1_555
Cl3 Sm0 2.793141 1_655
Cl3 Sm6 2.944982 1_655
Cl3 Na0 2.953267 1_655
Cl4 Sm1 2.843976 1_666
Cl4 Sm0 2.878904 1_665
Cl4 Sm3 2.975573 1_555
Cl5 Sm1 2.843620 1_665
Cl5 Sm2 2.881333 1_665
Cl5 Sm4 2.974961 1_555
Cl6 Na1 2.774027 1_555
Cl6 Sm2 2.793281 1_665
Cl6 Sm5 2.945606 1_555
Cl6 Na0 2.973720 1_665
Cl7 Na2 2.774270 1_555
Cl7 Sm0 2.793624 1_665
Cl7 Sm6 2.945550 1_555
Cl7 Na0 2.953240 1_665
Cl8 Sm3 2.847694 1_555
Cl8 Sm6 2.959596 1_555
Cl8 Na2 2.971190 1_455
Cl8 Sm0 2.993411 1_565
Cl9 Sm3 2.837833 1_554
Cl9 Sm4 2.839083 1_555
Cl9 Sm1 2.991685 1_565
Cl10 Sm4 2.848130 1_555
Cl10 Sm5 2.960340 1_555
Cl10 Na1 2.968039 1_455
Cl10 Sm2 2.993145 1_565
Cl11 Sm6 2.786255 1_555
Cl11 Sm5 2.787471 1_555
Cl11 Na0 3.060920 1_565
Cl12 Sm1 2.842360 1_556
Cl12 Sm0 2.880550 1_555
Cl12 Sm3 2.976047 1_545
Cl13 Sm1 2.841809 1_555
Cl13 Sm2 2.882844 1_555
Cl13 Sm4 2.975453 1_545
Cl14 Na1 2.770696 1_555
Cl14 Sm2 2.792550 1_555
Cl14 Sm5 2.945741 1_545
Cl14 Na0 2.972854 1_555
Cl15 Na2 2.768731 1_555
Cl15 Sm0 2.792524 1_555
Cl15 Sm6 2.946029 1_545
Cl15 Na0 2.950369 1_555
Cl16 Sm3 2.847294 1_555
Cl16 Na2 2.960171 1_565
Cl16 Sm6 2.960683 1_555
Cl16 Sm0 2.992537 1_665
Cl17 Sm3 2.838494 1_554
Cl17 Sm4 2.839672 1_555
Cl17 Sm1 2.992014 1_665
Cl18 Sm4 2.847438 1_555
Cl18 Sm5 2.961131 1_555
Cl18 Na1 2.961444 1_565
Cl18 Sm2 2.992268 1_665
Cl19 Sm6 2.786773 1_555
Cl19 Sm5 2.788258 1_555
Cl19 Na0 3.058490 1_665
Cl20 Sm3 2.848736 1_555
Cl20 Sm6 2.959122 1_555
Cl20 Na2 2.960472 1_555
Cl20 Sm0 2.994119 1_555
Cl21 Sm3 2.838620 1_554
Cl21 Sm4 2.839908 1_555
Cl21 Sm1 2.989580 1_555
Cl22 Sm4 2.848660 1_555
Cl22 Na1 2.957455 1_555
Cl22 Sm5 2.959906 1_555
Cl22 Sm2 2.993776 1_555
Cl23 Sm6 2.786540 1_555
Cl23 Sm5 2.788066 1_555
Cl23 Na0 3.059977 1_555
