# generated using pymatgen
data_Ba3MgNb2ZnO9
_symmetry_space_group_name_H-M   'P 1'
_cell_length_a   5.72064374
_cell_length_b   6.20586279
_cell_length_c   7.88586247
_cell_angle_alpha   103.74383510
_cell_angle_beta   89.99999843
_cell_angle_gamma   117.44561717
_symmetry_Int_Tables_number   1
_chemical_formula_structural   Ba3MgNb2ZnO9
_chemical_formula_sum   'Ba3 Mg1 Nb2 Zn1 O9'
_cell_volume   239.38155937
_cell_formula_units_Z   1
loop_
 _symmetry_equiv_pos_site_id
 _symmetry_equiv_pos_as_xyz
  1  'x, y, z'
loop_
 _atom_site_type_symbol
 _atom_site_label
 _atom_site_symmetry_multiplicity
 _atom_site_fract_x
 _atom_site_fract_y
 _atom_site_fract_z
 _atom_site_occupancy
  Ba  Ba0  1  0.71292559  0.42585018  0.30007633  1
  Ba  Ba1  1  0.28707441  0.57414982  0.69992367  1
  Ba  Ba2  1  0.00000000  0.00000000  0.00000000  1
  Mg  Mg0  1  0.50000000  0.00000000  0.50000000  1
  Nb  Nb0  1  0.36532364  0.73064827  0.15242731  1
  Nb  Nb1  1  0.63467636  0.26935173  0.84757269  1
  Zn  Zn0  1  0.00000000  0.00000000  0.50000000  1
  O  O0  1  0.75463644  0.01292945  0.68860790  1
  O  O1  1  0.71004022  0.42008044  0.64339963  1
  O  O2  1  0.25829301  0.01292945  0.68860790  1
  O  O3  1  0.74170699  0.98707055  0.31139210  1
  O  O4  1  0.28995978  0.57991956  0.35660037  1
  O  O5  1  0.24536356  0.98707055  0.31139210  1
  O  O6  1  0.50000000  0.00000000  0.00000000  1
  O  O7  1  0.00000000  0.50000000  0.00000000  1
  O  O8  1  0.50000000  0.50000000  0.00000000  1
loop_
_geom_bond_atom_site_label_1
_geom_bond_atom_site_label_2
_geom_bond_distance
_geom_bond_site_symmetry_2
Ba0 O1 2.716080 1_555
Ba0 O3 2.824637 1_545
Ba0 O5 2.824640 1_545
Ba0 O6 2.851078 1_555
Ba0 O7 2.886034 1_655
Ba0 O8 2.886037 1_555
Ba0 O4 2.982882 1_655
Ba0 O4 2.982888 1_555
Ba1 O4 2.716080 1_555
Ba1 O2 2.824637 1_565
Ba1 O0 2.824640 1_565
Ba1 O6 2.851078 1_566
Ba1 O7 2.886034 1_556
Ba1 O8 2.886037 1_556
Ba1 O1 2.982882 1_455
Ba1 O1 2.982888 1_555
Ba2 O6 2.860322 1_455
Ba2 O6 2.860322 1_555
Ba2 O2 2.864267 1_554
Ba2 O3 2.864267 1_445
Ba2 O0 2.864267 1_454
Ba2 O5 2.864267 1_545
Ba2 O8 3.102931 1_555
Ba2 O8 3.102931 1_445
Ba2 O7 3.102931 1_545
Ba2 O7 3.102931 1_555
Mg0 O3 2.043547 1_545
Mg0 O2 2.043547 1_555
Mg0 O5 2.043547 1_545
Mg0 O0 2.043547 1_555
Mg0 O4 2.287022 1_545
Mg0 O1 2.287022 1_555
Nb0 O4 1.999272 1_555
Nb0 O7 2.070327 1_555
Nb0 O8 2.070331 1_555
Nb0 O6 2.144789 1_565
Nb0 O5 2.152551 1_555
Nb0 O3 2.152555 1_555
Nb1 O1 1.999272 1_555
Nb1 O7 2.070327 1_656
Nb1 O8 2.070331 1_556
Nb1 O6 2.144789 1_556
Nb1 O0 2.152551 1_555
Nb1 O2 2.152555 1_555
O0 Zn0 2.058135 1_655
O2 Zn0 2.058135 1_555
O3 Zn0 2.058135 1_665
O5 Zn0 2.058135 1_565
