# generated using pymatgen
data_Na3Mg4Ta2P3(SO6)6
_symmetry_space_group_name_H-M   'P 1'
_cell_length_a   8.68143619
_cell_length_b   8.68143591
_cell_length_c   22.73213702
_cell_angle_alpha   90.00000000
_cell_angle_beta   90.00000000
_cell_angle_gamma   120.00000103
_symmetry_Int_Tables_number   1
_chemical_formula_structural   Na3Mg4Ta2P3(SO6)6
_chemical_formula_sum   'Na6 Mg8 Ta4 P6 S12 O72'
_cell_volume   1483.72711394
_cell_formula_units_Z   2
loop_
 _symmetry_equiv_pos_site_id
 _symmetry_equiv_pos_as_xyz
  1  'x, y, z'
loop_
 _atom_site_type_symbol
 _atom_site_label
 _atom_site_symmetry_multiplicity
 _atom_site_fract_x
 _atom_site_fract_y
 _atom_site_fract_z
 _atom_site_occupancy
  Na  Na0  1  -0.00000000  -0.00000000  0.49561452  1
  Na  Na1  1  -0.00000000  -0.00000000  0.99561452  1
  Na  Na2  1  0.66666700  0.33333300  0.82907166  1
  Na  Na3  1  0.66666700  0.33333300  0.32907166  1
  Na  Na4  1  0.33333300  0.66666700  0.16189174  1
  Na  Na5  1  0.33333300  0.66666700  0.66189174  1
  Mg  Mg0  1  -0.00000000  -0.00000000  0.35379168  1
  Mg  Mg1  1  -0.00000000  -0.00000000  0.85379168  1
  Mg  Mg2  1  -0.00000000  -0.00000000  0.64746978  1
  Mg  Mg3  1  -0.00000000  -0.00000000  0.14746978  1
  Mg  Mg4  1  0.66666700  0.33333300  0.68480525  1
  Mg  Mg5  1  0.66666700  0.33333300  0.18480525  1
  Mg  Mg6  1  0.33333300  0.66666700  0.01764529  1
  Mg  Mg7  1  0.33333300  0.66666700  0.51764529  1
  Ta  Ta0  1  0.66666700  0.33333300  0.97724724  1
  Ta  Ta1  1  0.66666700  0.33333300  0.47724724  1
  Ta  Ta2  1  0.33333300  0.66666700  0.31685332  1
  Ta  Ta3  1  0.33333300  0.66666700  0.81685332  1
  P  P0  1  0.62672777  0.67379559  0.91958354  1
  P  P1  1  0.04706682  0.37327223  0.91958354  1
  P  P2  1  0.32620441  0.95293318  0.91958354  1
  P  P3  1  0.62672777  0.95293318  0.41958354  1
  P  P4  1  0.32620441  0.37327223  0.41958354  1
  P  P5  1  0.04706682  0.67379559  0.41958354  1
  S  S0  1  0.29170475  0.00222240  0.25008847  1
  S  S1  1  0.71051765  0.70829525  0.25008847  1
  S  S2  1  0.99777760  0.28948235  0.25008847  1
  S  S3  1  0.29170475  0.28948235  0.75008847  1
  S  S4  1  0.99777760  0.70829525  0.75008847  1
  S  S5  1  0.71051765  0.00222240  0.75008847  1
  S  S6  1  0.95855540  0.33411282  0.58464970  1
  S  S7  1  0.37555842  0.04144460  0.58464970  1
  S  S8  1  0.66588718  0.62444158  0.58464970  1
  S  S9  1  0.95855540  0.62444158  0.08464970  1
  S  S10  1  0.66588718  0.04144460  0.08464970  1
  S  S11  1  0.37555842  0.33411282  0.08464970  1
  O  O0  1  0.21036064  0.02387734  0.30299159  1
  O  O1  1  0.81351671  0.78963936  0.30299159  1
  O  O2  1  0.97612266  0.18648329  0.30299159  1
  O  O3  1  0.21036064  0.18648329  0.80299159  1
  O  O4  1  0.97612266  0.78963936  0.80299159  1
  O  O5  1  0.81351671  0.02387734  0.80299159  1
  O  O6  1  0.78276205  0.96733738  0.69666563  1
  O  O7  1  0.18457533  0.21723795  0.69666563  1
  O  O8  1  0.03266262  0.81542467  0.69666563  1
  O  O9  1  0.78276205  0.81542467  0.19666563  1
  O  O10  1  0.03266262  0.21723795  0.19666563  1
  O  O11  1  0.18457533  0.96733738  0.19666563  1
  O  O12  1  0.87308715  0.35744170  0.63647848  1
  O  O13  1  0.48435556  0.12691285  0.63647848  1
  O  O14  1  0.64255830  0.51564444  0.63647848  1
  O  O15  1  0.87308715  0.51564444  0.13647848  1
  O  O16  1  0.64255830  0.12691285  0.13647848  1
  O  O17  1  0.48435556  0.35744170  0.13647848  1
  O  O18  1  0.46931368  0.31246965  0.03007367  1
  O  O19  1  0.84315698  0.53068632  0.03007367  1
  O  O20  1  0.68753035  0.15684302  0.03007367  1
  O  O21  1  0.46931368  0.15684302  0.53007367  1
  O  O22  1  0.68753035  0.53068632  0.53007367  1
  O  O23  1  0.84315698  0.31246965  0.53007367  1
  O  O24  1  0.54036539  0.69438566  0.97337504  1
  O  O25  1  0.15401926  0.45963461  0.97337504  1
  O  O26  1  0.30561434  0.84598074  0.97337504  1
  O  O27  1  0.54036539  0.84598074  0.47337504  1
  O  O28  1  0.30561434  0.45963461  0.47337504  1
  O  O29  1  0.15401926  0.69438566  0.47337504  1
  O  O30  1  0.13224312  0.63477458  0.36264075  1
  O  O31  1  0.50253046  0.86775688  0.36264075  1
  O  O32  1  0.36522542  0.49746954  0.36264075  1
  O  O33  1  0.13224312  0.49746954  0.86264075  1
  O  O34  1  0.36522542  0.86775688  0.86264075  1
  O  O35  1  0.50253046  0.63477458  0.86264075  1
  O  O36  1  0.01532928  0.82500264  0.40771935  1
  O  O37  1  0.80967336  0.98467072  0.40771935  1
  O  O38  1  0.17499736  0.19032664  0.40771935  1
  O  O39  1  0.01532928  0.19032664  0.90771935  1
  O  O40  1  0.17499736  0.98467072  0.90771935  1
  O  O41  1  0.80967336  0.82500264  0.90771935  1
  O  O42  1  0.96868756  0.16992022  0.58693305  1
  O  O43  1  0.20123266  0.03131244  0.58693305  1
  O  O44  1  0.83007978  0.79876734  0.58693305  1
  O  O45  1  0.96868756  0.79876734  0.08693305  1
  O  O46  1  0.83007978  0.03131244  0.08693305  1
  O  O47  1  0.20123266  0.16992022  0.08693305  1
  O  O48  1  0.68171960  0.15523480  0.74391899  1
  O  O49  1  0.47351619  0.31828040  0.74391899  1
  O  O50  1  0.84476520  0.52648381  0.74391899  1
  O  O51  1  0.68171960  0.52648381  0.24391899  1
  O  O52  1  0.84476520  0.31828040  0.24391899  1
  O  O53  1  0.47351619  0.15523480  0.24391899  1
  O  O54  1  0.63593647  0.49481824  0.92503440  1
  O  O55  1  0.85888278  0.36406353  0.92503440  1
  O  O56  1  0.50518176  0.14111722  0.92503440  1
  O  O57  1  0.63593647  0.14111722  0.42503440  1
  O  O58  1  0.50518176  0.36406353  0.42503440  1
  O  O59  1  0.85888278  0.49481824  0.42503440  1
  O  O60  1  0.35938604  0.49312335  0.07724291  1
  O  O61  1  0.13373631  0.64061396  0.07724291  1
  O  O62  1  0.50687665  0.86626369  0.07724291  1
  O  O63  1  0.35938604  0.86626369  0.57724291  1
  O  O64  1  0.50687665  0.64061396  0.57724291  1
  O  O65  1  0.13373631  0.49312335  0.57724291  1
  O  O66  1  0.31088861  0.83491497  0.25780758  1
  O  O67  1  0.52402536  0.68911139  0.25780758  1
  O  O68  1  0.16508503  0.47597464  0.25780758  1
  O  O69  1  0.31088861  0.47597464  0.75780758  1
  O  O70  1  0.16508503  0.68911139  0.75780758  1
  O  O71  1  0.52402536  0.83491497  0.75780758  1
loop_
_geom_bond_atom_site_label_1
_geom_bond_atom_site_label_2
_geom_bond_distance
_geom_bond_site_symmetry_2
Na0 O38 2.553454 1_555
Na0 O36 2.553454 1_545
Na0 O37 2.553454 1_445
Na0 O44 2.638216 1_445
Na0 O42 2.638216 1_455
Na0 O43 2.638216 1_555
Na1 O39 2.553454 1_555
Na1 O41 2.553454 1_445
Na1 O40 2.553454 1_545
Na1 O45 2.638216 1_446
Na1 O47 2.638216 1_556
Na1 O46 2.638216 1_456
Na2 O48 2.521238 1_555
Na2 O50 2.521238 1_555
Na2 O49 2.521238 1_555
Na2 O54 2.677545 1_555
Na2 O56 2.677545 1_555
Na2 O55 2.677545 1_555
Na3 O52 2.521238 1_555
Na3 O53 2.521238 1_555
Na3 O51 2.521238 1_555
Na3 O58 2.677545 1_555
Na3 O59 2.677545 1_555
Na3 O57 2.677545 1_555
Na4 O62 2.522800 1_555
Na4 O60 2.522800 1_555
Na4 O61 2.522800 1_555
Na4 O68 2.685152 1_555
Na4 O66 2.685152 1_555
Na4 O67 2.685153 1_555
Na5 O63 2.522800 1_555
Na5 O65 2.522800 1_555
Na5 O64 2.522800 1_555
Na5 O69 2.685152 1_555
Na5 O71 2.685152 1_555
Na5 O70 2.685153 1_555
Mg0 O38 2.007674 1_555
Mg0 O36 2.007674 1_545
Mg0 O37 2.007674 1_445
Mg0 O2 2.081606 1_455
Mg0 O1 2.081606 1_445
Mg0 O0 2.081606 1_555
Mg1 O39 2.007674 1_555
Mg1 O41 2.007674 1_445
Mg1 O40 2.007674 1_545
Mg1 O5 2.081606 1_455
Mg1 O3 2.081606 1_555
Mg1 O4 2.081606 1_445
Mg2 O7 2.086396 1_555
Mg2 O8 2.086396 1_545
Mg2 O6 2.086396 1_445
Mg2 O44 2.131830 1_445
Mg2 O42 2.131830 1_455
Mg2 O43 2.131830 1_555
Mg3 O10 2.086396 1_555
Mg3 O9 2.086396 1_445
Mg3 O11 2.086396 1_545
Mg3 O45 2.131830 1_445
Mg3 O47 2.131830 1_555
Mg3 O46 2.131830 1_455
Mg4 O14 2.021619 1_555
Mg4 O13 2.021619 1_555
Mg4 O12 2.021619 1_555
Mg4 O48 2.101297 1_555
Mg4 O50 2.101297 1_555
Mg4 O49 2.101297 1_555
Mg5 O17 2.021619 1_555
Mg5 O15 2.021619 1_555
Mg5 O16 2.021619 1_555
Mg5 O52 2.101297 1_555
Mg5 O53 2.101297 1_555
Mg5 O51 2.101297 1_555
Mg6 O25 1.966871 1_554
Mg6 O24 1.966871 1_554
Mg6 O26 1.966871 1_554
Mg6 O62 2.120664 1_555
Mg6 O60 2.120664 1_555
Mg6 O61 2.120665 1_555
Mg7 O28 1.966871 1_555
Mg7 O27 1.966871 1_555
Mg7 O29 1.966871 1_555
Mg7 O63 2.120664 1_555
Mg7 O65 2.120664 1_555
Mg7 O64 2.120665 1_555
O0 S0 1.453632 1_555
O1 S1 1.453632 1_555
O2 S2 1.453632 1_555
O3 S3 1.453632 1_555
O4 S4 1.453632 1_555
O5 S5 1.453632 1_555
O6 S5 1.466230 1_565
O7 S3 1.466230 1_555
O8 S4 1.466230 1_455
O9 S1 1.466230 1_555
O10 S2 1.466230 1_455
O11 S0 1.466230 1_565
O12 S6 1.459432 1_555
O13 S7 1.459432 1_555
O14 S8 1.459432 1_555
O15 S9 1.459432 1_555
O16 S10 1.459432 1_555
O17 S11 1.459432 1_555
O18 S11 1.545924 1_555
O18 Ta0 2.024840 1_554
O19 S9 1.545924 1_555
O19 Ta0 2.024840 1_554
O20 S10 1.545924 1_555
O20 Ta0 2.024840 1_554
O21 S7 1.545924 1_555
O21 Ta1 2.024840 1_555
O22 S8 1.545924 1_555
O22 Ta1 2.024840 1_555
O23 S6 1.545924 1_555
O23 Ta1 2.024840 1_555
O24 P0 1.491082 1_555
O25 P1 1.491082 1_555
O26 P2 1.491082 1_555
O27 P3 1.491082 1_555
O28 P4 1.491082 1_555
O29 P5 1.491082 1_555
O30 P5 1.608601 1_555
O30 Ta2 1.929847 1_555
O31 P3 1.608601 1_555
O31 Ta2 1.929847 1_555
O32 P4 1.608600 1_555
O32 Ta2 1.929847 1_555
O33 P1 1.608600 1_555
O33 Ta3 1.929847 1_555
O34 P2 1.608601 1_555
O34 Ta3 1.929847 1_555
O35 P0 1.608601 1_555
O35 Ta3 1.929847 1_555
O36 P5 1.494491 1_555
O37 P3 1.494499 1_555
O38 P4 1.494496 1_555
O39 P1 1.494499 1_555
O40 P2 1.494491 1_555
O41 P0 1.494496 1_555
O42 S6 1.472297 1_555
O43 S7 1.472306 1_555
O44 S8 1.472302 1_555
O45 S9 1.472306 1_555
O46 S10 1.472297 1_555
O47 S11 1.472302 1_555
O48 S5 1.476088 1_555
O49 S3 1.476097 1_555
O50 S4 1.476093 1_555
O51 S1 1.476096 1_555
O52 S2 1.476088 1_555
O53 S0 1.476093 1_555
O54 P0 1.600061 1_555
O54 Ta0 1.954311 1_555
O55 P1 1.600044 1_655
O55 Ta0 1.954311 1_555
O56 P2 1.600052 1_545
O56 Ta0 1.954311 1_555
O57 P3 1.600044 1_545
O57 Ta1 1.954311 1_555
O58 P4 1.600061 1_555
O58 Ta1 1.954311 1_555
O59 P5 1.600052 1_655
O59 Ta1 1.954311 1_555
O60 S11 1.465431 1_555
O61 S9 1.465414 1_455
O62 S10 1.465421 1_565
O63 S7 1.465414 1_565
O64 S8 1.465431 1_555
O65 S6 1.465421 1_455
O66 S0 1.552447 1_565
O66 Ta2 2.063400 1_555
O67 S1 1.552456 1_555
O67 Ta2 2.063400 1_555
O68 S2 1.552452 1_455
O68 Ta2 2.063400 1_555
O69 S3 1.552456 1_555
O69 Ta3 2.063400 1_555
O70 S4 1.552447 1_455
O70 Ta3 2.063400 1_555
O71 S5 1.552452 1_565
O71 Ta3 2.063400 1_555
