# generated using pymatgen
data_MgMn4(NiO4)2
_symmetry_space_group_name_H-M   'P 1'
_cell_length_a   6.19030256
_cell_length_b   6.19030258
_cell_length_c   6.53410210
_cell_angle_alpha   58.14515097
_cell_angle_beta   58.14514497
_cell_angle_gamma   59.50659378
_symmetry_Int_Tables_number   1
_chemical_formula_structural   MgMn4(NiO4)2
_chemical_formula_sum   'Mg1 Mn4 Ni2 O8'
_cell_volume   171.31024474
_cell_formula_units_Z   1
loop_
 _symmetry_equiv_pos_site_id
 _symmetry_equiv_pos_as_xyz
  1  'x, y, z'
loop_
 _atom_site_type_symbol
 _atom_site_label
 _atom_site_symmetry_multiplicity
 _atom_site_fract_x
 _atom_site_fract_y
 _atom_site_fract_z
 _atom_site_occupancy
  Mg  Mg0  1  0.01839572  0.01839572  0.48160428  1
  Mn  Mn0  1  0.93686981  0.93686981  0.06313019  1
  Mn  Mn1  1  0.33175276  0.33175276  0.16824724  1
  Mn  Mn2  1  0.60925355  0.60925355  0.15209916  1
  Mn  Mn3  1  0.60925355  0.60925355  0.62939374  1
  Ni  Ni0  1  0.08427998  0.53021563  0.69275220  1
  Ni  Ni1  1  0.53021563  0.08427998  0.69275219  1
  O  O0  1  0.38325676  0.38325676  0.41749489  1
  O  O1  1  0.40689065  0.88078428  0.35616303  1
  O  O2  1  0.38325676  0.38325676  0.81599259  1
  O  O3  1  0.88078428  0.40689065  0.35616303  1
  O  O4  1  0.35523152  0.80019886  0.92228431  1
  O  O5  1  0.83518008  0.83518008  0.46216815  1
  O  O6  1  0.80019886  0.35523152  0.92228431  1
  O  O7  1  0.83518008  0.83518008  0.86747069  1
loop_
_geom_bond_atom_site_label_1
_geom_bond_atom_site_label_2
_geom_bond_distance
_geom_bond_site_symmetry_2
Mg0 O1 1.938627 1_545
Mg0 O3 1.938627 1_455
Mg0 O7 2.048970 1_445
Mg0 O5 2.048974 1_445
Mn0 O4 2.086185 1_654
Mn0 O6 2.086185 1_564
Mn0 O5 2.127921 1_555
Mn0 O7 2.127927 1_554
Mn1 O2 2.013694 1_554
Mn1 O0 2.013701 1_555
Mn1 O3 2.276869 1_455
Mn1 O1 2.276869 1_545
Mn1 O6 2.504979 1_554
Mn1 O4 2.504979 1_554
Mn2 O0 1.945841 1_555
Mn2 O7 1.965918 1_554
Mn2 O1 2.153624 1_555
Mn2 O3 2.153624 1_555
Mn2 O6 2.203925 1_554
Mn2 O4 2.203926 1_554
Mn3 O2 1.945840 1_555
Mn3 O5 1.965917 1_555
Mn3 O3 2.153619 1_555
Mn3 O1 2.153619 1_555
Mn3 O4 2.203920 1_555
Mn3 O6 2.203921 1_555
Ni0 O6 1.987376 1_455
Ni0 O0 1.998118 1_555
Ni0 O2 1.998122 1_555
Ni0 O7 2.169642 1_455
Ni0 O5 2.169646 1_455
Ni1 O4 1.987376 1_545
Ni1 O0 1.998118 1_555
Ni1 O2 1.998122 1_555
Ni1 O7 2.169642 1_545
Ni1 O5 2.169646 1_545
