# generated using pymatgen
data_La8Nb7S22
_symmetry_space_group_name_H-M   'P 1'
_cell_length_a   16.39108437
_cell_length_b   16.39108437
_cell_length_c   5.84382450
_cell_angle_alpha   90.00000000
_cell_angle_beta   90.00000000
_cell_angle_gamma   90.68789976
_symmetry_Int_Tables_number   1
_chemical_formula_structural   La8Nb7S22
_chemical_formula_sum   'La16 Nb14 S44'
_cell_volume   1569.93342030
_cell_formula_units_Z   2
loop_
 _symmetry_equiv_pos_site_id
 _symmetry_equiv_pos_as_xyz
  1  'x, y, z'
loop_
 _atom_site_type_symbol
 _atom_site_label
 _atom_site_symmetry_multiplicity
 _atom_site_fract_x
 _atom_site_fract_y
 _atom_site_fract_z
 _atom_site_occupancy
  La  La0  1  0.86013033  0.98632543  0.92023129  1
  La  La1  1  0.13986967  0.01367457  0.92023129  1
  La  La2  1  0.01367457  0.13986967  0.42023129  1
  La  La3  1  0.98632543  0.86013033  0.42023129  1
  La  La4  1  0.73470167  0.10940363  0.43934927  1
  La  La5  1  0.26529833  0.89059637  0.43934927  1
  La  La6  1  0.89059637  0.26529833  0.93934927  1
  La  La7  1  0.10940363  0.73470167  0.93934927  1
  La  La8  1  0.61002042  0.23567405  0.91116577  1
  La  La9  1  0.38997958  0.76432595  0.91116577  1
  La  La10  1  0.76432595  0.38997958  0.41116577  1
  La  La11  1  0.23567405  0.61002042  0.41116577  1
  La  La12  1  0.48404869  0.36105240  0.43152652  1
  La  La13  1  0.51595131  0.63894760  0.43152652  1
  La  La14  1  0.63894760  0.51595131  0.93152652  1
  La  La15  1  0.36105240  0.48404869  0.93152652  1
  Nb  Nb0  1  0.50000000  -0.00000000  0.99908116  1
  Nb  Nb1  1  -0.00000000  0.50000000  0.49908116  1
  Nb  Nb2  1  0.42857250  0.07035536  0.50170502  1
  Nb  Nb3  1  0.57142750  0.92964464  0.50170502  1
  Nb  Nb4  1  0.92964464  0.57142750  0.00170502  1
  Nb  Nb5  1  0.07035536  0.42857250  0.00170502  1
  Nb  Nb6  1  0.35567801  0.14312559  0.99954269  1
  Nb  Nb7  1  0.64432199  0.85687441  0.99954269  1
  Nb  Nb8  1  0.85687441  0.64432199  0.49954269  1
  Nb  Nb9  1  0.14312559  0.35567801  0.49954269  1
  Nb  Nb10  1  0.28718524  0.21336674  0.50073899  1
  Nb  Nb11  1  0.71281476  0.78663326  0.50073899  1
  Nb  Nb12  1  0.78663326  0.71281476  0.00073899  1
  Nb  Nb13  1  0.21336674  0.28718524  0.00073899  1
  S  S0  1  0.56904562  0.07098558  0.66772741  1
  S  S1  1  0.43095438  0.92901442  0.66772741  1
  S  S2  1  0.92901442  0.43095438  0.16772741  1
  S  S3  1  0.07098558  0.56904562  0.16772741  1
  S  S4  1  0.36048149  0.00392060  0.16850340  1
  S  S5  1  0.63951851  0.99607940  0.16850340  1
  S  S6  1  0.99607940  0.63951851  0.66850340  1
  S  S7  1  0.00392060  0.36048149  0.66850340  1
  S  S8  1  0.49429424  0.13926021  0.17063818  1
  S  S9  1  0.50570576  0.86073979  0.17063818  1
  S  S10  1  0.86073979  0.50570576  0.67063818  1
  S  S11  1  0.13926021  0.49429424  0.67063818  1
  S  S12  1  0.28801778  0.07229235  0.66684116  1
  S  S13  1  0.71198222  0.92770765  0.66684116  1
  S  S14  1  0.92770765  0.71198222  0.16684116  1
  S  S15  1  0.07229235  0.28801778  0.16684116  1
  S  S16  1  0.42853635  0.20974896  0.66954224  1
  S  S17  1  0.57146365  0.79025104  0.66954224  1
  S  S18  1  0.79025104  0.57146365  0.16954224  1
  S  S19  1  0.20974896  0.42853635  0.16954224  1
  S  S20  1  0.21522488  0.14851913  0.17036002  1
  S  S21  1  0.78477512  0.85148087  0.17036002  1
  S  S22  1  0.85148087  0.78477512  0.67036002  1
  S  S23  1  0.14851913  0.21522488  0.67036002  1
  S  S24  1  0.35303509  0.28364586  0.16753864  1
  S  S25  1  0.64696491  0.71635414  0.16753864  1
  S  S26  1  0.71635414  0.64696491  0.66753864  1
  S  S27  1  0.28364586  0.35303509  0.66753864  1
  S  S28  1  0.88803795  0.01293017  0.42176999  1
  S  S29  1  0.11196205  0.98706983  0.42176999  1
  S  S30  1  0.38807630  0.51314935  0.42627713  1
  S  S31  1  0.61192370  0.48685065  0.42627713  1
  S  S32  1  0.48685065  0.61192370  0.92627713  1
  S  S33  1  0.51314935  0.38807630  0.92627713  1
  S  S34  1  0.26343216  0.63741771  0.91772688  1
  S  S35  1  0.73656784  0.36258229  0.91772688  1
  S  S36  1  0.36258229  0.73656784  0.41772688  1
  S  S37  1  0.63741771  0.26343216  0.41772688  1
  S  S38  1  0.13867737  0.76288945  0.42987633  1
  S  S39  1  0.86132263  0.23711055  0.42987633  1
  S  S40  1  0.23711055  0.86132263  0.92987633  1
  S  S41  1  0.76288945  0.13867737  0.92987633  1
  S  S42  1  0.01293017  0.88803795  0.92176999  1
  S  S43  1  0.98706983  0.11196205  0.92176999  1
loop_
_geom_bond_atom_site_label_1
_geom_bond_atom_site_label_2
_geom_bond_distance
_geom_bond_site_symmetry_2
La0 S43 2.909847 1_565
La0 S21 2.912360 1_556
La0 S41 2.979142 1_565
La0 S28 2.979887 1_565
La0 S13 2.992739 1_555
La0 S42 2.994196 1_655
La0 S28 2.997469 1_566
La1 S42 2.909847 1_545
La1 S20 2.912360 1_556
La1 S40 2.979142 1_545
La1 S29 2.979887 1_545
La1 S12 2.992739 1_555
La1 S43 2.994196 1_455
La1 S29 2.997469 1_546
La2 S28 2.909847 1_455
La2 S23 2.912360 1_555
La2 S39 2.979142 1_455
La2 S43 2.979887 1_454
La2 S15 2.992739 1_555
La2 S29 2.994196 1_545
La2 S43 2.997469 1_455
La3 S29 2.909847 1_655
La3 S22 2.912360 1_555
La3 S38 2.979142 1_655
La3 S42 2.979887 1_654
La3 S14 2.992739 1_555
La3 S28 2.994196 1_565
La3 S42 2.997469 1_655
La4 S5 2.884443 1_545
La4 S39 2.930525 1_555
La4 S41 2.942026 1_555
La4 S28 2.987211 1_555
La4 S37 3.004901 1_555
La4 S41 3.050004 1_554
La4 S0 3.083732 1_555
La4 S13 3.278575 1_545
La5 S4 2.884443 1_565
La5 S38 2.930525 1_555
La5 S40 2.942026 1_555
La5 S29 2.987211 1_555
La5 S36 3.004901 1_555
La5 S40 3.050004 1_554
La5 S1 3.083732 1_555
La5 S12 3.278575 1_565
La6 S7 2.884443 1_655
La6 S41 2.930525 1_555
La6 S39 2.942026 1_556
La6 S43 2.987211 1_555
La6 S35 3.004901 1_555
La6 S39 3.050004 1_555
La6 S2 3.083732 1_556
La6 S15 3.278575 1_656
La7 S6 2.884443 1_455
La7 S40 2.930525 1_555
La7 S38 2.942026 1_556
La7 S42 2.987211 1_555
La7 S34 3.004901 1_555
La7 S38 3.050004 1_555
La7 S3 3.083732 1_556
La7 S14 3.278575 1_456
La8 S8 2.884926 1_556
La8 S35 2.920181 1_555
La8 S37 2.952753 1_555
La8 S33 2.977316 1_555
La8 S41 2.985601 1_555
La8 S37 3.027685 1_556
La8 S0 3.117410 1_555
La8 S16 3.315561 1_555
La9 S9 2.884926 1_556
La9 S34 2.920181 1_555
La9 S36 2.952753 1_555
La9 S32 2.977316 1_555
La9 S40 2.985601 1_555
La9 S36 3.027685 1_556
La9 S1 3.117410 1_555
La9 S17 3.315561 1_555
La10 S10 2.884926 1_555
La10 S37 2.920181 1_555
La10 S35 2.952753 1_554
La10 S31 2.977316 1_555
La10 S39 2.985601 1_555
La10 S35 3.027685 1_555
La10 S2 3.117410 1_555
La10 S18 3.315561 1_555
La11 S11 2.884926 1_555
La11 S36 2.920181 1_555
La11 S34 2.952753 1_554
La11 S30 2.977316 1_555
La11 S38 2.985601 1_555
La11 S34 3.027685 1_555
La11 S3 3.117410 1_555
La11 S19 3.315561 1_555
La12 S24 2.921619 1_555
La12 S31 2.922694 1_555
La12 S33 2.962752 1_555
La12 S30 2.963941 1_555
La12 S16 2.976398 1_555
La12 S37 2.997170 1_555
La12 S33 3.022653 1_554
La13 S25 2.921619 1_555
La13 S30 2.922694 1_555
La13 S32 2.962752 1_555
La13 S31 2.963941 1_555
La13 S17 2.976398 1_555
La13 S36 2.997170 1_555
La13 S32 3.022653 1_554
La14 S26 2.921619 1_555
La14 S33 2.922694 1_555
La14 S31 2.962752 1_556
La14 S32 2.963941 1_555
La14 S18 2.976398 1_556
La14 S35 2.997170 1_555
La14 S31 3.022653 1_555
La15 S27 2.921619 1_555
La15 S32 2.922694 1_555
La15 S30 2.962752 1_556
La15 S33 2.963941 1_555
La15 S19 2.976398 1_556
La15 S34 2.997170 1_555
La15 S30 3.022653 1_555
Nb0 S4 2.493518 1_556
Nb0 S5 2.493518 1_546
Nb0 S9 2.495868 1_546
Nb0 S8 2.495868 1_556
Nb0 S1 2.520425 1_545
Nb0 S0 2.520425 1_555
Nb1 S7 2.493518 1_555
Nb1 S6 2.493518 1_455
Nb1 S10 2.495868 1_455
Nb1 S11 2.495868 1_555
Nb1 S2 2.520425 1_455
Nb1 S3 2.520425 1_555
Nb2 S8 2.479900 1_555
Nb2 S16 2.486441 1_555
Nb2 S4 2.488720 1_555
Nb2 S12 2.498347 1_555
Nb2 S0 2.498474 1_555
Nb2 S1 2.512417 1_545
Nb3 S9 2.479900 1_555
Nb3 S17 2.486441 1_555
Nb3 S5 2.488720 1_555
Nb3 S13 2.498347 1_555
Nb3 S1 2.498474 1_555
Nb3 S0 2.512417 1_565
Nb4 S10 2.479900 1_554
Nb4 S18 2.486441 1_555
Nb4 S6 2.488720 1_554
Nb4 S14 2.498347 1_555
Nb4 S2 2.498474 1_555
Nb4 S3 2.512417 1_655
Nb5 S11 2.479900 1_554
Nb5 S19 2.486441 1_555
Nb5 S7 2.488720 1_554
Nb5 S15 2.498347 1_555
Nb5 S3 2.498474 1_555
Nb5 S2 2.512417 1_455
Nb6 S8 2.483843 1_556
Nb6 S4 2.488308 1_556
Nb6 S24 2.504632 1_556
Nb6 S16 2.511248 1_555
Nb6 S20 2.511810 1_556
Nb6 S12 2.515377 1_555
Nb7 S9 2.483843 1_556
Nb7 S5 2.488308 1_556
Nb7 S25 2.504632 1_556
Nb7 S17 2.511248 1_555
Nb7 S21 2.511810 1_556
Nb7 S13 2.515377 1_555
Nb8 S10 2.483843 1_555
Nb8 S6 2.488308 1_555
Nb8 S26 2.504632 1_555
Nb8 S18 2.511248 1_555
Nb8 S22 2.511810 1_555
Nb8 S14 2.515377 1_555
Nb9 S11 2.483843 1_555
Nb9 S7 2.488308 1_555
Nb9 S27 2.504632 1_555
Nb9 S19 2.511248 1_555
Nb9 S23 2.511810 1_555
Nb9 S15 2.515377 1_555
Nb10 S23 2.480153 1_555
Nb10 S27 2.489509 1_555
Nb10 S20 2.493683 1_555
Nb10 S24 2.500716 1_555
Nb10 S12 2.508021 1_555
Nb10 S16 2.519510 1_555
Nb11 S22 2.480153 1_555
Nb11 S26 2.489509 1_555
Nb11 S21 2.493683 1_555
Nb11 S25 2.500716 1_555
Nb11 S13 2.508021 1_555
Nb11 S17 2.519510 1_555
Nb12 S21 2.480153 1_555
Nb12 S25 2.489509 1_555
Nb12 S22 2.493683 1_554
Nb12 S26 2.500716 1_554
Nb12 S14 2.508021 1_555
Nb12 S18 2.519510 1_555
Nb13 S20 2.480153 1_555
Nb13 S24 2.489509 1_555
Nb13 S23 2.493683 1_554
Nb13 S27 2.500716 1_554
Nb13 S15 2.508021 1_555
Nb13 S19 2.519510 1_555
