# generated using pymatgen
data_LiGdCl4
_symmetry_space_group_name_H-M   'P 1'
_cell_length_a   6.46517963
_cell_length_b   6.46514673
_cell_length_c   8.02002579
_cell_angle_alpha   113.76402499
_cell_angle_beta   113.76745741
_cell_angle_gamma   90.00444183
_symmetry_Int_Tables_number   1
_chemical_formula_structural   LiGdCl4
_chemical_formula_sum   'Li2 Gd2 Cl8'
_cell_volume   275.44699333
_cell_formula_units_Z   2
loop_
 _symmetry_equiv_pos_site_id
 _symmetry_equiv_pos_as_xyz
  1  'x, y, z'
loop_
 _atom_site_type_symbol
 _atom_site_label
 _atom_site_symmetry_multiplicity
 _atom_site_fract_x
 _atom_site_fract_y
 _atom_site_fract_z
 _atom_site_occupancy
  Li  Li0  1  0.12505109  0.37488790  0.25002315  1
  Li  Li1  1  0.87494891  0.62511210  0.74997685  1
  Gd  Gd0  1  0.37498007  0.12501775  0.74999879  1
  Gd  Gd1  1  0.62501993  0.87498225  0.25000121  1
  Cl  Cl0  1  0.76311213  0.46554178  0.09004596  1
  Cl  Cl1  1  0.62447429  0.26309842  0.59002449  1
  Cl  Cl2  1  0.67305598  0.87549744  0.90993327  1
  Cl  Cl3  1  0.03444402  0.17305564  0.40996533  1
  Cl  Cl4  1  0.37552571  0.73690158  0.40997551  1
  Cl  Cl5  1  0.23688787  0.53445822  0.90995404  1
  Cl  Cl6  1  0.32694402  0.12450256  0.09006673  1
  Cl  Cl7  1  0.96555598  0.82694436  0.59003467  1
loop_
_geom_bond_atom_site_label_1
_geom_bond_atom_site_label_2
_geom_bond_distance
_geom_bond_site_symmetry_2
Cl0 Li0 2.377292 1_655
Cl0 Gd1 2.763438 1_555
Cl0 Gd0 2.867964 1_554
Cl1 Li1 2.377177 1_555
Cl1 Gd0 2.763305 1_555
Cl1 Gd1 2.868051 1_545
Cl2 Li1 2.376189 1_555
Cl2 Gd0 2.763527 1_565
Cl2 Gd1 2.867921 1_556
Cl3 Li0 2.376096 1_555
Cl3 Gd1 2.763257 1_445
Cl3 Gd0 2.867705 1_555
Cl4 Li0 2.377177 1_555
Cl4 Gd1 2.763305 1_555
Cl4 Gd0 2.868051 1_565
Cl5 Li1 2.377292 1_455
Cl5 Gd0 2.763438 1_555
Cl5 Gd1 2.867964 1_556
Cl6 Li0 2.376189 1_555
Cl6 Gd1 2.763527 1_545
Cl6 Gd0 2.867921 1_554
Cl7 Li1 2.376096 1_555
Cl7 Gd0 2.763257 1_665
Cl7 Gd1 2.867705 1_555
