# generated using pymatgen
data_AlH10N2OF5
_symmetry_space_group_name_H-M   'P 1'
_cell_length_a   7.59212037
_cell_length_b   8.01940127
_cell_length_c   10.34824828
_cell_angle_alpha   90.00000000
_cell_angle_beta   90.00000000
_cell_angle_gamma   90.00000000
_symmetry_Int_Tables_number   1
_chemical_formula_structural   AlH10N2OF5
_chemical_formula_sum   'Al4 H40 N8 O4 F20'
_cell_volume   630.04543610
_cell_formula_units_Z   4
loop_
 _symmetry_equiv_pos_site_id
 _symmetry_equiv_pos_as_xyz
  1  'x, y, z'
loop_
 _atom_site_type_symbol
 _atom_site_label
 _atom_site_symmetry_multiplicity
 _atom_site_fract_x
 _atom_site_fract_y
 _atom_site_fract_z
 _atom_site_occupancy
  Al  Al0  1  0.75000000  0.30264068  0.50000000  1
  Al  Al1  1  0.25000000  0.19735932  0.00000000  1
  Al  Al2  1  0.25000000  0.69735932  0.50000000  1
  Al  Al3  1  0.75000000  0.80264068  0.00000000  1
  H  H0  1  0.89677647  0.51144853  0.11713472  1
  H  H1  1  0.39677647  0.98855147  0.38286528  1
  H  H2  1  0.60322353  0.51144853  0.88286528  1
  H  H3  1  0.10322353  0.98855147  0.61713472  1
  H  H4  1  0.10322353  0.48855147  0.88286528  1
  H  H5  1  0.60322353  0.01144853  0.61713472  1
  H  H6  1  0.39677647  0.48855147  0.11713472  1
  H  H7  1  0.89677647  0.01144853  0.38286528  1
  H  H8  1  0.04286681  0.37120097  0.17786738  1
  H  H9  1  0.54286681  0.12879903  0.32213262  1
  H  H10  1  0.45713319  0.37120097  0.82213262  1
  H  H11  1  0.95713319  0.12879903  0.67786738  1
  H  H12  1  0.95713319  0.62879903  0.82213262  1
  H  H13  1  0.45713319  0.87120097  0.67786738  1
  H  H14  1  0.54286681  0.62879903  0.17786738  1
  H  H15  1  0.04286681  0.87120097  0.32213262  1
  H  H16  1  0.86044680  0.41554896  0.25928899  1
  H  H17  1  0.36044680  0.08445104  0.24071101  1
  H  H18  1  0.63955320  0.41554896  0.74071101  1
  H  H19  1  0.86044680  0.91554896  0.24071101  1
  H  H20  1  0.13955320  0.58445104  0.74071101  1
  H  H21  1  0.63955320  0.91554896  0.75928899  1
  H  H22  1  0.36044680  0.58445104  0.25928899  1
  H  H23  1  0.02240594  0.05843378  0.25265257  1
  H  H24  1  0.02240594  0.55843478  0.24734743  1
  H  H25  1  0.52240594  0.94156522  0.25265257  1
  H  H26  1  0.47759406  0.55843478  0.75265257  1
  H  H27  1  0.97759406  0.94156522  0.74734743  1
  H  H28  1  0.64442297  0.10757116  0.01969888  1
  H  H29  1  0.14442297  0.39242884  0.48030112  1
  H  H30  1  0.85557703  0.10757116  0.98030112  1
  H  H31  1  0.35557703  0.39242884  0.51969888  1
  H  H32  1  0.35557703  0.89242884  0.98030112  1
  H  H33  1  0.85557703  0.60757116  0.51969888  1
  H  H34  1  0.14442297  0.89242884  0.01969888  1
  H  H35  1  0.64442297  0.60757116  0.48030112  1
  H  H36  1  0.47759406  0.05843378  0.74734743  1
  H  H37  1  0.52240594  0.44156622  0.24734743  1
  H  H38  1  0.97759406  0.44156622  0.75265257  1
  H  H39  1  0.13955320  0.08445104  0.75928899  1
  N  N0  1  0.04467493  0.03459454  0.69984391  1
  N  N1  1  0.54467493  0.46540546  0.80015609  1
  N  N2  1  0.45532507  0.03459454  0.30015609  1
  N  N3  1  0.95532507  0.46540546  0.19984391  1
  N  N4  1  0.04467493  0.53459454  0.80015609  1
  N  N5  1  0.45532507  0.53459454  0.19984391  1
  N  N6  1  0.95532507  0.96540546  0.30015609  1
  N  N7  1  0.54467493  0.96540546  0.69984391  1
  O  O0  1  0.75000000  0.53903281  0.50000000  1
  O  O1  1  0.25000000  0.96096719  0.00000000  1
  O  O2  1  0.25000000  0.46096719  0.50000000  1
  O  O3  1  0.75000000  0.03903281  0.00000000  1
  F  F0  1  0.67594893  0.80511554  0.16780955  1
  F  F1  1  0.17594893  0.19488446  0.16780955  1
  F  F2  1  0.82405107  0.30511554  0.66780955  1
  F  F3  1  0.32405107  0.19488446  0.83219045  1
  F  F4  1  0.32405107  0.69488446  0.66780955  1
  F  F5  1  0.82405107  0.80511554  0.83219045  1
  F  F6  1  0.17594893  0.69488446  0.33219045  1
  F  F7  1  0.67594893  0.30511554  0.33219045  1
  F  F8  1  0.97416774  0.30064411  0.44561418  1
  F  F9  1  0.47416774  0.19935589  0.05438582  1
  F  F10  1  0.75000000  0.57716885  0.00000000  1
  F  F11  1  0.02583226  0.19935589  0.94561418  1
  F  F12  1  0.02583226  0.69935589  0.55438582  1
  F  F13  1  0.52583226  0.80064411  0.94561418  1
  F  F14  1  0.47416774  0.69935589  0.44561418  1
  F  F15  1  0.97416774  0.80064411  0.05438582  1
  F  F16  1  0.75000000  0.07716885  0.50000000  1
  F  F17  1  0.25000000  0.42283115  0.00000000  1
  F  F18  1  0.25000000  0.92283115  0.50000000  1
  F  F19  1  0.52583226  0.30064411  0.55438582  1
loop_
_geom_bond_atom_site_label_1
_geom_bond_atom_site_label_2
_geom_bond_distance
_geom_bond_site_symmetry_2
Al0 F19 1.792621 1_555
Al0 F8 1.792621 1_555
Al0 F16 1.808149 1_555
Al0 F7 1.825383 1_555
Al0 F2 1.825383 1_555
Al0 O0 1.895723 1_555
Al1 F9 1.792621 1_555
Al1 F11 1.792621 1_554
Al1 F17 1.808149 1_555
Al1 F3 1.825383 1_554
Al1 F1 1.825383 1_555
Al1 O1 1.895723 1_545
Al2 F14 1.792621 1_555
Al2 F12 1.792621 1_555
Al2 F18 1.808149 1_555
Al2 F4 1.825383 1_555
Al2 F6 1.825383 1_555
Al2 O2 1.895723 1_555
Al3 F13 1.792621 1_554
Al3 F15 1.792621 1_555
Al3 F10 1.808149 1_555
Al3 F5 1.825383 1_554
Al3 F0 1.825383 1_555
Al3 O3 1.895723 1_565
H0 N3 1.032705 1_555
H1 N2 1.032705 1_565
H2 N1 1.032705 1_555
H3 N0 1.032705 1_565
H4 N4 1.032705 1_555
H5 N7 1.032705 1_545
H6 N5 1.032705 1_555
H7 N6 1.032705 1_545
H8 N3 1.031588 1_455
H9 N2 1.031588 1_555
H10 N1 1.031588 1_555
H11 N0 1.031588 1_655
H12 N4 1.031588 1_655
H13 N7 1.031588 1_555
H14 N5 1.031588 1_555
H15 N6 1.031588 1_455
H16 N3 1.028173 1_555
H17 N2 1.028173 1_555
H18 N1 1.028173 1_555
H19 N6 1.028173 1_555
H20 N4 1.028173 1_555
H21 N7 1.028173 1_555
H22 N5 1.028173 1_555
H23 N6 1.028389 1_445
H24 N3 1.028395 1_455
H25 N2 1.028395 1_565
H26 N1 1.028395 1_555
H27 N0 1.028395 1_665
H28 O3 0.993047 1_555
H29 O2 0.993047 1_555
H30 O3 0.993047 1_556
H31 O2 0.993047 1_555
H32 O1 0.993047 1_556
H33 O0 0.993047 1_555
H34 O1 0.993047 1_555
H35 O0 0.993047 1_555
H36 N7 1.028389 1_545
H37 N5 1.028389 1_555
H38 N4 1.028389 1_655
H39 N0 1.028173 1_555
F8 H29 1.530175 1_655
F9 H28 1.530175 1_555
F11 H30 1.530175 1_455
F12 H33 1.530175 1_455
F13 H32 1.530175 1_555
F14 H35 1.530175 1_555
F15 H34 1.530175 1_655
F19 H31 1.530175 1_555
