# generated using pymatgen
data_Sr2ReNiO6
_symmetry_space_group_name_H-M   'P 1'
_cell_length_a   5.64541684
_cell_length_b   5.64541684
_cell_length_c   5.64541684
_cell_angle_alpha   120.59524945
_cell_angle_beta   120.59524945
_cell_angle_gamma   88.97205313
_symmetry_Int_Tables_number   1
_chemical_formula_structural   Sr2ReNiO6
_chemical_formula_sum   'Sr2 Re1 Ni1 O6'
_cell_volume   126.05850014
_cell_formula_units_Z   1
loop_
 _symmetry_equiv_pos_site_id
 _symmetry_equiv_pos_as_xyz
  1  'x, y, z'
loop_
 _atom_site_type_symbol
 _atom_site_label
 _atom_site_symmetry_multiplicity
 _atom_site_fract_x
 _atom_site_fract_y
 _atom_site_fract_z
 _atom_site_occupancy
  Sr  Sr0  1  0.75000000  0.25000000  0.50000000  1
  Sr  Sr1  1  0.25000000  0.75000000  0.50000000  1
  Re  Re0  1  0.50000000  0.50000000  0.00000000  1
  Ni  Ni0  1  0.00000000  0.00000000  0.00000000  1
  O  O0  1  0.30172900  0.21589800  0.51762700  1
  O  O1  1  0.78410200  0.30172900  0.08583200  1
  O  O2  1  0.21589800  0.69827100  0.91416800  1
  O  O3  1  0.69827100  0.78410200  0.48237300  1
  O  O4  1  0.74091200  0.74091200  0.00000000  1
  O  O5  1  0.25908800  0.25908800  0.00000000  1
loop_
_geom_bond_atom_site_label_1
_geom_bond_atom_site_label_2
_geom_bond_distance
_geom_bond_site_symmetry_2
Ni0 O0 2.075663 1_555
Ni0 O3 2.075663 1_444
Ni0 O1 2.075663 1_455
Ni0 O2 2.075663 1_544
Ni0 O4 2.086985 1_445
Ni0 O5 2.086985 1_555
O0 Re0 1.938213 1_556
O0 Sr1 2.597041 1_545
O0 Sr0 2.597041 1_555
O0 Sr0 3.071001 1_455
O0 Sr1 3.071001 1_555
O1 Re0 1.938214 1_555
O1 Sr0 2.597036 1_555
O1 Sr1 2.597042 1_655
O1 Sr1 3.071001 1_544
O1 Sr0 3.071006 1_554
O2 Re0 1.938214 1_556
O2 Sr1 2.597036 1_555
O2 Sr0 2.597042 1_455
O2 Sr0 3.071001 1_566
O2 Sr1 3.071006 1_556
O3 Re0 1.938213 1_555
O3 Sr1 2.597041 1_555
O3 Sr0 2.597041 1_565
O3 Sr0 3.071001 1_555
O3 Sr1 3.071001 1_655
O4 Re0 1.940576 1_555
O4 Sr0 2.798232 1_554
O4 Sr1 2.798232 1_554
O4 Sr0 2.798232 1_565
O4 Sr1 2.798232 1_655
O5 Re0 1.940576 1_555
O5 Sr1 2.798232 1_544
O5 Sr0 2.798232 1_454
O5 Sr0 2.798232 1_555
O5 Sr1 2.798232 1_555
