# generated using pymatgen
data_Pr2W2O9
_symmetry_space_group_name_H-M   'P 1'
_cell_length_a   9.94581249
_cell_length_b   7.69811443
_cell_length_c   9.29851612
_cell_angle_alpha   72.65095764
_cell_angle_beta   90.00000000
_cell_angle_gamma   90.00000000
_symmetry_Int_Tables_number   1
_chemical_formula_structural   Pr2W2O9
_chemical_formula_sum   'Pr8 W8 O36'
_cell_volume   679.54293272
_cell_formula_units_Z   4
loop_
 _symmetry_equiv_pos_site_id
 _symmetry_equiv_pos_as_xyz
  1  'x, y, z'
loop_
 _atom_site_type_symbol
 _atom_site_label
 _atom_site_symmetry_multiplicity
 _atom_site_fract_x
 _atom_site_fract_y
 _atom_site_fract_z
 _atom_site_occupancy
  Pr  Pr0  1  0.05242201  0.22772113  0.34736878  1
  Pr  Pr1  1  0.55242201  0.77227887  0.15263122  1
  Pr  Pr2  1  0.94757799  0.77227887  0.65263122  1
  Pr  Pr3  1  0.44757799  0.22772113  0.84736878  1
  Pr  Pr4  1  0.45389366  0.28077460  0.42589948  1
  Pr  Pr5  1  0.95389366  0.71922540  0.07410052  1
  Pr  Pr6  1  0.54610634  0.71922540  0.57410052  1
  Pr  Pr7  1  0.04610634  0.28077460  0.92589948  1
  W  W0  1  0.75097532  0.07203602  0.26150601  1
  W  W1  1  0.25097532  0.92796398  0.23849399  1
  W  W2  1  0.24902468  0.92796398  0.73849399  1
  W  W3  1  0.74902468  0.07203602  0.76150601  1
  W  W4  1  0.77294845  0.42502611  0.46461105  1
  W  W5  1  0.27294845  0.57497389  0.03538895  1
  W  W6  1  0.22705155  0.57497389  0.53538895  1
  W  W7  1  0.72705155  0.42502611  0.96461105  1
  O  O0  1  0.78043472  0.90174436  0.16119620  1
  O  O1  1  0.28043472  0.09825564  0.33880380  1
  O  O2  1  0.21956528  0.09825564  0.83880380  1
  O  O3  1  0.71956528  0.90174436  0.66119620  1
  O  O4  1  0.58991996  0.95642912  0.34200948  1
  O  O5  1  0.08991996  0.04357088  0.15799052  1
  O  O6  1  0.41008004  0.04357088  0.65799052  1
  O  O7  1  0.91008004  0.95642912  0.84200948  1
  O  O8  1  0.87838837  0.98880513  0.40367448  1
  O  O9  1  0.37838837  0.01119487  0.09632552  1
  O  O10  1  0.12161163  0.01119487  0.59632552  1
  O  O11  1  0.62161163  0.98880513  0.90367448  1
  O  O12  1  0.62278890  0.22928088  0.07777462  1
  O  O13  1  0.12278890  0.77071912  0.42222538  1
  O  O14  1  0.37721110  0.77071912  0.92222538  1
  O  O15  1  0.87721110  0.22928088  0.57777462  1
  O  O16  1  0.80967318  0.25982067  0.85953136  1
  O  O17  1  0.30967318  0.74017933  0.64046864  1
  O  O18  1  0.19032682  0.74017933  0.14046864  1
  O  O19  1  0.69032682  0.25982067  0.35953136  1
  O  O20  1  0.59730449  0.50671856  0.82459886  1
  O  O21  1  0.09730449  0.49328144  0.67540114  1
  O  O22  1  0.40269551  0.49328144  0.17540114  1
  O  O23  1  0.90269551  0.50671856  0.32459886  1
  O  O24  1  0.78986986  0.58756235  0.57294170  1
  O  O25  1  0.28986986  0.41243765  0.92705830  1
  O  O26  1  0.21013014  0.41243765  0.42705830  1
  O  O27  1  0.71013014  0.58756235  0.07294170  1
  O  O28  1  0.60575909  0.55340216  0.39307224  1
  O  O29  1  0.10575909  0.44659784  0.10692776  1
  O  O30  1  0.39424091  0.44659784  0.60692776  1
  O  O31  1  0.89424091  0.55340216  0.89307224  1
  O  O32  1  0.63516822  0.26242774  0.64009768  1
  O  O33  1  0.13516822  0.73757226  0.85990232  1
  O  O34  1  0.36483178  0.73757226  0.35990232  1
  O  O35  1  0.86483178  0.26242774  0.14009768  1
loop_
_geom_bond_atom_site_label_1
_geom_bond_atom_site_label_2
_geom_bond_distance
_geom_bond_site_symmetry_2
O0 W0 1.844881 1_565
O0 Pr1 2.487923 1_555
O0 Pr5 2.506980 1_555
O1 W1 1.844881 1_545
O1 Pr0 2.487923 1_555
O1 Pr4 2.506980 1_555
O2 W2 1.844881 1_545
O2 Pr3 2.487923 1_555
O2 Pr7 2.506980 1_555
O3 W3 1.844881 1_565
O3 Pr2 2.487923 1_555
O3 Pr6 2.506980 1_555
O4 W0 1.876409 1_565
O4 Pr6 2.414840 1_555
O4 Pr1 2.595837 1_555
O4 Pr4 3.136019 1_565
O5 W1 1.876409 1_545
O5 Pr7 2.414840 1_554
O5 Pr0 2.595837 1_555
O5 Pr5 3.136019 1_445
O6 W2 1.876409 1_545
O6 Pr4 2.414840 1_555
O6 Pr3 2.595837 1_555
O6 Pr6 3.136019 1_545
O7 W3 1.876409 1_565
O7 Pr5 2.414840 1_556
O7 Pr2 2.595837 1_555
O7 Pr7 3.136019 1_665
O8 W0 1.805218 1_565
O8 Pr0 2.465469 1_665
O8 Pr2 2.511889 1_555
O9 W1 1.805218 1_545
O9 Pr1 2.465469 1_545
O9 Pr3 2.511889 1_554
O10 W2 1.805218 1_545
O10 Pr2 2.465469 1_445
O10 Pr0 2.511889 1_555
O11 W3 1.805218 1_565
O11 Pr3 2.465469 1_565
O11 Pr1 2.511889 1_556
O12 W7 1.872854 1_554
O12 W0 2.185426 1_555
O12 Pr3 2.764455 1_554
O13 W6 1.872854 1_555
O13 W1 2.185426 1_555
O13 Pr2 2.764455 1_455
O14 W5 1.872854 1_556
O14 W2 2.185426 1_555
O14 Pr1 2.764455 1_556
O15 W4 1.872854 1_555
O15 W3 2.185426 1_555
O15 Pr0 2.764455 1_655
O16 W7 1.997106 1_555
O16 W3 2.017475 1_555
O16 Pr7 2.448648 1_655
O17 W6 1.997106 1_555
O17 W2 2.017475 1_555
O17 Pr6 2.448648 1_555
O18 W5 1.997106 1_555
O18 W1 2.017475 1_555
O18 Pr5 2.448648 1_455
O19 W4 1.997106 1_555
O19 W0 2.017475 1_555
O19 Pr4 2.448648 1_555
O20 W7 1.807594 1_555
O20 Pr6 2.467477 1_555
O20 Pr3 2.569835 1_555
O21 W6 1.807594 1_555
O21 Pr7 2.467477 1_555
O21 Pr2 2.569835 1_455
O22 W5 1.807594 1_555
O22 Pr4 2.467477 1_555
O22 Pr1 2.569835 1_555
O23 W4 1.807594 1_555
O23 Pr5 2.467477 1_555
O23 Pr0 2.569835 1_655
O24 W4 1.833093 1_555
O24 Pr2 2.379026 1_555
O24 Pr6 2.629025 1_555
O25 W5 1.833093 1_556
O25 Pr3 2.379026 1_555
O25 Pr7 2.629025 1_555
O26 W6 1.833093 1_555
O26 Pr0 2.379026 1_555
O26 Pr4 2.629025 1_555
O27 W7 1.833093 1_554
O27 Pr1 2.379026 1_555
O27 Pr5 2.629025 1_555
O28 W4 1.947332 1_555
O28 Pr1 2.423293 1_555
O28 Pr6 2.469107 1_555
O28 Pr4 2.529253 1_555
O29 W5 1.947332 1_555
O29 Pr0 2.423293 1_555
O29 Pr7 2.469107 1_554
O29 Pr5 2.529253 1_455
O30 W6 1.947332 1_555
O30 Pr3 2.423293 1_555
O30 Pr4 2.469107 1_555
O30 Pr6 2.529253 1_555
O31 W7 1.947332 1_555
O31 Pr2 2.423293 1_555
O31 Pr5 2.469107 1_556
O31 Pr7 2.529253 1_655
O32 W3 1.928249 1_555
O32 W4 2.211138 1_555
O32 Pr3 2.638143 1_555
O32 Pr4 2.658888 1_555
O33 W2 1.928249 1_555
O33 W5 2.211138 1_556
O33 Pr2 2.638143 1_455
O33 Pr5 2.658888 1_456
O34 W1 1.928249 1_555
O34 W6 2.211138 1_555
O34 Pr1 2.638143 1_555
O34 Pr6 2.658888 1_555
O35 W0 1.928249 1_555
O35 W7 2.211138 1_554
O35 Pr0 2.638143 1_655
O35 Pr7 2.658888 1_654
