# generated using pymatgen
data_Rb2VF6
_symmetry_space_group_name_H-M   'P 1'
_cell_length_a   5.95796409
_cell_length_b   5.95796409
_cell_length_c   6.11323935
_cell_angle_alpha   59.13407184
_cell_angle_beta   59.13407184
_cell_angle_gamma   61.73185631
_symmetry_Int_Tables_number   1
_chemical_formula_structural   Rb2VF6
_chemical_formula_sum   'Rb2 V1 F6'
_cell_volume   153.23073432
_cell_formula_units_Z   1
loop_
 _symmetry_equiv_pos_site_id
 _symmetry_equiv_pos_as_xyz
  1  'x, y, z'
loop_
 _atom_site_type_symbol
 _atom_site_label
 _atom_site_symmetry_multiplicity
 _atom_site_fract_x
 _atom_site_fract_y
 _atom_site_fract_z
 _atom_site_occupancy
  Rb  Rb0  1  0.25000000  0.25000000  0.25000000  1
  Rb  Rb1  1  0.75000000  0.75000000  0.75000000  1
  V  V0  1  -0.00000000  0.00000000  -0.00000000  1
  F  F0  1  0.78336873  0.21663127  0.21663127  1
  F  F1  1  0.21663127  0.78336873  0.78336873  1
  F  F2  1  0.21663127  0.78336873  0.21663127  1
  F  F3  1  0.78336873  0.21663127  0.78336873  1
  F  F4  1  0.22147477  0.22147477  0.77852523  1
  F  F5  1  0.77852523  0.77852523  0.22147477  1
loop_
_geom_bond_atom_site_label_1
_geom_bond_atom_site_label_2
_geom_bond_distance
_geom_bond_site_symmetry_2
F0 V0 1.872870 1_655
F0 Rb0 2.992918 1_655
F0 Rb1 2.992918 1_554
F0 Rb1 2.992918 1_545
F0 Rb0 2.992918 1_555
F1 V0 1.872870 1_566
F1 Rb1 2.992918 1_555
F1 Rb0 2.992918 1_565
F1 Rb0 2.992918 1_556
F1 Rb1 2.992918 1_455
F2 V0 1.872870 1_565
F2 Rb0 2.992918 1_565
F2 Rb1 2.992918 1_554
F2 Rb1 2.992918 1_455
F2 Rb0 2.992918 1_555
F3 V0 1.872870 1_656
F3 Rb1 2.992918 1_555
F3 Rb0 2.992918 1_655
F3 Rb0 2.992918 1_556
F3 Rb1 2.992918 1_545
F4 V0 1.816174 1_556
F4 Rb0 3.065557 1_556
F4 Rb1 3.065557 1_545
F4 Rb1 3.065557 1_455
F4 Rb0 3.065557 1_555
F5 V0 1.816174 1_665
F5 Rb1 3.065557 1_555
F5 Rb0 3.065557 1_565
F5 Rb0 3.065557 1_655
F5 Rb1 3.065557 1_554
