# generated using pymatgen
data_GdCoO3
_symmetry_space_group_name_H-M   'P 1'
_cell_length_a   3.77307700
_cell_length_b   3.85813400
_cell_length_c   3.77377900
_cell_angle_alpha   90.00000000
_cell_angle_beta   90.00000000
_cell_angle_gamma   90.00000000
_symmetry_Int_Tables_number   1
_chemical_formula_structural   GdCoO3
_chemical_formula_sum   'Gd1 Co1 O3'
_cell_volume   54.93503924
_cell_formula_units_Z   1
loop_
 _symmetry_equiv_pos_site_id
 _symmetry_equiv_pos_as_xyz
  1  'x, y, z'
loop_
 _atom_site_type_symbol
 _atom_site_label
 _atom_site_symmetry_multiplicity
 _atom_site_fract_x
 _atom_site_fract_y
 _atom_site_fract_z
 _atom_site_occupancy
  Gd  Gd0  1  0.00000000  0.00000000  0.00000000  1
  Co  Co0  1  0.50000100  0.50000100  0.50000000  1
  O  O0  1  0.50000100  0.00000000  0.50000000  1
  O  O1  1  0.00000000  0.50000100  0.50000000  1
  O  O2  1  0.50000100  0.50000100  0.00000000  1
loop_
_geom_bond_atom_site_label_1
_geom_bond_atom_site_label_2
_geom_bond_distance
_geom_bond_site_symmetry_2
Gd0 O0 2.668214 1_455
Gd0 O0 2.668214 1_454
Gd0 O0 2.668219 1_554
Gd0 O0 2.668219 1_555
Gd0 O2 2.698203 1_445
Gd0 O2 2.698208 1_545
Gd0 O2 2.698208 1_455
Gd0 O2 2.698214 1_555
Gd0 O1 2.698451 1_544
Gd0 O1 2.698451 1_545
Gd0 O1 2.698456 1_555
Gd0 O1 2.698456 1_554
Co0 O1 1.886535 1_655
Co0 O1 1.886542 1_555
Co0 O2 1.886890 1_555
Co0 O2 1.886890 1_556
Co0 O0 1.929063 1_565
Co0 O0 1.929071 1_555
