# generated using pymatgen
data_V3(Bi3O8)2
_symmetry_space_group_name_H-M   'P 1'
_cell_length_a   5.58064000
_cell_length_b   15.23604900
_cell_length_c   17.47726300
_cell_angle_alpha   90.00000000
_cell_angle_beta   90.00000000
_cell_angle_gamma   90.00000000
_symmetry_Int_Tables_number   1
_chemical_formula_structural   V3(Bi3O8)2
_chemical_formula_sum   'V12 Bi24 O64'
_cell_volume   1486.03757187
_cell_formula_units_Z   4
loop_
 _symmetry_equiv_pos_site_id
 _symmetry_equiv_pos_as_xyz
  1  'x, y, z'
loop_
 _atom_site_type_symbol
 _atom_site_label
 _atom_site_symmetry_multiplicity
 _atom_site_fract_x
 _atom_site_fract_y
 _atom_site_fract_z
 _atom_site_occupancy
  V  V0  1  0.75292200  0.96702600  0.25000000  1
  V  V1  1  0.25292200  0.53297400  0.25000000  1
  V  V2  1  0.74707800  0.46702600  0.75000000  1
  V  V3  1  0.24707800  0.03297400  0.75000000  1
  V  V4  1  0.73332900  0.51679300  0.38751300  1
  V  V5  1  0.23332900  0.98320700  0.11248700  1
  V  V6  1  0.76667100  0.01679300  0.61248700  1
  V  V7  1  0.26667100  0.48320700  0.88751300  1
  V  V8  1  0.26667100  0.48320700  0.61248700  1
  V  V9  1  0.76667100  0.01679300  0.88751300  1
  V  V10  1  0.23332900  0.98320700  0.38751300  1
  V  V11  1  0.73332900  0.51679300  0.11248700  1
  Bi  Bi0  1  0.79392200  0.68510600  0.25000000  1
  Bi  Bi1  1  0.29392200  0.81489400  0.25000000  1
  Bi  Bi2  1  0.70607800  0.18510600  0.75000000  1
  Bi  Bi3  1  0.20607800  0.31489400  0.75000000  1
  Bi  Bi4  1  0.73324700  0.32890600  0.25000000  1
  Bi  Bi5  1  0.23324700  0.17109400  0.25000000  1
  Bi  Bi6  1  0.76675300  0.82890600  0.75000000  1
  Bi  Bi7  1  0.26675300  0.67109400  0.75000000  1
  Bi  Bi8  1  0.77920700  0.16550700  0.41056700  1
  Bi  Bi9  1  0.27920700  0.33449300  0.08943300  1
  Bi  Bi10  1  0.72079300  0.66550700  0.58943300  1
  Bi  Bi11  1  0.22079300  0.83449300  0.91056700  1
  Bi  Bi12  1  0.22079300  0.83449300  0.58943300  1
  Bi  Bi13  1  0.72079300  0.66550700  0.91056700  1
  Bi  Bi14  1  0.27920700  0.33449300  0.41056700  1
  Bi  Bi15  1  0.77920700  0.16550700  0.08943300  1
  Bi  Bi16  1  0.71123800  0.82985600  0.42912000  1
  Bi  Bi17  1  0.21123800  0.67014400  0.07088000  1
  Bi  Bi18  1  0.78876200  0.32985600  0.57088000  1
  Bi  Bi19  1  0.28876200  0.17014400  0.92912000  1
  Bi  Bi20  1  0.28876200  0.17014400  0.57088000  1
  Bi  Bi21  1  0.78876200  0.32985600  0.92912000  1
  Bi  Bi22  1  0.21123800  0.67014400  0.42912000  1
  Bi  Bi23  1  0.71123800  0.82985600  0.07088000  1
  O  O0  1  0.99509800  0.75193100  0.98477700  1
  O  O1  1  0.49509800  0.74806900  0.51522300  1
  O  O2  1  0.50490200  0.25193100  0.01522300  1
  O  O3  1  0.00490200  0.24806900  0.48477700  1
  O  O4  1  0.00490200  0.24806900  0.01522300  1
  O  O5  1  0.50490200  0.25193100  0.48477700  1
  O  O6  1  0.49509800  0.74806900  0.98477700  1
  O  O7  1  0.99509800  0.75193100  0.51522300  1
  O  O8  1  0.91401400  0.73185700  0.36677400  1
  O  O9  1  0.41401400  0.76814300  0.13322600  1
  O  O10  1  0.58598600  0.23185700  0.63322600  1
  O  O11  1  0.08598600  0.26814300  0.86677400  1
  O  O12  1  0.08598600  0.26814300  0.63322600  1
  O  O13  1  0.58598600  0.23185700  0.86677400  1
  O  O14  1  0.41401400  0.76814300  0.36677400  1
  O  O15  1  0.91401400  0.73185700  0.13322600  1
  O  O16  1  0.99636700  0.25215500  0.32673900  1
  O  O17  1  0.49636700  0.24784500  0.17326100  1
  O  O18  1  0.50363300  0.75215500  0.67326100  1
  O  O19  1  0.00363300  0.74784500  0.82673900  1
  O  O20  1  0.00363300  0.74784500  0.67326100  1
  O  O21  1  0.50363300  0.75215500  0.82673900  1
  O  O22  1  0.49636700  0.24784500  0.32673900  1
  O  O23  1  0.99636700  0.25215500  0.17326100  1
  O  O24  1  0.99202000  0.93901300  0.33475700  1
  O  O25  1  0.49202000  0.56098700  0.16524300  1
  O  O26  1  0.50798000  0.43901300  0.66524300  1
  O  O27  1  0.00798000  0.06098700  0.83475700  1
  O  O28  1  0.00798000  0.06098700  0.66524300  1
  O  O29  1  0.50798000  0.43901300  0.83475700  1
  O  O30  1  0.49202000  0.56098700  0.33475700  1
  O  O31  1  0.99202000  0.93901300  0.16524300  1
  O  O32  1  0.99535700  0.53294700  0.33301900  1
  O  O33  1  0.49535700  0.96705300  0.16698100  1
  O  O34  1  0.50464300  0.03294700  0.66698100  1
  O  O35  1  0.00464300  0.46705300  0.83301900  1
  O  O36  1  0.00464300  0.46705300  0.66698100  1
  O  O37  1  0.50464300  0.03294700  0.83301900  1
  O  O38  1  0.49535700  0.96705300  0.33301900  1
  O  O39  1  0.99535700  0.53294700  0.16698100  1
  O  O40  1  0.68194000  0.40517200  0.39993400  1
  O  O41  1  0.18194000  0.09482800  0.10006600  1
  O  O42  1  0.81806000  0.90517200  0.60006600  1
  O  O43  1  0.31806000  0.59482800  0.89993400  1
  O  O44  1  0.31806000  0.59482800  0.60006600  1
  O  O45  1  0.81806000  0.90517200  0.89993400  1
  O  O46  1  0.18194000  0.09482800  0.39993400  1
  O  O47  1  0.68194000  0.40517200  0.10006600  1
  O  O48  1  0.76073800  0.57231800  0.47278700  1
  O  O49  1  0.26073800  0.92768200  0.02721300  1
  O  O50  1  0.73926200  0.07231800  0.52721300  1
  O  O51  1  0.23926200  0.42768200  0.97278700  1
  O  O52  1  0.23926200  0.42768200  0.52721300  1
  O  O53  1  0.73926200  0.07231800  0.97278700  1
  O  O54  1  0.26073800  0.92768200  0.47278700  1
  O  O55  1  0.76073800  0.57231800  0.02721300  1
  O  O56  1  0.69029500  0.83242600  0.25000000  1
  O  O57  1  0.19029500  0.66757400  0.25000000  1
  O  O58  1  0.80970500  0.33242600  0.75000000  1
  O  O59  1  0.30970500  0.16757400  0.75000000  1
  O  O60  1  0.80397400  0.07810900  0.25000000  1
  O  O61  1  0.30397400  0.42189100  0.25000000  1
  O  O62  1  0.69602600  0.57810900  0.75000000  1
  O  O63  1  0.19602600  0.92189100  0.75000000  1
loop_
_geom_bond_atom_site_label_1
_geom_bond_atom_site_label_2
_geom_bond_distance
_geom_bond_site_symmetry_2
Bi0 O57 2.228085 1_655
Bi0 O8 2.263130 1_555
Bi0 O15 2.263130 1_555
Bi0 O56 2.317877 1_555
Bi1 O56 2.228085 1_555
Bi1 O14 2.263130 1_555
Bi1 O9 2.263130 1_555
Bi1 O57 2.317877 1_555
Bi2 O59 2.228085 1_555
Bi2 O13 2.263130 1_555
Bi2 O10 2.263130 1_555
Bi2 O58 2.317877 1_555
Bi3 O58 2.228085 1_455
Bi3 O11 2.263130 1_555
Bi3 O12 2.263130 1_555
Bi3 O59 2.317877 1_555
Bi4 O22 2.252035 1_555
Bi4 O17 2.252035 1_555
Bi4 O23 2.307027 1_555
Bi4 O16 2.307027 1_555
Bi5 O16 2.252035 1_455
Bi5 O23 2.252035 1_455
Bi5 O17 2.307027 1_555
Bi5 O22 2.307027 1_555
Bi6 O19 2.252035 1_655
Bi6 O20 2.252035 1_655
Bi6 O18 2.307027 1_555
Bi6 O21 2.307027 1_555
Bi7 O21 2.252035 1_555
Bi7 O18 2.252035 1_555
Bi7 O20 2.307027 1_555
Bi7 O19 2.307027 1_555
Bi8 O3 2.202483 1_655
Bi8 O16 2.314738 1_555
Bi8 O5 2.399870 1_555
Bi8 O22 2.492327 1_555
Bi8 O50 2.494338 1_555
Bi8 O46 2.499094 1_655
Bi9 O2 2.202483 1_555
Bi9 O17 2.314738 1_555
Bi9 O4 2.399870 1_555
Bi9 O23 2.492327 1_455
Bi9 O51 2.494338 1_554
Bi9 O47 2.499094 1_555
Bi10 O1 2.202483 1_555
Bi10 O18 2.314738 1_555
Bi10 O7 2.399870 1_555
Bi10 O20 2.492327 1_655
Bi10 O48 2.494338 1_555
Bi10 O44 2.499094 1_555
Bi11 O0 2.202483 1_455
Bi11 O19 2.314738 1_555
Bi11 O6 2.399870 1_555
Bi11 O21 2.492327 1_555
Bi11 O49 2.494338 1_556
Bi11 O45 2.499094 1_455
Bi12 O7 2.202483 1_455
Bi12 O20 2.314738 1_555
Bi12 O1 2.399870 1_555
Bi12 O18 2.492327 1_555
Bi12 O54 2.494338 1_555
Bi12 O42 2.499094 1_455
Bi13 O6 2.202483 1_555
Bi13 O21 2.314738 1_555
Bi13 O0 2.399870 1_555
Bi13 O19 2.492327 1_655
Bi13 O55 2.494338 1_556
Bi13 O43 2.499094 1_555
Bi14 O5 2.202483 1_555
Bi14 O22 2.314738 1_555
Bi14 O3 2.399870 1_555
Bi14 O16 2.492327 1_455
Bi14 O52 2.494338 1_555
Bi14 O40 2.499094 1_555
Bi15 O4 2.202483 1_655
Bi15 O23 2.314738 1_555
Bi15 O2 2.399870 1_555
Bi15 O17 2.492327 1_555
Bi15 O53 2.494338 1_554
Bi15 O41 2.499094 1_655
Bi16 O8 2.167319 1_555
Bi16 O14 2.196062 1_555
Bi16 O1 2.296142 1_555
Bi16 O7 2.486685 1_555
Bi17 O9 2.167319 1_555
Bi17 O15 2.196062 1_455
Bi17 O0 2.296142 1_454
Bi17 O6 2.486685 1_554
Bi18 O10 2.167319 1_555
Bi18 O12 2.196062 1_655
Bi18 O3 2.296142 1_655
Bi18 O5 2.486685 1_555
Bi19 O11 2.167319 1_555
Bi19 O13 2.196062 1_555
Bi19 O2 2.296142 1_556
Bi19 O4 2.486685 1_556
Bi20 O12 2.167319 1_555
Bi20 O10 2.196062 1_555
Bi20 O5 2.296142 1_555
Bi20 O3 2.486685 1_555
Bi21 O13 2.167319 1_555
Bi21 O11 2.196062 1_655
Bi21 O4 2.296142 1_656
Bi21 O2 2.486685 1_556
Bi22 O14 2.167319 1_555
Bi22 O8 2.196062 1_455
Bi22 O7 2.296142 1_455
Bi22 O1 2.486685 1_555
Bi23 O15 2.167319 1_555
Bi23 O9 2.196062 1_555
Bi23 O6 2.296142 1_554
Bi23 O0 2.486685 1_554
O24 V10 1.765508 1_655
O24 V0 2.038844 1_555
O25 V11 1.765508 1_555
O25 V1 2.038844 1_555
O26 V8 1.765508 1_555
O26 V2 2.038844 1_555
O27 V9 1.765508 1_455
O27 V3 2.038844 1_555
O28 V6 1.765508 1_455
O28 V3 2.038844 1_555
O29 V7 1.765508 1_555
O29 V2 2.038844 1_555
O30 V4 1.765508 1_555
O30 V1 2.038844 1_555
O31 V5 1.765508 1_655
O31 V0 2.038844 1_555
O32 V4 1.762364 1_555
O32 V1 2.042375 1_655
O33 V5 1.762364 1_555
O33 V0 2.042375 1_555
O34 V6 1.762364 1_555
O34 V3 2.042375 1_555
O35 V7 1.762364 1_555
O35 V2 2.042375 1_455
O36 V8 1.762364 1_555
O36 V2 2.042375 1_455
O37 V9 1.762364 1_555
O37 V3 2.042375 1_555
O38 V10 1.762364 1_555
O38 V0 2.042375 1_555
O39 V11 1.762364 1_555
O39 V1 2.042375 1_655
O40 V4 1.738282 1_555
O41 V5 1.738282 1_545
O42 V6 1.738282 1_565
O43 V7 1.738282 1_555
O44 V8 1.738282 1_555
O45 V9 1.738282 1_565
O46 V10 1.738282 1_545
O47 V11 1.738282 1_555
O48 V4 1.720536 1_555
O49 V5 1.720536 1_555
O50 V6 1.720536 1_555
O51 V7 1.720536 1_555
O52 V8 1.720536 1_555
O53 V9 1.720536 1_555
O54 V10 1.720536 1_555
O55 V11 1.720536 1_555
O56 V0 2.080340 1_555
O57 V1 2.080340 1_555
O58 V2 2.080340 1_555
O59 V3 2.080340 1_555
O60 V0 1.716278 1_545
O61 V1 1.716278 1_555
O62 V2 1.716278 1_555
O63 V3 1.716278 1_565
