# generated using pymatgen
data_Mg(CoS2)4
_symmetry_space_group_name_H-M   'P 1'
_cell_length_a   6.83109009
_cell_length_b   6.91270096
_cell_length_c   6.86719055
_cell_angle_alpha   59.79391350
_cell_angle_beta   59.34994877
_cell_angle_gamma   59.61638862
_symmetry_Int_Tables_number   1
_chemical_formula_structural   Mg(CoS2)4
_chemical_formula_sum   'Mg1 Co4 S8'
_cell_volume   227.13795591
_cell_formula_units_Z   1
loop_
 _symmetry_equiv_pos_site_id
 _symmetry_equiv_pos_as_xyz
  1  'x, y, z'
loop_
 _atom_site_type_symbol
 _atom_site_label
 _atom_site_symmetry_multiplicity
 _atom_site_fract_x
 _atom_site_fract_y
 _atom_site_fract_z
 _atom_site_occupancy
  Mg  Mg0  1  0.86950500  0.87874500  0.87266300  1
  Co  Co0  1  0.49817000  0.00467600  0.49810700  1
  Co  Co1  1  0.00875500  0.49735100  0.49639100  1
  Co  Co2  1  0.49705400  0.49791700  0.00702200  1
  Co  Co3  1  0.49838200  0.49909500  0.49829100  1
  S  S0  1  0.73284200  0.73168900  0.73217800  1
  S  S1  1  0.26862500  0.26773000  0.69620600  1
  S  S2  1  0.26732300  0.70095100  0.26661000  1
  S  S3  1  0.69364800  0.26882300  0.26898200  1
  S  S4  1  0.26708800  0.26516200  0.26632900  1
  S  S5  1  0.73364400  0.73246200  0.30164400  1
  S  S6  1  0.30192400  0.73257600  0.73315100  1
  S  S7  1  0.73303900  0.30282200  0.73242600  1
loop_
_geom_bond_atom_site_label_1
_geom_bond_atom_site_label_2
_geom_bond_distance
_geom_bond_site_symmetry_2
Mg0 S7 2.387559 1_565
Mg0 S0 2.387617 1_555
Mg0 S5 2.393008 1_556
Mg0 S6 2.394520 1_655
Co0 S3 2.241946 1_555
Co0 S1 2.246307 1_555
Co0 S4 2.251685 1_555
Co0 S5 2.286596 1_545
Co0 S0 2.286831 1_545
Co0 S6 2.286923 1_545
Co1 S1 2.235013 1_555
Co1 S2 2.242523 1_555
Co1 S4 2.242791 1_555
Co1 S0 2.288549 1_455
Co1 S7 2.288901 1_455
Co1 S5 2.290754 1_455
Co2 S3 2.234462 1_555
Co2 S2 2.246680 1_555
Co2 S4 2.247047 1_555
Co2 S0 2.287459 1_554
Co2 S7 2.287735 1_554
Co2 S6 2.290020 1_554
Co3 S3 2.241771 1_555
Co3 S1 2.246225 1_555
Co3 S2 2.251278 1_555
Co3 S5 2.286166 1_555
Co3 S7 2.286529 1_555
Co3 S6 2.286602 1_555
