# generated using pymatgen
data_Sr8MgMn6O20
_symmetry_space_group_name_H-M   'P 1'
_cell_length_a   5.71157447
_cell_length_b   6.76609198
_cell_length_c   13.67036957
_cell_angle_alpha   92.27393854
_cell_angle_beta   86.05908702
_cell_angle_gamma   114.31237909
_symmetry_Int_Tables_number   1
_chemical_formula_structural   Sr8MgMn6O20
_chemical_formula_sum   'Sr8 Mg1 Mn6 O20'
_cell_volume   480.26401393
_cell_formula_units_Z   1
loop_
 _symmetry_equiv_pos_site_id
 _symmetry_equiv_pos_as_xyz
  1  'x, y, z'
loop_
 _atom_site_type_symbol
 _atom_site_label
 _atom_site_symmetry_multiplicity
 _atom_site_fract_x
 _atom_site_fract_y
 _atom_site_fract_z
 _atom_site_occupancy
  Sr  Sr0  1  0.24774500  0.47801900  0.12735600  1
  Sr  Sr1  1  0.77754600  0.50270500  0.93583200  1
  Sr  Sr2  1  0.72418600  0.48668100  0.35929300  1
  Sr  Sr3  1  0.20027800  0.50823500  0.55028500  1
  Sr  Sr4  1  0.88664800  0.91594100  0.59835000  1
  Sr  Sr5  1  0.01152000  0.06175800  0.35169800  1
  Sr  Sr6  1  0.53596200  0.05376900  0.14243700  1
  Sr  Sr7  1  0.52924400  0.93722900  0.88971900  1
  Mg  Mg0  1  0.12276000  0.74272800  0.74887300  1
  Mn  Mn0  1  0.64015900  0.26217900  0.66960400  1
  Mn  Mn1  1  0.35967100  0.75491200  0.34450800  1
  Mn  Mn2  1  0.87837700  0.74519800  0.15554700  1
  Mn  Mn3  1  0.15001300  0.25736500  0.83525700  1
  Mn  Mn4  1  0.45214000  0.01702600  0.49760200  1
  Mn  Mn5  1  0.04167000  0.00493900  0.00370100  1
  O  O0  1  0.47556600  0.28093100  0.78987200  1
  O  O1  1  0.14806100  0.77995300  0.25059000  1
  O  O2  1  0.62827400  0.76682700  0.25267600  1
  O  O3  1  0.89654200  0.16749500  0.74176600  1
  O  O4  1  0.12812600  0.78834500  0.45391200  1
  O  O5  1  0.29924500  0.20560300  0.52254200  1
  O  O6  1  0.38256500  0.20681000  0.99383000  1
  O  O7  1  0.13511700  0.77510900  0.04240300  1
  O  O8  1  0.77533700  0.21910400  0.53656400  1
  O  O9  1  0.59043000  0.78926900  0.46092600  1
  O  O10  1  0.67496500  0.78952000  0.02755900  1
  O  O11  1  0.93092400  0.21870900  0.95827400  1
  O  O12  1  0.85047500  0.56813500  0.66378200  1
  O  O13  1  0.20041200  0.45174000  0.34676500  1
  O  O14  1  0.02077400  0.07188600  0.14331300  1
  O  O15  1  0.05022800  0.92637800  0.86021800  1
  O  O16  1  0.39138300  0.93155800  0.64398500  1
  O  O17  1  0.74399800  0.44243600  0.16120400  1
  O  O18  1  0.22377700  0.55821100  0.83039400  1
  O  O19  1  0.52683700  0.08329500  0.35936400  1
loop_
_geom_bond_atom_site_label_1
_geom_bond_atom_site_label_2
_geom_bond_distance
_geom_bond_site_symmetry_2
Mg0 O12 1.947827 1_455
Mg0 O18 1.981260 1_555
Mg0 O15 2.054176 1_555
Mg0 O16 2.066677 1_555
Mn0 O0 1.863373 1_555
Mn0 O12 1.920168 1_555
Mn0 O8 1.984680 1_555
Mn0 O16 2.129498 1_545
Mn0 O3 2.132855 1_555
Mn1 O13 1.871068 1_555
Mn1 O1 1.880703 1_555
Mn1 O2 1.891438 1_555
Mn1 O4 1.996135 1_555
Mn1 O19 2.033124 1_565
Mn1 O9 2.081017 1_555
Mn2 O17 1.871162 1_555
Mn2 O2 1.928990 1_555
Mn2 O7 2.013036 1_655
Mn2 O1 2.017073 1_655
Mn2 O14 2.026241 1_665
Mn2 O10 2.260289 1_555
Mn3 O0 1.863584 1_555
Mn3 O3 1.888612 1_455
Mn3 O18 1.904236 1_555
Mn3 O11 1.984563 1_455
Mn3 O15 2.107011 1_545
Mn3 O6 2.721965 1_555
Mn4 O5 1.829994 1_555
Mn4 O8 1.886744 1_555
Mn4 O19 1.937311 1_555
Mn4 O4 1.973928 1_545
Mn4 O9 2.033842 1_545
Mn4 O16 2.071331 1_545
Mn5 O6 1.861049 1_554
Mn5 O11 1.938142 1_454
Mn5 O7 1.941775 1_545
Mn5 O14 1.951046 1_555
Mn5 O10 2.011887 1_445
Mn5 O15 2.014389 1_544
O0 Sr1 2.704105 1_555
O0 Sr7 2.874299 1_545
O1 Sr6 2.629472 1_565
O1 Sr5 2.649776 1_565
O1 Sr2 2.791177 1_455
O1 Sr0 2.808651 1_555
O2 Sr2 2.683519 1_555
O2 Sr5 2.683683 1_665
O2 Sr6 2.739100 1_565
O2 Sr0 2.868140 1_555
O3 Sr4 2.532807 1_545
O3 Sr7 2.809742 1_545
O4 Sr3 2.532465 1_555
O4 Sr4 2.648994 1_455
O4 Sr5 2.676909 1_565
O4 Sr2 2.735896 1_455
O5 Sr3 2.349071 1_555
O5 Sr4 2.547739 1_445
O5 Sr5 2.851777 1_555
O5 Sr2 3.206157 1_555
O6 Sr1 2.426370 1_555
O6 Sr7 2.634927 1_545
O6 Sr6 2.669367 1_556
O6 Sr0 2.827841 1_556
O7 Sr1 2.605162 1_454
O7 Sr0 2.675046 1_555
O7 Sr6 2.708854 1_565
O7 Sr7 2.851283 1_554
O8 Sr3 2.424203 1_655
O8 Sr4 2.571042 1_545
O8 Sr5 3.136921 1_655
O8 Sr2 3.180686 1_555
O9 Sr4 2.498277 1_555
O9 Sr3 2.528779 1_555
O9 Sr5 2.736204 1_665
O9 Sr2 2.760765 1_555
O10 Sr7 2.508418 1_554
O10 Sr1 2.514714 1_554
O10 Sr6 2.658553 1_565
O10 Sr0 2.791649 1_555
O11 Sr1 2.454321 1_555
O11 Sr7 2.514955 1_545
O11 Sr0 3.055202 1_656
O11 Sr6 3.168886 1_556
O12 Sr4 2.474273 1_555
O12 Sr3 2.598850 1_655
O13 Sr5 2.406457 1_555
O13 Sr3 2.793255 1_555
O13 Sr2 2.818843 1_455
O13 Sr2 2.918833 1_555
O13 Sr0 2.998732 1_555
O14 Sr0 2.520849 1_555
O14 Sr6 2.721708 1_455
O14 Sr5 2.848577 1_555
O14 Sr6 2.994283 1_555
O15 Sr7 2.763565 1_555
O15 Sr1 2.837107 1_455
O15 Sr7 3.005836 1_455
O16 Sr3 2.891842 1_555
O16 Sr4 2.898355 1_555
O16 Sr4 2.949952 1_455
O17 Sr6 2.410123 1_555
O17 Sr2 2.712353 1_555
O17 Sr0 2.793875 1_655
O17 Sr0 3.009457 1_555
O17 Sr1 3.106328 1_554
O18 Sr7 2.573609 1_555
O18 Sr1 2.732073 1_455
O19 Sr2 2.487308 1_555
O19 Sr5 2.826093 1_655
O19 Sr5 2.895356 1_555
O19 Sr6 2.962595 1_555
