# generated using pymatgen
data_Dy2MgNb2O8
_symmetry_space_group_name_H-M   'P 1'
_cell_length_a   3.97177540
_cell_length_b   7.51214436
_cell_length_c   7.40817167
_cell_angle_alpha   66.82111876
_cell_angle_beta   90.00096647
_cell_angle_gamma   74.70717278
_symmetry_Int_Tables_number   1
_chemical_formula_structural   Dy2MgNb2O8
_chemical_formula_sum   'Dy2 Mg1 Nb2 O8'
_cell_volume   194.64925091
_cell_formula_units_Z   1
loop_
 _symmetry_equiv_pos_site_id
 _symmetry_equiv_pos_as_xyz
  1  'x, y, z'
loop_
 _atom_site_type_symbol
 _atom_site_label
 _atom_site_symmetry_multiplicity
 _atom_site_fract_x
 _atom_site_fract_y
 _atom_site_fract_z
 _atom_site_occupancy
  Dy  Dy0  1  0.18273848  0.64370844  0.76532657  1
  Dy  Dy1  1  0.82145542  0.36563346  0.19949234  1
  Mg  Mg0  1  0.30704129  0.39415858  0.50706393  1
  Nb  Nb0  1  0.09851110  0.80566424  0.15934770  1
  Nb  Nb1  1  0.91449563  0.17726322  0.84968857  1
  O  O0  1  0.05121471  0.90934819  0.83384316  1
  O  O1  1  0.16234497  0.68415062  0.46448311  1
  O  O2  1  0.75338725  0.50193415  0.86240879  1
  O  O3  1  0.62288889  0.76383042  0.14494652  1
  O  O4  1  0.37794618  0.25291109  0.81253155  1
  O  O5  1  0.26490233  0.47888989  0.20147399  1
  O  O6  1  0.85408777  0.29996269  0.52712666  1
  O  O7  1  0.96247998  0.08609201  0.15724810  1
loop_
_geom_bond_atom_site_label_1
_geom_bond_atom_site_label_2
_geom_bond_distance
_geom_bond_site_symmetry_2
Dy0 O1 2.126020 1_555
Dy0 O0 2.181770 1_555
Dy0 O2 2.216336 1_555
Dy0 O2 2.216901 1_455
Dy0 O4 2.707961 1_555
Dy0 O5 2.952425 1_556
Dy1 O5 2.150916 1_655
Dy1 O5 2.151316 1_555
Dy1 O7 2.172181 1_555
Dy1 O6 2.274862 1_555
Dy1 O2 2.280026 1_554
Dy1 O3 2.745402 1_555
Mg0 O1 1.993515 1_555
Mg0 O4 2.068405 1_555
Mg0 O6 2.085199 1_455
Mg0 O6 2.085620 1_555
Mg0 O5 2.089899 1_555
Nb0 O3 2.004558 1_455
Nb0 O7 2.025780 1_465
Nb0 O3 2.031986 1_555
Nb0 O1 2.064199 1_555
Nb0 O0 2.213829 1_554
Nb0 O5 2.258590 1_555
Nb1 O0 1.992172 1_645
Nb1 O4 2.044044 1_555
Nb1 O4 2.053201 1_655
Nb1 O7 2.097487 1_556
Nb1 O6 2.183292 1_555
Nb1 O2 2.392614 1_555
