# generated using pymatgen
data_MgV4(CuS4)2
_symmetry_space_group_name_H-M   'P 1'
_cell_length_a   7.34445674
_cell_length_b   7.34445647
_cell_length_c   6.96494100
_cell_angle_alpha   61.69511979
_cell_angle_beta   61.69512095
_cell_angle_gamma   56.44609535
_symmetry_Int_Tables_number   1
_chemical_formula_structural   MgV4(CuS4)2
_chemical_formula_sum   'Mg1 V4 Cu2 S8'
_cell_volume   263.89151809
_cell_formula_units_Z   1
loop_
 _symmetry_equiv_pos_site_id
 _symmetry_equiv_pos_as_xyz
  1  'x, y, z'
loop_
 _atom_site_type_symbol
 _atom_site_label
 _atom_site_symmetry_multiplicity
 _atom_site_fract_x
 _atom_site_fract_y
 _atom_site_fract_z
 _atom_site_occupancy
  Mg  Mg0  1  0.09222500  0.09222500  0.65777500  1
  V  V0  1  0.48935000  0.48935000  0.02947600  1
  V  V1  1  0.02628400  0.57529200  0.44921200  1
  V  V2  1  0.48935000  0.48935000  0.49182300  1
  V  V3  1  0.57529200  0.02628400  0.44921200  1
  Cu  Cu0  1  0.15285300  0.15285300  0.09714700  1
  Cu  Cu1  1  0.83555500  0.83555500  0.91444500  1
  S  S0  1  0.25703700  0.76467200  0.23914600  1
  S  S1  1  0.72332800  0.72332800  0.75232300  1
  S  S2  1  0.26701800  0.26701800  0.25851600  1
  S  S3  1  0.72332800  0.72332800  0.30101900  1
  S  S4  1  0.24542500  0.69311600  0.78072800  1
  S  S5  1  0.26701800  0.26701800  0.70745000  1
  S  S6  1  0.76467200  0.25703700  0.23914600  1
  S  S7  1  0.69311600  0.24542500  0.78072800  1
loop_
_geom_bond_atom_site_label_1
_geom_bond_atom_site_label_2
_geom_bond_distance
_geom_bond_site_symmetry_2
Mg0 S4 2.340703 1_545
Mg0 S7 2.340703 1_455
Mg0 S2 2.465759 1_555
Mg0 S5 2.465768 1_555
Cu0 S5 2.287753 1_554
Cu0 S2 2.287765 1_555
Cu0 S0 2.307359 1_545
Cu0 S6 2.307360 1_455
Cu1 S3 2.269360 1_556
Cu1 S1 2.269372 1_555
Cu1 S7 2.409890 1_565
Cu1 S4 2.409890 1_655
S0 V1 2.296060 1_555
S0 V2 2.399188 1_555
S0 V0 2.399198 1_555
S1 V3 2.374381 1_565
S1 V1 2.374382 1_655
S1 V0 2.570056 1_556
S2 V0 2.425810 1_555
S2 V1 2.493174 1_555
S2 V3 2.493174 1_555
S3 V3 2.374391 1_565
S3 V1 2.374391 1_655
S3 V2 2.570055 1_555
S4 V2 2.443667 1_555
S4 V0 2.443678 1_556
S5 V2 2.425809 1_555
S5 V1 2.493182 1_555
S5 V3 2.493182 1_555
S6 V3 2.296060 1_555
S6 V2 2.399188 1_555
S6 V0 2.399198 1_555
S7 V2 2.443667 1_555
S7 V0 2.443678 1_556
