# generated using pymatgen
data_Na8Hf2Al2Si5SO24
_symmetry_space_group_name_H-M   'P 1'
_cell_length_a   9.03712123
_cell_length_b   9.01376522
_cell_length_c   22.10308798
_cell_angle_alpha   89.77501215
_cell_angle_beta   89.78615718
_cell_angle_gamma   119.71132923
_symmetry_Int_Tables_number   1
_chemical_formula_structural   Na8Hf2Al2Si5SO24
_chemical_formula_sum   'Na24 Hf6 Al6 Si15 S3 O72'
_cell_volume   1563.73537382
_cell_formula_units_Z   3
loop_
 _symmetry_equiv_pos_site_id
 _symmetry_equiv_pos_as_xyz
  1  'x, y, z'
loop_
 _atom_site_type_symbol
 _atom_site_label
 _atom_site_symmetry_multiplicity
 _atom_site_fract_x
 _atom_site_fract_y
 _atom_site_fract_z
 _atom_site_occupancy
  Na  Na0  1  0.63888556  0.00156550  0.25271565  1
  Na  Na1  1  0.36097767  0.36255751  0.24688310  1
  Na  Na2  1  0.00006662  0.63593049  0.24986232  1
  Na  Na3  1  0.63469401  0.63599309  0.74750632  1
  Na  Na4  1  0.99944579  0.36332747  0.75047254  1
  Na  Na5  1  0.36620265  0.00284154  0.75038472  1
  Na  Na6  1  0.30343206  0.33805834  0.58458673  1
  Na  Na7  1  0.03531459  0.69876037  0.58191375  1
  Na  Na8  1  0.66419025  0.96480987  0.58224316  1
  Na  Na9  1  0.28785196  0.96487659  0.08168313  1
  Na  Na10  1  0.66828970  0.69349120  0.08627035  1
  Na  Na11  1  0.04152568  0.33560368  0.08660487  1
  Na  Na12  1  0.97417426  0.66807585  0.91669864  1
  Na  Na13  1  0.70213661  0.04158854  0.91158155  1
  Na  Na14  1  0.32243106  0.28692117  0.91858159  1
  Na  Na15  1  0.96181251  0.29440533  0.41140406  1
  Na  Na16  1  0.32834430  0.02170183  0.41516927  1
  Na  Na17  1  0.71381595  0.68080395  0.41685690  1
  Na  Na18  1  0.99363740  0.99194888  0.49893099  1
  Na  Na19  1  0.01416384  0.00545470  0.00013063  1
  Na  Na20  1  0.66679553  0.32611505  0.83441383  1
  Na  Na21  1  0.67440304  0.33138261  0.33201657  1
  Na  Na22  1  0.32631770  0.65733397  0.16442804  1
  Na  Na23  1  0.33493245  0.66689401  0.66335667  1
  Hf  Hf0  1  0.99962982  0.00059682  0.64790091  1
  Hf  Hf1  1  0.66933799  0.33486753  0.68601545  1
  Hf  Hf2  1  0.66884670  0.34359472  0.18664395  1
  Hf  Hf3  1  0.67435865  0.33262706  0.48256709  1
  Hf  Hf4  1  0.32987502  0.67211602  0.31098755  1
  Hf  Hf5  1  0.32377069  0.67016857  0.81569032  1
  Al  Al0  1  0.98675375  0.98380479  0.34819536  1
  Al  Al1  1  0.01553431  0.01346348  0.85011385  1
  Al  Al2  1  0.01389178  0.99871397  0.15113362  1
  Al  Al3  1  0.66339689  0.33315472  0.98292579  1
  Al  Al4  1  0.29368979  0.64232005  0.01707474  1
  Al  Al5  1  0.33833692  0.68730984  0.52207722  1
  Si  Si0  1  0.28092461  0.00291198  0.25108728  1
  Si  Si1  1  0.71992724  0.72151076  0.24824135  1
  Si  Si2  1  0.99937283  0.27441608  0.24961477  1
  Si  Si3  1  0.29208802  0.29157903  0.75261536  1
  Si  Si4  1  0.99669886  0.71428144  0.75465902  1
  Si  Si5  1  0.71366419  0.99892043  0.75484418  1
  Si  Si6  1  0.97490943  0.34242096  0.58182420  1
  Si  Si7  1  0.37130076  0.03536640  0.58207451  1
  Si  Si8  1  0.65790343  0.62958615  0.58096944  1
  Si  Si9  1  0.95780463  0.62956079  0.07956313  1
  Si  Si10  1  0.37126384  0.33735486  0.07898028  1
  Si  Si11  1  0.02796476  0.36188999  0.91964416  1
  Si  Si12  1  0.33592831  0.96416744  0.92193135  1
  Si  Si13  1  0.62935472  0.95540962  0.41763712  1
  Si  Si14  1  0.04439979  0.67458486  0.41834988  1
  S  S0  1  0.66595976  0.04084124  0.08101109  1
  S  S1  1  0.62438804  0.66560122  0.91972713  1
  S  S2  1  0.33070949  0.37427870  0.41758817  1
  O  O0  1  0.19550694  0.03478150  0.31094481  1
  O  O1  1  0.83186260  0.79625386  0.30924929  1
  O  O2  1  0.97076012  0.16127623  0.31092430  1
  O  O3  1  0.20415758  0.16913808  0.81095099  1
  O  O4  1  0.96845643  0.80782492  0.81257216  1
  O  O5  1  0.83712230  0.02829528  0.81215956  1
  O  O6  1  0.78975794  0.96443034  0.69234403  1
  O  O7  1  0.17559683  0.21440552  0.69180648  1
  O  O8  1  0.03556677  0.82632187  0.69238590  1
  O  O9  1  0.80589749  0.83992429  0.18846330  1
  O  O10  1  0.02875791  0.18967220  0.18885810  1
  O  O11  1  0.16802641  0.96500935  0.19022605  1
  O  O12  1  0.88645888  0.37766819  0.64115565  1
  O  O13  1  0.49421862  0.12373646  0.64110642  1
  O  O14  1  0.62599149  0.50795314  0.64106089  1
  O  O15  1  0.87832785  0.50514069  0.14011236  1
  O  O16  1  0.63527878  0.11711091  0.13662112  1
  O  O17  1  0.49174482  0.37145436  0.13998634  1
  O  O18  1  0.47002068  0.30246588  0.02343581  1
  O  O19  1  0.82920791  0.52998798  0.02328124  1
  O  O20  1  0.69267062  0.15311442  0.02809351  1
  O  O21  1  0.45622785  0.16011232  0.52306145  1
  O  O22  1  0.69672567  0.54156941  0.52285283  1
  O  O23  1  0.84492947  0.29863890  0.52437296  1
  O  O24  1  0.53969210  0.69246571  0.97247786  1
  O  O25  1  0.15958802  0.45340450  0.97568207  1
  O  O26  1  0.30779345  0.83010538  0.97763410  1
  O  O27  1  0.53326415  0.83150301  0.47569760  1
  O  O28  1  0.30823803  0.45866276  0.47153258  1
  O  O29  1  0.16793025  0.69939720  0.47577625  1
  O  O30  1  0.12384198  0.62957851  0.35843004  1
  O  O31  1  0.50886096  0.86898188  0.35779117  1
  O  O32  1  0.35934208  0.48036717  0.36213824  1
  O  O33  1  0.11552289  0.48859372  0.86024805  1
  O  O34  1  0.37713501  0.88406505  0.86094757  1
  O  O35  1  0.51911073  0.63723479  0.86415180  1
  O  O36  1  0.02913372  0.84842988  0.41075750  1
  O  O37  1  0.82204755  0.98019677  0.41097968  1
  O  O38  1  0.17884690  0.20428337  0.41315659  1
  O  O39  1  0.01151511  0.17225185  0.91135126  1
  O  O40  1  0.15888219  0.97406131  0.91340183  1
  O  O41  1  0.79557591  0.81884647  0.91404657  1
  O  O42  1  0.98658027  0.16845882  0.58584380  1
  O  O43  1  0.18326837  0.01748019  0.58604698  1
  O  O44  1  0.83085316  0.81571245  0.58610914  1
  O  O45  1  0.97386421  0.81940323  0.08810609  1
  O  O46  1  0.82181511  0.02630845  0.08572191  1
  O  O47  1  0.18095055  0.16573569  0.08780190  1
  O  O48  1  0.69403754  0.17040006  0.74896393  1
  O  O49  1  0.48096008  0.30871023  0.74744152  1
  O  O50  1  0.82882477  0.52342197  0.74929697  1
  O  O51  1  0.69630697  0.52629447  0.24501905  1
  O  O52  1  0.82903699  0.29920593  0.24473580  1
  O  O53  1  0.47627620  0.16768340  0.24525630  1
  O  O54  1  0.64115886  0.50891972  0.92360204  1
  O  O55  1  0.84083039  0.35039006  0.92861359  1
  O  O56  1  0.50692566  0.15572442  0.92826485  1
  O  O57  1  0.64239373  0.14595682  0.41971785  1
  O  O58  1  0.48725412  0.35766660  0.42039377  1
  O  O59  1  0.85021490  0.50442650  0.42038394  1
  O  O60  1  0.35954350  0.51598327  0.07151963  1
  O  O61  1  0.15015914  0.64892133  0.07508973  1
  O  O62  1  0.51387937  0.86860537  0.07582793  1
  O  O63  1  0.35669383  0.84898971  0.57719152  1
  O  O64  1  0.48616732  0.64301427  0.57353703  1
  O  O65  1  0.15990722  0.51033835  0.57178934  1
  O  O66  1  0.30497049  0.83160984  0.25392952  1
  O  O67  1  0.52397960  0.69002975  0.25344624  1
  O  O68  1  0.16953065  0.46868662  0.25409049  1
  O  O69  1  0.31700483  0.48393195  0.75831047  1
  O  O70  1  0.16791874  0.69262002  0.75680131  1
  O  O71  1  0.52327423  0.82879401  0.75853742  1
loop_
_geom_bond_atom_site_label_1
_geom_bond_atom_site_label_2
_geom_bond_distance
_geom_bond_site_symmetry_2
Na0 O52 2.367668 1_555
Na0 O67 2.464359 1_545
Na0 O53 2.570943 1_555
Na0 O31 2.601683 1_545
Na0 O66 2.621126 1_545
Na0 O16 2.771943 1_555
Na0 O2 2.913135 1_555
Na0 O9 2.932206 1_545
Na1 O68 2.360850 1_555
Na1 O53 2.446823 1_555
Na1 O67 2.568787 1_555
Na1 O17 2.620934 1_555
Na1 O51 2.632198 1_555
Na1 O32 2.766608 1_555
Na1 O10 2.914427 1_555
Na1 O0 2.922672 1_555
Na2 O51 2.416119 1_455
Na2 O66 2.428394 1_555
Na2 O68 2.629665 1_555
Na2 O52 2.639652 1_455
Na2 O30 2.663719 1_555
Na2 O15 2.691000 1_455
Na2 O1 2.880889 1_455
Na2 O11 2.886409 1_555
Na3 O71 2.414450 1_555
Na3 O50 2.423597 1_555
Na3 O69 2.503976 1_555
Na3 O49 2.563263 1_555
Na3 O14 2.608918 1_555
Na3 O35 2.780314 1_555
Na3 O6 2.839224 1_555
Na4 O48 2.426175 1_555
Na4 O69 2.521971 1_655
Na4 O50 2.581907 1_555
Na4 O70 2.583195 1_655
Na4 O12 2.654115 1_555
Na4 O33 2.670027 1_655
Na4 O7 2.852006 1_655
Na4 O5 2.948256 1_555
Na5 O49 2.417600 1_555
Na5 O70 2.465416 1_545
Na5 O48 2.573516 1_555
Na5 O71 2.591471 1_545
Na5 O13 2.658720 1_555
Na5 O34 2.685919 1_545
Na5 O3 2.891466 1_555
Na5 O8 2.904322 1_545
Na6 O64 2.415512 1_555
Na6 O65 2.483886 1_555
Na6 O42 2.489363 1_455
Na6 O43 2.533510 1_555
Na6 O7 2.622160 1_555
Na6 O28 2.712740 1_555
Na6 O14 2.831561 1_555
Na6 O21 2.920153 1_555
Na7 O65 2.469637 1_555
Na7 O43 2.498955 1_565
Na7 O63 2.525452 1_555
Na7 O44 2.542511 1_455
Na7 O29 2.629067 1_555
Na7 O8 2.702560 1_555
Na7 O12 2.828182 1_455
Na7 O22 2.970060 1_455
Na8 O63 2.439680 1_555
Na8 O44 2.467484 1_555
Na8 O64 2.533713 1_555
Na8 O42 2.562378 1_565
Na8 O27 2.650183 1_555
Na8 O6 2.689679 1_555
Na8 O13 2.878416 1_565
Na8 O23 2.905282 1_565
Na9 O47 2.442182 1_565
Na9 O45 2.469516 1_455
Na9 O61 2.484389 1_555
Na9 O62 2.588066 1_555
Na9 O11 2.628761 1_555
Na9 O26 2.652012 1_554
Na9 O18 2.935123 1_565
Na9 O16 2.997709 1_565
Na10 O45 2.410421 1_555
Na10 O60 2.457033 1_555
Na10 O62 2.583570 1_555
Na10 O46 2.607391 1_565
Na10 O9 2.609225 1_555
Na10 O24 2.772741 1_554
Na10 O17 2.783741 1_555
Na10 O19 2.889758 1_555
Na11 O47 2.417651 1_555
Na11 O46 2.495758 1_455
Na11 O61 2.499733 1_555
Na11 O60 2.524094 1_555
Na11 O10 2.583783 1_555
Na11 O25 2.667186 1_554
Na11 O15 2.853849 1_455
Na12 O40 2.415062 1_655
Na12 O55 2.508495 1_555
Na12 O41 2.574833 1_555
Na12 O54 2.617940 1_555
Na12 O4 2.632308 1_555
Na12 O19 2.674494 1_556
Na12 O33 2.803269 1_655
Na12 O26 2.952619 1_655
Na13 O39 2.437187 1_655
Na13 O55 2.452317 1_555
Na13 O56 2.470588 1_555
Na13 O41 2.535174 1_545
Na13 O5 2.541372 1_555
Na13 O20 2.784574 1_556
Na13 O34 2.792524 1_545
Na14 O40 2.454067 1_545
Na14 O39 2.472771 1_555
Na14 O56 2.485828 1_555
Na14 O54 2.569790 1_555
Na14 O3 2.615921 1_555
Na14 O18 2.647691 1_556
Na14 O25 2.863672 1_555
Na14 O35 2.994679 1_555
Na15 O37 2.463959 1_545
Na15 O38 2.467395 1_655
Na15 O57 2.514392 1_555
Na15 O2 2.548481 1_555
Na15 O59 2.556218 1_555
Na15 O23 2.715332 1_555
Na15 O30 2.866499 1_655
Na16 O36 2.361637 1_545
Na16 O57 2.484240 1_555
Na16 O38 2.596079 1_555
Na16 O0 2.630737 1_555
Na16 O58 2.634275 1_555
Na16 O21 2.682139 1_555
Na16 O29 2.848918 1_545
Na16 O31 2.896382 1_545
Na17 O37 2.374049 1_555
Na17 O59 2.448546 1_555
Na17 O36 2.479672 1_655
Na17 O1 2.596004 1_555
Na17 O58 2.601436 1_555
Na17 O22 2.621050 1_555
Na18 O36 2.449724 1_655
Na18 O44 2.457419 1_555
Na18 O37 2.460942 1_555
Na18 O43 2.516871 1_665
Na18 O42 2.519818 1_565
Na18 O38 2.613679 1_665
Na19 O40 2.411990 1_544
Na19 O47 2.449373 1_555
Na19 O45 2.467777 1_445
Na19 O39 2.474766 1_554
Na19 O46 2.634029 1_455
Na19 O41 2.666714 1_444
Na20 O48 2.440846 1_555
Na20 O50 2.493649 1_555
Na20 O49 2.511137 1_555
Na20 O56 2.549976 1_555
Na20 O55 2.558037 1_555
Na20 O54 2.656213 1_555
Na21 O57 2.475071 1_555
Na21 O52 2.478855 1_555
Na21 O59 2.522454 1_555
Na21 O51 2.539554 1_555
Na21 O53 2.547460 1_555
Na21 O58 2.666188 1_555
Na22 O60 2.515112 1_555
Na22 O61 2.518797 1_555
Na22 O68 2.528032 1_555
Na22 O67 2.580312 1_555
Na22 O66 2.596219 1_555
Na22 O62 2.661006 1_555
Na23 O63 2.452066 1_555
Na23 O64 2.475959 1_555
Na23 O65 2.534411 1_555
Na23 O69 2.618454 1_555
Na23 O70 2.631577 1_555
Na23 O71 2.653539 1_555
Hf0 O8 2.008948 1_645
Hf0 O6 2.009767 1_545
Hf0 O7 2.042806 1_655
Hf0 O42 2.084827 1_555
Hf0 O43 2.092254 1_655
Hf0 O44 2.117266 1_545
Hf1 O13 2.037817 1_555
Hf1 O14 2.042396 1_555
Hf1 O12 2.052831 1_555
Hf1 O49 2.092715 1_555
Hf1 O48 2.120743 1_555
Hf1 O50 2.127877 1_555
Hf2 O15 2.000789 1_555
Hf2 O51 2.013044 1_555
Hf2 O17 2.024069 1_555
Hf2 O53 2.110181 1_555
Hf2 O52 2.118605 1_555
Hf2 O16 2.210987 1_555
Hf3 O23 1.949451 1_555
Hf3 O22 2.004477 1_555
Hf3 O21 2.010579 1_555
Hf3 O59 2.083327 1_555
Hf3 O57 2.093779 1_555
Hf3 O58 2.278537 1_555
Hf4 O30 1.997014 1_555
Hf4 O66 2.004145 1_555
Hf4 O31 2.004277 1_555
Hf4 O67 2.102772 1_555
Hf4 O68 2.107486 1_555
Hf4 O32 2.186225 1_555
Hf5 O70 2.003269 1_555
Hf5 O34 2.011847 1_555
Hf5 O33 2.027486 1_555
Hf5 O71 2.074667 1_555
Hf5 O69 2.084662 1_555
Hf5 O35 2.209727 1_555
Al0 O1 1.798067 1_555
Al0 O2 1.865013 1_565
Al0 O0 1.890554 1_665
Al0 O36 2.000451 1_655
Al0 O37 2.019562 1_555
Al0 O38 2.376124 1_665
Al1 O3 1.797894 1_555
Al1 O4 1.881039 1_445
Al1 O5 1.882587 1_455
Al1 O39 1.987039 1_555
Al1 O40 2.055929 1_545
Al1 O41 2.351279 1_445
Al2 O11 1.790411 1_555
Al2 O10 1.859815 1_565
Al2 O9 1.890728 1_455
Al2 O45 2.031206 1_455
Al2 O47 2.054254 1_565
Al2 O46 2.368368 1_465
Al3 O18 1.854567 1_556
Al3 O19 1.891000 1_556
Al3 O55 1.942592 1_555
Al3 O56 1.950183 1_555
Al3 O20 2.028574 1_556
Al3 O54 2.137994 1_555
Al4 O25 1.783337 1_554
Al4 O61 1.842560 1_555
Al4 O26 1.847975 1_554
Al4 O60 1.940495 1_555
Al4 O24 2.258856 1_554
Al4 O62 2.413130 1_555
Al5 O63 1.846937 1_555
Al5 O27 1.884103 1_555
Al5 O29 1.899466 1_555
Al5 O64 1.942797 1_555
Al5 O65 1.943024 1_555
Al5 O28 2.243738 1_555
O0 Si0 1.626036 1_555
O1 Si1 1.623973 1_555
O2 Si2 1.633523 1_555
O3 Si3 1.619840 1_555
O4 Si4 1.622962 1_555
O5 Si5 1.624857 1_545
O6 Si5 1.638942 1_555
O7 Si3 1.640324 1_555
O8 Si4 1.634529 1_455
O9 Si1 1.627233 1_555
O10 Si2 1.632140 1_455
O11 Si0 1.623462 1_565
O12 Si6 1.645254 1_555
O13 Si7 1.647051 1_555
O14 Si8 1.649732 1_555
O15 Si9 1.657500 1_555
O16 S0 1.501120 1_555
O17 Si10 1.667538 1_555
O18 Si10 1.635769 1_555
O19 Si9 1.639908 1_555
O20 S0 1.482204 1_555
O21 Si7 1.637172 1_555
O22 Si8 1.638032 1_555
O23 Si6 1.644265 1_555
O24 S1 1.477570 1_555
O25 Si11 1.635816 1_555
O26 Si12 1.649898 1_555
O27 Si13 1.633221 1_555
O28 S2 1.483199 1_555
O29 Si14 1.634844 1_555
O30 Si14 1.649209 1_555
O31 Si13 1.649345 1_555
O32 S2 1.492202 1_555
O33 Si11 1.654893 1_555
O34 Si12 1.657507 1_555
O35 S1 1.499844 1_555
O36 Si14 1.647751 1_555
O37 Si13 1.648079 1_555
O38 S2 1.469234 1_555
O39 Si11 1.651776 1_555
O40 Si12 1.657413 1_555
O41 S1 1.481909 1_555
O42 Si6 1.625031 1_555
O43 Si7 1.627401 1_555
O44 Si8 1.635236 1_555
O45 Si9 1.655739 1_555
O46 S0 1.481792 1_555
O47 Si10 1.657365 1_555
O48 Si5 1.645546 1_545
O49 Si3 1.639339 1_555
O50 Si4 1.640449 1_555
O51 Si1 1.666049 1_555
O52 Si2 1.665279 1_555
O53 Si0 1.654344 1_555
O54 S1 1.495390 1_555
O55 Si11 1.653367 1_655
O56 Si12 1.657571 1_545
O57 Si13 1.663133 1_545
O58 S2 1.496077 1_555
O59 Si14 1.662789 1_655
O60 Si10 1.672715 1_555
O61 Si9 1.661295 1_455
O62 S0 1.483163 1_565
O63 Si7 1.622662 1_565
O64 Si8 1.624284 1_555
O65 Si6 1.619078 1_455
O66 Si0 1.663517 1_565
O67 Si1 1.652158 1_555
O68 Si2 1.665559 1_455
O69 Si3 1.639395 1_555
O70 Si4 1.653651 1_455
O71 Si5 1.643522 1_555
