# generated using pymatgen
data_Na4Zr3ZnSi3(SO8)3
_symmetry_space_group_name_H-M   'P 1'
_cell_length_a   9.09674579
_cell_length_b   9.09524936
_cell_length_c   23.21951451
_cell_angle_alpha   90.06015040
_cell_angle_beta   89.93470129
_cell_angle_gamma   120.12394619
_symmetry_Int_Tables_number   1
_chemical_formula_structural   Na4Zr3ZnSi3(SO8)3
_chemical_formula_sum   'Na12 Zr9 Zn3 Si9 S9 O72'
_cell_volume   1661.65291236
_cell_formula_units_Z   3
loop_
 _symmetry_equiv_pos_site_id
 _symmetry_equiv_pos_as_xyz
  1  'x, y, z'
loop_
 _atom_site_type_symbol
 _atom_site_label
 _atom_site_symmetry_multiplicity
 _atom_site_fract_x
 _atom_site_fract_y
 _atom_site_fract_z
 _atom_site_occupancy
  Na  Na0  1  0.63249532  0.00920605  0.24098368  1
  Na  Na1  1  0.37651822  0.35564350  0.25076132  1
  Na  Na2  1  0.99069332  0.64075340  0.24647966  1
  Na  Na3  1  0.99232303  0.35504849  0.75419202  1
  Na  Na4  1  0.37991766  0.01443527  0.75494133  1
  Na  Na5  1  0.70360918  0.67840725  0.40507504  1
  Na  Na6  1  0.00696330  0.01878839  0.48746646  1
  Na  Na7  1  0.00226714  0.01138407  0.00031109  1
  Na  Na8  1  0.65959505  0.32733819  0.83449083  1
  Na  Na9  1  0.64836769  0.31971761  0.32435554  1
  Na  Na10  1  0.34879010  0.68505187  0.16290004  1
  Na  Na11  1  0.35187081  0.66478702  0.67137047  1
  Zr  Zr0  1  0.01119867  0.02277618  0.85561043  1
  Zr  Zr1  1  0.99388638  0.00731007  0.64966627  1
  Zr  Zr2  1  0.98981865  0.98868347  0.14813976  1
  Zr  Zr3  1  0.66743332  0.31222896  0.97953607  1
  Zr  Zr4  1  0.65562207  0.32122644  0.47680983  1
  Zr  Zr5  1  0.33083302  0.67651397  0.01912271  1
  Zr  Zr6  1  0.34215255  0.66190922  0.51567631  1
  Zr  Zr7  1  0.35138263  0.67879244  0.31435406  1
  Zr  Zr8  1  0.34103368  0.66789876  0.81746962  1
  Zn  Zn0  1  0.00881177  0.00539064  0.35018188  1
  Zn  Zn1  1  0.65477356  0.32534713  0.68958596  1
  Zn  Zn2  1  0.64220966  0.31369498  0.18277235  1
  Si  Si0  1  0.28901794  0.00143857  0.25173986  1
  Si  Si1  1  0.71152995  0.70162009  0.25326424  1
  Si  Si2  1  0.29948701  0.29902336  0.74885349  1
  Si  Si3  1  0.70341522  0.00006952  0.74999805  1
  Si  Si4  1  0.66854855  0.03863695  0.08791147  1
  Si  Si5  1  0.04291437  0.38197668  0.91709081  1
  Si  Si6  1  0.32845455  0.95899568  0.91495965  1
  Si  Si7  1  0.63748579  0.96198930  0.41615693  1
  Si  Si8  1  0.32172647  0.36246847  0.41489370  1
  S  S0  1  0.99978490  0.29145656  0.25121143  1
  S  S1  1  0.99735834  0.70909106  0.74930524  1
  S  S2  1  0.95725358  0.33636447  0.58509165  1
  S  S3  1  0.37212182  0.03795309  0.58467009  1
  S  S4  1  0.66847314  0.62283221  0.58429724  1
  S  S5  1  0.95547196  0.62185920  0.08452325  1
  S  S6  1  0.37488322  0.33543548  0.08390174  1
  S  S7  1  0.62713279  0.66620606  0.91818561  1
  S  S8  1  0.04236336  0.66516840  0.41866661  1
  O  O0  1  0.20676764  0.04129454  0.30641741  1
  O  O1  1  0.81839620  0.78075925  0.31164838  1
  O  O2  1  0.96760314  0.18637561  0.30228108  1
  O  O3  1  0.20552988  0.17222827  0.80355460  1
  O  O4  1  0.97443487  0.78767590  0.80091914  1
  O  O5  1  0.82756942  0.02457923  0.80365808  1
  O  O6  1  0.79447485  0.96896456  0.69230400  1
  O  O7  1  0.16961794  0.19908312  0.69326846  1
  O  O8  1  0.02594361  0.81882641  0.69709914  1
  O  O9  1  0.79712664  0.83301196  0.19782245  1
  O  O10  1  0.03239344  0.21511746  0.19895640  1
  O  O11  1  0.16999588  0.96982277  0.19424578  1
  O  O12  1  0.88129488  0.35654394  0.63798083  1
  O  O13  1  0.47275374  0.11345237  0.63681940  1
  O  O14  1  0.64568666  0.51988649  0.63512724  1
  O  O15  1  0.88256168  0.52800219  0.13792189  1
  O  O16  1  0.64276286  0.12007663  0.14587720  1
  O  O17  1  0.47181099  0.36306838  0.13758642  1
  O  O18  1  0.46256782  0.31606510  0.03302463  1
  O  O19  1  0.85086145  0.53998325  0.03289694  1
  O  O20  1  0.68973067  0.15617732  0.03017681  1
  O  O21  1  0.45878836  0.14668317  0.53305170  1
  O  O22  1  0.68721750  0.54388292  0.53058708  1
  O  O23  1  0.85185536  0.31542192  0.53344512  1
  O  O24  1  0.54598850  0.69309971  0.96880839  1
  O  O25  1  0.16525025  0.47317610  0.97183157  1
  O  O26  1  0.31280931  0.84216897  0.97045681  1
  O  O27  1  0.52716370  0.83927679  0.47149453  1
  O  O28  1  0.30987221  0.46780886  0.47214884  1
  O  O29  1  0.14858296  0.68121629  0.46981565  1
  O  O30  1  0.11414575  0.63536639  0.36577798  1
  O  O31  1  0.51555413  0.88051707  0.35922163  1
  O  O32  1  0.36462091  0.49100982  0.35999053  1
  O  O33  1  0.12941902  0.48666540  0.85685513  1
  O  O34  1  0.36070606  0.87518903  0.85649800  1
  O  O35  1  0.52093174  0.64006042  0.86534221  1
  O  O36  1  0.02081204  0.81275267  0.41642829  1
  O  O37  1  0.81308421  0.96389319  0.41374463  1
  O  O38  1  0.16190087  0.17806596  0.41337858  1
  O  O39  1  0.01704275  0.18976542  0.91216609  1
  O  O40  1  0.15426811  0.96689181  0.90977274  1
  O  O41  1  0.79523248  0.81806701  0.91012277  1
  O  O42  1  0.97560912  0.17999684  0.58754411  1
  O  O43  1  0.20002221  0.02047617  0.58800919  1
  O  O44  1  0.82264103  0.79650137  0.58805273  1
  O  O45  1  0.97833666  0.79777534  0.08715720  1
  O  O46  1  0.84191722  0.02334508  0.08896342  1
  O  O47  1  0.20348175  0.17969752  0.08794275  1
  O  O48  1  0.69708163  0.17478557  0.74329472  1
  O  O49  1  0.48022753  0.30889968  0.74285723  1
  O  O50  1  0.85253904  0.53603070  0.74162284  1
  O  O51  1  0.68911561  0.51454801  0.24171244  1
  O  O52  1  0.85447715  0.31966337  0.24340434  1
  O  O53  1  0.48327718  0.16075529  0.24635343  1
  O  O54  1  0.64130940  0.51319272  0.92413663  1
  O  O55  1  0.85611955  0.36698748  0.92258742  1
  O  O56  1  0.49480653  0.14997257  0.92214669  1
  O  O57  1  0.65111721  0.14845716  0.42617919  1
  O  O58  1  0.50929813  0.37001963  0.42640247  1
  O  O59  1  0.86816105  0.50960538  0.42682950  1
  O  O60  1  0.35347795  0.48648687  0.07643587  1
  O  O61  1  0.12968777  0.64243923  0.07793193  1
  O  O62  1  0.50125173  0.84730375  0.07767856  1
  O  O63  1  0.35109734  0.86537502  0.57649634  1
  O  O64  1  0.51427219  0.64461216  0.57890938  1
  O  O65  1  0.13121551  0.48835646  0.57821467  1
  O  O66  1  0.29611347  0.82021012  0.25652576  1
  O  O67  1  0.51781032  0.68353110  0.25500109  1
  O  O68  1  0.15797538  0.46401652  0.25670703  1
  O  O69  1  0.29856133  0.47801684  0.75367648  1
  O  O70  1  0.15752206  0.69784233  0.75304522  1
  O  O71  1  0.51028970  0.83617454  0.75335005  1
loop_
_geom_bond_atom_site_label_1
_geom_bond_atom_site_label_2
_geom_bond_distance
_geom_bond_site_symmetry_2
Na0 O53 2.373873 1_555
Na0 O16 2.410800 1_555
Na0 O52 2.516080 1_555
Na0 O67 2.620644 1_545
Na0 O66 2.677246 1_545
Na0 O9 2.866611 1_545
Na0 O31 2.964675 1_545
Na0 O2 2.998261 1_555
Na1 O53 2.413060 1_555
Na1 O51 2.468443 1_555
Na1 O67 2.589902 1_555
Na1 O68 2.628472 1_555
Na1 O17 2.756465 1_555
Na1 O0 2.792963 1_555
Na1 O32 2.843707 1_555
Na1 O10 2.978146 1_555
Na2 O51 2.386538 1_555
Na2 O66 2.426214 1_655
Na2 O52 2.537067 1_555
Na2 O15 2.713051 1_555
Na2 O68 2.722661 1_655
Na2 O11 2.862225 1_655
Na2 O1 2.891656 1_555
Na2 O30 2.999890 1_655
Na3 O48 2.355018 1_555
Na3 O69 2.425727 1_655
Na3 O50 2.552347 1_555
Na3 O33 2.678258 1_655
Na3 O70 2.697570 1_655
Na3 O5 2.842777 1_555
Na3 O12 2.884708 1_555
Na3 O7 2.983545 1_655
Na4 O49 2.373237 1_555
Na4 O71 2.442616 1_545
Na4 O48 2.509938 1_555
Na4 O70 2.557135 1_545
Na4 O34 2.641647 1_545
Na4 O3 2.850985 1_555
Na4 O13 2.878080 1_555
Na5 O37 2.275581 1_555
Na5 O1 2.384592 1_555
Na5 O58 2.502275 1_555
Na5 O36 2.520073 1_655
Na5 O59 2.676392 1_555
Na5 O32 2.870208 1_555
Na6 O38 2.234899 1_555
Na6 O37 2.326207 1_445
Na6 O36 2.545250 1_545
Na6 O42 2.835863 1_455
Na6 O43 2.918364 1_555
Na6 O44 2.992013 1_445
Na7 O46 2.555146 1_455
Na7 O39 2.574237 1_554
Na7 O47 2.650193 1_555
Na7 O40 2.654875 1_544
Na7 O45 2.733320 1_445
Na7 O41 2.775121 1_444
Na8 O56 2.562166 1_555
Na8 O55 2.621075 1_555
Na8 O49 2.636285 1_555
Na8 O48 2.644331 1_555
Na8 O54 2.737139 1_555
Na8 O50 2.826528 1_555
Na9 O53 2.333952 1_555
Na9 O51 2.511177 1_555
Na9 O52 2.653547 1_555
Na9 O58 2.827724 1_555
Na9 O57 2.839681 1_555
Na10 O62 2.441811 1_555
Na10 O67 2.639406 1_555
Na10 O66 2.655204 1_555
Na10 O61 2.692049 1_555
Na10 O60 2.713600 1_555
Na10 O68 2.880424 1_555
Na11 O71 2.423897 1_555
Na11 O69 2.439464 1_555
Na11 O64 2.662590 1_555
Na11 O70 2.708726 1_555
Na11 O65 2.837658 1_555
Na11 O63 2.864043 1_555
O0 Si0 1.603803 1_555
O0 Zn0 1.946349 1_555
O1 Si1 1.612308 1_555
O1 Zn0 2.102997 1_665
O2 S0 1.458093 1_555
O2 Zn0 2.170579 1_655
O3 Si2 1.638579 1_555
O3 Zr0 2.005086 1_555
O4 S1 1.462145 1_555
O4 Zr0 2.360993 1_665
O5 Si3 1.620977 1_555
O5 Zr0 2.068311 1_655
O6 Si3 1.671136 1_565
O6 Zr1 1.937519 1_565
O7 Si2 1.676559 1_555
O7 Zr1 1.955515 1_455
O8 S1 1.508148 1_455
O8 Zr1 2.177931 1_465
O9 Si1 1.660899 1_555
O9 Zr2 1.978824 1_555
O10 S0 1.498800 1_455
O10 Zr2 2.231371 1_445
O11 Si0 1.651401 1_565
O11 Zr2 2.036795 1_455
O12 S2 1.464294 1_555
O12 Zn1 2.273899 1_555
O13 S3 1.464783 1_555
O13 Zn1 2.180285 1_555
O14 S4 1.455883 1_555
O14 Zn1 2.210943 1_555
O15 S5 1.462188 1_555
O15 Zn2 2.320700 1_555
O16 Si4 1.608355 1_555
O16 Zn2 1.959797 1_555
O17 S6 1.474404 1_555
O17 Zn2 2.099662 1_555
O18 S6 1.483682 1_555
O18 Zr3 2.253146 1_554
O19 S5 1.478688 1_555
O19 Zr3 2.267228 1_554
O20 Si4 1.665173 1_555
O20 Zr3 1.931652 1_554
O21 S3 1.501272 1_555
O21 Zr4 2.139513 1_555
O22 S4 1.490148 1_555
O22 Zr4 2.270284 1_555
O23 S2 1.487438 1_555
O23 Zr4 2.240255 1_555
O24 S7 1.471392 1_555
O24 Zr5 2.217457 1_556
O25 Si5 1.617569 1_555
O25 Zr5 2.024425 1_556
O26 Si6 1.631106 1_555
O26 Zr5 1.955964 1_556
O27 Si7 1.667221 1_555
O27 Zr6 1.939508 1_555
O28 Si8 1.672627 1_555
O28 Zr6 1.923775 1_555
O29 S8 1.492034 1_555
O29 Zr6 2.140189 1_555
O30 S8 1.477531 1_555
O30 Zr7 2.319181 1_555
O31 Si7 1.644197 1_555
O31 Zr7 1.982716 1_555
O32 Si8 1.639623 1_555
O32 Zr7 2.065173 1_555
O33 Si5 1.652352 1_555
O33 Zr8 2.018227 1_555
O34 Si6 1.652618 1_555
O34 Zr8 2.016421 1_555
O35 S7 1.505618 1_555
O35 Zr8 2.097247 1_555
O36 S8 1.451640 1_555
O36 Zn0 2.376099 1_565
O37 Si7 1.589678 1_555
O37 Zn0 2.193514 1_665
O38 Si8 1.574932 1_555
O38 Zn0 2.088940 1_555
O39 Si5 1.646622 1_555
O39 Zr0 1.987212 1_555
O40 Si6 1.626368 1_555
O40 Zr0 2.050083 1_565
O41 S7 1.470039 1_555
O41 Zr0 2.292616 1_665
O42 S2 1.514047 1_555
O42 Zr1 2.200589 1_555
O43 S3 1.494047 1_555
O43 Zr1 2.312801 1_455
O44 S4 1.498632 1_555
O44 Zr1 2.269575 1_565
O45 S5 1.507578 1_555
O45 Zr2 2.200908 1_555
O46 Si4 1.651490 1_555
O46 Zr2 2.056310 1_545
O47 S6 1.493121 1_555
O47 Zr2 2.315004 1_445
O48 Si3 1.626400 1_555
O48 Zn1 2.027878 1_555
O49 Si2 1.606844 1_555
O49 Zn1 1.957292 1_555
O50 S1 1.470872 1_555
O50 Zn1 2.215437 1_555
O51 Si1 1.630783 1_555
O51 Zn2 2.146143 1_555
O52 S0 1.478828 1_555
O52 Zn2 2.369460 1_555
O53 Si0 1.633319 1_555
O53 Zn2 2.045859 1_555
O54 S7 1.467354 1_555
O54 Zr3 2.343865 1_555
O55 Si5 1.639896 1_655
O55 Zr3 2.020115 1_555
O56 Si6 1.642112 1_545
O56 Zr3 2.023378 1_555
O57 Si7 1.653480 1_545
O57 Zr4 1.945402 1_555
O58 Si8 1.694383 1_555
O58 Zr4 1.983981 1_555
O59 S8 1.516037 1_655
O59 Zr4 2.166681 1_555
O60 S6 1.491484 1_555
O60 Zr5 2.272314 1_555
O61 S5 1.507247 1_455
O61 Zr5 2.175945 1_555
O62 Si4 1.656064 1_565
O62 Zr5 2.061094 1_555
O63 S3 1.494825 1_565
O63 Zr6 2.295477 1_555
O64 S4 1.517201 1_555
O64 Zr6 2.210194 1_555
O65 S2 1.498287 1_455
O65 Zr6 2.289208 1_555
O66 Si0 1.685426 1_565
O66 Zr7 2.089112 1_555
O67 Si1 1.686104 1_555
O67 Zr7 2.030534 1_555
O68 S0 1.511075 1_455
O68 Zr7 2.291983 1_555
O69 Si2 1.635952 1_555
O69 Zr8 2.156885 1_555
O70 S1 1.513504 1_455
O70 Zr8 2.358293 1_555
O71 Si3 1.638853 1_565
O71 Zr8 2.136332 1_555
