# generated using pymatgen
data_Na2CaMg(SO4)3
_symmetry_space_group_name_H-M   'P 1'
_cell_length_a   9.05664220
_cell_length_b   9.02473214
_cell_length_c   23.26771342
_cell_angle_alpha   90.10033905
_cell_angle_beta   89.90836314
_cell_angle_gamma   120.17687819
_symmetry_Int_Tables_number   1
_chemical_formula_structural   Na2CaMg(SO4)3
_chemical_formula_sum   'Na12 Ca6 Mg6 S18 O72'
_cell_volume   1644.02428578
_cell_formula_units_Z   6
loop_
 _symmetry_equiv_pos_site_id
 _symmetry_equiv_pos_as_xyz
  1  'x, y, z'
loop_
 _atom_site_type_symbol
 _atom_site_label
 _atom_site_symmetry_multiplicity
 _atom_site_fract_x
 _atom_site_fract_y
 _atom_site_fract_z
 _atom_site_occupancy
  Na  Na0  1  0.36375541  0.36375466  0.25004652  1
  Na  Na1  1  0.63941216  0.63780546  0.74758745  1
  Na  Na2  1  0.02748215  0.69589713  0.58556078  1
  Na  Na3  1  0.30417883  0.97228056  0.08637754  1
  Na  Na4  1  0.69259726  0.02593040  0.91664088  1
  Na  Na5  1  0.97200688  0.30376544  0.41379591  1
  Na  Na6  1  0.99995333  0.99992968  0.49971133  1
  Na  Na7  1  0.99914258  0.00007725  0.00126562  1
  Na  Na8  1  0.66676605  0.33249307  0.83238495  1
  Na  Na9  1  0.66756653  0.33312526  0.33133163  1
  Na  Na10  1  0.33318150  0.66783377  0.16925266  1
  Na  Na11  1  0.33351745  0.66666418  0.66612179  1
  Ca  Ca0  1  0.01369774  0.00501604  0.84619745  1
  Ca  Ca1  1  0.67135030  0.34697722  0.98756098  1
  Ca  Ca2  1  0.65315538  0.32840957  0.48262637  1
  Ca  Ca3  1  0.32910167  0.65296783  0.02025032  1
  Ca  Ca4  1  0.34661216  0.67153604  0.51645238  1
  Ca  Ca5  1  0.31974599  0.66203791  0.81355134  1
  Mg  Mg0  1  0.99617717  0.98808889  0.34604062  1
  Mg  Mg1  1  0.00344404  0.01152718  0.65109045  1
  Mg  Mg2  1  0.98810214  0.99602421  0.15430035  1
  Mg  Mg3  1  0.66323881  0.32196854  0.68141650  1
  Mg  Mg4  1  0.67946030  0.33773983  0.18461697  1
  Mg  Mg5  1  0.33714728  0.67925521  0.31587656  1
  S  S0  1  0.29350196  0.00000683  0.24891098  1
  S  S1  1  0.70359061  0.70365121  0.25005940  1
  S  S2  1  0.00019599  0.29364368  0.25128108  1
  S  S3  1  0.30829172  0.29795423  0.74436594  1
  S  S4  1  0.98979802  0.69570463  0.74266916  1
  S  S5  1  0.70725330  0.00764208  0.74702966  1
  S  S6  1  0.95882003  0.32644398  0.58526294  1
  S  S7  1  0.36014862  0.03624037  0.58790747  1
  S  S8  1  0.67570578  0.63595065  0.58950005  1
  S  S9  1  0.96387549  0.64108947  0.08980139  1
  S  S10  1  0.67488801  0.04146806  0.08721014  1
  S  S11  1  0.36336227  0.32265534  0.09173784  1
  S  S12  1  0.63446131  0.66824950  0.91362612  1
  S  S13  1  0.02580387  0.35942909  0.91678069  1
  S  S14  1  0.33500320  0.96799211  0.91981758  1
  S  S15  1  0.63941696  0.96270922  0.41108067  1
  S  S16  1  0.32366427  0.36482308  0.40923469  1
  S  S17  1  0.04210864  0.67421103  0.41372081  1
  O  O0  1  0.20714146  0.02826660  0.29864044  1
  O  O1  1  0.80719637  0.78484119  0.30169556  1
  O  O2  1  0.97616006  0.19366263  0.30475711  1
  O  O3  1  0.23709675  0.20862392  0.79922908  1
  O  O4  1  0.96486239  0.77230240  0.79577709  1
  O  O5  1  0.79375080  0.02784398  0.80323127  1
  O  O6  1  0.80569411  0.98694355  0.70000689  1
  O  O7  1  0.19684400  0.20472227  0.69582703  1
  O  O8  1  0.00778377  0.80304883  0.69211307  1
  O  O9  1  0.78469427  0.80735731  0.19841612  1
  O  O10  1  0.02811816  0.20708126  0.20149235  1
  O  O11  1  0.19402137  0.97612492  0.19542772  1
  O  O12  1  0.86230495  0.34775587  0.63283444  1
  O  O13  1  0.46988005  0.12735581  0.63708461  1
  O  O14  1  0.65741697  0.53020331  0.64059564  1
  O  O15  1  0.87065939  0.52883962  0.13828154  1
  O  O16  1  0.65408963  0.14036056  0.13423885  1
  O  O17  1  0.47114984  0.34115846  0.14226922  1
  O  O18  1  0.43877119  0.29708348  0.03843993  1
  O  O19  1  0.87501085  0.57047940  0.03479917  1
  O  O20  1  0.69532546  0.12782817  0.03085680  1
  O  O21  1  0.43346583  0.12795689  0.53352776  1
  O  O22  1  0.70079849  0.55752920  0.53682178  1
  O  O23  1  0.87041524  0.30569806  0.52936050  1
  O  O24  1  0.54401666  0.68441437  0.96420206  1
  O  O25  1  0.12271721  0.44465377  0.96891362  1
  O  O26  1  0.32193292  0.87453417  0.97376875  1
  O  O27  1  0.56687775  0.87155022  0.46567356  1
  O  O28  1  0.29824814  0.44214868  0.46218713  1
  O  O29  1  0.13000315  0.69513878  0.46980910  1
  O  O30  1  0.13882467  0.65238717  0.36621997  1
  O  O31  1  0.52884360  0.87129801  0.36203482  1
  O  O32  1  0.34273277  0.47159573  0.35818067  1
  O  O33  1  0.11061140  0.45613554  0.86449015  1
  O  O34  1  0.35080550  0.87734163  0.86916593  1
  O  O35  1  0.54148553  0.65534800  0.85963204  1
  O  O36  1  0.01932419  0.82382114  0.40525209  1
  O  O37  1  0.81464989  0.98615270  0.40510558  1
  O  O38  1  0.16533196  0.19266502  0.40393273  1
  O  O39  1  0.00298531  0.18355211  0.91514368  1
  O  O40  1  0.18368618  0.98848677  0.91591346  1
  O  O41  1  0.80444321  0.82934122  0.91284374  1
  O  O42  1  0.98195010  0.17701530  0.59343455  1
  O  O43  1  0.18466502  0.01233049  0.59348828  1
  O  O44  1  0.83360751  0.80847656  0.59427837  1
  O  O45  1  0.98729950  0.81667932  0.09581998  1
  O  O46  1  0.82384551  0.01856414  0.09561258  1
  O  O47  1  0.19164113  0.16467410  0.09696196  1
  O  O48  1  0.68436307  0.15704834  0.73891212  1
  O  O49  1  0.48342701  0.32168499  0.73878356  1
  O  O50  1  0.83230631  0.52341412  0.73789328  1
  O  O51  1  0.67890788  0.52588820  0.24434009  1
  O  O52  1  0.84935667  0.31505828  0.24319619  1
  O  O53  1  0.46594340  0.16035672  0.24402965  1
  O  O54  1  0.65462869  0.51630075  0.91750116  1
  O  O55  1  0.85062235  0.33681747  0.91843319  1
  O  O56  1  0.49592381  0.13824652  0.92063912  1
  O  O57  1  0.66249977  0.13972295  0.41379866  1
  O  O58  1  0.47663674  0.34653015  0.41381454  1
  O  O59  1  0.87199343  0.51107785  0.41569069  1
  O  O60  1  0.34592699  0.47656672  0.08784182  1
  O  O61  1  0.13990773  0.66362523  0.08768952  1
  O  O62  1  0.51207681  0.87119280  0.08589703  1
  O  O63  1  0.33703013  0.85930814  0.58545947  1
  O  O64  1  0.52260609  0.65396043  0.58524525  1
  O  O65  1  0.12884141  0.48941881  0.58354442  1
  O  O66  1  0.31453334  0.84840916  0.25698215  1
  O  O67  1  0.52659808  0.67911491  0.25574819  1
  O  O68  1  0.16044708  0.46635547  0.25622668  1
  O  O69  1  0.33106909  0.47461558  0.74616008  1
  O  O70  1  0.14307554  0.67814729  0.74628251  1
  O  O71  1  0.53741524  0.84479659  0.74804787  1
loop_
_geom_bond_atom_site_label_1
_geom_bond_atom_site_label_2
_geom_bond_distance
_geom_bond_site_symmetry_2
Na0 O53 2.439706 1_555
Na0 O68 2.445635 1_555
Na0 O67 2.464169 1_555
Na0 O51 2.471039 1_555
Na0 O17 2.732421 1_555
Na0 O32 2.736795 1_555
Na0 O0 2.854229 1_555
Na0 O10 2.863567 1_555
Na1 O69 2.415340 1_555
Na1 O50 2.445320 1_555
Na1 O71 2.465303 1_555
Na1 O49 2.474629 1_555
Na1 O14 2.704884 1_555
Na1 O35 2.782177 1_555
Na1 O4 2.797722 1_555
Na1 O6 2.942454 1_555
Na2 O63 2.424418 1_555
Na2 O44 2.438859 1_455
Na2 O65 2.456917 1_555
Na2 O43 2.475419 1_565
Na2 O8 2.697618 1_555
Na2 O22 2.809004 1_455
Na2 O29 2.848546 1_555
Na2 O12 2.932714 1_455
Na3 O61 2.409846 1_555
Na3 O47 2.427138 1_565
Na3 O62 2.470696 1_555
Na3 O45 2.490749 1_455
Na3 O11 2.731493 1_555
Na3 O18 2.781580 1_565
Na3 O26 2.793269 1_554
Na3 O16 2.959126 1_565
Na4 O55 2.425844 1_555
Na4 O39 2.430350 1_655
Na4 O41 2.446924 1_545
Na4 O56 2.454183 1_555
Na4 O5 2.789131 1_555
Na4 O20 2.806710 1_556
Na4 O24 2.893497 1_545
Na4 O34 2.903974 1_545
Na5 O57 2.424265 1_555
Na5 O38 2.426180 1_655
Na5 O59 2.454814 1_555
Na5 O37 2.485976 1_545
Na5 O2 2.730199 1_555
Na5 O28 2.802398 1_655
Na5 O23 2.843451 1_555
Na5 O30 2.938497 1_655
Na6 O43 2.719307 1_665
Na6 O37 2.734690 1_555
Na6 O44 2.735390 1_555
Na6 O42 2.754062 1_565
Na6 O38 2.760253 1_665
Na6 O36 2.766613 1_655
Na7 O39 2.590723 1_654
Na7 O40 2.629210 1_644
Na7 O41 2.642969 1_544
Na7 O45 2.724834 1_545
Na7 O47 2.757017 1_655
Na7 O46 2.760661 1_555
Na8 O55 2.593800 1_555
Na8 O54 2.618604 1_555
Na8 O56 2.638072 1_555
Na8 O49 2.712520 1_555
Na8 O50 2.730580 1_555
Na8 O48 2.739173 1_555
Na9 O57 2.580956 1_555
Na9 O59 2.621265 1_555
Na9 O58 2.624285 1_555
Na9 O51 2.639292 1_555
Na9 O53 2.651441 1_555
Na9 O52 2.683387 1_555
Na10 O61 2.571093 1_555
Na10 O62 2.601519 1_555
Na10 O60 2.601766 1_555
Na10 O67 2.638271 1_555
Na10 O68 2.644211 1_555
Na10 O66 2.667391 1_555
Na11 O69 2.538731 1_555
Na11 O63 2.549847 1_555
Na11 O70 2.575478 1_555
Na11 O71 2.577627 1_555
Na11 O64 2.583286 1_555
Na11 O65 2.589633 1_555
Ca0 O3 2.219603 1_555
Ca0 O4 2.245412 1_445
Ca0 O40 2.294214 1_545
Ca0 O39 2.307951 1_555
Ca0 O5 2.330138 1_455
Ca0 O41 2.342728 1_445
Ca1 O19 2.221959 1_556
Ca1 O18 2.254206 1_556
Ca1 O54 2.292928 1_555
Ca1 O55 2.317840 1_555
Ca1 O20 2.326574 1_556
Ca1 O56 2.342245 1_555
Ca2 O21 2.239510 1_555
Ca2 O22 2.268813 1_555
Ca2 O58 2.327642 1_555
Ca2 O23 2.347157 1_555
Ca2 O57 2.367789 1_555
Ca2 O59 2.405355 1_555
Ca3 O25 2.218419 1_554
Ca3 O24 2.237767 1_554
Ca3 O60 2.298782 1_555
Ca3 O26 2.304457 1_554
Ca3 O61 2.358814 1_555
Ca3 O62 2.382090 1_555
Ca4 O27 2.239097 1_555
Ca4 O28 2.269946 1_555
Ca4 O64 2.321859 1_555
Ca4 O29 2.345079 1_555
Ca4 O63 2.365400 1_555
Ca4 O65 2.401746 1_555
Ca5 O33 2.215253 1_555
Ca5 O34 2.229791 1_555
Ca5 O70 2.296467 1_555
Ca5 O35 2.305467 1_555
Ca5 O69 2.344100 1_555
Ca5 O71 2.379052 1_555
Mg0 O1 2.049713 1_555
Mg0 O0 2.072807 1_665
Mg0 O36 2.111939 1_655
Mg0 O37 2.134438 1_555
Mg0 O38 2.173569 1_665
Mg0 O2 2.177714 1_565
Mg1 O7 2.029933 1_555
Mg1 O6 2.036434 1_445
Mg1 O42 2.090025 1_455
Mg1 O43 2.114504 1_555
Mg1 O8 2.129148 1_545
Mg1 O44 2.153044 1_445
Mg2 O9 2.047699 1_555
Mg2 O10 2.065194 1_665
Mg2 O46 2.104932 1_565
Mg2 O45 2.109912 1_555
Mg2 O47 2.161736 1_665
Mg2 O11 2.183802 1_655
Mg3 O13 2.030436 1_555
Mg3 O12 2.038353 1_555
Mg3 O48 2.082202 1_555
Mg3 O49 2.102986 1_555
Mg3 O14 2.131331 1_555
Mg3 O50 2.139149 1_555
Mg4 O15 2.033070 1_555
Mg4 O16 2.044967 1_555
Mg4 O52 2.142797 1_555
Mg4 O17 2.143745 1_555
Mg4 O51 2.194194 1_555
Mg4 O53 2.258345 1_555
Mg5 O31 2.036121 1_555
Mg5 O30 2.052667 1_555
Mg5 O66 2.138395 1_555
Mg5 O32 2.141382 1_555
Mg5 O67 2.212639 1_555
Mg5 O68 2.255106 1_555
O0 S0 1.487364 1_555
O1 S1 1.473140 1_555
O2 S2 1.488399 1_655
O3 S3 1.474318 1_555
O4 S4 1.486229 1_555
O5 S5 1.488560 1_555
O6 S5 1.480006 1_565
O7 S3 1.465866 1_555
O8 S4 1.481043 1_455
O9 S1 1.472873 1_555
O10 S2 1.486869 1_555
O11 S0 1.488027 1_565
O12 S6 1.480341 1_555
O13 S7 1.466925 1_555
O14 S8 1.481911 1_555
O15 S9 1.467152 1_555
O16 S10 1.481321 1_555
O17 S11 1.484024 1_555
O18 S11 1.487388 1_555
O19 S9 1.475285 1_555
O20 S10 1.489544 1_555
O21 S7 1.474930 1_555
O22 S8 1.487496 1_555
O23 S6 1.489882 1_555
O24 S12 1.481055 1_555
O25 S13 1.467923 1_555
O26 S14 1.484615 1_555
O27 S15 1.476340 1_555
O28 S16 1.488479 1_555
O29 S17 1.491238 1_555
O30 S17 1.482281 1_555
O31 S15 1.468170 1_555
O32 S16 1.485101 1_555
O33 S13 1.469270 1_555
O34 S14 1.480720 1_555
O35 S12 1.485007 1_555
O36 S17 1.478373 1_555
O37 S15 1.498187 1_555
O38 S16 1.498485 1_555
O39 S13 1.494503 1_555
O40 S14 1.475062 1_555
O41 S12 1.494592 1_555
O42 S6 1.477722 1_555
O43 S7 1.497979 1_555
O44 S8 1.497693 1_555
O45 S9 1.495689 1_555
O46 S10 1.477235 1_555
O47 S11 1.495670 1_555
O48 S5 1.476055 1_555
O49 S3 1.495493 1_555
O50 S4 1.494896 1_555
O51 S1 1.510017 1_555
O52 S2 1.485037 1_655
O53 S0 1.507976 1_555
O54 S12 1.474528 1_555
O55 S13 1.494866 1_655
O56 S14 1.494638 1_545
O57 S15 1.504545 1_545
O58 S16 1.479345 1_555
O59 S17 1.504296 1_655
O60 S11 1.477663 1_555
O61 S9 1.503083 1_455
O62 S10 1.502849 1_565
O63 S7 1.503447 1_565
O64 S8 1.478464 1_555
O65 S6 1.503014 1_455
O66 S0 1.485369 1_565
O67 S1 1.509505 1_555
O68 S2 1.508228 1_555
O69 S3 1.501768 1_555
O70 S4 1.476743 1_455
O71 S5 1.501242 1_565
