# generated using pymatgen
data_MgCu4(GeO4)2
_symmetry_space_group_name_H-M   'P 1'
_cell_length_a   5.80262616
_cell_length_b   5.47641810
_cell_length_c   7.29849844
_cell_angle_alpha   111.91124597
_cell_angle_beta   113.12544234
_cell_angle_gamma   89.85932041
_symmetry_Int_Tables_number   1
_chemical_formula_structural   MgCu4(GeO4)2
_chemical_formula_sum   'Mg1 Cu4 Ge2 O8'
_cell_volume   195.04218579
_cell_formula_units_Z   1
loop_
 _symmetry_equiv_pos_site_id
 _symmetry_equiv_pos_as_xyz
  1  'x, y, z'
loop_
 _atom_site_type_symbol
 _atom_site_label
 _atom_site_symmetry_multiplicity
 _atom_site_fract_x
 _atom_site_fract_y
 _atom_site_fract_z
 _atom_site_occupancy
  Mg  Mg0  1  0.16871000  0.41951600  0.33558000  1
  Cu  Cu0  1  0.96877700  0.98023300  0.94109900  1
  Cu  Cu1  1  0.51423600  0.00674800  0.51298300  1
  Cu  Cu2  1  0.00051300  0.00733400  0.51388300  1
  Cu  Cu3  1  0.96854100  0.45908400  0.93803600  1
  Ge  Ge0  1  0.62968200  0.37860900  0.25696700  1
  Ge  Ge1  1  0.38742600  0.63842800  0.77618700  1
  O  O0  1  0.71740700  0.72679600  0.43134300  1
  O  O1  1  0.82090800  0.30206500  0.10512900  1
  O  O2  1  0.29020700  0.30316000  0.10602600  1
  O  O3  1  0.28657300  0.28685000  0.57228100  1
  O  O4  1  0.28650100  0.78721300  0.57178800  1
  O  O5  1  0.19165900  0.70732700  0.91345400  1
  O  O6  1  0.71766400  0.20580100  0.43313400  1
  O  O7  1  0.71786400  0.70750600  0.91502700  1
loop_
_geom_bond_atom_site_label_1
_geom_bond_atom_site_label_2
_geom_bond_distance
_geom_bond_site_symmetry_2
Mg0 O2 1.959294 1_555
Mg0 O1 1.961708 1_455
Mg0 O4 1.996083 1_555
Mg0 O3 1.996576 1_555
Cu0 O5 1.979249 1_655
Cu0 O7 1.991909 1_555
Cu0 O1 2.121427 1_566
Cu0 O2 2.172355 1_666
Cu1 O6 1.985482 1_555
Cu1 O0 1.989098 1_545
Cu1 O4 2.052879 1_545
Cu1 O3 2.056487 1_555
Cu2 O6 1.982911 1_455
Cu2 O0 1.991535 1_445
Cu2 O4 2.050652 1_545
Cu2 O3 2.061537 1_555
Cu3 O5 1.982344 1_655
Cu3 O7 1.990929 1_555
Cu3 O1 2.137159 1_556
Cu3 O2 2.166158 1_656
Ge0 O0 1.788711 1_555
Ge0 O6 1.788738 1_555
Ge0 O2 1.795645 1_555
Ge0 O1 1.803314 1_555
Ge1 O7 1.742893 1_555
Ge1 O5 1.745328 1_555
Ge1 O3 1.856676 1_555
Ge1 O4 1.857681 1_555
