# generated using pymatgen
data_Na2TaAl3P4(SO12)2
_symmetry_space_group_name_H-M   'P 1'
_cell_length_a   8.45449400
_cell_length_b   8.45550299
_cell_length_c   22.05008896
_cell_angle_alpha   89.97172820
_cell_angle_beta   89.86950384
_cell_angle_gamma   119.94952062
_symmetry_Int_Tables_number   1
_chemical_formula_structural   Na2TaAl3P4(SO12)2
_chemical_formula_sum   'Na6 Ta3 Al9 P12 S6 O72'
_cell_volume   1365.79914058
_cell_formula_units_Z   3
loop_
 _symmetry_equiv_pos_site_id
 _symmetry_equiv_pos_as_xyz
  1  'x, y, z'
loop_
 _atom_site_type_symbol
 _atom_site_label
 _atom_site_symmetry_multiplicity
 _atom_site_fract_x
 _atom_site_fract_y
 _atom_site_fract_z
 _atom_site_occupancy
  Na  Na0  1  0.99654395  0.99570918  0.49968267  1
  Na  Na1  1  0.00347673  0.00004355  0.99892959  1
  Na  Na2  1  0.66663400  0.33250792  0.82981380  1
  Na  Na3  1  0.67463523  0.33681638  0.33238683  1
  Na  Na4  1  0.33058373  0.65949967  0.16165353  1
  Na  Na5  1  0.33358999  0.66655872  0.66608249  1
  Ta  Ta0  1  0.66448347  0.33980179  0.97896047  1
  Ta  Ta1  1  0.33122870  0.66681324  0.31121382  1
  Ta  Ta2  1  0.33270087  0.66699044  0.80980851  1
  Al  Al0  1  0.98147101  0.98914456  0.35241666  1
  Al  Al1  1  0.00046607  0.00012213  0.85235966  1
  Al  Al2  1  0.00052254  0.00026724  0.65264298  1
  Al  Al3  1  0.99847151  0.00173911  0.14528805  1
  Al  Al4  1  0.66680128  0.33386003  0.69101100  1
  Al  Al5  1  0.67768243  0.35002029  0.18522535  1
  Al  Al6  1  0.67422484  0.33307259  0.48018955  1
  Al  Al7  1  0.32563726  0.65799859  0.01895057  1
  Al  Al8  1  0.33492342  0.67634393  0.51768794  1
  P  P0  1  0.72370676  0.71392828  0.24815103  1
  P  P1  1  0.98768059  0.27288586  0.24872659  1
  P  P2  1  0.28514634  0.27577595  0.74854203  1
  P  P3  1  0.99028198  0.71481290  0.74858197  1
  P  P4  1  0.72450988  0.00962039  0.74857685  1
  P  P5  1  0.96424181  0.63009224  0.08626372  1
  P  P6  1  0.37242885  0.33400581  0.08750517  1
  P  P7  1  0.62502327  0.68036519  0.91832135  1
  P  P8  1  0.04960034  0.37183806  0.91798607  1
  P  P9  1  0.32314346  0.94815121  0.91880128  1
  P  P10  1  0.62605944  0.96011442  0.41996798  1
  P  P11  1  0.03978089  0.66976830  0.41983003  1
  S  S0  1  0.28699719  0.01021524  0.24939221  1
  S  S1  1  0.95600041  0.33346616  0.58339795  1
  S  S2  1  0.37956791  0.04749744  0.58319353  1
  S  S3  1  0.66582649  0.62015178  0.58286109  1
  S  S4  1  0.66501250  0.04144449  0.08592644  1
  S  S5  1  0.33256762  0.37338565  0.41946772  1
  O  O0  1  0.20661616  0.03303521  0.30531486  1
  O  O1  1  0.83136057  0.79452966  0.30639574  1
  O  O2  1  0.96950634  0.16790804  0.30733062  1
  O  O3  1  0.20278539  0.16734857  0.80636705  1
  O  O4  1  0.96443615  0.79703420  0.80643885  1
  O  O5  1  0.83239302  0.03522697  0.80634904  1
  O  O6  1  0.79850621  0.96750712  0.69125424  1
  O  O7  1  0.16932230  0.20192321  0.69133896  1
  O  O8  1  0.03284489  0.83087623  0.69124053  1
  O  O9  1  0.80222300  0.83408838  0.19240128  1
  O  O10  1  0.03269482  0.19778178  0.19270662  1
  O  O11  1  0.17337750  0.96872219  0.19499890  1
  O  O12  1  0.87327505  0.36621072  0.63739480  1
  O  O13  1  0.49368949  0.12882892  0.63734982  1
  O  O14  1  0.63431981  0.50634611  0.63731852  1
  O  O15  1  0.87410795  0.50390495  0.14036781  1
  O  O16  1  0.63437594  0.12698781  0.13932326  1
  O  O17  1  0.49714431  0.36233206  0.14132959  1
  O  O18  1  0.46032724  0.29928752  0.02898520  1
  O  O19  1  0.84033190  0.53873539  0.02867246  1
  O  O20  1  0.69902699  0.15563883  0.02983224  1
  O  O21  1  0.46315912  0.16069970  0.52798991  1
  O  O22  1  0.69562258  0.53601242  0.52778575  1
  O  O23  1  0.84217209  0.30227322  0.52837664  1
  O  O24  1  0.53421358  0.70087460  0.97463782  1
  O  O25  1  0.16315500  0.46128767  0.97382129  1
  O  O26  1  0.30115545  0.83432823  0.97461894  1
  O  O27  1  0.53561274  0.83389873  0.47427973  1
  O  O28  1  0.30032222  0.45960152  0.47250782  1
  O  O29  1  0.16334311  0.69851804  0.47417605  1
  O  O30  1  0.12758644  0.63279297  0.36189872  1
  O  O31  1  0.50455574  0.87022330  0.36198224  1
  O  O32  1  0.36788557  0.48901397  0.36321114  1
  O  O33  1  0.12821084  0.49434992  0.86064416  1
  O  O34  1  0.36542367  0.87026399  0.86084462  1
  O  O35  1  0.50463032  0.63501218  0.86076846  1
  O  O36  1  0.02821244  0.84196496  0.40802887  1
  O  O37  1  0.81361066  0.97842004  0.40979924  1
  O  O38  1  0.17041753  0.19429396  0.40969946  1
  O  O39  1  0.02565067  0.18448455  0.90837244  1
  O  O40  1  0.16043629  0.97364827  0.90894665  1
  O  O41  1  0.81417353  0.84068716  0.90887578  1
  O  O42  1  0.97518993  0.16875027  0.58976195  1
  O  O43  1  0.19476048  0.02635690  0.58952163  1
  O  O44  1  0.83004870  0.80443137  0.58923377  1
  O  O45  1  0.97572924  0.81571874  0.09283202  1
  O  O46  1  0.83109031  0.02631431  0.09108761  1
  O  O47  1  0.18479266  0.16146953  0.09293885  1
  O  O48  1  0.69340110  0.17196275  0.73992537  1
  O  O49  1  0.47843596  0.30651531  0.73994610  1
  O  O50  1  0.82818034  0.52160255  0.74003373  1
  O  O51  1  0.69029462  0.51943602  0.24206732  1
  O  O52  1  0.82406270  0.30235652  0.24131304  1
  O  O53  1  0.47193646  0.16473644  0.24248637  1
  O  O54  1  0.64092077  0.50271141  0.92329667  1
  O  O55  1  0.85779001  0.35568625  0.92455793  1
  O  O56  1  0.50005496  0.13962104  0.92463689  1
  O  O57  1  0.63940431  0.14700426  0.42693427  1
  O  O58  1  0.49852738  0.35899331  0.42613882  1
  O  O59  1  0.85136380  0.49793027  0.42689147  1
  O  O60  1  0.36032514  0.50610164  0.07613659  1
  O  O61  1  0.15025210  0.64625125  0.07550853  1
  O  O62  1  0.50230893  0.86160575  0.07732586  1
  O  O63  1  0.36042269  0.86194690  0.57578947  1
  O  O64  1  0.49912076  0.63818452  0.57495374  1
  O  O65  1  0.14084567  0.49873999  0.57480746  1
  O  O66  1  0.30615611  0.83961351  0.25576203  1
  O  O67  1  0.52716258  0.69284521  0.25764879  1
  O  O68  1  0.16329923  0.47112087  0.25791232  1
  O  O69  1  0.30783215  0.47179299  0.75564977  1
  O  O70  1  0.16386850  0.69236106  0.75550461  1
  O  O71  1  0.52855503  0.83610704  0.75562446  1
loop_
_geom_bond_atom_site_label_1
_geom_bond_atom_site_label_2
_geom_bond_distance
_geom_bond_site_symmetry_2
Na0 O37 2.475872 1_555
Na0 O36 2.488702 1_655
Na0 O44 2.491458 1_555
Na0 O43 2.526210 1_665
Na0 O42 2.526578 1_565
Na0 O38 2.536943 1_665
Na1 O40 2.455956 1_545
Na1 O39 2.481491 1_555
Na1 O41 2.486752 1_445
Na1 O45 2.529996 1_446
Na1 O47 2.537323 1_556
Na1 O46 2.571591 1_456
Na2 O48 2.475854 1_555
Na2 O50 2.478917 1_555
Na2 O49 2.484410 1_555
Na2 O54 2.584701 1_555
Na2 O56 2.589385 1_555
Na2 O55 2.591181 1_555
Na3 O52 2.463794 1_555
Na3 O51 2.481900 1_555
Na3 O59 2.532850 1_555
Na3 O53 2.551883 1_555
Na3 O57 2.554889 1_555
Na3 O58 2.605879 1_555
Na4 O60 2.372168 1_555
Na4 O61 2.405823 1_555
Na4 O62 2.448061 1_555
Na4 O68 2.603100 1_555
Na4 O67 2.621226 1_555
Na4 O66 2.642592 1_555
Na5 O70 2.508892 1_555
Na5 O69 2.509333 1_555
Na5 O71 2.515689 1_555
Na5 O63 2.522965 1_555
Na5 O64 2.525211 1_555
Na5 O65 2.535468 1_555
Al0 O1 1.808473 1_555
Al0 O2 1.853362 1_565
Al0 O37 1.867204 1_555
Al0 O36 1.923623 1_655
Al0 O0 2.030999 1_665
Al0 O38 2.097809 1_665
Al1 O3 1.878673 1_555
Al1 O4 1.883536 1_445
Al1 O5 1.887848 1_455
Al1 O39 1.916392 1_555
Al1 O41 1.928829 1_445
Al1 O40 1.935420 1_545
Al2 O6 1.799839 1_445
Al2 O8 1.800310 1_545
Al2 O7 1.802606 1_555
Al2 O42 2.074103 1_455
Al2 O43 2.076101 1_555
Al2 O44 2.098251 1_445
Al3 O10 1.857129 1_655
Al3 O9 1.866516 1_545
Al3 O47 1.871857 1_655
Al3 O45 1.884058 1_545
Al3 O46 1.942973 1_555
Al3 O11 1.971140 1_645
Al4 O49 1.837985 1_555
Al4 O48 1.842515 1_555
Al4 O50 1.842780 1_555
Al4 O14 2.000966 1_555
Al4 O13 2.006010 1_555
Al4 O12 2.008297 1_555
Al5 O15 1.806367 1_555
Al5 O17 1.855460 1_555
Al5 O51 1.866606 1_555
Al5 O52 1.930807 1_555
Al5 O16 2.007257 1_555
Al5 O53 2.083611 1_555
Al6 O59 1.863618 1_555
Al6 O57 1.865965 1_555
Al6 O23 1.894398 1_555
Al6 O22 1.942004 1_555
Al6 O21 1.952574 1_555
Al6 O58 2.001966 1_555
Al7 O25 1.835840 1_554
Al7 O26 1.878548 1_554
Al7 O24 1.883942 1_554
Al7 O61 1.899530 1_555
Al7 O60 1.924003 1_555
Al7 O62 2.072476 1_555
Al8 O27 1.817747 1_555
Al8 O29 1.826943 1_555
Al8 O63 1.953496 1_555
Al8 O28 1.975990 1_555
Al8 O65 2.015497 1_555
Al8 O64 2.020021 1_555
O0 S0 1.465244 1_555
O1 P0 1.526150 1_555
O2 P1 1.530732 1_555
O3 P2 1.519384 1_555
O4 P3 1.519838 1_555
O5 P4 1.519855 1_555
O6 P4 1.528092 1_565
O7 P2 1.528285 1_555
O8 P3 1.528185 1_455
O9 P0 1.518458 1_555
O10 P1 1.521147 1_455
O11 S0 1.467482 1_565
O12 S1 1.474216 1_555
O13 S2 1.474244 1_555
O14 S3 1.476588 1_555
O15 P5 1.524846 1_555
O16 S4 1.470737 1_555
O17 P6 1.526936 1_555
O18 P6 1.586605 1_555
O18 Ta0 1.927135 1_554
O19 P5 1.582978 1_555
O19 Ta0 1.937409 1_554
O20 S4 1.504943 1_555
O20 Ta0 2.054812 1_554
O21 S2 1.488906 1_555
O22 S3 1.490912 1_555
O23 S1 1.489904 1_555
O24 P7 1.513389 1_555
O25 P8 1.513544 1_555
O26 P9 1.514863 1_555
O27 P10 1.528927 1_555
O28 S5 1.473569 1_555
O29 P11 1.529325 1_555
O30 P11 1.583784 1_555
O30 Ta1 1.947416 1_555
O31 P10 1.579589 1_555
O31 Ta1 1.962538 1_555
O32 S5 1.513083 1_555
O32 Ta1 2.033691 1_555
O33 P8 1.555940 1_555
O33 Ta2 1.961131 1_555
O34 P9 1.558350 1_555
O34 Ta2 1.955940 1_555
O35 P7 1.552484 1_555
O35 Ta2 1.961686 1_555
O36 P11 1.529435 1_555
O37 P10 1.530297 1_555
O38 S5 1.465524 1_555
O39 P8 1.508567 1_555
O40 P9 1.511099 1_555
O41 P7 1.507334 1_555
O42 S1 1.487046 1_555
O43 S2 1.487547 1_555
O44 S3 1.488747 1_555
O45 P5 1.530369 1_555
O46 S4 1.476786 1_555
O47 P6 1.532131 1_555
O48 P4 1.533063 1_555
O49 P2 1.532456 1_555
O50 P3 1.532532 1_555
O51 P0 1.529320 1_555
O52 P1 1.532163 1_555
O53 S0 1.460811 1_555
O54 P7 1.577357 1_555
O54 Ta0 1.927970 1_555
O55 P8 1.564354 1_655
O55 Ta0 1.974776 1_555
O56 P9 1.567810 1_545
O56 Ta0 1.972945 1_555
O57 P10 1.534864 1_545
O58 S5 1.475319 1_555
O59 P11 1.536416 1_655
O60 P6 1.529454 1_555
O61 P5 1.527016 1_455
O62 S4 1.467450 1_565
O63 S2 1.503723 1_565
O64 S3 1.501919 1_555
O65 S1 1.499621 1_455
O66 S0 1.536244 1_565
O66 Ta1 1.995868 1_555
O67 P0 1.593559 1_555
O67 Ta1 1.953026 1_555
O68 P1 1.603714 1_455
O68 Ta1 1.949070 1_555
O69 P2 1.578413 1_555
O69 Ta2 1.962411 1_555
O70 P3 1.578710 1_455
O70 Ta2 1.957171 1_555
O71 P4 1.578926 1_565
O71 Ta2 1.959389 1_555
