# generated using pymatgen
data_MgAg2(BrO2)2
_symmetry_space_group_name_H-M   'P 1'
_cell_length_a   3.69611338
_cell_length_b   5.03735240
_cell_length_c   12.15049470
_cell_angle_alpha   78.95473529
_cell_angle_beta   85.78812688
_cell_angle_gamma   87.72658328
_symmetry_Int_Tables_number   1
_chemical_formula_structural   MgAg2(BrO2)2
_chemical_formula_sum   'Mg1 Ag2 Br2 O4'
_cell_volume   221.35955615
_cell_formula_units_Z   1
loop_
 _symmetry_equiv_pos_site_id
 _symmetry_equiv_pos_as_xyz
  1  'x, y, z'
loop_
 _atom_site_type_symbol
 _atom_site_label
 _atom_site_symmetry_multiplicity
 _atom_site_fract_x
 _atom_site_fract_y
 _atom_site_fract_z
 _atom_site_occupancy
  Mg  Mg0  1  0.77499700  0.96094600  0.07999200  1
  Ag  Ag0  1  0.99425500  0.49008800  0.51516000  1
  Ag  Ag1  1  0.50246800  0.99551200  0.51486400  1
  Br  Br0  1  0.24733400  0.65288100  0.67775300  1
  Br  Br1  1  0.75713300  0.33178200  0.34797300  1
  O  O0  1  0.72566400  0.91136800  0.91267900  1
  O  O1  1  0.25953900  0.08886500  0.11766900  1
  O  O2  1  0.71332200  0.17102800  0.91424100  1
  O  O3  1  0.27528700  0.79753200  0.11609800  1
loop_
_geom_bond_atom_site_label_1
_geom_bond_atom_site_label_2
_geom_bond_distance
_geom_bond_site_symmetry_2
Mg0 O1 2.035206 1_565
Mg0 O3 2.035843 1_555
Mg0 O3 2.037002 1_655
Mg0 O1 2.038924 1_665
Mg0 O2 2.111765 1_564
Mg0 O0 2.116849 1_554
Ag0 Br0 2.530508 1_655
Ag0 Br1 2.543290 1_555
Ag1 Br0 2.516230 1_555
Ag1 Br1 2.529288 1_565
O0 O2 1.310707 1_565
O1 O3 1.470116 1_545
