# generated using pymatgen
data_Lu2S3
_symmetry_space_group_name_H-M   'P 1'
_cell_length_a   7.17234745
_cell_length_b   7.17234834
_cell_length_c   7.17234772
_cell_angle_alpha   55.68816012
_cell_angle_beta   55.68815697
_cell_angle_gamma   55.68816075
_symmetry_Int_Tables_number   1
_chemical_formula_structural   Lu2S3
_chemical_formula_sum   'Lu4 S6'
_cell_volume   234.79907692
_cell_formula_units_Z   2
loop_
 _symmetry_equiv_pos_site_id
 _symmetry_equiv_pos_as_xyz
  1  'x, y, z'
loop_
 _atom_site_type_symbol
 _atom_site_label
 _atom_site_symmetry_multiplicity
 _atom_site_fract_x
 _atom_site_fract_y
 _atom_site_fract_z
 _atom_site_occupancy
  Lu  Lu0  1  0.84897460  0.84897460  0.84897460  1
  Lu  Lu1  1  0.65102540  0.65102540  0.65102540  1
  Lu  Lu2  1  0.15102540  0.15102540  0.15102540  1
  Lu  Lu3  1  0.34897460  0.34897460  0.34897460  1
  S  S0  1  0.05414325  0.75000000  0.44585675  1
  S  S1  1  0.75000000  0.44585675  0.05414325  1
  S  S2  1  0.44585675  0.05414325  0.75000000  1
  S  S3  1  0.94585675  0.25000000  0.55414325  1
  S  S4  1  0.55414325  0.94585675  0.25000000  1
  S  S5  1  0.25000000  0.55414325  0.94585675  1
loop_
_geom_bond_atom_site_label_1
_geom_bond_atom_site_label_2
_geom_bond_distance
_geom_bond_site_symmetry_2
Lu0 S4 2.639529 1_556
Lu0 S5 2.639529 1_655
Lu0 S3 2.639529 1_565
Lu0 S2 2.714508 1_565
Lu0 S0 2.714508 1_655
Lu0 S1 2.714509 1_556
Lu1 S5 2.639529 1_555
Lu1 S4 2.639529 1_555
Lu1 S3 2.639529 1_555
Lu1 S0 2.714508 1_655
Lu1 S1 2.714508 1_556
Lu1 S2 2.714509 1_565
Lu2 S2 2.639529 1_554
Lu2 S1 2.639529 1_455
Lu2 S0 2.639529 1_545
Lu2 S4 2.714508 1_545
Lu2 S3 2.714508 1_455
Lu2 S5 2.714509 1_554
Lu3 S1 2.639529 1_555
Lu3 S2 2.639529 1_555
Lu3 S0 2.639529 1_555
Lu3 S3 2.714508 1_455
Lu3 S5 2.714508 1_554
Lu3 S4 2.714509 1_545
