# generated using pymatgen
data_Si3N4
_symmetry_space_group_name_H-M   'P 1'
_cell_length_a   7.75216938
_cell_length_b   7.75231902
_cell_length_c   5.61885196
_cell_angle_alpha   90.00113541
_cell_angle_beta   90.00009886
_cell_angle_gamma   120.00288814
_symmetry_Int_Tables_number   1
_chemical_formula_structural   Si3N4
_chemical_formula_sum   'Si12 N16'
_cell_volume   292.42902133
_cell_formula_units_Z   4
loop_
 _symmetry_equiv_pos_site_id
 _symmetry_equiv_pos_as_xyz
  1  'x, y, z'
loop_
 _atom_site_type_symbol
 _atom_site_label
 _atom_site_symmetry_multiplicity
 _atom_site_fract_x
 _atom_site_fract_y
 _atom_site_fract_z
 _atom_site_occupancy
  Si  Si0  1  0.08194295  0.56967730  0.19639718  1
  Si  Si1  1  0.48765980  0.91797367  0.19632482  1
  Si  Si2  1  0.91387376  0.16727090  0.98847927  1
  Si  Si3  1  0.56969795  0.08196973  0.69633305  1
  Si  Si4  1  0.08614748  0.25342016  0.48846905  1
  Si  Si5  1  0.16727227  0.91388606  0.48844407  1
  Si  Si6  1  0.43027306  0.51232874  0.19621747  1
  Si  Si7  1  0.74660292  0.83273085  0.48834894  1
  Si  Si8  1  0.91801529  0.48768904  0.69639262  1
  Si  Si9  1  0.51235082  0.43028155  0.69621394  1
  Si  Si10  1  0.83273211  0.74661845  0.98835678  1
  Si  Si11  1  0.25342714  0.08615076  0.98842568  1
  N  N0  1  0.34455661  0.39008463  0.46906888  1
  N  N1  1  0.04553717  0.65547847  0.46923354  1
  N  N2  1  0.39010237  0.34455444  0.96906532  1
  N  N3  1  0.60989362  0.95441213  0.46916457  1
  N  N4  1  0.00001998  0.00001973  0.98900807  1
  N  N5  1  0.99648297  0.31481679  0.73484545  1
  N  N6  1  0.00000806  0.00001881  0.48900836  1
  N  N7  1  0.66669869  0.33329280  0.64074727  1
  N  N8  1  0.68160746  0.68527730  0.23464202  1
  N  N9  1  0.65546389  0.04551855  0.96917387  1
  N  N10  1  0.95441688  0.60990772  0.96922766  1
  N  N11  1  0.33326093  0.66665132  0.14074341  1
  N  N12  1  0.00351565  0.31834364  0.23485088  1
  N  N13  1  0.31836574  0.00356362  0.73478478  1
  N  N14  1  0.68528252  0.68161728  0.73464333  1
  N  N15  1  0.31478692  0.99644454  0.23478171  1
loop_
_geom_bond_atom_site_label_1
_geom_bond_atom_site_label_2
_geom_bond_distance
_geom_bond_site_symmetry_2
N0 Si9 1.735694 1_555
N0 Si4 1.739181 1_555
N0 Si6 1.749386 1_555
N1 Si8 1.735638 1_455
N1 Si5 1.739142 1_555
N1 Si0 1.749274 1_555
N2 Si6 1.735666 1_556
N2 Si11 1.739167 1_555
N2 Si9 1.749397 1_555
N3 Si3 1.735607 1_565
N3 Si7 1.739088 1_555
N3 Si1 1.749346 1_555
N4 Si10 1.730048 1_445
N4 Si2 1.730053 1_455
N4 Si11 1.730066 1_555
N5 Si4 1.719587 1_655
N5 Si2 1.736934 1_555
N5 Si8 1.740124 1_555
N6 Si7 1.730047 1_445
N6 Si4 1.730049 1_555
N6 Si5 1.730056 1_545
N7 Si3 1.730269 1_555
N7 Si9 1.730283 1_555
N7 Si8 1.730299 1_555
N8 Si10 1.719458 1_554
N8 Si7 1.736852 1_555
N8 Si6 1.740085 1_555
N9 Si1 1.735679 1_546
N9 Si2 1.739153 1_555
N9 Si3 1.749305 1_555
N10 Si0 1.735583 1_656
N10 Si10 1.739102 1_555
N10 Si8 1.749298 1_555
N11 Si6 1.730270 1_555
N11 Si0 1.730289 1_555
N11 Si1 1.730295 1_555
N12 Si2 1.719562 1_454
N12 Si4 1.736912 1_555
N12 Si0 1.740107 1_555
N13 Si5 1.719513 1_545
N13 Si11 1.736879 1_555
N13 Si3 1.740089 1_555
N14 Si7 1.719486 1_555
N14 Si10 1.736862 1_555
N14 Si9 1.740089 1_555
N15 Si11 1.719554 1_564
N15 Si5 1.736918 1_555
N15 Si1 1.740129 1_555
