# generated using pymatgen
data_MgMn6(OF)6
_symmetry_space_group_name_H-M   'P 1'
_cell_length_a   5.08737613
_cell_length_b   7.79122316
_cell_length_c   5.93357442
_cell_angle_alpha   95.73871861
_cell_angle_beta   98.28131012
_cell_angle_gamma   89.99867143
_symmetry_Int_Tables_number   1
_chemical_formula_structural   MgMn6(OF)6
_chemical_formula_sum   'Mg1 Mn6 O6 F6'
_cell_volume   231.54492792
_cell_formula_units_Z   1
loop_
 _symmetry_equiv_pos_site_id
 _symmetry_equiv_pos_as_xyz
  1  'x, y, z'
loop_
 _atom_site_type_symbol
 _atom_site_label
 _atom_site_symmetry_multiplicity
 _atom_site_fract_x
 _atom_site_fract_y
 _atom_site_fract_z
 _atom_site_occupancy
  Mg  Mg0  1  0.50000000  -0.00000000  -0.00000000  1
  Mn  Mn0  1  0.50000000  -0.00000000  0.50000000  1
  Mn  Mn1  1  0.51039075  0.63202210  0.19463254  1
  Mn  Mn2  1  0.48960925  0.36797790  0.80536746  1
  Mn  Mn3  1  0.02744755  0.68171256  0.66297890  1
  Mn  Mn4  1  0.97255245  0.31828744  0.33702110  1
  Mn  Mn5  1  0.00000000  -0.00000000  -0.00000000  1
  O  O0  1  0.78592992  0.09467884  0.26266367  1
  O  O1  1  0.71181079  0.76417155  0.46312597  1
  O  O2  1  0.70958745  0.43161421  0.11639710  1
  O  O3  1  0.29041255  0.56838579  0.88360290  1
  O  O4  1  0.28818921  0.23582845  0.53687403  1
  O  O5  1  0.21407008  0.90532116  0.73733633  1
  F  F0  1  0.81235053  0.45364639  0.62551236  1
  F  F1  1  0.73520623  0.79731244  0.95325870  1
  F  F2  1  0.69968803  0.13469320  0.80279255  1
  F  F3  1  0.30031197  0.86530680  0.19720745  1
  F  F4  1  0.18764947  0.54635361  0.37448764  1
  F  F5  1  0.26479377  0.20268856  0.04674130  1
loop_
_geom_bond_atom_site_label_1
_geom_bond_atom_site_label_2
_geom_bond_distance
_geom_bond_site_symmetry_2
Mg0 O5 2.050900 1_544
Mg0 O0 2.050900 1_555
Mn0 O4 2.138328 1_555
Mn0 O1 2.138328 1_545
Mn0 O5 2.332634 1_545
Mn0 O0 2.332634 1_555
Mn1 O2 1.915980 1_555
Mn1 O1 1.962117 1_555
Mn1 O3 2.031317 1_554
Mn2 O3 1.915980 1_555
Mn2 O4 1.962117 1_555
Mn2 O2 2.031317 1_556
Mn3 O5 1.963913 1_555
Mn3 O1 2.000306 1_455
Mn3 O3 2.002410 1_555
Mn4 O0 1.963913 1_555
Mn4 O4 2.000306 1_655
Mn4 O2 2.002410 1_555
Mn5 O0 2.101954 1_455
Mn5 O5 2.101954 1_544
F0 Mn3 2.062840 1_655
F0 Mn4 2.178869 1_555
F0 Mn2 2.219797 1_555
F1 Mg0 2.002617 1_566
F1 Mn5 2.047027 1_666
F1 Mn1 2.420450 1_556
F1 Mn3 2.532907 1_655
F2 Mg0 2.022529 1_556
F2 Mn2 2.108339 1_555
F2 Mn0 2.111506 1_555
F2 Mn5 2.129605 1_656
F3 Mg0 2.022529 1_565
F3 Mn1 2.108339 1_555
F3 Mn0 2.111506 1_565
F3 Mn5 2.129605 1_565
F4 Mn4 2.062840 1_455
F4 Mn3 2.178869 1_555
F4 Mn1 2.219797 1_555
F5 Mg0 2.002623 1_555
F5 Mn5 2.047033 1_555
F5 Mn2 2.420445 1_554
F5 Mn4 2.532905 1_455
