# generated using pymatgen
data_CsMgAl(MoO4)2
_symmetry_space_group_name_H-M   'P 1'
_cell_length_a   5.67379500
_cell_length_b   5.67379473
_cell_length_c   8.75445400
_cell_angle_alpha   90.00000000
_cell_angle_beta   90.00000000
_cell_angle_gamma   120.00000743
_symmetry_Int_Tables_number   1
_chemical_formula_structural   CsMgAl(MoO4)2
_chemical_formula_sum   'Cs1 Mg1 Al1 Mo2 O8'
_cell_volume   244.06579777
_cell_formula_units_Z   1
loop_
 _symmetry_equiv_pos_site_id
 _symmetry_equiv_pos_as_xyz
  1  'x, y, z'
loop_
 _atom_site_type_symbol
 _atom_site_label
 _atom_site_symmetry_multiplicity
 _atom_site_fract_x
 _atom_site_fract_y
 _atom_site_fract_z
 _atom_site_occupancy
  Cs  Cs0  1  0.00000000  0.00000000  0.96632900  1
  Mg  Mg0  1  0.33333300  0.66666700  0.15501300  1
  Al  Al0  1  0.00000000  0.00000000  0.50551300  1
  Mo  Mo0  1  0.33333300  0.66666700  0.69818400  1
  Mo  Mo1  1  0.66666700  0.33333300  0.31482800  1
  O  O0  1  0.33333300  0.66666700  0.90516100  1
  O  O1  1  0.66666700  0.33333300  0.11171300  1
  O  O2  1  0.15760300  0.31520500  0.64016900  1
  O  O3  1  0.68479500  0.84239700  0.64016900  1
  O  O4  1  0.15760300  0.84239700  0.64016900  1
  O  O5  1  0.83984700  0.67969400  0.38831300  1
  O  O6  1  0.83984700  0.16015300  0.38831300  1
  O  O7  1  0.32030600  0.16015300  0.38831300  1
loop_
_geom_bond_atom_site_label_1
_geom_bond_atom_site_label_2
_geom_bond_distance
_geom_bond_site_symmetry_2
Cs0 O2 3.248360 1_555
Cs0 O3 3.248360 1_445
Cs0 O4 3.248362 1_545
Cs0 O0 3.319244 1_545
Cs0 O0 3.319248 1_555
Cs0 O0 3.319249 1_445
Cs0 O1 3.514334 1_456
Cs0 O1 3.514338 1_446
Cs0 O1 3.514338 1_556
Mg0 O0 2.187318 1_554
Al0 O5 1.878774 1_445
Al0 O7 1.878774 1_555
Al0 O6 1.878774 1_455
Al0 O2 1.946398 1_555
Al0 O3 1.946398 1_445
Al0 O4 1.946402 1_545
Mo0 O4 1.800087 1_555
Mo0 O2 1.800096 1_555
Mo0 O3 1.800096 1_555
Mo0 O0 1.811971 1_555
Mo1 O1 1.778161 1_555
Mo1 O6 1.819423 1_555
Mo1 O5 1.819427 1_555
Mo1 O7 1.819427 1_555
