# generated using pymatgen
data_MgNbV3O10
_symmetry_space_group_name_H-M   'P 1'
_cell_length_a   6.62755400
_cell_length_b   6.62755400
_cell_length_c   5.70438600
_cell_angle_alpha   90.00000000
_cell_angle_beta   90.00000000
_cell_angle_gamma   90.00000000
_symmetry_Int_Tables_number   1
_chemical_formula_structural   MgNbV3O10
_chemical_formula_sum   'Mg1 Nb1 V3 O10'
_cell_volume   250.56214326
_cell_formula_units_Z   1
loop_
 _symmetry_equiv_pos_site_id
 _symmetry_equiv_pos_as_xyz
  1  'x, y, z'
loop_
 _atom_site_type_symbol
 _atom_site_label
 _atom_site_symmetry_multiplicity
 _atom_site_fract_x
 _atom_site_fract_y
 _atom_site_fract_z
 _atom_site_occupancy
  Mg  Mg0  1  0.75000000  0.25000000  0.00000000  1
  Nb  Nb0  1  0.75000000  0.25000000  0.50000000  1
  V  V0  1  0.25000000  0.25000000  0.61746400  1
  V  V1  1  0.75000000  0.75000000  0.38253600  1
  V  V2  1  0.25000000  0.75000000  0.50000000  1
  O  O0  1  0.03812000  0.75000000  0.31750500  1
  O  O1  1  0.25000000  0.25000000  0.32943800  1
  O  O2  1  0.25000000  0.53812000  0.68249500  1
  O  O3  1  0.25000000  0.96188000  0.68249500  1
  O  O4  1  0.46188000  0.75000000  0.31750500  1
  O  O5  1  0.54615600  0.25000000  0.73023600  1
  O  O6  1  0.75000000  0.04615600  0.26976400  1
  O  O7  1  0.75000000  0.45384400  0.26976400  1
  O  O8  1  0.75000000  0.75000000  0.67056200  1
  O  O9  1  0.95384400  0.25000000  0.73023600  1
loop_
_geom_bond_atom_site_label_1
_geom_bond_atom_site_label_2
_geom_bond_distance
_geom_bond_site_symmetry_2
Mg0 O6 2.047728 1_555
Mg0 O5 2.047728 1_554
Mg0 O7 2.047728 1_555
Mg0 O9 2.047728 1_554
Nb0 O5 1.884162 1_555
Nb0 O6 1.884162 1_555
Nb0 O9 1.884162 1_555
Nb0 O7 1.884162 1_555
O0 V2 1.748037 1_555
O0 V1 1.945230 1_455
O1 V0 1.643011 1_555
O2 V2 1.748037 1_555
O2 V0 1.945230 1_555
O3 V2 1.748037 1_555
O3 V0 1.945230 1_565
O4 V2 1.748037 1_555
O4 V1 1.945230 1_555
O5 V0 2.065520 1_555
O6 V1 2.065520 1_545
O7 V1 2.065520 1_555
O8 V1 1.643011 1_555
O9 V0 2.065520 1_655
