# generated using pymatgen
data_MgMn6O7F5
_symmetry_space_group_name_H-M   'P 1'
_cell_length_a   5.32559058
_cell_length_b   7.79124784
_cell_length_c   5.73533677
_cell_angle_alpha   96.78578397
_cell_angle_beta   97.69651621
_cell_angle_gamma   82.99841563
_symmetry_Int_Tables_number   1
_chemical_formula_structural   MgMn6O7F5
_chemical_formula_sum   'Mg1 Mn6 O7 F5'
_cell_volume   232.81596529
_cell_formula_units_Z   1
loop_
 _symmetry_equiv_pos_site_id
 _symmetry_equiv_pos_as_xyz
  1  'x, y, z'
loop_
 _atom_site_type_symbol
 _atom_site_label
 _atom_site_symmetry_multiplicity
 _atom_site_fract_x
 _atom_site_fract_y
 _atom_site_fract_z
 _atom_site_occupancy
  Mg  Mg0  1  0.94872500  0.86380700  0.33372800  1
  Mn  Mn0  1  0.44797800  0.98873400  0.56240300  1
  Mn  Mn1  1  0.50372300  0.63560500  0.18443500  1
  Mn  Mn2  1  0.51377200  0.33107900  0.82826400  1
  Mn  Mn3  1  0.99007300  0.65269100  0.71741400  1
  Mn  Mn4  1  0.00332300  0.32097400  0.33331900  1
  Mn  Mn5  1  0.02052100  0.03527200  0.92731000  1
  O  O0  1  0.89240900  0.10123900  0.22202400  1
  O  O1  1  0.71571800  0.10998300  0.74353400  1
  O  O2  1  0.67015200  0.77257700  0.47238700  1
  O  O3  1  0.72476300  0.42665100  0.11862200  1
  O  O4  1  0.31736600  0.55126400  0.89342800  1
  O  O5  1  0.29224500  0.22677300  0.54871100  1
  O  O6  1  0.15317900  0.89234700  0.65878600  1
  F  F0  1  0.80596200  0.43267600  0.62512400  1
  F  F1  1  0.80664300  0.77821600  0.00785900  1
  F  F2  1  0.27611400  0.86466900  0.17801700  1
  F  F3  1  0.14618200  0.56483000  0.37264700  1
  F  F4  1  0.27115000  0.20894500  0.03388700  1
loop_
_geom_bond_atom_site_label_1
_geom_bond_atom_site_label_2
_geom_bond_distance
_geom_bond_site_symmetry_2
Mg0 O0 2.003955 1_565
Mg0 O2 2.011295 1_555
Mg0 O6 2.031755 1_655
Mn0 O1 1.924696 1_565
Mn0 O5 1.943095 1_565
Mn0 O6 1.988057 1_555
Mn0 O2 1.993782 1_555
Mn1 O4 1.912736 1_554
Mn1 O3 1.919689 1_555
Mn1 O2 2.018403 1_555
Mn2 O4 1.921582 1_555
Mn2 O1 1.962324 1_555
Mn2 O3 2.000006 1_556
Mn2 O5 2.010502 1_555
Mn3 O4 2.015720 1_655
Mn3 O6 2.230723 1_655
Mn3 O2 2.243010 1_555
Mn4 O0 1.890669 1_455
Mn4 O3 1.961489 1_455
Mn4 O5 1.965222 1_555
Mn5 O1 1.881780 1_455
Mn5 O0 1.898637 1_456
Mn5 O6 1.950727 1_545
F0 Mn3 2.058235 1_555
F0 Mn4 2.137066 1_655
F0 Mn2 2.325772 1_555
F1 Mg0 1.989972 1_555
F1 Mn3 2.122171 1_554
F1 Mn1 2.450145 1_555
F1 Mn5 2.537262 1_664
F2 Mn1 2.032725 1_555
F2 Mg0 2.063701 1_455
F2 Mn5 2.274524 1_564
F2 Mn0 2.409130 1_555
F3 Mn4 2.108234 1_555
F3 Mn3 2.247537 1_455
F3 Mn1 2.458079 1_555
F3 Mg0 2.458572 1_455
F4 Mn5 2.003114 1_554
F4 Mn2 2.222369 1_554
F4 Mn4 2.396648 1_555
