# generated using pymatgen
data_Na5Nb2Ga2Si3(PO8)3
_symmetry_space_group_name_H-M   'P 1'
_cell_length_a   8.87819957
_cell_length_b   8.87766201
_cell_length_c   22.39037958
_cell_angle_alpha   89.51677609
_cell_angle_beta   90.46595223
_cell_angle_gamma   119.80157227
_symmetry_Int_Tables_number   1
_chemical_formula_structural   Na5Nb2Ga2Si3(PO8)3
_chemical_formula_sum   'Na15 Nb6 Ga6 Si9 P9 O72'
_cell_volume   1531.30102103
_cell_formula_units_Z   3
loop_
 _symmetry_equiv_pos_site_id
 _symmetry_equiv_pos_as_xyz
  1  'x, y, z'
loop_
 _atom_site_type_symbol
 _atom_site_label
 _atom_site_symmetry_multiplicity
 _atom_site_fract_x
 _atom_site_fract_y
 _atom_site_fract_z
 _atom_site_occupancy
  Na  Na0  1  0.99199690  0.62771766  0.24760881  1
  Na  Na1  1  0.37138318  0.00856500  0.74776062  1
  Na  Na2  1  0.03710989  0.69765983  0.58080040  1
  Na  Na3  1  0.65368991  0.95986886  0.58160001  1
  Na  Na4  1  0.30176496  0.96270928  0.08081703  1
  Na  Na5  1  0.03843198  0.34555413  0.08240334  1
  Na  Na6  1  0.97238867  0.67315391  0.91613610  1
  Na  Na7  1  0.96871844  0.29524598  0.41333470  1
  Na  Na8  1  0.32904525  0.02773073  0.41579145  1
  Na  Na9  1  0.99658661  0.99504058  0.49533093  1
  Na  Na10  1  0.99616388  0.00095051  0.99438712  1
  Na  Na11  1  0.66870913  0.33094616  0.82874384  1
  Na  Na12  1  0.66309221  0.33161844  0.32781114  1
  Na  Na13  1  0.34451731  0.66336492  0.16306830  1
  Na  Na14  1  0.33574634  0.65422255  0.66263065  1
  Nb  Nb0  1  0.99840234  0.00021624  0.64648321  1
  Nb  Nb1  1  0.99974981  0.00109317  0.14604063  1
  Nb  Nb2  1  0.65731142  0.32943675  0.97871229  1
  Nb  Nb3  1  0.66633471  0.33936616  0.47925895  1
  Nb  Nb4  1  0.33268604  0.66600689  0.31221843  1
  Nb  Nb5  1  0.34020540  0.67103343  0.81203625  1
  Ga  Ga0  1  0.98479129  0.99073810  0.35163691  1
  Ga  Ga1  1  0.00374415  0.01031109  0.85213369  1
  Ga  Ga2  1  0.66637349  0.33147366  0.68499648  1
  Ga  Ga3  1  0.66908738  0.33355441  0.18463510  1
  Ga  Ga4  1  0.33141521  0.66420655  0.01787568  1
  Ga  Ga5  1  0.34100349  0.67364730  0.51814887  1
  Si  Si0  1  0.99054680  0.28487396  0.25194921  1
  Si  Si1  1  0.71852418  0.01185086  0.75216473  1
  Si  Si2  1  0.37765447  0.04301423  0.58536297  1
  Si  Si3  1  0.65397389  0.61492949  0.58651835  1
  Si  Si4  1  0.95628389  0.62064851  0.08428432  1
  Si  Si5  1  0.38508006  0.34629371  0.08616679  1
  Si  Si6  1  0.32735044  0.95598992  0.91758703  1
  Si  Si7  1  0.62924761  0.95279665  0.41829150  1
  Si  Si8  1  0.04485017  0.67431367  0.41773107  1
  P  P0  1  0.29563847  0.00998636  0.25223806  1
  P  P1  1  0.71021146  0.70783420  0.25102469  1
  P  P2  1  0.29092052  0.28892659  0.75172085  1
  P  P3  1  0.99037954  0.70314699  0.75234977  1
  P  P4  1  0.96017938  0.33914530  0.58438759  1
  P  P5  1  0.66108793  0.04088914  0.08446539  1
  P  P6  1  0.62459184  0.67349590  0.91857047  1
  P  P7  1  0.04653511  0.37272105  0.91770908  1
  P  P8  1  0.33115846  0.37923252  0.41822828  1
  O  O0  1  0.20854263  0.02816466  0.30772340  1
  O  O1  1  0.82865963  0.78971469  0.30534446  1
  O  O2  1  0.97239210  0.17334576  0.31109625  1
  O  O3  1  0.20827654  0.16975955  0.80599651  1
  O  O4  1  0.97187328  0.79001728  0.80788268  1
  O  O5  1  0.83484778  0.03037468  0.80912784  1
  O  O6  1  0.80053386  0.97218128  0.69123168  1
  O  O7  1  0.17180273  0.20021590  0.69525430  1
  O  O8  1  0.03321650  0.82695007  0.69535378  1
  O  O9  1  0.79966384  0.82754778  0.19487605  1
  O  O10  1  0.02634558  0.19708366  0.19178288  1
  O  O11  1  0.17270509  0.96820703  0.19512293  1
  O  O12  1  0.87615733  0.36967641  0.63847296  1
  O  O13  1  0.49940406  0.12494770  0.64332431  1
  O  O14  1  0.63938892  0.50059736  0.64349420  1
  O  O15  1  0.87586725  0.50078829  0.14299812  1
  O  O16  1  0.62927035  0.12247055  0.13910737  1
  O  O17  1  0.49947262  0.36221341  0.14327871  1
  O  O18  1  0.46707382  0.29589896  0.02697143  1
  O  O19  1  0.83499713  0.53154110  0.02390818  1
  O  O20  1  0.70179231  0.16372785  0.02836192  1
  O  O21  1  0.46737949  0.16510418  0.52473201  1
  O  O22  1  0.70405641  0.53374017  0.52706776  1
  O  O23  1  0.84070934  0.29839111  0.52689422  1
  O  O24  1  0.53661765  0.69594991  0.97325314  1
  O  O25  1  0.15134429  0.45356422  0.97489518  1
  O  O26  1  0.29509339  0.83521933  0.97618620  1
  O  O27  1  0.54281070  0.84314782  0.47805004  1
  O  O28  1  0.29674016  0.46091359  0.47246755  1
  O  O29  1  0.16211072  0.70148924  0.47674604  1
  O  O30  1  0.13217205  0.63135167  0.35851841  1
  O  O31  1  0.49582493  0.86204309  0.36035902  1
  O  O32  1  0.36425289  0.49556137  0.36134206  1
  O  O33  1  0.13454867  0.49657650  0.86273642  1
  O  O34  1  0.36032084  0.86224437  0.85835344  1
  O  O35  1  0.50557045  0.63763437  0.86185660  1
  O  O36  1  0.03410777  0.84903975  0.40789630  1
  O  O37  1  0.82538844  0.98911363  0.41163192  1
  O  O38  1  0.17585373  0.19610653  0.41088093  1
  O  O39  1  0.02395472  0.19136871  0.91066603  1
  O  O40  1  0.15286475  0.96984875  0.90808005  1
  O  O41  1  0.80828710  0.82565761  0.91096200  1
  O  O42  1  0.96961046  0.16728775  0.58942097  1
  O  O43  1  0.18160966  0.02151729  0.59012795  1
  O  O44  1  0.83674747  0.81193405  0.59096426  1
  O  O45  1  0.97913389  0.81748658  0.09018923  1
  O  O46  1  0.83248612  0.03061890  0.08934858  1
  O  O47  1  0.18830916  0.16363573  0.09072679  1
  O  O48  1  0.68015964  0.17127481  0.74421107  1
  O  O49  1  0.46981231  0.30655412  0.74438006  1
  O  O50  1  0.83469300  0.52327150  0.74330092  1
  O  O51  1  0.69363860  0.52894896  0.24412846  1
  O  O52  1  0.82734965  0.31830348  0.24429536  1
  O  O53  1  0.47592528  0.16517650  0.24336285  1
  O  O54  1  0.64294647  0.50451154  0.92234677  1
  O  O55  1  0.86513752  0.36523203  0.92192292  1
  O  O56  1  0.50698911  0.14681050  0.92201018  1
  O  O57  1  0.64088084  0.14735808  0.42250979  1
  O  O58  1  0.49754891  0.35992206  0.42198683  1
  O  O59  1  0.85611739  0.49179865  0.42211610  1
  O  O60  1  0.34812382  0.50445447  0.07557172  1
  O  O61  1  0.15152653  0.64865442  0.07729431  1
  O  O62  1  0.50212791  0.86195081  0.07585607  1
  O  O63  1  0.34880333  0.84777486  0.57868889  1
  O  O64  1  0.49320132  0.64832007  0.57761357  1
  O  O65  1  0.13874682  0.49802273  0.57585410  1
  O  O66  1  0.30237616  0.83426342  0.25556526  1
  O  O67  1  0.52967306  0.69545688  0.25587450  1
  O  O68  1  0.16923910  0.48263888  0.25581892  1
  O  O69  1  0.30269102  0.46940223  0.75695454  1
  O  O70  1  0.16480252  0.69416260  0.75644939  1
  O  O71  1  0.51930449  0.83097785  0.75700627  1
loop_
_geom_bond_atom_site_label_1
_geom_bond_atom_site_label_2
_geom_bond_distance
_geom_bond_site_symmetry_2
Na0 O51 2.341070 1_555
Na0 O52 2.387065 1_555
Na0 O66 2.441808 1_655
Na0 O68 2.484891 1_655
Na0 O15 2.582525 1_555
Na0 O30 2.761852 1_655
Na0 O1 2.824391 1_555
Na0 O11 2.870944 1_655
Na1 O49 2.338283 1_555
Na1 O48 2.381914 1_555
Na1 O70 2.469903 1_545
Na1 O71 2.510215 1_545
Na1 O13 2.581186 1_555
Na1 O34 2.766141 1_545
Na1 O3 2.822596 1_555
Na1 O8 2.855403 1_545
Na2 O65 2.358426 1_555
Na2 O63 2.402375 1_555
Na2 O44 2.459590 1_455
Na2 O43 2.509002 1_565
Na2 O29 2.581479 1_555
Na2 O8 2.826277 1_555
Na2 O22 2.828956 1_455
Na2 O12 2.831676 1_455
Na3 O63 2.375347 1_555
Na3 O64 2.402670 1_555
Na3 O42 2.480331 1_565
Na3 O27 2.531366 1_555
Na3 O44 2.553728 1_555
Na3 O6 2.747355 1_555
Na3 O13 2.827432 1_565
Na3 O23 2.880969 1_565
Na4 O62 2.358675 1_555
Na4 O61 2.421608 1_555
Na4 O47 2.458030 1_565
Na4 O45 2.499075 1_455
Na4 O26 2.597825 1_554
Na4 O11 2.823289 1_555
Na4 O18 2.830270 1_565
Na4 O16 2.835450 1_565
Na5 O61 2.360696 1_555
Na5 O60 2.391864 1_555
Na5 O46 2.469864 1_455
Na5 O47 2.557454 1_555
Na5 O25 2.600689 1_554
Na5 O10 2.748801 1_555
Na5 O15 2.804187 1_455
Na5 O20 2.860255 1_455
Na6 O40 2.310686 1_655
Na6 O55 2.409334 1_555
Na6 O41 2.433989 1_555
Na6 O54 2.542836 1_555
Na6 O4 2.629348 1_555
Na6 O19 2.713608 1_556
Na6 O26 2.821151 1_655
Na6 O33 2.874460 1_655
Na7 O37 2.360131 1_545
Na7 O38 2.402250 1_655
Na7 O59 2.413654 1_555
Na7 O57 2.538569 1_555
Na7 O2 2.547651 1_555
Na7 O23 2.799491 1_555
Na7 O28 2.847793 1_655
Na7 O30 2.859844 1_655
Na8 O36 2.296223 1_545
Na8 O57 2.426656 1_555
Na8 O38 2.472212 1_555
Na8 O58 2.563695 1_555
Na8 O0 2.638427 1_555
Na8 O21 2.730957 1_555
Na8 O31 2.849938 1_545
Na8 O29 2.854307 1_545
Na9 O37 2.387650 1_555
Na9 O36 2.471056 1_655
Na9 O38 2.542206 1_665
Na9 O43 2.612798 1_665
Na9 O44 2.634202 1_555
Na9 O42 2.694527 1_565
Na10 O39 2.443761 1_655
Na10 O41 2.472106 1_545
Na10 O40 2.486090 1_645
Na10 O45 2.641668 1_546
Na10 O46 2.672457 1_556
Na10 O47 2.681926 1_656
Na11 O48 2.407006 1_555
Na11 O50 2.497308 1_555
Na11 O49 2.511124 1_555
Na11 O56 2.598610 1_555
Na11 O55 2.628794 1_555
Na11 O54 2.689151 1_555
Na12 O52 2.420079 1_555
Na12 O53 2.464803 1_555
Na12 O51 2.476657 1_555
Na12 O57 2.615000 1_555
Na12 O59 2.643291 1_555
Na12 O58 2.663827 1_555
Na13 O60 2.433473 1_555
Na13 O61 2.523785 1_555
Na13 O62 2.532485 1_555
Na13 O67 2.567150 1_555
Na13 O68 2.612123 1_555
Na13 O66 2.713090 1_555
Na14 O64 2.387101 1_555
Na14 O63 2.499903 1_555
Na14 O65 2.517225 1_555
Na14 O69 2.590673 1_555
Na14 O71 2.653560 1_555
Na14 O70 2.727828 1_555
Nb0 O6 1.934346 1_545
Nb0 O43 1.999306 1_655
Nb0 O7 2.000840 1_655
Nb0 O44 2.005118 1_545
Nb0 O8 2.024258 1_645
Nb0 O42 2.058446 1_555
Nb1 O10 1.936452 1_655
Nb1 O45 1.997082 1_545
Nb1 O9 2.001914 1_545
Nb1 O47 2.005250 1_655
Nb1 O11 2.015833 1_645
Nb1 O46 2.058115 1_555
Nb2 O18 1.906104 1_556
Nb2 O56 1.969252 1_555
Nb2 O19 1.980677 1_556
Nb2 O20 2.024518 1_556
Nb2 O54 2.045986 1_555
Nb2 O55 2.137939 1_555
Nb3 O22 1.920048 1_555
Nb3 O21 1.958692 1_555
Nb3 O59 2.011635 1_555
Nb3 O58 2.039576 1_555
Nb3 O23 2.047678 1_555
Nb3 O57 2.054301 1_555
Nb4 O31 1.946572 1_555
Nb4 O30 1.954150 1_555
Nb4 O32 1.991583 1_555
Nb4 O68 2.001804 1_555
Nb4 O66 2.067538 1_555
Nb4 O67 2.072278 1_555
Nb5 O34 1.927241 1_555
Nb5 O71 1.954696 1_555
Nb5 O35 1.971846 1_555
Nb5 O33 2.052882 1_555
Nb5 O69 2.067380 1_555
Nb5 O70 2.073231 1_555
Ga0 O2 1.901335 1_565
Ga0 O1 1.931210 1_555
Ga0 O37 1.953924 1_555
Ga0 O36 1.967914 1_655
Ga0 O0 2.096082 1_665
Ga0 O38 2.211589 1_665
Ga1 O5 1.856483 1_455
Ga1 O3 1.954262 1_555
Ga1 O40 1.972082 1_545
Ga1 O39 2.019511 1_555
Ga1 O4 2.089151 1_445
Ga1 O41 2.146325 1_445
Ga2 O14 1.872315 1_555
Ga2 O13 1.932470 1_555
Ga2 O48 1.983440 1_555
Ga2 O12 2.016620 1_555
Ga2 O50 2.076816 1_555
Ga2 O49 2.123975 1_555
Ga3 O17 1.882555 1_555
Ga3 O15 1.933617 1_555
Ga3 O52 1.983057 1_555
Ga3 O16 2.010876 1_555
Ga3 O53 2.088041 1_555
Ga3 O51 2.118812 1_555
Ga4 O26 1.933405 1_554
Ga4 O60 1.969088 1_555
Ga4 O24 1.977686 1_554
Ga4 O25 2.003148 1_554
Ga4 O61 2.037648 1_555
Ga4 O62 2.103800 1_555
Ga5 O27 1.898434 1_555
Ga5 O29 1.950742 1_555
Ga5 O64 1.979097 1_555
Ga5 O28 2.013866 1_555
Ga5 O63 2.039428 1_555
Ga5 O65 2.132039 1_555
O0 P0 1.520005 1_555
O1 P1 1.532250 1_555
O2 Si0 1.607127 1_555
O3 P2 1.534813 1_555
O4 P3 1.520937 1_555
O5 Si1 1.591733 1_555
O6 Si1 1.671719 1_565
O7 P2 1.582496 1_555
O8 P3 1.596859 1_455
O9 P1 1.579707 1_555
O10 Si0 1.671567 1_455
O11 P0 1.595965 1_565
O12 P4 1.522378 1_555
O13 Si2 1.610365 1_555
O14 Si3 1.588911 1_555
O15 Si4 1.614546 1_555
O16 P5 1.524830 1_555
O17 Si5 1.589305 1_555
O18 Si5 1.684101 1_555
O19 Si4 1.661456 1_555
O20 P5 1.578089 1_555
O21 Si2 1.669381 1_555
O22 Si3 1.683292 1_555
O23 P4 1.586592 1_555
O24 P6 1.524231 1_555
O25 P7 1.533860 1_555
O26 Si6 1.621794 1_555
O27 Si7 1.605914 1_555
O28 P8 1.528136 1_555
O29 Si8 1.619067 1_555
O30 Si8 1.680293 1_555
O31 Si7 1.666982 1_555
O32 P8 1.567631 1_555
O33 P7 1.572702 1_555
O34 Si6 1.674623 1_555
O35 P6 1.575140 1_555
O36 Si8 1.613886 1_555
O37 Si7 1.613668 1_555
O38 P8 1.530982 1_555
O39 P7 1.529724 1_555
O40 Si6 1.625996 1_555
O41 P6 1.524590 1_555
O42 P4 1.572062 1_555
O43 Si2 1.658233 1_555
O44 Si3 1.697410 1_555
O45 Si4 1.662331 1_555
O46 P5 1.571908 1_555
O47 Si5 1.695911 1_555
O48 Si1 1.620114 1_555
O49 P2 1.526683 1_555
O50 P3 1.519377 1_555
O51 P1 1.529380 1_555
O52 Si0 1.624582 1_555
O53 P0 1.519272 1_555
O54 P6 1.588992 1_555
O55 P7 1.582061 1_655
O56 Si6 1.654659 1_545
O57 Si7 1.681741 1_545
O58 P8 1.571048 1_555
O59 Si8 1.656499 1_655
O60 Si5 1.608248 1_555
O61 Si4 1.632902 1_455
O62 P5 1.524690 1_565
O63 Si2 1.629296 1_565
O64 Si3 1.606226 1_555
O65 P4 1.522165 1_455
O66 P0 1.591691 1_565
O67 P1 1.555820 1_555
O68 Si0 1.684797 1_455
O69 P2 1.558283 1_555
O70 P3 1.591593 1_455
O71 Si1 1.701653 1_565
