# generated using pymatgen
data_U(CoP)2
_symmetry_space_group_name_H-M   'P 1'
_cell_length_a   4.21087400
_cell_length_b   4.21087400
_cell_length_c   8.30296900
_cell_angle_alpha   90.00000000
_cell_angle_beta   90.00000000
_cell_angle_gamma   90.00000000
_symmetry_Int_Tables_number   1
_chemical_formula_structural   U(CoP)2
_chemical_formula_sum   'U2 Co4 P4'
_cell_volume   147.22376141
_cell_formula_units_Z   2
loop_
 _symmetry_equiv_pos_site_id
 _symmetry_equiv_pos_as_xyz
  1  'x, y, z'
loop_
 _atom_site_type_symbol
 _atom_site_label
 _atom_site_symmetry_multiplicity
 _atom_site_fract_x
 _atom_site_fract_y
 _atom_site_fract_z
 _atom_site_occupancy
  U  U0  1  0.00000000  0.50000000  0.78211600  1
  U  U1  1  0.50000000  0.00000000  0.21788400  1
  Co  Co0  1  0.00000000  0.50000000  0.15103600  1
  Co  Co1  1  0.50000000  0.50000000  0.00000000  1
  Co  Co2  1  0.00000000  0.00000000  0.00000000  1
  Co  Co3  1  0.50000000  0.00000000  0.84896400  1
  P  P0  1  0.50000000  0.50000000  0.50000000  1
  P  P1  1  0.00000000  0.00000000  0.50000000  1
  P  P2  1  0.50000000  0.00000000  0.59988400  1
  P  P3  1  0.00000000  0.50000000  0.40011600  1
loop_
_geom_bond_atom_site_label_1
_geom_bond_atom_site_label_2
_geom_bond_distance
_geom_bond_site_symmetry_2
Co0 P3 2.068104 1_555
Co0 Co1 2.450612 1_455
Co0 Co2 2.450612 1_565
Co0 Co1 2.450612 1_555
Co0 Co2 2.450612 1_555
Co0 U1 3.028827 1_465
Co0 U1 3.028827 1_555
Co0 U1 3.028827 1_455
Co0 U1 3.028827 1_565
Co0 U0 3.063131 1_554
Co1 Co3 2.450612 1_554
Co1 Co3 2.450612 1_564
Co1 U1 2.775905 1_555
Co1 U1 2.775905 1_565
Co1 U0 2.775905 1_654
Co1 U0 2.775905 1_554
Co2 Co3 2.450612 1_454
Co2 Co3 2.450612 1_554
Co2 U1 2.775905 1_455
Co2 U1 2.775905 1_555
Co2 U0 2.775905 1_554
Co2 U0 2.775905 1_544
Co3 P2 2.068104 1_555
Co3 U0 3.028827 1_645
Co3 U0 3.028827 1_545
Co3 U0 3.028827 1_555
Co3 U0 3.028827 1_655
Co3 U1 3.063131 1_556
P0 P2 2.262887 1_565
P0 P2 2.262887 1_555
P0 P3 2.262887 1_655
P0 P3 2.262887 1_555
P0 U0 3.149556 1_655
P0 U0 3.149556 1_555
P0 U1 3.149556 1_555
P0 U1 3.149556 1_565
P1 P2 2.262887 1_555
P1 P2 2.262887 1_455
P1 P3 2.262887 1_545
P1 P3 2.262887 1_555
P1 U0 3.149556 1_545
P1 U0 3.149556 1_555
P1 U1 3.149556 1_555
P1 U1 3.149556 1_455
P2 U1 3.171734 1_555
P2 U0 3.339925 1_645
P2 U0 3.339925 1_655
P2 U0 3.339925 1_545
P2 U0 3.339925 1_555
P3 U0 3.171734 1_555
P3 U1 3.339925 1_555
P3 U1 3.339925 1_565
P3 U1 3.339925 1_465
P3 U1 3.339925 1_455
