# generated using pymatgen
data_Na6Ta5ZnSi6(PO12)3
_symmetry_space_group_name_H-M   'P 1'
_cell_length_a   8.96454011
_cell_length_b   8.96453980
_cell_length_c   22.60794424
_cell_angle_alpha   89.71888491
_cell_angle_beta   90.28111509
_cell_angle_gamma   119.91189491
_symmetry_Int_Tables_number   1
_chemical_formula_structural   Na6Ta5ZnSi6(PO12)3
_chemical_formula_sum   'Na12 Ta10 Zn2 Si12 P6 O72'
_cell_volume   1574.80080504
_cell_formula_units_Z   2
loop_
 _symmetry_equiv_pos_site_id
 _symmetry_equiv_pos_as_xyz
  1  'x, y, z'
loop_
 _atom_site_type_symbol
 _atom_site_label
 _atom_site_symmetry_multiplicity
 _atom_site_fract_x
 _atom_site_fract_y
 _atom_site_fract_z
 _atom_site_occupancy
  Na  Na0  1  0.38138334  0.36952683  0.24079781  1
  Na  Na1  1  0.98010599  0.61402201  0.24173302  1
  Na  Na2  1  0.63047317  0.61861666  0.74079781  1
  Na  Na3  1  0.38597799  0.01989401  0.74173302  1
  Na  Na4  1  0.65881869  0.97506045  0.58609382  1
  Na  Na5  1  0.02493955  0.34118131  0.08609382  1
  Na  Na6  1  0.01229017  0.99742426  0.49849600  1
  Na  Na7  1  0.00257574  0.98770983  0.99849600  1
  Na  Na8  1  0.68087605  0.32958172  0.82960902  1
  Na  Na9  1  0.67041828  0.31912395  0.32960902  1
  Na  Na10  1  0.35178981  0.68619143  0.16310605  1
  Na  Na11  1  0.31380857  0.64821019  0.66310605  1
  Ta  Ta0  1  0.99737938  0.00459557  0.35802808  1
  Ta  Ta1  1  0.99540443  0.00262062  0.85802808  1
  Ta  Ta2  1  0.99931525  0.99848145  0.64359306  1
  Ta  Ta3  1  0.00151855  0.00068475  0.14359306  1
  Ta  Ta4  1  0.66362719  0.33676794  0.97830618  1
  Ta  Ta5  1  0.66323206  0.33637281  0.47830618  1
  Ta  Ta6  1  0.33354624  0.66670709  0.01937478  1
  Ta  Ta7  1  0.33329291  0.66645376  0.51937478  1
  Ta  Ta8  1  0.33237167  0.66672910  0.31387004  1
  Ta  Ta9  1  0.33327090  0.66762833  0.81387004  1
  Zn  Zn0  1  0.67137407  0.32766680  0.68013417  1
  Zn  Zn1  1  0.67233320  0.32862593  0.18013417  1
  Si  Si0  1  0.99454460  0.28908346  0.24979623  1
  Si  Si1  1  0.71091654  0.00545540  0.74979623  1
  Si  Si2  1  0.37634166  0.04336626  0.58533332  1
  Si  Si3  1  0.66283161  0.61628384  0.58727903  1
  Si  Si4  1  0.95663374  0.62365834  0.08533332  1
  Si  Si5  1  0.38371616  0.33716839  0.08727903  1
  Si  Si6  1  0.62088419  0.66455800  0.91629942  1
  Si  Si7  1  0.04203918  0.37914221  0.91730634  1
  Si  Si8  1  0.33590266  0.95758160  0.91592355  1
  Si  Si9  1  0.62085779  0.95796082  0.41730634  1
  Si  Si10  1  0.33544200  0.37911581  0.41629942  1
  Si  Si11  1  0.04241840  0.66409734  0.41592355  1
  P  P0  1  0.28441098  0.99750789  0.25155011  1
  P  P1  1  0.71167012  0.72052240  0.25152213  1
  P  P2  1  0.27947760  0.28832988  0.75152213  1
  P  P3  1  0.00249211  0.71558902  0.75155011  1
  P  P4  1  0.95797479  0.33823151  0.58437452  1
  P  P5  1  0.66176849  0.04202521  0.08437452  1
  O  O0  1  0.18451390  0.00890209  0.30546644  1
  O  O1  1  0.82514956  0.81466283  0.30577593  1
  O  O2  1  0.98894034  0.17038655  0.30637062  1
  O  O3  1  0.18533717  0.17485044  0.80577593  1
  O  O4  1  0.99109791  0.81548610  0.80546644  1
  O  O5  1  0.82961345  0.01105966  0.80637062  1
  O  O6  1  0.80340962  0.97337895  0.69115801  1
  O  O7  1  0.17069837  0.19608110  0.69541855  1
  O  O8  1  0.03115399  0.83374981  0.69559541  1
  O  O9  1  0.80391890  0.82930163  0.19541855  1
  O  O10  1  0.02662105  0.19659038  0.19115801  1
  O  O11  1  0.16625019  0.96884601  0.19559541  1
  O  O12  1  0.89025088  0.37082363  0.64067551  1
  O  O13  1  0.48886253  0.10174139  0.64492100  1
  O  O14  1  0.63340742  0.51665975  0.64846189  1
  O  O15  1  0.89825861  0.51113747  0.14492100  1
  O  O16  1  0.62917637  0.10974912  0.14067551  1
  O  O17  1  0.48334025  0.36659258  0.14846189  1
  O  O18  1  0.47600019  0.30553805  0.02936439  1
  O  O19  1  0.83239703  0.52196807  0.02832842  1
  O  O20  1  0.70030464  0.16131587  0.02972196  1
  O  O21  1  0.47803193  0.16760297  0.52832842  1
  O  O22  1  0.69446195  0.52399981  0.52936439  1
  O  O23  1  0.83868413  0.29969536  0.52972196  1
  O  O24  1  0.52623535  0.69217295  0.97247431  1
  O  O25  1  0.16099716  0.46678520  0.97578810  1
  O  O26  1  0.30632324  0.83165244  0.97189395  1
  O  O27  1  0.53321480  0.83900284  0.47578810  1
  O  O28  1  0.30782705  0.47376465  0.47247431  1
  O  O29  1  0.16834756  0.69367676  0.47189395  1
  O  O30  1  0.13547657  0.63843274  0.35646488  1
  O  O31  1  0.49826625  0.85888855  0.35972811  1
  O  O32  1  0.36035127  0.49596428  0.35648620  1
  O  O33  1  0.14111145  0.50173375  0.85972811  1
  O  O34  1  0.36156726  0.86452343  0.85646488  1
  O  O35  1  0.50403572  0.63964873  0.85648620  1
  O  O36  1  0.02393013  0.83466022  0.40726038  1
  O  O37  1  0.80969165  0.97287220  0.40907710  1
  O  O38  1  0.16651016  0.18751885  0.40925285  1
  O  O39  1  0.02712780  0.19030835  0.90907710  1
  O  O40  1  0.16533978  0.97606987  0.90726038  1
  O  O41  1  0.81248115  0.83348984  0.90925285  1
  O  O42  1  0.97159497  0.16813745  0.59031372  1
  O  O43  1  0.18529455  0.02778255  0.59082062  1
  O  O44  1  0.83503302  0.81837687  0.59081451  1
  O  O45  1  0.97221745  0.81470545  0.09082062  1
  O  O46  1  0.83186255  0.02840503  0.09031372  1
  O  O47  1  0.18162313  0.16496698  0.09081451  1
  O  O48  1  0.68155424  0.16727730  0.74982229  1
  O  O49  1  0.45934562  0.31018514  0.75080140  1
  O  O50  1  0.84163667  0.54224403  0.74881877  1
  O  O51  1  0.68981486  0.54065438  0.25080140  1
  O  O52  1  0.83272270  0.31844576  0.24982229  1
  O  O53  1  0.45775597  0.15836333  0.24881877  1
  O  O54  1  0.63809907  0.49288199  0.92358200  1
  O  O55  1  0.85221300  0.35660669  0.92482685  1
  O  O56  1  0.50709307  0.14397677  0.92488828  1
  O  O57  1  0.64339331  0.14778700  0.42482685  1
  O  O58  1  0.50711801  0.36190093  0.42358200  1
  O  O59  1  0.85602323  0.49290693  0.42488828  1
  O  O60  1  0.34550762  0.49810769  0.07559506  1
  O  O61  1  0.15145085  0.65199117  0.07296913  1
  O  O62  1  0.51106729  0.85742326  0.07339917  1
  O  O63  1  0.34800883  0.84854915  0.57296913  1
  O  O64  1  0.50189231  0.65449238  0.57559506  1
  O  O65  1  0.14257674  0.48893271  0.57339917  1
  O  O66  1  0.29135507  0.82655833  0.25493411  1
  O  O67  1  0.53070338  0.70586344  0.25500034  1
  O  O68  1  0.17990773  0.47967003  0.25453605  1
  O  O69  1  0.29413656  0.46929662  0.75500034  1
  O  O70  1  0.17344167  0.70864493  0.75493411  1
  O  O71  1  0.52032997  0.82009227  0.75453605  1
loop_
_geom_bond_atom_site_label_1
_geom_bond_atom_site_label_2
_geom_bond_distance
_geom_bond_site_symmetry_2
Na0 O17 2.288467 1_555
Na0 O53 2.317972 1_555
Na0 O51 2.411722 1_555
Na0 O68 2.473991 1_555
Na0 O67 2.639284 1_555
Na0 O32 2.899663 1_555
Na0 O10 2.973528 1_555
Na1 O52 2.303499 1_555
Na1 O15 2.347049 1_555
Na1 O51 2.354489 1_555
Na1 O66 2.489954 1_655
Na1 O68 2.624025 1_655
Na1 O30 2.895178 1_655
Na1 O11 2.946367 1_655
Na2 O14 2.288467 1_555
Na2 O50 2.317972 1_555
Na2 O49 2.411722 1_555
Na2 O71 2.473991 1_555
Na2 O69 2.639284 1_555
Na2 O35 2.899663 1_555
Na2 O6 2.973528 1_555
Na3 O48 2.303499 1_555
Na3 O13 2.347049 1_555
Na3 O49 2.354489 1_555
Na3 O70 2.489954 1_545
Na3 O71 2.624025 1_545
Na3 O34 2.895178 1_545
Na3 O8 2.946367 1_545
Na4 O63 2.445651 1_555
Na4 O42 2.454705 1_565
Na4 O64 2.503046 1_555
Na4 O44 2.586396 1_555
Na4 O13 2.672094 1_565
Na4 O6 2.703931 1_555
Na4 O27 2.758089 1_555
Na4 O23 2.827933 1_565
Na5 O61 2.445651 1_555
Na5 O46 2.454705 1_455
Na5 O60 2.503046 1_555
Na5 O47 2.586396 1_555
Na5 O15 2.672094 1_455
Na5 O10 2.703931 1_555
Na5 O25 2.758089 1_554
Na5 O20 2.827933 1_455
Na6 O43 2.527632 1_565
Na6 O38 2.555389 1_565
Na6 O36 2.564740 1_555
Na6 O44 2.629327 1_455
Na6 O37 2.646407 1_455
Na6 O42 2.716525 1_465
Na7 O45 2.527632 1_456
Na7 O41 2.555389 1_455
Na7 O40 2.564740 1_555
Na7 O47 2.629327 1_566
Na7 O39 2.646407 1_565
Na7 O46 2.716525 1_466
Na8 O48 2.324961 1_555
Na8 O50 2.509780 1_555
Na8 O55 2.579426 1_555
Na8 O49 2.602385 1_555
Na8 O56 2.692214 1_555
Na8 O54 2.720687 1_555
Na9 O52 2.324961 1_555
Na9 O53 2.509780 1_555
Na9 O57 2.579426 1_555
Na9 O51 2.602385 1_555
Na9 O59 2.692214 1_555
Na9 O58 2.720687 1_555
Na10 O62 2.513981 1_555
Na10 O67 2.570702 1_555
Na10 O60 2.587900 1_555
Na10 O61 2.625483 1_555
Na10 O66 2.627438 1_555
Na10 O68 2.687577 1_555
Na11 O65 2.513981 1_555
Na11 O69 2.570702 1_555
Na11 O64 2.587900 1_555
Na11 O63 2.625483 1_555
Na11 O70 2.627438 1_555
Na11 O71 2.687577 1_555
O0 P0 1.549639 1_545
O0 Ta0 2.045079 1_455
O1 P1 1.547010 1_555
O1 Ta0 2.014540 1_565
O2 Si0 1.644577 1_555
O2 Ta0 1.916452 1_555
O3 P2 1.547010 1_555
O3 Ta1 2.014540 1_455
O4 P3 1.549639 1_655
O4 Ta1 2.045079 1_565
O5 Si1 1.644577 1_555
O5 Ta1 1.916452 1_555
O6 Si1 1.667320 1_565
O6 Ta2 1.978198 1_555
O7 P2 1.561247 1_555
O7 Ta2 2.039486 1_445
O8 P3 1.583326 1_555
O8 Ta2 2.011086 1_455
O9 P1 1.561247 1_555
O9 Ta3 2.039486 1_665
O10 Si0 1.667320 1_455
O10 Ta3 1.978198 1_555
O11 P0 1.583326 1_555
O11 Ta3 2.011086 1_565
O12 P4 1.504075 1_555
O12 Zn0 2.012992 1_555
O13 Si2 1.604144 1_555
O13 Zn0 2.027509 1_555
O14 Si3 1.592791 1_555
O14 Zn0 2.014894 1_555
O15 Si4 1.604144 1_555
O15 Zn1 2.027509 1_555
O16 P5 1.504075 1_555
O16 Zn1 2.012992 1_555
O17 Si5 1.592791 1_555
O17 Zn1 2.014894 1_555
O18 Si5 1.651476 1_555
O18 Ta4 1.945808 1_554
O19 Si4 1.648391 1_555
O19 Ta4 1.954686 1_554
O20 P5 1.553180 1_555
O20 Ta4 2.104096 1_554
O21 Si2 1.648391 1_555
O21 Ta5 1.954686 1_555
O22 Si3 1.651476 1_555
O22 Ta5 1.945808 1_555
O23 P4 1.553180 1_555
O23 Ta5 2.104096 1_555
O24 Si6 1.617792 1_555
O24 Ta6 1.944869 1_556
O25 Si7 1.631973 1_555
O25 Ta6 1.952748 1_556
O26 Si8 1.623769 1_555
O26 Ta6 1.933913 1_556
O27 Si9 1.631973 1_555
O27 Ta7 1.952748 1_555
O28 Si10 1.617792 1_555
O28 Ta7 1.944868 1_555
O29 Si11 1.623769 1_555
O29 Ta7 1.933913 1_555
O30 Si11 1.661715 1_555
O30 Ta8 1.917004 1_555
O31 Si9 1.647693 1_555
O31 Ta8 1.923890 1_555
O32 Si10 1.652718 1_555
O32 Ta8 1.923723 1_555
O33 Si7 1.647693 1_555
O33 Ta9 1.923890 1_555
O34 Si8 1.661715 1_555
O34 Ta9 1.917004 1_555
O35 Si6 1.652718 1_555
O35 Ta9 1.923723 1_555
O36 Si11 1.628868 1_555
O36 Ta0 1.989629 1_465
O37 Si9 1.641721 1_555
O37 Ta0 1.944838 1_565
O38 Si10 1.635544 1_555
O38 Ta0 1.962333 1_455
O39 Si7 1.641721 1_555
O39 Ta1 1.944838 1_455
O40 Si8 1.628868 1_555
O40 Ta1 1.989629 1_465
O41 Si6 1.635544 1_555
O41 Ta1 1.962333 1_565
O42 P4 1.594211 1_555
O42 Ta2 2.044940 1_545
O43 Si2 1.652685 1_555
O43 Ta2 1.962582 1_445
O44 Si3 1.697806 1_555
O44 Ta2 1.956950 1_555
O45 Si4 1.652685 1_555
O45 Ta3 1.962582 1_665
O46 P5 1.594211 1_555
O46 Ta3 2.044940 1_655
O47 Si5 1.697806 1_555
O47 Ta3 1.956950 1_555
O48 Si1 1.598290 1_555
O48 Zn0 2.159883 1_555
O49 P2 1.524385 1_555
O49 Zn0 2.433121 1_555
O50 P3 1.504389 1_655
O50 Zn0 2.349245 1_555
O51 P1 1.524385 1_555
O51 Zn1 2.433121 1_555
O52 Si0 1.598290 1_555
O52 Zn1 2.159883 1_555
O53 P0 1.504389 1_545
O53 Zn1 2.349245 1_555
O54 Si6 1.628978 1_555
O54 Ta4 1.959913 1_555
O55 Si7 1.620234 1_655
O55 Ta4 2.017328 1_555
O56 Si8 1.622056 1_545
O56 Ta4 1.999912 1_555
O57 Si9 1.620234 1_545
O57 Ta5 2.017328 1_555
O58 Si10 1.628978 1_555
O58 Ta5 1.959913 1_555
O59 Si11 1.622056 1_655
O59 Ta5 1.999912 1_555
O60 Si5 1.660374 1_555
O60 Ta6 2.013164 1_555
O61 Si4 1.659643 1_455
O61 Ta6 1.988295 1_555
O62 P5 1.547999 1_565
O62 Ta6 2.057962 1_555
O63 Si2 1.659643 1_565
O63 Ta7 1.988295 1_555
O64 Si3 1.660374 1_555
O64 Ta7 2.013164 1_555
O65 P4 1.547999 1_455
O65 Ta7 2.057962 1_555
O66 P0 1.565945 1_555
O66 Ta8 2.113134 1_555
O67 P1 1.563262 1_555
O67 Ta8 2.110001 1_555
O68 Si0 1.691251 1_455
O68 Ta8 2.048831 1_555
O69 P2 1.563262 1_555
O69 Ta9 2.110001 1_555
O70 P3 1.565945 1_555
O70 Ta9 2.113134 1_555
O71 Si1 1.691251 1_565
O71 Ta9 2.048831 1_555
