# generated using pymatgen
data_MgV2(SO5)2
_symmetry_space_group_name_H-M   'P 1'
_cell_length_a   4.08268905
_cell_length_b   6.63088222
_cell_length_c   6.63084772
_cell_angle_alpha   89.55116510
_cell_angle_beta   93.39122300
_cell_angle_gamma   93.15586066
_symmetry_Int_Tables_number   1
_chemical_formula_structural   MgV2(SO5)2
_chemical_formula_sum   'Mg1 V2 S2 O10'
_cell_volume   178.92120468
_cell_formula_units_Z   1
loop_
 _symmetry_equiv_pos_site_id
 _symmetry_equiv_pos_as_xyz
  1  'x, y, z'
loop_
 _atom_site_type_symbol
 _atom_site_label
 _atom_site_symmetry_multiplicity
 _atom_site_fract_x
 _atom_site_fract_y
 _atom_site_fract_z
 _atom_site_occupancy
  Mg  Mg0  1  0.00000000  0.00000000  0.00000000  1
  V  V0  1  0.35464300  0.74690200  0.74652000  1
  V  V1  1  0.64535700  0.25309800  0.25348000  1
  S  S0  1  0.49842200  0.74523000  0.25698000  1
  S  S1  1  0.50157800  0.25477000  0.74302000  1
  O  O0  1  0.72620800  0.25152900  0.93142500  1
  O  O1  1  0.69411300  0.56687600  0.25888100  1
  O  O2  1  0.19148800  0.21410000  0.21335300  1
  O  O3  1  0.80851200  0.78590000  0.78664700  1
  O  O4  1  0.72367800  0.93214400  0.24516700  1
  O  O5  1  0.69793000  0.24306500  0.56627200  1
  O  O6  1  0.30207000  0.75693500  0.43372800  1
  O  O7  1  0.27632200  0.06785600  0.75483300  1
  O  O8  1  0.30588700  0.43312400  0.74111900  1
  O  O9  1  0.27379200  0.74847100  0.06857500  1
loop_
_geom_bond_atom_site_label_1
_geom_bond_atom_site_label_2
_geom_bond_distance
_geom_bond_site_symmetry_2
Mg0 O7 2.065806 1_554
Mg0 O4 2.065806 1_445
Mg0 O9 2.090758 1_545
Mg0 O0 2.090758 1_454
Mg0 O3 2.099162 1_444
Mg0 O2 2.099162 1_555
O0 S1 1.506134 1_555
O0 V1 2.180261 1_556
O1 S0 1.462782 1_555
O1 V1 2.079574 1_555
O2 V1 1.860453 1_555
O2 V1 2.289957 1_455
O3 V0 1.860453 1_555
O3 V0 2.289957 1_655
O4 S0 1.506492 1_555
O4 V1 2.171038 1_565
O5 S1 1.463435 1_555
O5 V1 2.073410 1_555
O6 S0 1.463435 1_555
O6 V0 2.073410 1_555
O7 S1 1.506492 1_555
O7 V0 2.171038 1_545
O8 S1 1.462782 1_555
O8 V0 2.079574 1_555
O9 S0 1.506134 1_555
O9 V0 2.180261 1_554
