# generated using pymatgen
data_KMgNbO3
_symmetry_space_group_name_H-M   'P 1'
_cell_length_a   6.19902511
_cell_length_b   3.89063507
_cell_length_c   3.89063589
_cell_angle_alpha   90.21858018
_cell_angle_beta   107.20288523
_cell_angle_gamma   107.20287716
_symmetry_Int_Tables_number   1
_chemical_formula_structural   KMgNbO3
_chemical_formula_sum   'K1 Mg1 Nb1 O3'
_cell_volume   85.19749283
_cell_formula_units_Z   1
loop_
 _symmetry_equiv_pos_site_id
 _symmetry_equiv_pos_as_xyz
  1  'x, y, z'
loop_
 _atom_site_type_symbol
 _atom_site_label
 _atom_site_symmetry_multiplicity
 _atom_site_fract_x
 _atom_site_fract_y
 _atom_site_fract_z
 _atom_site_occupancy
  K  K0  1  0.96507291  0.82845359  0.82845359  1
  Mg  Mg0  1  0.65858560  0.17493698  0.17493698  1
  Nb  Nb0  1  0.37122267  0.53337498  0.53337498  1
  O  O0  1  0.02295980  0.35797469  0.35797470  1
  O  O1  1  0.55266351  0.62403954  0.12105421  1
  O  O2  1  0.55266351  0.12105421  0.62403954  1
loop_
_geom_bond_atom_site_label_1
_geom_bond_atom_site_label_2
_geom_bond_distance
_geom_bond_site_symmetry_2
K0 O0 2.753443 1_655
K0 O0 2.775552 1_665
K0 O0 2.775552 1_656
K0 O0 2.776766 1_666
K0 O2 2.998348 1_565
K0 O1 2.998349 1_556
K0 O2 3.059707 1_555
K0 O1 3.059707 1_555
Mg0 O1 2.031782 1_555
Mg0 O2 2.031783 1_555
Mg0 O1 2.037569 1_545
Mg0 O2 2.037569 1_554
Mg0 O0 2.051700 1_655
Nb0 O0 1.961054 1_555
Nb0 O2 2.190854 1_555
Nb0 O1 2.190855 1_555
Nb0 O2 2.203477 1_565
Nb0 O1 2.203478 1_556
