# generated using pymatgen
data_LuHCl
_symmetry_space_group_name_H-M   'P 1'
_cell_length_a   9.41023375
_cell_length_b   9.41023375
_cell_length_c   9.41023395
_cell_angle_alpha   22.20903905
_cell_angle_beta   22.20903905
_cell_angle_gamma   22.20903830
_symmetry_Int_Tables_number   1
_chemical_formula_structural   LuHCl
_chemical_formula_sum   'Lu2 H2 Cl2'
_cell_volume   104.39673859
_cell_formula_units_Z   2
loop_
 _symmetry_equiv_pos_site_id
 _symmetry_equiv_pos_as_xyz
  1  'x, y, z'
loop_
 _atom_site_type_symbol
 _atom_site_label
 _atom_site_symmetry_multiplicity
 _atom_site_fract_x
 _atom_site_fract_y
 _atom_site_fract_z
 _atom_site_occupancy
  Lu  Lu0  1  0.88022844  0.88022844  0.88022844  1
  Lu  Lu1  1  0.11977156  0.11977156  0.11977156  1
  H  H0  1  0.80381471  0.80381471  0.80381471  1
  H  H1  1  0.19618529  0.19618529  0.19618529  1
  Cl  Cl0  1  0.39249755  0.39249755  0.39249755  1
  Cl  Cl1  1  0.60750245  0.60750245  0.60750245  1
loop_
_geom_bond_atom_site_label_1
_geom_bond_atom_site_label_2
_geom_bond_distance
_geom_bond_site_symmetry_2
H0 Lu0 2.103190 1_555
H0 Lu1 2.146739 1_566
H0 Lu1 2.146739 1_656
H0 Lu1 2.146739 1_665
H1 Lu1 2.103190 1_555
H1 Lu0 2.146739 1_544
H1 Lu0 2.146739 1_454
H1 Lu0 2.146739 1_445
Cl0 Lu1 2.676273 1_565
Cl0 Lu1 2.676273 1_655
Cl0 Lu1 2.676273 1_556
Cl1 Lu0 2.676273 1_545
Cl1 Lu0 2.676273 1_455
Cl1 Lu0 2.676273 1_554
