# generated using pymatgen
data_Na6Y4Sc4Si3(S3O16)3
_symmetry_space_group_name_H-M   'P 1'
_cell_length_a   18.21461737
_cell_length_b   9.06076890
_cell_length_c   23.80365296
_cell_angle_alpha   90.13759816
_cell_angle_beta   89.96871733
_cell_angle_gamma   119.80481092
_symmetry_Int_Tables_number   1
_chemical_formula_structural   Na6Y4Sc4Si3(S3O16)3
_chemical_formula_sum   'Na18 Y12 Sc12 Si9 S27 O144'
_cell_volume   3408.85723070
_cell_formula_units_Z   3
loop_
 _symmetry_equiv_pos_site_id
 _symmetry_equiv_pos_as_xyz
  1  'x, y, z'
loop_
 _atom_site_type_symbol
 _atom_site_label
 _atom_site_symmetry_multiplicity
 _atom_site_fract_x
 _atom_site_fract_y
 _atom_site_fract_z
 _atom_site_occupancy
  Na  Na0  1  0.00527016  0.64673290  0.25318195  1
  Na  Na1  1  0.50346501  0.36367856  0.74340099  1
  Na  Na2  1  0.16107654  0.30537164  0.91280729  1
  Na  Na3  1  0.66114229  0.30370616  0.91226078  1
  Na  Na4  1  0.16336735  0.02270129  0.41680909  1
  Na  Na5  1  0.65965768  0.01076624  0.41744588  1
  Na  Na6  1  0.99473855  0.98819082  0.49785156  1
  Na  Na7  1  0.49296768  0.00047343  0.50155648  1
  Na  Na8  1  0.99456389  0.00296144  0.99351579  1
  Na  Na9  1  0.49451808  0.00191551  0.99512890  1
  Na  Na10  1  0.33098916  0.33301156  0.82656112  1
  Na  Na11  1  0.83856997  0.33530063  0.83062126  1
  Na  Na12  1  0.34147528  0.34805897  0.33730995  1
  Na  Na13  1  0.83154019  0.33029338  0.33512251  1
  Na  Na14  1  0.17357618  0.68074702  0.17255104  1
  Na  Na15  1  0.66471466  0.68076714  0.17329682  1
  Na  Na16  1  0.16825013  0.65159079  0.67100513  1
  Na  Na17  1  0.66262570  0.65161324  0.66430847  1
  Y  Y0  1  0.00333704  0.01074769  0.64945329  1
  Y  Y1  1  0.50482540  0.01695795  0.64642866  1
  Y  Y2  1  0.00608900  0.00155591  0.14963607  1
  Y  Y3  1  0.50237549  0.99529001  0.14984495  1
  Y  Y4  1  0.82836827  0.33290792  0.68910837  1
  Y  Y5  1  0.32915597  0.32551654  0.19014803  1
  Y  Y6  1  0.16094197  0.65705346  0.01556076  1
  Y  Y7  1  0.66385458  0.65823197  0.01585973  1
  Y  Y8  1  0.16537415  0.67013377  0.51640620  1
  Y  Y9  1  0.65205895  0.65160221  0.51955832  1
  Y  Y10  1  0.66020028  0.66907989  0.31683757  1
  Y  Y11  1  0.15986140  0.65003974  0.81477992  1
  Sc  Sc0  1  0.00321951  0.99530491  0.35124496  1
  Sc  Sc1  1  0.50601024  0.99292387  0.34897858  1
  Sc  Sc2  1  0.00654279  0.02130790  0.84644333  1
  Sc  Sc3  1  0.50269687  0.01161370  0.84828620  1
  Sc  Sc4  1  0.33034888  0.33503743  0.68308104  1
  Sc  Sc5  1  0.82280453  0.31488991  0.18794838  1
  Sc  Sc6  1  0.34369332  0.33454186  0.97837252  1
  Sc  Sc7  1  0.84008508  0.33334802  0.97993298  1
  Sc  Sc8  1  0.34685990  0.34627735  0.48352453  1
  Sc  Sc9  1  0.84277490  0.35104598  0.47947584  1
  Sc  Sc10  1  0.16233547  0.67065378  0.31849831  1
  Sc  Sc11  1  0.66054363  0.65315290  0.81624880  1
  Si  Si0  1  0.14768517  0.99447878  0.25431353  1
  Si  Si1  1  0.64979446  0.00145958  0.25062439  1
  Si  Si2  1  0.15427272  0.29770557  0.75014082  1
  Si  Si3  1  0.64849909  0.29957713  0.75504879  1
  Si  Si4  1  0.47654477  0.33128600  0.58733544  1
  Si  Si5  1  0.01395476  0.35830657  0.91705832  1
  Si  Si6  1  0.51748815  0.36509774  0.91426560  1
  Si  Si7  1  0.01706376  0.66692174  0.41438197  1
  Si  Si8  1  0.51241800  0.66756522  0.41619286  1
  S  S0  1  0.35076810  0.70962180  0.25256494  1
  S  S1  1  0.85475647  0.70427260  0.24933771  1
  S  S2  1  0.99997280  0.29712304  0.25099775  1
  S  S3  1  0.50053174  0.28997087  0.25117937  1
  S  S4  1  0.99985537  0.71127423  0.75148949  1
  S  S5  1  0.50013627  0.70596552  0.75226912  1
  S  S6  1  0.35391872  0.00321036  0.75098144  1
  S  S7  1  0.85094974  0.99277817  0.75287000  1
  S  S8  1  0.97742849  0.33226606  0.58123789  1
  S  S9  1  0.18943608  0.04614571  0.58149344  1
  S  S10  1  0.69119705  0.04566444  0.57983344  1
  S  S11  1  0.33203225  0.61861745  0.58323011  1
  S  S12  1  0.83474919  0.62620994  0.58075336  1
  S  S13  1  0.47736899  0.62281290  0.08138612  1
  S  S14  1  0.97494726  0.61801458  0.08454086  1
  S  S15  1  0.33342572  0.04255688  0.08098495  1
  S  S16  1  0.83331074  0.04778216  0.08347111  1
  S  S17  1  0.18922486  0.33503348  0.08033622  1
  S  S18  1  0.69111728  0.33437548  0.08232050  1
  S  S19  1  0.31765612  0.66647643  0.91814521  1
  S  S20  1  0.81496601  0.66666892  0.91588504  1
  S  S21  1  0.16709907  0.97052973  0.91740813  1
  S  S22  1  0.66642371  0.96401281  0.91597507  1
  S  S23  1  0.31462390  0.96222238  0.41457386  1
  S  S24  1  0.81789084  0.96823187  0.41812912  1
  S  S25  1  0.16561561  0.36924127  0.41451393  1
  S  S26  1  0.66779257  0.36363729  0.41646096  1
  O  O0  1  0.09856449  0.01538507  0.30878974  1
  O  O1  1  0.60668200  0.02635557  0.30778973  1
  O  O2  1  0.40520385  0.79818008  0.30107575  1
  O  O3  1  0.90791853  0.78788038  0.29912505  1
  O  O4  1  0.49036625  0.18606782  0.30081253  1
  O  O5  1  0.98555141  0.18925037  0.30030362  1
  O  O6  1  0.10779631  0.18850393  0.80853805  1
  O  O7  1  0.60196989  0.18485314  0.81110471  1
  O  O8  1  0.48889183  0.78993099  0.80207165  1
  O  O9  1  0.98995515  0.79550541  0.80153803  1
  O  O10  1  0.40751976  0.02315096  0.80095154  1
  O  O11  1  0.90573016  0.01428548  0.80160989  1
  O  O12  1  0.39096192  0.97346981  0.69992759  1
  O  O13  1  0.88703713  0.96605192  0.70045793  1
  O  O14  1  0.09242059  0.20322628  0.69683022  1
  O  O15  1  0.58775465  0.21657150  0.70051202  1
  O  O16  1  0.00516465  0.80421789  0.69933097  1
  O  O17  1  0.51043773  0.80340954  0.70059363  1
  O  O18  1  0.38680232  0.80763731  0.19981946  1
  O  O19  1  0.89232024  0.80839055  0.19825308  1
  O  O20  1  0.01020304  0.21766352  0.19924131  1
  O  O21  1  0.50597222  0.20737461  0.19866362  1
  O  O22  1  0.08723275  0.95666446  0.19877225  1
  O  O23  1  0.59268287  0.97935157  0.19546619  1
  O  O24  1  0.42932705  0.34448981  0.64470430  1
  O  O25  1  0.93865517  0.35032757  0.63337391  1
  O  O26  1  0.23942104  0.13413937  0.63167278  1
  O  O27  1  0.73993422  0.13171146  0.63122495  1
  O  O28  1  0.32132453  0.51727081  0.63446800  1
  O  O29  1  0.82617412  0.52837443  0.63274178  1
  O  O30  1  0.43836202  0.52710956  0.13323016  1
  O  O31  1  0.93556992  0.52322543  0.13637894  1
  O  O32  1  0.32494630  0.12327304  0.13287938  1
  O  O33  1  0.82573798  0.13291971  0.13448580  1
  O  O34  1  0.23815374  0.34871357  0.13161948  1
  O  O35  1  0.74177280  0.34722531  0.13232454  1
  O  O36  1  0.23036484  0.31946830  0.02934077  1
  O  O37  1  0.73118571  0.31845769  0.03025994  1
  O  O38  1  0.42667471  0.53316686  0.03146672  1
  O  O39  1  0.92472054  0.52999179  0.03417457  1
  O  O40  1  0.34047199  0.14624416  0.03126490  1
  O  O41  1  0.84079811  0.14835750  0.03277064  1
  O  O42  1  0.22745844  0.13971457  0.52893647  1
  O  O43  1  0.73296585  0.14649704  0.52905456  1
  O  O44  1  0.33782877  0.53300422  0.53220119  1
  O  O45  1  0.84223861  0.53519281  0.53120405  1
  O  O46  1  0.42200187  0.32107432  0.53110253  1
  O  O47  1  0.92673410  0.32019835  0.53152273  1
  O  O48  1  0.27921112  0.69782678  0.96857620  1
  O  O49  1  0.77901880  0.69820167  0.96766710  1
  O  O50  1  0.07690232  0.44141191  0.97133898  1
  O  O51  1  0.57994536  0.44913638  0.96868654  1
  O  O52  1  0.15679873  0.86716534  0.96813547  1
  O  O53  1  0.65664712  0.86438509  0.96740012  1
  O  O54  1  0.27882184  0.85926692  0.46616315  1
  O  O55  1  0.78019669  0.86137679  0.46808291  1
  O  O56  1  0.15499524  0.44852609  0.46610175  1
  O  O57  1  0.65785754  0.44679253  0.46684572  1
  O  O58  1  0.08091678  0.70963674  0.46770928  1
  O  O59  1  0.57847126  0.71832557  0.46878756  1
  O  O60  1  0.06096393  0.63897437  0.35783740  1
  O  O61  1  0.55562271  0.63508953  0.36127376  1
  O  O62  1  0.25796170  0.87319292  0.36613923  1
  O  O63  1  0.76387326  0.89054991  0.36757456  1
  O  O64  1  0.17775916  0.47651193  0.36522667  1
  O  O65  1  0.68439691  0.46933550  0.36601181  1
  O  O66  1  0.05599671  0.47884839  0.86325235  1
  O  O67  1  0.56279162  0.48487739  0.85942913  1
  O  O68  1  0.18358105  0.89701241  0.86743043  1
  O  O69  1  0.68115096  0.88568078  0.86655960  1
  O  O70  1  0.26307404  0.63581525  0.86848868  1
  O  O71  1  0.75872836  0.63837147  0.86760404  1
  O  O72  1  0.00924044  0.84078781  0.40756383  1
  O  O73  1  0.50736222  0.84420851  0.40789210  1
  O  O74  1  0.40029922  0.99088395  0.40562848  1
  O  O75  1  0.90404407  0.99662668  0.40871288  1
  O  O76  1  0.08699037  0.19803831  0.40870459  1
  O  O77  1  0.59035540  0.19392821  0.41021817  1
  O  O78  1  0.00827141  0.17159278  0.90956392  1
  O  O79  1  0.50895257  0.17556611  0.90808551  1
  O  O80  1  0.08960882  0.98575312  0.91168531  1
  O  O81  1  0.58943858  0.98089740  0.91027194  1
  O  O82  1  0.40343124  0.81099666  0.91030574  1
  O  O83  1  0.90098640  0.80932512  0.90775301  1
  O  O84  1  0.48435633  0.15884008  0.58444988  1
  O  O85  1  0.98382043  0.17419540  0.58277065  1
  O  O86  1  0.10229204  0.02229487  0.58580820  1
  O  O87  1  0.60501756  0.02366697  0.58375352  1
  O  O88  1  0.40935787  0.78719951  0.58776680  1
  O  O89  1  0.91300719  0.79580444  0.58380979  1
  O  O90  1  0.48384435  0.79375294  0.08296594  1
  O  O91  1  0.98252467  0.79021560  0.08580488  1
  O  O92  1  0.41072080  0.02596450  0.08373604  1
  O  O93  1  0.91032440  0.03032851  0.08724420  1
  O  O94  1  0.10270488  0.18181926  0.08444410  1
  O  O95  1  0.60460939  0.18322453  0.08613644  1
  O  O96  1  0.35228547  0.16605910  0.74653907  1
  O  O97  1  0.84608791  0.15187082  0.74795834  1
  O  O98  1  0.24635531  0.30881229  0.74414727  1
  O  O99  1  0.74204301  0.31815879  0.75125215  1
  O  O100  1  0.42573323  0.52983146  0.74787573  1
  O  O101  1  0.92526024  0.53657302  0.74812579  1
  O  O102  1  0.34565072  0.54076315  0.24733210  1
  O  O103  1  0.85434158  0.53837509  0.24244905  1
  O  O104  1  0.42590720  0.31521828  0.24732197  1
  O  O105  1  0.92625777  0.32699986  0.24372778  1
  O  O106  1  0.24019615  0.16281678  0.24940570  1
  O  O107  1  0.74375869  0.17806400  0.24359104  1
  O  O108  1  0.31966367  0.50380151  0.92642172  1
  O  O109  1  0.81601730  0.50197537  0.92383043  1
  O  O110  1  0.42401571  0.34766985  0.92404730  1
  O  O111  1  0.92022884  0.33887232  0.92767032  1
  O  O112  1  0.24013615  0.14810993  0.92597798  1
  O  O113  1  0.74003616  0.14182768  0.92356126  1
  O  O114  1  0.31425229  0.12667362  0.42086495  1
  O  O115  1  0.82067088  0.13667169  0.42540991  1
  O  O116  1  0.23792230  0.33793814  0.42048033  1
  O  O117  1  0.74085337  0.33154593  0.42423559  1
  O  O118  1  0.41896925  0.50144842  0.42412411  1
  O  O119  1  0.92345792  0.49828484  0.42345409  1
  O  O120  1  0.18096577  0.49114619  0.07891774  1
  O  O121  1  0.68431771  0.49199079  0.08066815  1
  O  O122  1  0.06167491  0.64016073  0.08001913  1
  O  O123  1  0.56416708  0.64561542  0.07705732  1
  O  O124  1  0.25680973  0.87074154  0.07667423  1
  O  O125  1  0.75661148  0.87659900  0.07929945  1
  O  O126  1  0.18234079  0.87421604  0.57997575  1
  O  O127  1  0.68626934  0.87738242  0.57792253  1
  O  O128  1  0.25573918  0.63979532  0.57920604  1
  O  O129  1  0.75941849  0.64644243  0.57583894  1
  O  O130  1  0.06406782  0.48298579  0.57682622  1
  O  O131  1  0.57122205  0.50143578  0.58555201  1
  O  O132  1  0.15358497  0.81880616  0.25953655  1
  O  O133  1  0.66509041  0.83917477  0.25259537  1
  O  O134  1  0.26495483  0.68516625  0.25977155  1
  O  O135  1  0.76822186  0.67347323  0.25592730  1
  O  O136  1  0.07698734  0.46750275  0.25687671  1
  O  O137  1  0.57897919  0.45812198  0.25394963  1
  O  O138  1  0.16457044  0.48743312  0.75315503  1
  O  O139  1  0.65462974  0.48753150  0.76100272  1
  O  O140  1  0.07812575  0.69973546  0.75455619  1
  O  O141  1  0.57752402  0.68784647  0.75859998  1
  O  O142  1  0.26768528  0.85902598  0.75828002  1
  O  O143  1  0.76562072  0.84601809  0.76115222  1
loop_
_geom_bond_atom_site_label_1
_geom_bond_atom_site_label_2
_geom_bond_distance
_geom_bond_site_symmetry_2
Na0 O132 2.358825 1_555
Na0 O103 2.429653 1_455
Na0 O105 2.523322 1_455
Na0 O136 2.541865 1_555
Na0 O60 2.704536 1_555
Na0 O22 2.764053 1_555
Na0 O3 2.867309 1_455
Na0 O31 3.028360 1_455
Na1 O96 2.427624 1_555
Na1 O139 2.437932 1_555
Na1 O100 2.529910 1_555
Na1 O141 2.575741 1_555
Na1 O24 2.672322 1_555
Na1 O15 2.683678 1_555
Na2 O78 2.422377 1_555
Na2 O112 2.498966 1_555
Na2 O80 2.516763 1_545
Na2 O108 2.552841 1_555
Na2 O6 2.681756 1_555
Na2 O50 2.771173 1_555
Na2 O70 2.830606 1_555
Na3 O79 2.417140 1_555
Na3 O109 2.494336 1_555
Na3 O113 2.527120 1_555
Na3 O81 2.542622 1_545
Na3 O7 2.637390 1_555
Na3 O51 2.766661 1_555
Na3 O71 2.853024 1_555
Na4 O114 2.424062 1_555
Na4 O72 2.458757 1_545
Na4 O116 2.480562 1_555
Na4 O76 2.587543 1_555
Na4 O58 2.747618 1_545
Na4 O0 2.816684 1_555
Na4 O42 2.893111 1_555
Na4 O62 2.927244 1_545
Na5 O73 2.421100 1_545
Na5 O117 2.527059 1_555
Na5 O77 2.541934 1_555
Na5 O115 2.571428 1_555
Na5 O59 2.611478 1_545
Na5 O1 2.811457 1_555
Na5 O63 2.871559 1_545
Na5 O43 2.951133 1_555
Na6 O72 2.609372 1_655
Na6 O89 2.622128 1_555
Na6 O85 2.698576 1_565
Na6 O75 2.714242 1_555
Na6 O86 2.777853 1_665
Na6 O76 2.789471 1_665
Na7 O84 2.487327 1_555
Na7 O88 2.711981 1_545
Na7 O73 2.719855 1_545
Na7 O87 2.759326 1_555
Na7 O77 2.805232 1_555
Na7 O74 2.815701 1_545
Na8 O78 2.454636 1_655
Na8 O80 2.660594 1_645
Na8 O83 2.676723 1_545
Na8 O93 2.786644 1_556
Na8 O94 2.829393 1_656
Na8 O91 2.861729 1_546
Na9 O79 2.538020 1_555
Na9 O82 2.637359 1_545
Na9 O92 2.674079 1_556
Na9 O81 2.725285 1_545
Na9 O90 2.760582 1_546
Na9 O95 2.850554 1_556
Na10 O98 2.436845 1_555
Na10 O100 2.572877 1_555
Na10 O96 2.576003 1_555
Na10 O110 2.837731 1_555
Na10 O108 2.895992 1_555
Na10 O112 2.899012 1_555
Na11 O99 2.532885 1_555
Na11 O101 2.612742 1_555
Na11 O97 2.619743 1_555
Na11 O111 2.739629 1_555
Na11 O109 2.823435 1_555
Na11 O113 2.841684 1_555
Na12 O118 2.496721 1_555
Na12 O114 2.693452 1_555
Na12 O116 2.703770 1_555
Na12 O104 2.736836 1_555
Na12 O106 2.740060 1_555
Na12 O102 2.743639 1_555
Na13 O119 2.645009 1_555
Na13 O107 2.646339 1_555
Na13 O117 2.691266 1_555
Na13 O115 2.721815 1_555
Na13 O105 2.785149 1_555
Na13 O103 2.798929 1_555
Na14 O132 2.534604 1_555
Na14 O134 2.649436 1_555
Na14 O136 2.737354 1_555
Na14 O124 2.809116 1_555
Na14 O120 2.854498 1_555
Na14 O122 2.897754 1_555
Na15 O133 2.366510 1_555
Na15 O137 2.660395 1_555
Na15 O135 2.748845 1_555
Na15 O125 2.831790 1_555
Na15 O123 2.850405 1_555
Na15 O121 2.915975 1_555
Na16 O138 2.440372 1_555
Na16 O128 2.736823 1_555
Na16 O140 2.746749 1_555
Na16 O142 2.780309 1_555
Na16 O130 2.840223 1_555
Na16 O126 2.887158 1_555
Na17 O131 2.424245 1_555
Na17 O139 2.707405 1_555
Na17 O129 2.760962 1_555
Na17 O127 2.782437 1_555
Na17 O141 2.836693 1_555
Na17 O143 2.938790 1_555
O0 Si0 1.638276 1_545
O0 Sc0 1.937856 1_545
O1 Si1 1.640921 1_555
O1 Sc1 1.965392 1_545
O2 S0 1.471830 1_555
O2 Sc1 2.134719 1_555
O3 S1 1.477758 1_555
O3 Sc0 2.198333 1_655
O4 S3 1.465687 1_555
O4 Sc1 2.228016 1_545
O5 S2 1.466885 1_555
O5 Sc0 2.287985 1_645
O6 Si2 1.673498 1_555
O6 Sc2 1.933344 1_555
O7 Si3 1.645878 1_555
O7 Sc3 1.923602 1_555
O8 S5 1.475271 1_555
O8 Sc3 2.189870 1_565
O9 S4 1.471900 1_555
O9 Sc2 2.189769 1_665
O10 S6 1.491834 1_555
O10 Sc3 2.113939 1_555
O11 S7 1.478684 1_545
O11 Sc2 2.097735 1_655
O12 S6 1.477507 1_565
O12 Y1 2.294670 1_565
O13 S7 1.484285 1_555
O13 Y0 2.296130 1_665
O14 Si2 1.627886 1_555
O14 Y0 2.031174 1_555
O15 Si3 1.626270 1_555
O15 Y1 2.117858 1_555
O16 S4 1.477824 1_455
O16 Y0 2.232755 1_565
O17 S5 1.472443 1_555
O17 Y1 2.371803 1_565
O18 S0 1.490260 1_555
O18 Y3 2.277367 1_555
O19 S1 1.483146 1_555
O19 Y2 2.257965 1_665
O20 S2 1.483149 1_455
O20 Y2 2.253255 1_555
O21 S3 1.483800 1_555
O21 Y3 2.216219 1_545
O22 Si0 1.643817 1_555
O22 Y2 2.078401 1_565
O23 Si1 1.624573 1_565
O23 Y3 2.035864 1_555
O24 Si4 1.648956 1_555
O24 Sc4 1.984233 1_555
O25 S8 1.476032 1_555
O25 Y4 2.345915 1_555
O26 S9 1.471843 1_555
O26 Sc4 2.132719 1_555
O27 S10 1.483567 1_555
O27 Y4 2.210799 1_555
O28 S11 1.481856 1_555
O28 Sc4 2.090844 1_555
O29 S12 1.486296 1_555
O29 Y4 2.240622 1_555
O30 S13 1.473571 1_555
O30 Y5 2.350703 1_555
O31 S14 1.471879 1_555
O31 Sc5 2.333033 1_555
O32 S15 1.480669 1_555
O32 Y5 2.251805 1_555
O33 S16 1.479800 1_555
O33 Sc5 2.101978 1_555
O34 S17 1.480021 1_555
O34 Y5 2.254544 1_555
O35 S18 1.474918 1_555
O35 Sc5 2.109808 1_555
O36 S17 1.469067 1_555
O36 Sc6 2.338684 1_554
O37 S18 1.480521 1_555
O37 Sc7 2.262737 1_554
O38 S13 1.474901 1_555
O38 Sc6 2.099470 1_554
O39 S14 1.477055 1_555
O39 Sc7 2.116322 1_554
O40 S15 1.478219 1_555
O40 Sc6 2.100042 1_554
O41 S16 1.478887 1_555
O41 Sc7 2.103173 1_554
O42 S9 1.477835 1_555
O42 Sc8 2.315627 1_555
O43 S10 1.479140 1_555
O43 Sc9 2.269605 1_555
O44 S11 1.471421 1_555
O44 Sc8 2.121117 1_555
O45 S12 1.482166 1_555
O45 Sc9 2.075210 1_555
O46 Si4 1.642178 1_555
O46 Sc8 1.876620 1_555
O47 S8 1.471472 1_555
O47 Sc9 2.092933 1_555
O48 S19 1.485698 1_555
O48 Y6 2.288276 1_556
O49 S20 1.487633 1_555
O49 Y7 2.256443 1_556
O50 Si5 1.640051 1_555
O50 Y6 2.070636 1_556
O51 Si6 1.639470 1_555
O51 Y7 2.073488 1_556
O52 S21 1.483543 1_555
O52 Y6 2.248933 1_556
O53 S22 1.479961 1_555
O53 Y7 2.256367 1_556
O54 S23 1.484380 1_555
O54 Y8 2.263624 1_555
O55 S24 1.471913 1_555
O55 Y9 2.481852 1_555
O56 S25 1.481579 1_555
O56 Y8 2.261134 1_555
O57 S26 1.473030 1_555
O57 Y9 2.283160 1_555
O58 Si7 1.632669 1_555
O58 Y8 2.095144 1_555
O59 Si8 1.635612 1_555
O59 Y9 2.105581 1_555
O60 Si7 1.647309 1_555
O60 Sc10 1.959885 1_555
O61 Si8 1.625449 1_555
O61 Y10 2.063557 1_555
O62 S23 1.488065 1_555
O62 Sc10 2.121851 1_555
O63 S24 1.490103 1_555
O63 Y10 2.296778 1_555
O64 S25 1.470216 1_555
O64 Sc10 2.216191 1_555
O65 S26 1.472399 1_555
O65 Y10 2.375620 1_555
O66 Si5 1.610565 1_555
O66 Y11 2.098916 1_555
O67 Si6 1.636452 1_555
O67 Sc11 1.964240 1_555
O68 S21 1.464145 1_555
O68 Y11 2.406441 1_555
O69 S22 1.464316 1_555
O69 Sc11 2.283912 1_555
O70 S19 1.479147 1_555
O70 Y11 2.330169 1_555
O71 S20 1.474658 1_555
O71 Sc11 2.225297 1_555
O72 Si7 1.659163 1_555
O72 Sc0 1.982714 1_555
O73 Si8 1.660499 1_555
O73 Sc1 1.955761 1_555
O74 S23 1.464618 1_555
O74 Sc1 2.342675 1_555
O75 S24 1.475640 1_555
O75 Sc0 2.270107 1_655
O76 S25 1.505715 1_555
O76 Sc0 2.185667 1_545
O77 S26 1.489666 1_555
O77 Sc1 2.238391 1_545
O78 Si5 1.651999 1_555
O78 Sc2 2.015024 1_555
O79 Si6 1.651767 1_555
O79 Sc3 2.016863 1_555
O80 S21 1.491184 1_555
O80 Sc2 2.300938 1_565
O81 S22 1.490544 1_555
O81 Sc3 2.278698 1_565
O82 S19 1.468868 1_555
O82 Sc3 2.344260 1_565
O83 S20 1.466547 1_555
O83 Sc2 2.419704 1_665
O84 Si4 1.639154 1_555
O84 Y1 2.110552 1_555
O85 S8 1.494063 1_555
O85 Y0 2.318269 1_655
O86 S9 1.495221 1_555
O86 Y0 2.316287 1_555
O87 S10 1.483706 1_555
O87 Y1 2.333906 1_555
O88 S11 1.479629 1_555
O88 Y1 2.386946 1_565
O89 S12 1.490163 1_555
O89 Y0 2.396745 1_665
O90 S13 1.494115 1_555
O90 Y3 2.314465 1_555
O91 S14 1.496700 1_555
O91 Y2 2.308549 1_665
O92 S15 1.489844 1_555
O92 Y3 2.409747 1_545
O93 S16 1.490499 1_555
O93 Y2 2.402714 1_655
O94 S17 1.498652 1_555
O94 Y2 2.307517 1_555
O95 S18 1.490618 1_555
O95 Y3 2.350344 1_545
O96 S6 1.494543 1_555
O96 Sc4 2.324967 1_555
O97 S7 1.492367 1_545
O97 Y4 2.301102 1_555
O98 Si2 1.635745 1_555
O98 Sc4 2.036635 1_555
O99 Si3 1.629234 1_555
O99 Y4 2.113750 1_555
O100 S5 1.497935 1_555
O100 Sc4 2.335387 1_555
O101 S4 1.489849 1_555
O101 Y4 2.290482 1_555
O102 S0 1.490771 1_555
O102 Y5 2.269796 1_555
O103 S1 1.507965 1_555
O103 Sc5 2.223799 1_555
O104 S3 1.489191 1_555
O104 Y5 2.265665 1_555
O105 S2 1.505940 1_555
O105 Sc5 2.263245 1_555
O106 Si0 1.620235 1_545
O106 Y5 2.102699 1_555
O107 Si1 1.672217 1_555
O107 Sc5 1.896216 1_555
O108 S19 1.505885 1_555
O108 Sc6 2.179400 1_555
O109 S20 1.514171 1_555
O109 Sc7 2.233013 1_555
O110 Si6 1.646316 1_555
O110 Sc6 1.911157 1_555
O111 Si5 1.646265 1_655
O111 Sc7 1.899159 1_555
O112 S21 1.507041 1_545
O112 Sc6 2.189029 1_555
O113 S22 1.509158 1_545
O113 Sc7 2.231743 1_555
O114 S23 1.500562 1_545
O114 Sc8 2.312688 1_555
O115 S24 1.511219 1_545
O115 Sc9 2.191443 1_555
O116 S25 1.485581 1_555
O116 Sc8 2.459409 1_555
O117 S26 1.508295 1_555
O117 Sc9 2.209561 1_555
O118 Si8 1.628666 1_555
O118 Sc8 1.967968 1_555
O119 Si7 1.643087 1_655
O119 Sc9 1.942996 1_555
O120 S17 1.495445 1_555
O120 Y6 2.285553 1_555
O121 S18 1.494157 1_555
O121 Y7 2.314636 1_555
O122 S14 1.494035 1_455
O122 Y6 2.317302 1_555
O123 S13 1.492667 1_555
O123 Y7 2.285543 1_555
O124 S15 1.490397 1_565
O124 Y6 2.354246 1_555
O125 S16 1.487508 1_565
O125 Y7 2.390602 1_555
O126 S9 1.498129 1_565
O126 Y8 2.285510 1_555
O127 S10 1.482786 1_565
O127 Y9 2.285501 1_555
O128 S11 1.497477 1_555
O128 Y8 2.339622 1_555
O129 S12 1.476596 1_555
O129 Y9 2.390610 1_555
O130 S8 1.491483 1_455
O130 Y8 2.290664 1_555
O131 Si4 1.646153 1_555
O131 Y9 2.122067 1_555
O132 Si0 1.652759 1_555
O132 Sc10 2.004791 1_555
O133 Si1 1.627752 1_565
O133 Y10 2.143912 1_555
O134 S0 1.475553 1_555
O134 Sc10 2.284502 1_555
O135 S1 1.466134 1_555
O135 Y10 2.427838 1_555
O136 S2 1.488964 1_455
O136 Sc10 2.258623 1_555
O137 S3 1.484190 1_555
O137 Y10 2.293628 1_555
O138 Si2 1.635371 1_555
O138 Y11 2.108314 1_555
O139 Si3 1.656084 1_555
O139 Sc11 1.955233 1_555
O140 S4 1.482263 1_455
O140 Y11 2.268507 1_555
O141 S5 1.505656 1_555
O141 Sc11 2.178402 1_555
O142 S6 1.471377 1_565
O142 Y11 2.358805 1_555
O143 S7 1.472802 1_555
O143 Sc11 2.262824 1_555
