# generated using pymatgen
data_RbCrH24(SO10)2
_symmetry_space_group_name_H-M   'P 1'
_cell_length_a   12.40027200
_cell_length_b   12.40027200
_cell_length_c   12.40027200
_cell_angle_alpha   90.00000000
_cell_angle_beta   90.00000000
_cell_angle_gamma   90.00000000
_symmetry_Int_Tables_number   1
_chemical_formula_structural   RbCrH24(SO10)2
_chemical_formula_sum   'Rb4 Cr4 H96 S8 O80'
_cell_volume   1906.74947091
_cell_formula_units_Z   4
loop_
 _symmetry_equiv_pos_site_id
 _symmetry_equiv_pos_as_xyz
  1  'x, y, z'
loop_
 _atom_site_type_symbol
 _atom_site_label
 _atom_site_symmetry_multiplicity
 _atom_site_fract_x
 _atom_site_fract_y
 _atom_site_fract_z
 _atom_site_occupancy
  Rb  Rb0  1  0.00000000  0.50000000  0.50000000  1
  Rb  Rb1  1  0.50000000  0.50000000  0.00000000  1
  Rb  Rb2  1  0.50000000  0.00000000  0.50000000  1
  Rb  Rb3  1  0.00000000  0.00000000  0.00000000  1
  Cr  Cr0  1  0.50000000  0.00000000  0.00000000  1
  Cr  Cr1  1  0.00000000  0.00000000  0.50000000  1
  Cr  Cr2  1  0.00000000  0.50000000  0.00000000  1
  Cr  Cr3  1  0.50000000  0.50000000  0.50000000  1
  H  H0  1  0.78992100  0.47470700  0.05151400  1
  H  H1  1  0.28992100  0.02529300  0.94848500  1
  H  H2  1  0.21007900  0.97470700  0.44848600  1
  H  H3  1  0.02529300  0.94848500  0.28992100  1
  H  H4  1  0.44848600  0.21007900  0.97470700  1
  H  H5  1  0.94848500  0.28992100  0.02529300  1
  H  H6  1  0.47470700  0.05151400  0.78992100  1
  H  H7  1  0.05151400  0.78992100  0.47470700  1
  H  H8  1  0.97470700  0.44848600  0.21007900  1
  H  H9  1  0.52529300  0.55151500  0.71007900  1
  H  H10  1  0.55151500  0.71007900  0.52529300  1
  H  H11  1  0.71007900  0.52529300  0.55151500  1
  H  H12  1  0.21007900  0.52529300  0.94848500  1
  H  H13  1  0.71007900  0.97470700  0.05151400  1
  H  H14  1  0.78992100  0.02529300  0.55151500  1
  H  H15  1  0.97470700  0.05151400  0.71007900  1
  H  H16  1  0.55151500  0.78992100  0.02529300  1
  H  H17  1  0.05151400  0.71007900  0.97470700  1
  H  H18  1  0.52529300  0.94848500  0.21007900  1
  H  H19  1  0.94848500  0.21007900  0.52529300  1
  H  H20  1  0.02529300  0.55151500  0.78992100  1
  H  H21  1  0.47470700  0.44848600  0.28992100  1
  H  H22  1  0.44848600  0.28992100  0.47470700  1
  H  H23  1  0.28992100  0.47470700  0.44848600  1
  H  H24  1  0.80662800  0.46302300  0.92043400  1
  H  H25  1  0.30662800  0.03697700  0.07956600  1
  H  H26  1  0.19337200  0.96302300  0.57956600  1
  H  H27  1  0.03697700  0.07956600  0.30662800  1
  H  H28  1  0.57956600  0.19337200  0.96302300  1
  H  H29  1  0.07956600  0.30662800  0.03697700  1
  H  H30  1  0.46302300  0.92043400  0.80662800  1
  H  H31  1  0.92043400  0.80662800  0.46302300  1
  H  H32  1  0.96302300  0.57956600  0.19337200  1
  H  H33  1  0.53697700  0.42043400  0.69337200  1
  H  H34  1  0.42043400  0.69337200  0.53697700  1
  H  H35  1  0.69337200  0.53697700  0.42043400  1
  H  H36  1  0.19337200  0.53697700  0.07956600  1
  H  H37  1  0.69337200  0.96302300  0.92043400  1
  H  H38  1  0.80662800  0.03697700  0.42043400  1
  H  H39  1  0.96302300  0.92043400  0.69337200  1
  H  H40  1  0.42043400  0.80662800  0.03697700  1
  H  H41  1  0.92043400  0.69337200  0.96302300  1
  H  H42  1  0.53697700  0.07956600  0.19337200  1
  H  H43  1  0.07956600  0.19337200  0.53697700  1
  H  H44  1  0.03697700  0.42043400  0.80662800  1
  H  H45  1  0.46302300  0.57956600  0.30662800  1
  H  H46  1  0.57956600  0.30662800  0.46302300  1
  H  H47  1  0.82583800  0.21463700  0.11880400  1
  H  H48  1  0.29812600  0.21980100  0.50417600  1
  H  H49  1  0.79812600  0.28019900  0.49582400  1
  H  H50  1  0.70187400  0.71980100  0.99582400  1
  H  H51  1  0.28019900  0.49582400  0.79812600  1
  H  H52  1  0.99582400  0.70187400  0.71980100  1
  H  H53  1  0.49582400  0.79812600  0.28019900  1
  H  H54  1  0.21980100  0.50417600  0.29812600  1
  H  H55  1  0.50417600  0.29812600  0.21980100  1
  H  H56  1  0.71980100  0.99582400  0.70187400  1
  H  H57  1  0.78019900  0.00417600  0.20187400  1
  H  H58  1  0.00417600  0.20187400  0.78019900  1
  H  H59  1  0.20187400  0.78019900  0.00417600  1
  H  H60  1  0.70187400  0.78019900  0.49582400  1
  H  H61  1  0.20187400  0.71980100  0.50417600  1
  H  H62  1  0.29812600  0.28019900  0.00417600  1
  H  H63  1  0.71980100  0.50417600  0.20187400  1
  H  H64  1  0.00417600  0.29812600  0.28019900  1
  H  H65  1  0.50417600  0.20187400  0.71980100  1
  H  H66  1  0.78019900  0.49582400  0.70187400  1
  H  H67  1  0.49582400  0.70187400  0.78019900  1
  H  H68  1  0.28019900  0.00417600  0.29812600  1
  H  H69  1  0.21980100  0.99582400  0.79812600  1
  H  H70  1  0.99582400  0.79812600  0.21980100  1
  H  H71  1  0.79812600  0.21980100  0.99582400  1
  H  H72  1  0.32583800  0.21463700  0.38119600  1
  H  H73  1  0.82583800  0.28536300  0.61880400  1
  H  H74  1  0.67416200  0.71463700  0.11880400  1
  H  H75  1  0.28536300  0.61880400  0.82583800  1
  H  H76  1  0.11880400  0.67416200  0.71463700  1
  H  H77  1  0.61880400  0.82583800  0.28536300  1
  H  H78  1  0.21463700  0.38119600  0.32583800  1
  H  H79  1  0.38119600  0.32583800  0.21463700  1
  H  H80  1  0.71463700  0.11880400  0.67416200  1
  H  H81  1  0.78536300  0.88119600  0.17416200  1
  H  H82  1  0.88119600  0.17416200  0.78536300  1
  H  H83  1  0.17416200  0.78536300  0.88119600  1
  H  H84  1  0.67416200  0.78536300  0.61880400  1
  H  H85  1  0.17416200  0.71463700  0.38119600  1
  H  H86  1  0.32583800  0.28536300  0.88119600  1
  H  H87  1  0.71463700  0.38119600  0.17416200  1
  H  H88  1  0.88119600  0.32583800  0.28536300  1
  H  H89  1  0.38119600  0.17416200  0.71463700  1
  H  H90  1  0.78536300  0.61880400  0.67416200  1
  H  H91  1  0.61880400  0.67416200  0.78536300  1
  H  H92  1  0.28536300  0.88119600  0.32583800  1
  H  H93  1  0.21463700  0.11880400  0.82583800  1
  H  H94  1  0.11880400  0.82583800  0.21463700  1
  H  H95  1  0.30662800  0.46302300  0.57956600  1
  S  S0  1  0.19043600  0.30956400  0.69043600  1
  S  S1  1  0.30956400  0.69043600  0.19043600  1
  S  S2  1  0.69043600  0.19043600  0.30956400  1
  S  S3  1  0.80956400  0.80956400  0.80956400  1
  S  S4  1  0.80956400  0.69043600  0.30956400  1
  S  S5  1  0.69043600  0.30956400  0.80956400  1
  S  S6  1  0.30956400  0.80956400  0.69043600  1
  S  S7  1  0.19043600  0.19043600  0.19043600  1
  O  O0  1  0.84017700  0.49159200  0.98814300  1
  O  O1  1  0.34017700  0.00840800  0.01185700  1
  O  O2  1  0.15982300  0.99159200  0.51185700  1
  O  O3  1  0.00840800  0.01185700  0.34017700  1
  O  O4  1  0.51185700  0.15982300  0.99159200  1
  O  O5  1  0.01185700  0.34017700  0.00840800  1
  O  O6  1  0.49159200  0.98814300  0.84017700  1
  O  O7  1  0.98814300  0.84017700  0.49159200  1
  O  O8  1  0.99159200  0.51185700  0.15982300  1
  O  O9  1  0.50840800  0.48814300  0.65982300  1
  O  O10  1  0.48814300  0.65982300  0.50840800  1
  O  O11  1  0.65982300  0.50840800  0.48814300  1
  O  O12  1  0.15982300  0.50840800  0.01185700  1
  O  O13  1  0.65982300  0.99159200  0.98814300  1
  O  O14  1  0.84017700  0.00840800  0.48814300  1
  O  O15  1  0.99159200  0.98814300  0.65982300  1
  O  O16  1  0.48814300  0.84017700  0.00840800  1
  O  O17  1  0.98814300  0.65982300  0.99159200  1
  O  O18  1  0.50840800  0.01185700  0.15982300  1
  O  O19  1  0.01185700  0.15982300  0.50840800  1
  O  O20  1  0.00840800  0.48814300  0.84017700  1
  O  O21  1  0.49159200  0.51185700  0.34017700  1
  O  O22  1  0.51185700  0.34017700  0.49159200  1
  O  O23  1  0.34017700  0.49159200  0.51185700  1
  O  O24  1  0.35814300  0.20383200  0.45348200  1
  O  O25  1  0.85814300  0.29616800  0.54651800  1
  O  O26  1  0.64185700  0.70383200  0.04651800  1
  O  O27  1  0.29616800  0.54651800  0.85814300  1
  O  O28  1  0.04651800  0.64185700  0.70383200  1
  O  O29  1  0.54651800  0.85814300  0.29616800  1
  O  O30  1  0.20383200  0.45348200  0.35814300  1
  O  O31  1  0.45348200  0.35814300  0.20383200  1
  O  O32  1  0.70383200  0.04651800  0.64185700  1
  O  O33  1  0.79616800  0.95348200  0.14185700  1
  O  O34  1  0.95348200  0.14185700  0.79616800  1
  O  O35  1  0.14185700  0.79616800  0.95348200  1
  O  O36  1  0.64185700  0.79616800  0.54651800  1
  O  O37  1  0.14185700  0.70383200  0.45348200  1
  O  O38  1  0.35814300  0.29616800  0.95348200  1
  O  O39  1  0.70383200  0.45348200  0.14185700  1
  O  O40  1  0.95348200  0.35814300  0.29616800  1
  O  O41  1  0.45348200  0.14185700  0.70383200  1
  O  O42  1  0.79616800  0.54651800  0.64185700  1
  O  O43  1  0.54651800  0.64185700  0.79616800  1
  O  O44  1  0.29616800  0.95348200  0.35814300  1
  O  O45  1  0.20383200  0.04651800  0.85814300  1
  O  O46  1  0.04651800  0.85814300  0.20383200  1
  O  O47  1  0.85814300  0.20383200  0.04651800  1
  O  O48  1  0.57935200  0.18614500  0.26366500  1
  O  O49  1  0.07935200  0.31385500  0.73633500  1
  O  O50  1  0.42064800  0.68614500  0.23633500  1
  O  O51  1  0.31385500  0.73633500  0.07935200  1
  O  O52  1  0.23633500  0.42064800  0.68614500  1
  O  O53  1  0.73633500  0.07935200  0.31385500  1
  O  O54  1  0.18614500  0.26366500  0.57935200  1
  O  O55  1  0.26366500  0.57935200  0.18614500  1
  O  O56  1  0.68614500  0.23633500  0.42064800  1
  O  O57  1  0.81385500  0.76366500  0.92064800  1
  O  O58  1  0.76366500  0.92064800  0.81385500  1
  O  O59  1  0.92064800  0.81385500  0.76366500  1
  O  O60  1  0.42064800  0.81385500  0.73633500  1
  O  O61  1  0.92064800  0.68614500  0.26366500  1
  O  O62  1  0.57935200  0.31385500  0.76366500  1
  O  O63  1  0.68614500  0.26366500  0.92064800  1
  O  O64  1  0.76366500  0.57935200  0.31385500  1
  O  O65  1  0.26366500  0.92064800  0.68614500  1
  O  O66  1  0.81385500  0.73633500  0.42064800  1
  O  O67  1  0.73633500  0.42064800  0.81385500  1
  O  O68  1  0.31385500  0.76366500  0.57935200  1
  O  O69  1  0.18614500  0.23633500  0.07935200  1
  O  O70  1  0.23633500  0.07935200  0.18614500  1
  O  O71  1  0.07935200  0.18614500  0.23633500  1
  O  O72  1  0.26043100  0.26043100  0.26043100  1
  O  O73  1  0.23956900  0.76043100  0.26043100  1
  O  O74  1  0.76043100  0.26043100  0.23956900  1
  O  O75  1  0.73956900  0.73956900  0.73956900  1
  O  O76  1  0.73956900  0.76043100  0.23956900  1
  O  O77  1  0.76043100  0.23956900  0.73956900  1
  O  O78  1  0.23956900  0.73956900  0.76043100  1
  O  O79  1  0.26043100  0.23956900  0.76043100  1
loop_
_geom_bond_atom_site_label_1
_geom_bond_atom_site_label_2
_geom_bond_distance
_geom_bond_site_symmetry_2
Cr0 O13 1.990028 1_544
Cr0 O1 1.990028 1_555
Cr0 O18 1.990028 1_555
Cr0 O16 1.990028 1_545
Cr0 O4 1.990028 1_554
Cr0 O6 1.990028 1_544
Cr1 O15 1.990028 1_445
Cr1 O3 1.990028 1_555
Cr1 O19 1.990028 1_555
Cr1 O14 1.990028 1_455
Cr1 O7 1.990028 1_445
Cr1 O2 1.990028 1_545
Cr2 O17 1.990028 1_454
Cr2 O5 1.990028 1_555
Cr2 O12 1.990028 1_555
Cr2 O20 1.990028 1_554
Cr2 O8 1.990028 1_455
Cr2 O0 1.990028 1_454
Cr3 O9 1.990028 1_555
Cr3 O10 1.990028 1_555
Cr3 O11 1.990028 1_555
Cr3 O22 1.990028 1_555
Cr3 O23 1.990028 1_555
Cr3 O21 1.990028 1_555
H0 O0 1.024555 1_554
H0 O39 1.569684 1_555
H1 O1 1.024564 1_556
H1 O45 1.569675 1_555
H2 O2 1.024555 1_555
H2 O44 1.569684 1_555
H3 O3 1.024564 1_565
H3 O46 1.569675 1_555
H4 O4 1.024555 1_555
H4 O38 1.569684 1_555
H5 O5 1.024564 1_655
H5 O47 1.569675 1_555
H6 O6 1.024555 1_545
H6 O41 1.569684 1_555
H7 O7 1.024555 1_455
H7 O37 1.569684 1_555
H8 O8 1.024555 1_555
H8 O40 1.569684 1_555
H9 O9 1.024564 1_555
H9 O43 1.569675 1_555
H10 O10 1.024564 1_555
H10 O36 1.569675 1_555
H11 O11 1.024564 1_555
H11 O42 1.569675 1_555
H12 O12 1.024564 1_556
H12 O27 1.569675 1_555
H13 O13 1.024555 1_554
H13 O33 1.569684 1_555
H14 O14 1.024564 1_555
H14 O32 1.569675 1_555
H15 O15 1.024555 1_545
H15 O34 1.569684 1_555
H16 O16 1.024564 1_555
H16 O26 1.569675 1_555
H17 O17 1.024555 1_455
H17 O35 1.569684 1_555
H18 O18 1.024564 1_565
H18 O29 1.569675 1_555
H19 O19 1.024564 1_655
H19 O25 1.569675 1_555
H20 O20 1.024564 1_555
H20 O28 1.569675 1_555
H21 O21 1.024555 1_555
H21 O31 1.569684 1_555
H22 O22 1.024555 1_555
H22 O24 1.569684 1_555
H23 O23 1.024555 1_555
H23 O30 1.569684 1_555
H24 O0 1.001757 1_555
H24 O67 1.668094 1_555
H25 O1 1.001757 1_555
H25 O70 1.668094 1_555
H26 O2 1.001757 1_555
H26 O65 1.668094 1_555
H27 O3 1.001757 1_555
H27 O71 1.668094 1_555
H28 O4 1.001757 1_555
H28 O63 1.668094 1_555
H29 O5 1.001757 1_555
H29 O69 1.668094 1_555
H30 O6 1.001757 1_555
H30 O60 1.668094 1_555
H31 O7 1.001757 1_555
H31 O66 1.668094 1_555
H32 O8 1.001757 1_555
H32 O61 1.668094 1_555
H33 O9 1.001757 1_555
H33 O62 1.668094 1_555
H34 O10 1.001757 1_555
H34 O68 1.668094 1_555
H35 O11 1.001757 1_555
H35 O64 1.668094 1_555
H36 O12 1.001757 1_555
H36 O55 1.668094 1_555
H37 O13 1.001757 1_555
H37 O58 1.668094 1_555
H38 O14 1.001757 1_555
H38 O53 1.668094 1_555
H39 O15 1.001757 1_555
H39 O59 1.668094 1_555
H40 O16 1.001757 1_555
H40 O51 1.668094 1_555
H41 O17 1.001757 1_555
H41 O57 1.668094 1_555
H42 O18 1.001757 1_555
H42 O48 1.668094 1_555
H43 O19 1.001757 1_555
H43 O54 1.668094 1_555
H44 O20 1.001757 1_555
H44 O49 1.668094 1_555
H45 O21 1.001757 1_555
H45 O50 1.668094 1_555
H46 O22 1.001757 1_555
H46 O56 1.668094 1_555
H47 O47 0.990907 1_555
H48 O24 0.994107 1_555
H48 O54 1.758708 1_555
H49 O25 0.994107 1_555
H49 O56 1.758708 1_555
H50 O26 0.994107 1_556
H50 O57 1.758708 1_555
H51 O27 0.994107 1_555
H51 O52 1.758708 1_555
H52 O28 0.994107 1_655
H52 O59 1.758708 1_555
H53 O29 0.994107 1_555
H53 O50 1.758708 1_555
H54 O30 0.994107 1_555
H54 O55 1.758708 1_555
H55 O31 0.994107 1_555
H55 O48 1.758708 1_555
H56 O32 0.994107 1_565
H56 O58 1.758708 1_555
H57 O33 0.994107 1_545
H57 O53 1.758708 1_555
H58 O34 0.994107 1_455
H58 O49 1.758708 1_555
H59 O35 0.994107 1_554
H59 O51 1.758708 1_555
H60 O36 0.994107 1_555
H60 O66 1.758708 1_555
H61 O37 0.994107 1_555
H61 O68 1.758708 1_555
H62 O38 0.994107 1_554
H62 O69 1.758708 1_555
H63 O39 0.994107 1_555
H63 O64 1.758708 1_555
H64 O40 0.994107 1_455
H64 O71 1.758708 1_555
H65 O41 0.994107 1_555
H65 O62 1.758708 1_555
H66 O42 0.994107 1_555
H66 O67 1.758708 1_555
H67 O43 0.994107 1_555
H67 O60 1.758708 1_555
H68 O44 0.994107 1_545
H68 O70 1.758708 1_555
H69 O45 0.994107 1_565
H69 O65 1.758708 1_555
H70 O46 0.994107 1_655
H70 O61 1.758708 1_555
H71 O47 0.994107 1_556
H71 O63 1.758708 1_555
H72 O24 0.990907 1_555
H73 O25 0.990907 1_555
H74 O26 0.990907 1_555
H75 O27 0.990907 1_555
H76 O28 0.990907 1_555
H77 O29 0.990907 1_555
H78 O30 0.990907 1_555
H79 O31 0.990907 1_555
H80 O32 0.990907 1_555
H81 O33 0.990907 1_555
H82 O34 0.990907 1_555
H83 O35 0.990907 1_555
H84 O36 0.990907 1_555
H85 O37 0.990907 1_555
H86 O38 0.990907 1_555
H87 O39 0.990907 1_555
H88 O40 0.990907 1_555
H89 O41 0.990907 1_555
H90 O42 0.990907 1_555
H91 O43 0.990907 1_555
H92 O44 0.990907 1_555
H93 O45 0.990907 1_555
H94 O46 0.990907 1_555
H95 O23 1.001757 1_555
H95 O52 1.668094 1_555
O24 Rb2 3.132997 1_555
O25 Rb0 3.132997 1_655
O26 Rb1 3.132997 1_555
O27 Rb1 3.132997 1_556
O28 Rb0 3.132997 1_555
O29 Rb2 3.132997 1_565
O30 Rb0 3.132997 1_555
O31 Rb1 3.132997 1_555
O32 Rb2 3.132997 1_555
O33 Rb3 3.132997 1_665
O34 Rb3 3.132997 1_656
O35 Rb3 3.132997 1_566
O36 Rb2 3.132997 1_565
O37 Rb0 3.132997 1_555
O38 Rb1 3.132997 1_556
O39 Rb1 3.132997 1_555
O40 Rb0 3.132997 1_655
O41 Rb2 3.132997 1_555
O42 Rb0 3.132997 1_655
O43 Rb1 3.132997 1_556
O44 Rb2 3.132997 1_565
O45 Rb3 3.132997 1_556
O46 Rb3 3.132997 1_565
O47 Rb3 3.132997 1_655
O48 S2 1.491376 1_555
O49 S0 1.491376 1_555
O50 S1 1.491376 1_555
O51 S1 1.491376 1_555
O52 S0 1.491376 1_555
O53 S2 1.491376 1_555
O54 S0 1.491376 1_555
O55 S1 1.491376 1_555
O56 S2 1.491376 1_555
O57 S3 1.491376 1_555
O58 S3 1.491376 1_555
O59 S3 1.491376 1_555
O60 S6 1.491376 1_555
O61 S4 1.491376 1_555
O62 S5 1.491376 1_555
O63 S5 1.491376 1_555
O64 S4 1.491376 1_555
O65 S6 1.491376 1_555
O66 S4 1.491376 1_555
O67 S5 1.491376 1_555
O68 S6 1.491376 1_555
O69 S7 1.491376 1_555
O70 S7 1.491376 1_555
O71 S7 1.491376 1_555
O72 S7 1.503346 1_555
O73 S1 1.503346 1_555
O74 S2 1.503346 1_555
O75 S3 1.503346 1_555
O76 S4 1.503346 1_555
O77 S5 1.503346 1_555
O78 S6 1.503346 1_555
O79 S0 1.503346 1_555
