# generated using pymatgen
data_Na18Mg4Ta8Si15(SO24)3
_symmetry_space_group_name_H-M   'P 1'
_cell_length_a   9.07147878
_cell_length_b   9.07469698
_cell_length_c   22.40040380
_cell_angle_alpha   90.01498742
_cell_angle_beta   90.03418851
_cell_angle_gamma   119.98067782
_symmetry_Int_Tables_number   1
_chemical_formula_structural   Na18Mg4Ta8Si15(SO24)3
_chemical_formula_sum   'Na18 Mg4 Ta8 Si15 S3 O72'
_cell_volume   1597.28001499
_cell_formula_units_Z   1
loop_
 _symmetry_equiv_pos_site_id
 _symmetry_equiv_pos_as_xyz
  1  'x, y, z'
loop_
 _atom_site_type_symbol
 _atom_site_label
 _atom_site_symmetry_multiplicity
 _atom_site_fract_x
 _atom_site_fract_y
 _atom_site_fract_z
 _atom_site_occupancy
  Na  Na0  1  0.65256607  0.63179358  0.74372551  1
  Na  Na1  1  0.97572391  0.36304845  0.74461198  1
  Na  Na2  1  0.02207974  0.67976674  0.58929422  1
  Na  Na3  1  0.65688452  0.98379149  0.59056221  1
  Na  Na4  1  0.33145339  0.98192014  0.09120165  1
  Na  Na5  1  0.66044515  0.68115295  0.09013791  1
  Na  Na6  1  0.96224374  0.68465010  0.90622089  1
  Na  Na7  1  0.72093068  0.03827264  0.90703668  1
  Na  Na8  1  0.32031565  0.28735188  0.91277934  1
  Na  Na9  1  0.96408702  0.28470812  0.41155512  1
  Na  Na10  1  0.31719777  0.03691762  0.40608592  1
  Na  Na11  1  0.71478007  0.68189545  0.41138154  1
  Na  Na12  1  0.01492186  0.01482760  0.49334853  1
  Na  Na13  1  0.99698646  0.01050947  0.99190469  1
  Na  Na14  1  0.66547029  0.31857248  0.82211383  1
  Na  Na15  1  0.65248448  0.32321345  0.32019844  1
  Na  Na16  1  0.31642908  0.65402216  0.16744155  1
  Na  Na17  1  0.33431029  0.67346628  0.66619223  1
  Mg  Mg0  1  0.00809545  0.00135386  0.35414007  1
  Mg  Mg1  1  0.99267482  0.99403284  0.85481961  1
  Mg  Mg2  1  0.67088676  0.32861341  0.68321066  1
  Mg  Mg3  1  0.65372823  0.32140903  0.18229313  1
  Ta  Ta0  1  0.99335020  0.98762576  0.64526748  1
  Ta  Ta1  1  0.01169359  0.00202908  0.14532425  1
  Ta  Ta2  1  0.67111038  0.33337447  0.98050457  1
  Ta  Ta3  1  0.66224278  0.32981410  0.48023938  1
  Ta  Ta4  1  0.32779740  0.66421067  0.02153085  1
  Ta  Ta5  1  0.33566362  0.66600452  0.52084341  1
  Ta  Ta6  1  0.33090204  0.67360674  0.31198322  1
  Ta  Ta7  1  0.33619437  0.67945519  0.81213941  1
  Si  Si0  1  0.30102919  0.00581413  0.25529377  1
  Si  Si1  1  0.00014581  0.70577882  0.75466074  1
  Si  Si2  1  0.70682985  0.00130499  0.75390540  1
  Si  Si3  1  0.96110172  0.33290217  0.58574780  1
  Si  Si4  1  0.37624846  0.04574715  0.58445637  1
  Si  Si5  1  0.65918887  0.61708188  0.58777840  1
  Si  Si6  1  0.95501948  0.61442371  0.08876316  1
  Si  Si7  1  0.66970143  0.04387739  0.08509216  1
  Si  Si8  1  0.38033061  0.33772296  0.08476155  1
  Si  Si9  1  0.61912349  0.66071959  0.91676743  1
  Si  Si10  1  0.04183236  0.38015272  0.91446928  1
  Si  Si11  1  0.33806563  0.96436990  0.91821537  1
  Si  Si12  1  0.62349375  0.96073752  0.41612433  1
  Si  Si13  1  0.33909836  0.38190618  0.41383899  1
  Si  Si14  1  0.03869210  0.66179885  0.41709774  1
  S  S0  1  0.70721044  0.71224840  0.25222476  1
  S  S1  1  0.00435636  0.29051003  0.25247728  1
  S  S2  1  0.28552630  0.28804849  0.75199567  1
  O  O0  1  0.20580639  0.00783756  0.31511753  1
  O  O1  1  0.79856899  0.80181314  0.30668757  1
  O  O2  1  0.99262570  0.20019806  0.30837459  1
  O  O3  1  0.20813190  0.19995574  0.80818198  1
  O  O4  1  0.98808893  0.79898963  0.81317801  1
  O  O5  1  0.81434807  0.02276805  0.81324208  1
  O  O6  1  0.81046901  0.97608231  0.69423833  1
  O  O7  1  0.17568088  0.19400852  0.69906431  1
  O  O8  1  0.01954656  0.82451706  0.69317146  1
  O  O9  1  0.79570307  0.81797451  0.19712705  1
  O  O10  1  0.01642242  0.19192916  0.19962218  1
  O  O11  1  0.17253721  0.98540439  0.19545002  1
  O  O12  1  0.89619735  0.38530282  0.64366194  1
  O  O13  1  0.51002373  0.12369599  0.63678126  1
  O  O14  1  0.63507133  0.51718851  0.64795227  1
  O  O15  1  0.87113106  0.50229475  0.14518657  1
  O  O16  1  0.60434524  0.11405802  0.13699449  1
  O  O17  1  0.50659663  0.39335768  0.13930034  1
  O  O18  1  0.46463622  0.29588991  0.02454191  1
  O  O19  1  0.83413576  0.53191440  0.02690858  1
  O  O20  1  0.70171488  0.16257338  0.02306848  1
  O  O21  1  0.46232713  0.15792755  0.52164885  1
  O  O22  1  0.69094756  0.52395989  0.52850972  1
  O  O23  1  0.83148241  0.29987705  0.52683983  1
  O  O24  1  0.51374722  0.67468850  0.97381190  1
  O  O25  1  0.15905628  0.48772278  0.97168203  1
  O  O26  1  0.32024676  0.84841834  0.97657912  1
  O  O27  1  0.53010857  0.84762081  0.47596630  1
  O  O28  1  0.32632306  0.48878876  0.47131246  1
  O  O29  1  0.16014640  0.68483228  0.47480614  1
  O  O30  1  0.13644133  0.63056034  0.35894431  1
  O  O31  1  0.49237825  0.86075606  0.35895930  1
  O  O32  1  0.36990571  0.50543723  0.35558930  1
  O  O33  1  0.13501047  0.49884814  0.85473087  1
  O  O34  1  0.36532012  0.86351929  0.85961493  1
  O  O35  1  0.49696775  0.63080707  0.85706971  1
  O  O36  1  0.01071690  0.82274552  0.41491286  1
  O  O37  1  0.80963708  0.98254368  0.41059544  1
  O  O38  1  0.17113015  0.19762815  0.41363307  1
  O  O39  1  0.02477513  0.19584841  0.91400378  1
  O  O40  1  0.17569863  0.98925506  0.91487505  1
  O  O41  1  0.80489106  0.82689210  0.91702673  1
  O  O42  1  0.97038841  0.15619243  0.59090523  1
  O  O43  1  0.18362102  0.02128841  0.59094225  1
  O  O44  1  0.83907572  0.81031853  0.58906009  1
  O  O45  1  0.97190812  0.81078547  0.09405130  1
  O  O46  1  0.83686641  0.01821967  0.09441532  1
  O  O47  1  0.19036720  0.16007717  0.09190899  1
  O  O48  1  0.68006121  0.16096753  0.74453843  1
  O  O49  1  0.45916230  0.31770203  0.74631474  1
  O  O50  1  0.83364199  0.51824878  0.74916818  1
  O  O51  1  0.69041568  0.54351339  0.24908646  1
  O  O52  1  0.85934935  0.31746002  0.24633643  1
  O  O53  1  0.48716941  0.16556131  0.24684972  1
  O  O54  1  0.62901527  0.48366662  0.92231652  1
  O  O55  1  0.85592864  0.37231345  0.92042707  1
  O  O56  1  0.51868257  0.14703111  0.92010383  1
  O  O57  1  0.63109919  0.14605521  0.42024624  1
  O  O58  1  0.51602670  0.37200731  0.42133722  1
  O  O59  1  0.85527120  0.48236477  0.42232992  1
  O  O60  1  0.34108144  0.49430704  0.07304131  1
  O  O61  1  0.15577301  0.66595842  0.07795227  1
  O  O62  1  0.50972819  0.84545983  0.07336006  1
  O  O63  1  0.33966530  0.84708019  0.57500707  1
  O  O64  1  0.50777719  0.66524556  0.57730184  1
  O  O65  1  0.15221194  0.49632933  0.57240076  1
  O  O66  1  0.30464694  0.81719021  0.25359076  1
  O  O67  1  0.53211708  0.69826917  0.25121768  1
  O  O68  1  0.17132850  0.46023335  0.25129614  1
  O  O69  1  0.29028906  0.45913795  0.75024984  1
  O  O70  1  0.17639326  0.68649836  0.75309723  1
  O  O71  1  0.52262043  0.81086568  0.75376002  1
loop_
_geom_bond_atom_site_label_1
_geom_bond_atom_site_label_2
_geom_bond_distance
_geom_bond_site_symmetry_2
Na0 O50 2.337981 1_555
Na0 O14 2.354323 1_555
Na0 O71 2.448547 1_555
Na0 O49 2.491593 1_555
Na0 O69 2.851518 1_555
Na1 O50 2.338704 1_555
Na1 O48 2.375065 1_555
Na1 O12 2.412201 1_555
Na1 O69 2.536114 1_655
Na1 O70 2.573826 1_655
Na1 O33 2.811715 1_655
Na2 O44 2.474912 1_455
Na2 O65 2.504383 1_555
Na2 O63 2.517417 1_555
Na2 O12 2.623240 1_455
Na2 O8 2.677507 1_555
Na2 O43 2.686035 1_565
Na2 O29 2.845033 1_555
Na2 O22 2.936948 1_455
Na3 O42 2.467580 1_565
Na3 O13 2.479922 1_565
Na3 O64 2.522960 1_555
Na3 O63 2.524283 1_555
Na3 O6 2.726376 1_555
Na3 O44 2.794841 1_555
Na3 O27 2.830824 1_555
Na3 O23 2.870208 1_565
Na4 O16 2.376546 1_565
Na4 O61 2.506239 1_555
Na4 O62 2.512089 1_555
Na4 O47 2.513973 1_565
Na4 O11 2.753533 1_555
Na4 O26 2.818782 1_554
Na4 O45 2.827004 1_455
Na4 O18 2.893314 1_565
Na5 O45 2.460167 1_555
Na5 O62 2.504159 1_555
Na5 O17 2.518305 1_555
Na5 O60 2.550252 1_555
Na5 O46 2.652139 1_565
Na5 O9 2.695028 1_555
Na5 O19 2.908108 1_555
Na5 O24 2.912400 1_554
Na6 O4 2.287804 1_555
Na6 O41 2.367274 1_555
Na6 O40 2.465313 1_655
Na6 O55 2.516720 1_555
Na6 O54 2.661917 1_555
Na7 O5 2.296395 1_555
Na7 O39 2.393048 1_655
Na7 O41 2.402060 1_545
Na7 O56 2.497201 1_555
Na7 O55 2.658495 1_555
Na7 O20 2.872960 1_556
Na7 O34 2.988654 1_545
Na8 O40 2.344014 1_545
Na8 O39 2.377638 1_555
Na8 O54 2.464663 1_555
Na8 O3 2.518721 1_555
Na8 O56 2.678869 1_555
Na8 O18 2.807537 1_556
Na8 O35 2.975263 1_555
Na9 O38 2.374331 1_655
Na9 O37 2.375432 1_545
Na9 O59 2.453472 1_555
Na9 O2 2.489059 1_555
Na9 O57 2.635896 1_555
Na9 O23 2.881647 1_555
Na9 O30 2.963707 1_655
Na10 O0 2.230205 1_555
Na10 O38 2.417173 1_555
Na10 O36 2.479248 1_545
Na10 O57 2.523935 1_555
Na10 O58 2.670935 1_555
Na10 O21 2.861793 1_555
Na10 O31 2.955574 1_545
Na11 O36 2.327512 1_655
Na11 O37 2.416210 1_555
Na11 O58 2.478336 1_555
Na11 O1 2.537451 1_555
Na11 O59 2.696131 1_555
Na11 O22 2.945797 1_555
Na11 O32 2.983494 1_555
Na12 O38 2.367206 1_555
Na12 O36 2.461440 1_545
Na12 O37 2.537776 1_445
Na12 O43 2.651581 1_555
Na12 O42 2.664958 1_455
Na12 O44 2.762774 1_445
Na13 O39 2.348555 1_655
Na13 O41 2.391552 1_545
Na13 O40 2.440992 1_645
Na13 O46 2.737351 1_556
Na13 O47 2.748075 1_656
Na13 O45 2.857079 1_546
Na14 O48 2.295840 1_555
Na14 O50 2.350002 1_555
Na14 O49 2.523299 1_555
Na14 O56 2.635926 1_555
Na14 O55 2.688057 1_555
Na14 O54 2.808262 1_555
Na15 O53 2.201567 1_555
Na15 O51 2.442805 1_555
Na15 O52 2.522562 1_555
Na15 O57 2.708410 1_555
Na15 O58 2.722449 1_555
Na15 O59 2.835817 1_555
Na16 O68 2.458603 1_555
Na16 O66 2.466750 1_555
Na16 O61 2.511676 1_555
Na16 O67 2.592546 1_555
Na16 O60 2.635360 1_555
Na16 O62 2.737889 1_555
Na17 O70 2.455270 1_555
Na17 O71 2.487266 1_555
Na17 O64 2.562727 1_555
Na17 O63 2.565542 1_555
Na17 O69 2.591203 1_555
Na17 O65 2.658393 1_555
Mg0 O0 1.969958 1_555
Mg0 O38 2.121198 1_555
Mg0 O36 2.126142 1_545
Mg0 O37 2.136640 1_445
Mg0 O1 2.139700 1_445
Mg0 O2 2.140227 1_455
Mg1 O4 1.982442 1_555
Mg1 O5 1.993049 1_565
Mg1 O41 2.136775 1_555
Mg1 O40 2.153489 1_655
Mg1 O39 2.159112 1_665
Mg1 O3 2.180994 1_665
Mg2 O13 1.988536 1_555
Mg2 O12 2.044152 1_555
Mg2 O14 2.052761 1_555
Mg2 O48 2.082335 1_555
Mg2 O50 2.186551 1_555
Mg2 O49 2.347361 1_555
Mg3 O16 1.981648 1_555
Mg3 O17 2.001231 1_555
Mg3 O15 2.010494 1_555
Mg3 O53 2.059691 1_555
Mg3 O52 2.366915 1_555
Mg3 O51 2.395655 1_555
O0 Si0 1.599854 1_555
O1 S0 1.469996 1_555
O2 S1 1.471169 1_655
O3 S2 1.468571 1_555
O4 Si1 1.593021 1_655
O5 Si2 1.601369 1_555
O6 Si2 1.714382 1_565
O6 Ta0 1.948114 1_555
O7 S2 1.508389 1_555
O7 Ta0 2.143845 1_445
O8 Si1 1.703156 1_555
O8 Ta0 1.936723 1_455
O9 S0 1.523243 1_555
O9 Ta1 2.169874 1_665
O10 S1 1.520374 1_555
O10 Ta1 2.091862 1_555
O11 Si0 1.724009 1_565
O11 Ta1 1.905412 1_565
O12 Si3 1.592535 1_555
O13 Si4 1.576963 1_555
O14 Si5 1.577745 1_555
O15 Si6 1.562014 1_555
O16 Si7 1.576902 1_555
O17 Si8 1.574632 1_555
O18 Si8 1.685161 1_555
O18 Ta2 1.990641 1_554
O19 Si6 1.691151 1_555
O19 Ta2 1.961613 1_554
O20 Si7 1.692186 1_555
O20 Ta2 1.954242 1_554
O21 Si4 1.683177 1_555
O21 Ta3 1.938553 1_555
O22 Si5 1.674197 1_555
O22 Ta3 1.970056 1_555
O23 Si3 1.690980 1_555
O23 Ta3 1.983821 1_555
O24 Si9 1.638642 1_555
O24 Ta4 1.959331 1_556
O25 Si10 1.639040 1_555
O25 Ta4 1.924039 1_556
O26 Si11 1.635088 1_555
O26 Ta4 1.981965 1_556
O27 Si12 1.643545 1_555
O27 Ta5 1.983875 1_555
O28 Si13 1.650311 1_555
O28 Ta5 1.920211 1_555
O29 Si14 1.642144 1_555
O29 Ta5 1.974282 1_555
O30 Si14 1.678089 1_555
O30 Ta6 1.919579 1_555
O31 Si12 1.672327 1_555
O31 Ta6 1.910039 1_555
O32 Si13 1.650879 1_555
O32 Ta6 1.987026 1_555
O33 Si10 1.660582 1_555
O33 Ta7 1.985110 1_555
O34 Si11 1.687515 1_555
O34 Ta7 1.883730 1_555
O35 Si9 1.669523 1_555
O35 Ta7 1.994215 1_555
O36 Si14 1.603259 1_555
O37 Si12 1.603796 1_555
O38 Si13 1.603631 1_555
O39 Si10 1.600835 1_555
O40 Si11 1.599487 1_555
O41 Si9 1.604404 1_555
O42 Si3 1.651374 1_555
O42 Ta0 2.045811 1_545
O43 Si4 1.654247 1_555
O43 Ta0 2.007269 1_445
O44 Si5 1.696693 1_555
O44 Ta0 1.969545 1_555
O45 Si6 1.714579 1_555
O45 Ta1 1.957995 1_665
O46 Si7 1.658288 1_555
O46 Ta1 2.016946 1_655
O47 Si8 1.678719 1_555
O47 Ta1 1.948260 1_555
O48 Si2 1.598124 1_555
O49 S2 1.465025 1_555
O50 Si1 1.619675 1_655
O51 S0 1.462726 1_555
O52 S1 1.459590 1_655
O53 Si0 1.594570 1_555
O54 Si9 1.658064 1_555
O54 Ta2 2.055653 1_555
O55 Si10 1.657487 1_655
O55 Ta2 2.039042 1_555
O56 Si11 1.649100 1_545
O56 Ta2 2.064415 1_555
O57 Si12 1.650867 1_545
O57 Ta3 2.047946 1_555
O58 Si13 1.660147 1_555
O58 Ta3 2.037787 1_555
O59 Si14 1.651139 1_655
O59 Ta3 2.060661 1_555
O60 Si8 1.649400 1_555
O60 Ta4 1.977266 1_555
O61 Si6 1.656286 1_455
O61 Ta4 2.014916 1_555
O62 Si7 1.674798 1_565
O62 Ta4 2.015132 1_555
O63 Si4 1.675394 1_565
O63 Ta5 2.028005 1_555
O64 Si5 1.652976 1_555
O64 Ta5 2.011373 1_555
O65 Si3 1.650951 1_455
O65 Ta5 1.978997 1_555
O66 Si0 1.728750 1_565
O66 Ta6 1.943206 1_555
O67 S0 1.529070 1_555
O67 Ta6 2.197616 1_555
O68 S1 1.528293 1_555
O68 Ta6 2.210815 1_555
O69 S2 1.531963 1_555
O69 Ta7 2.293122 1_555
O70 Si1 1.693434 1_555
O70 Ta7 1.986218 1_555
O71 Si2 1.700832 1_565
O71 Ta7 1.995031 1_555
