# generated using pymatgen
data_LiV2(PO3)5
_symmetry_space_group_name_H-M   'P 1'
_cell_length_a   8.37230371
_cell_length_b   5.23769184
_cell_length_c   13.35511444
_cell_angle_alpha   72.51378430
_cell_angle_beta   90.00000000
_cell_angle_gamma   90.00000000
_symmetry_Int_Tables_number   1
_chemical_formula_structural   LiV2(PO3)5
_chemical_formula_sum   'Li2 V4 P10 O30'
_cell_volume   558.57946034
_cell_formula_units_Z   2
loop_
 _symmetry_equiv_pos_site_id
 _symmetry_equiv_pos_as_xyz
  1  'x, y, z'
loop_
 _atom_site_type_symbol
 _atom_site_label
 _atom_site_symmetry_multiplicity
 _atom_site_fract_x
 _atom_site_fract_y
 _atom_site_fract_z
 _atom_site_occupancy
  Li  Li0  1  0.00282426  0.03839923  0.47758445  1
  Li  Li1  1  0.99717574  0.03839923  0.97758445  1
  V  V0  1  0.30909228  0.06432944  0.03500735  1
  V  V1  1  0.30907143  0.93624809  0.46716550  1
  V  V2  1  0.69090772  0.06432944  0.53500735  1
  V  V3  1  0.69092857  0.93624809  0.96716550  1
  P  P0  1  0.82461361  0.36834020  0.10639584  1
  P  P1  1  0.49279608  0.51230782  0.13986532  1
  P  P2  1  0.05454527  0.00231016  0.25125362  1
  P  P3  1  0.49062822  0.48894759  0.35928458  1
  P  P4  1  0.82173559  0.63863167  0.39087304  1
  P  P5  1  0.17538639  0.36834020  0.60639584  1
  P  P6  1  0.50720392  0.51230782  0.63986532  1
  P  P7  1  0.94545473  0.00231016  0.75125362  1
  P  P8  1  0.50937178  0.48894759  0.85928458  1
  P  P9  1  0.17826441  0.63863167  0.89087304  1
  O  O0  1  0.81606913  0.17621667  0.04413681  1
  O  O1  1  0.86559113  0.65247897  0.05194462  1
  O  O2  1  0.51839033  0.80696059  0.08773678  1
  O  O3  1  0.65851827  0.36196562  0.16808291  1
  O  O4  1  0.14792057  0.95274145  0.16508889  1
  O  O5  1  0.38645130  0.37027348  0.08752800  1
  O  O6  1  0.93710117  0.25307016  0.20516507  1
  O  O7  1  0.41868925  0.49372452  0.24992625  1
  O  O8  1  0.93513773  0.75091811  0.29240579  1
  O  O9  1  0.38357680  0.64056930  0.40721139  1
  O  O10  1  0.13074873  0.05229791  0.34464880  1
  O  O11  1  0.65653965  0.63867731  0.32971323  1
  O  O12  1  0.51656647  0.19637550  0.41498159  1
  O  O13  1  0.86337135  0.35491491  0.44681020  1
  O  O14  1  0.81288379  0.83390432  0.45158897  1
  O  O15  1  0.18393087  0.17621667  0.54413681  1
  O  O16  1  0.13440887  0.65247897  0.55194462  1
  O  O17  1  0.48160967  0.80696059  0.58773678  1
  O  O18  1  0.34148173  0.36196562  0.66808291  1
  O  O19  1  0.85207943  0.95274145  0.66508889  1
  O  O20  1  0.61354870  0.37027348  0.58752800  1
  O  O21  1  0.06289883  0.25307016  0.70516507  1
  O  O22  1  0.58131075  0.49372452  0.74992625  1
  O  O23  1  0.06486227  0.75091811  0.79240579  1
  O  O24  1  0.61642320  0.64056930  0.90721139  1
  O  O25  1  0.86925127  0.05229791  0.84464880  1
  O  O26  1  0.34346035  0.63867731  0.82971323  1
  O  O27  1  0.48343353  0.19637550  0.91498159  1
  O  O28  1  0.13662865  0.35491491  0.94681020  1
  O  O29  1  0.18711621  0.83390432  0.95158897  1
loop_
_geom_bond_atom_site_label_1
_geom_bond_atom_site_label_2
_geom_bond_distance
_geom_bond_site_symmetry_2
Li0 O13 1.967473 1_455
Li0 O15 1.998929 1_555
Li0 O14 2.005011 1_445
Li0 O10 2.055885 1_555
Li0 O16 2.253740 1_545
Li1 O28 1.967473 1_655
Li1 O0 1.998929 1_556
Li1 O29 2.005011 1_645
Li1 O25 2.055885 1_555
Li1 O1 2.253740 1_546
O0 P0 1.487244 1_555
O0 V3 2.123819 1_544
O1 P0 1.486936 1_555
O1 V3 2.148983 1_554
O2 P1 1.505553 1_555
O2 V3 2.117277 1_554
O2 V0 2.193893 1_565
O3 P1 1.583934 1_555
O3 P0 1.611541 1_555
O4 P2 1.477264 1_565
O4 V0 2.137823 1_565
O5 P1 1.465335 1_555
O5 V0 2.038319 1_555
O6 P0 1.585190 1_555
O6 P2 1.607763 1_655
O7 P1 1.571300 1_555
O7 P3 1.573043 1_555
O8 P4 1.584889 1_555
O8 P2 1.612556 1_665
O9 P3 1.465988 1_555
O9 V1 2.042987 1_555
O10 P2 1.492518 1_555
O10 V1 2.162863 1_545
O11 P3 1.585674 1_555
O11 P4 1.606214 1_555
O12 P3 1.504564 1_555
O12 V2 2.124174 1_555
O12 V1 2.188446 1_545
O13 P4 1.490207 1_555
O13 V2 2.170584 1_555
O14 P4 1.485755 1_555
O14 V2 2.132754 1_565
O15 P5 1.487244 1_555
O15 V1 2.123819 1_545
O16 P5 1.486936 1_555
O16 V1 2.148983 1_555
O17 P6 1.505553 1_555
O17 V1 2.117277 1_555
O17 V2 2.193893 1_565
O18 P6 1.583934 1_555
O18 P5 1.611541 1_555
O19 P7 1.477264 1_565
O19 V2 2.137823 1_565
O20 P6 1.465335 1_555
O20 V2 2.038319 1_555
O21 P5 1.585190 1_555
O21 P7 1.607763 1_455
O22 P6 1.571300 1_555
O22 P8 1.573043 1_555
O23 P9 1.584889 1_555
O23 P7 1.612556 1_465
O24 P8 1.465988 1_555
O24 V3 2.042987 1_555
O25 P7 1.492518 1_555
O25 V3 2.162863 1_545
O26 P8 1.585674 1_555
O26 P9 1.606214 1_555
O27 P8 1.504564 1_555
O27 V0 2.124174 1_556
O27 V3 2.188446 1_545
O28 P9 1.490207 1_555
O28 V0 2.170584 1_556
O29 P9 1.485755 1_555
O29 V0 2.132754 1_566
