# generated using pymatgen
data_MgMn4O6
_symmetry_space_group_name_H-M   'P 1'
_cell_length_a   5.19498635
_cell_length_b   5.86704193
_cell_length_c   5.32035696
_cell_angle_alpha   112.63973140
_cell_angle_beta   62.75624025
_cell_angle_gamma   116.86713965
_symmetry_Int_Tables_number   1
_chemical_formula_structural   MgMn4O6
_chemical_formula_sum   'Mg1 Mn4 O6'
_cell_volume   125.32597244
_cell_formula_units_Z   1
loop_
 _symmetry_equiv_pos_site_id
 _symmetry_equiv_pos_as_xyz
  1  'x, y, z'
loop_
 _atom_site_type_symbol
 _atom_site_label
 _atom_site_symmetry_multiplicity
 _atom_site_fract_x
 _atom_site_fract_y
 _atom_site_fract_z
 _atom_site_occupancy
  Mg  Mg0  1  0.49998200  0.49997100  0.49999600  1
  Mn  Mn0  1  0.11364700  0.38373800  0.13053400  1
  Mn  Mn1  1  0.66636100  0.02753200  0.68471600  1
  Mn  Mn2  1  0.33375200  0.97257700  0.31525800  1
  Mn  Mn3  1  0.88636900  0.61625600  0.86946100  1
  O  O0  1  0.31158400  0.76641200  0.54689900  1
  O  O1  1  0.05789100  0.27385300  0.73148100  1
  O  O2  1  0.42255700  0.24276300  0.11606200  1
  O  O3  1  0.57740500  0.75718700  0.88394000  1
  O  O4  1  0.94204400  0.72615800  0.26856400  1
  O  O5  1  0.68840900  0.23355300  0.45308900  1
loop_
_geom_bond_atom_site_label_1
_geom_bond_atom_site_label_2
_geom_bond_distance
_geom_bond_site_symmetry_2
Mg0 O5 2.079106 1_555
Mg0 O0 2.079125 1_555
Mg0 O2 2.107604 1_555
Mg0 O3 2.107655 1_555
Mg0 O4 2.113202 1_555
Mg0 O1 2.113229 1_555
Mn0 O2 2.074344 1_555
Mn0 O1 2.085086 1_554
Mn0 O5 2.129657 1_455
Mn0 O4 2.292079 1_455
Mn0 O3 2.621883 1_554
Mn0 O0 2.678647 1_555
Mn1 O1 1.953776 1_655
Mn1 O5 1.971097 1_555
Mn1 O3 2.009022 1_545
Mn1 O0 2.025323 1_545
Mn1 O2 2.240255 1_556
Mn1 O4 2.539963 1_545
Mn2 O4 1.954490 1_455
Mn2 O0 1.971544 1_555
Mn2 O2 2.008374 1_565
Mn2 O5 2.024728 1_565
Mn2 O3 2.240294 1_554
Mn2 O1 2.540183 1_565
Mn3 O3 2.074400 1_555
Mn3 O4 2.085132 1_556
Mn3 O0 2.129574 1_655
Mn3 O1 2.291770 1_655
Mn3 O2 2.622144 1_556
Mn3 O5 2.678777 1_555
