# generated using pymatgen
data_Na3TiInSi(PO6)2
_symmetry_space_group_name_H-M   'P 1'
_cell_length_a   9.02949799
_cell_length_b   9.02949767
_cell_length_c   22.11744540
_cell_angle_alpha   90.15808137
_cell_angle_beta   89.84191862
_cell_angle_gamma   119.67109403
_symmetry_Int_Tables_number   1
_chemical_formula_structural   Na3TiInSi(PO6)2
_chemical_formula_sum   'Na18 Ti6 In6 Si6 P12 O72'
_cell_volume   1566.82477904
_cell_formula_units_Z   6
loop_
 _symmetry_equiv_pos_site_id
 _symmetry_equiv_pos_as_xyz
  1  'x, y, z'
loop_
 _atom_site_type_symbol
 _atom_site_label
 _atom_site_symmetry_multiplicity
 _atom_site_fract_x
 _atom_site_fract_y
 _atom_site_fract_z
 _atom_site_occupancy
  Na  Na0  1  0.99734222  0.99219800  0.49837312  1
  Na  Na1  1  0.00780200  0.00265778  0.99837312  1
  Na  Na2  1  0.66999477  0.32581460  0.83237241  1
  Na  Na3  1  0.67418540  0.33000523  0.33237241  1
  Na  Na4  1  0.35804753  0.68433181  0.16488662  1
  Na  Na5  1  0.31566819  0.64195247  0.66488662  1
  Na  Na6  1  0.36431309  0.36154341  0.24840495  1
  Na  Na7  1  0.99239433  0.63342980  0.24473589  1
  Na  Na8  1  0.63845659  0.63568691  0.74840495  1
  Na  Na9  1  0.36657020  0.00760567  0.74473589  1
  Na  Na10  1  0.03985724  0.69982797  0.58027665  1
  Na  Na11  1  0.65322870  0.96481494  0.58442916  1
  Na  Na12  1  0.30017203  0.96014276  0.08027665  1
  Na  Na13  1  0.03518506  0.34677130  0.08442916  1
  Na  Na14  1  0.97683388  0.67682343  0.91767883  1
  Na  Na15  1  0.70088121  0.02981007  0.91291099  1
  Na  Na16  1  0.97018993  0.29911879  0.41291099  1
  Na  Na17  1  0.32317657  0.02316612  0.41767883  1
  Ti  Ti0  1  0.00805516  0.01139098  0.64821120  1
  Ti  Ti1  1  0.98860902  0.99194484  0.14821120  1
  Ti  Ti2  1  0.66368268  0.33965334  0.98120303  1
  Ti  Ti3  1  0.66034666  0.33631732  0.48120303  1
  Ti  Ti4  1  0.32298768  0.66017636  0.31488164  1
  Ti  Ti5  1  0.33982364  0.67701232  0.81488164  1
  In  In0  1  0.98829294  0.99170728  0.34919133  1
  In  In1  1  0.00829272  0.01170706  0.84919133  1
  In  In2  1  0.67157285  0.32933796  0.68319108  1
  In  In3  1  0.67066204  0.32842715  0.18319108  1
  In  In4  1  0.33308454  0.66501299  0.01568833  1
  In  In5  1  0.33498701  0.66691546  0.51568833  1
  Si  Si0  1  0.00292663  0.29769650  0.25217303  1
  Si  Si1  1  0.70230350  0.99707337  0.75217303  1
  Si  Si2  1  0.36602574  0.03980235  0.58406869  1
  Si  Si3  1  0.96019765  0.63397426  0.08406869  1
  Si  Si4  1  0.33844220  0.97157313  0.91853005  1
  Si  Si5  1  0.02842687  0.66155780  0.41853005  1
  P  P0  1  0.29099857  0.99436267  0.24991564  1
  P  P1  1  0.69834250  0.70694529  0.24884373  1
  P  P2  1  0.29305471  0.30165750  0.74884373  1
  P  P3  1  0.00563733  0.70900143  0.74991564  1
  P  P4  1  0.95925868  0.32740984  0.58099233  1
  P  P5  1  0.67227089  0.62990814  0.58514018  1
  P  P6  1  0.67259016  0.04074132  0.08099233  1
  P  P7  1  0.37009186  0.32772911  0.08514018  1
  P  P8  1  0.62339463  0.65734483  0.91458008  1
  P  P9  1  0.03771179  0.37732249  0.91831404  1
  P  P10  1  0.62267751  0.96228821  0.41831404  1
  P  P11  1  0.34265517  0.37660537  0.41458008  1
  O  O0  1  0.21802586  0.02395098  0.30872805  1
  O  O1  1  0.81226318  0.77067943  0.30446662  1
  O  O2  1  0.98742258  0.20209838  0.31500035  1
  O  O3  1  0.22932057  0.18773682  0.80446662  1
  O  O4  1  0.97604902  0.78197414  0.80872805  1
  O  O5  1  0.79790162  0.01257742  0.81500035  1
  O  O6  1  0.80986198  0.97615751  0.69387458  1
  O  O7  1  0.17529764  0.19730644  0.69366358  1
  O  O8  1  0.03238729  0.83124302  0.69507764  1
  O  O9  1  0.80269356  0.82470236  0.19366358  1
  O  O10  1  0.02384249  0.19013802  0.19387458  1
  O  O11  1  0.16875698  0.96761271  0.19507764  1
  O  O12  1  0.89003287  0.37232638  0.63718452  1
  O  O13  1  0.47744118  0.11243805  0.64477081  1
  O  O14  1  0.65261430  0.53900597  0.64497457  1
  O  O15  1  0.88756195  0.52255882  0.14477081  1
  O  O16  1  0.62767362  0.10996713  0.13718452  1
  O  O17  1  0.46099403  0.34738570  0.14497457  1
  O  O18  1  0.47852276  0.31115994  0.03179302  1
  O  O19  1  0.83569005  0.52621203  0.02509441  1
  O  O20  1  0.69704302  0.15824483  0.02507993  1
  O  O21  1  0.47378797  0.16430995  0.52509441  1
  O  O22  1  0.68884006  0.52147724  0.53179302  1
  O  O23  1  0.84175517  0.30295698  0.52507993  1
  O  O24  1  0.54547247  0.69187164  0.97036576  1
  O  O25  1  0.12521848  0.44038777  0.97970618  1
  O  O26  1  0.30221349  0.85980051  0.97920004  1
  O  O27  1  0.55961223  0.87478152  0.47970618  1
  O  O28  1  0.30812836  0.45452753  0.47036576  1
  O  O29  1  0.14019949  0.69778651  0.47920004  1
  O  O30  1  0.13862116  0.63529152  0.36008466  1
  O  O31  1  0.49980701  0.85164848  0.36644504  1
  O  O32  1  0.35967956  0.48501448  0.35692325  1
  O  O33  1  0.14835152  0.50019299  0.86644504  1
  O  O34  1  0.36470848  0.86137884  0.86008466  1
  O  O35  1  0.51498552  0.64032044  0.85692325  1
  O  O36  1  0.01628588  0.83297764  0.41151715  1
  O  O37  1  0.80862030  0.00190013  0.41280139  1
  O  O38  1  0.18991497  0.19344706  0.41111110  1
  O  O39  1  0.99809987  0.19137970  0.91280139  1
  O  O40  1  0.16702236  0.98371412  0.91151715  1
  O  O41  1  0.80655294  0.81008503  0.91111110  1
  O  O42  1  0.95663244  0.15347594  0.58803648  1
  O  O43  1  0.17509364  0.02360247  0.58913125  1
  O  O44  1  0.84241473  0.80505896  0.58457469  1
  O  O45  1  0.97639753  0.82490636  0.08913125  1
  O  O46  1  0.84652406  0.04336756  0.08803648  1
  O  O47  1  0.19494104  0.15758527  0.08457469  1
  O  O48  1  0.66098895  0.15228744  0.74952229  1
  O  O49  1  0.47774862  0.33758451  0.74153457  1
  O  O50  1  0.84650610  0.53372734  0.74307320  1
  O  O51  1  0.66241549  0.52225138  0.24153457  1
  O  O52  1  0.84771256  0.33901105  0.24952229  1
  O  O53  1  0.46627266  0.15349390  0.24307320  1
  O  O54  1  0.63560031  0.49138935  0.92033997  1
  O  O55  1  0.86304983  0.37678907  0.91808108  1
  O  O56  1  0.52021537  0.15256255  0.92257556  1
  O  O57  1  0.62321093  0.13695017  0.41808108  1
  O  O58  1  0.50861065  0.36439969  0.42033997  1
  O  O59  1  0.84743745  0.47978463  0.42257556  1
  O  O60  1  0.33752193  0.47782684  0.07823674  1
  O  O61  1  0.15316967  0.66028204  0.08068760  1
  O  O62  1  0.52391900  0.85861725  0.07505631  1
  O  O63  1  0.33971796  0.84683033  0.58068760  1
  O  O64  1  0.52217316  0.66247807  0.57823674  1
  O  O65  1  0.14138275  0.47608100  0.57505631  1
  O  O66  1  0.29991084  0.82640040  0.25441633  1
  O  O67  1  0.52654323  0.70467016  0.25317031  1
  O  O68  1  0.18674520  0.48746164  0.25470798  1
  O  O69  1  0.29532984  0.47345677  0.75317031  1
  O  O70  1  0.17359960  0.70008916  0.75441633  1
  O  O71  1  0.51253836  0.81325480  0.75470798  1
loop_
_geom_bond_atom_site_label_1
_geom_bond_atom_site_label_2
_geom_bond_distance
_geom_bond_site_symmetry_2
Na0 O36 2.452134 1_655
Na0 O44 2.471844 1_555
Na0 O43 2.499981 1_665
Na0 O37 2.580709 1_565
Na0 O42 2.588167 1_565
Na0 O38 2.631191 1_665
Na1 O40 2.452134 1_545
Na1 O47 2.471844 1_556
Na1 O45 2.499981 1_446
Na1 O39 2.580709 1_455
Na1 O46 2.588167 1_456
Na1 O41 2.631191 1_445
Na2 O48 2.382922 1_555
Na2 O55 2.462345 1_555
Na2 O56 2.482805 1_555
Na2 O54 2.560737 1_555
Na2 O50 2.646945 1_555
Na2 O49 2.695209 1_555
Na3 O52 2.382922 1_555
Na3 O57 2.462345 1_555
Na3 O59 2.482805 1_555
Na3 O58 2.560737 1_555
Na3 O53 2.646945 1_555
Na3 O51 2.695209 1_555
Na4 O67 2.428777 1_555
Na4 O62 2.516848 1_555
Na4 O66 2.547386 1_555
Na4 O61 2.560574 1_555
Na4 O68 2.603742 1_555
Na4 O60 2.612315 1_555
Na5 O69 2.428777 1_555
Na5 O65 2.516848 1_555
Na5 O70 2.547386 1_555
Na5 O63 2.560574 1_555
Na5 O71 2.603742 1_555
Na5 O64 2.612315 1_555
Na6 O51 2.346492 1_555
Na6 O68 2.384448 1_555
Na6 O53 2.470025 1_555
Na6 O17 2.471736 1_555
Na6 O32 2.652599 1_555
Na6 O67 2.694788 1_555
Na6 O10 2.932688 1_555
Na6 O0 2.973760 1_555
Na7 O52 2.312496 1_555
Na7 O15 2.418218 1_555
Na7 O66 2.450151 1_655
Na7 O51 2.632474 1_555
Na7 O68 2.675658 1_655
Na7 O1 2.810935 1_555
Na7 O11 2.845838 1_655
Na7 O30 2.872059 1_655
Na8 O49 2.346492 1_555
Na8 O71 2.384448 1_555
Na8 O50 2.470025 1_555
Na8 O14 2.471736 1_555
Na8 O35 2.652599 1_555
Na8 O69 2.694788 1_555
Na8 O6 2.932688 1_555
Na8 O4 2.973761 1_555
Na9 O48 2.312496 1_555
Na9 O13 2.418218 1_555
Na9 O70 2.450151 1_545
Na9 O49 2.632474 1_555
Na9 O71 2.675658 1_545
Na9 O3 2.810935 1_555
Na9 O8 2.845838 1_545
Na9 O34 2.872058 1_545
Na10 O63 2.352644 1_555
Na10 O44 2.401244 1_455
Na10 O29 2.413316 1_555
Na10 O43 2.557383 1_565
Na10 O65 2.601381 1_555
Na10 O8 2.814484 1_555
Na10 O12 2.865253 1_455
Na10 O22 2.957188 1_455
Na11 O64 2.381641 1_555
Na11 O42 2.407002 1_565
Na11 O27 2.461769 1_555
Na11 O63 2.484050 1_555
Na11 O44 2.727398 1_555
Na11 O6 2.782888 1_555
Na11 O13 2.854924 1_565
Na11 O23 2.967698 1_565
Na12 O61 2.352644 1_555
Na12 O47 2.401244 1_565
Na12 O26 2.413315 1_554
Na12 O45 2.557383 1_455
Na12 O62 2.601381 1_555
Na12 O11 2.814484 1_555
Na12 O16 2.865254 1_565
Na12 O18 2.957188 1_565
Na13 O60 2.381641 1_555
Na13 O46 2.407002 1_455
Na13 O25 2.461769 1_554
Na13 O61 2.484050 1_555
Na13 O47 2.727398 1_555
Na13 O10 2.782888 1_555
Na13 O15 2.854924 1_455
Na13 O20 2.967698 1_455
Na14 O55 2.374780 1_555
Na14 O41 2.380535 1_555
Na14 O40 2.436380 1_655
Na14 O4 2.593765 1_555
Na14 O54 2.681881 1_555
Na14 O19 2.720866 1_556
Na14 O26 2.901204 1_655
Na14 O33 2.941429 1_655
Na15 O39 2.335488 1_555
Na15 O5 2.367241 1_555
Na15 O56 2.392142 1_555
Na15 O41 2.592655 1_545
Na15 O55 2.725829 1_555
Na15 O20 2.743058 1_556
Na15 O34 2.886422 1_545
Na15 O24 2.944037 1_545
Na16 O37 2.335488 1_555
Na16 O2 2.367241 1_555
Na16 O59 2.392142 1_555
Na16 O38 2.592655 1_655
Na16 O57 2.725829 1_555
Na16 O23 2.743058 1_555
Na16 O30 2.886422 1_655
Na16 O28 2.944037 1_655
Na17 O57 2.374780 1_555
Na17 O38 2.380535 1_555
Na17 O36 2.436380 1_545
Na17 O0 2.593765 1_555
Na17 O58 2.681881 1_555
Na17 O21 2.720866 1_555
Na17 O29 2.901204 1_545
Na17 O31 2.941429 1_545
In0 O2 2.050275 1_565
In0 O1 2.084507 1_555
In0 O36 2.095187 1_655
In0 O0 2.140556 1_665
In0 O37 2.180451 1_565
In0 O38 2.285803 1_665
In1 O5 2.050275 1_455
In1 O3 2.084507 1_555
In1 O40 2.095187 1_545
In1 O4 2.140556 1_445
In1 O39 2.180451 1_455
In1 O41 2.285803 1_445
In2 O13 2.056855 1_555
In2 O12 2.076104 1_555
In2 O48 2.139655 1_555
In2 O14 2.158342 1_555
In2 O50 2.183369 1_555
In2 O49 2.202204 1_555
In3 O15 2.056855 1_555
In3 O16 2.076104 1_555
In3 O52 2.139655 1_555
In3 O17 2.158342 1_555
In3 O53 2.183369 1_555
In3 O51 2.202204 1_555
In4 O24 2.066814 1_554
In4 O26 2.077729 1_554
In4 O25 2.121410 1_554
In4 O61 2.150918 1_555
In4 O62 2.183322 1_555
In4 O60 2.202828 1_555
In5 O28 2.066814 1_555
In5 O29 2.077729 1_555
In5 O27 2.121410 1_555
In5 O63 2.150918 1_555
In5 O65 2.183322 1_555
In5 O64 2.202828 1_555
O0 P0 1.537922 1_545
O1 P1 1.523082 1_555
O2 Si0 1.606722 1_655
O3 P2 1.523082 1_555
O4 P3 1.537922 1_655
O5 Si1 1.606722 1_545
O6 Si1 1.677743 1_555
O6 Ti0 1.937001 1_665
O7 P2 1.586442 1_555
O7 Ti0 1.896949 1_555
O8 P3 1.577834 1_555
O8 Ti0 2.033003 1_565
O9 P1 1.586442 1_555
O9 Ti1 1.896949 1_555
O10 Si0 1.677743 1_555
O10 Ti1 1.937001 1_445
O11 P0 1.577834 1_555
O11 Ti1 2.033003 1_455
O12 P4 1.530931 1_555
O13 Si2 1.610622 1_555
O14 P5 1.522178 1_555
O15 Si3 1.610622 1_555
O16 P6 1.530931 1_555
O17 P7 1.522178 1_555
O18 P7 1.584556 1_555
O18 Ti2 1.918028 1_554
O19 Si3 1.682299 1_555
O19 Ti2 1.897713 1_554
O20 P6 1.574022 1_555
O20 Ti2 2.052931 1_554
O21 Si2 1.682299 1_555
O21 Ti3 1.897713 1_555
O22 P5 1.584556 1_555
O22 Ti3 1.918028 1_555
O23 P4 1.574022 1_555
O23 Ti3 2.052931 1_555
O24 P8 1.524747 1_555
O25 P9 1.532484 1_555
O26 Si4 1.613811 1_555
O27 P10 1.532484 1_555
O28 P11 1.524747 1_555
O29 Si5 1.613811 1_555
O30 Si5 1.715254 1_555
O30 Ti4 1.855561 1_555
O31 P10 1.564736 1_555
O31 Ti4 2.026112 1_555
O32 P11 1.569986 1_555
O32 Ti4 2.001132 1_555
O33 P9 1.564736 1_555
O33 Ti5 2.026112 1_555
O34 Si4 1.715254 1_555
O34 Ti5 1.855561 1_555
O35 P8 1.569986 1_555
O35 Ti5 2.001132 1_555
O36 Si5 1.612849 1_555
O37 P10 1.538279 1_545
O38 P11 1.544289 1_555
O39 P9 1.538279 1_655
O40 Si4 1.612849 1_555
O41 P8 1.544289 1_555
O42 P4 1.567123 1_555
O42 Ti0 2.058032 1_655
O43 Si2 1.659981 1_555
O43 Ti0 1.954424 1_555
O44 P5 1.567201 1_555
O44 Ti0 2.219774 1_665
O45 Si3 1.659980 1_555
O45 Ti1 1.954424 1_555
O46 P6 1.567123 1_555
O46 Ti1 2.058032 1_545
O47 P7 1.567201 1_555
O47 Ti1 2.219774 1_445
O48 Si1 1.620191 1_545
O49 P2 1.541349 1_555
O50 P3 1.529944 1_655
O51 P1 1.541349 1_555
O52 Si0 1.620191 1_655
O53 P0 1.529944 1_545
O54 P8 1.561569 1_555
O54 Ti2 2.027207 1_555
O55 P9 1.574754 1_655
O55 Ti2 2.166399 1_555
O56 Si4 1.648360 1_545
O56 Ti2 2.010962 1_555
O57 P10 1.574754 1_545
O57 Ti3 2.166399 1_555
O58 P11 1.561569 1_555
O58 Ti3 2.027207 1_555
O59 Si5 1.648360 1_655
O59 Ti3 2.010962 1_555
O60 P7 1.530576 1_555
O61 Si3 1.639424 1_455
O62 P6 1.529003 1_565
O63 Si2 1.639424 1_565
O64 P5 1.530576 1_555
O65 P4 1.529003 1_455
O66 P0 1.561478 1_555
O66 Ti4 2.099262 1_555
O67 P1 1.543901 1_555
O67 Ti4 2.158870 1_555
O68 Si0 1.696572 1_555
O68 Ti4 1.953187 1_555
O69 P2 1.543901 1_555
O69 Ti5 2.158870 1_555
O70 P3 1.561478 1_555
O70 Ti5 2.099262 1_555
O71 Si1 1.696572 1_555
O71 Ti5 1.953187 1_555
