# generated using pymatgen
data_Na2MgInP(SO6)2
_symmetry_space_group_name_H-M   'P 1'
_cell_length_a   8.96575739
_cell_length_b   8.91766481
_cell_length_c   22.81556436
_cell_angle_alpha   90.18150625
_cell_angle_beta   90.00000000
_cell_angle_gamma   120.17855854
_symmetry_Int_Tables_number   1
_chemical_formula_structural   Na2MgInP(SO6)2
_chemical_formula_sum   'Na12 Mg6 In6 P6 S12 O72'
_cell_volume   1576.93150024
_cell_formula_units_Z   6
loop_
 _symmetry_equiv_pos_site_id
 _symmetry_equiv_pos_as_xyz
  1  'x, y, z'
loop_
 _atom_site_type_symbol
 _atom_site_label
 _atom_site_symmetry_multiplicity
 _atom_site_fract_x
 _atom_site_fract_y
 _atom_site_fract_z
 _atom_site_occupancy
  Na  Na0  1  0.00263928  0.64051834  0.24403472  1
  Na  Na1  1  0.63787905  0.64051834  0.74403472  1
  Na  Na2  1  0.66230052  0.96053452  0.58079709  1
  Na  Na3  1  0.29823499  0.96053452  0.08079709  1
  Na  Na4  1  0.69097769  0.02778998  0.91092549  1
  Na  Na5  1  0.33681129  0.02778998  0.41092549  1
  Na  Na6  1  0.98236883  0.98933871  0.49668271  1
  Na  Na7  1  0.00696988  0.98933871  0.99668271  1
  Na  Na8  1  0.65948260  0.31662696  0.83005967  1
  Na  Na9  1  0.65714536  0.31662696  0.33005967  1
  Na  Na10  1  0.33405457  0.66023628  0.16378097  1
  Na  Na11  1  0.32618071  0.66023628  0.66378097  1
  Mg  Mg0  1  0.99501089  0.00399482  0.35122393  1
  Mg  Mg1  1  0.00898393  0.00399482  0.85122393  1
  Mg  Mg2  1  0.66801078  0.32935641  0.68415054  1
  Mg  Mg3  1  0.66134663  0.32935641  0.18415054  1
  Mg  Mg4  1  0.31987698  0.66326547  0.01762994  1
  Mg  Mg5  1  0.34338748  0.66326547  0.51762994  1
  In  In0  1  0.99799180  0.99651575  0.65141503  1
  In  In1  1  0.99852394  0.99651575  0.15141503  1
  In  In2  1  0.66926008  0.34194290  0.98493187  1
  In  In3  1  0.67268382  0.34194290  0.48493187  1
  In  In4  1  0.34450866  0.67717709  0.31786909  1
  In  In5  1  0.33266743  0.67717709  0.81786909  1
  P  P0  1  0.29995270  0.00502526  0.25226589  1
  P  P1  1  0.70507256  0.00502526  0.75226589  1
  P  P2  1  0.66324234  0.62692241  0.58673735  1
  P  P3  1  0.96368107  0.62692241  0.08673735  1
  P  P4  1  0.33109867  0.96715434  0.92072933  1
  P  P5  1  0.63605466  0.96715434  0.42072933  1
  S  S0  1  0.70421736  0.70254371  0.25102895  1
  S  S1  1  0.99794458  0.29430956  0.25115060  1
  S  S2  1  0.29636497  0.29430956  0.75115060  1
  S  S3  1  0.99832635  0.70254371  0.75102895  1
  S  S4  1  0.96675776  0.33900606  0.58469510  1
  S  S5  1  0.36914662  0.03657225  0.58339829  1
  S  S6  1  0.66742663  0.03657225  0.08339829  1
  S  S7  1  0.37224930  0.33900606  0.08469510  1
  S  S8  1  0.62732596  0.66722633  0.91663922  1
  S  S9  1  0.04060820  0.36984009  0.91710395  1
  S  S10  1  0.32923089  0.36984009  0.41710395  1
  S  S11  1  0.03989938  0.66722633  0.41663922  1
  O  O0  1  0.20738180  0.02009085  0.30700994  1
  O  O1  1  0.81391954  0.79153797  0.30201628  1
  O  O2  1  0.97769466  0.18772702  0.30223732  1
  O  O3  1  0.21003236  0.18772702  0.80223732  1
  O  O4  1  0.97761844  0.79153797  0.80201628  1
  O  O5  1  0.81270905  0.02009085  0.80700994  1
  O  O6  1  0.78019923  0.96666216  0.69541432  1
  O  O7  1  0.19670480  0.22104847  0.69589885  1
  O  O8  1  0.03306490  0.80659792  0.69649850  1
  O  O9  1  0.77353302  0.80659792  0.19649850  1
  O  O10  1  0.02434367  0.22104847  0.19589885  1
  O  O11  1  0.18646293  0.96666216  0.19541432  1
  O  O12  1  0.88005291  0.35791688  0.63632410  1
  O  O13  1  0.48578268  0.12672913  0.63294466  1
  O  O14  1  0.64932561  0.52424006  0.64229464  1
  O  O15  1  0.87491544  0.52424006  0.14229464  1
  O  O16  1  0.64094745  0.12672913  0.13294466  1
  O  O17  1  0.47786497  0.35791688  0.13632410  1
  O  O18  1  0.44121628  0.29682545  0.03088514  1
  O  O19  1  0.85552176  0.54802057  0.03029489  1
  O  O20  1  0.69488699  0.13408696  0.02731828  1
  O  O21  1  0.43920097  0.13408696  0.52731828  1
  O  O22  1  0.69249981  0.54802057  0.53029489  1
  O  O23  1  0.85561016  0.29682545  0.53088514  1
  O  O24  1  0.53537530  0.68730686  0.96675620  1
  O  O25  1  0.14555930  0.45569507  0.96878914  1
  O  O26  1  0.31303203  0.86106191  0.97615946  1
  O  O27  1  0.54802887  0.86106191  0.47615946  1
  O  O28  1  0.31013476  0.45569507  0.46878914  1
  O  O29  1  0.15193057  0.68730686  0.46675620  1
  O  O30  1  0.10980738  0.63802630  0.36060929  1
  O  O31  1  0.51528876  0.89127158  0.36580200  1
  O  O32  1  0.35521248  0.47045291  0.36233625  1
  O  O33  1  0.11523943  0.47045291  0.86233625  1
  O  O34  1  0.37598182  0.89127158  0.86580200  1
  O  O35  1  0.52821792  0.63802630  0.86060929  1
  O  O36  1  0.03078475  0.82940631  0.41186329  1
  O  O37  1  0.81372557  0.98594109  0.41147609  1
  O  O38  1  0.17625284  0.19207378  0.41180254  1
  O  O39  1  0.01582094  0.19207378  0.91180254  1
  O  O40  1  0.17221551  0.98594109  0.91147609  1
  O  O41  1  0.79862157  0.82940631  0.91186329  1
  O  O42  1  0.98372033  0.17906252  0.58918150  1
  O  O43  1  0.19587615  0.01918384  0.58963958  1
  O  O44  1  0.82656636  0.81715539  0.58742145  1
  O  O45  1  0.99058903  0.81715539  0.08742145  1
  O  O46  1  0.82330769  0.01918384  0.08963958  1
  O  O47  1  0.19534219  0.17906252  0.08918150  1
  O  O48  1  0.68339150  0.16374162  0.74458899  1
  O  O49  1  0.47296735  0.31878343  0.74579152  1
  O  O50  1  0.83626239  0.53212397  0.74495592  1
  O  O51  1  0.69586258  0.53212397  0.24495592  1
  O  O52  1  0.84581708  0.31878343  0.24579152  1
  O  O53  1  0.48035112  0.16374162  0.24458899  1
  O  O54  1  0.65135278  0.51420536  0.92062021  1
  O  O55  1  0.86232303  0.34731130  0.92070056  1
  O  O56  1  0.50398125  0.15019840  0.92387593  1
  O  O57  1  0.64621815  0.15019840  0.42387593  1
  O  O58  1  0.48498927  0.34731130  0.42070056  1
  O  O59  1  0.86285359  0.51420536  0.42062021  1
  O  O60  1  0.35708040  0.49431507  0.07679698  1
  O  O61  1  0.14698929  0.65022355  0.08076337  1
  O  O62  1  0.50980485  0.86180762  0.07829782  1
  O  O63  1  0.35200177  0.86180762  0.57829782  1
  O  O64  1  0.50323326  0.65022355  0.58076337  1
  O  O65  1  0.13723367  0.49431507  0.57679698  1
  O  O66  1  0.30737761  0.83061290  0.25430206  1
  O  O67  1  0.52572392  0.67402076  0.25565934  1
  O  O68  1  0.15548318  0.47333779  0.25542385  1
  O  O69  1  0.31785361  0.47333779  0.75542385  1
  O  O70  1  0.14829584  0.67402076  0.75565934  1
  O  O71  1  0.52323430  0.83061290  0.75430206  1
loop_
_geom_bond_atom_site_label_1
_geom_bond_atom_site_label_2
_geom_bond_distance
_geom_bond_site_symmetry_2
Na0 O66 2.394663 1_555
Na0 O51 2.413934 1_455
Na0 O52 2.480987 1_455
Na0 O68 2.494908 1_555
Na0 O15 2.562367 1_455
Na0 O11 2.758081 1_555
Na0 O30 2.831897 1_555
Na0 O1 2.950654 1_455
Na1 O71 2.394670 1_555
Na1 O50 2.413943 1_555
Na1 O49 2.480987 1_555
Na1 O69 2.494915 1_555
Na1 O14 2.562369 1_555
Na1 O6 2.758081 1_555
Na1 O35 2.831900 1_555
Na1 O4 2.950654 1_555
Na2 O44 2.391902 1_555
Na2 O64 2.392439 1_555
Na2 O63 2.460765 1_555
Na2 O42 2.547614 1_565
Na2 O27 2.570783 1_555
Na2 O6 2.810674 1_555
Na2 O23 2.844328 1_565
Na2 O13 2.909259 1_565
Na3 O45 2.391910 1_455
Na3 O61 2.392439 1_555
Na3 O62 2.460748 1_555
Na3 O47 2.547621 1_565
Na3 O26 2.570778 1_554
Na3 O11 2.810677 1_555
Na3 O18 2.844328 1_565
Na3 O16 2.909259 1_565
Na4 O41 2.403854 1_545
Na4 O56 2.434690 1_555
Na4 O55 2.474630 1_555
Na4 O39 2.517762 1_655
Na4 O5 2.625135 1_555
Na4 O34 2.655804 1_545
Na4 O20 2.811133 1_556
Na4 O24 2.924688 1_545
Na5 O36 2.403847 1_545
Na5 O57 2.434707 1_555
Na5 O58 2.474629 1_555
Na5 O38 2.517754 1_555
Na5 O0 2.625131 1_555
Na5 O31 2.655804 1_545
Na5 O21 2.811136 1_555
Na5 O29 2.924688 1_545
Na6 O37 2.453559 1_555
Na6 O44 2.541381 1_555
Na6 O36 2.563690 1_655
Na6 O38 2.627394 1_665
Na6 O42 2.696897 1_565
Na6 O43 2.778033 1_665
Na7 O40 2.453559 1_555
Na7 O45 2.541381 1_456
Na7 O41 2.563690 1_455
Na7 O39 2.627394 1_565
Na7 O47 2.696897 1_566
Na7 O46 2.778033 1_466
Na8 O48 2.446321 1_555
Na8 O49 2.554574 1_555
Na8 O56 2.582221 1_555
Na8 O50 2.633754 1_555
Na8 O55 2.674895 1_555
Na8 O54 2.735861 1_555
Na9 O53 2.446321 1_555
Na9 O52 2.554574 1_555
Na9 O57 2.582221 1_555
Na9 O51 2.633754 1_555
Na9 O58 2.674895 1_555
Na9 O59 2.735861 1_555
Na10 O61 2.501373 1_555
Na10 O60 2.541460 1_555
Na10 O62 2.586975 1_555
Na10 O66 2.641319 1_555
Na10 O68 2.655603 1_555
Na10 O67 2.673667 1_555
Na11 O64 2.501373 1_555
Na11 O65 2.541460 1_555
Na11 O63 2.586976 1_555
Na11 O71 2.641319 1_555
Na11 O69 2.655603 1_555
Na11 O70 2.673667 1_555
Mg0 O2 2.055522 1_555
Mg0 O37 2.072629 1_545
Mg0 O1 2.092838 1_545
Mg0 O0 2.095189 1_655
Mg0 O38 2.146878 1_655
Mg0 O36 2.226369 1_645
Mg1 O3 2.055522 1_555
Mg1 O40 2.072629 1_545
Mg1 O4 2.092839 1_445
Mg1 O5 2.095189 1_455
Mg1 O39 2.146878 1_555
Mg1 O41 2.226369 1_445
Mg2 O14 2.064843 1_555
Mg2 O13 2.077938 1_555
Mg2 O48 2.078311 1_555
Mg2 O12 2.093981 1_555
Mg2 O50 2.170609 1_555
Mg2 O49 2.209037 1_555
Mg3 O15 2.064843 1_555
Mg3 O16 2.077938 1_555
Mg3 O53 2.078311 1_555
Mg3 O17 2.093981 1_555
Mg3 O51 2.170609 1_555
Mg3 O52 2.209037 1_555
Mg4 O26 2.032166 1_554
Mg4 O25 2.046722 1_554
Mg4 O61 2.076265 1_555
Mg4 O24 2.170568 1_554
Mg4 O60 2.172945 1_555
Mg4 O62 2.214424 1_555
Mg5 O27 2.032166 1_555
Mg5 O28 2.046722 1_555
Mg5 O64 2.076265 1_555
Mg5 O29 2.170568 1_555
Mg5 O65 2.172945 1_555
Mg5 O63 2.214424 1_555
In0 O6 2.090600 1_555
In0 O44 2.136803 1_555
In0 O8 2.138166 1_655
In0 O7 2.148022 1_665
In0 O43 2.194616 1_665
In0 O42 2.215076 1_565
In1 O11 2.090600 1_655
In1 O45 2.136803 1_555
In1 O9 2.138166 1_555
In1 O10 2.148022 1_665
In1 O46 2.194616 1_565
In1 O47 2.215076 1_665
In2 O19 2.034625 1_556
In2 O56 2.120757 1_555
In2 O18 2.148737 1_556
In2 O54 2.191087 1_555
In2 O20 2.205301 1_556
In2 O55 2.250165 1_555
In3 O22 2.034625 1_555
In3 O57 2.120757 1_555
In3 O23 2.148736 1_555
In3 O59 2.191087 1_555
In3 O21 2.205301 1_555
In3 O58 2.250165 1_555
In4 O31 2.057492 1_555
In4 O66 2.134715 1_555
In4 O32 2.150979 1_555
In4 O67 2.168139 1_555
In4 O30 2.182725 1_555
In4 O68 2.256685 1_555
In5 O34 2.057492 1_555
In5 O71 2.134715 1_555
In5 O33 2.150979 1_555
In5 O70 2.168139 1_555
In5 O35 2.182725 1_555
In5 O69 2.256685 1_555
O0 P0 1.542071 1_555
O1 S0 1.469651 1_555
O2 S1 1.458916 1_555
O3 S2 1.458916 1_555
O4 S3 1.469651 1_555
O5 P1 1.542071 1_555
O6 P1 1.575458 1_565
O7 S2 1.490706 1_555
O8 S3 1.490866 1_455
O9 S0 1.490866 1_555
O10 S1 1.490706 1_455
O11 P0 1.575458 1_565
O12 S4 1.466578 1_555
O13 S5 1.471996 1_555
O14 P2 1.534037 1_555
O15 P3 1.534037 1_555
O16 S6 1.471996 1_555
O17 S7 1.466578 1_555
O18 S7 1.503999 1_555
O19 P3 1.549858 1_555
O20 S6 1.498578 1_555
O21 S5 1.498578 1_555
O22 P2 1.549858 1_555
O23 S4 1.503999 1_555
O24 S8 1.471840 1_555
O25 S9 1.460186 1_555
O26 P4 1.540854 1_555
O27 P5 1.540854 1_555
O28 S10 1.460186 1_555
O29 S11 1.471840 1_555
O30 S11 1.502275 1_555
O31 P5 1.568045 1_555
O32 S10 1.489177 1_555
O33 S9 1.489177 1_555
O34 P4 1.568045 1_555
O35 S8 1.502275 1_555
O36 S11 1.493340 1_555
O37 P5 1.530377 1_555
O38 S10 1.490517 1_555
O39 S9 1.490521 1_555
O40 P4 1.530368 1_555
O41 S8 1.493344 1_555
O42 S4 1.512289 1_555
O43 S5 1.488501 1_555
O44 P2 1.588925 1_555
O45 P3 1.588928 1_555
O46 S6 1.488492 1_555
O47 S7 1.512294 1_555
O48 P1 1.532954 1_555
O49 S2 1.490769 1_555
O50 S3 1.489509 1_555
O51 S0 1.489514 1_555
O52 S1 1.490760 1_555
O53 P0 1.532960 1_555
O54 S8 1.487645 1_555
O55 S9 1.509772 1_655
O56 P4 1.589869 1_545
O57 P5 1.589861 1_545
O58 S10 1.509789 1_555
O59 S11 1.487635 1_655
O60 S7 1.469739 1_555
O61 P3 1.555529 1_455
O62 S6 1.491337 1_565
O63 S5 1.491329 1_565
O64 P2 1.555547 1_555
O65 S4 1.469729 1_455
O66 P0 1.590680 1_565
O67 S0 1.492592 1_555
O68 S1 1.511700 1_455
O69 S2 1.511704 1_555
O70 S3 1.492583 1_455
O71 P1 1.590685 1_565
