# generated using pymatgen
data_K2VH2OF5
_symmetry_space_group_name_H-M   'P 1'
_cell_length_a   6.38968685
_cell_length_b   6.38991416
_cell_length_c   8.01443608
_cell_angle_alpha   85.15353028
_cell_angle_beta   85.15232061
_cell_angle_gamma   78.86820360
_symmetry_Int_Tables_number   1
_chemical_formula_structural   K2VH2OF5
_chemical_formula_sum   'K4 V2 H4 O2 F10'
_cell_volume   319.14213085
_cell_formula_units_Z   2
loop_
 _symmetry_equiv_pos_site_id
 _symmetry_equiv_pos_as_xyz
  1  'x, y, z'
loop_
 _atom_site_type_symbol
 _atom_site_label
 _atom_site_symmetry_multiplicity
 _atom_site_fract_x
 _atom_site_fract_y
 _atom_site_fract_z
 _atom_site_occupancy
  K  K0  1  0.30256100  0.29908600  0.03455700  1
  K  K1  1  0.70090900  0.69743300  0.46544900  1
  K  K2  1  0.69743700  0.70091500  0.96544100  1
  K  K3  1  0.29909200  0.30256400  0.53455000  1
  V  V0  1  0.79726800  0.20273300  0.24999700  1
  V  V1  1  0.20274200  0.79726400  0.75000400  1
  H  H0  1  0.09856900  0.84900700  0.15512400  1
  H  H1  1  0.15098700  0.90143800  0.34486500  1
  H  H2  1  0.90143000  0.15099800  0.84487700  1
  H  H3  1  0.84901600  0.09856200  0.65513600  1
  O  O0  1  0.05680700  0.94319300  0.25001300  1
  O  O1  1  0.94318800  0.05680300  0.74997900  1
  F  F0  1  0.45028400  0.54971900  0.75000100  1
  F  F1  1  0.54971700  0.45028300  0.24999700  1
  F  F2  1  0.38464900  0.98667800  0.81041500  1
  F  F3  1  0.01331900  0.61534800  0.68958200  1
  F  F4  1  0.61534700  0.01332200  0.18959100  1
  F  F5  1  0.98668100  0.38465300  0.31042100  1
  F  F6  1  0.27787300  0.86762600  0.51123200  1
  F  F7  1  0.13237000  0.72212700  0.98876900  1
  F  F8  1  0.72212700  0.13237700  0.48876900  1
  F  F9  1  0.86763000  0.27787200  0.01123100  1
loop_
_geom_bond_atom_site_label_1
_geom_bond_atom_site_label_2
_geom_bond_distance
_geom_bond_site_symmetry_2
H0 O0 0.996382 1_555
H1 O0 0.996121 1_555
H2 O1 0.996472 1_555
H3 O1 0.996035 1_555
O0 V0 2.106806 1_465
O1 V1 2.106863 1_645
F0 V1 2.009429 1_555
F0 K2 2.782174 1_555
F0 K3 2.782245 1_555
F0 K1 2.873833 1_555
F0 K0 2.873936 1_556
F1 V0 2.009486 1_555
F1 K0 2.782191 1_555
F1 K1 2.782228 1_555
F1 K3 2.873851 1_555
F1 K2 2.873925 1_554
F2 V1 1.946198 1_555
F2 K2 2.738537 1_555
F2 K0 2.743994 1_566
F2 K3 2.878430 1_565
F3 V1 1.946313 1_555
F3 K3 2.738551 1_555
F3 K1 2.743935 1_455
F3 K2 2.878305 1_455
F4 V0 1.946236 1_555
F4 K0 2.738561 1_555
F4 K2 2.744034 1_544
F4 K1 2.878404 1_545
F5 V0 1.946289 1_555
F5 K1 2.738517 1_555
F5 K3 2.743917 1_655
F5 K0 2.878326 1_655
F6 H1 1.596307 1_555
F6 V1 1.969075 1_555
F6 K1 2.718199 1_555
F6 K3 2.831059 1_565
F7 H0 1.596203 1_556
F7 V1 1.969044 1_555
F7 K0 2.718318 1_556
F7 K2 2.830935 1_455
F8 H3 1.596317 1_555
F8 V0 1.969081 1_555
F8 K3 2.718184 1_555
F8 K1 2.831098 1_545
F9 H2 1.596175 1_554
F9 V0 1.969042 1_555
F9 K2 2.718334 1_554
F9 K0 2.830923 1_655
