# generated using pymatgen
data_MoP2O7
_symmetry_space_group_name_H-M   'P 1'
_cell_length_a   6.51685458
_cell_length_b   6.51685458
_cell_length_c   13.54037319
_cell_angle_alpha   73.84529129
_cell_angle_beta   73.84529129
_cell_angle_gamma   79.77238415
_symmetry_Int_Tables_number   1
_chemical_formula_structural   MoP2O7
_chemical_formula_sum   'Mo4 P8 O28'
_cell_volume   527.40008976
_cell_formula_units_Z   4
loop_
 _symmetry_equiv_pos_site_id
 _symmetry_equiv_pos_as_xyz
  1  'x, y, z'
loop_
 _atom_site_type_symbol
 _atom_site_label
 _atom_site_symmetry_multiplicity
 _atom_site_fract_x
 _atom_site_fract_y
 _atom_site_fract_z
 _atom_site_occupancy
  Mo  Mo0  1  0.40654600  0.87942200  0.35575400  1
  Mo  Mo1  1  0.87942200  0.40654600  0.85575400  1
  Mo  Mo2  1  0.12057800  0.59345400  0.14424600  1
  Mo  Mo3  1  0.59345400  0.12057800  0.64424600  1
  P  P0  1  0.91162400  0.75307300  0.36644200  1
  P  P1  1  0.08837600  0.24692700  0.63355800  1
  P  P2  1  0.75307300  0.91162400  0.86644200  1
  P  P3  1  0.66515300  0.59000800  0.06985200  1
  P  P4  1  0.59000800  0.66515300  0.56985200  1
  P  P5  1  0.33484700  0.40999200  0.93014800  1
  P  P6  1  0.24692700  0.08837600  0.13355800  1
  P  P7  1  0.40999200  0.33484700  0.43014800  1
  O  O0  1  0.81010100  0.64562700  0.12760100  1
  O  O1  1  0.35437300  0.18989900  0.37239900  1
  O  O2  1  0.44554200  0.53741300  0.14234200  1
  O  O3  1  0.41549300  0.98254200  0.19933000  1
  O  O4  1  0.64562700  0.81010100  0.62760100  1
  O  O5  1  0.55445800  0.46258700  0.85765800  1
  O  O6  1  0.58450700  0.01745800  0.80067000  1
  O  O7  1  0.38973400  0.19854700  0.01870000  1
  O  O8  1  0.07681500  0.86981300  0.38256800  1
  O  O9  1  0.53741300  0.44554200  0.64234200  1
  O  O10  1  0.13018700  0.92318500  0.11743200  1
  O  O11  1  0.22126500  0.58896100  0.98721700  1
  O  O12  1  0.01745800  0.58450700  0.30067000  1
  O  O13  1  0.41103900  0.77873500  0.51278300  1
  O  O14  1  0.09395800  0.26709500  0.17595000  1
  O  O15  1  0.18989900  0.35437300  0.87239900  1
  O  O16  1  0.80145300  0.61026600  0.48130000  1
  O  O17  1  0.92318500  0.13018700  0.61743200  1
  O  O18  1  0.73290500  0.90604200  0.32405000  1
  O  O19  1  0.19854700  0.38973400  0.51870000  1
  O  O20  1  0.61026600  0.80145300  0.98130000  1
  O  O21  1  0.90604200  0.73290500  0.82405000  1
  O  O22  1  0.58896100  0.22126500  0.48721700  1
  O  O23  1  0.98254200  0.41549300  0.69933000  1
  O  O24  1  0.77873500  0.41103900  0.01278300  1
  O  O25  1  0.86981300  0.07681500  0.88256800  1
  O  O26  1  0.46258700  0.55445800  0.35765800  1
  O  O27  1  0.26709500  0.09395800  0.67595000  1
loop_
_geom_bond_atom_site_label_1
_geom_bond_atom_site_label_2
_geom_bond_distance
_geom_bond_site_symmetry_2
Mo0 O3 2.023424 1_555
Mo0 O13 2.050301 1_555
Mo0 O1 2.055989 1_565
Mo0 O26 2.078240 1_555
Mo0 O18 2.078299 1_555
Mo0 O8 2.086652 1_555
Mo1 O23 2.023424 1_555
Mo1 O24 2.050301 1_556
Mo1 O15 2.055989 1_655
Mo1 O5 2.078240 1_555
Mo1 O21 2.078299 1_555
Mo1 O25 2.086652 1_555
Mo2 O12 2.023424 1_555
Mo2 O11 2.050301 1_554
Mo2 O0 2.055989 1_455
Mo2 O2 2.078240 1_555
Mo2 O14 2.078299 1_555
Mo2 O10 2.086652 1_555
Mo3 O6 2.023424 1_555
Mo3 O22 2.050301 1_555
Mo3 O4 2.055989 1_545
Mo3 O9 2.078240 1_555
Mo3 O27 2.078299 1_555
Mo3 O17 2.086652 1_555
O0 P3 1.524930 1_555
O1 P7 1.524930 1_555
O2 P3 1.527892 1_555
O3 P6 1.552130 1_565
O4 P4 1.524930 1_555
O5 P5 1.527892 1_555
O6 P2 1.552130 1_545
O7 P5 1.615117 1_554
O7 P6 1.615806 1_555
O8 P0 1.516394 1_455
O9 P4 1.527892 1_555
O10 P6 1.516394 1_565
O11 P5 1.543360 1_555
O12 P0 1.552130 1_455
O13 P4 1.543360 1_555
O14 P6 1.523492 1_555
O15 P5 1.524930 1_555
O16 P4 1.615117 1_555
O16 P0 1.615806 1_555
O17 P1 1.516394 1_655
O18 P0 1.523492 1_555
O19 P7 1.615117 1_555
O19 P1 1.615806 1_555
O20 P3 1.615117 1_556
O20 P2 1.615806 1_555
O21 P2 1.523492 1_555
O22 P7 1.543360 1_555
O23 P1 1.552130 1_655
O24 P3 1.543360 1_555
O25 P2 1.516394 1_545
O26 P7 1.527892 1_555
O27 P1 1.523492 1_555
