# generated using pymatgen
data_Na7Ca2Sc2P5SO24
_symmetry_space_group_name_H-M   'P 1'
_cell_length_a   9.26821322
_cell_length_b   9.24867392
_cell_length_c   22.92717532
_cell_angle_alpha   90.01208088
_cell_angle_beta   90.04947116
_cell_angle_gamma   119.92623773
_symmetry_Int_Tables_number   1
_chemical_formula_structural   Na7Ca2Sc2P5SO24
_chemical_formula_sum   'Na21 Ca6 Sc6 P15 S3 O72'
_cell_volume   1703.25122098
_cell_formula_units_Z   3
loop_
 _symmetry_equiv_pos_site_id
 _symmetry_equiv_pos_as_xyz
  1  'x, y, z'
loop_
 _atom_site_type_symbol
 _atom_site_label
 _atom_site_symmetry_multiplicity
 _atom_site_fract_x
 _atom_site_fract_y
 _atom_site_fract_z
 _atom_site_occupancy
  Na  Na0  1  0.64119556  0.99678796  0.25168007  1
  Na  Na1  1  0.99707354  0.62872251  0.25356123  1
  Na  Na2  1  0.63478815  0.63890875  0.74831110  1
  Na  Na3  1  0.00494193  0.36745843  0.75209146  1
  Na  Na4  1  0.36309163  0.99497333  0.75209834  1
  Na  Na5  1  0.29617174  0.33250159  0.58600362  1
  Na  Na6  1  0.03778577  0.70491032  0.58254946  1
  Na  Na7  1  0.66816093  0.96192131  0.58370709  1
  Na  Na8  1  0.29696914  0.96296164  0.08010868  1
  Na  Na9  1  0.66810040  0.70372127  0.08672242  1
  Na  Na10  1  0.03821826  0.33305270  0.08398396  1
  Na  Na11  1  0.98229423  0.66741549  0.91623728  1
  Na  Na12  1  0.32602580  0.29992797  0.91894870  1
  Na  Na13  1  0.96725138  0.30927460  0.41435557  1
  Na  Na14  1  0.69814661  0.67157039  0.41843862  1
  Na  Na15  1  0.00559699  0.99358578  0.50045835  1
  Na  Na16  1  0.99788376  0.00688024  0.99988086  1
  Na  Na17  1  0.66831225  0.31628989  0.83417267  1
  Na  Na18  1  0.66002809  0.32861381  0.33322281  1
  Na  Na19  1  0.33391604  0.64734394  0.16810718  1
  Na  Na20  1  0.33369069  0.66787416  0.66695663  1
  Ca  Ca0  1  0.99976226  0.99993464  0.64962606  1
  Ca  Ca1  1  0.00114445  0.00454690  0.14963590  1
  Ca  Ca2  1  0.33042237  0.66785817  0.01467178  1
  Ca  Ca3  1  0.33420082  0.67596137  0.51401599  1
  Ca  Ca4  1  0.33226374  0.66417633  0.31971568  1
  Ca  Ca5  1  0.33169469  0.67118826  0.82113532  1
  Sc  Sc0  1  0.99120025  0.99393697  0.34767135  1
  Sc  Sc1  1  0.00199974  0.00777763  0.84647417  1
  Sc  Sc2  1  0.66738971  0.33309710  0.68409483  1
  Sc  Sc3  1  0.66809870  0.33919680  0.18372247  1
  Sc  Sc4  1  0.66699411  0.32147795  0.98385486  1
  Sc  Sc5  1  0.66722520  0.32775874  0.48417338  1
  P  P0  1  0.70262657  0.69914349  0.24865050  1
  P  P1  1  0.99476535  0.29835083  0.24935026  1
  P  P2  1  0.30269012  0.29878958  0.74931305  1
  P  P3  1  0.99516239  0.69931350  0.74977307  1
  P  P4  1  0.70385049  0.00314275  0.74821306  1
  P  P5  1  0.95735346  0.33463689  0.58340869  1
  P  P6  1  0.37992297  0.04620505  0.58432939  1
  P  P7  1  0.66446092  0.61971951  0.58274238  1
  P  P8  1  0.95463492  0.62092905  0.08273977  1
  P  P9  1  0.66517072  0.04331333  0.08561667  1
  P  P10  1  0.38176748  0.33475653  0.08201025  1
  P  P11  1  0.02392477  0.35630300  0.91648490  1
  P  P12  1  0.33065518  0.97782344  0.91618872  1
  P  P13  1  0.64407272  0.97597164  0.41565379  1
  P  P14  1  0.02167668  0.66694425  0.41684211  1
  S  S0  1  0.29947453  0.00491003  0.24976332  1
  S  S1  1  0.64319920  0.66718229  0.91677112  1
  S  S2  1  0.33216376  0.35813071  0.41801029  1
  O  O0  1  0.20976644  0.02254521  0.30039767  1
  O  O1  1  0.81901369  0.79121081  0.30270150  1
  O  O2  1  0.97637590  0.18499955  0.30330498  1
  O  O3  1  0.21170608  0.18459190  0.80330494  1
  O  O4  1  0.97177898  0.78926270  0.80397843  1
  O  O5  1  0.82351147  0.02720088  0.80002749  1
  O  O6  1  0.77301910  0.97435759  0.69160873  1
  O  O7  1  0.19897227  0.22527889  0.69410947  1
  O  O8  1  0.02263302  0.80171125  0.69443894  1
  O  O9  1  0.78154124  0.80070236  0.19318208  1
  O  O10  1  0.01679756  0.22278858  0.19322340  1
  O  O11  1  0.20483335  0.98035292  0.19543403  1
  O  O12  1  0.86731274  0.35044607  0.63848460  1
  O  O13  1  0.48190238  0.13250974  0.64057928  1
  O  O14  1  0.64955248  0.51520796  0.63832141  1
  O  O15  1  0.86582940  0.51554527  0.13821740  1
  O  O16  1  0.64770230  0.12980320  0.14126547  1
  O  O17  1  0.49091673  0.34968742  0.13564310  1
  O  O18  1  0.46777267  0.31986662  0.02611222  1
  O  O19  1  0.84841701  0.53205988  0.02804781  1
  O  O20  1  0.68119744  0.15290304  0.03220884  1
  O  O21  1  0.47470682  0.15597949  0.53132853  1
  O  O22  1  0.67865427  0.52905353  0.52783075  1
  O  O23  1  0.85197407  0.31983351  0.52849779  1
  O  O24  1  0.56692476  0.69231199  0.96980029  1
  O  O25  1  0.13633574  0.43147187  0.97091032  1
  O  O26  1  0.29743343  0.86758389  0.97081344  1
  O  O27  1  0.57219596  0.86433923  0.46981732  1
  O  O28  1  0.30029467  0.42940377  0.47116769  1
  O  O29  1  0.12329659  0.69281407  0.47242184  1
  O  O30  1  0.09770019  0.63012251  0.36294208  1
  O  O31  1  0.54058038  0.89902876  0.36040392  1
  O  O32  1  0.36458829  0.47024364  0.36755379  1
  O  O33  1  0.10021580  0.46673766  0.86225293  1
  O  O34  1  0.36018359  0.90321232  0.86119583  1
  O  O35  1  0.53840583  0.63913828  0.86497573  1
  O  O36  1  0.99823647  0.82246803  0.40806784  1
  O  O37  1  0.82453649  0.99702025  0.40816160  1
  O  O38  1  0.18011592  0.19263426  0.40835665  1
  O  O39  1  0.00997245  0.18181306  0.90787312  1
  O  O40  1  0.16799165  0.99209247  0.90921907  1
  O  O41  1  0.81381191  0.81448017  0.91007241  1
  O  O42  1  0.97245374  0.17553426  0.58360832  1
  O  O43  1  0.20535820  0.02975842  0.58402178  1
  O  O44  1  0.82332598  0.79404639  0.58341694  1
  O  O45  1  0.97285717  0.79682033  0.08439451  1
  O  O46  1  0.82390824  0.02746455  0.08483803  1
  O  O47  1  0.20718380  0.17565304  0.08395982  1
  O  O48  1  0.69162087  0.16686600  0.74624662  1
  O  O49  1  0.47666654  0.30850741  0.74630985  1
  O  O50  1  0.83201767  0.52362002  0.74640650  1
  O  O51  1  0.69527711  0.52625073  0.24625238  1
  O  O52  1  0.82601338  0.30363967  0.24763925  1
  O  O53  1  0.46964612  0.15448079  0.24704333  1
  O  O54  1  0.65966751  0.51414493  0.92264286  1
  O  O55  1  0.85184306  0.34684773  0.92462179  1
  O  O56  1  0.48185541  0.15855890  0.92375315  1
  O  O57  1  0.67059400  0.15539737  0.42360421  1
  O  O58  1  0.48442625  0.34360695  0.42432384  1
  O  O59  1  0.84148807  0.50871270  0.42294577  1
  O  O60  1  0.36566201  0.49413436  0.08146181  1
  O  O61  1  0.12889308  0.63541154  0.08175048  1
  O  O62  1  0.50711355  0.86828039  0.08225612  1
  O  O63  1  0.36496271  0.87157776  0.58250230  1
  O  O64  1  0.50513137  0.63492569  0.58144083  1
  O  O65  1  0.13194417  0.49308223  0.58169877  1
  O  O66  1  0.31742187  0.85350526  0.25588434  1
  O  O67  1  0.53217749  0.68775182  0.25572392  1
  O  O68  1  0.13992689  0.47918219  0.25506224  1
  O  O69  1  0.32895257  0.47659709  0.75673476  1
  O  O70  1  0.14800923  0.67451121  0.75549290  1
  O  O71  1  0.52801725  0.84990889  0.75612464  1
loop_
_geom_bond_atom_site_label_1
_geom_bond_atom_site_label_2
_geom_bond_distance
_geom_bond_site_symmetry_2
Na0 O52 2.479269 1_565
Na0 O67 2.513460 1_555
Na0 O66 2.608263 1_555
Na0 O53 2.641933 1_565
Na0 O31 2.657911 1_555
Na0 O16 2.802336 1_565
Na0 O2 2.945978 1_565
Na0 O9 3.022473 1_555
Na1 O68 2.343925 1_655
Na1 O51 2.470677 1_555
Na1 O52 2.610543 1_555
Na1 O66 2.642175 1_655
Na1 O30 2.672619 1_655
Na1 O15 2.879510 1_555
Na1 O1 2.954363 1_555
Na2 O69 2.465948 1_555
Na2 O50 2.534790 1_555
Na2 O71 2.597416 1_555
Na2 O49 2.649364 1_555
Na2 O14 2.800435 1_555
Na2 O35 2.821080 1_555
Na3 O70 2.464044 1_555
Na3 O48 2.552724 1_455
Na3 O50 2.642142 1_455
Na3 O69 2.650128 1_555
Na3 O33 2.681067 1_555
Na3 O12 2.868810 1_455
Na3 O5 2.943365 1_455
Na3 O7 3.015484 1_555
Na4 O71 2.488194 1_555
Na4 O49 2.547381 1_565
Na4 O70 2.620981 1_555
Na4 O34 2.637355 1_555
Na4 O48 2.643406 1_565
Na4 O13 2.824284 1_565
Na5 O64 2.486087 1_555
Na5 O43 2.489738 1_555
Na5 O42 2.601163 1_455
Na5 O65 2.605288 1_555
Na5 O7 2.655515 1_555
Na5 O28 2.775542 1_555
Na6 O44 2.503161 1_455
Na6 O65 2.511181 1_555
Na6 O43 2.604589 1_565
Na6 O63 2.628196 1_555
Na6 O29 2.666013 1_555
Na6 O8 2.743569 1_555
Na7 O63 2.500540 1_555
Na7 O42 2.509504 1_565
Na7 O44 2.589725 1_555
Na7 O64 2.621522 1_555
Na7 O6 2.638559 1_555
Na7 O27 2.760051 1_555
Na8 O47 2.490610 1_565
Na8 O62 2.502837 1_555
Na8 O45 2.605659 1_455
Na8 O61 2.626198 1_555
Na8 O26 2.657106 1_554
Na8 O11 2.808384 1_555
Na9 O60 2.491403 1_555
Na9 O45 2.509178 1_555
Na9 O46 2.595842 1_565
Na9 O62 2.611256 1_555
Na9 O9 2.630826 1_555
Na9 O24 2.823718 1_554
Na10 O61 2.486790 1_555
Na10 O46 2.516424 1_455
Na10 O47 2.616519 1_555
Na10 O60 2.630993 1_555
Na10 O10 2.674342 1_555
Na10 O25 2.748729 1_554
Na11 O41 2.535203 1_555
Na11 O55 2.590939 1_555
Na11 O54 2.596870 1_555
Na11 O40 2.617079 1_655
Na11 O4 2.830930 1_555
Na11 O26 2.849821 1_655
Na11 O19 2.852240 1_556
Na11 O33 2.862946 1_655
Na12 O56 2.385673 1_555
Na12 O40 2.477757 1_545
Na12 O39 2.577624 1_555
Na12 O54 2.716834 1_555
Na12 O18 2.747557 1_556
Na12 O25 2.850862 1_555
Na12 O3 2.855974 1_555
Na12 O35 3.015367 1_555
Na13 O57 2.393098 1_555
Na13 O37 2.509589 1_545
Na13 O59 2.635371 1_555
Na13 O38 2.683062 1_655
Na13 O2 2.811912 1_555
Na13 O30 2.842720 1_655
Na13 O23 2.847515 1_555
Na13 O28 3.004909 1_655
Na14 O36 2.422439 1_555
Na14 O59 2.457791 1_555
Na14 O37 2.640155 1_555
Na14 O58 2.673587 1_555
Na14 O22 2.797305 1_555
Na14 O27 2.829647 1_555
Na14 O1 2.879247 1_555
Na14 O32 2.938496 1_555
Na15 O43 2.566296 1_565
Na15 O44 2.602615 1_455
Na15 O36 2.624295 1_455
Na15 O42 2.660051 1_465
Na15 O37 2.709618 1_455
Na15 O38 2.738754 1_565
Na16 O46 2.596498 1_556
Na16 O47 2.624222 1_656
Na16 O39 2.626979 1_655
Na16 O40 2.654374 1_645
Na16 O45 2.671225 1_546
Na16 O41 2.698151 1_545
Na17 O48 2.513526 1_555
Na17 O55 2.605320 1_555
Na17 O56 2.612421 1_555
Na17 O49 2.661636 1_555
Na17 O50 2.670592 1_555
Na17 O54 2.759390 1_555
Na18 O52 2.574827 1_555
Na18 O53 2.601617 1_555
Na18 O51 2.613559 1_555
Na18 O57 2.650966 1_555
Na18 O59 2.651806 1_555
Na18 O58 2.694733 1_555
Na19 O60 2.540973 1_555
Na19 O68 2.616003 1_555
Na19 O67 2.619083 1_555
Na19 O61 2.706874 1_555
Na19 O62 2.713081 1_555
Na19 O66 2.828211 1_555
Na20 O63 2.615406 1_555
Na20 O65 2.628102 1_555
Na20 O64 2.636277 1_555
Na20 O70 2.682761 1_555
Na20 O71 2.687831 1_555
Na20 O69 2.700466 1_555
Ca0 O8 2.202206 1_655
Ca0 O6 2.215028 1_555
Ca0 O7 2.224663 1_665
Ca0 O42 2.324465 1_565
Ca0 O43 2.334549 1_665
Ca0 O44 2.343478 1_555
Ca1 O10 2.191021 1_555
Ca1 O9 2.206660 1_445
Ca1 O11 2.265984 1_545
Ca1 O46 2.300802 1_455
Ca1 O47 2.325731 1_555
Ca1 O45 2.343650 1_445
Ca2 O26 2.254001 1_554
Ca2 O25 2.257037 1_554
Ca2 O61 2.321616 1_555
Ca2 O24 2.328852 1_554
Ca2 O62 2.341878 1_555
Ca2 O60 2.357303 1_555
Ca3 O29 2.248427 1_555
Ca3 O27 2.257866 1_555
Ca3 O63 2.302900 1_555
Ca3 O28 2.355267 1_555
Ca3 O65 2.371785 1_555
Ca3 O64 2.374744 1_555
Ca4 O32 2.246374 1_555
Ca4 O31 2.264410 1_555
Ca4 O30 2.264571 1_555
Ca4 O67 2.287976 1_555
Ca4 O68 2.292063 1_555
Ca4 O66 2.338351 1_555
Ca5 O34 2.225234 1_555
Ca5 O33 2.241314 1_555
Ca5 O70 2.282990 1_555
Ca5 O71 2.295522 1_555
Ca5 O35 2.309122 1_555
Ca5 O69 2.317952 1_555
O0 S0 1.484073 1_555
O0 Sc0 2.194858 1_445
O1 P0 1.582763 1_555
O1 Sc0 2.033738 1_555
O2 P1 1.575106 1_555
O2 Sc0 2.102114 1_545
O3 P2 1.572468 1_555
O3 Sc1 2.064974 1_555
O4 P3 1.569540 1_555
O4 Sc1 2.132126 1_665
O5 P4 1.562731 1_555
O5 Sc1 2.048514 1_655
O6 P4 1.528938 1_565
O7 P2 1.527623 1_555
O8 P3 1.526985 1_455
O9 P0 1.533349 1_555
O10 P1 1.525937 1_455
O11 S0 1.473691 1_565
O12 P5 1.560700 1_555
O12 Sc2 2.063826 1_555
O13 P6 1.561531 1_555
O13 Sc2 2.050986 1_555
O14 P7 1.563561 1_555
O14 Sc2 2.060041 1_555
O15 P8 1.564339 1_555
O15 Sc3 2.031942 1_555
O16 P9 1.556620 1_555
O16 Sc3 2.089823 1_555
O17 P10 1.553344 1_555
O17 Sc3 2.019187 1_555
O18 P10 1.551783 1_555
O18 Sc4 2.079377 1_554
O19 P8 1.551496 1_555
O19 Sc4 2.091842 1_554
O20 P9 1.548988 1_555
O20 Sc4 1.970381 1_554
O21 P6 1.546470 1_555
O21 Sc5 2.013021 1_555
O22 P7 1.554142 1_555
O22 Sc5 2.069138 1_555
O23 P5 1.556274 1_555
O23 Sc5 2.022944 1_555
O24 S1 1.482314 1_555
O25 P11 1.549363 1_555
O26 P12 1.546216 1_555
O27 P13 1.538689 1_555
O28 S2 1.483800 1_555
O29 P14 1.530053 1_555
O30 P14 1.542830 1_555
O31 P13 1.532156 1_555
O32 S2 1.481183 1_555
O33 P11 1.539691 1_555
O34 P12 1.526246 1_555
O35 S1 1.472186 1_555
O36 P14 1.571135 1_655
O36 Sc0 2.130872 1_555
O37 P13 1.593910 1_555
O37 Sc0 2.087553 1_555
O38 S2 1.491586 1_555
O38 Sc0 2.272197 1_445
O39 P11 1.565778 1_555
O39 Sc1 2.111418 1_555
O40 P12 1.585533 1_555
O40 Sc1 2.162471 1_565
O41 S1 1.493664 1_555
O41 Sc1 2.293165 1_665
O42 P5 1.546081 1_555
O43 P6 1.547653 1_555
O44 P7 1.548867 1_555
O45 P8 1.549887 1_555
O46 P9 1.549673 1_555
O47 P10 1.552400 1_555
O48 P4 1.574491 1_555
O48 Sc2 2.188490 1_555
O49 P2 1.571118 1_555
O49 Sc2 2.194173 1_555
O50 P3 1.575093 1_555
O50 Sc2 2.187826 1_555
O51 P0 1.567110 1_555
O51 Sc3 2.162218 1_555
O52 P1 1.589449 1_555
O52 Sc3 2.207817 1_555
O53 S0 1.492754 1_555
O53 Sc3 2.297751 1_555
O54 S1 1.503447 1_555
O54 Sc4 2.295873 1_555
O55 P11 1.564444 1_655
O55 Sc4 2.106545 1_555
O56 P12 1.565321 1_545
O56 Sc4 2.128103 1_555
O57 P13 1.562122 1_545
O57 Sc5 2.125890 1_555
O58 S2 1.489724 1_555
O58 Sc5 2.240221 1_555
O59 P14 1.584985 1_655
O59 Sc5 2.165169 1_555
O60 P10 1.553948 1_555
O61 P8 1.552772 1_455
O62 P9 1.551159 1_565
O63 P6 1.551115 1_565
O64 P7 1.551919 1_555
O65 P5 1.549687 1_455
O66 S0 1.496874 1_565
O67 P0 1.538642 1_555
O68 P1 1.542348 1_455
O69 P2 1.546917 1_555
O70 P3 1.549369 1_455
O71 P4 1.547055 1_565
