# generated using pymatgen
data_Li4Fe5(P3O11)2
_symmetry_space_group_name_H-M   'P 1'
_cell_length_a   6.56691600
_cell_length_b   10.94563400
_cell_length_c   12.49726489
_cell_angle_alpha   76.17499092
_cell_angle_beta   90.00000000
_cell_angle_gamma   90.00000000
_symmetry_Int_Tables_number   1
_chemical_formula_structural   Li4Fe5(P3O11)2
_chemical_formula_sum   'Li8 Fe10 P12 O44'
_cell_volume   872.26819490
_cell_formula_units_Z   2
loop_
 _symmetry_equiv_pos_site_id
 _symmetry_equiv_pos_as_xyz
  1  'x, y, z'
loop_
 _atom_site_type_symbol
 _atom_site_label
 _atom_site_symmetry_multiplicity
 _atom_site_fract_x
 _atom_site_fract_y
 _atom_site_fract_z
 _atom_site_occupancy
  Li  Li0  1  0.86476200  0.56886500  0.81308200  1
  Li  Li1  1  0.13523800  0.43113500  0.18691800  1
  Li  Li2  1  0.52497200  0.11327200  0.33917500  1
  Li  Li3  1  0.36476200  0.93113500  0.18691800  1
  Li  Li4  1  0.97502800  0.61327200  0.33917500  1
  Li  Li5  1  0.02497200  0.38672800  0.66082500  1
  Li  Li6  1  0.63523800  0.06886500  0.81308200  1
  Li  Li7  1  0.47502800  0.88672800  0.66082500  1
  Fe  Fe0  1  0.77074500  0.21768500  0.14093600  1
  Fe  Fe1  1  0.72925500  0.71768500  0.14093600  1
  Fe  Fe2  1  0.97758000  0.19523000  0.33176800  1
  Fe  Fe3  1  0.52242000  0.69523000  0.33176800  1
  Fe  Fe4  1  0.47758000  0.30477000  0.66823200  1
  Fe  Fe5  1  0.02242000  0.80477000  0.66823200  1
  Fe  Fe6  1  0.27074500  0.28231500  0.85906400  1
  Fe  Fe7  1  0.00000000  0.00000000  0.00000000  1
  Fe  Fe8  1  0.22925500  0.78231500  0.85906400  1
  Fe  Fe9  1  0.50000000  0.50000000  0.00000000  1
  P  P0  1  0.39970300  0.56918400  0.73581500  1
  P  P1  1  0.10029700  0.06918400  0.73581500  1
  P  P2  1  0.72529200  0.58284300  0.58046700  1
  P  P3  1  0.77766900  0.27853300  0.91160300  1
  P  P4  1  0.22529200  0.91715700  0.41953300  1
  P  P5  1  0.77470800  0.08284300  0.58046700  1
  P  P6  1  0.27470800  0.41715700  0.41953300  1
  P  P7  1  0.89970300  0.93081600  0.26418500  1
  P  P8  1  0.60029700  0.43081600  0.26418500  1
  P  P9  1  0.22233100  0.72146700  0.08839700  1
  P  P10  1  0.72233100  0.77853300  0.91160300  1
  P  P11  1  0.27766900  0.22146700  0.08839700  1
  O  O0  1  0.20474200  0.94584200  0.72656700  1
  O  O1  1  0.40504100  0.74558900  0.16108000  1
  O  O2  1  0.43474500  0.45223400  0.17659200  1
  O  O3  1  0.79525800  0.05415800  0.27343300  1
  O  O4  1  0.09495900  0.24558900  0.16108000  1
  O  O5  1  0.45979900  0.17069500  0.16477800  1
  O  O6  1  0.18518300  0.84999500  0.00218200  1
  O  O7  1  0.26505100  0.63133900  0.01134900  1
  O  O8  1  0.31481700  0.34999500  0.00218200  1
  O  O9  1  0.23494900  0.13133900  0.01134900  1
  O  O10  1  0.76505100  0.86866100  0.98865100  1
  O  O11  1  0.68518300  0.65000500  0.99781800  1
  O  O12  1  0.73494900  0.36866100  0.98865100  1
  O  O13  1  0.81481700  0.15000500  0.99781800  1
  O  O14  1  0.54020100  0.82930500  0.83522200  1
  O  O15  1  0.90504100  0.75441100  0.83892000  1
  O  O16  1  0.56525500  0.54776600  0.82340800  1
  O  O17  1  0.04020100  0.67069500  0.16477800  1
  O  O18  1  0.95979900  0.32930500  0.83522200  1
  O  O19  1  0.59495900  0.25441100  0.83892000  1
  O  O20  1  0.24007300  0.66522800  0.75206600  1
  O  O21  1  0.93474500  0.04776600  0.82340800  1
  O  O22  1  0.29525800  0.44584200  0.72656700  1
  O  O23  1  0.77119600  0.93777300  0.61322200  1
  O  O24  1  0.25992700  0.16522800  0.75206600  1
  O  O25  1  0.88635600  0.63500000  0.64696600  1
  O  O26  1  0.50301400  0.62849700  0.61781800  1
  O  O27  1  0.23553800  0.85978300  0.54315400  1
  O  O28  1  0.72880400  0.43777300  0.61322200  1
  O  O29  1  0.61364400  0.13500000  0.64696600  1
  O  O30  1  0.99698600  0.12849700  0.61781800  1
  O  O31  1  0.26446200  0.35978300  0.54315400  1
  O  O32  1  0.73553800  0.64021700  0.45684600  1
  O  O33  1  0.00301400  0.87150300  0.38218200  1
  O  O34  1  0.38635600  0.86500000  0.35303400  1
  O  O35  1  0.27119600  0.56222700  0.38677800  1
  O  O36  1  0.76446200  0.14021700  0.45684600  1
  O  O37  1  0.49698600  0.37150300  0.38218200  1
  O  O38  1  0.75992700  0.33477200  0.24793400  1
  O  O39  1  0.74007300  0.83477200  0.24793400  1
  O  O40  1  0.22880400  0.06222700  0.38677800  1
  O  O41  1  0.70474200  0.55415800  0.27343300  1
  O  O42  1  0.06525500  0.95223400  0.17659200  1
  O  O43  1  0.11364400  0.36500000  0.35303400  1
loop_
_geom_bond_atom_site_label_1
_geom_bond_atom_site_label_2
_geom_bond_distance
_geom_bond_site_symmetry_2
Li0 O16 1.980958 1_555
Li0 O25 2.033636 1_555
Li0 O15 2.147621 1_555
Li1 O2 1.980958 1_555
Li1 O43 2.033636 1_555
Li1 O4 2.147621 1_555
Li2 O40 2.071209 1_555
Li2 O3 2.120890 1_555
Li2 O5 2.161874 1_555
Li2 O36 2.220415 1_555
Li3 O42 1.980958 1_555
Li3 O34 2.033636 1_555
Li3 O1 2.147621 1_555
Li4 O35 2.071209 1_655
Li4 O41 2.120890 1_555
Li4 O17 2.161874 1_655
Li4 O32 2.220415 1_555
Li5 O28 2.071209 1_455
Li5 O22 2.120890 1_555
Li5 O18 2.161874 1_455
Li5 O31 2.220415 1_555
Li6 O21 1.980958 1_555
Li6 O29 2.033636 1_555
Li6 O19 2.147621 1_555
Li7 O23 2.071209 1_555
Li7 O0 2.120890 1_555
Li7 O14 2.161874 1_555
Li7 O27 2.220415 1_555
Fe0 O38 2.062666 1_555
Fe0 O5 2.109423 1_555
Fe0 O13 2.113009 1_554
Fe0 O3 2.134260 1_555
Fe0 O4 2.174032 1_655
Fe0 O12 2.214730 1_554
Fe1 O39 2.062666 1_555
Fe1 O17 2.109423 1_655
Fe1 O11 2.113009 1_554
Fe1 O41 2.134260 1_555
Fe1 O1 2.174032 1_555
Fe1 O10 2.214730 1_554
Fe2 O36 2.077214 1_555
Fe2 O43 2.134969 1_655
Fe2 O38 2.169953 1_555
Fe2 O40 2.198955 1_655
Fe2 O4 2.210501 1_655
Fe2 O3 2.210724 1_555
Fe3 O32 2.077214 1_555
Fe3 O34 2.134969 1_555
Fe3 O39 2.169953 1_555
Fe3 O35 2.198955 1_555
Fe3 O1 2.210501 1_555
Fe3 O41 2.210724 1_555
Fe4 O31 2.077214 1_555
Fe4 O29 2.134969 1_555
Fe4 O24 2.169953 1_555
Fe4 O28 2.198955 1_555
Fe4 O19 2.210501 1_555
Fe4 O22 2.210724 1_555
Fe5 O27 2.077214 1_555
Fe5 O25 2.134969 1_455
Fe5 O20 2.169953 1_555
Fe5 O23 2.198955 1_455
Fe5 O15 2.210501 1_455
Fe5 O0 2.210724 1_555
Fe6 O24 2.062666 1_555
Fe6 O18 2.109423 1_455
Fe6 O8 2.113009 1_556
Fe6 O22 2.134260 1_555
Fe6 O19 2.174032 1_555
Fe6 O9 2.214730 1_556
Fe7 O13 2.038145 1_454
Fe7 O6 2.038145 1_545
Fe7 O9 2.136523 1_555
Fe7 O10 2.136523 1_444
Fe7 O42 2.185413 1_545
Fe7 O21 2.185413 1_454
Fe8 O20 2.062666 1_555
Fe8 O14 2.109423 1_555
Fe8 O6 2.113009 1_556
Fe8 O0 2.134260 1_555
Fe8 O15 2.174032 1_455
Fe8 O7 2.214730 1_556
Fe9 O11 2.038145 1_554
Fe9 O8 2.038145 1_555
Fe9 O7 2.136523 1_555
Fe9 O12 2.136523 1_554
Fe9 O2 2.185413 1_555
Fe9 O16 2.185413 1_554
O0 P1 1.543053 1_565
O1 P9 1.564937 1_555
O2 P8 1.520708 1_555
O3 P7 1.543053 1_545
O4 P11 1.564937 1_555
O5 P11 1.548219 1_555
O6 P9 1.573259 1_555
O7 P9 1.559816 1_555
O8 P11 1.573259 1_555
O9 P11 1.559816 1_555
O10 P10 1.559816 1_555
O11 P10 1.573259 1_555
O12 P3 1.559816 1_555
O13 P3 1.573259 1_555
O14 P10 1.548219 1_555
O15 P10 1.564937 1_555
O16 P0 1.520708 1_555
O17 P9 1.548219 1_555
O18 P3 1.548219 1_555
O19 P3 1.564937 1_555
O20 P0 1.532097 1_555
O21 P1 1.520708 1_655
O22 P0 1.543053 1_555
O23 P5 1.542345 1_565
O24 P1 1.532097 1_555
O25 P2 1.536890 1_555
O26 P0 1.612074 1_555
O26 P2 1.646131 1_555
O27 P4 1.523818 1_555
O28 P2 1.542345 1_555
O29 P5 1.536890 1_555
O30 P1 1.612074 1_655
O30 P5 1.646131 1_555
O31 P6 1.523818 1_555
O32 P2 1.523818 1_555
O33 P7 1.612074 1_455
O33 P4 1.646131 1_555
O34 P4 1.536890 1_555
O35 P6 1.542345 1_555
O36 P5 1.523818 1_555
O37 P8 1.612074 1_555
O37 P6 1.646131 1_555
O38 P8 1.532097 1_555
O39 P7 1.532097 1_555
O40 P4 1.542345 1_545
O41 P8 1.543053 1_555
O42 P7 1.520708 1_455
O43 P6 1.536890 1_555
