# generated using pymatgen
data_LiSbP2O7
_symmetry_space_group_name_H-M   'P 1'
_cell_length_a   6.80390300
_cell_length_b   6.81753345
_cell_length_c   6.85584570
_cell_angle_alpha   79.99194422
_cell_angle_beta   65.81917609
_cell_angle_gamma   83.92193141
_symmetry_Int_Tables_number   1
_chemical_formula_structural   LiSbP2O7
_chemical_formula_sum   'Li2 Sb2 P4 O14'
_cell_volume   285.48302132
_cell_formula_units_Z   2
loop_
 _symmetry_equiv_pos_site_id
 _symmetry_equiv_pos_as_xyz
  1  'x, y, z'
loop_
 _atom_site_type_symbol
 _atom_site_label
 _atom_site_symmetry_multiplicity
 _atom_site_fract_x
 _atom_site_fract_y
 _atom_site_fract_z
 _atom_site_occupancy
  Li  Li0  1  0.60907500  0.18572400  0.92515300  1
  Li  Li1  1  0.39092500  0.81427600  0.07484700  1
  Sb  Sb0  1  0.89005500  0.29859800  0.25767900  1
  Sb  Sb1  1  0.10994500  0.70140200  0.74232100  1
  P  P0  1  0.22115500  0.16189000  0.77810800  1
  P  P1  1  0.34115900  0.38753700  0.31641300  1
  P  P2  1  0.65884100  0.61246300  0.68358700  1
  P  P3  1  0.77884500  0.83811000  0.22189200  1
  O  O0  1  0.09003500  0.01121100  0.73863200  1
  O  O1  1  0.90996500  0.98878900  0.26136800  1
  O  O2  1  0.37892400  0.07127700  0.87223400  1
  O  O3  1  0.18861700  0.25507200  0.28245500  1
  O  O4  1  0.35106900  0.29090500  0.55054800  1
  O  O5  1  0.05574800  0.31812600  0.91338000  1
  O  O6  1  0.57271300  0.35500300  0.15629600  1
  O  O7  1  0.73988500  0.39806000  0.66434900  1
  O  O8  1  0.26011500  0.60194000  0.33565100  1
  O  O9  1  0.42728700  0.64499700  0.84370400  1
  O  O10  1  0.94425200  0.68187400  0.08662000  1
  O  O11  1  0.64893100  0.70909500  0.44945200  1
  O  O12  1  0.81138300  0.74492800  0.71754500  1
  O  O13  1  0.62107600  0.92872300  0.12776600  1
loop_
_geom_bond_atom_site_label_1
_geom_bond_atom_site_label_2
_geom_bond_distance
_geom_bond_site_symmetry_2
Li0 O2 2.003769 1_555
Li0 O7 2.038194 1_555
Li0 O6 2.039188 1_556
Li0 O13 2.054947 1_546
Li1 O13 2.003769 1_555
Li1 O8 2.038194 1_555
Li1 O9 2.039188 1_554
Li1 O2 2.054947 1_564
O0 P0 1.553353 1_555
O0 Sb1 2.098510 1_545
O1 P3 1.553353 1_555
O1 Sb0 2.098510 1_565
O2 P0 1.496276 1_555
O3 P1 1.554502 1_555
O3 Sb0 2.093071 1_455
O4 P0 1.595890 1_555
O4 P1 1.651335 1_555
O5 P0 1.579749 1_555
O5 Sb0 2.145446 1_456
O5 Sb1 2.669034 1_555
O6 P1 1.526476 1_555
O6 Sb0 2.500746 1_555
O7 P2 1.514847 1_555
O7 Sb0 2.730149 1_555
O8 P1 1.514847 1_555
O8 Sb1 2.730149 1_555
O9 P2 1.526476 1_555
O9 Sb1 2.500746 1_555
O10 P3 1.579749 1_555
O10 Sb1 2.145446 1_654
O10 Sb0 2.669034 1_555
O11 P3 1.595890 1_555
O11 P2 1.651335 1_555
O12 P2 1.554502 1_555
O12 Sb1 2.093071 1_655
O13 P3 1.496276 1_555
