# generated using pymatgen
data_MgMn2(SbO3)4
_symmetry_space_group_name_H-M   'P 1'
_cell_length_a   9.34748813
_cell_length_b   6.18367790
_cell_length_c   6.17037408
_cell_angle_alpha   84.26799499
_cell_angle_beta   58.74252398
_cell_angle_gamma   59.84742718
_symmetry_Int_Tables_number   1
_chemical_formula_structural   MgMn2(SbO3)4
_chemical_formula_sum   'Mg1 Mn2 Sb4 O12'
_cell_volume   257.32316017
_cell_formula_units_Z   1
loop_
 _symmetry_equiv_pos_site_id
 _symmetry_equiv_pos_as_xyz
  1  'x, y, z'
loop_
 _atom_site_type_symbol
 _atom_site_label
 _atom_site_symmetry_multiplicity
 _atom_site_fract_x
 _atom_site_fract_y
 _atom_site_fract_z
 _atom_site_occupancy
  Mg  Mg0  1  -0.00312682  0.50107167  0.98879231  1
  Mn  Mn0  1  0.16472326  0.59218647  0.41304625  1
  Mn  Mn1  1  0.49557624  0.43212636  0.54747062  1
  Sb  Sb0  1  -0.00156395  0.99227713  0.00233441  1
  Sb  Sb1  1  0.33695596  0.00424491  0.98393124  1
  Sb  Sb2  1  0.64499005  0.01661671  0.01874958  1
  Sb  Sb3  1  0.83312316  0.42504991  0.57957582  1
  O  O0  1  0.86907359  0.66036564  0.76111097  1
  O  O1  1  0.18385974  0.12370960  0.80306145  1
  O  O2  1  0.14201973  0.88167852  0.19399456  1
  O  O3  1  0.17629164  0.65422305  0.75956207  1
  O  O4  1  0.45897995  0.33660185  0.27468905  1
  O  O5  1  0.46677733  0.88043244  0.18082971  1
  O  O6  1  0.52799945  0.13295410  0.79361522  1
  O  O7  1  0.80937269  0.33699169  0.24272897  1
  O  O8  1  0.53182057  0.66925551  0.72460363  1
  O  O9  1  0.80315776  0.87293688  0.19670401  1
  O  O10  1  0.84974977  0.12200580  0.81238982  1
  O  O11  1  0.12688687  0.36527176  0.21239331  1
loop_
_geom_bond_atom_site_label_1
_geom_bond_atom_site_label_2
_geom_bond_distance
_geom_bond_site_symmetry_2
Mg0 O1 2.042444 1_555
Mg0 O9 2.051301 1_456
Mg0 O11 2.137548 1_556
Mg0 O3 2.139274 1_555
Mg0 O0 2.157346 1_455
Mg0 O7 2.274942 1_456
Mn0 O4 2.063422 1_555
Mn0 O2 2.123488 1_555
Mn0 O11 2.219654 1_555
Mn0 O3 2.275064 1_555
Mn0 O0 2.297517 1_455
Mn1 O4 2.073188 1_555
Mn1 O8 2.159396 1_555
Mn1 O3 2.166583 1_555
Mn1 O6 2.274696 1_555
Mn1 O7 2.291113 1_555
O0 Sb2 2.091871 1_566
O0 Sb3 2.166209 1_555
O1 Sb0 2.044613 1_546
O1 Sb1 2.066377 1_555
O2 Sb0 2.056979 1_555
O2 Sb1 2.077233 1_564
O3 Sb0 1.981776 1_556
O4 Sb2 1.936680 1_555
O5 Sb1 1.986375 1_564
O5 Sb2 1.999133 1_565
O6 Sb2 2.056638 1_556
O6 Sb1 2.065514 1_555
O7 Sb0 1.998472 1_645
O7 Sb3 2.343548 1_555
O8 Sb1 2.004020 1_565
O8 Sb3 2.096461 1_555
O9 Sb0 2.054140 1_655
O9 Sb2 2.085953 1_565
O10 Sb2 2.065806 1_556
O10 Sb0 2.081208 1_646
O10 Sb3 2.236251 1_555
O11 Sb1 2.044268 1_554
O11 Sb3 2.345485 1_455
