# generated using pymatgen
data_MgBi4(WO6)2
_symmetry_space_group_name_H-M   'P 1'
_cell_length_a   5.55666232
_cell_length_b   5.60106403
_cell_length_c   9.70857065
_cell_angle_alpha   107.51478208
_cell_angle_beta   85.56408691
_cell_angle_gamma   90.16506517
_symmetry_Int_Tables_number   1
_chemical_formula_structural   MgBi4(WO6)2
_chemical_formula_sum   'Mg1 Bi4 W2 O12'
_cell_volume   287.22428155
_cell_formula_units_Z   1
loop_
 _symmetry_equiv_pos_site_id
 _symmetry_equiv_pos_as_xyz
  1  'x, y, z'
loop_
 _atom_site_type_symbol
 _atom_site_label
 _atom_site_symmetry_multiplicity
 _atom_site_fract_x
 _atom_site_fract_y
 _atom_site_fract_z
 _atom_site_occupancy
  Mg  Mg0  1  0.02128994  0.76175114  0.55001644  1
  Bi  Bi0  1  0.07462517  0.30139553  0.69608179  1
  Bi  Bi1  1  0.89564411  0.55113097  0.24416946  1
  Bi  Bi2  1  0.55958122  0.14914798  0.40081141  1
  Bi  Bi3  1  0.49115420  0.76822996  0.67722391  1
  W  W0  1  0.47835142  0.53079555  0.99903363  1
  W  W1  1  0.97524198  0.01426934  0.99171428  1
  O  O0  1  0.54029843  0.65529602  0.21548117  1
  O  O1  1  0.43812867  0.43416341  0.78162921  1
  O  O2  1  0.87560438  0.15653525  0.21059235  1
  O  O3  1  0.05760149  0.90683581  0.77126364  1
  O  O4  1  0.69334838  0.78447631  0.96279438  1
  O  O5  1  0.18825013  0.77953616  0.02395813  1
  O  O6  1  0.25894980  0.48779193  0.54001864  1
  O  O7  1  0.81993260  0.03894739  0.52325333  1
  O  O8  1  0.30278532  0.98975022  0.54958574  1
  O  O9  1  0.77236217  0.29885273  0.97794140  1
  O  O10  1  0.24825555  0.28601689  0.02227944  1
  O  O11  1  0.74907005  0.53507742  0.47643963  1
loop_
_geom_bond_atom_site_label_1
_geom_bond_atom_site_label_2
_geom_bond_distance
_geom_bond_site_symmetry_2
Mg0 O6 2.002541 1_555
Mg0 O11 2.005104 1_455
Mg0 O7 2.006922 1_465
Mg0 O8 2.016972 1_555
Mg0 O3 2.080965 1_555
Bi0 O8 2.217348 1_545
Bi0 O6 2.267290 1_555
Bi0 O1 2.280737 1_555
Bi0 O7 2.418660 1_455
Bi0 O3 2.526784 1_545
Bi1 O0 2.122800 1_555
Bi1 O2 2.138690 1_555
Bi1 O11 2.365170 1_555
Bi2 O7 2.144710 1_555
Bi2 O8 2.317215 1_545
Bi2 O11 2.339126 1_555
Bi2 O2 2.457600 1_555
Bi2 O6 2.518119 1_555
Bi2 O0 2.816496 1_545
Bi3 O6 2.213885 1_555
Bi3 O8 2.303081 1_555
Bi3 O11 2.367613 1_555
Bi3 O1 2.389055 1_555
Bi3 O3 2.546363 1_555
O0 W0 2.061340 1_554
O1 W0 2.045131 1_555
O2 W1 2.063599 1_554
O3 W1 2.056000 1_465
O4 W0 1.948337 1_555
O4 W1 2.006961 1_565
O5 W1 1.881895 1_464
O5 W0 2.085139 1_554
O9 W1 1.997865 1_555
O9 W0 2.049159 1_555
O10 W0 1.922723 1_554
O10 W1 2.119119 1_454
