# generated using pymatgen
data_MgFe6(O3F)3
_symmetry_space_group_name_H-M   'P 1'
_cell_length_a   7.10939405
_cell_length_b   5.72925473
_cell_length_c   5.98196921
_cell_angle_alpha   83.04753867
_cell_angle_beta   72.06578664
_cell_angle_gamma   73.86097436
_symmetry_Int_Tables_number   1
_chemical_formula_structural   MgFe6(O3F)3
_chemical_formula_sum   'Mg1 Fe6 O9 F3'
_cell_volume   222.51228768
_cell_formula_units_Z   1
loop_
 _symmetry_equiv_pos_site_id
 _symmetry_equiv_pos_as_xyz
  1  'x, y, z'
loop_
 _atom_site_type_symbol
 _atom_site_label
 _atom_site_symmetry_multiplicity
 _atom_site_fract_x
 _atom_site_fract_y
 _atom_site_fract_z
 _atom_site_occupancy
  Mg  Mg0  1  0.66277813  0.32435545  0.81790169  1
  Fe  Fe0  1  0.84832617  0.70215322  0.64070858  1
  Fe  Fe1  1  0.32890482  0.72929805  0.61465533  1
  Fe  Fe2  1  0.67899942  0.38099723  0.27689089  1
  Fe  Fe3  1  0.17179497  0.33273298  0.32834798  1
  Fe  Fe4  1  0.49243702  0.92642543  0.05730240  1
  Fe  Fe5  1  0.00581282  0.92744592  0.06838042  1
  O  O0  1  0.30378827  0.87459548  0.90289844  1
  O  O1  1  0.96791403  0.22256753  0.23097241  1
  O  O2  1  0.62699116  0.57882785  0.55982744  1
  O  O3  1  0.70873030  0.08974048  0.08921384  1
  O  O4  1  0.04170297  0.77524595  0.76664808  1
  O  O5  1  0.37209614  0.45782415  0.42264635  1
  O  O6  1  0.67751749  0.60765530  0.99510036  1
  O  O7  1  0.32459832  0.98843648  0.36907417  1
  O  O8  1  0.00530037  0.67542193  0.31544410  1
  F  F0  1  0.36562854  0.31387315  0.98954149  1
  F  F1  1  0.66645516  0.03626480  0.66151162  1
  F  F2  1  0.97244491  0.32994562  0.66674541  1
loop_
_geom_bond_atom_site_label_1
_geom_bond_atom_site_label_2
_geom_bond_distance
_geom_bond_site_symmetry_2
Mg0 O2 2.016034 1_555
Mg0 O3 2.025303 1_556
Mg0 O6 2.085304 1_555
Fe0 O4 1.915011 1_655
Fe0 O8 1.922131 1_655
Fe0 O2 2.092638 1_555
Fe0 O6 2.182706 1_555
Fe1 O4 1.918559 1_555
Fe1 O0 1.942464 1_555
Fe1 O5 1.944843 1_555
Fe1 O7 1.959012 1_555
Fe1 O2 1.991622 1_555
Fe2 O1 1.947999 1_555
Fe2 O6 2.000321 1_554
Fe2 O5 2.025347 1_555
Fe2 O2 2.032733 1_555
Fe2 O3 2.049610 1_555
Fe3 O1 1.989024 1_455
Fe3 O7 1.996455 1_545
Fe3 O8 1.997347 1_555
Fe3 O5 2.004893 1_555
Fe4 O7 1.892752 1_555
Fe4 O6 1.931907 1_554
Fe4 O0 1.946984 1_554
Fe4 O3 2.073738 1_565
Fe5 O8 1.937045 1_555
Fe5 O1 1.964930 1_465
Fe5 O0 1.995951 1_554
Fe5 O4 2.014210 1_554
Fe5 O3 2.028581 1_465
F0 Mg0 2.059244 1_555
F0 Fe3 2.066041 1_556
F0 Fe4 2.190705 1_546
F1 Fe0 1.983460 1_545
F1 Mg0 1.983671 1_555
F1 Fe4 2.408399 1_546
F2 Fe0 2.075683 1_555
F2 Fe3 2.084352 1_655
F2 Mg0 2.114629 1_555
