# generated using pymatgen
data_U2Fe3Ge
_symmetry_space_group_name_H-M   'P 1'
_cell_length_a   5.18597855
_cell_length_b   5.18597601
_cell_length_c   8.01498513
_cell_angle_alpha   89.99981130
_cell_angle_beta   90.00018067
_cell_angle_gamma   119.99905829
_symmetry_Int_Tables_number   1
_chemical_formula_structural   U2Fe3Ge
_chemical_formula_sum   'U4 Fe6 Ge2'
_cell_volume   186.68038727
_cell_formula_units_Z   2
loop_
 _symmetry_equiv_pos_site_id
 _symmetry_equiv_pos_as_xyz
  1  'x, y, z'
loop_
 _atom_site_type_symbol
 _atom_site_label
 _atom_site_symmetry_multiplicity
 _atom_site_fract_x
 _atom_site_fract_y
 _atom_site_fract_z
 _atom_site_occupancy
  U  U0  1  0.33333759  0.66666641  0.42334455  1
  U  U1  1  0.66666275  0.33333325  0.92323780  1
  U  U2  1  0.66666241  0.33333359  0.57665545  1
  U  U3  1  0.33333725  0.66666675  0.07676220  1
  Fe  Fe0  1  0.65659015  0.82829259  0.74998476  1
  Fe  Fe1  1  0.34340985  0.17170741  0.25001524  1
  Fe  Fe2  1  0.17170741  0.34341085  0.74998476  1
  Fe  Fe3  1  0.82829507  0.17170593  0.25001541  1
  Fe  Fe4  1  0.82829259  0.65658915  0.25001524  1
  Fe  Fe5  1  0.17170493  0.82829407  0.74998459  1
  Ge  Ge0  1  0.00000000  -0.00000000  0.50000000  1
  Ge  Ge1  1  0.00000000  -0.00000000  0.00000000  1
loop_
_geom_bond_atom_site_label_1
_geom_bond_atom_site_label_2
_geom_bond_distance
_geom_bond_site_symmetry_2
U0 U3 2.777852 1_555
U1 U2 2.777852 1_555
Fe0 Fe5 2.514608 1_555
Fe0 Fe2 2.514624 1_555
Fe0 Ge0 2.528500 1_665
Fe0 Ge1 2.528689 1_666
Fe0 Fe5 2.671370 1_655
Fe0 Fe2 2.671427 1_665
Fe0 U1 2.941727 1_555
Fe0 U1 2.941776 1_565
Fe0 U2 2.942021 1_555
Fe0 U2 2.942059 1_565
Fe0 U0 2.993614 1_555
Fe0 U3 2.994581 1_556
Fe1 Fe3 2.514608 1_555
Fe1 Fe4 2.514624 1_555
Fe1 Ge0 2.528500 1_555
Fe1 Ge1 2.528689 1_555
Fe1 Fe3 2.671370 1_455
Fe1 Fe4 2.671427 1_445
Fe1 U3 2.941727 1_555
Fe1 U3 2.941776 1_545
Fe1 U0 2.942021 1_555
Fe1 U0 2.942059 1_545
Fe1 U2 2.993614 1_555
Fe1 U1 2.994581 1_554
Fe2 Fe5 2.514599 1_555
Fe2 Ge0 2.528503 1_555
Fe2 Ge1 2.528691 1_556
Fe2 Fe5 2.671377 1_545
Fe2 U1 2.941721 1_555
Fe2 U1 2.941784 1_455
Fe2 U2 2.942015 1_555
Fe2 U2 2.942067 1_455
Fe2 U0 2.993620 1_555
Fe2 U3 2.994588 1_556
Fe3 Fe4 2.514599 1_555
Fe3 Ge0 2.528481 1_655
Fe3 Ge1 2.528686 1_655
Fe3 Fe4 2.671377 1_545
Fe3 U3 2.941779 1_545
Fe3 U3 2.941792 1_655
Fe3 U0 2.942066 1_545
Fe3 U0 2.942080 1_655
Fe3 U2 2.993627 1_555
Fe3 U1 2.994580 1_554
Fe4 Ge0 2.528503 1_665
Fe4 Ge1 2.528691 1_665
Fe4 U3 2.941721 1_555
Fe4 U3 2.941784 1_655
Fe4 U0 2.942015 1_555
Fe4 U0 2.942067 1_655
Fe4 U2 2.993620 1_555
Fe4 U1 2.994588 1_554
Fe5 Ge0 2.528481 1_565
Fe5 Ge1 2.528686 1_566
Fe5 U1 2.941779 1_565
Fe5 U1 2.941792 1_455
Fe5 U2 2.942066 1_565
Fe5 U2 2.942080 1_455
Fe5 U0 2.993627 1_555
Fe5 U3 2.994580 1_556
Ge0 U2 3.056520 1_455
Ge0 U0 3.056520 1_545
Ge0 U2 3.056521 1_555
Ge0 U0 3.056521 1_445
Ge0 U2 3.056537 1_445
Ge0 U0 3.056537 1_555
Ge1 U3 3.056685 1_545
Ge1 U1 3.056685 1_454
Ge1 U1 3.056696 1_554
Ge1 U3 3.056696 1_445
Ge1 U3 3.056713 1_555
Ge1 U1 3.056713 1_444
