# generated using pymatgen
data_CaSbF5
_symmetry_space_group_name_H-M   'P 1'
_cell_length_a   10.86614750
_cell_length_b   5.97278297
_cell_length_c   8.04753066
_cell_angle_alpha   50.22591984
_cell_angle_beta   90.00000000
_cell_angle_gamma   90.00000000
_symmetry_Int_Tables_number   1
_chemical_formula_structural   CaSbF5
_chemical_formula_sum   'Ca4 Sb4 F20'
_cell_volume   401.42101653
_cell_formula_units_Z   4
loop_
 _symmetry_equiv_pos_site_id
 _symmetry_equiv_pos_as_xyz
  1  'x, y, z'
loop_
 _atom_site_type_symbol
 _atom_site_label
 _atom_site_symmetry_multiplicity
 _atom_site_fract_x
 _atom_site_fract_y
 _atom_site_fract_z
 _atom_site_occupancy
  Ca  Ca0  1  0.01095397  0.50668457  0.74695284  1
  Ca  Ca1  1  0.51095397  0.49331543  0.75304716  1
  Ca  Ca2  1  0.98904603  0.49331543  0.25304716  1
  Ca  Ca3  1  0.48904603  0.50668457  0.24695284  1
  Sb  Sb0  1  0.75148893  0.06502150  0.65742953  1
  Sb  Sb1  1  0.25148893  0.93497850  0.84257047  1
  Sb  Sb2  1  0.24851107  0.93497850  0.34257047  1
  Sb  Sb3  1  0.74851107  0.06502150  0.15742953  1
  F  F0  1  0.90581989  0.33903244  0.58994275  1
  F  F1  1  0.40581989  0.66096756  0.91005725  1
  F  F2  1  0.09418011  0.66096756  0.41005725  1
  F  F3  1  0.59418011  0.33903244  0.08994275  1
  F  F4  1  0.59969456  0.35648025  0.56187631  1
  F  F5  1  0.09969456  0.64351975  0.93812369  1
  F  F6  1  0.40030544  0.64351975  0.43812369  1
  F  F7  1  0.90030544  0.35648025  0.06187631  1
  F  F8  1  0.38400175  0.10181580  0.92416240  1
  F  F9  1  0.88400175  0.89818420  0.57583760  1
  F  F10  1  0.61599825  0.89818420  0.07583760  1
  F  F11  1  0.11599825  0.10181580  0.42416240  1
  F  F12  1  0.12184698  0.08670866  0.93961326  1
  F  F13  1  0.62184698  0.91329134  0.56038674  1
  F  F14  1  0.87815302  0.91329134  0.06038674  1
  F  F15  1  0.37815302  0.08670866  0.43961326  1
  F  F16  1  0.73603743  0.36653339  0.83782661  1
  F  F17  1  0.23603743  0.63346661  0.66217339  1
  F  F18  1  0.26396257  0.63346661  0.16217339  1
  F  F19  1  0.76396257  0.36653339  0.33782661  1
loop_
_geom_bond_atom_site_label_1
_geom_bond_atom_site_label_2
_geom_bond_distance
_geom_bond_site_symmetry_2
Ca0 F9 2.268699 1_455
Ca0 F12 2.274150 1_555
Ca0 F0 2.350158 1_455
Ca0 F5 2.360811 1_555
Ca0 F7 2.400872 1_456
Ca0 F2 2.412632 1_555
Ca0 F17 2.521852 1_555
Ca1 F8 2.268699 1_555
Ca1 F13 2.274150 1_555
Ca1 F1 2.350158 1_555
Ca1 F4 2.360811 1_555
Ca1 F6 2.400872 1_555
Ca1 F3 2.412632 1_556
Ca1 F16 2.521852 1_555
Ca2 F11 2.268699 1_655
Ca2 F14 2.274150 1_555
Ca2 F2 2.350158 1_655
Ca2 F7 2.360811 1_555
Ca2 F5 2.400872 1_654
Ca2 F0 2.412632 1_555
Ca2 F19 2.521852 1_555
Ca3 F10 2.268699 1_555
Ca3 F15 2.274150 1_555
Ca3 F3 2.350158 1_555
Ca3 F6 2.360811 1_555
Ca3 F4 2.400872 1_555
Ca3 F1 2.412632 1_554
Ca3 F18 2.521852 1_555
F0 Sb0 2.156019 1_555
F1 Sb1 2.156019 1_555
F2 Sb2 2.156019 1_555
F3 Sb3 2.156019 1_555
F4 Sb0 2.151636 1_555
F5 Sb1 2.151636 1_555
F6 Sb2 2.151636 1_555
F7 Sb3 2.151636 1_555
F8 Sb1 2.081980 1_545
F9 Sb0 2.081980 1_565
F10 Sb3 2.081980 1_565
F11 Sb2 2.081980 1_545
F12 Sb1 2.078753 1_545
F13 Sb0 2.078753 1_565
F14 Sb3 2.078753 1_565
F15 Sb2 2.078753 1_545
F16 Sb3 1.987506 1_556
F17 Sb2 1.987506 1_555
F18 Sb1 1.987506 1_554
F19 Sb0 1.987506 1_555
