# generated using pymatgen
data_MgZn2(NiO2)4
_symmetry_space_group_name_H-M   'P 1'
_cell_length_a   6.25645680
_cell_length_b   6.00718912
_cell_length_c   5.83715507
_cell_angle_alpha   90.05463740
_cell_angle_beta   117.39499574
_cell_angle_gamma   119.02362905
_symmetry_Int_Tables_number   1
_chemical_formula_structural   MgZn2(NiO2)4
_chemical_formula_sum   'Mg1 Zn2 Ni4 O8'
_cell_volume   163.06306220
_cell_formula_units_Z   1
loop_
 _symmetry_equiv_pos_site_id
 _symmetry_equiv_pos_as_xyz
  1  'x, y, z'
loop_
 _atom_site_type_symbol
 _atom_site_label
 _atom_site_symmetry_multiplicity
 _atom_site_fract_x
 _atom_site_fract_y
 _atom_site_fract_z
 _atom_site_occupancy
  Mg  Mg0  1  0.29536000  0.63807700  0.90090400  1
  Zn  Zn0  1  0.18050100  0.09403700  0.83963300  1
  Zn  Zn1  1  0.84945200  0.92097900  0.18556500  1
  Ni  Ni0  1  0.47627600  0.98126700  0.48783500  1
  Ni  Ni1  1  0.47633600  0.49436300  0.48753000  1
  Ni  Ni2  1  0.87726300  0.44112300  0.95848900  1
  Ni  Ni3  1  0.89585700  0.44996000  0.42858900  1
  O  O0  1  0.02033000  0.72256100  0.26105700  1
  O  O1  1  0.52960900  0.75500300  0.74679200  1
  O  O2  1  0.53097500  0.75605000  0.28469200  1
  O  O3  1  0.97117400  0.69920700  0.73071300  1
  O  O4  1  0.45658700  0.24139100  0.70277300  1
  O  O5  1  0.46371000  0.24461300  0.25206000  1
  O  O6  1  0.00524500  0.28971300  0.25295100  1
  O  O7  1  0.95049700  0.26123700  0.71999900  1
loop_
_geom_bond_atom_site_label_1
_geom_bond_atom_site_label_2
_geom_bond_distance
_geom_bond_site_symmetry_2
Mg0 O2 1.907401 1_556
Mg0 O1 1.914695 1_555
Mg0 O7 2.013526 1_455
Mg0 O3 2.026022 1_455
Ni0 O2 2.042846 1_555
Ni0 O1 2.055115 1_555
Ni0 O4 2.087172 1_565
Ni0 O5 2.104317 1_565
Ni0 O0 2.127031 1_555
Ni0 O7 2.218447 1_565
Ni1 O2 1.960732 1_555
Ni1 O4 1.966587 1_555
Ni1 O1 1.969192 1_555
Ni1 O5 1.981782 1_555
Ni1 O6 2.200042 1_555
Ni1 O3 2.317288 1_555
Ni2 O0 1.962105 1_656
Ni2 O6 1.966193 1_656
Ni2 O4 1.977836 1_555
Ni2 O3 2.086980 1_555
Ni2 O7 2.092878 1_555
Ni3 O0 1.926350 1_655
Ni3 O6 1.931114 1_655
Ni3 O5 2.022628 1_555
Ni3 O3 2.029674 1_555
Ni3 O7 2.034741 1_555
O0 Zn1 1.887275 1_455
O1 Zn1 2.213787 1_556
O2 Zn1 2.105493 1_555
O3 Zn0 1.990398 1_665
O4 Zn0 2.047667 1_555
O5 Zn0 2.066049 1_554
O6 Zn1 1.887264 1_445
O7 Zn0 2.011540 1_655
