# generated using pymatgen
data_MgV4O8
_symmetry_space_group_name_H-M   'P 1'
_cell_length_a   4.86243047
_cell_length_b   5.65996612
_cell_length_c   5.68044957
_cell_angle_alpha   62.61750031
_cell_angle_beta   90.82563896
_cell_angle_gamma   91.61222460
_symmetry_Int_Tables_number   1
_chemical_formula_structural   MgV4O8
_chemical_formula_sum   'Mg1 V4 O8'
_cell_volume   138.76143862
_cell_formula_units_Z   1
loop_
 _symmetry_equiv_pos_site_id
 _symmetry_equiv_pos_as_xyz
  1  'x, y, z'
loop_
 _atom_site_type_symbol
 _atom_site_label
 _atom_site_symmetry_multiplicity
 _atom_site_fract_x
 _atom_site_fract_y
 _atom_site_fract_z
 _atom_site_occupancy
  Mg  Mg0  1  0.99405400  0.24964400  0.24594100  1
  V  V0  1  0.99482100  0.74801200  0.24922600  1
  V  V1  1  0.99539800  0.24803100  0.74659700  1
  V  V2  1  0.49400300  0.24739100  0.24743100  1
  V  V3  1  0.49502800  0.74843600  0.74879300  1
  O  O0  1  0.22661000  0.09471700  0.08067400  1
  O  O1  1  0.71820600  0.92568600  0.39605400  1
  O  O2  1  0.72172800  0.39840500  0.93041500  1
  O  O3  1  0.76314600  0.40106900  0.41560100  1
  O  O4  1  0.19407100  0.57181900  0.60544700  1
  O  O5  1  0.27155800  0.57070000  0.10157500  1
  O  O6  1  0.26617900  0.09815600  0.56524000  1
  O  O7  1  0.79575300  0.92412400  0.89319700  1
loop_
_geom_bond_atom_site_label_1
_geom_bond_atom_site_label_2
_geom_bond_distance
_geom_bond_site_symmetry_2
Mg0 O3 1.941417 1_555
Mg0 O0 1.942306 1_655
Mg0 O2 2.069050 1_554
Mg0 O5 2.078095 1_655
Mg0 O6 2.083239 1_655
Mg0 O1 2.084368 1_545
O0 V2 1.997177 1_555
O0 V1 2.024074 1_454
O0 V0 2.053321 1_445
O1 V2 1.971755 1_565
O1 V3 2.085977 1_555
O1 V0 2.096658 1_555
O2 V2 1.946253 1_556
O2 V3 2.101062 1_555
O2 V1 2.122899 1_555
O3 V2 2.011478 1_555
O3 V1 2.014089 1_555
O3 V0 2.053618 1_555
O4 V1 1.872351 1_455
O4 V0 2.041899 1_455
O4 V3 2.106159 1_555
O5 V2 1.973799 1_555
O5 V3 2.086967 1_554
O5 V0 2.098593 1_455
O6 V2 1.949885 1_555
O6 V1 2.102441 1_455
O6 V3 2.106058 1_545
O7 V1 1.875012 1_565
O7 V0 2.040630 1_556
O7 V3 2.105653 1_555
