# generated using pymatgen
data_La2MgCr2(CoO6)2
_symmetry_space_group_name_H-M   'P 1'
_cell_length_a   5.38211886
_cell_length_b   6.40868460
_cell_length_c   7.13903681
_cell_angle_alpha   90.57273938
_cell_angle_beta   90.02577655
_cell_angle_gamma   94.79178194
_symmetry_Int_Tables_number   1
_chemical_formula_structural   La2MgCr2(CoO6)2
_chemical_formula_sum   'La2 Mg1 Cr2 Co2 O12'
_cell_volume   245.36870010
_cell_formula_units_Z   1
loop_
 _symmetry_equiv_pos_site_id
 _symmetry_equiv_pos_as_xyz
  1  'x, y, z'
loop_
 _atom_site_type_symbol
 _atom_site_label
 _atom_site_symmetry_multiplicity
 _atom_site_fract_x
 _atom_site_fract_y
 _atom_site_fract_z
 _atom_site_occupancy
  La  La0  1  0.98405000  0.88438100  0.74941900  1
  La  La1  1  0.51176000  0.65457700  0.24802500  1
  Mg  Mg0  1  0.01587200  0.06977300  0.26999200  1
  Cr  Cr0  1  0.50258300  0.10254300  0.49267600  1
  Cr  Cr1  1  0.03301700  0.43350400  0.98100300  1
  Co  Co0  1  0.54211700  0.10511200  0.00280300  1
  Co  Co1  1  0.08152700  0.44253100  0.51412400  1
  O  O0  1  0.11029600  0.39665200  0.25977800  1
  O  O1  1  0.17577800  0.21045400  0.94265300  1
  O  O2  1  0.16784700  0.15152000  0.54386600  1
  O  O3  1  0.20573500  0.67416100  0.99506300  1
  O  O4  1  0.22695800  0.70413200  0.50795000  1
  O  O5  1  0.38036000  0.02166000  0.24451800  1
  O  O6  1  0.54572700  0.03708700  0.74955700  1
  O  O7  1  0.64699500  0.33398400  0.45760400  1
  O  O8  1  0.70270200  0.38103200  0.05077600  1
  O  O9  1  0.74079600  0.91376400  0.45123900  1
  O  O10  1  0.78983000  0.92346000  0.06397600  1
  O  O11  1  0.93111300  0.48675600  0.74324700  1
loop_
_geom_bond_atom_site_label_1
_geom_bond_atom_site_label_2
_geom_bond_distance
_geom_bond_site_symmetry_2
La0 O2 2.414856 1_665
La0 O4 2.495955 1_655
La0 O10 2.496575 1_556
La0 O9 2.515483 1_555
La0 O11 2.540307 1_555
La0 O3 2.574460 1_655
La0 O6 2.628466 1_565
La0 O1 2.629738 1_665
La1 O4 2.442512 1_555
La1 O9 2.447741 1_555
La1 O3 2.454843 1_554
La1 O5 2.512815 1_565
La1 O8 2.522938 1_555
La1 O10 2.559647 1_555
La1 O0 2.610419 1_555
La1 O7 2.701846 1_555
Mg0 O5 2.019094 1_555
Mg0 O10 2.074287 1_445
Mg0 O0 2.115955 1_555
Mg0 O9 2.155463 1_445
Mg0 O2 2.161662 1_555
Mg0 O1 2.632274 1_554
Cr0 O7 1.637611 1_555
Cr0 O9 1.856683 1_545
Cr0 O2 1.889595 1_555
Cr0 O6 1.903756 1_555
Cr0 O5 1.940010 1_555
Cr1 O1 1.698393 1_555
Cr1 O3 1.734986 1_555
Cr1 O11 1.827644 1_455
Cr1 O8 1.850950 1_456
Cr1 O0 2.052966 1_556
Co0 O6 1.856001 1_554
Co0 O10 1.895360 1_545
Co0 O8 1.929613 1_555
Co0 O5 1.990909 1_555
Co0 O1 2.180619 1_554
Co1 O4 1.790974 1_555
Co1 O0 1.845180 1_555
Co1 O11 1.855134 1_455
Co1 O2 1.972745 1_555
Co1 O7 2.416194 1_455
