# generated using pymatgen
data_V2Zn4O9
_symmetry_space_group_name_H-M   'P 1'
_cell_length_a   8.30461900
_cell_length_b   9.82809200
_cell_length_c   10.51578540
_cell_angle_alpha   62.83015234
_cell_angle_beta   90.00000000
_cell_angle_gamma   90.00000000
_symmetry_Int_Tables_number   1
_chemical_formula_structural   V2Zn4O9
_chemical_formula_sum   'V8 Zn16 O36'
_cell_volume   763.57753682
_cell_formula_units_Z   4
loop_
 _symmetry_equiv_pos_site_id
 _symmetry_equiv_pos_as_xyz
  1  'x, y, z'
loop_
 _atom_site_type_symbol
 _atom_site_label
 _atom_site_symmetry_multiplicity
 _atom_site_fract_x
 _atom_site_fract_y
 _atom_site_fract_z
 _atom_site_occupancy
  V  V0  1  0.37771000  0.14669600  0.99616900  1
  V  V1  1  0.87771000  0.85330400  0.00383100  1
  V  V2  1  0.35366900  0.95832600  0.55658700  1
  V  V3  1  0.85366900  0.04167400  0.44341300  1
  V  V4  1  0.38081300  0.53345400  0.97006100  1
  V  V5  1  0.88081300  0.46654600  0.02993900  1
  V  V6  1  0.37007600  0.35895200  0.47863100  1
  V  V7  1  0.87007600  0.64104800  0.52136900  1
  Zn  Zn0  1  0.81209800  0.19231200  0.91464200  1
  Zn  Zn1  1  0.31209800  0.80768800  0.08535800  1
  Zn  Zn2  1  0.02881700  0.56026900  0.28146300  1
  Zn  Zn3  1  0.52881700  0.43973100  0.71853700  1
  Zn  Zn4  1  0.35287800  0.71413100  0.38971300  1
  Zn  Zn5  1  0.85287800  0.28586900  0.61028700  1
  Zn  Zn6  1  0.66730700  0.93468500  0.22675400  1
  Zn  Zn7  1  0.16730700  0.06531500  0.77324600  1
  Zn  Zn8  1  0.17603200  0.25984600  0.26178300  1
  Zn  Zn9  1  0.67603200  0.74015400  0.73821700  1
  Zn  Zn10  1  0.10409900  0.39791800  0.79030000  1
  Zn  Zn11  1  0.60409900  0.60208200  0.20970000  1
  Zn  Zn12  1  0.55012600  0.25189400  0.25882100  1
  Zn  Zn13  1  0.05012600  0.74810600  0.74117900  1
  Zn  Zn14  1  0.05394100  0.93652200  0.23453200  1
  Zn  Zn15  1  0.55394100  0.06347800  0.76546800  1
  O  O0  1  0.07405500  0.86546800  0.94328600  1
  O  O1  1  0.57405500  0.13453200  0.05671400  1
  O  O2  1  0.70284600  0.41182300  0.12002300  1
  O  O3  1  0.20284600  0.58817700  0.87997700  1
  O  O4  1  0.73457200  0.92454300  0.87391800  1
  O  O5  1  0.23457200  0.07545700  0.12608200  1
  O  O6  1  0.92993300  0.34626000  0.95202700  1
  O  O7  1  0.42993300  0.65374000  0.04797300  1
  O  O8  1  0.38509000  0.49841800  0.53908400  1
  O  O9  1  0.88509000  0.50158200  0.46091600  1
  O  O10  1  0.68901400  0.61423900  0.61035500  1
  O  O11  1  0.18901400  0.38576100  0.38964500  1
  O  O12  1  0.82932400  0.67575700  0.15122200  1
  O  O13  1  0.32932400  0.32424300  0.84877800  1
  O  O14  1  0.01538500  0.22211100  0.76392000  1
  O  O15  1  0.34066400  0.81558800  0.50918000  1
  O  O16  1  0.66726300  0.25743100  0.74581500  1
  O  O17  1  0.16726300  0.74256900  0.25418500  1
  O  O18  1  0.86937500  0.98750400  0.07964800  1
  O  O19  1  0.36937500  0.01249600  0.92035200  1
  O  O20  1  0.36035900  0.13253000  0.39816300  1
  O  O21  1  0.86035900  0.86747000  0.60183700  1
  O  O22  1  0.03492300  0.60392100  0.64118900  1
  O  O23  1  0.53492300  0.39607900  0.35881100  1
  O  O24  1  0.86733300  0.81441600  0.36572800  1
  O  O25  1  0.36733300  0.18558400  0.63427200  1
  O  O26  1  0.53069300  0.55467200  0.84387800  1
  O  O27  1  0.03069300  0.44532800  0.15612200  1
  O  O28  1  0.02645700  0.07873700  0.33190700  1
  O  O29  1  0.52645700  0.92126300  0.66809300  1
  O  O30  1  0.67927100  0.05905300  0.33783400  1
  O  O31  1  0.17927100  0.94094700  0.66216600  1
  O  O32  1  0.36277800  0.34528100  0.11445100  1
  O  O33  1  0.86277800  0.65471900  0.88554900  1
  O  O34  1  0.51538500  0.77788900  0.23608000  1
  O  O35  1  0.84066400  0.18441200  0.49082000  1
loop_
_geom_bond_atom_site_label_1
_geom_bond_atom_site_label_2
_geom_bond_distance
_geom_bond_site_symmetry_2
O0 V1 1.734618 1_456
O0 Zn7 2.108883 1_565
O0 Zn1 2.384882 1_556
O1 V0 1.734618 1_554
O1 Zn6 2.108883 1_545
O1 Zn0 2.384882 1_554
O2 V5 1.704605 1_555
O2 Zn12 2.028368 1_555
O3 V4 1.704605 1_555
O3 Zn13 2.028368 1_555
O4 V1 1.701772 1_556
O4 Zn15 1.998288 1_565
O5 V0 1.701772 1_554
O5 Zn14 1.998288 1_545
O6 V5 1.766288 1_556
O6 Zn0 1.986101 1_555
O6 Zn10 2.110349 1_655
O7 V4 1.766288 1_554
O7 Zn1 1.986101 1_555
O7 Zn11 2.110349 1_555
O8 V6 1.759042 1_555
O8 Zn4 1.998051 1_555
O8 Zn3 2.079527 1_555
O9 V7 1.759042 1_555
O9 Zn5 1.998051 1_555
O9 Zn2 2.079527 1_655
O10 V7 1.726517 1_555
O10 Zn3 2.055166 1_555
O10 Zn9 2.206918 1_555
O11 V6 1.726517 1_555
O11 Zn2 2.055166 1_555
O11 Zn8 2.206918 1_555
O12 V1 1.771621 1_555
O12 Zn11 1.998557 1_555
O12 Zn2 2.118743 1_655
O13 V0 1.771621 1_555
O13 Zn10 1.998557 1_555
O13 Zn3 2.118743 1_555
O14 Zn7 1.959099 1_555
O14 Zn5 1.974714 1_455
O14 Zn10 2.010704 1_555
O14 Zn0 2.241437 1_455
O15 V2 1.693175 1_555
O15 Zn4 1.930503 1_555
O16 Zn0 1.992617 1_555
O16 Zn5 2.030171 1_555
O16 Zn3 2.035898 1_555
O16 Zn15 2.049915 1_555
O17 Zn1 1.992617 1_555
O17 Zn4 2.030171 1_555
O17 Zn2 2.035898 1_555
O17 Zn14 2.049915 1_555
O18 V1 1.827663 1_555
O18 Zn0 2.024599 1_564
O18 Zn14 2.123167 1_655
O18 Zn6 2.178330 1_555
O19 V0 1.827663 1_555
O19 Zn1 2.024599 1_546
O19 Zn15 2.123167 1_555
O19 Zn7 2.178330 1_555
O20 V2 1.762069 1_545
O20 Zn8 2.080107 1_555
O20 Zn12 2.106425 1_555
O21 V3 1.762069 1_565
O21 Zn9 2.080107 1_555
O21 Zn13 2.106425 1_655
O22 V7 1.781854 1_455
O22 Zn10 1.997127 1_555
O22 Zn13 2.119048 1_555
O23 V6 1.781854 1_555
O23 Zn11 1.997127 1_555
O23 Zn12 2.119048 1_555
O24 V7 1.742309 1_555
O24 Zn14 2.057450 1_655
O24 Zn6 2.171339 1_555
O25 V6 1.742309 1_555
O25 Zn15 2.057450 1_555
O25 Zn7 2.171339 1_555
O26 V4 1.760895 1_555
O26 Zn9 2.040754 1_555
O26 Zn3 2.091274 1_555
O27 V5 1.760895 1_455
O27 Zn8 2.040754 1_555
O27 Zn2 2.091274 1_555
O28 V3 1.782299 1_455
O28 Zn8 2.014021 1_555
O28 Zn14 2.088363 1_545
O29 V2 1.782299 1_555
O29 Zn9 2.014021 1_555
O29 Zn15 2.088363 1_565
O30 V3 1.785003 1_555
O30 Zn12 1.998621 1_555
O30 Zn6 2.042608 1_545
O31 V2 1.785003 1_555
O31 Zn13 1.998621 1_555
O31 Zn7 2.042608 1_565
O32 V4 1.784271 1_554
O32 Zn12 2.072524 1_555
O32 Zn8 2.079060 1_555
O33 V5 1.784271 1_556
O33 Zn13 2.072524 1_655
O33 Zn9 2.079060 1_555
O34 Zn6 1.959099 1_555
O34 Zn4 1.974714 1_555
O34 Zn11 2.010704 1_555
O34 Zn1 2.241437 1_555
O35 V3 1.693175 1_555
O35 Zn5 1.930503 1_555
