# generated using pymatgen
data_Pr4Mg(CuO4)2
_symmetry_space_group_name_H-M   'P 1'
_cell_length_a   5.42707698
_cell_length_b   4.77463996
_cell_length_c   9.07275091
_cell_angle_alpha   88.83109960
_cell_angle_beta   107.40274703
_cell_angle_gamma   89.99999993
_symmetry_Int_Tables_number   1
_chemical_formula_structural   Pr4Mg(CuO4)2
_chemical_formula_sum   'Pr4 Mg1 Cu2 O8'
_cell_volume   224.28362835
_cell_formula_units_Z   1
loop_
 _symmetry_equiv_pos_site_id
 _symmetry_equiv_pos_as_xyz
  1  'x, y, z'
loop_
 _atom_site_type_symbol
 _atom_site_label
 _atom_site_symmetry_multiplicity
 _atom_site_fract_x
 _atom_site_fract_y
 _atom_site_fract_z
 _atom_site_occupancy
  Pr  Pr0  1  0.34624029  0.96729658  0.69248059  1
  Pr  Pr1  1  0.65375971  0.03270342  0.30751941  1
  Pr  Pr2  1  0.17411341  0.47622434  0.34822681  1
  Pr  Pr3  1  0.82588659  0.52377566  0.65177319  1
  Mg  Mg0  1  0.00000000  0.50000000  -0.00000000  1
  Cu  Cu0  1  0.00000000  -0.00000000  -0.00000000  1
  Cu  Cu1  1  0.50000000  0.50000000  -0.00000000  1
  O  O0  1  0.20234484  0.97156660  0.40469068  1
  O  O1  1  0.79765516  0.02843340  0.59530932  1
  O  O2  1  0.30857762  0.46816754  0.61715424  1
  O  O3  1  0.69142238  0.53183246  0.38284576  1
  O  O4  1  0.30114699  0.27695062  0.12464895  1
  O  O5  1  0.17649804  0.72304938  0.87535105  1
  O  O6  1  0.82350196  0.27695062  0.12464895  1
  O  O7  1  0.69885301  0.72304938  0.87535105  1
loop_
_geom_bond_atom_site_label_1
_geom_bond_atom_site_label_2
_geom_bond_distance
_geom_bond_site_symmetry_2
Mg0 O5 1.982294 1_554
Mg0 O6 1.982294 1_455
Mg0 O7 1.982294 1_454
Mg0 O4 1.982294 1_555
Cu0 O6 2.157322 1_455
Cu0 O5 2.157322 1_544
Cu0 O7 2.157323 1_444
Cu0 O4 2.157323 1_555
Cu1 O7 2.063662 1_554
Cu1 O4 2.063662 1_555
Cu1 O5 2.063662 1_554
Cu1 O6 2.063662 1_555
O0 Pr2 2.425283 1_555
O0 Pr2 2.448381 1_565
O0 Pr0 2.491176 1_555
O0 Pr1 2.854067 1_465
O0 Pr1 2.854072 1_565
O1 Pr3 2.425283 1_555
O1 Pr3 2.448381 1_545
O1 Pr1 2.491176 1_555
O1 Pr0 2.854067 1_645
O1 Pr0 2.854072 1_545
O2 Pr2 2.327722 1_555
O2 Pr0 2.465313 1_545
O2 Pr0 2.484188 1_555
O2 Pr3 2.743538 1_555
O2 Pr3 2.743543 1_455
O3 Pr3 2.327722 1_555
O3 Pr1 2.465313 1_565
O3 Pr1 2.484188 1_555
O3 Pr2 2.743538 1_555
O3 Pr2 2.743543 1_655
O4 Pr1 2.407628 1_555
O4 Pr2 2.531901 1_555
O5 Pr0 2.407628 1_555
O5 Pr3 2.531901 1_455
O6 Pr1 2.407628 1_555
O6 Pr2 2.531901 1_655
O7 Pr0 2.407628 1_555
O7 Pr3 2.531901 1_555
