# generated using pymatgen
data_EuCl2
_symmetry_space_group_name_H-M   'P 1'
_cell_length_a   4.51535416
_cell_length_b   7.49668229
_cell_length_c   8.97724086
_cell_angle_alpha   90.00000000
_cell_angle_beta   90.00000000
_cell_angle_gamma   90.00000000
_symmetry_Int_Tables_number   1
_chemical_formula_structural   EuCl2
_chemical_formula_sum   'Eu4 Cl8'
_cell_volume   303.88117919
_cell_formula_units_Z   4
loop_
 _symmetry_equiv_pos_site_id
 _symmetry_equiv_pos_as_xyz
  1  'x, y, z'
loop_
 _atom_site_type_symbol
 _atom_site_label
 _atom_site_symmetry_multiplicity
 _atom_site_fract_x
 _atom_site_fract_y
 _atom_site_fract_z
 _atom_site_occupancy
  Eu  Eu0  1  0.25000000  0.74634185  0.38936765  1
  Eu  Eu1  1  0.75000000  0.25365815  0.61063235  1
  Eu  Eu2  1  0.25000000  0.24634185  0.11063235  1
  Eu  Eu3  1  0.75000000  0.75365815  0.88936765  1
  Cl  Cl0  1  0.25000000  0.51906612  0.66328550  1
  Cl  Cl1  1  0.75000000  0.48093388  0.33671450  1
  Cl  Cl2  1  0.25000000  0.01906612  0.83671450  1
  Cl  Cl3  1  0.75000000  0.98093388  0.16328550  1
  Cl  Cl4  1  0.75000000  0.85812089  0.57578604  1
  Cl  Cl5  1  0.25000000  0.14187911  0.42421396  1
  Cl  Cl6  1  0.75000000  0.35812089  0.92421396  1
  Cl  Cl7  1  0.25000000  0.64187911  0.07578604  1
loop_
_geom_bond_atom_site_label_1
_geom_bond_atom_site_label_2
_geom_bond_distance
_geom_bond_site_symmetry_2
Cl0 Eu0 2.991621 1_555
Cl0 Eu1 3.046203 1_455
Cl0 Eu1 3.046203 1_555
Cl0 Eu3 3.508454 1_555
Cl0 Eu3 3.508454 1_455
Cl1 Eu1 2.991621 1_555
Cl1 Eu0 3.046203 1_655
Cl1 Eu0 3.046203 1_555
Cl1 Eu2 3.508454 1_655
Cl1 Eu2 3.508454 1_555
Cl2 Eu2 2.991621 1_556
Cl2 Eu3 3.046203 1_445
Cl2 Eu3 3.046203 1_545
Cl2 Eu1 3.508454 1_555
Cl2 Eu1 3.508454 1_455
Cl3 Eu3 2.991621 1_554
Cl3 Eu2 3.046203 1_565
Cl3 Eu2 3.046203 1_665
Cl3 Eu0 3.508454 1_655
Cl3 Eu0 3.508454 1_555
Cl4 Eu3 2.921996 1_555
Cl4 Eu0 2.932572 1_555
Cl4 Eu0 2.932572 1_655
Cl4 Eu1 2.981673 1_565
Cl5 Eu2 2.921996 1_555
Cl5 Eu1 2.932572 1_455
Cl5 Eu1 2.932572 1_555
Cl5 Eu0 2.981673 1_545
Cl6 Eu1 2.921996 1_555
Cl6 Eu2 2.932572 1_556
Cl6 Eu2 2.932572 1_656
Cl6 Eu3 2.981673 1_555
Cl7 Eu0 2.921996 1_555
Cl7 Eu3 2.932572 1_554
Cl7 Eu3 2.932572 1_454
Cl7 Eu2 2.981673 1_555
