# generated using pymatgen
data_Na2CaSi2Ge3(SO6)4
_symmetry_space_group_name_H-M   'P 1'
_cell_length_a   8.60630019
_cell_length_b   8.63429122
_cell_length_c   22.50221014
_cell_angle_alpha   88.21642249
_cell_angle_beta   90.40002420
_cell_angle_gamma   119.69990187
_symmetry_Int_Tables_number   1
_chemical_formula_structural   Na2CaSi2Ge3(SO6)4
_chemical_formula_sum   'Na6 Ca3 Si6 Ge9 S12 O72'
_cell_volume   1451.68834885
_cell_formula_units_Z   3
loop_
 _symmetry_equiv_pos_site_id
 _symmetry_equiv_pos_as_xyz
  1  'x, y, z'
loop_
 _atom_site_type_symbol
 _atom_site_label
 _atom_site_symmetry_multiplicity
 _atom_site_fract_x
 _atom_site_fract_y
 _atom_site_fract_z
 _atom_site_occupancy
  Na  Na0  1  0.98499757  0.98561866  0.50281992  1
  Na  Na1  1  0.02044286  0.01933633  0.99844350  1
  Na  Na2  1  0.66687972  0.32592721  0.83509718  1
  Na  Na3  1  0.66035923  0.31473614  0.33515201  1
  Na  Na4  1  0.33516018  0.66203080  0.16348959  1
  Na  Na5  1  0.35219879  0.67533467  0.67033687  1
  Ca  Ca0  1  0.97934636  0.98658983  0.64699928  1
  Ca  Ca1  1  0.01436587  0.01335370  0.13783330  1
  Ca  Ca2  1  0.34561623  0.68171666  0.32127293  1
  Si  Si0  1  0.69656083  0.99205348  0.75264123  1
  Si  Si1  1  0.66178599  0.60356407  0.58114701  1
  Si  Si2  1  0.39579617  0.35515278  0.07414352  1
  Si  Si3  1  0.04091605  0.38205859  0.91693000  1
  Si  Si4  1  0.32171057  0.94948261  0.91759168  1
  Si  Si5  1  0.63404466  0.97906018  0.41833400  1
  Ge  Ge0  1  0.97554510  0.99193567  0.35293946  1
  Ge  Ge1  1  0.00490462  0.02900700  0.85707398  1
  Ge  Ge2  1  0.66550794  0.33450790  0.69093507  1
  Ge  Ge3  1  0.65517434  0.33787139  0.17900107  1
  Ge  Ge4  1  0.65119021  0.31367386  0.97223843  1
  Ge  Ge5  1  0.67056231  0.33349959  0.48367291  1
  Ge  Ge6  1  0.31351843  0.64431427  0.01310521  1
  Ge  Ge7  1  0.36760260  0.67647406  0.52190764  1
  Ge  Ge8  1  0.32893586  0.68485803  0.82114050  1
  S  S0  1  0.30326219  0.01531339  0.24970452  1
  S  S1  1  0.71196690  0.69555000  0.24845382  1
  S  S2  1  0.98531941  0.29262219  0.24834422  1
  S  S3  1  0.29863895  0.30260256  0.75290778  1
  S  S4  1  -0.00008531  0.69811868  0.75325482  1
  S  S5  1  0.96322293  0.35096201  0.58018437  1
  S  S6  1  0.38690734  0.04002529  0.58089966  1
  S  S7  1  0.95107767  0.60439261  0.07924492  1
  S  S8  1  0.65092037  0.04672387  0.08081120  1
  S  S9  1  0.62238768  0.66890454  0.91623115  1
  S  S10  1  0.33263305  0.36159275  0.42074815  1
  S  S11  1  0.03373815  0.66673335  0.42013845  1
  O  O0  1  0.22276515  0.03842108  0.30624043  1
  O  O1  1  0.81683328  0.77627446  0.30630838  1
  O  O2  1  0.95743306  0.18137249  0.30684394  1
  O  O3  1  0.21766669  0.18036708  0.80710843  1
  O  O4  1  0.97003770  0.77856981  0.80498852  1
  O  O5  1  0.83708002  0.03543085  0.80955093  1
  O  O6  1  0.74790311  0.94707065  0.69182321  1
  O  O7  1  0.19986029  0.23201330  0.69886582  1
  O  O8  1  0.03628097  0.79852905  0.69760527  1
  O  O9  1  0.79782221  0.80362249  0.19614301  1
  O  O10  1  0.00713908  0.20878470  0.19734513  1
  O  O11  1  0.20130311  0.00237749  0.19739189  1
  O  O12  1  0.87941249  0.37006693  0.63506162  1
  O  O13  1  0.49246654  0.11123017  0.63572255  1
  O  O14  1  0.62753465  0.47836554  0.64374088  1
  O  O15  1  0.87709800  0.49760806  0.13866643  1
  O  O16  1  0.63114587  0.13192504  0.13693236  1
  O  O17  1  0.50695840  0.38804394  0.13925737  1
  O  O18  1  0.50528774  0.33182625  0.02055692  1
  O  O19  1  0.84762351  0.51445598  0.02772330  1
  O  O20  1  0.68692981  0.16003880  0.02595911  1
  O  O21  1  0.47729481  0.14518341  0.52647881  1
  O  O22  1  0.67390546  0.50413982  0.52333349  1
  O  O23  1  0.85115188  0.31854442  0.52660730  1
  O  O24  1  0.54341127  0.69896890  0.96992328  1
  O  O25  1  0.16362270  0.45263332  0.97561863  1
  O  O26  1  0.29386605  0.82354680  0.97778743  1
  O  O27  1  0.54368233  0.83593529  0.47657194  1
  O  O28  1  0.29675309  0.44658715  0.47249145  1
  O  O29  1  0.14865532  0.69412525  0.47277225  1
  O  O30  1  0.09745234  0.63171693  0.36590982  1
  O  O31  1  0.53148725  0.92949313  0.35806228  1
  O  O32  1  0.36590585  0.46268552  0.36539467  1
  O  O33  1  0.13709869  0.50594597  0.85804897  1
  O  O34  1  0.37085810  0.87354414  0.86060895  1
  O  O35  1  0.50860678  0.63572523  0.86307398  1
  O  O36  1  0.01852209  0.83451130  0.41324512  1
  O  O37  1  0.83390147  0.99041070  0.41091222  1
  O  O38  1  0.17311990  0.17983203  0.41629007  1
  O  O39  1  0.01772941  0.18352665  0.91019976  1
  O  O40  1  0.14048267  0.96552500  0.90532067  1
  O  O41  1  0.80184529  0.82888178  0.90990630  1
  O  O42  1  0.99294708  0.19979205  0.58327775  1
  O  O43  1  0.21311527  0.02799209  0.58259173  1
  O  O44  1  0.82974888  0.79668341  0.57814074  1
  O  O45  1  0.96259035  0.77736714  0.08254247  1
  O  O46  1  0.80561569  0.02246467  0.08439362  1
  O  O47  1  0.20397466  0.18416160  0.07268449  1
  O  O48  1  0.68007701  0.17979110  0.74254888  1
  O  O49  1  0.48240815  0.31898937  0.74950333  1
  O  O50  1  0.83384626  0.51517756  0.74783960  1
  O  O51  1  0.70775896  0.51814127  0.24610199  1
  O  O52  1  0.81383979  0.30052894  0.24327267  1
  O  O53  1  0.48716433  0.18513061  0.24424995  1
  O  O54  1  0.64548585  0.51005450  0.92129676  1
  O  O55  1  0.84368604  0.36596917  0.92547771  1
  O  O56  1  0.49826416  0.14765553  0.92311436  1
  O  O57  1  0.66848104  0.17852561  0.43296615  1
  O  O58  1  0.49419148  0.34206392  0.42957903  1
  O  O59  1  0.84945552  0.51247266  0.42872079  1
  O  O60  1  0.38637187  0.54427115  0.06997410  1
  O  O61  1  0.13330251  0.62187818  0.07819505  1
  O  O62  1  0.48387310  0.87714692  0.07826758  1
  O  O63  1  0.36859373  0.85680647  0.57557029  1
  O  O64  1  0.46822290  0.60765893  0.57779113  1
  O  O65  1  0.13540102  0.52397172  0.57258830  1
  O  O66  1  0.32889023  0.86093633  0.25244332  1
  O  O67  1  0.52944450  0.66272852  0.25397327  1
  O  O68  1  0.13723811  0.47070665  0.25531905  1
  O  O69  1  0.32104730  0.47979786  0.76284129  1
  O  O70  1  0.15777777  0.66920214  0.76044703  1
  O  O71  1  0.49814024  0.81837828  0.76672536  1
loop_
_geom_bond_atom_site_label_1
_geom_bond_atom_site_label_2
_geom_bond_distance
_geom_bond_site_symmetry_2
Na0 O44 2.240252 1_555
Na0 O37 2.445461 1_555
Na0 O38 2.524874 1_665
Na0 O36 2.528459 1_655
Na0 O43 2.547606 1_665
Na0 O42 2.604515 1_565
Na1 O47 2.279209 1_556
Na1 O39 2.410430 1_555
Na1 O40 2.498126 1_545
Na1 O45 2.632545 1_446
Na1 O46 2.694870 1_456
Na1 O41 2.701615 1_445
Na2 O56 2.456585 1_555
Na2 O55 2.459753 1_555
Na2 O50 2.470465 1_555
Na2 O49 2.470635 1_555
Na2 O48 2.500171 1_555
Na2 O54 2.609743 1_555
Na3 O53 2.470865 1_555
Na3 O57 2.480077 1_555
Na3 O52 2.499763 1_555
Na3 O51 2.519638 1_555
Na3 O58 2.650224 1_555
Na3 O59 2.723824 1_555
Na3 O31 2.967439 1_545
Na4 O61 2.494002 1_555
Na4 O62 2.494468 1_555
Na4 O60 2.499276 1_555
Na4 O67 2.623877 1_555
Na4 O68 2.636025 1_555
Na4 O66 2.695618 1_555
Na5 O64 2.521551 1_555
Na5 O71 2.529602 1_555
Na5 O69 2.568205 1_555
Na5 O63 2.568955 1_555
Na5 O70 2.620483 1_555
Na5 O65 2.780775 1_555
Ca0 O6 2.105817 1_555
Ca0 O44 2.187576 1_555
Ca0 O8 2.199771 1_655
Ca0 O42 2.254539 1_565
Ca0 O43 2.360460 1_665
Ca0 O7 2.364790 1_665
Ca1 O47 2.121581 1_555
Ca1 O11 2.122864 1_555
Ca1 O46 2.187205 1_455
Ca1 O10 2.211414 1_555
Ca1 O9 2.239668 1_445
Ca1 O45 2.269053 1_445
Ca2 O31 2.126437 1_555
Ca2 O32 2.191052 1_555
Ca2 O30 2.201381 1_555
Ca2 O66 2.209647 1_555
Ca2 O67 2.264768 1_555
Ca2 O68 2.373099 1_555
Ge0 O37 1.786951 1_555
Ge0 O2 1.979981 1_565
Ge0 O1 2.003844 1_555
Ge0 O36 2.049925 1_655
Ge0 O38 2.220817 1_665
Ge0 O0 2.225082 1_665
Ge1 O39 1.781236 1_555
Ge1 O5 1.812982 1_455
Ge1 O40 1.849214 1_545
Ge1 O3 1.972557 1_555
Ge1 O41 2.088549 1_445
Ge1 O4 2.376835 1_445
Ge2 O14 1.758611 1_555
Ge2 O48 1.793472 1_555
Ge2 O50 2.007728 1_555
Ge2 O49 2.011670 1_555
Ge2 O12 2.124201 1_555
Ge2 O13 2.180898 1_555
Ge3 O17 1.766956 1_555
Ge3 O15 1.926104 1_555
Ge3 O16 1.959223 1_555
Ge3 O53 2.001316 1_555
Ge3 O51 2.084733 1_555
Ge3 O52 2.107115 1_555
Ge4 O18 1.734402 1_556
Ge4 O56 1.793806 1_555
Ge4 O55 1.819105 1_555
Ge4 O20 1.901282 1_556
Ge4 O54 2.037697 1_555
Ge4 O19 2.150199 1_556
Ge5 O22 1.734233 1_555
Ge5 O57 1.778686 1_555
Ge5 O23 1.880361 1_555
Ge5 O21 1.892926 1_555
Ge5 O59 1.958952 1_555
Ge5 O58 1.967477 1_555
Ge6 O25 1.752407 1_554
Ge6 O60 1.798199 1_555
Ge6 O26 1.798896 1_554
Ge6 O24 2.038271 1_554
Ge6 O61 2.074772 1_555
Ge6 O62 2.360905 1_555
Ge7 O27 1.760531 1_555
Ge7 O64 1.769857 1_555
Ge7 O63 1.996575 1_555
Ge7 O65 2.087788 1_555
Ge7 O28 2.115838 1_555
Ge7 O29 2.245301 1_555
Ge8 O34 1.753932 1_555
Ge8 O33 1.792749 1_555
Ge8 O71 1.795113 1_555
Ge8 O70 1.959449 1_555
Ge8 O35 2.016463 1_555
Ge8 O69 2.210127 1_555
O0 S0 1.517655 1_555
O1 S1 1.553031 1_555
O2 S2 1.552540 1_555
O3 S3 1.513266 1_555
O4 S4 1.461276 1_655
O5 Si0 1.673956 1_545
O6 Si0 1.559035 1_555
O7 S3 1.446119 1_555
O8 S4 1.444545 1_555
O9 S1 1.436257 1_555
O10 S2 1.437237 1_455
O11 S0 1.436937 1_555
O12 S5 1.488415 1_555
O13 S6 1.484342 1_555
O14 Si1 1.683624 1_555
O15 S7 1.548159 1_555
O16 S8 1.532915 1_555
O17 Si2 1.697012 1_555
O18 Si2 1.612939 1_555
O19 S7 1.447879 1_555
O20 S8 1.485425 1_555
O21 S6 1.474229 1_555
O22 Si1 1.612574 1_555
O23 S5 1.483026 1_555
O24 S9 1.481526 1_555
O25 Si3 1.619741 1_555
O26 Si4 1.652030 1_555
O27 Si5 1.676430 1_555
O28 S10 1.507436 1_555
O29 S11 1.485303 1_555
O30 S11 1.441432 1_555
O31 Si5 1.564200 1_555
O32 S10 1.443944 1_555
O33 Si3 1.623148 1_555
O34 Si4 1.608626 1_555
O35 S9 1.482817 1_555
O36 S11 1.521016 1_555
O37 Si5 1.682839 1_555
O38 S10 1.493525 1_555
O39 Si3 1.636446 1_555
O40 Si4 1.653416 1_555
O41 S9 1.480018 1_555
O42 S5 1.448763 1_555
O43 S6 1.447737 1_555
O44 Si1 1.574937 1_555
O45 S7 1.451228 1_555
O46 S8 1.447985 1_555
O47 Si2 1.579005 1_555
O48 Si0 1.704050 1_545
O49 S3 1.518729 1_555
O50 S4 1.524822 1_655
O51 S1 1.516763 1_555
O52 S2 1.514161 1_555
O53 S0 1.536842 1_555
O54 S9 1.481150 1_555
O55 Si3 1.645224 1_655
O56 Si4 1.639001 1_545
O57 Si5 1.640279 1_545
O58 S10 1.492502 1_555
O59 S11 1.490548 1_655
O60 Si2 1.674321 1_555
O61 S7 1.499511 1_455
O62 S8 1.460191 1_565
O63 S6 1.518654 1_565
O64 Si1 1.684782 1_555
O65 S5 1.500225 1_455
O66 S0 1.454368 1_565
O67 S1 1.456948 1_555
O68 S2 1.455482 1_455
O69 S3 1.468411 1_555
O70 S4 1.504963 1_555
O71 Si0 1.644914 1_555
