# generated using pymatgen
data_LiCo2(PO4)3
_symmetry_space_group_name_H-M   'P 1'
_cell_length_a   8.67556400
_cell_length_b   8.58909100
_cell_length_c   12.09911595
_cell_angle_alpha   89.42846361
_cell_angle_beta   90.00000000
_cell_angle_gamma   90.00000000
_symmetry_Int_Tables_number   1
_chemical_formula_structural   LiCo2(PO4)3
_chemical_formula_sum   'Li4 Co8 P12 O48'
_cell_volume   901.52329534
_cell_formula_units_Z   4
loop_
 _symmetry_equiv_pos_site_id
 _symmetry_equiv_pos_as_xyz
  1  'x, y, z'
loop_
 _atom_site_type_symbol
 _atom_site_label
 _atom_site_symmetry_multiplicity
 _atom_site_fract_x
 _atom_site_fract_y
 _atom_site_fract_z
 _atom_site_occupancy
  Li  Li0  1  0.77824600  0.79778600  0.18228800  1
  Li  Li1  1  0.22175400  0.20221400  0.81771200  1
  Li  Li2  1  0.72175400  0.29778600  0.68228800  1
  Li  Li3  1  0.27824600  0.70221400  0.31771200  1
  Co  Co0  1  0.47298500  0.24982600  0.37959600  1
  Co  Co1  1  0.97298500  0.25017400  0.12040400  1
  Co  Co2  1  0.04001400  0.24742400  0.60873800  1
  Co  Co3  1  0.54001400  0.25257600  0.89126200  1
  Co  Co4  1  0.45998600  0.74742400  0.10873800  1
  Co  Co5  1  0.95998600  0.75257600  0.39126200  1
  Co  Co6  1  0.02701500  0.74982600  0.87959600  1
  Co  Co7  1  0.52701500  0.75017400  0.62040400  1
  P  P0  1  0.88345700  0.60409200  0.64719400  1
  P  P1  1  0.74963800  0.53467200  0.00611800  1
  P  P2  1  0.60576100  0.61016900  0.35503500  1
  P  P3  1  0.25036200  0.46532800  0.99388200  1
  P  P4  1  0.11654300  0.39590800  0.35280600  1
  P  P5  1  0.39423900  0.38983100  0.64496500  1
  P  P6  1  0.89423900  0.11016900  0.85503500  1
  P  P7  1  0.61654300  0.10409200  0.14719400  1
  P  P8  1  0.24963800  0.96532800  0.49388200  1
  P  P9  1  0.38345700  0.89590800  0.85280600  1
  P  P10  1  0.10576100  0.88983100  0.14496500  1
  P  P11  1  0.75036200  0.03467200  0.50611800  1
  O  O0  1  0.55107600  0.68249400  0.46355300  1
  O  O1  1  0.63532800  0.10832100  0.42344800  1
  O  O2  1  0.57632500  0.14965200  0.02610800  1
  O  O3  1  0.01341400  0.15540300  0.76470700  1
  O  O4  1  0.79090400  0.13086700  0.16668100  1
  O  O5  1  0.32901700  0.07177600  0.40876700  1
  O  O6  1  0.11350800  0.06918000  0.13334300  1
  O  O7  1  0.13066000  0.05610100  0.56293500  1
  O  O8  1  0.86934000  0.94389900  0.43706500  1
  O  O9  1  0.88649200  0.93082000  0.86665700  1
  O  O10  1  0.67098300  0.92822400  0.59123300  1
  O  O11  1  0.58856000  0.92815800  0.16563000  1
  O  O12  1  0.36467200  0.89167900  0.57655200  1
  O  O13  1  0.20909600  0.86913300  0.83331900  1
  O  O14  1  0.42367500  0.85034800  0.97389200  1
  O  O15  1  0.98658600  0.84459700  0.23529300  1
  O  O16  1  0.17214000  0.83114400  0.42987100  1
  O  O17  1  0.26588000  0.82652600  0.17979900  1
  O  O18  1  0.05107600  0.81750600  0.03644700  1
  O  O19  1  0.48638200  0.80043400  0.77573300  1
  O  O20  1  0.98638200  0.69956600  0.72426700  1
  O  O21  1  0.41144000  0.07184200  0.83437000  1
  O  O22  1  0.76588000  0.67347400  0.32020100  1
  O  O23  1  0.67214000  0.66885600  0.07012900  1
  O  O24  1  0.48658600  0.65540300  0.26470700  1
  O  O25  1  0.92367500  0.64965200  0.52610800  1
  O  O26  1  0.70909600  0.63086700  0.66668100  1
  O  O27  1  0.86467200  0.60832100  0.92344800  1
  O  O28  1  0.17098300  0.57177600  0.90876700  1
  O  O29  1  0.38649200  0.56918000  0.63334300  1
  O  O30  1  0.08856000  0.57184200  0.33437000  1
  O  O31  1  0.36934000  0.55610100  0.06293500  1
  O  O32  1  0.63066000  0.44389900  0.93706500  1
  O  O33  1  0.91144000  0.42815800  0.66563000  1
  O  O34  1  0.61350800  0.43082000  0.36665700  1
  O  O35  1  0.82901700  0.42822400  0.09123300  1
  O  O36  1  0.13532800  0.39167900  0.07655200  1
  O  O37  1  0.29090400  0.36913300  0.33331900  1
  O  O38  1  0.07632500  0.35034800  0.47389200  1
  O  O39  1  0.51341400  0.34459700  0.73529300  1
  O  O40  1  0.32786000  0.33114400  0.92987100  1
  O  O41  1  0.23412000  0.32652600  0.67979900  1
  O  O42  1  0.82786000  0.16885600  0.57012900  1
  O  O43  1  0.01361800  0.30043400  0.27573300  1
  O  O44  1  0.51361800  0.19956600  0.22426700  1
  O  O45  1  0.94892400  0.18249400  0.96355300  1
  O  O46  1  0.73412000  0.17347400  0.82020100  1
  O  O47  1  0.44892400  0.31750600  0.53644700  1
loop_
_geom_bond_atom_site_label_1
_geom_bond_atom_site_label_2
_geom_bond_distance
_geom_bond_site_symmetry_2
Li0 O15 1.960872 1_555
Li0 O22 1.974922 1_555
Li0 O23 1.986249 1_555
Li0 O11 1.999532 1_555
Li1 O3 1.960872 1_555
Li1 O41 1.974922 1_555
Li1 O40 1.986249 1_555
Li1 O21 1.999532 1_555
Li2 O39 1.960872 1_555
Li2 O46 1.974922 1_555
Li2 O42 1.986249 1_555
Li2 O33 1.999532 1_555
Li3 O24 1.960872 1_555
Li3 O17 1.974922 1_555
Li3 O16 1.986249 1_555
Li3 O30 1.999532 1_555
Co0 O1 1.931185 1_555
Co0 O37 1.961493 1_555
Co0 O44 1.964367 1_555
Co0 O34 1.980555 1_555
Co0 O47 2.001247 1_555
Co0 O5 2.003130 1_555
Co1 O36 1.931185 1_655
Co1 O4 1.961493 1_555
Co1 O43 1.964367 1_655
Co1 O6 1.980555 1_655
Co1 O45 2.001247 1_554
Co1 O35 2.003130 1_555
Co2 O38 1.874516 1_555
Co2 O7 1.908957 1_555
Co2 O41 2.012028 1_555
Co2 O42 2.016815 1_455
Co2 O33 2.036941 1_455
Co2 O3 2.051656 1_555
Co3 O2 1.874516 1_556
Co3 O32 1.908957 1_555
Co3 O46 2.012028 1_555
Co3 O40 2.016815 1_555
Co3 O21 2.036941 1_555
Co3 O39 2.051656 1_555
Co4 O14 1.874516 1_554
Co4 O31 1.908957 1_555
Co4 O17 2.012028 1_555
Co4 O23 2.016815 1_555
Co4 O11 2.036941 1_555
Co4 O24 2.051656 1_555
Co5 O25 1.874516 1_555
Co5 O8 1.908957 1_555
Co5 O22 2.012028 1_555
Co5 O16 2.016815 1_655
Co5 O30 2.036941 1_655
Co5 O15 2.051656 1_555
Co6 O27 1.931185 1_455
Co6 O13 1.961493 1_555
Co6 O20 1.964367 1_455
Co6 O9 1.980555 1_455
Co6 O18 2.001247 1_556
Co6 O28 2.003130 1_555
Co7 O12 1.931185 1_555
Co7 O26 1.961493 1_555
Co7 O19 1.964367 1_555
Co7 O29 1.980555 1_555
Co7 O0 2.001247 1_555
Co7 O10 2.003130 1_555
O0 P2 1.533343 1_555
O1 P11 1.544012 1_555
O2 P7 1.552339 1_555
O3 P6 1.551081 1_455
O4 P7 1.548470 1_555
O5 P8 1.533596 1_545
O6 P10 1.546913 1_545
O7 P8 1.544127 1_545
O8 P11 1.544127 1_565
O9 P6 1.546913 1_565
O10 P11 1.533596 1_565
O11 P7 1.544484 1_565
O12 P8 1.544012 1_555
O13 P9 1.548470 1_555
O14 P9 1.552339 1_555
O15 P10 1.551081 1_655
O16 P8 1.548535 1_555
O17 P10 1.548665 1_555
O18 P10 1.533343 1_555
O19 P9 1.534479 1_555
O20 P0 1.534479 1_555
O21 P9 1.544484 1_545
O22 P2 1.548665 1_555
O23 P1 1.548535 1_555
O24 P2 1.551081 1_555
O25 P0 1.552339 1_555
O26 P0 1.548470 1_555
O27 P1 1.544012 1_556
O28 P3 1.533596 1_555
O29 P5 1.546913 1_555
O30 P4 1.544484 1_555
O31 P3 1.544127 1_554
O32 P1 1.544127 1_556
O33 P0 1.544484 1_555
O34 P2 1.546913 1_555
O35 P1 1.533596 1_555
O36 P3 1.544012 1_554
O37 P4 1.548470 1_555
O38 P4 1.552339 1_555
O39 P5 1.551081 1_555
O40 P3 1.548535 1_555
O41 P5 1.548665 1_555
O42 P11 1.548535 1_555
O43 P4 1.534479 1_555
O44 P7 1.534479 1_555
O45 P6 1.533343 1_555
O46 P6 1.548665 1_555
O47 P5 1.533343 1_555
