# generated using pymatgen
data_MgMn6(OF)6
_symmetry_space_group_name_H-M   'P 1'
_cell_length_a   5.30478922
_cell_length_b   14.59581787
_cell_length_c   3.04425000
_cell_angle_alpha   90.00057329
_cell_angle_beta   90.00063223
_cell_angle_gamma   87.53446689
_symmetry_Int_Tables_number   1
_chemical_formula_structural   MgMn6(OF)6
_chemical_formula_sum   'Mg1 Mn6 O6 F6'
_cell_volume   235.49118836
_cell_formula_units_Z   1
loop_
 _symmetry_equiv_pos_site_id
 _symmetry_equiv_pos_as_xyz
  1  'x, y, z'
loop_
 _atom_site_type_symbol
 _atom_site_label
 _atom_site_symmetry_multiplicity
 _atom_site_fract_x
 _atom_site_fract_y
 _atom_site_fract_z
 _atom_site_occupancy
  Mg  Mg0  1  0.87651500  0.84189200  0.49999300  1
  Mn  Mn0  1  0.01939700  0.02881600  0.99996300  1
  Mn  Mn1  1  0.12074100  0.33329700  0.00000800  1
  Mn  Mn2  1  0.94975400  0.64486900  0.00007100  1
  Mn  Mn3  1  0.56032900  0.17783700  0.49992800  1
  Mn  Mn4  1  0.53461300  0.49046900  0.50008300  1
  Mn  Mn5  1  0.35336200  0.81675000  0.50001200  1
  O  O0  1  0.27518900  0.26740000  0.50004300  1
  O  O1  1  0.12022400  0.94453600  0.49997000  1
  O  O2  1  0.09936300  0.78015700  0.00001800  1
  O  O3  1  0.36868500  0.43372000  0.00004200  1
  O  O4  1  0.69177700  0.55149000  0.00007100  1
  O  O5  1  0.84255400  0.08625100  0.49994400  1
  F  F0  1  0.19138900  0.60439200  0.50004600  1
  F  F1  1  0.37202800  0.10636500  0.99988200  1
  F  F2  1  0.74289800  0.24319700  0.99992200  1
  F  F3  1  0.63393600  0.88146200  0.99997000  1
  F  F4  1  0.91160300  0.39040600  0.49999900  1
  F  F5  1  0.68286700  0.72854800  0.50003200  1
loop_
_geom_bond_atom_site_label_1
_geom_bond_atom_site_label_2
_geom_bond_distance
_geom_bond_site_symmetry_2
Mg0 O1 2.020535 1_655
Mg0 O2 2.105810 1_655
Mg0 O2 2.105914 1_656
Mn0 O5 1.957513 1_456
Mn0 O5 1.957600 1_455
Mn0 O1 2.014817 1_545
Mn0 O1 2.014859 1_546
Mn1 O0 1.960896 1_554
Mn1 O0 1.961062 1_555
Mn1 O3 2.011044 1_555
Mn2 O4 1.972541 1_555
Mn2 O2 2.159607 1_655
Mn3 O0 1.956207 1_555
Mn3 O5 1.963724 1_555
Mn4 O3 1.959622 1_556
Mn4 O3 1.959788 1_555
Mn4 O4 1.966961 1_556
Mn4 O4 1.967046 1_555
Mn5 O2 2.116471 1_555
Mn5 O2 2.116526 1_556
Mn5 O1 2.193134 1_555
F0 Mn2 2.059990 1_455
F0 Mn2 2.060115 1_456
F0 Mn4 2.412361 1_555
F1 Mn3 2.119482 1_555
F1 Mn3 2.119652 1_556
F1 Mn0 2.227693 1_555
F2 Mn3 2.060169 1_555
F2 Mn3 2.060225 1_556
F2 Mn1 2.444128 1_656
F3 Mg0 2.059669 1_555
F3 Mg0 2.059760 1_556
F3 Mn5 2.354733 1_555
F3 Mn5 2.354932 1_556
F4 Mn1 2.040314 1_655
F4 Mn1 2.040349 1_656
F4 Mn4 2.425114 1_555
F5 Mg0 1.984528 1_555
F5 Mn5 2.125814 1_555
F5 Mn2 2.379895 1_555
F5 Mn2 2.380042 1_556
