# generated using pymatgen
data_PrMgCoO3
_symmetry_space_group_name_H-M   'P 1'
_cell_length_a   6.97141392
_cell_length_b   3.85788320
_cell_length_c   3.85788320
_cell_angle_alpha   90.00000000
_cell_angle_beta   90.00000000
_cell_angle_gamma   90.00000000
_symmetry_Int_Tables_number   1
_chemical_formula_structural   PrMgCoO3
_chemical_formula_sum   'Pr1 Mg1 Co1 O3'
_cell_volume   103.75738535
_cell_formula_units_Z   1
loop_
 _symmetry_equiv_pos_site_id
 _symmetry_equiv_pos_as_xyz
  1  'x, y, z'
loop_
 _atom_site_type_symbol
 _atom_site_label
 _atom_site_symmetry_multiplicity
 _atom_site_fract_x
 _atom_site_fract_y
 _atom_site_fract_z
 _atom_site_occupancy
  Pr  Pr0  1  0.00000000  0.00000000  -0.00000000  1
  Mg  Mg0  1  0.50000000  0.00000000  -0.00000000  1
  Co  Co0  1  0.49999900  0.49999900  0.49999900  1
  O  O0  1  -0.00000000  0.49999900  0.49999900  1
  O  O1  1  0.49999900  0.00000000  0.49999900  1
  O  O2  1  0.49999900  0.49999900  0.00000000  1
loop_
_geom_bond_atom_site_label_1
_geom_bond_atom_site_label_2
_geom_bond_distance
_geom_bond_site_symmetry_2
Mg0 O1 1.928938 1_555
Mg0 O2 1.928938 1_555
Mg0 O2 1.928945 1_545
Mg0 O1 1.928945 1_554
Co0 O2 1.928938 1_555
Co0 O1 1.928938 1_555
Co0 O1 1.928945 1_565
Co0 O2 1.928945 1_556
O0 Pr0 2.727930 1_555
O0 Pr0 2.727935 1_556
O0 Pr0 2.727935 1_565
O0 Pr0 2.727941 1_566
