# generated using pymatgen
data_NaZrGaP2SO12
_symmetry_space_group_name_H-M   'P 1'
_cell_length_a   8.77298837
_cell_length_b   8.73470160
_cell_length_c   22.86161806
_cell_angle_alpha   90.88054562
_cell_angle_beta   90.00000000
_cell_angle_gamma   120.14510444
_symmetry_Int_Tables_number   1
_chemical_formula_structural   NaZrGaP2SO12
_chemical_formula_sum   'Na6 Zr6 Ga6 P12 S6 O72'
_cell_volume   1514.70396587
_cell_formula_units_Z   6
loop_
 _symmetry_equiv_pos_site_id
 _symmetry_equiv_pos_as_xyz
  1  'x, y, z'
loop_
 _atom_site_type_symbol
 _atom_site_label
 _atom_site_symmetry_multiplicity
 _atom_site_fract_x
 _atom_site_fract_y
 _atom_site_fract_z
 _atom_site_occupancy
  Na  Na0  1  0.98949344  0.99286499  0.50391967  1
  Na  Na1  1  0.00337156  0.99286499  0.00391967  1
  Na  Na2  1  0.65616044  0.32619799  0.83725267  1
  Na  Na3  1  0.67003856  0.32619799  0.33725267  1
  Na  Na4  1  0.32282644  0.65953199  0.17058667  1
  Na  Na5  1  0.33670456  0.65953199  0.67058667  1
  Zr  Zr0  1  0.99943937  0.00222583  0.35433427  1
  Zr  Zr1  1  0.00278646  0.00222583  0.85433427  1
  Zr  Zr2  1  0.66610637  0.33555883  0.68766727  1
  Zr  Zr3  1  0.66945346  0.33555883  0.18766727  1
  Zr  Zr4  1  0.33277237  0.66889283  0.02100127  1
  Zr  Zr5  1  0.33611946  0.66889283  0.52100127  1
  Ga  Ga0  1  0.98434615  0.01017115  0.64843051  1
  Ga  Ga1  1  0.02582500  0.01017115  0.14843051  1
  Ga  Ga2  1  0.65101315  0.34350415  0.98176351  1
  Ga  Ga3  1  0.69249200  0.34350415  0.48176351  1
  Ga  Ga4  1  0.31767915  0.67683815  0.31509751  1
  Ga  Ga5  1  0.35915800  0.67683815  0.81509751  1
  P  P0  1  0.28763739  0.99208107  0.24944925  1
  P  P1  1  0.01223169  0.29517897  0.24892121  1
  P  P2  1  0.28294728  0.29517897  0.74892121  1
  P  P3  1  0.70444368  0.99208107  0.74944925  1
  P  P4  1  0.95430439  0.32541407  0.58278225  1
  P  P5  1  0.67889869  0.62851197  0.58225421  1
  P  P6  1  0.94961428  0.62851197  0.08225421  1
  P  P7  1  0.37111068  0.32541407  0.08278225  1
  P  P8  1  0.62097039  0.65874807  0.91611625  1
  P  P9  1  0.34556469  0.96184597  0.91558821  1
  P  P10  1  0.61628028  0.96184597  0.41558821  1
  P  P11  1  0.03777668  0.65874807  0.41611625  1
  S  S0  1  0.70376287  0.71524223  0.24864085  1
  S  S1  1  0.01147936  0.71524223  0.74864085  1
  S  S2  1  0.37042987  0.04857523  0.58197385  1
  S  S3  1  0.67814636  0.04857523  0.08197385  1
  S  S4  1  0.03709587  0.38190923  0.91530785  1
  S  S5  1  0.34481236  0.38190923  0.41530785  1
  O  O0  1  0.20353653  0.02292810  0.30439172  1
  O  O1  1  0.81330355  0.79220444  0.30227028  1
  O  O2  1  0.97691698  0.17996885  0.30379376  1
  O  O3  1  0.20305187  0.17996885  0.80379376  1
  O  O4  1  0.97890089  0.79220444  0.80227028  1
  O  O5  1  0.81939157  0.02292810  0.80439172  1
  O  O6  1  0.78581195  0.96082585  0.69443749  1
  O  O7  1  0.17200655  0.20408693  0.69370831  1
  O  O8  1  0.03237765  0.81994485  0.69639431  1
  O  O9  1  0.78756720  0.81994485  0.19639431  1
  O  O10  1  0.03208038  0.20408693  0.19370831  1
  O  O11  1  0.17501390  0.96082585  0.19443749  1
  O  O12  1  0.87020353  0.35626110  0.63772472  1
  O  O13  1  0.47997055  0.12553744  0.63560328  1
  O  O14  1  0.64358398  0.51330185  0.63712676  1
  O  O15  1  0.86971887  0.51330185  0.13712676  1
  O  O16  1  0.64556789  0.12553744  0.13560328  1
  O  O17  1  0.48605857  0.35626110  0.13772472  1
  O  O18  1  0.45247895  0.29415885  0.02777049  1
  O  O19  1  0.83867355  0.53741993  0.02704131  1
  O  O20  1  0.69904465  0.15327785  0.02972731  1
  O  O21  1  0.45423420  0.15327785  0.52972731  1
  O  O22  1  0.69874738  0.53741993  0.52704131  1
  O  O23  1  0.84168090  0.29415885  0.52777049  1
  O  O24  1  0.53686953  0.68959510  0.97105872  1
  O  O25  1  0.14663655  0.45887144  0.96893728  1
  O  O26  1  0.31024998  0.84663585  0.97046076  1
  O  O27  1  0.53638487  0.84663585  0.47046076  1
  O  O28  1  0.31223389  0.45887144  0.46893728  1
  O  O29  1  0.15272457  0.68959510  0.47105872  1
  O  O30  1  0.11914495  0.62749285  0.36110449  1
  O  O31  1  0.50533955  0.87075393  0.36037531  1
  O  O32  1  0.36571065  0.48661185  0.36306131  1
  O  O33  1  0.12090020  0.48661185  0.86306131  1
  O  O34  1  0.36541338  0.87075393  0.86037531  1
  O  O35  1  0.50834690  0.62749285  0.86110449  1
  O  O36  1  0.02075416  0.82668493  0.41050379  1
  O  O37  1  0.80297378  0.98247734  0.40999133  1
  O  O38  1  0.18180388  0.20272869  0.41127625  1
  O  O39  1  0.02092482  0.20272869  0.91127625  1
  O  O40  1  0.17950356  0.98247734  0.90999133  1
  O  O41  1  0.80593077  0.82668493  0.91050379  1
  O  O42  1  0.97598512  0.16166575  0.58911294  1
  O  O43  1  0.19396379  0.02626794  0.58945705  1
  O  O44  1  0.84544884  0.81245207  0.59096703  1
  O  O45  1  0.96700323  0.81245207  0.09096703  1
  O  O46  1  0.83230415  0.02626794  0.08945705  1
  O  O47  1  0.18568063  0.16166575  0.08911294  1
  O  O48  1  0.68742116  0.16001793  0.74383679  1
  O  O49  1  0.46964078  0.31581034  0.74332433  1
  O  O50  1  0.84847088  0.53606169  0.74460925  1
  O  O51  1  0.68759182  0.53606169  0.24460925  1
  O  O52  1  0.84617056  0.31581034  0.24332433  1
  O  O53  1  0.47259777  0.16001793  0.24383679  1
  O  O54  1  0.64265212  0.49499875  0.92244594  1
  O  O55  1  0.86063079  0.35960094  0.92279005  1
  O  O56  1  0.51211584  0.14578507  0.92430003  1
  O  O57  1  0.63367023  0.14578507  0.42430003  1
  O  O58  1  0.49897115  0.35960094  0.42279005  1
  O  O59  1  0.85234763  0.49499875  0.42244594  1
  O  O60  1  0.35408716  0.49335193  0.07717079  1
  O  O61  1  0.13630678  0.64914434  0.07665833  1
  O  O62  1  0.51513688  0.86939569  0.07794325  1
  O  O63  1  0.35425782  0.86939569  0.57794325  1
  O  O64  1  0.51283656  0.64914434  0.57665833  1
  O  O65  1  0.13926377  0.49335193  0.57717079  1
  O  O66  1  0.30931812  0.82833275  0.25577994  1
  O  O67  1  0.52729679  0.69293494  0.25612405  1
  O  O68  1  0.17878184  0.47911907  0.25763403  1
  O  O69  1  0.30033623  0.47911907  0.75763403  1
  O  O70  1  0.16563715  0.69293494  0.75612405  1
  O  O71  1  0.51901363  0.82833275  0.75577994  1
loop_
_geom_bond_atom_site_label_1
_geom_bond_atom_site_label_2
_geom_bond_distance
_geom_bond_site_symmetry_2
Na0 O42 2.463447 1_565
Na0 O44 2.477252 1_555
Na0 O43 2.565886 1_665
Na0 O36 2.654743 1_655
Na0 O37 2.672423 1_555
Na0 O38 2.775896 1_665
Na1 O47 2.463447 1_565
Na1 O45 2.477252 1_455
Na1 O46 2.565886 1_465
Na1 O41 2.654743 1_454
Na1 O40 2.672423 1_554
Na1 O39 2.775896 1_564
Na2 O54 2.463447 1_555
Na2 O56 2.477252 1_555
Na2 O55 2.565886 1_555
Na2 O48 2.654743 1_555
Na2 O49 2.672423 1_555
Na2 O50 2.775896 1_555
Na3 O59 2.463447 1_555
Na3 O57 2.477252 1_555
Na3 O58 2.565886 1_555
Na3 O53 2.654743 1_555
Na3 O52 2.672423 1_555
Na3 O51 2.775896 1_555
Na4 O66 2.463447 1_555
Na4 O68 2.477252 1_555
Na4 O67 2.565886 1_555
Na4 O60 2.654743 1_555
Na4 O61 2.672423 1_555
Na4 O62 2.775896 1_555
Na5 O71 2.463447 1_555
Na5 O69 2.477252 1_555
Na5 O70 2.565886 1_555
Na5 O65 2.654743 1_555
Na5 O64 2.672423 1_555
Na5 O63 2.775896 1_555
Ga0 O6 1.893574 1_545
Ga0 O42 1.935984 1_555
Ga0 O7 1.948382 1_655
Ga0 O44 2.002464 1_545
Ga0 O8 2.213588 1_645
Ga0 O43 2.228328 1_655
Ga1 O11 1.893574 1_545
Ga1 O47 1.935984 1_555
Ga1 O10 1.948382 1_555
Ga1 O45 2.002464 1_445
Ga1 O9 2.213588 1_445
Ga1 O46 2.228328 1_455
Ga2 O18 1.893574 1_556
Ga2 O54 1.935984 1_555
Ga2 O19 1.948382 1_556
Ga2 O56 2.002464 1_555
Ga2 O20 2.213588 1_556
Ga2 O55 2.228328 1_555
Ga3 O23 1.893574 1_555
Ga3 O59 1.935984 1_555
Ga3 O22 1.948382 1_555
Ga3 O57 2.002464 1_555
Ga3 O21 2.213588 1_555
Ga3 O58 2.228328 1_555
Ga4 O30 1.893574 1_555
Ga4 O66 1.935984 1_555
Ga4 O31 1.948382 1_555
Ga4 O68 2.002464 1_555
Ga4 O32 2.213588 1_555
Ga4 O67 2.228328 1_555
Ga5 O35 1.893574 1_555
Ga5 O71 1.935984 1_555
Ga5 O34 1.948382 1_555
Ga5 O69 2.002464 1_555
Ga5 O33 2.213588 1_555
Ga5 O70 2.228328 1_555
O0 P0 1.544007 1_545
O0 Zr0 2.055120 1_455
O1 S0 1.484740 1_555
O1 Zr0 2.091108 1_565
O2 P1 1.551788 1_655
O2 Zr0 2.036585 1_555
O3 P2 1.551788 1_555
O3 Zr1 2.036585 1_555
O4 S1 1.484740 1_655
O4 Zr1 2.091108 1_665
O5 P3 1.544007 1_545
O5 Zr1 2.055120 1_655
O6 P3 1.533294 1_555
O7 P2 1.537849 1_555
O8 S1 1.470327 1_555
O9 S0 1.470327 1_555
O10 P1 1.537849 1_555
O11 P0 1.533294 1_555
O12 P4 1.544007 1_555
O12 Zr2 2.055120 1_555
O13 S2 1.484740 1_555
O13 Zr2 2.091108 1_555
O14 P5 1.551788 1_555
O14 Zr2 2.036585 1_555
O15 P6 1.551788 1_555
O15 Zr3 2.036585 1_555
O16 S3 1.484740 1_555
O16 Zr3 2.091108 1_555
O17 P7 1.544007 1_555
O17 Zr3 2.055120 1_555
O18 P7 1.533294 1_555
O19 P6 1.537849 1_555
O20 S3 1.470327 1_555
O21 S2 1.470327 1_555
O22 P5 1.537849 1_555
O23 P4 1.533294 1_555
O24 P8 1.544007 1_555
O24 Zr4 2.055120 1_556
O25 S4 1.484740 1_555
O25 Zr4 2.091108 1_556
O26 P9 1.551788 1_555
O26 Zr4 2.036585 1_556
O27 P10 1.551788 1_555
O27 Zr5 2.036585 1_555
O28 S5 1.484740 1_555
O28 Zr5 2.091108 1_555
O29 P11 1.544007 1_555
O29 Zr5 2.055120 1_555
O30 P11 1.533294 1_555
O31 P10 1.537849 1_555
O32 S5 1.470327 1_555
O33 S4 1.470327 1_555
O34 P9 1.537849 1_555
O35 P8 1.533294 1_555
O36 P11 1.554446 1_555
O36 Zr0 2.093666 1_465
O37 P10 1.560670 1_555
O37 Zr0 2.080307 1_565
O38 S5 1.500223 1_555
O38 Zr0 2.106455 1_455
O39 S4 1.500227 1_555
O39 Zr1 2.106455 1_555
O40 P9 1.560661 1_555
O40 Zr1 2.080307 1_565
O41 P8 1.554451 1_555
O41 Zr1 2.093666 1_665
O42 P4 1.543524 1_555
O43 S2 1.470376 1_555
O44 P5 1.545409 1_555
O45 P6 1.545412 1_555
O46 S3 1.470368 1_555
O47 P7 1.543529 1_555
O48 P3 1.554446 1_545
O48 Zr2 2.093666 1_555
O49 P2 1.560670 1_555
O49 Zr2 2.080307 1_555
O50 S1 1.500223 1_655
O50 Zr2 2.106455 1_555
O51 S0 1.500227 1_555
O51 Zr3 2.106455 1_555
O52 P1 1.560661 1_655
O52 Zr3 2.080307 1_555
O53 P0 1.554451 1_545
O53 Zr3 2.093666 1_555
O54 P8 1.543535 1_555
O55 S4 1.470362 1_655
O56 P9 1.545405 1_545
O57 P10 1.545397 1_545
O58 S5 1.470379 1_555
O59 P11 1.543525 1_655
O60 P7 1.554458 1_555
O60 Zr4 2.093666 1_555
O61 P6 1.560656 1_455
O61 Zr4 2.080307 1_555
O62 S3 1.500221 1_565
O62 Zr4 2.106455 1_555
O63 S2 1.500213 1_565
O63 Zr5 2.106455 1_555
O64 P5 1.560673 1_555
O64 Zr5 2.080307 1_555
O65 P4 1.554448 1_455
O65 Zr5 2.093666 1_555
O66 P0 1.543524 1_555
O67 S0 1.470376 1_555
O68 P1 1.545409 1_555
O69 P2 1.545412 1_555
O70 S1 1.470368 1_555
O71 P3 1.543529 1_555
