# generated using pymatgen
data_Na3MgScP2SO12
_symmetry_space_group_name_H-M   'P 1'
_cell_length_a   9.00120860
_cell_length_b   8.97054742
_cell_length_c   22.40076097
_cell_angle_alpha   90.04979814
_cell_angle_beta   90.00000000
_cell_angle_gamma   120.11313051
_symmetry_Int_Tables_number   1
_chemical_formula_structural   Na3MgScP2SO12
_chemical_formula_sum   'Na18 Mg6 Sc6 P12 S6 O72'
_cell_volume   1564.64833227
_cell_formula_units_Z   6
loop_
 _symmetry_equiv_pos_site_id
 _symmetry_equiv_pos_as_xyz
  1  'x, y, z'
loop_
 _atom_site_type_symbol
 _atom_site_label
 _atom_site_symmetry_multiplicity
 _atom_site_fract_x
 _atom_site_fract_y
 _atom_site_fract_z
 _atom_site_occupancy
  Na  Na0  1  0.35751448  0.35548533  0.24667649  1
  Na  Na1  1  0.99905205  0.63062044  0.24555651  1
  Na  Na2  1  0.63156839  0.63062044  0.74555651  1
  Na  Na3  1  0.99797086  0.35548533  0.74667649  1
  Na  Na4  1  0.02418148  0.68881833  0.58000949  1
  Na  Na5  1  0.66571905  0.96395344  0.57888951  1
  Na  Na6  1  0.29823539  0.96395344  0.07888951  1
  Na  Na7  1  0.66463786  0.68881833  0.08000949  1
  Na  Na8  1  0.69084748  0.02215233  0.91334349  1
  Na  Na9  1  0.33238505  0.29728744  0.91222351  1
  Na  Na10  1  0.96490139  0.29728744  0.41222351  1
  Na  Na11  1  0.33130386  0.02215233  0.41334349  1
  Na  Na12  1  0.98291474  0.98693044  0.49611812  1
  Na  Na13  1  0.00401570  0.98693044  0.99611812  1
  Na  Na14  1  0.64958174  0.32026344  0.82945112  1
  Na  Na15  1  0.67068270  0.32026344  0.32945112  1
  Na  Na16  1  0.31624774  0.65359744  0.16278512  1
  Na  Na17  1  0.33734870  0.65359744  0.66278512  1
  Mg  Mg0  1  0.99127541  0.99502890  0.35014713  1
  Mg  Mg1  1  0.00375349  0.99502890  0.85014713  1
  Mg  Mg2  1  0.65794241  0.32836190  0.68348013  1
  Mg  Mg3  1  0.67042049  0.32836190  0.18348013  1
  Mg  Mg4  1  0.32460841  0.66169590  0.01681413  1
  Mg  Mg5  1  0.33708649  0.66169590  0.51681413  1
  Sc  Sc0  1  0.00178572  0.01303022  0.64957504  1
  Sc  Sc1  1  0.01124450  0.01303022  0.14957504  1
  Sc  Sc2  1  0.66845272  0.34636322  0.98290804  1
  Sc  Sc3  1  0.67791150  0.34636322  0.48290804  1
  Sc  Sc4  1  0.33511872  0.67969722  0.31624204  1
  Sc  Sc5  1  0.34457750  0.67969722  0.81624204  1
  P  P0  1  0.29826473  0.00505713  0.25138380  1
  P  P1  1  0.99713880  0.29498452  0.25362601  1
  P  P2  1  0.29784572  0.29498452  0.75362601  1
  P  P3  1  0.70679240  0.00505713  0.75138380  1
  P  P4  1  0.96493173  0.33839013  0.58471680  1
  P  P5  1  0.66380580  0.62831752  0.58695901  1
  P  P6  1  0.96451272  0.62831752  0.08695901  1
  P  P7  1  0.37345940  0.33839013  0.08471680  1
  P  P8  1  0.63159773  0.67172413  0.91805080  1
  P  P9  1  0.33047180  0.96165152  0.92029301  1
  P  P10  1  0.63117872  0.96165152  0.42029301  1
  P  P11  1  0.04012540  0.67172413  0.41805080  1
  S  S0  1  0.70513069  0.70557701  0.24948035  1
  S  S1  1  0.00044632  0.70557701  0.74948035  1
  S  S2  1  0.37179769  0.03891001  0.58281335  1
  S  S3  1  0.66711332  0.03891001  0.08281335  1
  S  S4  1  0.03846369  0.37224401  0.91614735  1
  S  S5  1  0.33377932  0.37224401  0.41614735  1
  O  O0  1  0.21113715  0.02792791  0.30697720  1
  O  O1  1  0.81504108  0.79184224  0.30127003  1
  O  O2  1  0.97925184  0.19362540  0.31075446  1
  O  O3  1  0.21437356  0.19362540  0.81075446  1
  O  O4  1  0.97680116  0.79184224  0.80127003  1
  O  O5  1  0.81679076  0.02792791  0.80697720  1
  O  O6  1  0.79011093  0.97246524  0.69502760  1
  O  O7  1  0.17945508  0.20405924  0.69895576  1
  O  O8  1  0.02453523  0.80465737  0.69365518  1
  O  O9  1  0.78012214  0.80465737  0.19365518  1
  O  O10  1  0.02460416  0.20405924  0.19895576  1
  O  O11  1  0.18235431  0.97246524  0.19502760  1
  O  O12  1  0.87780415  0.36126091  0.64031020  1
  O  O13  1  0.48170808  0.12517524  0.63460303  1
  O  O14  1  0.64591884  0.52695840  0.64408746  1
  O  O15  1  0.88104056  0.52695840  0.14408746  1
  O  O16  1  0.64346816  0.12517524  0.13460303  1
  O  O17  1  0.48345776  0.36126091  0.14031020  1
  O  O18  1  0.45677793  0.30579824  0.02836060  1
  O  O19  1  0.84612208  0.53739224  0.03228876  1
  O  O20  1  0.69120223  0.13799037  0.02698818  1
  O  O21  1  0.44678914  0.13799037  0.52698818  1
  O  O22  1  0.69127116  0.53739224  0.53228876  1
  O  O23  1  0.84902131  0.30579824  0.52836060  1
  O  O24  1  0.54447015  0.69459491  0.97364420  1
  O  O25  1  0.14837408  0.45850924  0.96793703  1
  O  O26  1  0.31258484  0.86029240  0.97742146  1
  O  O27  1  0.54770656  0.86029240  0.47742146  1
  O  O28  1  0.31013416  0.45850924  0.46793703  1
  O  O29  1  0.15012376  0.69459491  0.47364420  1
  O  O30  1  0.12344393  0.63913224  0.36169460  1
  O  O31  1  0.51278808  0.87072624  0.36562276  1
  O  O32  1  0.35786823  0.47132437  0.36032218  1
  O  O33  1  0.11345514  0.47132437  0.86032218  1
  O  O34  1  0.35793716  0.87072624  0.86562276  1
  O  O35  1  0.51568731  0.63913224  0.86169460  1
  O  O36  1  0.02652657  0.83503320  0.41034362  1
  O  O37  1  0.81496121  0.99341959  0.41285398  1
  O  O38  1  0.17701902  0.19754980  0.41211205  1
  O  O39  1  0.02053078  0.19754980  0.91211205  1
  O  O40  1  0.17845838  0.99341959  0.91285398  1
  O  O41  1  0.80850663  0.83503320  0.91034362  1
  O  O42  1  0.97632785  0.17020939  0.58827981  1
  O  O43  1  0.19521187  0.01273985  0.58862919  1
  O  O44  1  0.83502893  0.80975677  0.58857767  1
  O  O45  1  0.97472784  0.80975677  0.08857767  1
  O  O46  1  0.81752799  0.01273985  0.08862919  1
  O  O47  1  0.19388154  0.17020939  0.08827981  1
  O  O48  1  0.69319357  0.16836620  0.74367662  1
  O  O49  1  0.48162821  0.32675259  0.74618698  1
  O  O50  1  0.84368602  0.53088280  0.74544505  1
  O  O51  1  0.68719778  0.53088280  0.24544505  1
  O  O52  1  0.84512538  0.32675259  0.24618698  1
  O  O53  1  0.47517363  0.16836620  0.24367662  1
  O  O54  1  0.64299485  0.50354239  0.92161281  1
  O  O55  1  0.86187887  0.34607285  0.92196219  1
  O  O56  1  0.50169593  0.14308977  0.92191067  1
  O  O57  1  0.64139484  0.14308977  0.42191067  1
  O  O58  1  0.48419499  0.34607285  0.42196219  1
  O  O59  1  0.86054854  0.50354239  0.42161281  1
  O  O60  1  0.35985957  0.50170020  0.07701062  1
  O  O61  1  0.14829421  0.66008659  0.07952098  1
  O  O62  1  0.51035202  0.86421680  0.07877905  1
  O  O63  1  0.35386378  0.86421680  0.57877905  1
  O  O64  1  0.51179138  0.66008659  0.57952098  1
  O  O65  1  0.14183963  0.50170020  0.57701062  1
  O  O66  1  0.30966085  0.83687639  0.25494681  1
  O  O67  1  0.52854487  0.67940685  0.25529619  1
  O  O68  1  0.16836193  0.47642377  0.25524467  1
  O  O69  1  0.30806084  0.47642377  0.75524467  1
  O  O70  1  0.15086099  0.67940685  0.75529619  1
  O  O71  1  0.52721454  0.83687639  0.75494681  1
loop_
_geom_bond_atom_site_label_1
_geom_bond_atom_site_label_2
_geom_bond_distance
_geom_bond_site_symmetry_2
Na0 O53 2.393183 1_555
Na0 O68 2.442487 1_555
Na0 O67 2.522116 1_555
Na0 O51 2.568593 1_555
Na0 O17 2.627984 1_555
Na0 O32 2.748226 1_555
Na0 O10 2.807231 1_555
Na0 O0 2.883882 1_555
Na1 O52 2.358094 1_555
Na1 O66 2.468414 1_655
Na1 O51 2.481943 1_555
Na1 O15 2.482883 1_555
Na1 O68 2.529572 1_655
Na1 O30 2.818085 1_655
Na1 O11 2.887256 1_655
Na1 O1 2.965316 1_555
Na2 O49 2.358094 1_555
Na2 O71 2.468421 1_555
Na2 O50 2.481951 1_555
Na2 O14 2.482885 1_555
Na2 O69 2.529580 1_555
Na2 O35 2.818088 1_555
Na2 O6 2.887256 1_555
Na2 O4 2.965316 1_555
Na3 O48 2.393176 1_555
Na3 O69 2.442478 1_655
Na3 O70 2.522116 1_655
Na3 O50 2.568585 1_555
Na3 O12 2.627980 1_555
Na3 O33 2.748224 1_655
Na3 O7 2.807231 1_655
Na3 O5 2.883882 1_555
Na4 O65 2.393167 1_555
Na4 O44 2.442487 1_455
Na4 O43 2.522116 1_565
Na4 O63 2.568585 1_555
Na4 O29 2.627958 1_555
Na4 O8 2.748226 1_555
Na4 O22 2.807231 1_455
Na4 O12 2.883882 1_455
Na5 O64 2.358086 1_555
Na5 O42 2.468414 1_565
Na5 O63 2.481953 1_555
Na5 O27 2.482863 1_555
Na5 O44 2.529572 1_555
Na5 O6 2.818085 1_555
Na5 O23 2.887256 1_565
Na5 O13 2.965316 1_565
Na6 O61 2.358086 1_555
Na6 O47 2.468421 1_565
Na6 O62 2.481936 1_555
Na6 O26 2.482859 1_554
Na6 O45 2.529580 1_455
Na6 O11 2.818088 1_555
Na6 O18 2.887256 1_565
Na6 O16 2.965316 1_565
Na7 O60 2.393181 1_555
Na7 O45 2.442478 1_555
Na7 O46 2.522116 1_565
Na7 O62 2.568600 1_555
Na7 O24 2.627966 1_554
Na7 O9 2.748224 1_555
Na7 O19 2.807231 1_555
Na7 O17 2.883882 1_555
Na8 O41 2.393183 1_545
Na8 O56 2.442469 1_555
Na8 O55 2.522107 1_555
Na8 O39 2.568593 1_655
Na8 O5 2.627984 1_555
Na8 O20 2.748200 1_556
Na8 O34 2.807231 1_545
Na8 O24 2.883882 1_545
Na9 O40 2.358094 1_545
Na9 O54 2.468417 1_555
Na9 O39 2.481943 1_555
Na9 O3 2.482883 1_555
Na9 O56 2.529586 1_555
Na9 O18 2.818069 1_556
Na9 O35 2.887256 1_555
Na9 O25 2.965316 1_555
Na10 O37 2.358094 1_545
Na10 O59 2.468404 1_555
Na10 O38 2.481951 1_655
Na10 O2 2.482885 1_555
Na10 O57 2.529570 1_555
Na10 O23 2.818062 1_555
Na10 O30 2.887256 1_655
Na10 O28 2.965316 1_655
Na11 O36 2.393176 1_545
Na11 O57 2.442486 1_555
Na11 O58 2.522107 1_555
Na11 O38 2.568585 1_555
Na11 O0 2.627980 1_555
Na11 O21 2.748203 1_555
Na11 O31 2.807231 1_545
Na11 O29 2.883882 1_545
Na12 O37 2.419973 1_555
Na12 O36 2.496957 1_655
Na12 O44 2.543724 1_555
Na12 O38 2.618654 1_665
Na12 O42 2.657190 1_565
Na12 O43 2.748634 1_665
Na13 O40 2.419973 1_555
Na13 O41 2.496957 1_455
Na13 O45 2.543724 1_456
Na13 O39 2.618654 1_565
Na13 O47 2.657190 1_566
Na13 O46 2.748634 1_466
Na14 O49 2.419973 1_555
Na14 O48 2.496957 1_555
Na14 O56 2.543724 1_555
Na14 O50 2.618654 1_555
Na14 O54 2.657190 1_555
Na14 O55 2.748634 1_555
Na15 O52 2.419973 1_555
Na15 O53 2.496957 1_555
Na15 O57 2.543724 1_555
Na15 O51 2.618654 1_555
Na15 O59 2.657190 1_555
Na15 O58 2.748634 1_555
Na16 O61 2.419973 1_555
Na16 O60 2.496957 1_555
Na16 O68 2.543724 1_555
Na16 O62 2.618654 1_555
Na16 O66 2.657190 1_555
Na16 O67 2.748634 1_555
Na17 O64 2.419973 1_555
Na17 O65 2.496957 1_555
Na17 O69 2.543724 1_555
Na17 O63 2.618654 1_555
Na17 O71 2.657190 1_555
Na17 O70 2.748634 1_555
Mg0 O1 2.032898 1_555
Mg0 O2 2.039706 1_565
Mg0 O0 2.086441 1_665
Mg0 O36 2.106955 1_655
Mg0 O37 2.114020 1_555
Mg0 O38 2.229423 1_665
Mg1 O4 2.032898 1_455
Mg1 O3 2.039706 1_565
Mg1 O5 2.086441 1_465
Mg1 O41 2.106955 1_455
Mg1 O40 2.114020 1_555
Mg1 O39 2.229423 1_565
Mg2 O13 2.032898 1_555
Mg2 O14 2.039706 1_555
Mg2 O12 2.086441 1_555
Mg2 O48 2.106955 1_555
Mg2 O49 2.114020 1_555
Mg2 O50 2.229423 1_555
Mg3 O16 2.032898 1_555
Mg3 O15 2.039706 1_555
Mg3 O17 2.086441 1_555
Mg3 O53 2.106955 1_555
Mg3 O52 2.114020 1_555
Mg3 O51 2.229423 1_555
Mg4 O25 2.032898 1_554
Mg4 O26 2.039706 1_554
Mg4 O24 2.086441 1_554
Mg4 O60 2.106955 1_555
Mg4 O61 2.114020 1_555
Mg4 O62 2.229423 1_555
Mg5 O28 2.032898 1_555
Mg5 O27 2.039706 1_555
Mg5 O29 2.086441 1_555
Mg5 O65 2.106955 1_555
Mg5 O64 2.114020 1_555
Mg5 O63 2.229423 1_555
O0 P0 1.539159 1_555
O1 S0 1.467562 1_555
O2 P1 1.531492 1_555
O3 P2 1.531492 1_555
O4 S1 1.467562 1_655
O5 P3 1.539159 1_555
O6 P3 1.568761 1_565
O6 Sc0 2.025910 1_665
O7 P2 1.557813 1_555
O7 Sc0 1.991115 1_555
O8 S1 1.486392 1_555
O8 Sc0 2.213189 1_565
O9 S0 1.486392 1_555
O9 Sc1 2.213189 1_665
O10 P1 1.557813 1_455
O10 Sc1 1.991115 1_555
O11 P0 1.568761 1_565
O11 Sc1 2.025910 1_565
O12 P4 1.539159 1_555
O13 S2 1.467562 1_555
O14 P5 1.531492 1_555
O15 P6 1.531492 1_555
O16 S3 1.467562 1_555
O17 P7 1.539159 1_555
O18 P7 1.568761 1_555
O18 Sc2 2.025910 1_554
O19 P6 1.557813 1_555
O19 Sc2 1.991115 1_554
O20 S3 1.486392 1_555
O20 Sc2 2.213189 1_554
O21 S2 1.486392 1_555
O21 Sc3 2.213189 1_555
O22 P5 1.557813 1_555
O22 Sc3 1.991115 1_555
O23 P4 1.568761 1_555
O23 Sc3 2.025910 1_555
O24 P8 1.539159 1_555
O25 S4 1.467562 1_555
O26 P9 1.531492 1_555
O27 P10 1.531492 1_555
O28 S5 1.467562 1_555
O29 P11 1.539159 1_555
O30 P11 1.568761 1_555
O30 Sc4 2.025910 1_555
O31 P10 1.557813 1_555
O31 Sc4 1.991115 1_555
O32 S5 1.486392 1_555
O32 Sc4 2.213189 1_555
O33 S4 1.486392 1_555
O33 Sc5 2.213189 1_555
O34 P9 1.557813 1_555
O34 Sc5 1.991115 1_555
O35 P8 1.568761 1_555
O35 Sc5 2.025910 1_555
O36 P11 1.539905 1_555
O37 P10 1.540330 1_555
O38 S5 1.495312 1_555
O39 S4 1.495315 1_555
O40 P9 1.540321 1_555
O41 P8 1.539910 1_555
O42 P4 1.564763 1_555
O42 Sc0 2.062384 1_655
O43 S2 1.491368 1_555
O43 Sc0 2.213535 1_555
O44 P5 1.583856 1_555
O44 Sc0 2.166649 1_665
O45 P6 1.583860 1_555
O45 Sc1 2.166649 1_665
O46 S3 1.491359 1_555
O46 Sc1 2.213534 1_655
O47 P7 1.564768 1_555
O47 Sc1 2.062384 1_555
O48 P3 1.539905 1_555
O49 P2 1.540330 1_555
O50 S1 1.495312 1_655
O51 S0 1.495315 1_555
O52 P1 1.540321 1_555
O53 P0 1.539910 1_555
O54 P8 1.564776 1_555
O54 Sc2 2.062384 1_555
O55 S4 1.491354 1_655
O55 Sc2 2.213535 1_555
O56 P9 1.583854 1_545
O56 Sc2 2.166649 1_555
O57 P10 1.583846 1_545
O57 Sc3 2.166649 1_555
O58 S5 1.491372 1_555
O58 Sc3 2.213534 1_555
O59 P11 1.564766 1_655
O59 Sc3 2.062384 1_555
O60 P7 1.539916 1_555
O61 P6 1.540315 1_455
O62 S3 1.495309 1_565
O63 S2 1.495301 1_565
O64 P5 1.540333 1_555
O65 P4 1.539906 1_455
O66 P0 1.564763 1_565
O66 Sc4 2.062384 1_555
O67 S0 1.491368 1_555
O67 Sc4 2.213535 1_555
O68 P1 1.583856 1_455
O68 Sc4 2.166649 1_555
O69 P2 1.583860 1_555
O69 Sc5 2.166649 1_555
O70 S1 1.491359 1_555
O70 Sc5 2.213534 1_555
O71 P3 1.564768 1_565
O71 Sc5 2.062384 1_555
