# generated using pymatgen
data_MgV4O5F7
_symmetry_space_group_name_H-M   'P 1'
_cell_length_a   5.14128602
_cell_length_b   7.57801790
_cell_length_c   5.47989602
_cell_angle_alpha   92.77243517
_cell_angle_beta   87.85741213
_cell_angle_gamma   90.55869735
_symmetry_Int_Tables_number   1
_chemical_formula_structural   MgV4O5F7
_chemical_formula_sum   'Mg1 V4 O5 F7'
_cell_volume   213.09516687
_cell_formula_units_Z   1
loop_
 _symmetry_equiv_pos_site_id
 _symmetry_equiv_pos_as_xyz
  1  'x, y, z'
loop_
 _atom_site_type_symbol
 _atom_site_label
 _atom_site_symmetry_multiplicity
 _atom_site_fract_x
 _atom_site_fract_y
 _atom_site_fract_z
 _atom_site_occupancy
  Mg  Mg0  1  0.51595000  0.71171400  0.09415200  1
  V  V0  1  0.46509000  0.48751200  0.50049000  1
  V  V1  1  0.48152900  0.98309000  0.49709500  1
  V  V2  1  0.02754600  0.48834600  0.00687700  1
  V  V3  1  0.99673700  0.00983600  0.99124600  1
  O  O0  1  0.70968500  0.93649200  0.17182900  1
  O  O1  1  0.41238500  0.75779500  0.47889300  1
  O  O2  1  0.32232900  0.47592800  0.19345900  1
  O  O3  1  0.26545100  0.04194300  0.78164400  1
  O  O4  1  0.21306900  0.44977100  0.69768900  1
  F  F0  1  0.87471000  0.25256100  0.00298000  1
  F  F1  1  0.79550200  0.56443400  0.30241500  1
  F  F2  1  0.78474500  0.95299900  0.69187800  1
  F  F3  1  0.70258800  0.57412000  0.82238200  1
  F  F4  1  0.59780300  0.24223600  0.48558600  1
  F  F5  1  0.19988200  0.05950400  0.28823500  1
  F  F6  1  0.14749600  0.75278500  0.99315100  1
loop_
_geom_bond_atom_site_label_1
_geom_bond_atom_site_label_2
_geom_bond_distance
_geom_bond_site_symmetry_2
Mg0 O0 2.000811 1_555
Mg0 O2 2.120985 1_555
Mg0 O1 2.167722 1_555
O0 V3 1.842341 1_564
O0 V1 2.113894 1_555
O1 V1 1.739397 1_555
O1 V0 2.078284 1_555
O2 V0 1.858499 1_555
O2 V2 1.865248 1_555
O3 V3 1.785761 1_455
O3 V1 1.917634 1_545
O4 V0 1.687129 1_555
O4 V2 1.924224 1_556
F0 V2 1.944395 1_655
F0 V3 1.946556 1_554
F1 V2 2.038914 1_655
F1 V0 2.075500 1_555
F1 Mg0 2.211559 1_555
F2 V1 1.943309 1_555
F2 V3 2.029991 1_565
F3 Mg0 1.997079 1_556
F3 V2 2.108777 1_656
F3 V0 2.250910 1_555
F4 V0 1.983152 1_555
F4 V1 2.050407 1_545
F5 V3 1.985276 1_454
F5 V1 1.986566 1_545
F6 Mg0 2.024411 1_556
F6 V2 2.094921 1_556
F6 V3 2.104129 1_465
