# generated using pymatgen
data_MgCo6(O2F)4
_symmetry_space_group_name_H-M   'P 1'
_cell_length_a   8.08584555
_cell_length_b   5.65752565
_cell_length_c   5.82326752
_cell_angle_alpha   65.24668026
_cell_angle_beta   63.46810311
_cell_angle_gamma   64.54330281
_symmetry_Int_Tables_number   1
_chemical_formula_structural   MgCo6(O2F)4
_chemical_formula_sum   'Mg1 Co6 O8 F4'
_cell_volume   206.54760649
_cell_formula_units_Z   1
loop_
 _symmetry_equiv_pos_site_id
 _symmetry_equiv_pos_as_xyz
  1  'x, y, z'
loop_
 _atom_site_type_symbol
 _atom_site_label
 _atom_site_symmetry_multiplicity
 _atom_site_fract_x
 _atom_site_fract_y
 _atom_site_fract_z
 _atom_site_occupancy
  Mg  Mg0  1  0.32987120  0.64884392  0.18019870  1
  Co  Co0  1  0.83101198  0.67643268  0.66551373  1
  Co  Co1  1  0.33589687  0.66457933  0.66716190  1
  Co  Co2  1  0.67119637  0.35014501  0.35986061  1
  Co  Co3  1  0.10239714  0.30653398  0.29877339  1
  Co  Co4  1  0.52337046  0.02462917  0.01951662  1
  Co  Co5  1  0.97893672  0.01293080  0.99365813  1
  O  O0  1  0.34795795  0.38579308  0.00030745  1
  O  O1  1  0.69679757  0.04124938  0.66144376  1
  O  O2  1  0.94138866  0.25600931  0.19889438  1
  O  O3  1  0.40681027  0.41114543  0.50031757  1
  O  O4  1  0.31014864  0.94667087  0.33588095  1
  O  O5  1  0.62921058  0.64503098  0.04312313  1
  O  O6  1  0.97453930  0.29975538  0.68297075  1
  O  O7  1  0.03323073  0.70108881  0.28629207  1
  F  F0  1  0.63689453  0.61710320  0.55715313  1
  F  F1  1  0.28220370  0.92737825  0.84836550  1
  F  F2  1  0.03274098  0.74865394  0.79079443  1
  F  F3  1  0.69465536  0.08602649  0.14727379  1
loop_
_geom_bond_atom_site_label_1
_geom_bond_atom_site_label_2
_geom_bond_distance
_geom_bond_site_symmetry_2
Mg0 O3 1.971815 1_555
Mg0 O0 2.077285 1_555
Mg0 O7 2.107568 1_555
Mg0 O4 2.146036 1_555
Mg0 O5 2.177038 1_555
Co0 O1 1.869415 1_565
Co0 O6 1.922629 1_555
Co0 O5 2.060557 1_556
Co0 O7 2.069275 1_655
Co0 F0 2.118875 1_555
Co0 F2 2.290312 1_655
Co1 O3 1.814021 1_555
Co1 O0 1.932664 1_556
Co1 O4 1.951121 1_555
Co1 F1 1.965221 1_555
Co1 F2 2.112133 1_555
Co1 F0 2.143645 1_555
Co2 O3 1.843432 1_555
Co2 O2 1.877122 1_555
Co2 O1 1.903889 1_555
Co2 O5 1.948384 1_555
Co2 F0 2.118075 1_555
Co2 F3 2.212903 1_555
Co3 O2 1.802922 1_455
Co3 O6 1.992877 1_455
Co3 O4 2.007339 1_545
Co3 O7 2.031761 1_555
Co3 O0 2.047924 1_555
Co4 O5 1.908226 1_545
Co4 O0 1.912655 1_555
Co4 O1 1.913121 1_554
Co4 O4 1.922650 1_545
Co4 F3 2.035393 1_555
Co5 O6 1.859317 1_555
Co5 O7 1.922003 1_646
Co5 F3 1.977527 1_556
Co5 O2 2.026097 1_556
Co5 F2 2.069077 1_645
Co5 F1 2.105311 1_645
F1 Mg0 1.989728 1_556
