# generated using pymatgen
data_BaMnSb2
_symmetry_space_group_name_H-M   'P 1'
_cell_length_a   12.75611409
_cell_length_b   12.75611409
_cell_length_c   12.75611409
_cell_angle_alpha   159.74141664
_cell_angle_beta   159.74141664
_cell_angle_gamma   28.80329797
_symmetry_Int_Tables_number   1
_chemical_formula_structural   BaMnSb2
_chemical_formula_sum   'Ba2 Mn2 Sb4'
_cell_volume   248.73247506
_cell_formula_units_Z   2
loop_
 _symmetry_equiv_pos_site_id
 _symmetry_equiv_pos_as_xyz
  1  'x, y, z'
loop_
 _atom_site_type_symbol
 _atom_site_label
 _atom_site_symmetry_multiplicity
 _atom_site_fract_x
 _atom_site_fract_y
 _atom_site_fract_z
 _atom_site_occupancy
  Ba  Ba0  1  0.88525800  0.88525800  0.00000000  1
  Ba  Ba1  1  0.11474200  0.11474200  0.00000000  1
  Mn  Mn0  1  0.25000000  0.75000000  0.50000000  1
  Mn  Mn1  1  0.75000000  0.25000000  0.50000000  1
  Sb  Sb0  1  0.68532800  0.68532800  0.00000000  1
  Sb  Sb1  1  0.31467200  0.31467200  0.00000000  1
  Sb  Sb2  1  0.00000000  0.50000000  0.50000000  1
  Sb  Sb3  1  0.50000000  0.00000000  0.50000000  1
loop_
_geom_bond_atom_site_label_1
_geom_bond_atom_site_label_2
_geom_bond_distance
_geom_bond_site_symmetry_2
Ba0 Sb2 3.615530 1_665
Ba0 Sb3 3.615530 1_665
Ba0 Sb3 3.615530 1_564
Ba0 Sb2 3.615530 1_654
Ba0 Sb1 3.620517 1_666
Ba0 Sb1 3.620517 1_655
Ba0 Sb1 3.620517 1_554
Ba0 Sb1 3.620517 1_565
Ba1 Sb3 3.615530 1_454
Ba1 Sb2 3.615530 1_544
Ba1 Sb3 3.615530 1_555
Ba1 Sb2 3.615530 1_555
Ba1 Sb0 3.620517 1_545
Ba1 Sb0 3.620517 1_455
Ba1 Sb0 3.620517 1_556
Ba1 Sb0 3.620517 1_444
Mn0 Sb1 2.754411 1_566
Mn0 Sb1 2.754411 1_555
Mn0 Sb0 2.754411 1_455
Mn0 Sb0 2.754411 1_556
Mn1 Sb1 2.754411 1_555
Mn1 Sb1 2.754411 1_656
Mn1 Sb0 2.754411 1_556
Mn1 Sb0 2.754411 1_545
Sb2 Sb3 3.172672 1_566
Sb2 Sb3 3.172672 1_465
Sb2 Sb3 3.172672 1_454
Sb2 Sb3 3.172672 1_555
