# generated using pymatgen
data_Pb4IF7
_symmetry_space_group_name_H-M   'P 1'
_cell_length_a   13.08428283
_cell_length_b   13.08428283
_cell_length_c   6.07885200
_cell_angle_alpha   90.00000000
_cell_angle_beta   90.00000000
_cell_angle_gamma   152.74152579
_symmetry_Int_Tables_number   1
_chemical_formula_structural   Pb4IF7
_chemical_formula_sum   'Pb8 I2 F14'
_cell_volume   476.64167603
_cell_formula_units_Z   2
loop_
 _symmetry_equiv_pos_site_id
 _symmetry_equiv_pos_as_xyz
  1  'x, y, z'
loop_
 _atom_site_type_symbol
 _atom_site_label
 _atom_site_symmetry_multiplicity
 _atom_site_fract_x
 _atom_site_fract_y
 _atom_site_fract_z
 _atom_site_occupancy
  Pb  Pb0  1  0.82529000  0.17471000  0.25000000  1
  Pb  Pb1  1  0.17471000  0.82529000  0.75000000  1
  Pb  Pb2  1  0.45301200  0.54698800  0.25000000  1
  Pb  Pb3  1  0.54698800  0.45301200  0.75000000  1
  Pb  Pb4  1  0.65264000  0.34736000  0.25000000  1
  Pb  Pb5  1  0.34736000  0.65264000  0.75000000  1
  Pb  Pb6  1  0.05885600  0.94114400  0.25000000  1
  Pb  Pb7  1  0.94114400  0.05885600  0.75000000  1
  I  I0  1  0.25018700  0.74981300  0.25000000  1
  I  I1  1  0.74981300  0.25018700  0.75000000  1
  F  F0  1  0.35288800  0.10984200  0.51858400  1
  F  F1  1  0.64711200  0.89015800  0.01858400  1
  F  F2  1  0.10984200  0.35288800  0.48141600  1
  F  F3  1  0.89015800  0.64711200  0.98141600  1
  F  F4  1  0.64711200  0.89015800  0.48141600  1
  F  F5  1  0.35288800  0.10984200  0.98141600  1
  F  F6  1  0.89015800  0.64711200  0.51858400  1
  F  F7  1  0.10984200  0.35288800  0.01858400  1
  F  F8  1  0.22731100  0.22731100  0.50000000  1
  F  F9  1  0.77268900  0.77268900  0.00000000  1
  F  F10  1  0.43730500  0.56269500  0.75000000  1
  F  F11  1  0.56269500  0.43730500  0.25000000  1
  F  F12  1  0.22731100  0.22731100  0.00000000  1
  F  F13  1  0.77268900  0.77268900  0.50000000  1
loop_
_geom_bond_atom_site_label_1
_geom_bond_atom_site_label_2
_geom_bond_distance
_geom_bond_site_symmetry_2
I0 Pb1 3.594804 1_555
I0 Pb1 3.594804 1_554
I0 Pb0 3.626834 1_455
I0 Pb0 3.626834 1_565
I1 Pb0 3.594804 1_556
I1 Pb0 3.594804 1_555
I1 Pb1 3.626834 1_545
I1 Pb1 3.626834 1_655
F0 Pb1 2.417422 1_545
F0 Pb4 2.456796 1_555
F0 Pb6 2.690911 1_545
F1 Pb0 2.417422 1_565
F1 Pb5 2.456796 1_554
F1 Pb7 2.690911 1_564
F2 Pb0 2.417422 1_455
F2 Pb5 2.456796 1_555
F2 Pb7 2.690911 1_455
F3 Pb1 2.417422 1_655
F3 Pb4 2.456796 1_556
F3 Pb6 2.690911 1_656
F4 Pb0 2.417422 1_565
F4 Pb5 2.456796 1_555
F4 Pb7 2.690911 1_565
F5 Pb1 2.417422 1_545
F5 Pb4 2.456796 1_556
F5 Pb6 2.690911 1_546
F6 Pb1 2.417422 1_655
F6 Pb4 2.456796 1_555
F6 Pb6 2.690911 1_655
F7 Pb0 2.417422 1_455
F7 Pb5 2.456796 1_554
F7 Pb7 2.690911 1_454
F8 Pb7 2.552379 1_455
F8 Pb6 2.552379 1_545
F8 Pb3 2.562207 1_555
F8 Pb2 2.562207 1_555
F9 Pb7 2.552379 1_564
F9 Pb6 2.552379 1_655
F9 Pb3 2.562207 1_554
F9 Pb2 2.562207 1_555
F10 Pb5 2.287453 1_555
F11 Pb4 2.287453 1_555
F12 Pb7 2.552379 1_454
F12 Pb6 2.552379 1_545
F12 Pb2 2.562207 1_555
F12 Pb3 2.562207 1_554
F13 Pb7 2.552379 1_565
F13 Pb6 2.552379 1_655
F13 Pb3 2.562207 1_555
F13 Pb2 2.562207 1_555
