# generated using pymatgen
data_MgWOF4
_symmetry_space_group_name_H-M   'P 1'
_cell_length_a   3.89802800
_cell_length_b   5.55963321
_cell_length_c   5.55678503
_cell_angle_alpha   96.90735974
_cell_angle_beta   110.53288320
_cell_angle_gamma   69.47811005
_symmetry_Int_Tables_number   1
_chemical_formula_structural   MgWOF4
_chemical_formula_sum   'Mg1 W1 O1 F4'
_cell_volume   105.61668876
_cell_formula_units_Z   1
loop_
 _symmetry_equiv_pos_site_id
 _symmetry_equiv_pos_as_xyz
  1  'x, y, z'
loop_
 _atom_site_type_symbol
 _atom_site_label
 _atom_site_symmetry_multiplicity
 _atom_site_fract_x
 _atom_site_fract_y
 _atom_site_fract_z
 _atom_site_occupancy
  Mg  Mg0  1  0.81303500  0.50000000  0.50000000  1
  W  W0  1  0.06018600  0.00000000  0.00000000  1
  O  O0  1  0.55988300  0.00000000  0.00000000  1
  F  F0  1  0.02953200  0.31657900  0.24774200  1
  F  F1  1  0.77525300  0.24862200  0.68255900  1
  F  F2  1  0.34131600  0.75137800  0.31744100  1
  F  F3  1  0.09836800  0.68342100  0.75225800  1
loop_
_geom_bond_atom_site_label_1
_geom_bond_atom_site_label_2
_geom_bond_distance
_geom_bond_site_symmetry_2
O0 W0 1.947833 1_555
O0 W0 1.950195 1_655
F0 Mg0 1.897260 1_455
F0 W0 2.095806 1_555
F1 Mg0 1.895813 1_555
F1 W0 2.095580 1_656
F2 Mg0 1.895813 1_555
F2 W0 2.095580 1_565
F3 Mg0 1.897258 1_455
F3 W0 2.095806 1_566
