# generated using pymatgen
data_MgV2CoO6
_symmetry_space_group_name_H-M   'P 1'
_cell_length_a   3.82061592
_cell_length_b   5.54307432
_cell_length_c   6.82436877
_cell_angle_alpha   83.65705226
_cell_angle_beta   89.99809966
_cell_angle_gamma   110.14214495
_symmetry_Int_Tables_number   1
_chemical_formula_structural   MgV2CoO6
_chemical_formula_sum   'Mg1 V2 Co1 O6'
_cell_volume   134.74419968
_cell_formula_units_Z   1
loop_
 _symmetry_equiv_pos_site_id
 _symmetry_equiv_pos_as_xyz
  1  'x, y, z'
loop_
 _atom_site_type_symbol
 _atom_site_label
 _atom_site_symmetry_multiplicity
 _atom_site_fract_x
 _atom_site_fract_y
 _atom_site_fract_z
 _atom_site_occupancy
  Mg  Mg0  1  0.14896932  0.32155914  0.10412518  1
  V  V0  1  0.80524609  0.63444558  0.33455188  1
  V  V1  1  0.22306672  0.46978052  0.67587726  1
  Co  Co0  1  0.88232810  0.78864879  0.92236946  1
  O  O0  1  0.77445435  0.57267692  0.62378323  1
  O  O1  1  0.07047016  0.16446182  0.80272834  1
  O  O2  1  0.95748332  0.93979239  0.20409891  1
  O  O3  1  0.25383419  0.53145220  0.38409740  1
  O  O4  1  0.32544620  0.67463535  0.88620536  1
  O  O5  1  0.69570055  0.41504630  0.13623898  1
loop_
_geom_bond_atom_site_label_1
_geom_bond_atom_site_label_2
_geom_bond_distance
_geom_bond_site_symmetry_2
Mg0 O5 1.989648 1_455
Mg0 O5 1.989849 1_555
Mg0 O2 2.023258 1_445
Mg0 O4 2.223653 1_554
Mg0 O1 2.301040 1_554
Mg0 O3 2.309732 1_555
Co0 O4 2.023754 1_555
Co0 O4 2.024306 1_655
Co0 O1 2.028733 1_665
Co0 O2 2.161278 1_556
Co0 O5 2.289630 1_556
Co0 O0 2.440154 1_555
O0 V0 1.962131 1_555
O0 V1 2.004314 1_555
O0 V1 2.004473 1_655
O1 V1 1.717627 1_555
O2 V0 1.727614 1_555
O3 V1 1.979271 1_555
O3 V0 2.001887 1_555
O3 V0 2.002222 1_455
O4 V1 1.885987 1_555
O5 V0 1.870543 1_555
