# generated using pymatgen
data_MgTe4Mo(WS)2
_symmetry_space_group_name_H-M   'P 1'
_cell_length_a   6.81899000
_cell_length_b   6.81912830
_cell_length_c   76.18420002
_cell_angle_alpha   90.00161786
_cell_angle_beta   89.99999850
_cell_angle_gamma   119.99928317
_symmetry_Int_Tables_number   1
_chemical_formula_structural   MgTe4Mo(WS)2
_chemical_formula_sum   'Mg8 Te32 Mo8 W16 S16'
_cell_volume   3067.94518277
_cell_formula_units_Z   8
loop_
 _symmetry_equiv_pos_site_id
 _symmetry_equiv_pos_as_xyz
  1  'x, y, z'
loop_
 _atom_site_type_symbol
 _atom_site_label
 _atom_site_symmetry_multiplicity
 _atom_site_fract_x
 _atom_site_fract_y
 _atom_site_fract_z
 _atom_site_occupancy
  Mg  Mg0_0  1  0.49999950  0.49999850  0.11826050  1
  Mg  Mg0_1  1  0.49999950  0.49999850  0.61826050  1
  Mg  Mg0_2  1  0.49999950  0.99999850  0.11826050  1
  Mg  Mg0_3  1  0.49999950  0.99999850  0.61826050  1
  Mg  Mg0_4  1  0.99999950  0.49999850  0.11826050  1
  Mg  Mg0_5  1  0.99999950  0.49999850  0.61826050  1
  Mg  Mg0_6  1  0.99999950  0.99999850  0.11826050  1
  Mg  Mg0_7  1  0.99999950  0.99999850  0.61826050  1
  Te  Te0_0  1  0.33331900  0.16663750  0.03027950  1
  Te  Te0_1  1  0.33331900  0.16663750  0.53027950  1
  Te  Te0_2  1  0.33331900  0.66663750  0.03027950  1
  Te  Te0_3  1  0.33331900  0.66663750  0.53027950  1
  Te  Te0_4  1  0.83331900  0.16663750  0.03027950  1
  Te  Te0_5  1  0.83331900  0.16663750  0.53027950  1
  Te  Te0_6  1  0.83331900  0.66663750  0.03027950  1
  Te  Te0_7  1  0.83331900  0.66663750  0.53027950  1
  Te  Te1_0  1  0.33331650  0.16663200  0.26441100  1
  Te  Te1_1  1  0.33331650  0.16663200  0.76441100  1
  Te  Te1_2  1  0.33331650  0.66663200  0.26441100  1
  Te  Te1_3  1  0.33331650  0.66663200  0.76441100  1
  Te  Te1_4  1  0.83331650  0.16663200  0.26441100  1
  Te  Te1_5  1  0.83331650  0.16663200  0.76441100  1
  Te  Te1_6  1  0.83331650  0.66663200  0.26441100  1
  Te  Te1_7  1  0.83331650  0.66663200  0.76441100  1
  Te  Te2_0  1  0.33332000  0.16664050  0.07952800  1
  Te  Te2_1  1  0.33332000  0.16664050  0.57952800  1
  Te  Te2_2  1  0.33332000  0.66664050  0.07952800  1
  Te  Te2_3  1  0.33332000  0.66664050  0.57952800  1
  Te  Te2_4  1  0.83332000  0.16664050  0.07952800  1
  Te  Te2_5  1  0.83332000  0.16664050  0.57952800  1
  Te  Te2_6  1  0.83332000  0.66664050  0.07952800  1
  Te  Te2_7  1  0.83332000  0.66664050  0.57952800  1
  Te  Te3_0  1  0.33332300  0.16664500  0.31369900  1
  Te  Te3_1  1  0.33332300  0.16664500  0.81369900  1
  Te  Te3_2  1  0.33332300  0.66664500  0.31369900  1
  Te  Te3_3  1  0.33332300  0.66664500  0.81369900  1
  Te  Te3_4  1  0.83332300  0.16664500  0.31369900  1
  Te  Te3_5  1  0.83332300  0.16664500  0.81369900  1
  Te  Te3_6  1  0.83332300  0.66664500  0.31369900  1
  Te  Te3_7  1  0.83332300  0.66664500  0.81369900  1
  Mo  Mo0_0  1  0.16668200  0.33336400  0.05478650  1
  Mo  Mo0_1  1  0.16668200  0.33336400  0.55478650  1
  Mo  Mo0_2  1  0.16668200  0.83336400  0.05478650  1
  Mo  Mo0_3  1  0.16668200  0.83336400  0.55478650  1
  Mo  Mo0_4  1  0.66668200  0.33336400  0.05478650  1
  Mo  Mo0_5  1  0.66668200  0.33336400  0.55478650  1
  Mo  Mo0_6  1  0.66668200  0.83336400  0.05478650  1
  Mo  Mo0_7  1  0.66668200  0.83336400  0.55478650  1
  W  W0_0  1  0.16668200  0.33336400  0.28905300  1
  W  W0_1  1  0.16668200  0.33336400  0.78905300  1
  W  W0_2  1  0.16668200  0.83336400  0.28905300  1
  W  W0_3  1  0.16668200  0.83336400  0.78905300  1
  W  W0_4  1  0.66668200  0.33336400  0.28905300  1
  W  W0_5  1  0.66668200  0.33336400  0.78905300  1
  W  W0_6  1  0.66668200  0.83336400  0.28905300  1
  W  W0_7  1  0.66668200  0.83336400  0.78905300  1
  W  W1_0  1  0.33331300  0.16662700  0.17814600  1
  W  W1_1  1  0.33331300  0.16662700  0.67814600  1
  W  W1_2  1  0.33331300  0.66662700  0.17814600  1
  W  W1_3  1  0.33331300  0.66662700  0.67814600  1
  W  W1_4  1  0.83331300  0.16662700  0.17814600  1
  W  W1_5  1  0.83331300  0.16662700  0.67814600  1
  W  W1_6  1  0.83331300  0.66662700  0.17814600  1
  W  W1_7  1  0.83331300  0.66662700  0.67814600  1
  S  S0_0  1  0.16667000  0.33334050  0.19778850  1
  S  S0_1  1  0.16667000  0.33334050  0.69778850  1
  S  S0_2  1  0.16667000  0.83334050  0.19778850  1
  S  S0_3  1  0.16667000  0.83334050  0.69778850  1
  S  S0_4  1  0.66667000  0.33334050  0.19778850  1
  S  S0_5  1  0.66667000  0.33334050  0.69778850  1
  S  S0_6  1  0.66667000  0.83334050  0.19778850  1
  S  S0_7  1  0.66667000  0.83334050  0.69778850  1
  S  S1_0  1  0.16667500  0.33335050  0.15838600  1
  S  S1_1  1  0.16667500  0.33335050  0.65838600  1
  S  S1_2  1  0.16667500  0.83335050  0.15838600  1
  S  S1_3  1  0.16667500  0.83335050  0.65838600  1
  S  S1_4  1  0.66667500  0.33335050  0.15838600  1
  S  S1_5  1  0.66667500  0.33335050  0.65838600  1
  S  S1_6  1  0.66667500  0.83335050  0.15838600  1
  S  S1_7  1  0.66667500  0.83335050  0.65838600  1
loop_
_geom_bond_atom_site_label_1
_geom_bond_atom_site_label_2
_geom_bond_distance
_geom_bond_site_symmetry_2
Mg0_0 Mg0_4 3.409495 1_455
Mg0_0 Mg0_4 3.409495 1_555
Mg0_0 Mg0_2 3.409564 1_545
Mg0_0 Mg0_2 3.409564 1_555
Mg0_0 Mg0_6 3.409567 1_445
Mg0_0 Mg0_6 3.409567 1_555
Mg0_0 Te2_6 3.547123 1_555
Mg0_0 Te2_2 3.547125 1_555
Mg0_0 Te2_0 3.547188 1_555
Mg0_1 Mg0_5 3.409495 1_455
Mg0_1 Mg0_5 3.409495 1_555
Mg0_1 Mg0_3 3.409564 1_545
Mg0_1 Mg0_3 3.409564 1_555
Mg0_1 Mg0_7 3.409567 1_555
Mg0_1 Mg0_7 3.409567 1_445
Mg0_1 Te2_7 3.547123 1_555
Mg0_1 Te2_3 3.547125 1_555
Mg0_1 Te2_1 3.547188 1_555
Mg0_2 Mg0_6 3.409495 1_455
Mg0_2 Mg0_6 3.409495 1_555
Mg0_2 Mg0_4 3.409567 1_455
Mg0_2 Mg0_4 3.409567 1_565
Mg0_2 Te2_4 3.547123 1_565
Mg0_2 Te2_0 3.547125 1_565
Mg0_2 Te2_2 3.547188 1_555
Mg0_3 Mg0_7 3.409495 1_455
Mg0_3 Mg0_7 3.409495 1_555
Mg0_3 Mg0_5 3.409567 1_565
Mg0_3 Mg0_5 3.409567 1_455
Mg0_3 Te2_5 3.547123 1_565
Mg0_3 Te2_1 3.547125 1_565
Mg0_3 Te2_3 3.547188 1_555
Mg0_4 Mg0_6 3.409564 1_545
Mg0_4 Mg0_6 3.409564 1_555
Mg0_4 Te2_2 3.547123 1_655
Mg0_4 Te2_6 3.547125 1_555
Mg0_4 Te2_4 3.547188 1_555
Mg0_5 Mg0_7 3.409564 1_545
Mg0_5 Mg0_7 3.409564 1_555
Mg0_5 Te2_3 3.547123 1_655
Mg0_5 Te2_7 3.547125 1_555
Mg0_5 Te2_5 3.547188 1_555
Mg0_6 Te2_0 3.547123 1_665
Mg0_6 Te2_4 3.547125 1_565
Mg0_6 Te2_6 3.547188 1_555
Mg0_7 Te2_1 3.547123 1_665
Mg0_7 Te2_5 3.547125 1_565
Mg0_7 Te2_7 3.547188 1_555
Te1_0 W0_2 2.719962 1_545
Te1_0 W0_4 2.720283 1_555
Te1_0 W0_0 2.720286 1_555
Te1_1 W0_3 2.719962 1_545
Te1_1 W0_5 2.720283 1_555
Te1_1 W0_1 2.720286 1_555
Te1_2 W0_0 2.719962 1_555
Te1_2 W0_6 2.720283 1_555
Te1_2 W0_2 2.720286 1_555
Te1_3 W0_1 2.719962 1_555
Te1_3 W0_7 2.720283 1_555
Te1_3 W0_3 2.720286 1_555
Te1_4 W0_6 2.719962 1_545
Te1_4 W0_0 2.720283 1_655
Te1_4 W0_4 2.720286 1_555
Te1_5 W0_7 2.719962 1_545
Te1_5 W0_1 2.720283 1_655
Te1_5 W0_5 2.720286 1_555
Te1_6 W0_4 2.719962 1_555
Te1_6 W0_2 2.720283 1_655
Te1_6 W0_6 2.720286 1_555
Te1_7 W0_5 2.719962 1_555
Te1_7 W0_3 2.720283 1_655
Te1_7 W0_7 2.720286 1_555
Te3_0 W0_2 2.720139 1_545
Te3_0 W0_4 2.720510 1_555
Te3_0 W0_0 2.720513 1_555
Te3_1 W0_3 2.720139 1_545
Te3_1 W0_5 2.720510 1_555
Te3_1 W0_1 2.720513 1_555
Te3_2 W0_0 2.720139 1_555
Te3_2 W0_6 2.720510 1_555
Te3_2 W0_2 2.720513 1_555
Te3_3 W0_1 2.720139 1_555
Te3_3 W0_7 2.720510 1_555
Te3_3 W0_3 2.720513 1_555
Te3_4 W0_6 2.720139 1_545
Te3_4 W0_0 2.720510 1_655
Te3_4 W0_4 2.720513 1_555
Te3_5 W0_7 2.720139 1_545
Te3_5 W0_1 2.720510 1_655
Te3_5 W0_5 2.720513 1_555
Te3_6 W0_4 2.720139 1_555
Te3_6 W0_2 2.720510 1_655
Te3_6 W0_6 2.720513 1_555
Te3_7 W0_5 2.720139 1_555
Te3_7 W0_3 2.720510 1_655
Te3_7 W0_7 2.720513 1_555
Mo0_0 Te0_2 2.712897 1_555
Mo0_0 Te0_4 2.713185 1_455
Mo0_0 Te0_0 2.713186 1_555
Mo0_0 Te2_2 2.725147 1_555
Mo0_0 Te2_0 2.725546 1_555
Mo0_0 Te2_4 2.725549 1_455
Mo0_1 Te0_3 2.712897 1_555
Mo0_1 Te0_5 2.713185 1_455
Mo0_1 Te0_1 2.713186 1_555
Mo0_1 Te2_3 2.725147 1_555
Mo0_1 Te2_1 2.725546 1_555
Mo0_1 Te2_5 2.725549 1_455
Mo0_2 Te0_0 2.712897 1_565
Mo0_2 Te0_6 2.713185 1_455
Mo0_2 Te0_2 2.713186 1_555
Mo0_2 Te2_0 2.725147 1_565
Mo0_2 Te2_2 2.725546 1_555
Mo0_2 Te2_6 2.725549 1_455
Mo0_3 Te0_1 2.712897 1_565
Mo0_3 Te0_7 2.713185 1_455
Mo0_3 Te0_3 2.713186 1_555
Mo0_3 Te2_1 2.725147 1_565
Mo0_3 Te2_3 2.725546 1_555
Mo0_3 Te2_7 2.725549 1_455
Mo0_4 Te0_6 2.712897 1_555
Mo0_4 Te0_0 2.713185 1_555
Mo0_4 Te0_4 2.713186 1_555
Mo0_4 Te2_6 2.725147 1_555
Mo0_4 Te2_4 2.725546 1_555
Mo0_4 Te2_0 2.725549 1_555
Mo0_5 Te0_7 2.712897 1_555
Mo0_5 Te0_1 2.713185 1_555
Mo0_5 Te0_5 2.713186 1_555
Mo0_5 Te2_7 2.725147 1_555
Mo0_5 Te2_5 2.725546 1_555
Mo0_5 Te2_1 2.725549 1_555
Mo0_6 Te0_4 2.712897 1_565
Mo0_6 Te0_2 2.713185 1_555
Mo0_6 Te0_6 2.713186 1_555
Mo0_6 Te2_4 2.725147 1_565
Mo0_6 Te2_6 2.725546 1_555
Mo0_6 Te2_2 2.725549 1_555
Mo0_7 Te0_5 2.712897 1_565
Mo0_7 Te0_3 2.713185 1_555
Mo0_7 Te0_7 2.713186 1_555
Mo0_7 Te2_5 2.725147 1_565
Mo0_7 Te2_7 2.725546 1_555
Mo0_7 Te2_3 2.725549 1_555
S0_0 W1_2 2.472561 1_555
S0_0 W1_0 2.472799 1_555
S0_0 W1_4 2.472803 1_455
S0_1 W1_3 2.472561 1_555
S0_1 W1_1 2.472799 1_555
S0_1 W1_5 2.472803 1_455
S0_2 W1_0 2.472561 1_565
S0_2 W1_2 2.472799 1_555
S0_2 W1_6 2.472803 1_455
S0_3 W1_1 2.472561 1_565
S0_3 W1_3 2.472799 1_555
S0_3 W1_7 2.472803 1_455
S0_4 W1_6 2.472561 1_555
S0_4 W1_4 2.472799 1_555
S0_4 W1_0 2.472803 1_555
S0_5 W1_7 2.472561 1_555
S0_5 W1_5 2.472799 1_555
S0_5 W1_1 2.472803 1_555
S0_6 W1_4 2.472561 1_565
S0_6 W1_6 2.472799 1_555
S0_6 W1_2 2.472803 1_555
S0_7 W1_5 2.472561 1_565
S0_7 W1_7 2.472799 1_555
S0_7 W1_3 2.472803 1_555
S1_0 W1_2 2.477865 1_555
S1_0 W1_0 2.478289 1_555
S1_0 W1_4 2.478292 1_455
S1_1 W1_3 2.477865 1_555
S1_1 W1_1 2.478289 1_555
S1_1 W1_5 2.478292 1_455
S1_2 W1_0 2.477865 1_565
S1_2 W1_2 2.478289 1_555
S1_2 W1_6 2.478292 1_455
S1_3 W1_1 2.477865 1_565
S1_3 W1_3 2.478289 1_555
S1_3 W1_7 2.478292 1_455
S1_4 W1_6 2.477865 1_555
S1_4 W1_4 2.478289 1_555
S1_4 W1_0 2.478292 1_555
S1_5 W1_7 2.477865 1_555
S1_5 W1_5 2.478289 1_555
S1_5 W1_1 2.478292 1_555
S1_6 W1_4 2.477865 1_565
S1_6 W1_6 2.478289 1_555
S1_6 W1_2 2.478292 1_555
S1_7 W1_5 2.477865 1_565
S1_7 W1_7 2.478289 1_555
S1_7 W1_3 2.478292 1_555
