# generated using pymatgen
data_Na12NbZn5(PO4)9
_symmetry_space_group_name_H-M   'P 1'
_cell_length_a   9.08806455
_cell_length_b   9.08806424
_cell_length_c   22.04045424
_cell_angle_alpha   90.00000000
_cell_angle_beta   90.00000000
_cell_angle_gamma   120.00000117
_symmetry_Int_Tables_number   1
_chemical_formula_structural   Na12NbZn5(PO4)9
_chemical_formula_sum   'Na24 Nb2 Zn10 P18 O72'
_cell_volume   1576.49994038
_cell_formula_units_Z   2
loop_
 _symmetry_equiv_pos_site_id
 _symmetry_equiv_pos_as_xyz
  1  'x, y, z'
loop_
 _atom_site_type_symbol
 _atom_site_label
 _atom_site_symmetry_multiplicity
 _atom_site_fract_x
 _atom_site_fract_y
 _atom_site_fract_z
 _atom_site_occupancy
  Na  Na0  1  0.63252888  0.99941166  0.25018867  1
  Na  Na1  1  0.36688278  0.36747112  0.25018867  1
  Na  Na2  1  0.00058834  0.63311722  0.25018867  1
  Na  Na3  1  0.63252888  0.63311722  0.75018867  1
  Na  Na4  1  0.00058834  0.36747112  0.75018867  1
  Na  Na5  1  0.36688278  0.99941166  0.75018867  1
  Na  Na6  1  0.29264167  0.33355758  0.58757969  1
  Na  Na7  1  0.04091691  0.70735833  0.58757969  1
  Na  Na8  1  0.66644242  0.95908309  0.58757969  1
  Na  Na9  1  0.29264167  0.95908309  0.08757969  1
  Na  Na10  1  0.66644242  0.70735833  0.08757969  1
  Na  Na11  1  0.04091691  0.33355758  0.08757969  1
  Na  Na12  1  0.97966872  0.68287092  0.90805184  1
  Na  Na13  1  0.70320120  0.02033128  0.90805184  1
  Na  Na14  1  0.31712908  0.29679880  0.90805184  1
  Na  Na15  1  0.97966872  0.29679880  0.40805184  1
  Na  Na16  1  0.31712908  0.02033128  0.40805184  1
  Na  Na17  1  0.70320120  0.68287092  0.40805184  1
  Na  Na18  1  -0.00000000  0.00000000  0.50003166  1
  Na  Na19  1  -0.00000000  0.00000000  0.00003166  1
  Na  Na20  1  0.66666700  0.33333300  0.82258539  1
  Na  Na21  1  0.66666700  0.33333300  0.32258539  1
  Na  Na22  1  0.33333300  0.66666700  0.17014438  1
  Na  Na23  1  0.33333300  0.66666700  0.67014438  1
  Nb  Nb0  1  0.66666700  0.33333300  0.98202703  1
  Nb  Nb1  1  0.66666700  0.33333300  0.48202703  1
  Zn  Zn0  1  -0.00000000  0.00000000  0.34135775  1
  Zn  Zn1  1  -0.00000000  0.00000000  0.84135775  1
  Zn  Zn2  1  -0.00000000  0.00000000  0.65762012  1
  Zn  Zn3  1  -0.00000000  0.00000000  0.15762012  1
  Zn  Zn4  1  0.66666700  0.33333300  0.68283827  1
  Zn  Zn5  1  0.66666700  0.33333300  0.18283827  1
  Zn  Zn6  1  0.33333300  0.66666700  0.01281885  1
  Zn  Zn7  1  0.33333300  0.66666700  0.51281885  1
  Zn  Zn8  1  0.33333300  0.66666700  0.31807447  1
  Zn  Zn9  1  0.33333300  0.66666700  0.81807447  1
  P  P0  1  0.29752216  0.99897787  0.24992173  1
  P  P1  1  0.70145571  0.70247784  0.24992173  1
  P  P2  1  0.00102213  0.29854429  0.24992173  1
  P  P3  1  0.29752216  0.29854429  0.74992173  1
  P  P4  1  0.00102213  0.70247784  0.74992173  1
  P  P5  1  0.70145571  0.99897787  0.74992173  1
  P  P6  1  0.96354888  0.33572918  0.58511906  1
  P  P7  1  0.37218130  0.03645112  0.58511906  1
  P  P8  1  0.66427082  0.62781870  0.58511906  1
  P  P9  1  0.96354888  0.62781870  0.08511906  1
  P  P10  1  0.66427082  0.03645112  0.08511906  1
  P  P11  1  0.37218130  0.33572918  0.08511906  1
  P  P12  1  0.62897581  0.66709529  0.91815134  1
  P  P13  1  0.03811848  0.37102419  0.91815134  1
  P  P14  1  0.33290471  0.96188152  0.91815134  1
  P  P15  1  0.62897581  0.96188152  0.41815134  1
  P  P16  1  0.33290471  0.37102419  0.41815134  1
  P  P17  1  0.03811848  0.66709529  0.41815134  1
  O  O0  1  0.21690277  0.02742750  0.30749890  1
  O  O1  1  0.81052473  0.78309723  0.30749890  1
  O  O2  1  0.97257250  0.18947527  0.30749890  1
  O  O3  1  0.21690277  0.18947527  0.80749890  1
  O  O4  1  0.97257250  0.78309723  0.80749890  1
  O  O5  1  0.81052473  0.02742750  0.80749890  1
  O  O6  1  0.78232703  0.97042637  0.69224270  1
  O  O7  1  0.18809934  0.21767297  0.69224270  1
  O  O8  1  0.02957363  0.81190066  0.69224270  1
  O  O9  1  0.78232703  0.81190066  0.19224270  1
  O  O10  1  0.02957363  0.21767297  0.19224270  1
  O  O11  1  0.18809934  0.97042637  0.19224270  1
  O  O12  1  0.88013014  0.36254761  0.64092912  1
  O  O13  1  0.48241847  0.11986986  0.64092912  1
  O  O14  1  0.63745239  0.51758153  0.64092912  1
  O  O15  1  0.88013014  0.51758153  0.14092912  1
  O  O16  1  0.63745239  0.11986986  0.14092912  1
  O  O17  1  0.48241847  0.36254761  0.14092912  1
  O  O18  1  0.47492314  0.31810324  0.02818608  1
  O  O19  1  0.84318110  0.52507686  0.02818608  1
  O  O20  1  0.68189676  0.15681890  0.02818608  1
  O  O21  1  0.47492314  0.15681890  0.52818608  1
  O  O22  1  0.68189676  0.52507686  0.52818608  1
  O  O23  1  0.84318110  0.31810324  0.52818608  1
  O  O24  1  0.55019115  0.69345751  0.97556259  1
  O  O25  1  0.14326537  0.44980885  0.97556259  1
  O  O26  1  0.30654249  0.85673463  0.97556259  1
  O  O27  1  0.55019115  0.85673463  0.47556259  1
  O  O28  1  0.30654249  0.44980885  0.47556259  1
  O  O29  1  0.14326537  0.69345751  0.47556259  1
  O  O30  1  0.10829672  0.62438567  0.36161406  1
  O  O31  1  0.51608794  0.89170328  0.36161406  1
  O  O32  1  0.37561433  0.48391206  0.36161406  1
  O  O33  1  0.10829672  0.48391206  0.86161406  1
  O  O34  1  0.37561433  0.89170328  0.86161406  1
  O  O35  1  0.51608794  0.62438567  0.86161406  1
  O  O36  1  0.00858873  0.81951430  0.41273908  1
  O  O37  1  0.81092557  0.99141127  0.41273908  1
  O  O38  1  0.18048570  0.18907443  0.41273908  1
  O  O39  1  0.00858873  0.18907443  0.91273908  1
  O  O40  1  0.18048570  0.99141127  0.91273908  1
  O  O41  1  0.81092557  0.81951430  0.91273908  1
  O  O42  1  0.96918418  0.16952120  0.58287873  1
  O  O43  1  0.20033701  0.03081582  0.58287873  1
  O  O44  1  0.83047880  0.79966299  0.58287873  1
  O  O45  1  0.96918418  0.79966299  0.08287873  1
  O  O46  1  0.83047880  0.03081582  0.08287873  1
  O  O47  1  0.20033701  0.16952120  0.08287873  1
  O  O48  1  0.68369996  0.16077442  0.74629710  1
  O  O49  1  0.47707547  0.31630004  0.74629710  1
  O  O50  1  0.83922558  0.52292453  0.74629710  1
  O  O51  1  0.68369996  0.52292453  0.24629710  1
  O  O52  1  0.83922558  0.31630004  0.24629710  1
  O  O53  1  0.47707547  0.16077442  0.24629710  1
  O  O54  1  0.64835804  0.50047628  0.92543263  1
  O  O55  1  0.85211924  0.35164196  0.92543263  1
  O  O56  1  0.49952372  0.14788076  0.92543263  1
  O  O57  1  0.64835804  0.14788076  0.42543263  1
  O  O58  1  0.49952372  0.35164196  0.42543263  1
  O  O59  1  0.85211924  0.50047628  0.42543263  1
  O  O60  1  0.35494412  0.49442133  0.07742166  1
  O  O61  1  0.13947620  0.64505588  0.07742166  1
  O  O62  1  0.50557867  0.86052380  0.07742166  1
  O  O63  1  0.35494412  0.86052380  0.57742166  1
  O  O64  1  0.50557867  0.64505588  0.57742166  1
  O  O65  1  0.13947620  0.49442133  0.57742166  1
  O  O66  1  0.31506327  0.83726923  0.25435238  1
  O  O67  1  0.52220496  0.68493673  0.25435238  1
  O  O68  1  0.16273077  0.47779504  0.25435238  1
  O  O69  1  0.31506327  0.47779504  0.75435238  1
  O  O70  1  0.16273077  0.68493673  0.75435238  1
  O  O71  1  0.52220496  0.83726923  0.75435238  1
loop_
_geom_bond_atom_site_label_1
_geom_bond_atom_site_label_2
_geom_bond_distance
_geom_bond_site_symmetry_2
Na0 O53 2.495119 1_565
Na0 O66 2.500488 1_555
Na0 O67 2.513202 1_555
Na0 O52 2.533779 1_565
Na0 O16 2.636389 1_565
Na0 O31 2.659592 1_555
Na0 O9 2.951000 1_555
Na0 O2 2.965021 1_565
Na1 O51 2.495127 1_555
Na1 O67 2.500488 1_555
Na1 O68 2.513211 1_555
Na1 O53 2.533786 1_555
Na1 O17 2.636393 1_555
Na1 O32 2.659594 1_555
Na1 O10 2.951000 1_555
Na1 O0 2.965021 1_555
Na2 O52 2.495127 1_455
Na2 O68 2.500480 1_555
Na2 O66 2.513204 1_555
Na2 O51 2.533777 1_455
Na2 O15 2.636391 1_455
Na2 O30 2.659590 1_555
Na2 O11 2.951000 1_555
Na2 O1 2.965021 1_455
Na3 O49 2.495127 1_555
Na3 O69 2.500488 1_555
Na3 O71 2.513211 1_555
Na3 O50 2.533786 1_555
Na3 O14 2.636393 1_555
Na3 O35 2.659594 1_555
Na3 O6 2.951000 1_555
Na3 O4 2.965021 1_555
Na4 O50 2.495119 1_455
Na4 O70 2.500488 1_555
Na4 O69 2.513202 1_555
Na4 O48 2.533779 1_455
Na4 O12 2.636389 1_455
Na4 O33 2.659592 1_555
Na4 O7 2.951000 1_555
Na4 O5 2.965021 1_455
Na5 O48 2.495127 1_565
Na5 O71 2.500480 1_555
Na5 O70 2.513204 1_555
Na5 O49 2.533777 1_565
Na5 O13 2.636391 1_565
Na5 O34 2.659590 1_555
Na5 O8 2.951000 1_555
Na5 O3 2.965021 1_565
Na6 O43 2.444642 1_555
Na6 O65 2.481932 1_555
Na6 O64 2.516110 1_555
Na6 O7 2.516475 1_555
Na6 O42 2.547964 1_455
Na6 O28 2.663491 1_555
Na7 O44 2.444651 1_455
Na7 O63 2.481916 1_555
Na7 O65 2.516096 1_555
Na7 O8 2.516477 1_555
Na7 O43 2.547964 1_565
Na7 O29 2.663485 1_555
Na8 O42 2.444644 1_565
Na8 O64 2.481916 1_555
Na8 O63 2.516114 1_555
Na8 O6 2.516473 1_555
Na8 O44 2.547956 1_555
Na8 O27 2.663489 1_555
Na9 O47 2.444651 1_565
Na9 O61 2.481916 1_555
Na9 O62 2.516096 1_555
Na9 O11 2.516477 1_555
Na9 O45 2.547964 1_455
Na9 O26 2.663485 1_554
Na10 O45 2.444643 1_555
Na10 O62 2.481932 1_555
Na10 O60 2.516110 1_555
Na10 O9 2.516475 1_555
Na10 O46 2.547964 1_565
Na10 O24 2.663491 1_554
Na11 O46 2.444644 1_455
Na11 O60 2.481916 1_555
Na11 O61 2.516113 1_555
Na11 O10 2.516473 1_555
Na11 O47 2.547956 1_555
Na11 O25 2.663489 1_554
Na12 O4 2.409203 1_555
Na12 O41 2.410180 1_555
Na12 O40 2.467099 1_655
Na12 O54 2.639955 1_555
Na12 O55 2.657543 1_555
Na12 O33 2.792344 1_655
Na12 O19 2.971062 1_556
Na12 O26 2.973482 1_655
Na13 O5 2.409207 1_555
Na13 O39 2.410188 1_655
Na13 O41 2.467106 1_545
Na13 O55 2.639954 1_555
Na13 O56 2.657527 1_555
Na13 O34 2.792344 1_545
Na13 O20 2.971057 1_556
Na13 O24 2.973482 1_545
Na14 O3 2.409205 1_555
Na14 O40 2.410188 1_545
Na14 O39 2.467097 1_555
Na14 O56 2.639970 1_555
Na14 O54 2.657541 1_555
Na14 O35 2.792344 1_555
Na14 O18 2.971065 1_556
Na14 O25 2.973482 1_555
Na15 O2 2.409207 1_555
Na15 O37 2.410188 1_545
Na15 O38 2.467106 1_655
Na15 O57 2.639954 1_555
Na15 O59 2.657527 1_555
Na15 O30 2.792344 1_655
Na15 O23 2.971057 1_555
Na15 O28 2.973482 1_655
Na16 O0 2.409203 1_555
Na16 O38 2.410180 1_555
Na16 O36 2.467099 1_545
Na16 O58 2.639955 1_555
Na16 O57 2.657543 1_555
Na16 O31 2.792344 1_545
Na16 O21 2.971062 1_555
Na16 O29 2.973482 1_545
Na17 O1 2.409205 1_555
Na17 O36 2.410188 1_655
Na17 O37 2.467097 1_555
Na17 O59 2.639970 1_555
Na17 O58 2.657541 1_555
Na17 O32 2.792344 1_555
Na17 O22 2.971065 1_555
Na17 O27 2.973482 1_555
Na18 O44 2.493517 1_445
Na18 O43 2.493517 1_555
Na18 O42 2.493517 1_455
Na18 O38 2.554652 1_555
Na18 O36 2.554652 1_545
Na18 O37 2.554652 1_445
Na19 O45 2.493517 1_445
Na19 O47 2.493517 1_555
Na19 O46 2.493517 1_455
Na19 O39 2.554652 1_554
Na19 O41 2.554652 1_444
Na19 O40 2.554652 1_544
Na20 O50 2.356532 1_555
Na20 O49 2.356532 1_555
Na20 O48 2.356532 1_555
Na20 O56 2.779606 1_555
Na20 O54 2.779606 1_555
Na20 O55 2.779606 1_555
Na21 O51 2.356532 1_555
Na21 O53 2.356532 1_555
Na21 O52 2.356532 1_555
Na21 O57 2.779606 1_555
Na21 O59 2.779606 1_555
Na21 O58 2.779606 1_555
Na22 O68 2.476600 1_555
Na22 O66 2.476600 1_555
Na22 O67 2.476600 1_555
Na22 O60 2.640633 1_555
Na22 O62 2.640633 1_555
Na22 O61 2.640633 1_555
Na23 O69 2.476600 1_555
Na23 O71 2.476600 1_555
Na23 O70 2.476600 1_555
Na23 O64 2.640633 1_555
Na23 O65 2.640633 1_555
Na23 O63 2.640633 1_555
Nb0 O19 1.962037 1_556
Nb0 O20 1.962037 1_556
Nb0 O18 1.962037 1_556
Nb0 O56 2.035620 1_555
Nb0 O54 2.035620 1_555
Nb0 O55 2.035620 1_555
Nb1 O22 1.962037 1_555
Nb1 O21 1.962037 1_555
Nb1 O23 1.962037 1_555
Nb1 O57 2.035620 1_555
Nb1 O59 2.035620 1_555
Nb1 O58 2.035620 1_555
O0 P0 1.550330 1_545
O0 Zn0 2.003353 1_555
O1 P1 1.550330 1_555
O1 Zn0 2.003353 1_665
O2 P2 1.550330 1_655
O2 Zn0 2.003353 1_655
O3 P3 1.550330 1_555
O3 Zn1 2.003353 1_555
O4 P4 1.550330 1_655
O4 Zn1 2.003353 1_665
O5 P5 1.550330 1_545
O5 Zn1 2.003353 1_655
O6 P5 1.553815 1_555
O6 Zn2 2.009042 1_665
O7 P3 1.553815 1_555
O7 Zn2 2.009042 1_555
O8 P4 1.553815 1_555
O8 Zn2 2.009042 1_565
O9 P1 1.553815 1_555
O9 Zn3 2.009042 1_665
O10 P2 1.553815 1_555
O10 Zn3 2.009042 1_555
O11 P0 1.553815 1_555
O11 Zn3 2.009042 1_565
O12 P6 1.527092 1_555
O12 Zn4 2.042574 1_555
O13 P7 1.527092 1_555
O13 Zn4 2.042574 1_555
O14 P8 1.527092 1_555
O14 Zn4 2.042574 1_555
O15 P9 1.527092 1_555
O15 Zn5 2.042574 1_555
O16 P10 1.527092 1_555
O16 Zn5 2.042574 1_555
O17 P11 1.527092 1_555
O17 Zn5 2.042574 1_555
O18 P11 1.619156 1_555
O19 P9 1.619156 1_555
O20 P10 1.619156 1_555
O21 P7 1.619156 1_555
O22 P8 1.619156 1_555
O23 P6 1.619156 1_555
O24 P12 1.530607 1_555
O24 Zn6 2.034171 1_556
O25 P13 1.530607 1_555
O25 Zn6 2.034170 1_556
O26 P14 1.530607 1_555
O26 Zn6 2.034170 1_556
O27 P15 1.530607 1_555
O27 Zn7 2.034170 1_555
O28 P16 1.530607 1_555
O28 Zn7 2.034171 1_555
O29 P17 1.530607 1_555
O29 Zn7 2.034170 1_555
O30 P17 1.535502 1_555
O30 Zn8 2.113126 1_555
O31 P15 1.535502 1_555
O31 Zn8 2.113126 1_555
O32 P16 1.535502 1_555
O32 Zn8 2.113126 1_555
O33 P13 1.535502 1_555
O33 Zn9 2.113126 1_555
O34 P14 1.535502 1_555
O34 Zn9 2.113126 1_555
O35 P12 1.535502 1_555
O35 Zn9 2.113126 1_555
O36 P17 1.541673 1_555
O36 Zn0 2.302128 1_565
O37 P15 1.541682 1_555
O37 Zn0 2.302128 1_665
O38 P16 1.541678 1_555
O38 Zn0 2.302128 1_555
O39 P13 1.541682 1_555
O39 Zn1 2.302128 1_555
O40 P14 1.541673 1_555
O40 Zn1 2.302128 1_565
O41 P12 1.541678 1_555
O41 Zn1 2.302128 1_665
O42 P6 1.537549 1_555
O42 Zn2 2.365821 1_655
O43 P7 1.537558 1_555
O43 Zn2 2.365821 1_555
O44 P8 1.537554 1_555
O44 Zn2 2.365821 1_665
O45 P9 1.537558 1_555
O45 Zn3 2.365821 1_665
O46 P10 1.537549 1_555
O46 Zn3 2.365821 1_655
O47 P11 1.537554 1_555
O47 Zn3 2.365821 1_555
O48 P5 1.559430 1_545
O48 Zn4 2.163861 1_555
O49 P3 1.559439 1_555
O49 Zn4 2.163861 1_555
O50 P4 1.559436 1_655
O50 Zn4 2.163861 1_555
O51 P1 1.559439 1_555
O51 Zn5 2.163861 1_555
O52 P2 1.559430 1_655
O52 Zn5 2.163861 1_555
O53 P0 1.559436 1_545
O53 Zn5 2.163861 1_555
O54 P12 1.617544 1_555
O55 P13 1.617526 1_655
O56 P14 1.617533 1_545
O57 P15 1.617526 1_545
O58 P16 1.617544 1_555
O59 P17 1.617533 1_655
O60 P11 1.535969 1_555
O60 Zn6 2.196327 1_555
O61 P9 1.535951 1_455
O61 Zn6 2.196328 1_555
O62 P10 1.535959 1_565
O62 Zn6 2.196328 1_555
O63 P7 1.535951 1_565
O63 Zn7 2.196328 1_555
O64 P8 1.535969 1_555
O64 Zn7 2.196328 1_555
O65 P6 1.535959 1_455
O65 Zn7 2.196328 1_555
O66 P0 1.558527 1_555
O66 Zn8 2.159026 1_555
O67 P1 1.558536 1_555
O67 Zn8 2.159026 1_555
O68 P2 1.558532 1_555
O68 Zn8 2.159026 1_555
O69 P3 1.558536 1_555
O69 Zn9 2.159026 1_555
O70 P4 1.558527 1_555
O70 Zn9 2.159026 1_555
O71 P5 1.558532 1_555
O71 Zn9 2.159026 1_555
