# generated using pymatgen
data_Na2AlInSi(SO6)2
_symmetry_space_group_name_H-M   'P 1'
_cell_length_a   8.79576921
_cell_length_b   8.82002967
_cell_length_c   22.44002711
_cell_angle_alpha   89.88049762
_cell_angle_beta   89.49277098
_cell_angle_gamma   119.97834173
_symmetry_Int_Tables_number   1
_chemical_formula_structural   Na2AlInSi(SO6)2
_chemical_formula_sum   'Na12 Al6 In6 Si6 S12 O72'
_cell_volume   1507.86805107
_cell_formula_units_Z   6
loop_
 _symmetry_equiv_pos_site_id
 _symmetry_equiv_pos_as_xyz
  1  'x, y, z'
loop_
 _atom_site_type_symbol
 _atom_site_label
 _atom_site_symmetry_multiplicity
 _atom_site_fract_x
 _atom_site_fract_y
 _atom_site_fract_z
 _atom_site_occupancy
  Na  Na0  1  0.00097009  0.62876898  0.25082709  1
  Na  Na1  1  0.37797002  0.00331232  0.74872897  1
  Na  Na2  1  0.66035883  0.96565212  0.59184010  1
  Na  Na3  1  0.03043929  0.33550724  0.09297822  1
  Na  Na4  1  0.98496904  0.67717629  0.92556969  1
  Na  Na5  1  0.32265973  0.01695989  0.42225388  1
  Na  Na6  1  0.01014092  0.98637972  0.50074584  1
  Na  Na7  1  0.01331626  0.98582687  0.00164561  1
  Na  Na8  1  0.66205451  0.30671205  0.83163961  1
  Na  Na9  1  0.68471582  0.33719362  0.33551412  1
  Na  Na10  1  0.33412920  0.66127917  0.17073270  1
  Na  Na11  1  0.33399246  0.66599994  0.66456120  1
  Al  Al0  1  0.98067092  0.99213984  0.34966892  1
  Al  Al1  1  0.01182954  0.00026095  0.64792087  1
  Al  Al2  1  0.66613248  0.32123276  0.68222789  1
  Al  Al3  1  0.68522940  0.32783445  0.18847945  1
  Al  Al4  1  0.67067619  0.34777620  0.48450887  1
  Al  Al5  1  0.30228466  0.63630999  0.31833011  1
  In  In0  1  0.99794654  0.00650222  0.84601089  1
  In  In1  1  0.00143026  0.99318696  0.15558654  1
  In  In2  1  0.66116944  0.33058322  0.98303407  1
  In  In3  1  0.32675707  0.68330844  0.02160133  1
  In  In4  1  0.31480580  0.67696660  0.51627342  1
  In  In5  1  0.35650402  0.68654835  0.81062405  1
  Si  Si0  1  0.00038146  0.28958449  0.25186897  1
  Si  Si1  1  0.72018015  0.01238774  0.74099722  1
  Si  Si2  1  0.37604097  0.05811457  0.58289715  1
  Si  Si3  1  0.95244829  0.62625612  0.08638342  1
  Si  Si4  1  0.33307644  0.97483204  0.91205507  1
  Si  Si5  1  0.02070643  0.66634462  0.41308569  1
  S  S0  1  0.30913960  0.00249725  0.25402905  1
  S  S1  1  0.69007629  0.69884095  0.25467123  1
  S  S2  1  0.30149601  0.29613432  0.74361630  1
  S  S3  1  0.98471964  0.69416334  0.74403869  1
  S  S4  1  0.94877820  0.32989980  0.58382117  1
  S  S5  1  0.67273605  0.61747480  0.58497507  1
  S  S6  1  0.66528868  0.04225674  0.08858995  1
  S  S7  1  0.38040856  0.33568449  0.08866259  1
  S  S8  1  0.62697035  0.66523146  0.91760618  1
  S  S9  1  0.04412611  0.37195264  0.91687197  1
  S  S10  1  0.62967042  0.95749845  0.41438698  1
  S  S11  1  0.33101505  0.37320991  0.41533696  1
  O  O0  1  0.22266349  0.03189741  0.30615881  1
  O  O1  1  0.82139635  0.78760284  0.30294711  1
  O  O2  1  0.97646529  0.15389648  0.30485094  1
  O  O3  1  0.24203143  0.19140421  0.79984160  1
  O  O4  1  0.95690720  0.75525208  0.80269133  1
  O  O5  1  0.81751399  0.03862606  0.80437078  1
  O  O6  1  0.82526821  0.98909825  0.68448412  1
  O  O7  1  0.18423997  0.19878299  0.69383999  1
  O  O8  1  0.02224546  0.82669339  0.69637782  1
  O  O9  1  0.75335670  0.80012389  0.19828317  1
  O  O10  1  0.03490527  0.22423603  0.18770452  1
  O  O11  1  0.19208079  0.94915495  0.20088748  1
  O  O12  1  0.86720553  0.35606600  0.63766079  1
  O  O13  1  0.50024038  0.14905137  0.64025454  1
  O  O14  1  0.65666866  0.51211408  0.63778701  1
  O  O15  1  0.84690881  0.49839323  0.14342850  1
  O  O16  1  0.64485357  0.13442453  0.14027445  1
  O  O17  1  0.48381873  0.33910124  0.14007410  1
  O  O18  1  0.44637155  0.31042167  0.03080866  1
  O  O19  1  0.86225652  0.55056286  0.02143290  1
  O  O20  1  0.68639427  0.13585481  0.03166240  1
  O  O21  1  0.47400364  0.17116696  0.52088543  1
  O  O22  1  0.69592548  0.53787130  0.52962340  1
  O  O23  1  0.84222137  0.31051440  0.53007095  1
  O  O24  1  0.53905280  0.67403052  0.97257130  1
  O  O25  1  0.13986371  0.44661921  0.97324436  1
  O  O26  1  0.28738695  0.84634141  0.96994273  1
  O  O27  1  0.57006355  0.85928020  0.47234145  1
  O  O28  1  0.30261811  0.44647074  0.47095959  1
  O  O29  1  0.15398774  0.73694970  0.47025110  1
  O  O30  1  0.12085978  0.63376953  0.35636783  1
  O  O31  1  0.50670231  0.86061819  0.36582669  1
  O  O32  1  0.35832447  0.49031816  0.36369732  1
  O  O33  1  0.13646628  0.47879549  0.86366713  1
  O  O34  1  0.35409788  0.89437668  0.84873269  1
  O  O35  1  0.52428209  0.63852101  0.86344315  1
  O  O36  1  0.00901068  0.84562201  0.39895882  1
  O  O37  1  0.80876592  0.98430860  0.40460066  1
  O  O38  1  0.17676622  0.19463039  0.40690962  1
  O  O39  1  0.01541578  0.19322031  0.91474591  1
  O  O40  1  0.14828329  0.97945964  0.90938275  1
  O  O41  1  0.80101338  0.82734000  0.91468405  1
  O  O42  1  0.96002283  0.16734607  0.58738079  1
  O  O43  1  0.17685682  0.02996197  0.59283299  1
  O  O44  1  0.82963397  0.79741641  0.58853843  1
  O  O45  1  0.97991943  0.82252616  0.09018785  1
  O  O46  1  0.82773334  0.03214902  0.09217345  1
  O  O47  1  0.19643949  0.18601462  0.09074354  1
  O  O48  1  0.68688517  0.18117256  0.73700234  1
  O  O49  1  0.48173239  0.32536614  0.73459838  1
  O  O50  1  0.82731702  0.52460859  0.73247988  1
  O  O51  1  0.67634127  0.52373960  0.24826881  1
  O  O52  1  0.82516485  0.31629306  0.24619203  1
  O  O53  1  0.47841303  0.16473438  0.24215382  1
  O  O54  1  0.66085910  0.51622066  0.91793871  1
  O  O55  1  0.87199212  0.36679754  0.91784936  1
  O  O56  1  0.50843263  0.16384773  0.91789198  1
  O  O57  1  0.63887110  0.13079154  0.41947132  1
  O  O58  1  0.49014791  0.35372321  0.41915964  1
  O  O59  1  0.83267568  0.48874620  0.42862569  1
  O  O60  1  0.37192976  0.50086614  0.08678588  1
  O  O61  1  0.14206282  0.62738129  0.08890817  1
  O  O62  1  0.50979779  0.86526457  0.08831707  1
  O  O63  1  0.36880605  0.86460522  0.58186000  1
  O  O64  1  0.51284517  0.63515149  0.58090314  1
  O  O65  1  0.12911912  0.48318536  0.58079030  1
  O  O66  1  0.33654652  0.85011290  0.26377590  1
  O  O67  1  0.51791973  0.68215247  0.26841397  1
  O  O68  1  0.17077488  0.49022637  0.26023177  1
  O  O69  1  0.30474445  0.46462079  0.74870498  1
  O  O70  1  0.14388248  0.67501326  0.74560411  1
  O  O71  1  0.52011831  0.83589998  0.74029068  1
loop_
_geom_bond_atom_site_label_1
_geom_bond_atom_site_label_2
_geom_bond_distance
_geom_bond_site_symmetry_2
Na0 O68 2.365756 1_555
Na0 O52 2.396420 1_455
Na0 O51 2.524734 1_455
Na0 O30 2.592520 1_555
Na0 O66 2.620484 1_555
Na0 O11 2.696881 1_555
Na0 O15 2.734770 1_455
Na0 O1 2.830315 1_455
Na1 O71 2.370939 1_545
Na1 O48 2.374655 1_555
Na1 O34 2.405042 1_545
Na1 O49 2.530306 1_555
Na1 O70 2.583441 1_545
Na1 O13 2.700591 1_555
Na1 O3 2.731917 1_555
Na1 O8 2.966208 1_545
Na2 O63 2.268865 1_555
Na2 O42 2.330393 1_565
Na2 O6 2.494818 1_555
Na2 O64 2.543613 1_555
Na2 O44 2.574972 1_555
Na2 O27 2.829361 1_555
Na2 O13 2.835012 1_565
Na2 O23 2.968629 1_565
Na3 O61 2.251906 1_555
Na3 O10 2.348288 1_555
Na3 O46 2.360426 1_455
Na3 O47 2.407452 1_555
Na3 O60 2.604295 1_555
Na3 O25 2.847183 1_554
Na3 O15 2.871182 1_455
Na3 O20 2.984976 1_455
Na4 O40 2.337332 1_655
Na4 O19 2.404984 1_556
Na4 O55 2.407929 1_555
Na4 O54 2.477285 1_555
Na4 O26 2.525891 1_655
Na4 O41 2.564976 1_555
Na4 O4 2.883114 1_555
Na5 O29 2.399896 1_545
Na5 O57 2.440023 1_555
Na5 O36 2.455680 1_545
Na5 O38 2.497225 1_555
Na5 O58 2.573325 1_555
Na5 O21 2.603071 1_555
Na5 O0 2.780799 1_555
Na5 O31 2.885664 1_545
Na6 O43 2.462092 1_565
Na6 O44 2.542875 1_455
Na6 O36 2.599695 1_555
Na6 O38 2.682286 1_565
Na6 O42 2.687447 1_465
Na6 O37 2.797848 1_455
Na7 O45 2.379800 1_455
Na7 O40 2.392180 1_554
Na7 O41 2.591602 1_454
Na7 O47 2.634203 1_565
Na7 O39 2.664530 1_564
Na7 O46 2.751269 1_465
Na8 O56 2.324168 1_555
Na8 O48 2.454983 1_555
Na8 O55 2.553957 1_555
Na8 O54 2.683089 1_555
Na8 O49 2.757737 1_555
Na8 O50 2.809071 1_555
Na9 O52 2.400615 1_555
Na9 O59 2.483443 1_555
Na9 O57 2.502963 1_555
Na9 O51 2.579872 1_555
Na9 O58 2.582019 1_555
Na9 O53 2.705138 1_555
Na10 O61 2.422240 1_555
Na10 O60 2.476098 1_555
Na10 O68 2.478729 1_555
Na10 O62 2.490408 1_555
Na10 O66 2.667133 1_555
Na10 O67 2.686811 1_555
Na11 O71 2.328481 1_555
Na11 O63 2.458989 1_555
Na11 O70 2.487847 1_555
Na11 O69 2.511373 1_555
Na11 O64 2.539808 1_555
Na11 O65 2.559262 1_555
Al0 O2 1.759465 1_565
Al0 O36 1.810076 1_655
Al0 O37 1.916448 1_555
Al0 O1 1.955653 1_555
Al0 O38 2.187444 1_665
Al0 O0 2.196063 1_665
Al1 O6 1.786049 1_445
Al1 O43 1.814001 1_555
Al1 O8 1.915548 1_545
Al1 O7 1.951669 1_555
Al1 O44 2.174216 1_445
Al1 O42 2.213302 1_455
Al2 O13 1.771543 1_555
Al2 O48 1.814702 1_555
Al2 O12 1.909679 1_555
Al2 O14 1.992587 1_555
Al2 O50 1.998635 1_555
Al2 O49 2.009633 1_555
Al3 O15 1.771350 1_555
Al3 O52 1.831782 1_555
Al3 O16 1.901407 1_555
Al3 O53 2.041594 1_555
Al3 O17 2.130194 1_555
Al3 O51 2.221399 1_555
Al4 O59 1.827627 1_555
Al4 O21 1.833598 1_555
Al4 O22 1.877312 1_555
Al4 O23 1.987842 1_555
Al4 O58 2.190597 1_555
Al4 O57 2.314034 1_555
Al5 O30 1.793220 1_555
Al5 O68 1.800596 1_555
Al5 O32 1.890799 1_555
Al5 O67 2.051742 1_555
Al5 O66 2.135754 1_555
Al5 O31 2.184210 1_555
In0 O5 1.986609 1_555
In0 O40 2.043228 1_645
In0 O3 2.190171 1_655
In0 O39 2.208327 1_655
In0 O41 2.253763 1_545
In0 O4 2.280760 1_545
In1 O10 2.041879 1_565
In1 O45 2.045665 1_455
In1 O11 2.162320 1_555
In1 O9 2.195850 1_455
In1 O47 2.232057 1_565
In1 O46 2.244615 1_465
In2 O56 2.042966 1_555
In2 O19 2.059079 1_556
In2 O18 2.092376 1_556
In2 O20 2.137082 1_556
In2 O54 2.192983 1_555
In2 O55 2.244632 1_555
In3 O26 2.007288 1_554
In3 O61 2.077560 1_555
In3 O24 2.195619 1_554
In3 O25 2.202146 1_554
In3 O62 2.208966 1_555
In3 O60 2.350798 1_555
In4 O29 2.029474 1_555
In4 O63 2.089886 1_555
In4 O65 2.200660 1_555
In4 O27 2.223672 1_555
In4 O28 2.229626 1_555
In4 O64 2.440927 1_555
In5 O34 2.033915 1_555
In5 O71 2.086599 1_555
In5 O35 2.101351 1_555
In5 O33 2.219513 1_555
In5 O69 2.258609 1_555
In5 O70 2.344248 1_555
O0 S0 1.482170 1_555
O1 S1 1.497546 1_555
O2 Si0 1.621137 1_655
O3 S2 1.489745 1_555
O4 S3 1.487088 1_555
O5 Si1 1.622905 1_555
O6 Si1 1.635506 1_565
O7 S2 1.479197 1_555
O8 S3 1.490683 1_455
O9 S1 1.481503 1_555
O10 Si0 1.633470 1_555
O11 S0 1.497834 1_565
O12 S4 1.476148 1_555
O13 Si2 1.626935 1_555
O14 S5 1.466016 1_555
O15 Si3 1.642845 1_555
O16 S6 1.478023 1_555
O17 S7 1.466468 1_555
O18 S7 1.479451 1_555
O19 Si3 1.641518 1_555
O20 S6 1.478553 1_555
O21 Si2 1.669573 1_555
O22 S5 1.489838 1_555
O23 S4 1.491044 1_555
O24 S8 1.472694 1_555
O25 S9 1.486999 1_555
O26 Si4 1.631787 1_555
O27 S10 1.498657 1_555
O28 S11 1.482222 1_555
O29 Si5 1.645621 1_555
O30 Si5 1.647144 1_555
O31 S10 1.479386 1_555
O32 S11 1.486444 1_555
O33 S9 1.478650 1_555
O34 Si4 1.639372 1_555
O35 S8 1.468516 1_555
O36 Si5 1.665058 1_555
O37 S10 1.485617 1_555
O38 S11 1.492509 1_555
O39 S9 1.467602 1_555
O40 Si4 1.647785 1_555
O41 S8 1.484108 1_555
O42 S4 1.487654 1_555
O43 Si2 1.654963 1_555
O44 S5 1.497807 1_555
O45 Si3 1.626461 1_555
O46 S6 1.478262 1_555
O47 S7 1.492290 1_555
O48 Si1 1.656980 1_555
O49 S2 1.485359 1_555
O50 S3 1.469485 1_555
O51 S1 1.495052 1_555
O52 Si0 1.677223 1_655
O53 S0 1.482450 1_555
O54 S8 1.485845 1_555
O55 S9 1.491814 1_655
O56 Si4 1.615625 1_545
O57 S10 1.494324 1_545
O58 S11 1.496170 1_555
O59 Si5 1.645943 1_655
O60 S7 1.496093 1_555
O61 Si3 1.664337 1_455
O62 S6 1.474468 1_565
O63 Si2 1.676086 1_565
O64 S5 1.493938 1_555
O65 S4 1.484310 1_455
O66 S0 1.495284 1_565
O67 S1 1.475982 1_555
O68 Si0 1.664029 1_555
O69 S2 1.476669 1_555
O70 S3 1.492247 1_455
O71 Si1 1.668255 1_565
