# generated using pymatgen
data_Na4CaZrSi(PO6)2
_symmetry_space_group_name_H-M   'P 1'
_cell_length_a   9.36667706
_cell_length_b   9.37222980
_cell_length_c   22.87666808
_cell_angle_alpha   90.08835892
_cell_angle_beta   90.00000000
_cell_angle_gamma   119.98040327
_symmetry_Int_Tables_number   1
_chemical_formula_structural   Na4CaZrSi(PO6)2
_chemical_formula_sum   'Na24 Ca6 Zr6 Si6 P12 O72'
_cell_volume   1739.55000022
_cell_formula_units_Z   6
loop_
 _symmetry_equiv_pos_site_id
 _symmetry_equiv_pos_as_xyz
  1  'x, y, z'
loop_
 _atom_site_type_symbol
 _atom_site_label
 _atom_site_symmetry_multiplicity
 _atom_site_fract_x
 _atom_site_fract_y
 _atom_site_fract_z
 _atom_site_occupancy
  Na  Na0  1  0.63946912  0.01505265  0.24739766  1
  Na  Na1  1  0.36929100  0.35145520  0.24921864  1
  Na  Na2  1  0.98972813  0.62833155  0.24182293  1
  Na  Na3  1  0.63860342  0.62833155  0.74182293  1
  Na  Na4  1  0.98216419  0.35145520  0.74921864  1
  Na  Na5  1  0.37558353  0.01505265  0.74739766  1
  Na  Na6  1  0.31436237  0.35150010  0.58247371  1
  Na  Na7  1  0.03307704  0.69168032  0.57917324  1
  Na  Na8  1  0.65026135  0.95416994  0.57647760  1
  Na  Na9  1  0.30390958  0.95416994  0.07647760  1
  Na  Na10  1  0.65860429  0.69168032  0.07917324  1
  Na  Na11  1  0.03713873  0.35150010  0.08247371  1
  Na  Na12  1  0.98380731  0.68645345  0.91684869  1
  Na  Na13  1  0.70294487  0.02757406  0.90877064  1
  Na  Na14  1  0.31990412  0.28979895  0.91285308  1
  Na  Na15  1  0.96989383  0.28979895  0.41285308  1
  Na  Na16  1  0.32462819  0.02757406  0.40877064  1
  Na  Na17  1  0.70264514  0.68645345  0.41684869  1
  Na  Na18  1  0.99043045  0.99751779  0.49516023  1
  Na  Na19  1  0.00708733  0.99751779  0.99516023  1
  Na  Na20  1  0.66351031  0.32186832  0.82877446  1
  Na  Na21  1  0.65835901  0.32186832  0.32877446  1
  Na  Na22  1  0.32248753  0.66720418  0.16203306  1
  Na  Na23  1  0.34471565  0.66720418  0.66203306  1
  Ca  Ca0  1  0.00085578  -0.00007165  0.34833887  1
  Ca  Ca1  1  0.99907257  -0.00007165  0.84833887  1
  Ca  Ca2  1  0.66540007  0.33246687  0.68165738  1
  Ca  Ca3  1  0.66706780  0.33246687  0.18165738  1
  Ca  Ca4  1  0.33191226  0.66893220  0.01502850  1
  Ca  Ca5  1  0.33701894  0.66893220  0.51502850  1
  Zr  Zr0  1  0.99035427  0.99433939  0.64994847  1
  Zr  Zr1  1  0.00398512  0.99433939  0.14994847  1
  Zr  Zr2  1  0.66798340  0.33414884  0.98335821  1
  Zr  Zr3  1  0.66616644  0.33414884  0.48335821  1
  Zr  Zr4  1  0.33685333  0.67593295  0.31665405  1
  Zr  Zr5  1  0.33907862  0.67593295  0.81665405  1
  Si  Si0  1  0.30055459  0.99594157  0.25305344  1
  Si  Si1  1  0.69538698  0.99594157  0.75305344  1
  Si  Si2  1  0.67004438  0.63595936  0.58586153  1
  Si  Si3  1  0.96591598  0.63595936  0.08586153  1
  Si  Si4  1  0.33818732  0.97294477  0.91946407  1
  Si  Si5  1  0.63475646  0.97294477  0.41946407  1
  P  P0  1  0.69704680  0.70367298  0.25122882  1
  P  P1  1  0.00709322  0.30124924  0.25092184  1
  P  P2  1  0.29415603  0.30124924  0.75092184  1
  P  P3  1  0.00662618  0.70367298  0.75122882  1
  P  P4  1  0.96237220  0.32734252  0.58466743  1
  P  P5  1  0.36281573  0.03778164  0.58442943  1
  P  P6  1  0.67496691  0.03778164  0.08442943  1
  P  P7  1  0.36497132  0.32734252  0.08466743  1
  P  P8  1  0.62847033  0.65908895  0.91820391  1
  P  P9  1  0.03260403  0.37171044  0.91771557  1
  P  P10  1  0.33910542  0.37171044  0.41771557  1
  P  P11  1  0.03061762  0.65908895  0.41820391  1
  O  O0  1  0.22427509  0.02316214  0.31141081  1
  O  O1  1  0.79608934  0.77916188  0.30650049  1
  O  O2  1  0.98053923  0.20113540  0.30619778  1
  O  O3  1  0.22059617  0.20113540  0.80619778  1
  O  O4  1  0.98307254  0.77916188  0.80650049  1
  O  O5  1  0.79888705  0.02316214  0.81141081  1
  O  O6  1  0.79724051  0.97217128  0.69569676  1
  O  O7  1  0.18166582  0.20798406  0.69639540  1
  O  O8  1  0.03041400  0.81894280  0.69690915  1
  O  O9  1  0.78852881  0.81894280  0.19690915  1
  O  O10  1  0.02631824  0.20798406  0.19639540  1
  O  O11  1  0.17493077  0.97217128  0.19569676  1
  O  O12  1  0.88778520  0.35056978  0.64019443  1
  O  O13  1  0.46442152  0.10900707  0.63960734  1
  O  O14  1  0.64685519  0.53408988  0.64433490  1
  O  O15  1  0.88723569  0.53408988  0.14433490  1
  O  O16  1  0.64458655  0.10900707  0.13960734  1
  O  O17  1  0.46278559  0.35056978  0.14019443  1
  O  O18  1  0.45673328  0.30355763  0.03042622  1
  O  O19  1  0.84182800  0.53672101  0.02815907  1
  O  O20  1  0.69332672  0.15249881  0.03043865  1
  O  O21  1  0.45917309  0.15249881  0.53043865  1
  O  O22  1  0.69489401  0.53672101  0.52815907  1
  O  O23  1  0.84682535  0.30355763  0.53042622  1
  O  O24  1  0.55427850  0.68260551  0.97379735  1
  O  O25  1  0.13262792  0.44521974  0.97306984  1
  O  O26  1  0.31055231  0.86732386  0.97727741  1
  O  O27  1  0.55677055  0.86732386  0.47727741  1
  O  O28  1  0.31259082  0.44521974  0.47306984  1
  O  O29  1  0.12832601  0.68260551  0.47379735  1
  O  O30  1  0.12410506  0.63725954  0.36412299  1
  O  O31  1  0.50897621  0.87056513  0.36179618  1
  O  O32  1  0.36083597  0.48447457  0.36328030  1
  O  O33  1  0.12363760  0.48447457  0.86328030  1
  O  O34  1  0.36158792  0.87056513  0.86179618  1
  O  O35  1  0.51315348  0.63725954  0.86412299  1
  O  O36  1  0.00335220  0.80665375  0.41165182  1
  O  O37  1  0.81937824  0.00082535  0.41377106  1
  O  O38  1  0.19251081  0.19603362  0.41189507  1
  O  O39  1  0.00352281  0.19603362  0.91189507  1
  O  O40  1  0.18144711  0.00082535  0.91377106  1
  O  O41  1  0.80330155  0.80665375  0.91165182  1
  O  O42  1  0.97371792  0.16494997  0.58743709  1
  O  O43  1  0.19450893  0.03644261  0.58734615  1
  O  O44  1  0.84822893  0.81860032  0.58752009  1
  O  O45  1  0.97037138  0.81860032  0.08752009  1
  O  O46  1  0.84193367  0.03644261  0.08734615  1
  O  O47  1  0.19123206  0.16494997  0.08743709  1
  O  O48  1  0.66455169  0.15038869  0.74708819  1
  O  O49  1  0.46976790  0.32887443  0.74525061  1
  O  O50  1  0.85849294  0.52924530  0.74475209  1
  O  O51  1  0.67075336  0.52924530  0.24475209  1
  O  O52  1  0.85910753  0.32887443  0.24525061  1
  O  O53  1  0.48583800  0.15038869  0.24708819  1
  O  O54  1  0.63545446  0.49431037  0.92057106  1
  O  O55  1  0.86067849  0.36547734  0.92124402  1
  O  O56  1  0.51469664  0.15391650  0.92096428  1
  O  O57  1  0.63922086  0.15391650  0.42096428  1
  O  O58  1  0.50479985  0.36547734  0.42124402  1
  O  O59  1  0.85885690  0.49431037  0.42057106  1
  O  O60  1  0.34143795  0.47704345  0.07764049  1
  O  O61  1  0.15064684  0.66330659  0.08162323  1
  O  O62  1  0.53107795  0.86090209  0.07750543  1
  O  O63  1  0.32982314  0.86090209  0.57750543  1
  O  O64  1  0.51265875  0.66330659  0.58162323  1
  O  O65  1  0.13560450  0.47704345  0.57764049  1
  O  O66  1  0.30242395  0.81710363  0.25423306  1
  O  O67  1  0.52382497  0.69369007  0.25420030  1
  O  O68  1  0.17240026  0.47173920  0.25415547  1
  O  O69  1  0.29933794  0.47173920  0.75415547  1
  O  O70  1  0.16986410  0.69369007  0.75420030  1
  O  O71  1  0.51467869  0.81710363  0.75423306  1
loop_
_geom_bond_atom_site_label_1
_geom_bond_atom_site_label_2
_geom_bond_distance
_geom_bond_site_symmetry_2
Na0 O53 2.346026 1_555
Na0 O16 2.612046 1_555
Na0 O52 2.615085 1_555
Na0 O67 2.647620 1_545
Na0 O66 2.753243 1_545
Na0 O31 2.921211 1_545
Na1 O51 2.461393 1_555
Na1 O68 2.600414 1_555
Na1 O53 2.607849 1_555
Na1 O17 2.644762 1_555
Na1 O67 2.784797 1_555
Na1 O32 2.908239 1_555
Na2 O15 2.412893 1_555
Na2 O52 2.439030 1_555
Na2 O66 2.570784 1_655
Na2 O51 2.649660 1_555
Na2 O68 2.769849 1_655
Na2 O11 2.988497 1_655
Na2 O30 3.051728 1_655
Na3 O14 2.412895 1_555
Na3 O49 2.439029 1_555
Na3 O71 2.570791 1_555
Na3 O50 2.649669 1_555
Na3 O69 2.769857 1_555
Na3 O6 2.988497 1_555
Na3 O35 3.051732 1_555
Na4 O50 2.461386 1_555
Na4 O69 2.600406 1_655
Na4 O48 2.607842 1_555
Na4 O12 2.644759 1_555
Na4 O70 2.784797 1_655
Na4 O33 2.908237 1_655
Na5 O48 2.346035 1_555
Na5 O13 2.612047 1_555
Na5 O49 2.615083 1_555
Na5 O70 2.647621 1_545
Na5 O71 2.753236 1_545
Na5 O34 2.921209 1_545
Na6 O65 2.483847 1_555
Na6 O64 2.562369 1_555
Na6 O43 2.584528 1_555
Na6 O28 2.656526 1_555
Na6 O42 2.770503 1_455
Na6 O7 2.913085 1_555
Na7 O63 2.416004 1_555
Na7 O44 2.550853 1_455
Na7 O29 2.586431 1_555
Na7 O65 2.626901 1_555
Na7 O43 2.806627 1_565
Na7 O8 2.949151 1_555
Na7 O22 2.983668 1_455
Na8 O64 2.365563 1_555
Na8 O27 2.421022 1_555
Na8 O63 2.674187 1_555
Na8 O42 2.676083 1_565
Na8 O44 2.733547 1_555
Na9 O61 2.365564 1_555
Na9 O26 2.421018 1_554
Na9 O62 2.674169 1_555
Na9 O47 2.676090 1_565
Na9 O45 2.733556 1_455
Na10 O62 2.416020 1_555
Na10 O45 2.550844 1_555
Na10 O24 2.586438 1_554
Na10 O60 2.626916 1_555
Na10 O46 2.806626 1_565
Na10 O9 2.949149 1_555
Na10 O19 2.983668 1_555
Na11 O60 2.483830 1_555
Na11 O61 2.562371 1_555
Na11 O46 2.584530 1_455
Na11 O25 2.656523 1_554
Na11 O47 2.770495 1_555
Na11 O10 2.913083 1_555
Na12 O41 2.458824 1_555
Na12 O40 2.581192 1_665
Na12 O55 2.631236 1_555
Na12 O4 2.672142 1_555
Na12 O54 2.832811 1_555
Na12 O19 2.892746 1_556
Na12 O26 2.993184 1_655
Na12 O33 3.044887 1_655
Na13 O5 2.409746 1_555
Na13 O39 2.445733 1_655
Na13 O56 2.583536 1_555
Na13 O41 2.668439 1_545
Na13 O55 2.759461 1_555
Na13 O34 2.972595 1_545
Na13 O20 3.036675 1_556
Na14 O40 2.346754 1_555
Na14 O3 2.594264 1_555
Na14 O54 2.603470 1_555
Na14 O39 2.636660 1_555
Na14 O56 2.703381 1_555
Na14 O18 2.954211 1_556
Na15 O37 2.346754 1_555
Na15 O2 2.594266 1_555
Na15 O59 2.603456 1_555
Na15 O38 2.636669 1_655
Na15 O57 2.703364 1_555
Na15 O23 2.954204 1_555
Na16 O0 2.409743 1_555
Na16 O38 2.445725 1_555
Na16 O57 2.583553 1_555
Na16 O36 2.668432 1_545
Na16 O58 2.759462 1_555
Na16 O31 2.972595 1_545
Na16 O21 3.036679 1_555
Na17 O36 2.458832 1_655
Na17 O37 2.581190 1_565
Na17 O58 2.631234 1_555
Na17 O1 2.672143 1_555
Na17 O59 2.832826 1_555
Na17 O22 2.892750 1_555
Na17 O27 2.993184 1_555
Na17 O32 3.044887 1_555
Na18 O37 2.466680 1_565
Na18 O44 2.613234 1_555
Na18 O36 2.658943 1_655
Na18 O38 2.676583 1_665
Na18 O42 2.679269 1_565
Na18 O43 2.745039 1_665
Na19 O40 2.466680 1_565
Na19 O45 2.613234 1_456
Na19 O41 2.658943 1_455
Na19 O39 2.676583 1_565
Na19 O47 2.679269 1_566
Na19 O46 2.745039 1_466
Na20 O48 2.466069 1_555
Na20 O56 2.585724 1_555
Na20 O49 2.658564 1_555
Na20 O50 2.696606 1_555
Na20 O55 2.701040 1_555
Na20 O54 2.739534 1_555
Na21 O53 2.466069 1_555
Na21 O57 2.585724 1_555
Na21 O52 2.658564 1_555
Na21 O51 2.696606 1_555
Na21 O58 2.701040 1_555
Na21 O59 2.739534 1_555
Na22 O61 2.432467 1_555
Na22 O66 2.590870 1_555
Na22 O68 2.685471 1_555
Na22 O60 2.690855 1_555
Na22 O62 2.705220 1_555
Na22 O67 2.755778 1_555
Na23 O64 2.432467 1_555
Na23 O71 2.590870 1_555
Na23 O69 2.685471 1_555
Na23 O65 2.690855 1_555
Na23 O63 2.705220 1_555
Na23 O70 2.755778 1_555
Ca0 O0 2.164628 1_555
Ca0 O2 2.210416 1_455
Ca0 O1 2.214408 1_445
Ca0 O37 2.268126 1_455
Ca0 O38 2.325714 1_555
Ca0 O36 2.330241 1_545
Ca1 O5 2.164628 1_555
Ca1 O3 2.210416 1_655
Ca1 O4 2.214408 1_545
Ca1 O40 2.268126 1_655
Ca1 O39 2.325714 1_655
Ca1 O41 2.330241 1_545
Ca2 O14 2.159398 1_555
Ca2 O13 2.215608 1_555
Ca2 O12 2.216918 1_555
Ca2 O48 2.268697 1_555
Ca2 O49 2.326768 1_555
Ca2 O50 2.326804 1_555
Ca3 O15 2.159398 1_555
Ca3 O16 2.215608 1_555
Ca3 O17 2.216918 1_555
Ca3 O53 2.268697 1_555
Ca3 O52 2.326768 1_555
Ca3 O51 2.326804 1_555
Ca4 O26 2.149389 1_554
Ca4 O25 2.210007 1_554
Ca4 O24 2.231125 1_554
Ca4 O61 2.262127 1_555
Ca4 O62 2.323289 1_555
Ca4 O60 2.337145 1_555
Ca5 O27 2.149389 1_555
Ca5 O28 2.210007 1_555
Ca5 O29 2.231125 1_555
Ca5 O64 2.262127 1_555
Ca5 O63 2.323289 1_555
Ca5 O65 2.337145 1_555
O0 Si0 1.593417 1_545
O1 P0 1.516988 1_555
O2 P1 1.520431 1_655
O3 P2 1.520431 1_555
O4 P3 1.516988 1_655
O5 Si1 1.593417 1_545
O6 Si1 1.700882 1_555
O6 Zr0 2.008839 1_555
O7 P2 1.583160 1_555
O7 Zr0 2.181035 1_445
O8 P3 1.588876 1_555
O8 Zr0 2.149207 1_455
O9 P0 1.588876 1_555
O9 Zr1 2.149207 1_655
O10 P1 1.583160 1_555
O10 Zr1 2.181035 1_545
O11 Si0 1.700882 1_555
O11 Zr1 2.008839 1_555
O12 P4 1.516645 1_555
O13 P5 1.518947 1_555
O14 Si2 1.595236 1_555
O15 Si3 1.595236 1_555
O16 P6 1.518947 1_555
O17 P7 1.516645 1_555
O18 P7 1.587073 1_555
O18 Zr2 2.142636 1_554
O19 Si3 1.695379 1_555
O19 Zr2 2.052012 1_554
O20 P6 1.590719 1_555
O20 Zr2 2.127044 1_554
O21 P5 1.590719 1_555
O21 Zr3 2.127044 1_555
O22 Si2 1.695379 1_555
O22 Zr3 2.052012 1_555
O23 P4 1.587073 1_555
O23 Zr3 2.142636 1_555
O24 P8 1.516961 1_555
O25 P9 1.519278 1_555
O26 Si4 1.595016 1_555
O27 Si5 1.595016 1_555
O28 P10 1.519278 1_555
O29 P11 1.516961 1_555
O30 P11 1.586681 1_555
O30 Zr4 2.135652 1_555
O31 Si5 1.707465 1_555
O31 Zr4 2.012020 1_555
O32 P10 1.580570 1_555
O32 Zr4 2.194722 1_555
O33 P9 1.580570 1_555
O33 Zr5 2.194722 1_555
O34 Si4 1.707465 1_555
O34 Zr5 2.012020 1_555
O35 P8 1.586681 1_555
O35 Zr5 2.135652 1_555
O36 P11 1.534289 1_555
O37 Si5 1.619937 1_545
O38 P10 1.534250 1_555
O39 P9 1.534253 1_555
O40 Si4 1.619928 1_545
O41 P8 1.534294 1_555
O42 P4 1.579138 1_555
O42 Zr0 2.209572 1_545
O43 P5 1.571660 1_555
O43 Zr0 2.260759 1_445
O44 Si2 1.691647 1_555
O44 Zr0 2.079917 1_555
O45 Si3 1.691652 1_555
O45 Zr1 2.079917 1_655
O46 P6 1.571650 1_555
O46 Zr1 2.260759 1_645
O47 P7 1.579143 1_555
O47 Zr1 2.209572 1_545
O48 Si1 1.617336 1_545
O49 P2 1.537542 1_555
O50 P3 1.533612 1_655
O51 P0 1.533616 1_555
O52 P1 1.537533 1_655
O53 Si0 1.617342 1_545
O54 P8 1.579061 1_555
O54 Zr2 2.207469 1_555
O55 P9 1.584051 1_655
O55 Zr2 2.198798 1_555
O56 Si4 1.675911 1_545
O56 Zr2 2.126236 1_555
O57 Si5 1.675902 1_545
O57 Zr3 2.126236 1_555
O58 P10 1.584070 1_555
O58 Zr3 2.198798 1_555
O59 P11 1.579051 1_655
O59 Zr3 2.207469 1_555
O60 P7 1.533855 1_555
O61 Si3 1.620473 1_455
O62 P6 1.534914 1_565
O63 P5 1.534907 1_565
O64 Si2 1.620491 1_555
O65 P4 1.533843 1_455
O66 Si0 1.685186 1_555
O66 Zr4 2.079890 1_555
O67 P0 1.579312 1_555
O67 Zr4 2.201247 1_555
O68 P1 1.575795 1_555
O68 Zr4 2.263808 1_555
O69 P2 1.575800 1_555
O69 Zr5 2.263808 1_555
O70 P3 1.579303 1_555
O70 Zr5 2.201247 1_555
O71 Si1 1.685190 1_555
O71 Zr5 2.079890 1_555
