# generated using pymatgen
data_Sr2Mg(MoO4)2
_symmetry_space_group_name_H-M   'P 1'
_cell_length_a   5.66745218
_cell_length_b   5.48042355
_cell_length_c   7.52522947
_cell_angle_alpha   114.15538691
_cell_angle_beta   114.25315889
_cell_angle_gamma   83.01423234
_symmetry_Int_Tables_number   1
_chemical_formula_structural   Sr2Mg(MoO4)2
_chemical_formula_sum   'Sr2 Mg1 Mo2 O8'
_cell_volume   194.14120013
_cell_formula_units_Z   1
loop_
 _symmetry_equiv_pos_site_id
 _symmetry_equiv_pos_as_xyz
  1  'x, y, z'
loop_
 _atom_site_type_symbol
 _atom_site_label
 _atom_site_symmetry_multiplicity
 _atom_site_fract_x
 _atom_site_fract_y
 _atom_site_fract_z
 _atom_site_occupancy
  Sr  Sr0  1  0.64771676  0.89860624  0.29523711  1
  Sr  Sr1  1  0.37716942  0.12400409  0.75607625  1
  Mg  Mg0  1  0.06575542  0.81568838  0.12896928  1
  Mo  Mo0  1  0.16464238  0.41722371  0.33023786  1
  Mo  Mo1  1  0.84363200  0.58615045  0.68095582  1
  O  O0  1  0.14999827  0.52926112  0.88650973  1
  O  O1  1  0.37388676  0.72209677  0.40129349  1
  O  O2  1  0.02430103  0.18779826  0.40594019  1
  O  O3  1  0.74070683  0.85495805  0.88721563  1
  O  O4  1  0.26218949  0.11610901  0.13623656  1
  O  O5  1  0.99547646  0.74596210  0.56986521  1
  O  O6  1  0.57337092  0.32673606  0.57010167  1
  O  O7  1  0.87639227  0.52064375  0.13654619  1
loop_
_geom_bond_atom_site_label_1
_geom_bond_atom_site_label_2
_geom_bond_distance
_geom_bond_site_symmetry_2
Mg0 O0 2.051923 1_554
Mg0 O3 2.054352 1_454
Mg0 O4 2.067673 1_565
Mg0 O7 2.077849 1_455
Mg0 O1 2.283568 1_555
Mg0 O2 2.316298 1_565
Mo0 O7 1.899802 1_455
Mo0 O4 1.905161 1_555
Mo0 O1 1.927111 1_555
Mo0 O2 1.933860 1_555
Mo0 O5 2.399588 1_455
Mo0 O6 2.426542 1_555
Mo1 O0 1.887126 1_655
Mo1 O6 1.890118 1_555
Mo1 O5 1.892127 1_555
Mo1 O3 1.892904 1_555
Mo1 O2 2.756267 1_655
O0 Sr1 2.472300 1_555
O1 Sr0 2.448620 1_555
O1 Sr1 2.671359 1_565
O2 Sr0 2.458158 1_445
O2 Sr1 2.705370 1_555
O3 Sr1 2.484853 1_565
O4 Sr0 2.452050 1_545
O4 Sr1 3.201615 1_554
O5 Sr0 2.554004 1_555
O5 Sr1 2.675709 1_665
O6 Sr0 2.542579 1_545
O6 Sr1 2.698350 1_555
O7 Sr0 2.447525 1_555
O7 Sr1 3.267273 1_554
