# generated using pymatgen
data_Zr6CoCl15
_symmetry_space_group_name_H-M   'P 1'
_cell_length_a   8.89217493
_cell_length_b   8.89219192
_cell_length_c   8.89218261
_cell_angle_alpha   109.47124699
_cell_angle_beta   109.47119380
_cell_angle_gamma   109.47123692
_symmetry_Int_Tables_number   1
_chemical_formula_structural   Zr6CoCl15
_chemical_formula_sum   'Zr6 Co1 Cl15'
_cell_volume   541.25662115
_cell_formula_units_Z   1
loop_
 _symmetry_equiv_pos_site_id
 _symmetry_equiv_pos_as_xyz
  1  'x, y, z'
loop_
 _atom_site_type_symbol
 _atom_site_label
 _atom_site_symmetry_multiplicity
 _atom_site_fract_x
 _atom_site_fract_y
 _atom_site_fract_z
 _atom_site_occupancy
  Zr  Zr0  1  0.23923730  0.23923824  -0.00000024  1
  Zr  Zr1  1  0.76076142  0.76076266  0.00000013  1
  Zr  Zr2  1  0.76076167  -0.00000113  0.76076276  1
  Zr  Zr3  1  -0.00000102  0.76076195  0.76076193  1
  Zr  Zr4  1  -0.00000247  0.23923464  0.23923605  1
  Zr  Zr5  1  0.23923831  -0.00000035  0.23923915  1
  Co  Co0  1  -0.00000179  -0.00000128  -0.00000035  1
  Cl  Cl0  1  0.75244087  0.50488064  0.75244192  1
  Cl  Cl1  1  0.50000107  0.50000091  -0.00000005  1
  Cl  Cl2  1  0.00000063  0.50000018  0.49999956  1
  Cl  Cl3  1  0.50000114  0.00000046  0.50000046  1
  Cl  Cl4  1  0.24756114  0.00000061  0.75243974  1
  Cl  Cl5  1  0.00000018  0.24756070  0.75243923  1
  Cl  Cl6  1  0.75243925  -0.00000146  0.24755942  1
  Cl  Cl7  1  0.50487948  0.75244040  0.75244097  1
  Cl  Cl8  1  -0.00000097  0.75243908  0.24755987  1
  Cl  Cl9  1  0.24756208  0.24756280  0.49512347  1
  Cl  Cl10  1  0.75243903  0.24756150  -0.00000017  1
  Cl  Cl11  1  0.49512278  0.24756211  0.24756063  1
  Cl  Cl12  1  0.24755893  0.49512027  0.24755937  1
  Cl  Cl13  1  0.75243863  0.75243871  0.50487684  1
  Cl  Cl14  1  0.24756233  0.75243835  -0.00000068  1
loop_
_geom_bond_atom_site_label_1
_geom_bond_atom_site_label_2
_geom_bond_distance
_geom_bond_site_symmetry_2
Co0 Zr4 2.456435 1_555
Co0 Zr1 2.456436 1_445
Co0 Zr2 2.456437 1_454
Co0 Zr3 2.456447 1_544
Co0 Zr0 2.456462 1_555
Co0 Zr5 2.456463 1_555
Cl0 Zr3 2.543331 1_655
Cl0 Zr1 2.543333 1_556
Cl1 Zr1 2.677443 1_555
Cl1 Zr0 2.677465 1_555
Cl2 Zr3 2.677464 1_555
Cl2 Zr4 2.677465 1_555
Cl3 Zr5 2.677450 1_555
Cl3 Zr2 2.677456 1_555
Cl4 Zr0 2.543343 1_556
Cl4 Zr3 2.543350 1_545
Cl5 Zr0 2.543335 1_556
Cl5 Zr2 2.543355 1_455
Cl6 Zr1 2.543321 1_545
Cl6 Zr4 2.543323 1_655
Cl7 Zr1 2.543328 1_556
Cl7 Zr2 2.543328 1_565
Cl8 Zr5 2.543337 1_565
Cl8 Zr1 2.543339 1_455
Cl9 Zr5 2.543354 1_555
Cl9 Zr4 2.543355 1_555
Cl10 Zr4 2.543343 1_655
Cl10 Zr2 2.543348 1_554
Cl11 Zr0 2.543347 1_555
Cl11 Zr5 2.543362 1_555
Cl12 Zr0 2.543335 1_555
Cl12 Zr4 2.543354 1_555
Cl13 Zr3 2.543346 1_655
Cl13 Zr2 2.543351 1_565
Cl14 Zr3 2.543357 1_554
Cl14 Zr5 2.543362 1_565
