# generated using pymatgen
data_Ca2MnP2(H2O5)2
_symmetry_space_group_name_H-M   'P 1'
_cell_length_a   5.84821003
_cell_length_b   9.54657388
_cell_length_c   7.69163285
_cell_angle_alpha   79.77358100
_cell_angle_beta   103.63426597
_cell_angle_gamma   79.25999989
_symmetry_Int_Tables_number   1
_chemical_formula_structural   Ca2MnP2(H2O5)2
_chemical_formula_sum   'Ca4 Mn2 P4 H8 O20'
_cell_volume   398.83305973
_cell_formula_units_Z   2
loop_
 _symmetry_equiv_pos_site_id
 _symmetry_equiv_pos_as_xyz
  1  'x, y, z'
loop_
 _atom_site_type_symbol
 _atom_site_label
 _atom_site_symmetry_multiplicity
 _atom_site_fract_x
 _atom_site_fract_y
 _atom_site_fract_z
 _atom_site_occupancy
  Ca  Ca0  1  0.60294500  0.94931700  0.28444800  1
  Ca  Ca1  1  0.60294500  0.44931700  0.78444800  1
  Ca  Ca2  1  0.39705500  0.05068300  0.71555200  1
  Ca  Ca3  1  0.39705500  0.55068300  0.21555200  1
  Mn  Mn0  1  0.00000000  0.50000000  0.50000000  1
  Mn  Mn1  1  0.00000000  0.00000000  0.00000000  1
  P  P0  1  0.75296100  0.20775200  0.55940200  1
  P  P1  1  0.75296100  0.70775200  0.05940200  1
  P  P2  1  0.24703900  0.79224800  0.44059800  1
  P  P3  1  0.24703900  0.29224800  0.94059800  1
  H  H0  1  0.07087900  0.87616700  0.68706300  1
  H  H1  1  0.07087900  0.37616700  0.18706300  1
  H  H2  1  0.92912100  0.12383300  0.31293700  1
  H  H3  1  0.92912100  0.62383300  0.81293700  1
  H  H4  1  0.28395600  0.28842200  0.36914800  1
  H  H5  1  0.28395600  0.78842200  0.86914800  1
  H  H6  1  0.71604400  0.71157800  0.63085200  1
  H  H7  1  0.71604400  0.21157800  0.13085200  1
  O  O0  1  0.15769100  0.88300400  0.81476800  1
  O  O1  1  0.15769100  0.38300400  0.31476800  1
  O  O2  1  0.84230900  0.11699600  0.18523200  1
  O  O3  1  0.84230900  0.61699600  0.68523200  1
  O  O4  1  0.24609500  0.83713700  0.23370000  1
  O  O5  1  0.24609500  0.33713700  0.73370000  1
  O  O6  1  0.75390500  0.16286300  0.76630000  1
  O  O7  1  0.75390500  0.66286300  0.26630000  1
  O  O8  1  0.30686400  0.62027500  0.49715800  1
  O  O9  1  0.30686400  0.12027500  0.99715800  1
  O  O10  1  0.69313600  0.37972500  0.50284200  1
  O  O11  1  0.69313600  0.87972500  0.00284200  1
  O  O12  1  0.00462900  0.85641300  0.47342300  1
  O  O13  1  0.00462900  0.35641300  0.97342300  1
  O  O14  1  0.99537100  0.14358700  0.52657700  1
  O  O15  1  0.99537100  0.64358700  0.02657700  1
  O  O16  1  0.45844900  0.85040000  0.54801200  1
  O  O17  1  0.45844900  0.35040000  0.04801200  1
  O  O18  1  0.54155100  0.14960000  0.45198800  1
  O  O19  1  0.54155100  0.64960000  0.95198800  1
loop_
_geom_bond_atom_site_label_1
_geom_bond_atom_site_label_2
_geom_bond_distance
_geom_bond_site_symmetry_2
Ca0 O12 2.360877 1_655
Ca0 O2 2.451414 1_565
Ca0 O16 2.478071 1_555
Ca0 O4 2.500386 1_555
Ca0 O18 2.506494 1_565
Ca0 O11 2.515982 1_555
Ca0 O9 2.531223 1_564
Ca0 O7 2.751556 1_555
Ca1 O13 2.360877 1_655
Ca1 O3 2.451414 1_555
Ca1 O17 2.478071 1_556
Ca1 O5 2.500386 1_555
Ca1 O19 2.506494 1_555
Ca1 O10 2.515982 1_555
Ca1 O8 2.531223 1_555
Ca1 O6 2.751556 1_555
Ca2 O14 2.360877 1_455
Ca2 O0 2.451414 1_545
Ca2 O18 2.478071 1_555
Ca2 O6 2.500386 1_555
Ca2 O16 2.506494 1_545
Ca2 O9 2.515982 1_555
Ca2 O11 2.531223 1_546
Ca2 O5 2.751556 1_555
Ca3 O15 2.360877 1_455
Ca3 O1 2.451414 1_555
Ca3 O19 2.478071 1_554
Ca3 O7 2.500386 1_555
Ca3 O17 2.506494 1_555
Ca3 O8 2.515982 1_555
Ca3 O10 2.531223 1_555
Ca3 O4 2.751556 1_555
Mn0 O7 2.161902 1_455
Mn0 O5 2.161902 1_555
Mn0 O3 2.220003 1_455
Mn0 O1 2.220003 1_555
Mn0 O8 2.305874 1_555
Mn0 O10 2.305874 1_455
Mn1 O6 2.161902 1_454
Mn1 O4 2.161902 1_545
Mn1 O0 2.220003 1_544
Mn1 O2 2.220003 1_455
Mn1 O9 2.305874 1_554
Mn1 O11 2.305874 1_445
H0 O0 1.013341 1_555
H0 O12 1.650160 1_555
H1 O1 1.013341 1_555
H1 O13 1.650160 1_554
H2 O2 1.013341 1_555
H2 O14 1.650160 1_555
H3 O3 1.013341 1_555
H3 O15 1.650160 1_556
H4 O1 1.003642 1_555
H4 O18 1.713278 1_555
H5 O0 1.003642 1_555
H5 O19 1.713278 1_555
H6 O3 1.003642 1_555
H6 O16 1.713278 1_555
H7 O2 1.003642 1_555
H7 O17 1.713278 1_555
O4 P2 1.571306 1_555
O5 P3 1.571306 1_555
O6 P0 1.571306 1_555
O7 P1 1.571306 1_555
O8 P2 1.570852 1_555
O9 P3 1.570852 1_555
O10 P0 1.570852 1_555
O11 P1 1.570852 1_555
O12 P2 1.532562 1_555
O13 P3 1.532562 1_555
O14 P0 1.532562 1_555
O15 P1 1.532562 1_555
O16 P2 1.567322 1_555
O17 P3 1.567322 1_554
O18 P0 1.567322 1_555
O19 P1 1.567322 1_556
