# generated using pymatgen
data_Na8Ca3Ti(PO4)6
_symmetry_space_group_name_H-M   'P 1'
_cell_length_a   9.36025856
_cell_length_b   9.36025822
_cell_length_c   22.69349900
_cell_angle_alpha   90.00000000
_cell_angle_beta   90.00000000
_cell_angle_gamma   120.00000119
_symmetry_Int_Tables_number   1
_chemical_formula_structural   Na8Ca3Ti(PO4)6
_chemical_formula_sum   'Na24 Ca9 Ti3 P18 O72'
_cell_volume   1721.89936012
_cell_formula_units_Z   3
loop_
 _symmetry_equiv_pos_site_id
 _symmetry_equiv_pos_as_xyz
  1  'x, y, z'
loop_
 _atom_site_type_symbol
 _atom_site_label
 _atom_site_symmetry_multiplicity
 _atom_site_fract_x
 _atom_site_fract_y
 _atom_site_fract_z
 _atom_site_occupancy
  Na  Na0  1  0.63499972  0.99991678  0.25341404  1
  Na  Na1  1  0.36491706  0.36500028  0.25341404  1
  Na  Na2  1  0.00008322  0.63508294  0.25341404  1
  Na  Na3  1  0.64495367  0.63818765  0.74481919  1
  Na  Na4  1  0.99323398  0.35504633  0.74481919  1
  Na  Na5  1  0.36181235  0.00676602  0.74481919  1
  Na  Na6  1  0.29773286  0.33764460  0.57893468  1
  Na  Na7  1  0.03991274  0.70226714  0.57893468  1
  Na  Na8  1  0.66235540  0.96008726  0.57893468  1
  Na  Na9  1  0.29669378  0.95981680  0.08920411  1
  Na  Na10  1  0.66312402  0.70330622  0.08920411  1
  Na  Na11  1  0.04018320  0.33687598  0.08920411  1
  Na  Na12  1  0.96961978  0.67332750  0.91277425  1
  Na  Na13  1  0.70370673  0.03038022  0.91277425  1
  Na  Na14  1  0.32667250  0.29629327  0.91277425  1
  Na  Na15  1  0.97806722  0.30471327  0.41061623  1
  Na  Na16  1  0.32664505  0.02193278  0.41061623  1
  Na  Na17  1  0.69528673  0.67335495  0.41061623  1
  Na  Na18  1  -0.00000000  -0.00000000  0.49693057  1
  Na  Na19  1  -0.00000000  -0.00000000  0.00236805  1
  Na  Na20  1  0.66666700  0.33333300  0.83162148  1
  Na  Na21  1  0.66666700  0.33333300  0.32769551  1
  Na  Na22  1  0.33333300  0.66666700  0.17685818  1
  Na  Na23  1  0.33333300  0.66666700  0.65973648  1
  Ca  Ca0  1  -0.00000000  -0.00000000  0.34701338  1
  Ca  Ca1  1  -0.00000000  -0.00000000  0.84684442  1
  Ca  Ca2  1  -0.00000000  -0.00000000  0.65043906  1
  Ca  Ca3  1  -0.00000000  -0.00000000  0.15053568  1
  Ca  Ca4  1  0.66666700  0.33333300  0.68215638  1
  Ca  Ca5  1  0.66666700  0.33333300  0.18321474  1
  Ca  Ca6  1  0.33333300  0.66666700  0.01401097  1
  Ca  Ca7  1  0.33333300  0.66666700  0.51158034  1
  Ca  Ca8  1  0.33333300  0.66666700  0.32388401  1
  Ti  Ti0  1  0.66666700  0.33333300  0.98466867  1
  Ti  Ti1  1  0.66666700  0.33333300  0.48509651  1
  Ti  Ti2  1  0.33333300  0.66666700  0.81926173  1
  P  P0  1  0.30629862  0.99623271  0.24934308  1
  P  P1  1  0.68993409  0.69370138  0.24934308  1
  P  P2  1  0.00376729  0.31006591  0.24934308  1
  P  P3  1  0.30641755  0.32029972  0.75469291  1
  P  P4  1  0.01388218  0.69358245  0.75469291  1
  P  P5  1  0.67970028  0.98611782  0.75469291  1
  P  P6  1  0.95909034  0.33266894  0.58241419  1
  P  P7  1  0.37357960  0.04090966  0.58241419  1
  P  P8  1  0.66733106  0.62642040  0.58241419  1
  P  P9  1  0.95666907  0.62501559  0.07959237  1
  P  P10  1  0.66834752  0.04333093  0.07959237  1
  P  P11  1  0.37498441  0.33165248  0.07959237  1
  P  P12  1  0.62619643  0.65693430  0.91686965  1
  P  P13  1  0.03073687  0.37380357  0.91686965  1
  P  P14  1  0.34306570  0.96926313  0.91686965  1
  P  P15  1  0.64318898  0.98830179  0.42148259  1
  P  P16  1  0.34511181  0.35681102  0.42148259  1
  P  P17  1  0.01169821  0.65488819  0.42148259  1
  O  O0  1  0.21845546  0.01060024  0.30481647  1
  O  O1  1  0.79214477  0.78154454  0.30481647  1
  O  O2  1  0.98939976  0.20785523  0.30481647  1
  O  O3  1  0.22539385  0.21202133  0.80886702  1
  O  O4  1  0.98662748  0.77460615  0.80886702  1
  O  O5  1  0.78797867  0.01337252  0.80886702  1
  O  O6  1  0.75213541  0.95111114  0.69860510  1
  O  O7  1  0.19897573  0.24786459  0.69860510  1
  O  O8  1  0.04888886  0.80102427  0.69860510  1
  O  O9  1  0.77358117  0.79270066  0.19206244  1
  O  O10  1  0.01911949  0.22641883  0.19206244  1
  O  O11  1  0.20729934  0.98088051  0.19206244  1
  O  O12  1  0.88851258  0.34880134  0.64146552  1
  O  O13  1  0.46028976  0.11148742  0.64146552  1
  O  O14  1  0.65119866  0.53971024  0.64146552  1
  O  O15  1  0.88203627  0.53320661  0.13654451  1
  O  O16  1  0.65117134  0.11796373  0.13654451  1
  O  O17  1  0.46679339  0.34882866  0.13654451  1
  O  O18  1  0.48781379  0.32654753  0.02530393  1
  O  O19  1  0.83873475  0.51218621  0.02530393  1
  O  O20  1  0.67345247  0.16126525  0.02530393  1
  O  O21  1  0.48495708  0.15665556  0.53062461  1
  O  O22  1  0.67169948  0.51504292  0.53062461  1
  O  O23  1  0.84334444  0.32830052  0.53062461  1
  O  O24  1  0.55687297  0.68446311  0.97345252  1
  O  O25  1  0.12758914  0.44312703  0.97345252  1
  O  O26  1  0.31553689  0.87241086  0.97345252  1
  O  O27  1  0.56166320  0.87911903  0.47558422  1
  O  O28  1  0.31745483  0.43833680  0.47558422  1
  O  O29  1  0.12088097  0.68254517  0.47558422  1
  O  O30  1  0.08374407  0.61881534  0.36576724  1
  O  O31  1  0.53507027  0.91625593  0.36576724  1
  O  O32  1  0.38118466  0.46492973  0.36576724  1
  O  O33  1  0.13483987  0.49394100  0.86396473  1
  O  O34  1  0.35910013  0.86516013  0.86396473  1
  O  O35  1  0.50605900  0.64089987  0.86396473  1
  O  O36  1  0.98493781  0.80473243  0.41639044  1
  O  O37  1  0.81979462  0.01506219  0.41639044  1
  O  O38  1  0.19526757  0.18020538  0.41639044  1
  O  O39  1  0.00197770  0.19742503  0.90864508  1
  O  O40  1  0.19544733  0.99802230  0.90864508  1
  O  O41  1  0.80257497  0.80455267  0.90864508  1
  O  O42  1  0.96428587  0.16893793  0.57849266  1
  O  O43  1  0.20465205  0.03571413  0.57849266  1
  O  O44  1  0.83106207  0.79534795  0.57849266  1
  O  O45  1  0.95945263  0.79115234  0.07349367  1
  O  O46  1  0.83169971  0.04054737  0.07349367  1
  O  O47  1  0.20884766  0.16830029  0.07349367  1
  O  O48  1  0.65174264  0.13574925  0.75008823  1
  O  O49  1  0.48400761  0.34825736  0.75008823  1
  O  O50  1  0.86425075  0.51599239  0.75008823  1
  O  O51  1  0.67188152  0.51901311  0.24932502  1
  O  O52  1  0.84713259  0.32811848  0.24932502  1
  O  O53  1  0.48098689  0.15286741  0.24932502  1
  O  O54  1  0.63271071  0.49063870  0.91773865  1
  O  O55  1  0.85792900  0.36728929  0.91773865  1
  O  O56  1  0.50936130  0.14207100  0.91773865  1
  O  O57  1  0.65951233  0.16490997  0.42985929  1
  O  O58  1  0.50539864  0.34048767  0.42985929  1
  O  O59  1  0.83509003  0.49460136  0.42985929  1
  O  O60  1  0.35370020  0.48373210  0.07403535  1
  O  O61  1  0.13003091  0.64629980  0.07403535  1
  O  O62  1  0.51626790  0.86996909  0.07403535  1
  O  O63  1  0.35098268  0.86532100  0.57723998  1
  O  O64  1  0.51433731  0.64901732  0.57723998  1
  O  O65  1  0.13467900  0.48566269  0.57723998  1
  O  O66  1  0.32279082  0.83872266  0.25186306  1
  O  O67  1  0.51593084  0.67720918  0.25186306  1
  O  O68  1  0.16127734  0.48406916  0.25186306  1
  O  O69  1  0.32088879  0.49639828  0.76364092  1
  O  O70  1  0.17550849  0.67911121  0.76364092  1
  O  O71  1  0.50360172  0.82449151  0.76364092  1
loop_
_geom_bond_atom_site_label_1
_geom_bond_atom_site_label_2
_geom_bond_distance
_geom_bond_site_symmetry_2
Na0 O53 2.490048 1_565
Na0 O66 2.531528 1_555
Na0 O67 2.645946 1_555
Na0 O31 2.693801 1_555
Na0 O52 2.699792 1_565
Na0 O16 2.847915 1_565
Na1 O51 2.490057 1_555
Na1 O67 2.531528 1_555
Na1 O68 2.645955 1_555
Na1 O32 2.693803 1_555
Na1 O53 2.699799 1_555
Na1 O17 2.847919 1_555
Na2 O52 2.490056 1_455
Na2 O68 2.531520 1_555
Na2 O66 2.645948 1_555
Na2 O30 2.693800 1_555
Na2 O51 2.699790 1_455
Na2 O15 2.847917 1_455
Na3 O49 2.358028 1_555
Na3 O14 2.531429 1_555
Na3 O69 2.668177 1_555
Na3 O71 2.698389 1_555
Na3 O6 2.783370 1_555
Na3 O50 2.807815 1_555
Na4 O50 2.358021 1_555
Na4 O12 2.531425 1_555
Na4 O70 2.668176 1_655
Na4 O69 2.698381 1_655
Na4 O7 2.783370 1_655
Na4 O48 2.807807 1_555
Na5 O48 2.358029 1_555
Na5 O13 2.531427 1_555
Na5 O71 2.668168 1_545
Na5 O70 2.698382 1_545
Na5 O8 2.783370 1_545
Na5 O49 2.807806 1_555
Na6 O28 2.499846 1_555
Na6 O43 2.506789 1_555
Na6 O65 2.522893 1_555
Na6 O64 2.587948 1_555
Na6 O42 2.703078 1_455
Na6 O7 2.856420 1_555
Na7 O29 2.499839 1_555
Na7 O44 2.506798 1_455
Na7 O63 2.522877 1_555
Na7 O65 2.587935 1_555
Na7 O43 2.703078 1_565
Na7 O8 2.856421 1_555
Na8 O27 2.499844 1_555
Na8 O42 2.506791 1_565
Na8 O64 2.522876 1_555
Na8 O63 2.587953 1_555
Na8 O44 2.703069 1_555
Na8 O6 2.856418 1_555
Na9 O47 2.493197 1_565
Na9 O11 2.520430 1_555
Na9 O61 2.566320 1_555
Na9 O62 2.603534 1_555
Na9 O45 2.756902 1_455
Na9 O26 2.782964 1_554
Na10 O45 2.493188 1_555
Na10 O9 2.520428 1_555
Na10 O62 2.566336 1_555
Na10 O60 2.603547 1_555
Na10 O46 2.756902 1_565
Na10 O24 2.782970 1_554
Na11 O46 2.493190 1_455
Na11 O10 2.520427 1_555
Na11 O60 2.566319 1_555
Na11 O61 2.603551 1_555
Na11 O47 2.756894 1_555
Na11 O25 2.782968 1_554
Na12 O41 2.425458 1_555
Na12 O55 2.513320 1_555
Na12 O4 2.516619 1_555
Na12 O40 2.699911 1_655
Na12 O54 2.736628 1_555
Na12 O19 2.906789 1_556
Na13 O39 2.425466 1_655
Na13 O56 2.513302 1_555
Na13 O5 2.516622 1_555
Na13 O41 2.699918 1_545
Na13 O55 2.736627 1_555
Na13 O20 2.906784 1_556
Na14 O40 2.425466 1_545
Na14 O54 2.513317 1_555
Na14 O3 2.516620 1_555
Na14 O39 2.699909 1_555
Na14 O56 2.736643 1_555
Na14 O18 2.906792 1_556
Na15 O37 2.354995 1_555
Na15 O2 2.587280 1_555
Na15 O57 2.625277 1_555
Na15 O59 2.742192 1_555
Na15 O30 2.783910 1_655
Na15 O38 2.806788 1_655
Na16 O38 2.354988 1_555
Na16 O0 2.587276 1_555
Na16 O58 2.625278 1_555
Na16 O57 2.742208 1_555
Na16 O31 2.783910 1_545
Na16 O36 2.806780 1_445
Na17 O36 2.354996 1_555
Na17 O1 2.587278 1_555
Na17 O59 2.625294 1_555
Na17 O58 2.742207 1_555
Na17 O32 2.783910 1_555
Na17 O37 2.806779 1_565
Na18 O36 2.538405 1_445
Na18 O38 2.538405 1_555
Na18 O37 2.538405 1_455
Na18 O44 2.562582 1_445
Na18 O43 2.562582 1_555
Na18 O42 2.562582 1_455
Na19 O45 2.414312 1_445
Na19 O47 2.414312 1_555
Na19 O46 2.414312 1_455
Na19 O39 2.811541 1_554
Na19 O41 2.811541 1_444
Na19 O40 2.811541 1_544
Na20 O54 2.560533 1_555
Na20 O56 2.560533 1_555
Na20 O55 2.560533 1_555
Na20 O48 2.570036 1_555
Na20 O50 2.570036 1_555
Na20 O49 2.570036 1_555
Na21 O51 2.470083 1_555
Na21 O53 2.470083 1_555
Na21 O52 2.470083 1_555
Na21 O57 2.785576 1_555
Na21 O59 2.785576 1_555
Na21 O58 2.785576 1_555
Na22 O68 2.378979 1_555
Na22 O66 2.378979 1_555
Na22 O67 2.378979 1_555
Na22 O62 2.956285 1_555
Na22 O61 2.956285 1_555
Na22 O60 2.956285 1_555
Na23 O65 2.585063 1_555
Na23 O64 2.585063 1_555
Na23 O63 2.585063 1_555
Na23 O69 2.815661 1_555
Na23 O71 2.815661 1_555
Na23 O70 2.815661 1_555
Ca0 O1 2.214758 1_445
Ca0 O0 2.214758 1_555
Ca0 O2 2.214758 1_455
Ca0 O36 2.362549 1_445
Ca0 O38 2.362549 1_555
Ca0 O37 2.362549 1_455
Ca1 O4 2.223821 1_445
Ca1 O3 2.223821 1_555
Ca1 O5 2.223821 1_455
Ca1 O39 2.312570 1_555
Ca1 O41 2.312570 1_445
Ca1 O40 2.312570 1_545
Ca2 O7 2.392747 1_555
Ca2 O8 2.392747 1_545
Ca2 O6 2.392747 1_445
Ca2 O44 2.409699 1_445
Ca2 O43 2.409699 1_555
Ca2 O42 2.409699 1_455
Ca3 O10 2.243309 1_555
Ca3 O9 2.243309 1_445
Ca3 O11 2.243309 1_545
Ca3 O45 2.506063 1_445
Ca3 O47 2.506063 1_555
Ca3 O46 2.506063 1_455
Ca4 O13 2.210202 1_555
Ca4 O14 2.210202 1_555
Ca4 O12 2.210202 1_555
Ca4 O48 2.357569 1_555
Ca4 O50 2.357569 1_555
Ca4 O49 2.357569 1_555
Ca5 O16 2.216813 1_555
Ca5 O15 2.216813 1_555
Ca5 O17 2.216813 1_555
Ca5 O51 2.277952 1_555
Ca5 O53 2.277952 1_555
Ca5 O52 2.277952 1_555
Ca6 O25 2.214604 1_554
Ca6 O26 2.214604 1_554
Ca6 O24 2.214604 1_554
Ca6 O62 2.269428 1_555
Ca6 O61 2.269428 1_555
Ca6 O60 2.269429 1_555
Ca7 O28 2.222495 1_555
Ca7 O27 2.222495 1_555
Ca7 O29 2.222495 1_555
Ca7 O65 2.323339 1_555
Ca7 O64 2.323339 1_555
Ca7 O63 2.323339 1_555
Ca8 O68 2.331010 1_555
Ca8 O66 2.331010 1_555
Ca8 O67 2.331010 1_555
Ca8 O31 2.348517 1_555
Ca8 O32 2.348517 1_555
Ca8 O30 2.348517 1_555
O0 P0 1.545809 1_545
O1 P1 1.545809 1_555
O2 P2 1.545809 1_655
O3 P3 1.531391 1_555
O4 P4 1.531391 1_655
O5 P5 1.531391 1_545
O6 P5 1.552200 1_555
O7 P3 1.552200 1_555
O8 P4 1.552200 1_555
O9 P1 1.560743 1_555
O10 P2 1.560743 1_555
O11 P0 1.560744 1_555
O12 P6 1.534537 1_555
O13 P7 1.534537 1_555
O14 P8 1.534537 1_555
O15 P9 1.515450 1_555
O16 P10 1.515450 1_555
O17 P11 1.515450 1_555
O18 P11 1.638881 1_555
O18 Ti0 1.884338 1_554
O19 P9 1.638881 1_555
O19 Ti0 1.884338 1_554
O20 P10 1.638881 1_555
O20 Ti0 1.884338 1_554
O21 P7 1.585071 1_555
O21 Ti1 1.970401 1_555
O22 P8 1.585071 1_555
O22 Ti1 1.970401 1_555
O23 P6 1.585071 1_555
O23 Ti1 1.970402 1_555
O24 P12 1.517719 1_555
O25 P13 1.517719 1_555
O26 P14 1.517719 1_555
O27 P15 1.534365 1_555
O28 P16 1.534365 1_555
O29 P17 1.534365 1_555
O30 P17 1.547620 1_555
O31 P15 1.547620 1_555
O32 P16 1.547620 1_555
O33 P13 1.599914 1_555
O33 Ti2 2.022664 1_555
O34 P14 1.599914 1_555
O34 Ti2 2.022664 1_555
O35 P12 1.599914 1_555
O35 Ti2 2.022664 1_555
O36 P17 1.547467 1_655
O37 P15 1.547476 1_545
O38 P16 1.547473 1_555
O39 P13 1.545480 1_555
O40 P14 1.545471 1_555
O41 P12 1.545477 1_555
O42 P6 1.559990 1_555
O43 P7 1.560000 1_555
O44 P8 1.559995 1_555
O45 P9 1.548418 1_555
O46 P10 1.548409 1_555
O47 P11 1.548414 1_555
O48 P5 1.551635 1_545
O49 P3 1.551644 1_555
O50 P4 1.551641 1_655
O51 P1 1.557529 1_555
O52 P2 1.557520 1_655
O53 P0 1.557525 1_545
O54 P12 1.588058 1_555
O54 Ti0 2.245891 1_555
O55 P13 1.588039 1_655
O55 Ti0 2.245891 1_555
O56 P14 1.588048 1_545
O56 Ti0 2.245891 1_555
O57 P15 1.593624 1_545
O57 Ti1 1.988853 1_555
O58 P16 1.593642 1_555
O58 Ti1 1.988853 1_555
O59 P17 1.593632 1_655
O59 Ti1 1.988853 1_555
O60 P11 1.538037 1_555
O61 P9 1.538019 1_455
O62 P10 1.538026 1_565
O63 P7 1.553115 1_565
O64 P8 1.553134 1_555
O65 P6 1.553122 1_455
O66 P0 1.558319 1_555
O67 P1 1.558329 1_555
O68 P2 1.558325 1_555
O69 P3 1.597903 1_555
O69 Ti2 1.990281 1_555
O70 P4 1.597894 1_555
O70 Ti2 1.990281 1_555
O71 P5 1.597899 1_555
O71 Ti2 1.990281 1_555
