# generated using pymatgen
data_MgTiV2CrO10
_symmetry_space_group_name_H-M   'P 1'
_cell_length_a   6.56658200
_cell_length_b   6.56658200
_cell_length_c   5.49915000
_cell_angle_alpha   90.00000000
_cell_angle_beta   90.00000000
_cell_angle_gamma   90.00000000
_symmetry_Int_Tables_number   1
_chemical_formula_structural   MgTiV2CrO10
_chemical_formula_sum   'Mg1 Ti1 V2 Cr1 O10'
_cell_volume   237.12334340
_cell_formula_units_Z   1
loop_
 _symmetry_equiv_pos_site_id
 _symmetry_equiv_pos_as_xyz
  1  'x, y, z'
loop_
 _atom_site_type_symbol
 _atom_site_label
 _atom_site_symmetry_multiplicity
 _atom_site_fract_x
 _atom_site_fract_y
 _atom_site_fract_z
 _atom_site_occupancy
  Mg  Mg0  1  0.75000000  0.25000000  0.00000000  1
  Ti  Ti0  1  0.75000000  0.25000000  0.50000000  1
  V  V0  1  0.25000000  0.25000000  0.61903200  1
  V  V1  1  0.75000000  0.75000000  0.38096800  1
  Cr  Cr0  1  0.25000000  0.75000000  0.50000000  1
  O  O0  1  0.04734600  0.75000000  0.31726400  1
  O  O1  1  0.25000000  0.25000000  0.32219900  1
  O  O2  1  0.25000000  0.54734600  0.68273600  1
  O  O3  1  0.25000000  0.95265400  0.68273600  1
  O  O4  1  0.45265400  0.75000000  0.31726400  1
  O  O5  1  0.54326300  0.25000000  0.72635700  1
  O  O6  1  0.75000000  0.04326300  0.27364300  1
  O  O7  1  0.75000000  0.45673700  0.27364300  1
  O  O8  1  0.75000000  0.75000000  0.67780100  1
  O  O9  1  0.95673700  0.25000000  0.72635700  1
loop_
_geom_bond_atom_site_label_1
_geom_bond_atom_site_label_2
_geom_bond_distance
_geom_bond_site_symmetry_2
Mg0 O7 2.026670 1_555
Mg0 O6 2.026670 1_555
Mg0 O9 2.026670 1_554
Mg0 O5 2.026670 1_554
Cr0 O0 1.667540 1_555
Cr0 O2 1.667540 1_555
Cr0 O4 1.667540 1_555
Cr0 O3 1.667540 1_555
O0 V1 1.983724 1_455
O1 V0 1.632329 1_555
O2 V0 1.983724 1_555
O3 V0 1.983724 1_565
O4 V1 1.983724 1_555
O5 Ti0 1.841850 1_555
O5 V0 2.014147 1_555
O6 Ti0 1.841850 1_555
O6 V1 2.014147 1_545
O7 Ti0 1.841850 1_555
O7 V1 2.014147 1_555
O8 V1 1.632329 1_555
O9 Ti0 1.841850 1_555
O9 V0 2.014147 1_655
