# generated using pymatgen
data_MgMn6(O5F)2
_symmetry_space_group_name_H-M   'P 1'
_cell_length_a   7.07592263
_cell_length_b   5.91495715
_cell_length_c   5.65611611
_cell_angle_alpha   82.81876770
_cell_angle_beta   72.99727107
_cell_angle_gamma   73.01698356
_symmetry_Int_Tables_number   1
_chemical_formula_structural   MgMn6(O5F)2
_chemical_formula_sum   'Mg1 Mn6 O10 F2'
_cell_volume   216.30732820
_cell_formula_units_Z   1
loop_
 _symmetry_equiv_pos_site_id
 _symmetry_equiv_pos_as_xyz
  1  'x, y, z'
loop_
 _atom_site_type_symbol
 _atom_site_label
 _atom_site_symmetry_multiplicity
 _atom_site_fract_x
 _atom_site_fract_y
 _atom_site_fract_z
 _atom_site_occupancy
  Mg  Mg0  1  0.00523736  0.49246074  0.99325131  1
  Mn  Mn0  1  0.83211056  0.67524474  0.62120502  1
  Mn  Mn1  1  0.66630559  0.27501986  0.38508258  1
  Mn  Mn2  1  0.34169182  0.71808427  0.60792961  1
  Mn  Mn3  1  0.17660383  0.31806792  0.36853134  1
  Mn  Mn4  1  0.50487566  0.99523498  0.99682734  1
  Mn  Mn5  1  0.00481553  0.98915680  0.00313165  1
  O  O0  1  0.66870077  0.98808743  0.64947535  1
  O  O1  1  0.29944466  0.89712758  0.89280881  1
  O  O2  1  0.63173597  0.55606449  0.56299936  1
  O  O3  1  0.96696894  0.22448603  0.23857673  1
  O  O4  1  0.70985021  0.09285147  0.10207442  1
  O  O5  1  0.04226116  0.76615446  0.75438895  1
  O  O6  1  0.37626054  0.43757884  0.42845622  1
  O  O7  1  0.33942356  0.00476340  0.34359942  1
  O  O8  1  0.00289094  0.34463610  0.68304413  1
  O  O9  1  0.00427969  0.65081588  0.30329364  1
  F  F0  1  0.30052883  0.36013559  0.99910243  1
  F  F1  1  0.70934736  0.63069640  0.99122170  1
loop_
_geom_bond_atom_site_label_1
_geom_bond_atom_site_label_2
_geom_bond_distance
_geom_bond_site_symmetry_2
Mg0 O3 1.998059 1_456
Mg0 O5 2.002161 1_555
Mg0 O8 2.062135 1_555
Mg0 O9 2.086297 1_556
Mn0 O9 1.849144 1_655
Mn0 O0 1.871533 1_555
Mn0 O2 1.878958 1_555
Mn0 O8 2.025453 1_655
Mn0 O5 2.071548 1_655
Mn1 O4 1.940913 1_555
Mn1 O6 1.951543 1_555
Mn1 O2 1.967921 1_555
Mn1 O3 1.990366 1_555
Mn1 O0 2.116730 1_545
Mn2 O1 1.940934 1_555
Mn2 O2 1.949857 1_555
Mn2 O6 1.970271 1_555
Mn2 O5 1.984102 1_555
Mn2 O7 2.115467 1_565
Mn3 O8 1.838037 1_555
Mn3 O7 1.872053 1_555
Mn3 O6 1.879846 1_555
Mn3 O9 2.043608 1_555
Mn3 O3 2.065450 1_455
Mn4 O0 1.966129 1_555
Mn4 O7 1.966461 1_566
Mn4 O4 1.967605 1_566
Mn4 O1 1.968294 1_555
Mn5 O1 1.921753 1_554
Mn5 O4 1.923659 1_465
Mn5 O3 1.954439 1_465
Mn5 O5 1.957373 1_554
Mn5 O9 2.457368 1_555
Mn5 O8 2.597110 1_564
F0 Mg0 2.014484 1_555
F0 Mn3 2.030488 1_556
F0 Mn4 2.218648 1_545
F1 Mg0 2.015911 1_655
F1 Mn0 2.033882 1_555
F1 Mn4 2.216180 1_555
