# generated using pymatgen
data_Na3La2Ga2P3(SO8)3
_symmetry_space_group_name_H-M   'P 1'
_cell_length_a   8.97640328
_cell_length_b   8.97922483
_cell_length_c   23.51457089
_cell_angle_alpha   87.84945957
_cell_angle_beta   91.85289545
_cell_angle_gamma   119.66298625
_symmetry_Int_Tables_number   1
_chemical_formula_structural   Na3La2Ga2P3(SO8)3
_chemical_formula_sum   'Na9 La6 Ga6 P9 S9 O72'
_cell_volume   1645.55805127
_cell_formula_units_Z   3
loop_
 _symmetry_equiv_pos_site_id
 _symmetry_equiv_pos_as_xyz
  1  'x, y, z'
loop_
 _atom_site_type_symbol
 _atom_site_label
 _atom_site_symmetry_multiplicity
 _atom_site_fract_x
 _atom_site_fract_y
 _atom_site_fract_z
 _atom_site_occupancy
  Na  Na0  1  0.37281865  0.37101168  0.25202297  1
  Na  Na1  1  0.68247999  0.01435543  0.92302147  1
  Na  Na2  1  0.97422889  0.30396828  0.41383767  1
  Na  Na3  1  0.00675407  0.99193519  0.48999062  1
  Na  Na4  1  0.01001905  0.98551545  0.01030361  1
  Na  Na5  1  0.65558152  0.33908452  0.83983095  1
  Na  Na6  1  0.66575980  0.33341663  0.33292715  1
  Na  Na7  1  0.33688882  0.70183958  0.17670246  1
  Na  Na8  1  0.33200218  0.66949463  0.66725403  1
  La  La0  1  0.00462760  0.99010613  0.85454245  1
  La  La1  1  0.99019998  0.01536065  0.64169885  1
  La  La2  1  0.67197299  0.31964117  0.68326276  1
  La  La3  1  0.33482139  0.66602405  0.03066537  1
  La  La4  1  0.32384570  0.66588362  0.50399393  1
  La  La5  1  0.35221556  0.68058216  0.82592869  1
  Ga  Ga0  1  0.02161408  0.00837592  0.34039646  1
  Ga  Ga1  1  0.99887575  0.01314184  0.15835990  1
  Ga  Ga2  1  0.67072335  0.30320790  0.18734216  1
  Ga  Ga3  1  0.66496636  0.32638336  0.99426918  1
  Ga  Ga4  1  0.66769352  0.35532599  0.47405437  1
  Ga  Ga5  1  0.29208878  0.65267437  0.31637271  1
  P  P0  1  0.28828131  0.99622835  0.24833016  1
  P  P1  1  0.00032469  0.29119135  0.25140174  1
  P  P2  1  0.68307730  0.98975902  0.75534744  1
  P  P3  1  0.95047082  0.33141230  0.56775585  1
  P  P4  1  0.69680499  0.05853903  0.09086504  1
  P  P5  1  0.63959113  0.64614323  0.92738957  1
  P  P6  1  0.35619579  0.99778082  0.92664795  1
  P  P7  1  0.33051928  0.35979171  0.40647558  1
  P  P8  1  0.01602078  0.67121448  0.40764090  1
  S  S0  1  0.71115572  0.71447897  0.24795278  1
  S  S1  1  0.31079838  0.31829657  0.74960463  1
  S  S2  1  0.00584433  0.69103292  0.74903931  1
  S  S3  1  0.37228833  0.04603140  0.57143684  1
  S  S4  1  0.67351965  0.63017551  0.57310294  1
  S  S5  1  0.93020126  0.61540612  0.09320256  1
  S  S6  1  0.37769200  0.30506381  0.09376038  1
  S  S7  1  0.01163401  0.36157320  0.92287699  1
  S  S8  1  0.64206065  0.97326352  0.40758402  1
  O  O0  1  0.21858337  0.04725590  0.29922624  1
  O  O1  1  0.81964533  0.80155060  0.29812155  1
  O  O2  1  0.97117866  0.17959059  0.30628170  1
  O  O3  1  0.21865029  0.22365463  0.80148883  1
  O  O4  1  0.02407218  0.78826527  0.80077096  1
  O  O5  1  0.75688926  0.96966593  0.81370814  1
  O  O6  1  0.79950925  0.00846444  0.70506061  1
  O  O7  1  0.22297109  0.22084360  0.69761310  1
  O  O8  1  0.99835560  0.78521158  0.69695291  1
  O  O9  1  0.79036797  0.81809026  0.19464494  1
  O  O10  1  0.04558183  0.21399870  0.20114435  1
  O  O11  1  0.16760842  0.96261753  0.19570998  1
  O  O12  1  0.86240673  0.32130632  0.62388942  1
  O  O13  1  0.44573939  0.12159134  0.62757823  1
  O  O14  1  0.67535222  0.54822711  0.62851833  1
  O  O15  1  0.84273922  0.51385089  0.14526662  1
  O  O16  1  0.66801618  0.14311479  0.14153250  1
  O  O17  1  0.48328364  0.32664599  0.14645002  1
  O  O18  1  0.46059215  0.29467585  0.04152410  1
  O  O19  1  0.83614755  0.53091458  0.03983572  1
  O  O20  1  0.71409854  0.16106081  0.03384000  1
  O  O21  1  0.47782174  0.15288203  0.52312993  1
  O  O22  1  0.65923160  0.52387013  0.52417579  1
  O  O23  1  0.84900346  0.34067225  0.51362733  1
  O  O24  1  0.53273321  0.67670795  0.97041573  1
  O  O25  1  0.12511598  0.44862612  0.97096118  1
  O  O26  1  0.32582190  0.86935363  0.97546648  1
  O  O27  1  0.58351757  0.88386195  0.46347782  1
  O  O28  1  0.27786268  0.42347463  0.45789465  1
  O  O29  1  0.11735911  0.71762538  0.46367300  1
  O  O30  1  0.10970993  0.61892502  0.36316450  1
  O  O31  1  0.51889174  0.87729155  0.36107756  1
  O  O32  1  0.36161415  0.48475707  0.35346957  1
  O  O33  1  0.08598963  0.44994599  0.86764125  1
  O  O34  1  0.38163956  0.92610851  0.87050714  1
  O  O35  1  0.55010801  0.61559413  0.86792421  1
  O  O36  1  0.99433590  0.82528401  0.38976478  1
  O  O37  1  0.81724017  0.99693382  0.39979218  1
  O  O38  1  0.17333341  0.17815273  0.39676450  1
  O  O39  1  0.98060730  0.18156143  0.92245416  1
  O  O40  1  0.20773789  0.03606276  0.92439118  1
  O  O41  1  0.81705284  0.81326780  0.92634834  1
  O  O42  1  0.96505295  0.16718841  0.56279631  1
  O  O43  1  0.19798559  0.02636352  0.56654548  1
  O  O44  1  0.83427932  0.79723661  0.56761736  1
  O  O45  1  0.94570148  0.78779014  0.09354039  1
  O  O46  1  0.86729515  0.05082031  0.09861299  1
  O  O47  1  0.20632563  0.14661265  0.09696131  1
  O  O48  1  0.66401080  0.15087547  0.75946930  1
  O  O49  1  0.48687522  0.34305520  0.75371754  1
  O  O50  1  0.84554637  0.52393337  0.75516990  1
  O  O51  1  0.68919607  0.53751463  0.24580041  1
  O  O52  1  0.83914987  0.31169095  0.24264376  1
  O  O53  1  0.47233937  0.15686104  0.24024011  1
  O  O54  1  0.65919997  0.48900881  0.94187685  1
  O  O55  1  0.84354680  0.35283872  0.92812865  1
  O  O56  1  0.52972828  0.16396657  0.93583497  1
  O  O57  1  0.66135962  0.14989873  0.41042919  1
  O  O58  1  0.49663622  0.34796501  0.41831491  1
  O  O59  1  0.83856963  0.50302633  0.41416872  1
  O  O60  1  0.35380281  0.45674773  0.09146551  1
  O  O61  1  0.10448715  0.63248329  0.09318560  1
  O  O62  1  0.54058541  0.87668989  0.08897543  1
  O  O63  1  0.36070143  0.87522531  0.57295337  1
  O  O64  1  0.52407049  0.65766030  0.57350779  1
  O  O65  1  0.13032697  0.49025311  0.57158487  1
  O  O66  1  0.30268490  0.83061167  0.26070511  1
  O  O67  1  0.53513049  0.69261255  0.25164021  1
  O  O68  1  0.16508602  0.47375736  0.25868572  1
  O  O69  1  0.31675260  0.48489806  0.74568256  1
  O  O70  1  0.15411111  0.66392690  0.74552759  1
  O  O71  1  0.50625325  0.83085488  0.74508014  1
loop_
_geom_bond_atom_site_label_1
_geom_bond_atom_site_label_2
_geom_bond_distance
_geom_bond_site_symmetry_2
Na0 O68 2.466835 1_555
Na0 O51 2.475831 1_555
Na0 O67 2.509245 1_555
Na0 O53 2.515682 1_555
Na0 O32 2.654013 1_555
Na0 O0 2.733750 1_555
Na0 O10 2.801372 1_555
Na0 O17 2.815872 1_555
Na1 O39 2.332346 1_555
Na1 O56 2.378208 1_555
Na1 O41 2.620637 1_545
Na1 O55 2.647447 1_555
Na1 O34 2.680497 1_545
Na1 O5 2.769137 1_545
Na1 O24 2.837304 1_545
Na1 O20 2.906205 1_556
Na2 O37 2.426606 1_545
Na2 O57 2.440446 1_555
Na2 O28 2.580560 1_655
Na2 O38 2.590487 1_655
Na2 O59 2.614132 1_555
Na2 O30 2.708016 1_655
Na2 O23 2.733783 1_555
Na2 O2 2.796744 1_555
Na3 O43 2.366312 1_565
Na3 O44 2.459565 1_455
Na3 O42 2.524689 1_465
Na3 O37 2.688789 1_455
Na3 O38 2.701762 1_565
Na3 O36 2.808661 1_455
Na4 O45 2.472668 1_455
Na4 O41 2.578012 1_454
Na4 O40 2.608226 1_564
Na4 O47 2.610727 1_565
Na4 O46 2.702644 1_465
Na4 O39 2.754563 1_464
Na5 O49 2.498926 1_555
Na5 O55 2.599898 1_555
Na5 O50 2.606900 1_555
Na5 O48 2.609227 1_555
Na5 O56 2.642971 1_555
Na5 O54 2.786638 1_555
Na6 O57 2.398553 1_555
Na6 O59 2.462426 1_555
Na6 O58 2.601219 1_555
Na6 O51 2.639068 1_555
Na6 O52 2.740950 1_555
Na6 O53 2.751028 1_555
Na7 O66 2.427964 1_555
Na7 O67 2.492142 1_555
Na7 O68 2.656845 1_555
Na7 O61 2.671607 1_555
Na7 O62 2.687576 1_555
Na8 O71 2.380264 1_555
Na8 O69 2.393660 1_555
Na8 O70 2.458490 1_555
Na8 O63 2.766659 1_555
Na8 O65 2.837756 1_555
Na8 O64 2.878860 1_555
La0 O40 2.303165 1_565
La0 O5 2.317782 1_455
La0 O4 2.326644 1_555
La0 O41 2.354498 1_455
La0 O3 2.369783 1_565
La0 O39 2.479353 1_465
La1 O6 2.281835 1_555
La1 O42 2.332288 1_555
La1 O7 2.384819 1_655
La1 O8 2.430273 1_545
La1 O44 2.492914 1_545
La1 O43 2.574734 1_655
La2 O12 2.235839 1_555
La2 O48 2.282524 1_555
La2 O13 2.330081 1_555
La2 O14 2.369283 1_555
La2 O50 2.425914 1_555
La2 O49 2.469701 1_555
La3 O26 2.232926 1_554
La3 O24 2.270753 1_554
La3 O62 2.332895 1_555
La3 O60 2.388249 1_555
La3 O25 2.392214 1_554
La3 O61 2.464520 1_555
La4 O29 2.292584 1_555
La4 O65 2.304250 1_555
La4 O28 2.311298 1_555
La4 O27 2.379023 1_555
La4 O64 2.416595 1_555
La4 O63 2.418841 1_555
La5 O35 2.310946 1_555
La5 O71 2.340428 1_555
La5 O34 2.368160 1_555
La5 O33 2.462188 1_555
La5 O70 2.509887 1_555
La5 O69 2.530941 1_555
Ga0 O36 1.893964 1_445
Ga0 O0 1.912996 1_555
Ga0 O2 1.945474 1_455
Ga0 O38 1.978778 1_555
Ga0 O1 2.100809 1_445
Ga0 O37 2.301117 1_445
Ga1 O46 1.932837 1_555
Ga1 O10 1.949655 1_655
Ga1 O11 1.958423 1_645
Ga1 O9 2.011232 1_545
Ga1 O47 2.196231 1_655
Ga1 O45 2.423624 1_545
Ga2 O16 1.818605 1_555
Ga2 O52 1.936200 1_555
Ga2 O15 2.002042 1_555
Ga2 O17 2.007608 1_555
Ga2 O53 2.037045 1_555
Ga2 O51 2.490070 1_555
Ga3 O54 1.894325 1_555
Ga3 O56 1.943904 1_555
Ga3 O20 1.944679 1_556
Ga3 O19 2.032250 1_556
Ga3 O18 2.066987 1_556
Ga3 O55 2.191235 1_555
Ga4 O23 1.907052 1_555
Ga4 O58 1.963639 1_555
Ga4 O22 1.984598 1_555
Ga4 O59 2.020053 1_555
Ga4 O21 2.108106 1_555
Ga4 O57 2.396223 1_555
Ga5 O30 1.892880 1_555
Ga5 O68 1.992842 1_555
Ga5 O66 1.993983 1_555
Ga5 O32 2.054567 1_555
Ga5 O31 2.296557 1_555
O0 P0 1.551449 1_545
O1 S0 1.480757 1_555
O2 P1 1.550241 1_655
O3 S1 1.478698 1_555
O4 S2 1.481287 1_555
O5 P2 1.547826 1_555
O6 P2 1.552428 1_545
O7 S1 1.488970 1_555
O8 S2 1.480866 1_655
O9 S0 1.502587 1_555
O10 P1 1.553481 1_555
O11 P0 1.553452 1_555
O12 P3 1.537171 1_555
O13 S3 1.485251 1_555
O14 S4 1.475921 1_555
O15 S5 1.488789 1_555
O16 P4 1.531359 1_555
O17 S6 1.493744 1_555
O18 S6 1.485805 1_555
O19 S5 1.494018 1_555
O20 P4 1.564921 1_555
O21 S3 1.482027 1_555
O22 S4 1.484234 1_555
O23 P3 1.564795 1_555
O24 P5 1.537259 1_555
O25 S7 1.459736 1_555
O26 P6 1.526965 1_555
O27 S8 1.481871 1_555
O28 P7 1.539052 1_555
O29 P8 1.524998 1_555
O30 P8 1.583056 1_555
O31 S8 1.486746 1_555
O32 P7 1.580530 1_555
O33 S7 1.488838 1_555
O34 P6 1.561350 1_555
O35 P5 1.553626 1_555
O36 P8 1.531683 1_655
O37 S8 1.495442 1_555
O38 P7 1.559616 1_555
O39 S7 1.498584 1_655
O40 P6 1.531113 1_545
O41 P5 1.556846 1_555
O42 P3 1.552460 1_555
O43 S3 1.486210 1_555
O44 S4 1.484647 1_555
O45 S5 1.484258 1_555
O46 P4 1.570380 1_555
O47 S6 1.493106 1_555
O48 P2 1.545412 1_545
O49 S1 1.483514 1_555
O50 S2 1.484163 1_655
O51 S0 1.503899 1_555
O52 P1 1.552712 1_655
O53 P0 1.577117 1_545
O54 P5 1.530903 1_555
O55 S7 1.480584 1_655
O56 P6 1.549689 1_545
O57 S8 1.511718 1_545
O58 P7 1.562027 1_555
O59 P8 1.568093 1_655
O60 S6 1.478774 1_555
O61 S5 1.494537 1_455
O62 P4 1.539374 1_565
O63 S3 1.484112 1_565
O64 S4 1.479649 1_555
O65 P3 1.539452 1_455
O66 P0 1.571078 1_555
O67 S0 1.497736 1_555
O68 P1 1.583965 1_555
O69 S1 1.469715 1_555
O70 S2 1.471937 1_555
O71 P2 1.540435 1_555
