# generated using pymatgen
data_Nd2MgCuO4
_symmetry_space_group_name_H-M   'P 1'
_cell_length_a   4.04523011
_cell_length_b   4.04523011
_cell_length_c   7.82714046
_cell_angle_alpha   105.11132214
_cell_angle_beta   105.11132214
_cell_angle_gamma   89.93857072
_symmetry_Int_Tables_number   1
_chemical_formula_structural   Nd2MgCuO4
_chemical_formula_sum   'Nd2 Mg1 Cu1 O4'
_cell_volume   119.06986895
_cell_formula_units_Z   1
loop_
 _symmetry_equiv_pos_site_id
 _symmetry_equiv_pos_as_xyz
  1  'x, y, z'
loop_
 _atom_site_type_symbol
 _atom_site_label
 _atom_site_symmetry_multiplicity
 _atom_site_fract_x
 _atom_site_fract_y
 _atom_site_fract_z
 _atom_site_occupancy
  Nd  Nd0  1  0.59949600  0.59949600  0.20164100  1
  Nd  Nd1  1  0.36936500  0.36936500  0.73340700  1
  Mg  Mg0  1  0.79947900  0.79947900  0.59522300  1
  Cu  Cu0  1  0.97647600  0.97647600  0.95313100  1
  O  O0  1  0.52077200  0.01934800  0.04278300  1
  O  O1  1  0.77410300  0.27429500  0.54551600  1
  O  O2  1  0.01934800  0.52077200  0.04278300  1
  O  O3  1  0.27429500  0.77410300  0.54551600  1
loop_
_geom_bond_atom_site_label_1
_geom_bond_atom_site_label_2
_geom_bond_distance
_geom_bond_site_symmetry_2
Nd0 O0 2.329266 1_565
Nd0 O2 2.329266 1_655
Nd0 O2 2.329976 1_555
Nd0 O0 2.329976 1_555
Nd1 O1 2.439366 1_555
Nd1 O3 2.439366 1_555
Nd1 O1 2.443306 1_455
Nd1 O3 2.443306 1_545
Mg0 O1 2.054150 1_565
Mg0 O3 2.054150 1_655
Mg0 O1 2.055249 1_555
Mg0 O3 2.055249 1_555
Cu0 O2 2.121842 1_666
Cu0 O0 2.121842 1_666
Cu0 O0 2.128621 1_566
Cu0 O2 2.128621 1_656
Cu0 Mg0 2.604347 1_555
