# generated using pymatgen
data_MgTi2(Fe2O5)2
_symmetry_space_group_name_H-M   'P 1'
_cell_length_a   3.97177700
_cell_length_b   5.35136846
_cell_length_c   10.00329891
_cell_angle_alpha   88.40739195
_cell_angle_beta   90.00000000
_cell_angle_gamma   111.78342891
_symmetry_Int_Tables_number   1
_chemical_formula_structural   MgTi2(Fe2O5)2
_chemical_formula_sum   'Mg1 Ti2 Fe4 O10'
_cell_volume   197.34396384
_cell_formula_units_Z   1
loop_
 _symmetry_equiv_pos_site_id
 _symmetry_equiv_pos_as_xyz
  1  'x, y, z'
loop_
 _atom_site_type_symbol
 _atom_site_label
 _atom_site_symmetry_multiplicity
 _atom_site_fract_x
 _atom_site_fract_y
 _atom_site_fract_z
 _atom_site_occupancy
  Mg  Mg0  1  0.50000000  0.00000000  0.00000000  1
  Ti  Ti0  1  0.17729800  0.35459500  0.74487800  1
  Ti  Ti1  1  0.82270200  0.64540500  0.25512200  1
  Fe  Fe0  1  0.14603500  0.29206900  0.44058500  1
  Fe  Fe1  1  0.85396500  0.70793100  0.55941600  1
  Fe  Fe2  1  0.83346100  0.66692300  0.92212100  1
  Fe  Fe3  1  0.16653900  0.33307700  0.07787900  1
  O  O0  1  0.30785200  0.61570400  0.57374500  1
  O  O1  1  0.69214800  0.38429600  0.42625600  1
  O  O2  1  0.67807500  0.35614900  0.08674600  1
  O  O3  1  0.32192500  0.64385100  0.91325400  1
  O  O4  1  0.04305900  0.08611900  0.62047400  1
  O  O5  1  0.95694100  0.91388100  0.37952500  1
  O  O6  1  0.73071100  0.46142300  0.73753100  1
  O  O7  1  0.26928900  0.53857700  0.26246900  1
  O  O8  1  0.94674600  0.89349100  0.11441700  1
  O  O9  1  0.05325400  0.10650900  0.88558400  1
loop_
_geom_bond_atom_site_label_1
_geom_bond_atom_site_label_2
_geom_bond_distance
_geom_bond_site_symmetry_2
Mg0 O2 1.994260 1_555
Mg0 O3 1.994260 1_544
Mg0 O9 2.344691 1_654
Mg0 O9 2.344694 1_554
Mg0 O8 2.344696 1_445
Mg0 O8 2.344699 1_545
Fe0 O5 1.993387 1_445
Fe0 O1 2.042155 1_555
Fe0 O1 2.042159 1_455
Fe0 O4 2.043351 1_555
Fe0 O0 2.118711 1_555
Fe0 O7 2.131783 1_555
Fe1 O4 1.993380 1_665
Fe1 O0 2.042155 1_555
Fe1 O0 2.042159 1_655
Fe1 O5 2.043368 1_555
Fe1 O1 2.118711 1_555
Fe1 O6 2.131775 1_555
Fe2 O3 1.991325 1_555
Fe2 O3 1.991325 1_655
Fe2 O6 2.136651 1_555
Fe2 O9 2.203960 1_665
Fe2 O2 2.223644 1_556
Fe2 O8 2.257752 1_556
Fe3 O2 1.991325 1_555
Fe3 O2 1.991325 1_455
Fe3 O7 2.136651 1_555
Fe3 O8 2.203962 1_445
Fe3 O3 2.223644 1_554
Fe3 O9 2.257743 1_554
O0 Ti0 2.116876 1_555
O1 Ti1 2.116884 1_555
O2 Ti1 2.246756 1_555
O3 Ti0 2.246756 1_555
O4 Ti0 1.851465 1_555
O5 Ti1 1.851458 1_555
O6 Ti0 2.056358 1_555
O6 Ti0 2.056366 1_655
O7 Ti1 2.056358 1_555
O7 Ti1 2.056366 1_455
O8 Ti1 1.843102 1_555
O9 Ti0 1.843109 1_555
