# generated using pymatgen
data_MgTe4MoW3(SeS)2
_symmetry_space_group_name_H-M   'P 1'
_cell_length_a   6.78349200
_cell_length_b   6.78357954
_cell_length_c   77.28241801
_cell_angle_alpha   89.99999654
_cell_angle_beta   89.99839736
_cell_angle_gamma   120.00069622
_symmetry_Int_Tables_number   1
_chemical_formula_structural   MgTe4MoW3(SeS)2
_chemical_formula_sum   'Mg8 Te32 Mo8 W24 Se16 S16'
_cell_volume   3079.78589462
_cell_formula_units_Z   8
loop_
 _symmetry_equiv_pos_site_id
 _symmetry_equiv_pos_as_xyz
  1  'x, y, z'
loop_
 _atom_site_type_symbol
 _atom_site_label
 _atom_site_symmetry_multiplicity
 _atom_site_fract_x
 _atom_site_fract_y
 _atom_site_fract_z
 _atom_site_occupancy
  Mg  Mg0_0  1  0.14664800  0.33198200  0.43683450  1
  Mg  Mg0_1  1  0.14664800  0.33198200  0.93683450  1
  Mg  Mg0_2  1  0.14664800  0.83198200  0.43683450  1
  Mg  Mg0_3  1  0.14664800  0.83198200  0.93683450  1
  Mg  Mg0_4  1  0.64664800  0.33198200  0.43683450  1
  Mg  Mg0_5  1  0.64664800  0.33198200  0.93683450  1
  Mg  Mg0_6  1  0.64664800  0.83198200  0.43683450  1
  Mg  Mg0_7  1  0.64664800  0.83198200  0.93683450  1
  Te  Te0_0  1  0.16665950  0.33334250  0.35321200  1
  Te  Te0_1  1  0.16665950  0.33334250  0.85321200  1
  Te  Te0_2  1  0.16665950  0.83334250  0.35321200  1
  Te  Te0_3  1  0.16665950  0.83334250  0.85321200  1
  Te  Te0_4  1  0.66665950  0.33334250  0.35321200  1
  Te  Te0_5  1  0.66665950  0.33334250  0.85321200  1
  Te  Te0_6  1  0.66665950  0.83334250  0.35321200  1
  Te  Te0_7  1  0.66665950  0.83334250  0.85321200  1
  Te  Te1_0  1  0.33333000  0.16665550  0.02257350  1
  Te  Te1_1  1  0.33333000  0.16665550  0.52257350  1
  Te  Te1_2  1  0.33333000  0.66665550  0.02257350  1
  Te  Te1_3  1  0.33333000  0.66665550  0.52257350  1
  Te  Te1_4  1  0.83333000  0.16665550  0.02257350  1
  Te  Te1_5  1  0.83333000  0.16665550  0.52257350  1
  Te  Te1_6  1  0.83333000  0.66665550  0.02257350  1
  Te  Te1_7  1  0.83333000  0.66665550  0.52257350  1
  Te  Te2_0  1  0.33331750  0.16665250  0.07133950  1
  Te  Te2_1  1  0.33331750  0.16665250  0.57133950  1
  Te  Te2_2  1  0.33331750  0.66665250  0.07133950  1
  Te  Te2_3  1  0.33331750  0.66665250  0.57133950  1
  Te  Te2_4  1  0.83331750  0.16665250  0.07133950  1
  Te  Te2_5  1  0.83331750  0.16665250  0.57133950  1
  Te  Te2_6  1  0.83331750  0.66665250  0.07133950  1
  Te  Te2_7  1  0.83331750  0.66665250  0.57133950  1
  Te  Te3_0  1  0.16667050  0.33334650  0.30442500  1
  Te  Te3_1  1  0.16667050  0.33334650  0.80442500  1
  Te  Te3_2  1  0.16667050  0.83334650  0.30442500  1
  Te  Te3_3  1  0.16667050  0.83334650  0.80442500  1
  Te  Te3_4  1  0.66667050  0.33334650  0.30442500  1
  Te  Te3_5  1  0.66667050  0.33334650  0.80442500  1
  Te  Te3_6  1  0.66667050  0.83334650  0.30442500  1
  Te  Te3_7  1  0.66667050  0.83334650  0.80442500  1
  Mo  Mo0_0  1  0.33335600  0.16668600  0.14092250  1
  Mo  Mo0_1  1  0.33335600  0.16668600  0.64092250  1
  Mo  Mo0_2  1  0.33335600  0.66668600  0.14092250  1
  Mo  Mo0_3  1  0.33335600  0.66668600  0.64092250  1
  Mo  Mo0_4  1  0.83335600  0.16668600  0.14092250  1
  Mo  Mo0_5  1  0.83335600  0.16668600  0.64092250  1
  Mo  Mo0_6  1  0.83335600  0.66668600  0.14092250  1
  Mo  Mo0_7  1  0.83335600  0.66668600  0.64092250  1
  W  W0_0  1  0.16665150  0.33332050  0.04693500  1
  W  W0_1  1  0.16665150  0.33332050  0.54693500  1
  W  W0_2  1  0.16665150  0.83332050  0.04693500  1
  W  W0_3  1  0.16665150  0.83332050  0.54693500  1
  W  W0_4  1  0.66665150  0.33332050  0.04693500  1
  W  W0_5  1  0.66665150  0.33332050  0.54693500  1
  W  W0_6  1  0.66665150  0.83332050  0.04693500  1
  W  W0_7  1  0.66665150  0.83332050  0.54693500  1
  W  W1_0  1  0.16664900  0.33331100  0.23477900  1
  W  W1_1  1  0.16664900  0.33331100  0.73477900  1
  W  W1_2  1  0.16664900  0.83331100  0.23477900  1
  W  W1_3  1  0.16664900  0.83331100  0.73477900  1
  W  W1_4  1  0.66664900  0.33331100  0.23477900  1
  W  W1_5  1  0.66664900  0.33331100  0.73477900  1
  W  W1_6  1  0.66664900  0.83331100  0.23477900  1
  W  W1_7  1  0.66664900  0.83331100  0.73477900  1
  W  W2_0  1  0.33333750  0.16668100  0.32884700  1
  W  W2_1  1  0.33333750  0.16668100  0.82884700  1
  W  W2_2  1  0.33333750  0.66668100  0.32884700  1
  W  W2_3  1  0.33333750  0.66668100  0.82884700  1
  W  W2_4  1  0.83333750  0.16668100  0.32884700  1
  W  W2_5  1  0.83333750  0.16668100  0.82884700  1
  W  W2_6  1  0.83333750  0.66668100  0.32884700  1
  W  W2_7  1  0.83333750  0.66668100  0.82884700  1
  Se  Se0_0  1  0.33332300  0.16664500  0.21333700  1
  Se  Se0_1  1  0.33332300  0.16664500  0.71333700  1
  Se  Se0_2  1  0.33332300  0.66664500  0.21333700  1
  Se  Se0_3  1  0.33332300  0.66664500  0.71333700  1
  Se  Se0_4  1  0.83332300  0.16664500  0.21333700  1
  Se  Se0_5  1  0.83332300  0.16664500  0.71333700  1
  Se  Se0_6  1  0.83332300  0.66664500  0.21333700  1
  Se  Se0_7  1  0.83332300  0.66664500  0.71333700  1
  Se  Se1_0  1  0.33331250  0.16664300  0.25620750  1
  Se  Se1_1  1  0.33331250  0.16664300  0.75620750  1
  Se  Se1_2  1  0.33331250  0.66664300  0.25620750  1
  Se  Se1_3  1  0.33331250  0.66664300  0.75620750  1
  Se  Se1_4  1  0.83331250  0.16664300  0.25620750  1
  Se  Se1_5  1  0.83331250  0.16664300  0.75620750  1
  Se  Se1_6  1  0.83331250  0.66664300  0.25620750  1
  Se  Se1_7  1  0.83331250  0.66664300  0.75620750  1
  S  S0_0  1  0.16667100  0.33334550  0.16034500  1
  S  S0_1  1  0.16667100  0.33334550  0.66034500  1
  S  S0_2  1  0.16667100  0.83334550  0.16034500  1
  S  S0_3  1  0.16667100  0.83334550  0.66034500  1
  S  S0_4  1  0.66667100  0.33334550  0.16034500  1
  S  S0_5  1  0.66667100  0.33334550  0.66034500  1
  S  S0_6  1  0.66667100  0.83334550  0.16034500  1
  S  S0_7  1  0.66667100  0.83334550  0.66034500  1
  S  S1_0  1  0.16668250  0.33335200  0.12146600  1
  S  S1_1  1  0.16668250  0.33335200  0.62146600  1
  S  S1_2  1  0.16668250  0.83335200  0.12146600  1
  S  S1_3  1  0.16668250  0.83335200  0.62146600  1
  S  S1_4  1  0.66668250  0.33335200  0.12146600  1
  S  S1_5  1  0.66668250  0.33335200  0.62146600  1
  S  S1_6  1  0.66668250  0.83335200  0.12146600  1
  S  S1_7  1  0.66668250  0.83335200  0.62146600  1
loop_
_geom_bond_atom_site_label_1
_geom_bond_atom_site_label_2
_geom_bond_distance
_geom_bond_site_symmetry_2
Mg0_0 Mg0_6 3.391732 1_445
Mg0_0 Mg0_6 3.391732 1_555
Mg0_0 Mg0_4 3.391746 1_455
Mg0_0 Mg0_4 3.391746 1_555
Mg0_0 Mg0_2 3.391790 1_545
Mg0_0 Mg0_2 3.391790 1_555
Mg0_1 Mg0_7 3.391732 1_555
Mg0_1 Mg0_7 3.391732 1_445
Mg0_1 Mg0_5 3.391746 1_455
Mg0_1 Mg0_5 3.391746 1_555
Mg0_1 Mg0_3 3.391790 1_545
Mg0_1 Mg0_3 3.391790 1_555
Mg0_2 Mg0_4 3.391732 1_565
Mg0_2 Mg0_4 3.391732 1_455
Mg0_2 Mg0_6 3.391746 1_455
Mg0_2 Mg0_6 3.391746 1_555
Mg0_3 Mg0_5 3.391732 1_455
Mg0_3 Mg0_5 3.391732 1_565
Mg0_3 Mg0_7 3.391746 1_455
Mg0_3 Mg0_7 3.391746 1_555
Mg0_4 Mg0_6 3.391790 1_545
Mg0_4 Mg0_6 3.391790 1_555
Mg0_5 Mg0_7 3.391790 1_545
Mg0_5 Mg0_7 3.391790 1_555
Te0_0 W2_4 2.716654 1_455
Te0_0 W2_2 2.716676 1_555
Te0_0 W2_0 2.716686 1_555
Te0_1 W2_5 2.716654 1_455
Te0_1 W2_3 2.716676 1_555
Te0_1 W2_1 2.716686 1_555
Te0_2 W2_6 2.716654 1_455
Te0_2 W2_0 2.716676 1_565
Te0_2 W2_2 2.716686 1_555
Te0_3 W2_7 2.716654 1_455
Te0_3 W2_1 2.716676 1_565
Te0_3 W2_3 2.716686 1_555
Te0_4 W2_0 2.716654 1_555
Te0_4 W2_6 2.716676 1_555
Te0_4 W2_4 2.716686 1_555
Te0_5 W2_1 2.716654 1_555
Te0_5 W2_7 2.716676 1_555
Te0_5 W2_5 2.716686 1_555
Te0_6 W2_2 2.716654 1_555
Te0_6 W2_4 2.716676 1_565
Te0_6 W2_6 2.716686 1_555
Te0_7 W2_3 2.716654 1_555
Te0_7 W2_5 2.716676 1_565
Te0_7 W2_7 2.716686 1_555
Te1_0 W0_4 2.716464 1_555
Te1_0 W0_2 2.716474 1_545
Te1_0 W0_0 2.716516 1_555
Te1_1 W0_5 2.716464 1_555
Te1_1 W0_3 2.716474 1_545
Te1_1 W0_1 2.716516 1_555
Te1_2 W0_6 2.716464 1_555
Te1_2 W0_0 2.716474 1_555
Te1_2 W0_2 2.716516 1_555
Te1_3 W0_7 2.716464 1_555
Te1_3 W0_1 2.716474 1_555
Te1_3 W0_3 2.716516 1_555
Te1_4 W0_0 2.716464 1_655
Te1_4 W0_6 2.716474 1_545
Te1_4 W0_4 2.716516 1_555
Te1_5 W0_1 2.716464 1_655
Te1_5 W0_7 2.716474 1_545
Te1_5 W0_5 2.716516 1_555
Te1_6 W0_2 2.716464 1_655
Te1_6 W0_4 2.716474 1_555
Te1_6 W0_6 2.716516 1_555
Te1_7 W0_3 2.716464 1_655
Te1_7 W0_5 2.716474 1_555
Te1_7 W0_7 2.716516 1_555
Te2_0 W0_4 2.718734 1_555
Te2_0 W0_2 2.718809 1_545
Te2_0 W0_0 2.718823 1_555
Te2_1 W0_5 2.718734 1_555
Te2_1 W0_3 2.718809 1_545
Te2_1 W0_1 2.718823 1_555
Te2_2 W0_6 2.718734 1_555
Te2_2 W0_0 2.718809 1_555
Te2_2 W0_2 2.718823 1_555
Te2_3 W0_7 2.718734 1_555
Te2_3 W0_1 2.718809 1_555
Te2_3 W0_3 2.718823 1_555
Te2_4 W0_0 2.718734 1_655
Te2_4 W0_6 2.718809 1_545
Te2_4 W0_4 2.718823 1_555
Te2_5 W0_1 2.718734 1_655
Te2_5 W0_7 2.718809 1_545
Te2_5 W0_5 2.718823 1_555
Te2_6 W0_2 2.718734 1_655
Te2_6 W0_4 2.718809 1_555
Te2_6 W0_6 2.718823 1_555
Te2_7 W0_3 2.718734 1_655
Te2_7 W0_5 2.718809 1_555
Te2_7 W0_7 2.718823 1_555
Te3_0 W2_4 2.719668 1_455
Te3_0 W2_0 2.719755 1_555
Te3_0 W2_2 2.719758 1_555
Te3_1 W2_5 2.719668 1_455
Te3_1 W2_1 2.719755 1_555
Te3_1 W2_3 2.719758 1_555
Te3_2 W2_6 2.719668 1_455
Te3_2 W2_2 2.719755 1_555
Te3_2 W2_0 2.719758 1_565
Te3_3 W2_7 2.719668 1_455
Te3_3 W2_3 2.719755 1_555
Te3_3 W2_1 2.719758 1_565
Te3_4 W2_0 2.719668 1_555
Te3_4 W2_4 2.719755 1_555
Te3_4 W2_6 2.719758 1_555
Te3_5 W2_1 2.719668 1_555
Te3_5 W2_5 2.719755 1_555
Te3_5 W2_7 2.719758 1_555
Te3_6 W2_2 2.719668 1_555
Te3_6 W2_6 2.719755 1_555
Te3_6 W2_4 2.719758 1_565
Te3_7 W2_3 2.719668 1_555
Te3_7 W2_7 2.719755 1_555
Te3_7 W2_5 2.719758 1_565
Mo0_0 S0_4 2.467269 1_555
Mo0_0 S0_2 2.467350 1_545
Mo0_0 S0_0 2.467375 1_555
Mo0_0 S1_4 2.468845 1_555
Mo0_0 S1_2 2.468958 1_545
Mo0_0 S1_0 2.468990 1_555
Mo0_1 S0_5 2.467269 1_555
Mo0_1 S0_3 2.467350 1_545
Mo0_1 S0_1 2.467375 1_555
Mo0_1 S1_5 2.468845 1_555
Mo0_1 S1_3 2.468958 1_545
Mo0_1 S1_1 2.468990 1_555
Mo0_2 S0_6 2.467269 1_555
Mo0_2 S0_0 2.467350 1_555
Mo0_2 S0_2 2.467375 1_555
Mo0_2 S1_6 2.468845 1_555
Mo0_2 S1_0 2.468958 1_555
Mo0_2 S1_2 2.468990 1_555
Mo0_3 S0_7 2.467269 1_555
Mo0_3 S0_1 2.467350 1_555
Mo0_3 S0_3 2.467375 1_555
Mo0_3 S1_7 2.468845 1_555
Mo0_3 S1_1 2.468958 1_555
Mo0_3 S1_3 2.468990 1_555
Mo0_4 S0_0 2.467269 1_655
Mo0_4 S0_6 2.467350 1_545
Mo0_4 S0_4 2.467375 1_555
Mo0_4 S1_0 2.468845 1_655
Mo0_4 S1_6 2.468958 1_545
Mo0_4 S1_4 2.468990 1_555
Mo0_5 S0_1 2.467269 1_655
Mo0_5 S0_7 2.467350 1_545
Mo0_5 S0_5 2.467375 1_555
Mo0_5 S1_1 2.468845 1_655
Mo0_5 S1_7 2.468958 1_545
Mo0_5 S1_5 2.468990 1_555
Mo0_6 S0_2 2.467269 1_655
Mo0_6 S0_4 2.467350 1_555
Mo0_6 S0_6 2.467375 1_555
Mo0_6 S1_2 2.468845 1_655
Mo0_6 S1_4 2.468958 1_555
Mo0_6 S1_6 2.468990 1_555
Mo0_7 S0_3 2.467269 1_655
Mo0_7 S0_5 2.467350 1_555
Mo0_7 S0_7 2.467375 1_555
Mo0_7 S1_3 2.468845 1_655
Mo0_7 S1_5 2.468958 1_555
Mo0_7 S1_7 2.468990 1_555
Se0_0 W1_2 2.565258 1_545
Se0_0 W1_4 2.565264 1_555
Se0_0 W1_0 2.565291 1_555
Se0_1 W1_3 2.565258 1_545
Se0_1 W1_5 2.565264 1_555
Se0_1 W1_1 2.565291 1_555
Se0_2 W1_0 2.565258 1_555
Se0_2 W1_6 2.565264 1_555
Se0_2 W1_2 2.565291 1_555
Se0_3 W1_1 2.565258 1_555
Se0_3 W1_7 2.565264 1_555
Se0_3 W1_3 2.565291 1_555
Se0_4 W1_6 2.565258 1_545
Se0_4 W1_0 2.565264 1_655
Se0_4 W1_4 2.565291 1_555
Se0_5 W1_7 2.565258 1_545
Se0_5 W1_1 2.565264 1_655
Se0_5 W1_5 2.565291 1_555
Se0_6 W1_4 2.565258 1_555
Se0_6 W1_2 2.565264 1_655
Se0_6 W1_6 2.565291 1_555
Se0_7 W1_5 2.565258 1_555
Se0_7 W1_3 2.565264 1_655
Se0_7 W1_7 2.565291 1_555
Se1_0 W1_4 2.564556 1_555
Se1_0 W1_2 2.564616 1_545
Se1_0 W1_0 2.564620 1_555
Se1_1 W1_5 2.564556 1_555
Se1_1 W1_3 2.564616 1_545
Se1_1 W1_1 2.564620 1_555
Se1_2 W1_6 2.564556 1_555
Se1_2 W1_0 2.564616 1_555
Se1_2 W1_2 2.564620 1_555
Se1_3 W1_7 2.564556 1_555
Se1_3 W1_1 2.564616 1_555
Se1_3 W1_3 2.564620 1_555
Se1_4 W1_0 2.564556 1_655
Se1_4 W1_6 2.564616 1_545
Se1_4 W1_4 2.564620 1_555
Se1_5 W1_1 2.564556 1_655
Se1_5 W1_7 2.564616 1_545
Se1_5 W1_5 2.564620 1_555
Se1_6 W1_2 2.564556 1_655
Se1_6 W1_4 2.564616 1_555
Se1_6 W1_6 2.564620 1_555
Se1_7 W1_3 2.564556 1_655
Se1_7 W1_5 2.564616 1_555
Se1_7 W1_7 2.564620 1_555
