# generated using pymatgen
data_Cd2P3I
_symmetry_space_group_name_H-M   'P 1'
_cell_length_a   6.30839854
_cell_length_b   6.30839854
_cell_length_c   7.64209458
_cell_angle_alpha   96.28775054
_cell_angle_beta   96.28775054
_cell_angle_gamma   96.65475764
_symmetry_Int_Tables_number   1
_chemical_formula_structural   Cd2P3I
_chemical_formula_sum   'Cd4 P6 I2'
_cell_volume   297.94840218
_cell_formula_units_Z   2
loop_
 _symmetry_equiv_pos_site_id
 _symmetry_equiv_pos_as_xyz
  1  'x, y, z'
loop_
 _atom_site_type_symbol
 _atom_site_label
 _atom_site_symmetry_multiplicity
 _atom_site_fract_x
 _atom_site_fract_y
 _atom_site_fract_z
 _atom_site_occupancy
  Cd  Cd0  1  0.10684700  0.39488200  0.28131000  1
  Cd  Cd1  1  0.60511800  0.89315300  0.21869000  1
  Cd  Cd2  1  0.89315300  0.60511800  0.71869000  1
  Cd  Cd3  1  0.39488200  0.10684700  0.78131000  1
  P  P0  1  0.80609100  0.19390900  0.75000000  1
  P  P1  1  0.84602500  0.93530700  0.54150400  1
  P  P2  1  0.93530700  0.84602500  0.04150400  1
  P  P3  1  0.19390900  0.80609100  0.25000000  1
  P  P4  1  0.06469300  0.15397500  0.95849600  1
  P  P5  1  0.15397500  0.06469300  0.45849600  1
  I  I0  1  0.38048800  0.61951200  0.75000000  1
  I  I1  1  0.61951200  0.38048800  0.25000000  1
loop_
_geom_bond_atom_site_label_1
_geom_bond_atom_site_label_2
_geom_bond_distance
_geom_bond_site_symmetry_2
Cd0 P3 2.631089 1_555
Cd0 P5 2.633210 1_555
Cd0 P4 2.721707 1_554
Cd0 I1 3.047335 1_455
Cd0 I1 3.279890 1_555
Cd1 P3 2.631089 1_555
Cd1 P2 2.633210 1_555
Cd1 P1 2.721707 1_555
Cd1 I1 3.047335 1_565
Cd1 I1 3.279890 1_555
Cd2 P0 2.631089 1_555
Cd2 P1 2.633210 1_555
Cd2 P2 2.721707 1_556
Cd2 I0 3.047335 1_655
Cd2 I0 3.279890 1_555
Cd3 P0 2.631089 1_555
Cd3 P4 2.633210 1_555
Cd3 P5 2.721707 1_555
Cd3 I0 3.047335 1_545
Cd3 I0 3.279890 1_555
P0 P1 2.208478 1_545
P0 P4 2.208478 1_655
P1 P5 2.204185 1_665
P2 P4 2.204185 1_664
P2 P3 2.208478 1_655
P3 P5 2.208478 1_565
