# generated using pymatgen
data_Ba3MgV2O8
_symmetry_space_group_name_H-M   'P 1'
_cell_length_a   8.19391516
_cell_length_b   7.58100819
_cell_length_c   8.19391550
_cell_angle_alpha   48.11963794
_cell_angle_beta   43.60575996
_cell_angle_gamma   48.11963714
_symmetry_Int_Tables_number   1
_chemical_formula_structural   Ba3MgV2O8
_chemical_formula_sum   'Ba3 Mg1 V2 O8'
_cell_volume   243.97750173
_cell_formula_units_Z   1
loop_
 _symmetry_equiv_pos_site_id
 _symmetry_equiv_pos_as_xyz
  1  'x, y, z'
loop_
 _atom_site_type_symbol
 _atom_site_label
 _atom_site_symmetry_multiplicity
 _atom_site_fract_x
 _atom_site_fract_y
 _atom_site_fract_z
 _atom_site_occupancy
  Ba  Ba0  1  0.19923000  0.22628900  0.19923000  1
  Ba  Ba1  1  0.85648000  0.72008800  0.85648000  1
  Ba  Ba2  1  0.94316200  0.08595700  0.94316200  1
  Mg  Mg0  1  0.55328400  0.01807300  0.55328400  1
  V  V0  1  0.60321000  0.56436100  0.60321000  1
  V  V1  1  0.37455400  0.47797000  0.37455400  1
  O  O0  1  0.69053000  0.65659500  0.69053000  1
  O  O1  1  0.36021000  0.24890200  0.36021000  1
  O  O2  1  0.25950100  0.70088600  0.75314800  1
  O  O3  1  0.75314800  0.70088600  0.25950100  1
  O  O4  1  0.72832100  0.21920200  0.72832100  1
  O  O5  1  0.71849900  0.29779500  0.26441700  1
  O  O6  1  0.24545200  0.81020300  0.24545200  1
  O  O7  1  0.26441700  0.29779500  0.71849900  1
loop_
_geom_bond_atom_site_label_1
_geom_bond_atom_site_label_2
_geom_bond_distance
_geom_bond_site_symmetry_2
Ba0 O1 2.575418 1_555
Ba0 O6 2.693399 1_545
Ba0 O3 2.957825 1_455
Ba0 O2 2.957825 1_554
Ba0 O4 3.070265 1_554
Ba0 O4 3.070265 1_455
Ba0 O5 3.253307 1_455
Ba0 O7 3.253308 1_554
Ba1 O2 2.667745 1_655
Ba1 O3 2.667746 1_556
Ba1 O4 2.740303 1_565
Ba1 O7 2.787894 1_655
Ba1 O5 2.787894 1_556
Ba1 O0 2.890535 1_555
Ba1 O6 3.304983 1_556
Ba1 O6 3.304983 1_655
Ba2 O4 2.637771 1_555
Ba2 O7 2.752529 1_655
Ba2 O5 2.752529 1_556
Ba2 O3 2.790302 1_546
Ba2 O2 2.790302 1_645
Ba2 O0 3.094755 1_555
Ba2 O1 3.184154 1_556
Ba2 O1 3.184154 1_655
Ba2 O6 3.420344 1_646
Mg0 O0 1.908201 1_545
Mg0 O1 2.073623 1_555
Mg0 O7 2.103058 1_555
Mg0 O5 2.103058 1_555
O0 V0 1.894753 1_555
O1 V1 1.899558 1_555
O2 V0 1.818606 1_555
O3 V0 1.818606 1_555
O4 V0 1.818708 1_555
O5 V1 1.856223 1_555
O6 V1 1.757178 1_555
O7 V1 1.856223 1_555
