# generated using pymatgen
data_EuAs
_symmetry_space_group_name_H-M   'P 1'
_cell_length_a   4.61892578
_cell_length_b   4.61892578
_cell_length_c   6.20900600
_cell_angle_alpha   90.00000000
_cell_angle_beta   90.00000000
_cell_angle_gamma   119.99999685
_symmetry_Int_Tables_number   1
_chemical_formula_structural   EuAs
_chemical_formula_sum   'Eu2 As2'
_cell_volume   114.71882564
_cell_formula_units_Z   2
loop_
 _symmetry_equiv_pos_site_id
 _symmetry_equiv_pos_as_xyz
  1  'x, y, z'
loop_
 _atom_site_type_symbol
 _atom_site_label
 _atom_site_symmetry_multiplicity
 _atom_site_fract_x
 _atom_site_fract_y
 _atom_site_fract_z
 _atom_site_occupancy
  Eu  Eu0  1  0.33333300  0.66666700  0.50000000  1
  Eu  Eu1  1  0.66666700  0.33333300  0.00000000  1
  As  As0  1  0.00000000  0.00000000  0.75370000  1
  As  As1  1  0.00000000  0.00000000  0.24630000  1
loop_
_geom_bond_atom_site_label_1
_geom_bond_atom_site_label_2
_geom_bond_distance
_geom_bond_site_symmetry_2
As0 Eu1 3.074113 1_456
As0 Eu1 3.074116 1_446
As0 Eu1 3.074116 1_556
As0 Eu0 3.097226 1_545
As0 Eu0 3.097230 1_555
As0 Eu0 3.097230 1_445
As1 Eu1 3.074113 1_455
As1 Eu1 3.074116 1_555
As1 Eu1 3.074116 1_445
As1 Eu0 3.097226 1_545
As1 Eu0 3.097230 1_555
As1 Eu0 3.097230 1_445
