# generated using pymatgen
data_Na2Ta6In2Si7S5O48
_symmetry_space_group_name_H-M   'P 1'
_cell_length_a   17.76987858
_cell_length_b   8.89979947
_cell_length_c   23.04916184
_cell_angle_alpha   89.99831763
_cell_angle_beta   89.98427331
_cell_angle_gamma   120.05458904
_symmetry_Int_Tables_number   1
_chemical_formula_structural   Na2Ta6In2Si7S5O48
_chemical_formula_sum   'Na6 Ta18 In6 Si21 S15 O144'
_cell_volume   3155.08648764
_cell_formula_units_Z   3
loop_
 _symmetry_equiv_pos_site_id
 _symmetry_equiv_pos_as_xyz
  1  'x, y, z'
loop_
 _atom_site_type_symbol
 _atom_site_label
 _atom_site_symmetry_multiplicity
 _atom_site_fract_x
 _atom_site_fract_y
 _atom_site_fract_z
 _atom_site_occupancy
  Na  Na0  1  0.99761983  0.00115375  0.49677049  1
  Na  Na1  1  0.49849872  0.00290482  0.99332667  1
  Na  Na2  1  0.33547648  0.32550141  0.83225895  1
  Na  Na3  1  0.82648213  0.33249094  0.83319049  1
  Na  Na4  1  0.32744917  0.32206218  0.33817358  1
  Na  Na5  1  0.83424458  0.34544521  0.33824095  1
  Ta  Ta0  1  0.50063466  0.99419995  0.35867750  1
  Ta  Ta1  1  0.00058910  0.00460052  0.85615559  1
  Ta  Ta2  1  0.49964566  0.00370723  0.64332073  1
  Ta  Ta3  1  0.99871460  0.99561603  0.14387298  1
  Ta  Ta4  1  0.32582140  0.33508264  0.68865038  1
  Ta  Ta5  1  0.83228180  0.31309959  0.68706481  1
  Ta  Ta6  1  0.32900512  0.34216920  0.19015885  1
  Ta  Ta7  1  0.82659732  0.31594934  0.19039856  1
  Ta  Ta8  1  0.32726143  0.32995184  0.97320912  1
  Ta  Ta9  1  0.83180018  0.32184612  0.47539149  1
  Ta  Ta10  1  0.17035904  0.67062148  0.02118331  1
  Ta  Ta11  1  0.67474634  0.67170411  0.02023076  1
  Ta  Ta12  1  0.16877420  0.66958634  0.52407487  1
  Ta  Ta13  1  0.67264365  0.66965923  0.52210457  1
  Ta  Ta14  1  0.16754317  0.68516057  0.31244114  1
  Ta  Ta15  1  0.67885263  0.67718326  0.30999162  1
  Ta  Ta16  1  0.17807074  0.68011593  0.80835757  1
  Ta  Ta17  1  0.66630324  0.64795521  0.81012287  1
  In  In0  1  0.00002251  0.98098131  0.35530447  1
  In  In1  1  0.50015730  0.01937976  0.85362963  1
  In  In2  1  0.99495512  0.01586619  0.64861062  1
  In  In3  1  0.49716019  0.98819657  0.15335705  1
  In  In4  1  0.83352685  0.33247330  0.98031984  1
  In  In5  1  0.33247332  0.33292083  0.48031303  1
  Si  Si0  1  0.14150955  0.00082738  0.25023463  1
  Si  Si1  1  0.64036368  0.99230422  0.25111337  1
  Si  Si2  1  0.35413412  0.71477361  0.25162590  1
  Si  Si3  1  0.85847049  0.71031636  0.24830803  1
  Si  Si4  1  0.14171967  0.28806956  0.75107091  1
  Si  Si5  1  0.64523158  0.28133958  0.74967306  1
  Si  Si6  1  0.35933519  0.00850118  0.74812282  1
  Si  Si7  1  0.85384878  0.99553759  0.75173534  1
  Si  Si8  1  0.97768130  0.33284461  0.58149644  1
  Si  Si9  1  0.68830799  0.04360871  0.58173583  1
  Si  Si10  1  0.33509277  0.62283974  0.58083616  1
  Si  Si11  1  0.83377609  0.04675570  0.08149438  1
  Si  Si12  1  0.18864975  0.33333036  0.08277464  1
  Si  Si13  1  0.31377596  0.67516019  0.91604473  1
  Si  Si14  1  0.81227277  0.66162176  0.91529161  1
  Si  Si15  1  0.52481568  0.38284722  0.91889382  1
  Si  Si16  1  0.16268655  0.94504030  0.91645915  1
  Si  Si17  1  0.31069796  0.96005286  0.41808389  1
  Si  Si18  1  0.81417070  0.95503064  0.41661674  1
  Si  Si19  1  0.66548425  0.38099875  0.41708629  1
  Si  Si20  1  0.02414605  0.66658478  0.41879586  1
  S  S0  1  0.00072964  0.29035099  0.24881440  1
  S  S1  1  0.50026985  0.29221413  0.25108970  1
  S  S2  1  0.00013687  0.71095902  0.75131697  1
  S  S3  1  0.50002459  0.70974213  0.74901505  1
  S  S4  1  0.47882315  0.33513715  0.58394222  1
  S  S5  1  0.18630636  0.04007477  0.58401976  1
  S  S6  1  0.83419294  0.61771141  0.58206495  1
  S  S7  1  0.47703277  0.61825055  0.08127095  1
  S  S8  1  0.97882491  0.62305987  0.08405061  1
  S  S9  1  0.33473428  0.04841746  0.08198507  1
  S  S10  1  0.68531849  0.33110027  0.08389482  1
  S  S11  1  0.02552849  0.38330679  0.91543138  1
  S  S12  1  0.66641996  0.94919285  0.91649958  1
  S  S13  1  0.16637429  0.38446015  0.41642324  1
  S  S14  1  0.52556071  0.66639842  0.41555085  1
  O  O0  1  0.11287423  0.06022395  0.30704014  1
  O  O1  1  0.59688000  0.03351715  0.30682370  1
  O  O2  1  0.42039731  0.80861845  0.30602708  1
  O  O3  1  0.91094146  0.77330912  0.30697390  1
  O  O4  1  0.48214355  0.17612336  0.30152199  1
  O  O5  1  0.97809485  0.18359358  0.30119663  1
  O  O6  1  0.09864977  0.16382257  0.80821668  1
  O  O7  1  0.61381537  0.16794213  0.80771758  1
  O  O8  1  0.47812604  0.77147642  0.80183212  1
  O  O9  1  0.98535119  0.79574178  0.80299008  1
  O  O10  1  0.40882360  0.04731549  0.80821343  1
  O  O11  1  0.91969564  0.03158897  0.80732350  1
  O  O12  1  0.40403446  0.97331894  0.69259174  1
  O  O13  1  0.88470550  0.94478858  0.69409427  1
  O  O14  1  0.09338148  0.21587848  0.69158389  1
  O  O15  1  0.58254638  0.18765186  0.69402273  1
  O  O16  1  0.01800042  0.81338774  0.69826985  1
  O  O17  1  0.51310883  0.81770866  0.69748876  1
  O  O18  1  0.38454249  0.81891622  0.19169588  1
  O  O19  1  0.90385142  0.83429350  0.19199995  1
  O  O20  1  0.01245703  0.20646655  0.19674065  1
  O  O21  1  0.51837243  0.22724349  0.19725750  1
  O  O22  1  0.08251367  0.97628789  0.19329618  1
  O  O23  1  0.59381026  0.96733944  0.19005552  1
  O  O24  1  0.43611617  0.36050402  0.63509894  1
  O  O25  1  0.93121308  0.36366660  0.63969156  1
  O  O26  1  0.24332560  0.12943511  0.63624257  1
  O  O27  1  0.75142369  0.13400748  0.63933815  1
  O  O28  1  0.32011043  0.49526454  0.63819235  1
  O  O29  1  0.81843328  0.51211770  0.63487333  1
  O  O30  1  0.43720133  0.51252776  0.13508357  1
  O  O31  1  0.93644076  0.51163586  0.13492023  1
  O  O32  1  0.32237609  0.12880777  0.13465829  1
  O  O33  1  0.81903329  0.14420592  0.13828323  1
  O  O34  1  0.25407063  0.36757179  0.13911150  1
  O  O35  1  0.74124116  0.35743086  0.13598824  1
  O  O36  1  0.23933204  0.30629952  0.02826871  1
  O  O37  1  0.72278049  0.30244072  0.03137535  1
  O  O38  1  0.42039461  0.52694362  0.03066149  1
  O  O39  1  0.92713772  0.55805900  0.03105121  1
  O  O40  1  0.34525611  0.15425634  0.02969630  1
  O  O41  1  0.85368042  0.16348063  0.02520546  1
  O  O42  1  0.22379551  0.14537703  0.53173527  1
  O  O43  1  0.73475532  0.16883102  0.52660120  1
  O  O44  1  0.35616058  0.54406558  0.52541883  1
  O  O45  1  0.84280872  0.53484585  0.52928374  1
  O  O46  1  0.42715875  0.29664299  0.53105327  1
  O  O47  1  0.91314164  0.31334871  0.52705711  1
  O  O48  1  0.25991414  0.69012160  0.97306148  1
  O  O49  1  0.76604963  0.69232269  0.97388595  1
  O  O50  1  0.07696089  0.46335400  0.96979260  1
  O  O51  1  0.58518320  0.49025653  0.97542409  1
  O  O52  1  0.15076135  0.82854239  0.97478716  1
  O  O53  1  0.65954551  0.84647831  0.97100370  1
  O  O54  1  0.26537725  0.83853497  0.47446751  1
  O  O55  1  0.75992203  0.82971303  0.47285742  1
  O  O56  1  0.15943682  0.47007414  0.47047044  1
  O  O57  1  0.64984473  0.47280256  0.47434566  1
  O  O58  1  0.08673958  0.68327304  0.47346829  1
  O  O59  1  0.57633809  0.69061313  0.46940133  1
  O  O60  1  0.06779750  0.63316498  0.35978842  1
  O  O61  1  0.56751599  0.64535600  0.36382653  1
  O  O62  1  0.24872219  0.86144737  0.36045492  1
  O  O63  1  0.75267731  0.86121601  0.35968627  1
  O  O64  1  0.17630882  0.48951976  0.36401089  1
  O  O65  1  0.67763503  0.50233731  0.36041926  1
  O  O66  1  0.06764835  0.49111871  0.86432384  1
  O  O67  1  0.56676978  0.50312578  0.86091343  1
  O  O68  1  0.17903457  0.85473449  0.86072457  1
  O  O69  1  0.67595861  0.86396808  0.86468139  1
  O  O70  1  0.25194640  0.64171038  0.85986847  1
  O  O71  1  0.74714388  0.63538951  0.86081022  1
  O  O72  1  0.01903753  0.84034286  0.41958259  1
  O  O73  1  0.51873939  0.82794390  0.40980544  1
  O  O74  1  0.40429146  0.97272030  0.40315026  1
  O  O75  1  0.90920200  0.98333259  0.41456882  1
  O  O76  1  0.08770583  0.21441207  0.41404213  1
  O  O77  1  0.58065187  0.19141205  0.40428663  1
  O  O78  1  0.01921625  0.21011124  0.91004734  1
  O  O79  1  0.51807133  0.19756089  0.91978082  1
  O  O80  1  0.08061616  0.97135606  0.90558074  1
  O  O81  1  0.58707494  0.96046671  0.91585800  1
  O  O82  1  0.40965767  0.83505816  0.91483136  1
  O  O83  1  0.90478880  0.83667170  0.90408353  1
  O  O84  1  0.49112179  0.18291437  0.59334021  1
  O  O85  1  0.98532958  0.16028405  0.58124840  1
  O  O86  1  0.09881841  0.01059075  0.59196398  1
  O  O87  1  0.59435974  0.02179914  0.59629883  1
  O  O88  1  0.41760115  0.81134114  0.59777590  1
  O  O89  1  0.91062362  0.79094148  0.58661053  1
  O  O90  1  0.48429004  0.79038483  0.08448028  1
  O  O91  1  0.99136968  0.79986300  0.09333658  1
  O  O92  1  0.41135188  0.02700890  0.08605815  1
  O  O93  1  0.91579663  0.02055390  0.09733035  1
  O  O94  1  0.09512051  0.16674600  0.09586535  1
  O  O95  1  0.59694085  0.18258232  0.09092401  1
  O  O96  1  0.34407224  0.17236311  0.73335059  1
  O  O97  1  0.84767444  0.17609918  0.74452325  1
  O  O98  1  0.24260439  0.31640008  0.74429331  1
  O  O99  1  0.74548810  0.32668205  0.73551070  1
  O  O100  1  0.42301289  0.52761785  0.73816866  1
  O  O101  1  0.92051793  0.53657755  0.74568461  1
  O  O102  1  0.34883647  0.52002571  0.24236503  1
  O  O103  1  0.84354295  0.51609745  0.23230416  1
  O  O104  1  0.42058612  0.30866921  0.24200824  1
  O  O105  1  0.92278262  0.31700340  0.23759006  1
  O  O106  1  0.24315887  0.16326908  0.23488464  1
  O  O107  1  0.74129975  0.16750715  0.24354992  1
  O  O108  1  0.31614326  0.49267307  0.92604848  1
  O  O109  1  0.82124097  0.49125346  0.92059240  1
  O  O110  1  0.42784927  0.36395976  0.92976972  1
  O  O111  1  0.93814447  0.36063296  0.91975208  1
  O  O112  1  0.25085435  0.13730971  0.92629763  1
  O  O113  1  0.74526955  0.12231483  0.92016899  1
  O  O114  1  0.32245261  0.15240854  0.42004412  1
  O  O115  1  0.81426841  0.13836314  0.42323069  1
  O  O116  1  0.24575232  0.36901631  0.41883021  1
  O  O117  1  0.75174840  0.36543887  0.42584279  1
  O  O118  1  0.43775782  0.51557174  0.41883794  1
  O  O119  1  0.92704026  0.49261412  0.42595966  1
  O  O120  1  0.17738025  0.50222158  0.07067615  1
  O  O121  1  0.68091376  0.49439049  0.07747807  1
  O  O122  1  0.06588362  0.64006010  0.07612255  1
  O  O123  1  0.56382957  0.63628998  0.07425667  1
  O  O124  1  0.25400325  0.87257673  0.07472662  1
  O  O125  1  0.74576518  0.85538157  0.07328238  1
  O  O126  1  0.18474354  0.87190528  0.57887624  1
  O  O127  1  0.67604380  0.85048609  0.57012622  1
  O  O128  1  0.24894058  0.63985169  0.57292354  1
  O  O129  1  0.75352267  0.63648949  0.57485050  1
  O  O130  1  0.07237929  0.50641958  0.57124426  1
  O  O131  1  0.56571772  0.49186327  0.57651116  1
  O  O132  1  0.15293794  0.83014226  0.25827655  1
  O  O133  1  0.65237758  0.82736832  0.26517378  1
  O  O134  1  0.25607674  0.66956346  0.26696839  1
  O  O135  1  0.76013873  0.68404664  0.25631027  1
  O  O136  1  0.07719046  0.46223535  0.25535247  1
  O  O137  1  0.57393759  0.46717199  0.26245077  1
  O  O138  1  0.15312125  0.47736254  0.76562028  1
  O  O139  1  0.65212751  0.47368821  0.75855338  1
  O  O140  1  0.07505492  0.68504494  0.76364489  1
  O  O141  1  0.57711216  0.69111594  0.75660774  1
  O  O142  1  0.26049840  0.83639936  0.75647410  1
  O  O143  1  0.75586481  0.84114899  0.76826375  1
loop_
_geom_bond_atom_site_label_1
_geom_bond_atom_site_label_2
_geom_bond_distance
_geom_bond_site_symmetry_2
Na0 O75 2.415699 1_545
Na0 O72 2.429766 1_645
Na0 O85 2.480828 1_555
Na0 O76 2.599160 1_655
Na0 O89 2.697952 1_545
Na0 O86 2.811759 1_655
Na1 O79 2.322015 1_555
Na1 O82 2.374171 1_545
Na1 O81 2.530291 1_545
Na1 O92 2.709892 1_556
Na1 O90 2.752542 1_546
Na1 O95 2.806784 1_556
Na2 O98 2.590170 1_555
Na2 O112 2.690685 1_555
Na2 O96 2.699374 1_555
Na2 O110 2.702274 1_555
Na2 O108 2.741635 1_555
Na2 O100 2.748419 1_555
Na3 O109 2.489049 1_555
Na3 O97 2.603953 1_555
Na3 O113 2.625828 1_555
Na3 O99 2.659013 1_555
Na3 O101 2.667804 1_555
Na3 O111 2.735875 1_555
Na4 O114 2.390405 1_555
Na4 O116 2.518837 1_555
Na4 O118 2.624090 1_555
Na4 O102 2.730154 1_555
Na4 O106 2.791135 1_555
Na4 O104 2.803916 1_555
Na5 O119 2.522122 1_555
Na5 O117 2.552901 1_555
Na5 O115 2.589244 1_555
Na5 O107 2.716898 1_555
Na5 O103 2.836253 1_555
Na5 O105 2.884152 1_555
In0 O3 2.057493 1_455
In0 O72 2.073551 1_555
In0 O0 2.082912 1_565
In0 O75 2.122162 1_455
In0 O76 2.309896 1_565
In0 O5 2.379636 1_465
In1 O10 2.048610 1_555
In1 O7 2.066666 1_555
In1 O79 2.106085 1_555
In1 O82 2.150190 1_545
In1 O81 2.351596 1_545
In1 O8 2.362540 1_545
In2 O14 2.022709 1_655
In2 O13 2.023578 1_545
In2 O85 2.076574 1_555
In2 O86 2.280088 1_655
In2 O89 2.300350 1_545
In2 O16 2.337603 1_645
In3 O23 2.004928 1_555
In3 O18 2.008599 1_555
In3 O21 2.211148 1_565
In3 O95 2.265721 1_565
In3 O90 2.295432 1_555
In3 O92 2.319342 1_565
In4 O41 2.000061 1_556
In4 O109 2.061269 1_555
In4 O37 2.191103 1_556
In4 O39 2.195709 1_556
In4 O113 2.223344 1_555
In4 O111 2.235989 1_555
In5 O44 1.999329 1_555
In5 O114 2.063028 1_555
In5 O42 2.165675 1_555
In5 O46 2.201858 1_555
In5 O116 2.232314 1_555
In5 O118 2.258887 1_555
O0 Si0 1.588012 1_555
O1 Si1 1.632120 1_545
O1 Ta0 1.968590 1_545
O2 Si2 1.634662 1_555
O2 Ta0 1.968705 1_555
O3 Si3 1.577740 1_555
O4 S1 1.479469 1_555
O4 Ta0 2.235598 1_545
O5 S0 1.462573 1_655
O6 Si4 1.641667 1_555
O6 Ta1 1.947016 1_555
O7 Si5 1.598519 1_555
O8 S3 1.466035 1_555
O9 S2 1.501788 1_655
O9 Ta1 2.127506 1_665
O10 Si6 1.583485 1_555
O11 Si7 1.654838 1_545
O11 Ta1 1.933275 1_655
O12 Si6 1.617342 1_565
O12 Ta2 1.946311 1_565
O13 Si7 1.586652 1_555
O14 Si4 1.574328 1_555
O15 Si5 1.628452 1_555
O15 Ta2 1.949691 1_555
O16 S2 1.461717 1_555
O17 S3 1.470998 1_555
O17 Ta2 2.180128 1_565
O18 Si2 1.599057 1_555
O19 Si3 1.631029 1_555
O19 Ta3 1.925648 1_555
O20 S0 1.482274 1_555
O20 Ta3 2.146429 1_445
O21 S1 1.470887 1_555
O22 Si0 1.624969 1_565
O22 Ta3 1.949921 1_455
O23 Si1 1.590863 1_555
O24 S4 1.479308 1_555
O24 Ta4 2.229468 1_555
O25 Si8 1.668111 1_555
O25 Ta5 1.921409 1_555
O26 S5 1.517094 1_555
O26 Ta4 2.066768 1_555
O27 Si9 1.662821 1_555
O27 Ta5 1.876737 1_555
O28 Si10 1.674710 1_555
O28 Ta4 1.881510 1_555
O29 S6 1.476233 1_555
O29 Ta5 2.254229 1_555
O30 S7 1.502365 1_555
O30 Ta6 2.164590 1_555
O31 S8 1.475373 1_555
O31 Ta7 2.252034 1_555
O32 S9 1.480325 1_555
O32 Ta6 2.243264 1_555
O33 Si11 1.661805 1_555
O33 Ta7 1.895165 1_555
O34 Si12 1.666274 1_555
O34 Ta6 1.873759 1_555
O35 S10 1.500517 1_555
O35 Ta7 2.138124 1_555
O36 Si12 1.632094 1_555
O36 Ta8 1.940542 1_554
O37 S10 1.463981 1_555
O38 S7 1.488461 1_555
O38 Ta8 2.158992 1_554
O39 S8 1.462528 1_555
O40 S9 1.482618 1_555
O40 Ta8 2.177925 1_554
O41 Si11 1.587192 1_555
O42 S5 1.465783 1_555
O43 Si9 1.617460 1_555
O43 Ta9 1.966735 1_555
O44 Si10 1.589308 1_555
O45 S6 1.469829 1_555
O45 Ta9 2.191711 1_555
O46 S4 1.460100 1_555
O47 Si8 1.649653 1_555
O47 Ta9 1.903558 1_555
O48 Si13 1.669691 1_555
O48 Ta10 1.874902 1_556
O49 Si14 1.672578 1_555
O49 Ta11 1.872941 1_556
O50 S11 1.503758 1_555
O50 Ta10 2.120127 1_556
O51 Si15 1.654078 1_555
O51 Ta11 1.906295 1_556
O52 Si16 1.645299 1_555
O52 Ta10 1.931471 1_556
O53 S12 1.522101 1_555
O53 Ta11 2.049568 1_556
O54 Si17 1.622983 1_555
O54 Ta12 1.982032 1_555
O55 Si18 1.666099 1_555
O55 Ta13 1.873224 1_555
O56 S13 1.497229 1_555
O56 Ta12 2.100486 1_555
O57 Si19 1.647393 1_555
O57 Ta13 1.932550 1_555
O58 Si20 1.637840 1_555
O58 Ta12 1.918130 1_555
O59 S14 1.485617 1_555
O59 Ta13 2.181721 1_555
O60 Si20 1.664475 1_555
O60 Ta14 1.929792 1_555
O61 S14 1.466841 1_555
O61 Ta15 2.229678 1_555
O62 Si17 1.667388 1_555
O62 Ta14 1.871144 1_555
O63 Si18 1.643176 1_555
O63 Ta15 1.887930 1_555
O64 S13 1.483004 1_555
O64 Ta14 2.177250 1_555
O65 Si19 1.638585 1_555
O65 Ta15 1.933657 1_555
O66 S11 1.465813 1_555
O66 Ta16 2.244113 1_555
O67 Si15 1.639404 1_555
O67 Ta17 1.968611 1_555
O68 Si16 1.616891 1_555
O68 Ta16 1.961065 1_555
O69 S12 1.469440 1_555
O69 Ta17 2.230825 1_555
O70 Si13 1.626501 1_555
O70 Ta16 1.923561 1_555
O71 Si14 1.643474 1_555
O71 Ta17 1.898124 1_555
O72 Si20 1.593917 1_555
O73 S14 1.507923 1_555
O73 Ta0 2.039248 1_555
O74 Si17 1.645939 1_555
O74 Ta0 1.920799 1_555
O75 Si18 1.578374 1_555
O76 S13 1.458944 1_555
O77 Si19 1.630633 1_555
O77 Ta0 1.925782 1_545
O78 S11 1.493570 1_555
O78 Ta1 2.095647 1_555
O79 Si15 1.592502 1_555
O80 Si16 1.608390 1_555
O80 Ta1 1.957021 1_565
O81 S12 1.462861 1_555
O82 Si13 1.581199 1_555
O83 Si14 1.621995 1_555
O83 Ta1 1.949989 1_665
O84 S4 1.492183 1_555
O84 Ta2 2.033657 1_555
O85 Si8 1.608140 1_555
O86 S5 1.452772 1_555
O87 Si9 1.616329 1_555
O87 Ta2 1.939281 1_555
O88 Si10 1.628844 1_555
O88 Ta2 1.912956 1_565
O89 S6 1.461232 1_555
O90 S7 1.473475 1_555
O91 S8 1.490015 1_555
O91 Ta3 2.044852 1_555
O92 S9 1.469239 1_555
O93 Si11 1.628687 1_555
O93 Ta3 1.923418 1_545
O94 Si12 1.607141 1_555
O94 Ta3 1.965766 1_445
O95 S10 1.469802 1_555
O96 Si6 1.646951 1_555
O96 Ta4 1.932469 1_555
O97 Si7 1.672900 1_545
O97 Ta5 1.910382 1_555
O98 Si4 1.687861 1_555
O98 Ta4 1.900499 1_555
O99 Si5 1.650112 1_555
O99 Ta5 1.956024 1_555
O100 S3 1.529997 1_555
O100 Ta4 2.063634 1_555
O101 S2 1.492613 1_655
O101 Ta5 2.262180 1_555
O102 Si2 1.701490 1_555
O102 Ta6 1.875975 1_555
O103 Si3 1.653785 1_555
O103 Ta7 1.912998 1_555
O104 S1 1.509338 1_555
O104 Ta6 2.156973 1_555
O105 S0 1.539808 1_655
O105 Ta7 2.022267 1_555
O106 Si0 1.691709 1_555
O106 Ta6 1.868434 1_555
O107 Si1 1.696247 1_545
O107 Ta7 1.880625 1_555
O108 Si13 1.661640 1_555
O108 Ta8 1.898549 1_555
O109 Si14 1.606659 1_555
O110 Si15 1.664256 1_555
O110 Ta8 1.935491 1_555
O111 S11 1.465568 1_655
O112 Si16 1.658012 1_545
O112 Ta8 1.902971 1_555
O113 S12 1.477150 1_545
O114 Si17 1.618085 1_545
O115 Si18 1.637868 1_545
O115 Ta9 1.923489 1_555
O116 S13 1.485202 1_555
O117 Si19 1.619413 1_555
O117 Ta9 2.007986 1_555
O118 S14 1.464263 1_555
O119 Si20 1.650998 1_655
O119 Ta9 1.973488 1_555
O120 Si12 1.636667 1_555
O120 Ta10 1.936588 1_555
O121 S10 1.501288 1_555
O121 Ta11 2.101558 1_555
O122 S8 1.488273 1_455
O122 Ta10 2.148733 1_555
O123 S7 1.477378 1_555
O123 Ta11 2.216109 1_555
O124 S9 1.512108 1_565
O124 Ta10 2.070757 1_555
O125 Si11 1.647634 1_565
O125 Ta11 1.922152 1_555
O126 S5 1.487696 1_565
O126 Ta12 2.099212 1_555
O127 Si9 1.642583 1_565
O127 Ta13 1.929107 1_555
O128 Si10 1.622406 1_555
O128 Ta12 1.935337 1_555
O129 S6 1.533166 1_555
O129 Ta13 2.014119 1_555
O130 Si8 1.633973 1_455
O130 Ta12 1.931903 1_555
O131 S4 1.483804 1_555
O131 Ta13 2.161873 1_555
O132 Si0 1.640780 1_565
O132 Ta14 1.904308 1_555
O133 Si1 1.618402 1_555
O133 Ta15 1.924848 1_555
O134 Si2 1.618808 1_555
O134 Ta14 1.952102 1_555
O135 Si3 1.653032 1_555
O135 Ta15 1.879288 1_555
O136 S0 1.458462 1_555
O136 Ta14 2.248584 1_555
O137 S1 1.471486 1_555
O137 Ta15 2.163511 1_555
O138 Si4 1.627822 1_555
O138 Ta16 1.903157 1_555
O139 Si5 1.666526 1_555
O139 Ta17 1.868333 1_555
O140 S2 1.487950 1_555
O140 Ta16 2.120501 1_555
O141 S3 1.470422 1_555
O141 Ta17 2.189024 1_555
O142 Si6 1.665227 1_565
O142 Ta16 1.862369 1_555
O143 Si7 1.633398 1_555
O143 Ta17 1.917856 1_555
