# generated using pymatgen
data_AgClO4
_symmetry_space_group_name_H-M   'P 1'
_cell_length_a   7.07740645
_cell_length_b   4.81001197
_cell_length_c   4.86204152
_cell_angle_alpha   86.48438510
_cell_angle_beta   90.00000000
_cell_angle_gamma   90.00000000
_symmetry_Int_Tables_number   1
_chemical_formula_structural   AgClO4
_chemical_formula_sum   'Ag2 Cl2 O8'
_cell_volume   165.20412962
_cell_formula_units_Z   2
loop_
 _symmetry_equiv_pos_site_id
 _symmetry_equiv_pos_as_xyz
  1  'x, y, z'
loop_
 _atom_site_type_symbol
 _atom_site_label
 _atom_site_symmetry_multiplicity
 _atom_site_fract_x
 _atom_site_fract_y
 _atom_site_fract_z
 _atom_site_occupancy
  Ag  Ag0  1  0.25000000  0.13465932  0.78482006  1
  Ag  Ag1  1  0.75000000  0.86534068  0.21517994  1
  Cl  Cl0  1  0.75000000  0.36761165  0.71034097  1
  Cl  Cl1  1  0.25000000  0.63238835  0.28965903  1
  O  O0  1  0.75000000  0.32009116  0.41777187  1
  O  O1  1  0.25000000  0.67990884  0.58222813  1
  O  O2  1  0.75000000  0.66660905  0.73677210  1
  O  O3  1  0.25000000  0.33339095  0.26322790  1
  O  O4  1  0.91530199  0.24288738  0.84216550  1
  O  O5  1  0.41530199  0.75711262  0.15783450  1
  O  O6  1  0.08469801  0.75711262  0.15783450  1
  O  O7  1  0.58469801  0.24288738  0.84216550  1
loop_
_geom_bond_atom_site_label_1
_geom_bond_atom_site_label_2
_geom_bond_distance
_geom_bond_site_symmetry_2
Ag0 O4 2.444939 1_455
Ag0 O7 2.444939 1_555
Ag0 O1 2.453366 1_545
Ag0 O3 2.568442 1_556
Ag0 O3 2.654761 1_555
Ag0 O1 2.744403 1_555
Ag0 O5 2.748058 1_546
Ag0 O6 2.748058 1_546
Ag1 O5 2.444939 1_555
Ag1 O6 2.444939 1_655
Ag1 O0 2.453366 1_565
Ag1 O2 2.568442 1_554
Ag1 O2 2.654761 1_555
Ag1 O0 2.744403 1_555
Ag1 O4 2.748058 1_564
Ag1 O7 2.748058 1_564
Cl0 O7 1.446458 1_555
Cl0 O4 1.446458 1_555
Cl0 O2 1.451739 1_555
Cl0 O0 1.454503 1_555
Cl1 O5 1.446458 1_555
Cl1 O6 1.446458 1_555
Cl1 O3 1.451739 1_555
Cl1 O1 1.454503 1_555
