# generated using pymatgen
data_HfMg(SO4)3
_symmetry_space_group_name_H-M   'P 1'
_cell_length_a   8.77056548
_cell_length_b   8.77056519
_cell_length_c   22.52787292
_cell_angle_alpha   90.00000000
_cell_angle_beta   90.00000000
_cell_angle_gamma   120.00000108
_symmetry_Int_Tables_number   1
_chemical_formula_structural   HfMg(SO4)3
_chemical_formula_sum   'Hf6 Mg6 S18 O72'
_cell_volume   1500.74184110
_cell_formula_units_Z   6
loop_
 _symmetry_equiv_pos_site_id
 _symmetry_equiv_pos_as_xyz
  1  'x, y, z'
loop_
 _atom_site_type_symbol
 _atom_site_label
 _atom_site_symmetry_multiplicity
 _atom_site_fract_x
 _atom_site_fract_y
 _atom_site_fract_z
 _atom_site_occupancy
  Hf  Hf0  1  -0.00000000  -0.00000000  0.64483556  1
  Hf  Hf1  1  -0.00000000  -0.00000000  0.14483556  1
  Hf  Hf2  1  0.66666700  0.33333300  0.97816856  1
  Hf  Hf3  1  0.66666700  0.33333300  0.47816856  1
  Hf  Hf4  1  0.33333300  0.66666700  0.31150256  1
  Hf  Hf5  1  0.33333300  0.66666700  0.81150256  1
  Mg  Mg0  1  -0.00000000  -0.00000000  0.35385483  1
  Mg  Mg1  1  -0.00000000  -0.00000000  0.85385483  1
  Mg  Mg2  1  0.66666700  0.33333300  0.68718783  1
  Mg  Mg3  1  0.66666700  0.33333300  0.18718783  1
  Mg  Mg4  1  0.33333300  0.66666700  0.02052183  1
  Mg  Mg5  1  0.33333300  0.66666700  0.52052183  1
  S  S0  1  0.29296334  0.00593460  0.25121736  1
  S  S1  1  0.71297126  0.70703666  0.25121736  1
  S  S2  1  0.99406540  0.28702874  0.25121736  1
  S  S3  1  0.29296334  0.28702874  0.75121736  1
  S  S4  1  0.99406540  0.70703666  0.75121736  1
  S  S5  1  0.71297126  0.00593460  0.75121736  1
  S  S6  1  0.95963034  0.33926760  0.58455036  1
  S  S7  1  0.37963826  0.04036966  0.58455036  1
  S  S8  1  0.66073240  0.62036174  0.58455036  1
  S  S9  1  0.95963034  0.62036174  0.08455036  1
  S  S10  1  0.66073240  0.04036966  0.08455036  1
  S  S11  1  0.37963826  0.33926760  0.08455036  1
  S  S12  1  0.62629634  0.67260160  0.91788436  1
  S  S13  1  0.04630426  0.37370366  0.91788436  1
  S  S14  1  0.32739840  0.95369574  0.91788436  1
  S  S15  1  0.62629634  0.95369574  0.41788436  1
  S  S16  1  0.32739840  0.37370366  0.41788436  1
  S  S17  1  0.04630426  0.67260160  0.41788436  1
  O  O0  1  0.20836505  0.02926894  0.30300593  1
  O  O1  1  0.82090389  0.79163495  0.30300593  1
  O  O2  1  0.97073106  0.17909611  0.30300593  1
  O  O3  1  0.20836505  0.17909611  0.80300593  1
  O  O4  1  0.97073106  0.79163495  0.80300593  1
  O  O5  1  0.82090389  0.02926894  0.80300593  1
  O  O6  1  0.79094384  0.96802137  0.69706129  1
  O  O7  1  0.17707753  0.20905616  0.69706129  1
  O  O8  1  0.03197863  0.82292247  0.69706129  1
  O  O9  1  0.79094384  0.82292247  0.19706129  1
  O  O10  1  0.03197863  0.20905616  0.19706129  1
  O  O11  1  0.17707753  0.96802137  0.19706129  1
  O  O12  1  0.87503205  0.36260194  0.63633893  1
  O  O13  1  0.48757089  0.12496795  0.63633893  1
  O  O14  1  0.63739806  0.51242911  0.63633893  1
  O  O15  1  0.87503205  0.51242911  0.13633893  1
  O  O16  1  0.63739806  0.12496795  0.13633893  1
  O  O17  1  0.48757089  0.36260194  0.13633893  1
  O  O18  1  0.45761084  0.30135437  0.03039429  1
  O  O19  1  0.84374453  0.54238916  0.03039429  1
  O  O20  1  0.69864563  0.15625547  0.03039429  1
  O  O21  1  0.45761084  0.15625547  0.53039429  1
  O  O22  1  0.69864563  0.54238916  0.53039429  1
  O  O23  1  0.84374453  0.30135437  0.53039429  1
  O  O24  1  0.54169805  0.69593594  0.96967293  1
  O  O25  1  0.15423689  0.45830195  0.96967293  1
  O  O26  1  0.30406406  0.84576311  0.96967293  1
  O  O27  1  0.54169805  0.84576311  0.46967293  1
  O  O28  1  0.30406406  0.45830195  0.46967293  1
  O  O29  1  0.15423689  0.69593594  0.46967293  1
  O  O30  1  0.12427684  0.63468837  0.36372829  1
  O  O31  1  0.51041053  0.87572316  0.36372829  1
  O  O32  1  0.36531163  0.48958947  0.36372829  1
  O  O33  1  0.12427684  0.48958947  0.86372829  1
  O  O34  1  0.36531163  0.87572316  0.86372829  1
  O  O35  1  0.51041053  0.63468837  0.86372829  1
  O  O36  1  0.02305080  0.82285973  0.40751422  1
  O  O37  1  0.79980893  0.97694920  0.40751422  1
  O  O38  1  0.17714027  0.20019107  0.40751422  1
  O  O39  1  0.02305080  0.20019107  0.90751422  1
  O  O40  1  0.17714027  0.97694920  0.90751422  1
  O  O41  1  0.79980893  0.82285973  0.90751422  1
  O  O42  1  0.97403357  0.17562287  0.59163773  1
  O  O43  1  0.20158930  0.02596643  0.59163773  1
  O  O44  1  0.82437713  0.79841070  0.59163773  1
  O  O45  1  0.97403357  0.79841070  0.09163773  1
  O  O46  1  0.82437713  0.02596643  0.09163773  1
  O  O47  1  0.20158930  0.17562287  0.09163773  1
  O  O48  1  0.68971780  0.15619273  0.74084722  1
  O  O49  1  0.46647593  0.31028220  0.74084722  1
  O  O50  1  0.84380727  0.53352407  0.74084722  1
  O  O51  1  0.68971780  0.53352407  0.24084722  1
  O  O52  1  0.84380727  0.31028220  0.24084722  1
  O  O53  1  0.46647593  0.15619273  0.24084722  1
  O  O54  1  0.64070057  0.50895587  0.92497073  1
  O  O55  1  0.86825630  0.35929943  0.92497073  1
  O  O56  1  0.49104413  0.13174370  0.92497073  1
  O  O57  1  0.64070057  0.13174370  0.42497073  1
  O  O58  1  0.49104413  0.35929943  0.42497073  1
  O  O59  1  0.86825630  0.50895587  0.42497073  1
  O  O60  1  0.35638380  0.48952673  0.07418122  1
  O  O61  1  0.13314193  0.64361620  0.07418122  1
  O  O62  1  0.51047327  0.86685807  0.07418122  1
  O  O63  1  0.35638380  0.86685807  0.57418122  1
  O  O64  1  0.51047327  0.64361620  0.57418122  1
  O  O65  1  0.13314193  0.48952673  0.57418122  1
  O  O66  1  0.30736657  0.84228987  0.25830473  1
  O  O67  1  0.53492230  0.69263343  0.25830473  1
  O  O68  1  0.15771013  0.46507770  0.25830473  1
  O  O69  1  0.30736657  0.46507770  0.75830473  1
  O  O70  1  0.15771013  0.69263343  0.75830473  1
  O  O71  1  0.53492230  0.84228987  0.75830473  1
loop_
_geom_bond_atom_site_label_1
_geom_bond_atom_site_label_2
_geom_bond_distance
_geom_bond_site_symmetry_2
Hf0 O44 2.052184 1_445
Hf0 O42 2.052184 1_455
Hf0 O43 2.052185 1_555
Hf0 O7 2.076178 1_555
Hf0 O8 2.076178 1_545
Hf0 O6 2.076178 1_445
Hf1 O45 2.052184 1_445
Hf1 O47 2.052184 1_555
Hf1 O46 2.052185 1_455
Hf1 O10 2.076178 1_555
Hf1 O9 2.076178 1_445
Hf1 O11 2.076178 1_545
Hf2 O56 2.052184 1_555
Hf2 O54 2.052184 1_555
Hf2 O55 2.052185 1_555
Hf2 O19 2.076178 1_556
Hf2 O20 2.076178 1_556
Hf2 O18 2.076178 1_556
Hf3 O57 2.052184 1_555
Hf3 O59 2.052184 1_555
Hf3 O58 2.052185 1_555
Hf3 O22 2.076178 1_555
Hf3 O21 2.076178 1_555
Hf3 O23 2.076178 1_555
Hf4 O68 2.052184 1_555
Hf4 O66 2.052184 1_555
Hf4 O67 2.052185 1_555
Hf4 O31 2.076178 1_555
Hf4 O32 2.076178 1_555
Hf4 O30 2.076178 1_555
Hf5 O69 2.052184 1_555
Hf5 O71 2.052184 1_555
Hf5 O70 2.052185 1_555
Hf5 O34 2.076178 1_555
Hf5 O33 2.076178 1_555
Hf5 O35 2.076178 1_555
Mg0 O38 2.056691 1_555
Mg0 O36 2.056691 1_545
Mg0 O37 2.056691 1_445
Mg0 O1 2.061229 1_445
Mg0 O2 2.061229 1_455
Mg0 O0 2.061229 1_555
Mg1 O39 2.056691 1_555
Mg1 O41 2.056691 1_445
Mg1 O40 2.056691 1_545
Mg1 O4 2.061229 1_445
Mg1 O3 2.061229 1_555
Mg1 O5 2.061229 1_455
Mg2 O50 2.056691 1_555
Mg2 O48 2.056691 1_555
Mg2 O49 2.056691 1_555
Mg2 O13 2.061229 1_555
Mg2 O14 2.061229 1_555
Mg2 O12 2.061229 1_555
Mg3 O51 2.056691 1_555
Mg3 O53 2.056691 1_555
Mg3 O52 2.056691 1_555
Mg3 O16 2.061229 1_555
Mg3 O15 2.061229 1_555
Mg3 O17 2.061229 1_555
Mg4 O62 2.056691 1_555
Mg4 O60 2.056691 1_555
Mg4 O61 2.056691 1_555
Mg4 O25 2.061229 1_554
Mg4 O26 2.061229 1_554
Mg4 O24 2.061229 1_554
Mg5 O63 2.056691 1_555
Mg5 O65 2.056691 1_555
Mg5 O64 2.056691 1_555
Mg5 O28 2.061229 1_555
Mg5 O27 2.061229 1_555
Mg5 O29 2.061229 1_555
O0 S0 1.451005 1_555
O1 S1 1.451005 1_555
O2 S2 1.451005 1_555
O3 S3 1.451005 1_555
O4 S4 1.451005 1_555
O5 S5 1.451005 1_555
O6 S5 1.514625 1_565
O7 S3 1.514625 1_555
O8 S4 1.514625 1_455
O9 S1 1.514625 1_555
O10 S2 1.514625 1_455
O11 S0 1.514625 1_565
O12 S6 1.451005 1_555
O13 S7 1.451005 1_555
O14 S8 1.451005 1_555
O15 S9 1.451005 1_555
O16 S10 1.451005 1_555
O17 S11 1.451005 1_555
O18 S11 1.514625 1_555
O19 S9 1.514625 1_555
O20 S10 1.514625 1_555
O21 S7 1.514625 1_555
O22 S8 1.514625 1_555
O23 S6 1.514625 1_555
O24 S12 1.451005 1_555
O25 S13 1.451005 1_555
O26 S14 1.451005 1_555
O27 S15 1.451005 1_555
O28 S16 1.451005 1_555
O29 S17 1.451005 1_555
O30 S17 1.514625 1_555
O31 S15 1.514625 1_555
O32 S16 1.514625 1_555
O33 S13 1.514625 1_555
O34 S14 1.514625 1_555
O35 S12 1.514625 1_555
O36 S17 1.449712 1_555
O37 S15 1.449721 1_555
O38 S16 1.449718 1_555
O39 S13 1.449721 1_555
O40 S14 1.449712 1_555
O41 S12 1.449718 1_555
O42 S6 1.510867 1_555
O43 S7 1.510876 1_555
O44 S8 1.510872 1_555
O45 S9 1.510876 1_555
O46 S10 1.510867 1_555
O47 S11 1.510872 1_555
O48 S5 1.449712 1_555
O49 S3 1.449721 1_555
O50 S4 1.449718 1_555
O51 S1 1.449721 1_555
O52 S2 1.449712 1_555
O53 S0 1.449718 1_555
O54 S12 1.510879 1_555
O55 S13 1.510861 1_655
O56 S14 1.510869 1_545
O57 S15 1.510861 1_545
O58 S16 1.510879 1_555
O59 S17 1.510869 1_655
O60 S11 1.449723 1_555
O61 S9 1.449705 1_455
O62 S10 1.449712 1_565
O63 S7 1.449705 1_565
O64 S8 1.449723 1_555
O65 S6 1.449712 1_455
O66 S0 1.510867 1_565
O67 S1 1.510876 1_555
O68 S2 1.510872 1_455
O69 S3 1.510876 1_555
O70 S4 1.510867 1_455
O71 S5 1.510872 1_565
