# generated using pymatgen
data_Na4ScTa3Si4(PO12)2
_symmetry_space_group_name_H-M   'P 1'
_cell_length_a   8.95665785
_cell_length_b   8.97273239
_cell_length_c   22.69441943
_cell_angle_alpha   90.04176123
_cell_angle_beta   89.90334948
_cell_angle_gamma   120.01927351
_symmetry_Int_Tables_number   1
_chemical_formula_structural   Na4ScTa3Si4(PO12)2
_chemical_formula_sum   'Na12 Sc3 Ta9 Si12 P6 O72'
_cell_volume   1579.19372023
_cell_formula_units_Z   3
loop_
 _symmetry_equiv_pos_site_id
 _symmetry_equiv_pos_as_xyz
  1  'x, y, z'
loop_
 _atom_site_type_symbol
 _atom_site_label
 _atom_site_symmetry_multiplicity
 _atom_site_fract_x
 _atom_site_fract_y
 _atom_site_fract_z
 _atom_site_occupancy
  Na  Na0  1  0.63405066  0.62578347  0.74626145  1
  Na  Na1  1  0.99452205  0.36681235  0.74697683  1
  Na  Na2  1  0.31181802  0.97590878  0.08420679  1
  Na  Na3  1  0.02596752  0.34013947  0.08423971  1
  Na  Na4  1  0.96522554  0.29475507  0.41314933  1
  Na  Na5  1  0.70670284  0.67753155  0.41523064  1
  Na  Na6  1  0.00576525  0.99622037  0.49963150  1
  Na  Na7  1  0.99089249  0.99061470  0.99629562  1
  Na  Na8  1  0.65393025  0.31947413  0.83286668  1
  Na  Na9  1  0.65787171  0.32420671  0.32506416  1
  Na  Na10  1  0.34354348  0.66568927  0.16549000  1
  Na  Na11  1  0.33449562  0.67199185  0.66570256  1
  Sc  Sc0  1  0.00307837  0.99794790  0.35332687  1
  Sc  Sc1  1  0.66080599  0.32827596  0.68614864  1
  Sc  Sc2  1  0.66687043  0.33423612  0.18419353  1
  Ta  Ta0  1  0.00375189  0.00671314  0.85703539  1
  Ta  Ta1  1  0.99517247  0.00152949  0.64434807  1
  Ta  Ta2  1  0.99566245  0.99656096  0.14646142  1
  Ta  Ta3  1  0.66702213  0.33450184  0.97773472  1
  Ta  Ta4  1  0.66894241  0.33169525  0.48153699  1
  Ta  Ta5  1  0.33740890  0.66740141  0.01854464  1
  Ta  Ta6  1  0.33484412  0.66937477  0.52237010  1
  Ta  Ta7  1  0.33153650  0.67147794  0.31071942  1
  Ta  Ta8  1  0.33602016  0.66958266  0.81393639  1
  Si  Si0  1  0.29013933  0.28768053  0.75038143  1
  Si  Si1  1  0.70945126  -0.00027408  0.75095599  1
  Si  Si2  1  0.95858387  0.33412338  0.58564724  1
  Si  Si3  1  0.66797543  0.62413851  0.58492430  1
  Si  Si4  1  0.95339810  0.62124843  0.08347721  1
  Si  Si5  1  0.66475859  0.04375140  0.08377378  1
  Si  Si6  1  0.38152387  0.33810390  0.08453062  1
  Si  Si7  1  0.62404677  0.66496451  0.91559499  1
  Si  Si8  1  0.04205586  0.37847306  0.91628404  1
  Si  Si9  1  0.33403872  0.95695368  0.91701239  1
  Si  Si10  1  0.61875863  0.95806023  0.41625230  1
  Si  Si11  1  0.04586100  0.66884350  0.41725627  1
  P  P0  1  0.29137773  0.00090506  0.25074506  1
  P  P1  1  0.70781322  0.70751302  0.25234156  1
  P  P2  1  0.00059013  0.29146519  0.25206195  1
  P  P3  1  0.00555573  0.71935885  0.75034464  1
  P  P4  1  0.37586719  0.04333275  0.58336382  1
  P  P5  1  0.33637995  0.38326367  0.41663298  1
  O  O0  1  0.20016779  0.01698864  0.30483636  1
  O  O1  1  0.80916628  0.79280336  0.30866062  1
  O  O2  1  0.98380861  0.18856544  0.30795815  1
  O  O3  1  0.19033974  0.16839547  0.80764976  1
  O  O4  1  0.97984176  0.80696540  0.80480661  1
  O  O5  1  0.83285425  0.01926718  0.80699982  1
  O  O6  1  0.80208468  0.96394666  0.69265520  1
  O  O7  1  0.16323494  0.19182437  0.69311172  1
  O  O8  1  0.03081826  0.82971919  0.69453814  1
  O  O9  1  0.80380944  0.82822725  0.19768649  1
  O  O10  1  0.02508146  0.19941909  0.19621177  1
  O  O11  1  0.17835796  0.97429316  0.19415456  1
  O  O12  1  0.88103152  0.36650256  0.64429476  1
  O  O13  1  0.48507732  0.11757443  0.63779507  1
  O  O14  1  0.63236065  0.51349577  0.64376795  1
  O  O15  1  0.88205908  0.49818383  0.13956044  1
  O  O16  1  0.61872476  0.11832789  0.14036335  1
  O  O17  1  0.49334204  0.37123915  0.14217638  1
  O  O18  1  0.46472532  0.29333707  0.02717500  1
  O  O19  1  0.83185220  0.53251771  0.02558225  1
  O  O20  1  0.70700409  0.17089774  0.02648337  1
  O  O21  1  0.46630439  0.15924855  0.52794983  1
  O  O22  1  0.68995464  0.52636562  0.52534263  1
  O  O23  1  0.83438860  0.30473100  0.52630169  1
  O  O24  1  0.52790308  0.69368848  0.97208390  1
  O  O25  1  0.16053789  0.46905361  0.97439720  1
  O  O26  1  0.30585831  0.83946518  0.97551998  1
  O  O27  1  0.52488567  0.83065941  0.47201167  1
  O  O28  1  0.30944734  0.47117361  0.47112095  1
  O  O29  1  0.16532279  0.68590861  0.47331863  1
  O  O30  1  0.13552897  0.62926573  0.35958010  1
  O  O31  1  0.49614416  0.85845735  0.35848664  1
  O  O32  1  0.36874830  0.50039497  0.36163033  1
  O  O33  1  0.13554359  0.49582861  0.85738779  1
  O  O34  1  0.36016842  0.85859537  0.85983526  1
  O  O35  1  0.50364993  0.63803386  0.85682803  1
  O  O36  1  0.01359120  0.82894364  0.41325817  1
  O  O37  1  0.81094334  0.98355482  0.41186022  1
  O  O38  1  0.17372595  0.20741079  0.41155030  1
  O  O39  1  0.02490943  0.18836245  0.91005457  1
  O  O40  1  0.16153264  0.97251405  0.90917629  1
  O  O41  1  0.81299641  0.83521370  0.90847845  1
  O  O42  1  0.97777246  0.16057540  0.58939194  1
  O  O43  1  0.19503702  0.02388659  0.58849919  1
  O  O44  1  0.84433067  0.81402033  0.58896526  1
  O  O45  1  0.98207579  0.81803259  0.09304474  1
  O  O46  1  0.84103526  0.02835775  0.09322551  1
  O  O47  1  0.18412172  0.16217257  0.09355314  1
  O  O48  1  0.70108148  0.17348902  0.74711931  1
  O  O49  1  0.48377309  0.32214173  0.74802267  1
  O  O50  1  0.84467880  0.53901267  0.74629651  1
  O  O51  1  0.68648169  0.52998470  0.24614594  1
  O  O52  1  0.84490255  0.31469899  0.24629709  1
  O  O53  1  0.47139032  0.15409098  0.24594876  1
  O  O54  1  0.63769015  0.49247996  0.92349665  1
  O  O55  1  0.85293866  0.35963230  0.92297135  1
  O  O56  1  0.50550238  0.14474082  0.92394504  1
  O  O57  1  0.63548798  0.14822606  0.42326595  1
  O  O58  1  0.50262280  0.37107961  0.42386333  1
  O  O59  1  0.85324034  0.48985310  0.42417257  1
  O  O60  1  0.34029716  0.49537219  0.07446459  1
  O  O61  1  0.15040404  0.65298821  0.07332890  1
  O  O62  1  0.49778220  0.85134232  0.07355876  1
  O  O63  1  0.35330354  0.86102498  0.57289791  1
  O  O64  1  0.50177023  0.65163790  0.57287632  1
  O  O65  1  0.15029621  0.50047001  0.57299641  1
  O  O66  1  0.30073007  0.82754777  0.25607502  1
  O  O67  1  0.52552010  0.69554892  0.25601333  1
  O  O68  1  0.17295881  0.47260662  0.25628872  1
  O  O69  1  0.29635964  0.47664957  0.75571332  1
  O  O70  1  0.16737023  0.69756807  0.75611896  1
  O  O71  1  0.52184076  0.82047672  0.75575036  1
loop_
_geom_bond_atom_site_label_1
_geom_bond_atom_site_label_2
_geom_bond_distance
_geom_bond_site_symmetry_2
Na0 O49 2.359420 1_555
Na0 O50 2.373774 1_555
Na0 O71 2.421502 1_555
Na0 O14 2.531245 1_555
Na0 O69 2.633114 1_555
Na0 O35 2.791178 1_555
Na0 O6 2.895118 1_555
Na0 O4 2.995535 1_555
Na1 O48 2.314072 1_555
Na1 O69 2.378000 1_655
Na1 O50 2.502760 1_555
Na1 O12 2.543378 1_555
Na1 O70 2.578853 1_655
Na1 O33 2.785228 1_655
Na1 O7 2.933945 1_655
Na1 O5 3.026265 1_555
Na2 O62 2.437812 1_555
Na2 O47 2.461226 1_565
Na2 O61 2.520955 1_555
Na2 O45 2.565482 1_455
Na2 O16 2.703347 1_565
Na2 O26 2.741602 1_554
Na2 O11 2.761841 1_555
Na2 O18 2.785588 1_565
Na3 O46 2.444297 1_455
Na3 O60 2.447470 1_555
Na3 O61 2.460284 1_555
Na3 O47 2.620301 1_555
Na3 O15 2.658833 1_455
Na3 O25 2.757519 1_554
Na3 O20 2.802599 1_455
Na3 O10 2.836603 1_555
Na4 O38 2.359472 1_655
Na4 O37 2.417975 1_545
Na4 O59 2.426615 1_555
Na4 O57 2.572257 1_555
Na4 O2 2.605485 1_555
Na4 O23 2.840773 1_555
Na4 O30 2.869080 1_655
Na4 O28 2.978159 1_655
Na5 O36 2.380386 1_655
Na5 O37 2.419137 1_555
Na5 O58 2.431243 1_555
Na5 O1 2.609169 1_555
Na5 O59 2.610079 1_555
Na5 O22 2.811935 1_555
Na5 O32 2.892067 1_555
Na5 O27 2.903340 1_555
Na6 O36 2.490095 1_555
Na6 O44 2.550165 1_455
Na6 O43 2.567623 1_565
Na6 O42 2.598291 1_465
Na6 O37 2.615051 1_455
Na6 O38 2.644388 1_565
Na7 O41 2.497715 1_555
Na7 O40 2.551274 1_655
Na7 O39 2.556136 1_665
Na7 O45 2.665924 1_556
Na7 O46 2.683094 1_566
Na7 O47 2.752973 1_666
Na8 O49 2.465204 1_555
Na8 O48 2.495604 1_555
Na8 O56 2.531355 1_555
Na8 O55 2.618597 1_555
Na8 O54 2.623275 1_555
Na8 O50 2.699262 1_555
Na9 O53 2.408017 1_555
Na9 O52 2.478217 1_555
Na9 O51 2.492464 1_555
Na9 O57 2.680894 1_555
Na9 O58 2.776885 1_555
Na9 O59 2.781382 1_555
Na10 O67 2.553893 1_555
Na10 O60 2.560237 1_555
Na10 O62 2.594008 1_555
Na10 O68 2.632124 1_555
Na10 O66 2.651922 1_555
Na10 O61 2.682282 1_555
Na11 O71 2.556877 1_555
Na11 O69 2.601046 1_555
Na11 O70 2.614668 1_555
Na11 O64 2.641688 1_555
Na11 O65 2.642598 1_555
Na11 O63 2.656926 1_555
O0 P0 1.519692 1_555
O0 Sc0 2.012043 1_545
O1 P1 1.533205 1_555
O1 Sc0 2.058309 1_655
O2 P2 1.531809 1_655
O2 Sc0 2.076961 1_645
O3 Si0 1.635405 1_555
O3 Ta0 1.929730 1_555
O4 P3 1.541873 1_655
O4 Ta0 2.068040 1_665
O5 Si1 1.637246 1_555
O5 Ta0 1.955413 1_655
O6 Si1 1.674586 1_565
O6 Ta1 1.927978 1_565
O7 Si0 1.657138 1_555
O7 Ta1 1.958867 1_455
O8 P3 1.553205 1_555
O8 Ta1 2.066917 1_465
O9 P1 1.586659 1_555
O9 Ta2 1.996108 1_555
O10 P2 1.586056 1_555
O10 Ta2 2.043382 1_445
O11 P0 1.578990 1_565
O11 Ta2 2.054868 1_455
O12 Si2 1.592675 1_555
O12 Sc1 2.056152 1_555
O13 P4 1.509098 1_555
O13 Sc1 2.069096 1_555
O14 Si3 1.598225 1_555
O14 Sc1 2.044213 1_555
O15 Si4 1.594014 1_555
O15 Sc2 2.015798 1_555
O16 Si5 1.593779 1_555
O16 Sc2 2.022674 1_555
O17 Si6 1.583929 1_555
O17 Sc2 1.989207 1_555
O18 Si6 1.645131 1_555
O18 Ta3 2.000614 1_554
O19 Si4 1.637495 1_555
O19 Ta3 1.973193 1_554
O20 Si5 1.644304 1_555
O20 Ta3 2.009189 1_554
O21 P4 1.573188 1_555
O21 Ta4 1.995923 1_555
O22 Si3 1.675391 1_555
O22 Ta4 1.934933 1_555
O23 Si2 1.682806 1_555
O23 Ta4 1.910665 1_555
O24 Si7 1.633802 1_555
O24 Ta5 1.915752 1_556
O25 Si8 1.632860 1_555
O25 Ta5 1.965336 1_556
O26 Si9 1.634853 1_555
O26 Ta5 1.963794 1_556
O27 Si10 1.628438 1_555
O27 Ta6 1.956736 1_555
O28 P5 1.548372 1_555
O28 Ta6 2.039684 1_555
O29 Si11 1.620935 1_555
O29 Ta6 1.948822 1_555
O30 Si11 1.662997 1_555
O30 Ta7 1.945197 1_555
O31 Si10 1.656653 1_555
O31 Ta7 1.921286 1_555
O32 P5 1.562876 1_555
O32 Ta7 2.078054 1_555
O33 Si8 1.646977 1_555
O33 Ta8 1.955102 1_555
O34 Si9 1.649666 1_555
O34 Ta8 1.907682 1_555
O35 Si7 1.656382 1_555
O35 Ta8 1.926771 1_555
O36 Si11 1.603474 1_555
O36 Sc0 2.074759 1_555
O37 Si10 1.621946 1_555
O37 Sc0 2.124357 1_655
O38 P5 1.525003 1_555
O38 Sc0 2.177915 1_545
O39 Si8 1.640416 1_555
O39 Ta0 1.956810 1_555
O40 Si9 1.629477 1_555
O40 Ta0 1.982815 1_565
O41 Si7 1.623701 1_555
O41 Ta0 2.003813 1_665
O42 Si2 1.652168 1_555
O42 Ta1 1.960133 1_555
O43 P4 1.543978 1_555
O43 Ta1 2.117691 1_455
O44 Si3 1.647334 1_555
O44 Ta1 1.990979 1_565
O45 Si4 1.666320 1_555
O45 Ta2 1.962918 1_555
O46 Si5 1.666507 1_555
O46 Ta2 1.964846 1_545
O47 Si6 1.693071 1_555
O47 Ta2 1.996279 1_445
O48 Si1 1.600392 1_555
O48 Sc1 2.116474 1_555
O49 Si0 1.602948 1_555
O49 Sc1 2.096252 1_555
O50 P3 1.539621 1_655
O50 Sc1 2.244748 1_555
O51 P1 1.512909 1_555
O51 Sc2 2.186572 1_555
O52 P2 1.515442 1_655
O52 Sc2 2.201692 1_555
O53 P0 1.510912 1_555
O53 Sc2 2.192194 1_555
O54 Si7 1.622358 1_555
O54 Ta3 1.992406 1_555
O55 Si8 1.622781 1_655
O55 Ta3 1.996507 1_555
O56 Si9 1.622840 1_545
O56 Ta3 2.005098 1_555
O57 Si10 1.644121 1_545
O57 Ta4 2.013266 1_555
O58 P5 1.555528 1_555
O58 Ta4 2.142690 1_555
O59 Si11 1.675552 1_655
O59 Ta4 2.021149 1_555
O60 Si6 1.643756 1_555
O60 Ta5 2.009165 1_555
O61 Si4 1.656373 1_455
O61 Ta5 2.035780 1_555
O62 Si5 1.639544 1_565
O62 Ta5 1.994239 1_555
O63 P4 1.562662 1_565
O63 Ta6 2.003161 1_555
O64 Si3 1.649455 1_555
O64 Ta6 1.954118 1_555
O65 Si2 1.641104 1_455
O65 Ta6 1.959255 1_555
O66 P0 1.603706 1_565
O66 Ta7 1.991328 1_555
O67 P1 1.583817 1_555
O67 Ta7 2.055329 1_555
O68 P2 1.588685 1_555
O68 Ta7 2.047962 1_555
O69 Si0 1.672693 1_555
O69 Ta8 2.062014 1_555
O70 P3 1.562095 1_555
O70 Ta8 2.110254 1_555
O71 Si1 1.648547 1_565
O71 Ta8 2.021716 1_555
