# generated using pymatgen
data_H8C3SN(OF)3
_symmetry_space_group_name_H-M   'P 1'
_cell_length_a   8.28635400
_cell_length_b   9.09961800
_cell_length_c   11.11454655
_cell_angle_alpha   89.22966122
_cell_angle_beta   90.00000000
_cell_angle_gamma   90.00000000
_symmetry_Int_Tables_number   1
_chemical_formula_structural   H8C3SN(OF)3
_chemical_formula_sum   'H32 C12 S4 N4 O12 F12'
_cell_volume   837.99058451
_cell_formula_units_Z   4
loop_
 _symmetry_equiv_pos_site_id
 _symmetry_equiv_pos_as_xyz
  1  'x, y, z'
loop_
 _atom_site_type_symbol
 _atom_site_label
 _atom_site_symmetry_multiplicity
 _atom_site_fract_x
 _atom_site_fract_y
 _atom_site_fract_z
 _atom_site_occupancy
  H  H0  1  0.40077300  0.33334000  0.20129700  1
  H  H1  1  0.90077300  0.66666000  0.29870300  1
  H  H2  1  0.59922700  0.66666000  0.79870300  1
  H  H3  1  0.09922700  0.33334000  0.70129700  1
  H  H4  1  0.48830000  0.16873600  0.14431300  1
  H  H5  1  0.98830000  0.83126400  0.35568700  1
  H  H6  1  0.51170000  0.83126400  0.85568700  1
  H  H7  1  0.01170000  0.16873600  0.64431300  1
  H  H8  1  0.29511000  0.23135500  0.08885600  1
  H  H9  1  0.79511000  0.76864500  0.41114400  1
  H  H10  1  0.70489000  0.76864500  0.91114400  1
  H  H11  1  0.20489000  0.23135500  0.58885600  1
  H  H12  1  0.05570500  0.21412100  0.22099300  1
  H  H13  1  0.55570500  0.78587900  0.27900700  1
  H  H14  1  0.13638100  0.12797300  0.83864900  1
  H  H15  1  0.44429500  0.21412100  0.72099300  1
  H  H16  1  0.07887700  0.13388400  0.36870000  1
  H  H17  1  0.57887700  0.86611600  0.13130000  1
  H  H18  1  0.92112300  0.86611600  0.63130000  1
  H  H19  1  0.42112300  0.13388400  0.86870000  1
  H  H20  1  0.15898700  0.31328400  0.33622400  1
  H  H21  1  0.65898700  0.68671600  0.16377600  1
  H  H22  1  0.84101300  0.68671600  0.66377600  1
  H  H23  1  0.34101300  0.31328400  0.83622400  1
  H  H24  1  0.26703000  0.03121200  0.23159100  1
  H  H25  1  0.76703000  0.96878800  0.26840900  1
  H  H26  1  0.73297000  0.96878800  0.76840900  1
  H  H27  1  0.23297000  0.03121200  0.73159100  1
  H  H28  1  0.36361900  0.12797300  0.33864900  1
  H  H29  1  0.86361900  0.87202700  0.16135100  1
  H  H30  1  0.63638100  0.87202700  0.66135100  1
  H  H31  1  0.94429500  0.78587900  0.77900700  1
  C  C0  1  0.86547200  0.79568200  0.70020400  1
  C  C1  1  0.72236800  0.37274100  0.46436100  1
  C  C2  1  0.22236800  0.62725900  0.03563900  1
  C  C3  1  0.27763200  0.62725900  0.53563900  1
  C  C4  1  0.77763200  0.37274100  0.96436100  1
  C  C5  1  0.13452800  0.20431800  0.29979600  1
  C  C6  1  0.63452800  0.79568200  0.20020400  1
  C  C7  1  0.36547200  0.20431800  0.79979600  1
  C  C8  1  0.37493100  0.22345300  0.16721100  1
  C  C9  1  0.87493100  0.77654700  0.33278900  1
  C  C10  1  0.62506900  0.77654700  0.83278900  1
  C  C11  1  0.12506900  0.22345300  0.66721100  1
  S  S0  1  0.65529100  0.17629200  0.46022400  1
  S  S1  1  0.15529100  0.82370800  0.03977600  1
  S  S2  1  0.34470900  0.82370800  0.53977600  1
  S  S3  1  0.84470900  0.17629200  0.96022400  1
  N  N0  1  0.20972700  0.13697900  0.76282000  1
  N  N1  1  0.29027300  0.13697900  0.26282000  1
  N  N2  1  0.70972700  0.86302100  0.73718000  1
  N  N3  1  0.79027300  0.86302100  0.23718000  1
  O  O0  1  0.79989900  0.13276800  0.83813300  1
  O  O1  1  0.01951900  0.18692900  0.97876900  1
  O  O2  1  0.98048100  0.81307100  0.02123100  1
  O  O3  1  0.51951900  0.81307100  0.52123100  1
  O  O4  1  0.48048100  0.18692900  0.47876900  1
  O  O5  1  0.29989900  0.86723200  0.66186700  1
  O  O6  1  0.74607600  0.10622000  0.55696900  1
  O  O7  1  0.70010100  0.13276800  0.33813300  1
  O  O8  1  0.75392400  0.10622000  0.05696900  1
  O  O9  1  0.25392400  0.89378000  0.44303100  1
  O  O10  1  0.24607600  0.89378000  0.94303100  1
  O  O11  1  0.20010100  0.86723200  0.16186700  1
  F  F0  1  0.64366600  0.45537900  0.38027200  1
  F  F1  1  0.14366600  0.54462100  0.11972800  1
  F  F2  1  0.35633400  0.54462100  0.61972800  1
  F  F3  1  0.85633400  0.45537900  0.88027200  1
  F  F4  1  0.69441500  0.43188700  0.57396400  1
  F  F5  1  0.19441500  0.56811300  0.92603600  1
  F  F6  1  0.30558500  0.56811300  0.42603600  1
  F  F7  1  0.80558500  0.43188700  0.07396400  1
  F  F8  1  0.61635700  0.38430000  0.94182500  1
  F  F9  1  0.38364300  0.61570000  0.05817500  1
  F  F10  1  0.11635700  0.61570000  0.55817500  1
  F  F11  1  0.88364300  0.38430000  0.44182500  1
loop_
_geom_bond_atom_site_label_1
_geom_bond_atom_site_label_2
_geom_bond_distance
_geom_bond_site_symmetry_2
H14 N0 1.041424 1_555
H24 N1 1.045391 1_555
H25 N3 1.045391 1_555
H26 N2 1.045391 1_555
H27 N0 1.045391 1_555
H28 N1 1.041424 1_555
H29 N3 1.041424 1_555
H30 N2 1.041424 1_555
C0 H18 1.093957 1_555
C0 H22 1.094975 1_555
C0 H31 1.095262 1_555
C0 N2 1.488853 1_555
C1 F4 1.358281 1_555
C1 F0 1.358443 1_555
C1 F11 1.363455 1_555
C2 F5 1.358281 1_554
C2 F1 1.358443 1_555
C2 F9 1.363455 1_555
C3 F6 1.358281 1_555
C3 F2 1.358443 1_555
C3 F10 1.363455 1_555
C4 F7 1.358281 1_556
C4 F3 1.358443 1_555
C4 F8 1.363455 1_555
C5 H16 1.093957 1_555
C5 H20 1.094975 1_555
C5 H12 1.095262 1_555
C5 N1 1.488853 1_555
C6 H17 1.093957 1_555
C6 H21 1.094975 1_555
C6 H13 1.095262 1_555
C6 N3 1.488853 1_555
C7 H19 1.093957 1_555
C7 H23 1.094975 1_555
C7 H15 1.095262 1_555
C7 N0 1.488853 1_555
C8 H4 1.094800 1_555
C8 H8 1.095172 1_555
C8 H0 1.095184 1_555
C8 N1 1.489307 1_555
C9 H5 1.094800 1_555
C9 H9 1.095172 1_555
C9 H1 1.095184 1_555
C9 N3 1.489307 1_555
C10 H6 1.094800 1_555
C10 H10 1.095172 1_555
C10 H2 1.095184 1_555
C10 N2 1.489307 1_555
C11 H7 1.094800 1_555
C11 H11 1.095172 1_555
C11 H3 1.095184 1_555
C11 N0 1.489307 1_555
O0 S3 1.466490 1_555
O1 S3 1.466510 1_455
O2 S1 1.466510 1_655
O3 S2 1.466510 1_555
O4 S0 1.466510 1_555
O5 S2 1.466490 1_555
O6 S0 1.452678 1_555
O7 S0 1.466490 1_555
O8 S3 1.452678 1_554
O9 S2 1.452678 1_555
O10 S1 1.452678 1_556
O11 S1 1.466490 1_555
