# generated using pymatgen
data_Na6Zr2Si5Sn2SO24
_symmetry_space_group_name_H-M   'P 1'
_cell_length_a   9.14527293
_cell_length_b   9.14836422
_cell_length_c   22.74541761
_cell_angle_alpha   89.89693456
_cell_angle_beta   89.72795523
_cell_angle_gamma   119.98743079
_symmetry_Int_Tables_number   1
_chemical_formula_structural   Na6Zr2Si5Sn2SO24
_chemical_formula_sum   'Na18 Zr6 Si15 Sn6 S3 O72'
_cell_volume   1648.19928963
_cell_formula_units_Z   3
loop_
 _symmetry_equiv_pos_site_id
 _symmetry_equiv_pos_as_xyz
  1  'x, y, z'
loop_
 _atom_site_type_symbol
 _atom_site_label
 _atom_site_symmetry_multiplicity
 _atom_site_fract_x
 _atom_site_fract_y
 _atom_site_fract_z
 _atom_site_occupancy
  Na  Na0  1  0.64097138  0.00386486  0.25306298  1
  Na  Na1  1  0.36139991  0.36457854  0.24685474  1
  Na  Na2  1  0.99806038  0.63357300  0.25123615  1
  Na  Na3  1  0.63676061  0.63535241  0.74650329  1
  Na  Na4  1  0.99728131  0.36535379  0.74983511  1
  Na  Na5  1  0.36723322  0.00286835  0.75039648  1
  Na  Na6  1  0.30008650  0.33226734  0.58614479  1
  Na  Na7  1  0.03234882  0.70256306  0.58336263  1
  Na  Na8  1  0.67114327  0.96856536  0.58284671  1
  Na  Na9  1  0.03888039  0.33681200  0.08759948  1
  Na  Na10  1  0.97803498  0.66536447  0.91667821  1
  Na  Na11  1  0.33191696  0.02509623  0.41732341  1
  Na  Na12  1  0.97861065  0.98770567  0.49804770  1
  Na  Na13  1  0.02689613  0.01045954  0.99986291  1
  Na  Na14  1  0.65950117  0.31075752  0.83328699  1
  Na  Na15  1  0.68935879  0.34127934  0.33759960  1
  Na  Na16  1  0.33641615  0.66390195  0.16549456  1
  Na  Na17  1  0.33391852  0.66812212  0.66651568  1
  Zr  Zr0  1  0.01094159  0.01325674  0.85136990  1
  Zr  Zr1  1  0.00786252  0.99275943  0.14743374  1
  Zr  Zr2  1  0.66480903  0.34050200  0.18635157  1
  Zr  Zr3  1  0.65589685  0.32769284  0.97905986  1
  Zr  Zr4  1  0.31880028  0.65934447  0.01927325  1
  Zr  Zr5  1  0.32878937  0.67108646  0.31617856  1
  Si  Si0  1  0.29192559  0.00204141  0.25469802  1
  Si  Si1  1  0.70754173  0.70951124  0.25027838  1
  Si  Si2  1  0.99928579  0.28683189  0.24996287  1
  Si  Si3  1  0.29848023  0.29825400  0.74716969  1
  Si  Si4  1  0.99729114  0.70634104  0.74952813  1
  Si  Si5  1  0.70672948  0.99900648  0.74857383  1
  Si  Si6  1  0.96318064  0.33268619  0.58424974  1
  Si  Si7  1  0.37632061  0.04575507  0.58295747  1
  Si  Si8  1  0.66573747  0.62380285  0.58279206  1
  Si  Si9  1  0.95671171  0.62902630  0.08105312  1
  Si  Si10  1  0.36912577  0.33519862  0.08421509  1
  Si  Si11  1  0.03552523  0.36880804  0.91578291  1
  Si  Si12  1  0.33430537  0.96057454  0.91362032  1
  Si  Si13  1  0.63367589  0.96678525  0.41843701  1
  Si  Si14  1  0.03159827  0.66706967  0.41849215  1
  Sn  Sn0  1  0.98518107  0.98666580  0.35241663  1
  Sn  Sn1  1  0.00013348  0.00083440  0.64832929  1
  Sn  Sn2  1  0.67033772  0.33613786  0.68400317  1
  Sn  Sn3  1  0.68052934  0.33392531  0.48309559  1
  Sn  Sn4  1  0.33662581  0.67748820  0.51903541  1
  Sn  Sn5  1  0.32668390  0.66974584  0.81304932  1
  S  S0  1  0.66565990  0.03943008  0.08345908  1
  S  S1  1  0.62448686  0.66723224  0.91544903  1
  S  S2  1  0.33329567  0.37187057  0.41801976  1
  O  O0  1  0.21458867  0.04486419  0.31311067  1
  O  O1  1  0.83255741  0.77869512  0.30711115  1
  O  O2  1  0.95892639  0.16029413  0.30615587  1
  O  O3  1  0.20922540  0.17026457  0.80255936  1
  O  O4  1  0.96336069  0.78964521  0.80734729  1
  O  O5  1  0.83472513  0.03502535  0.80271030  1
  O  O6  1  0.78010628  0.95760125  0.68830968  1
  O  O7  1  0.17853128  0.22405418  0.68872281  1
  O  O8  1  0.03739730  0.82618489  0.69066739  1
  O  O9  1  0.79072686  0.83622756  0.19436466  1
  O  O10  1  0.03310499  0.20902118  0.19019219  1
  O  O11  1  0.16624708  0.96267848  0.19881081  1
  O  O12  1  0.89166410  0.38103109  0.64342454  1
  O  O13  1  0.49644188  0.12482143  0.64092633  1
  O  O14  1  0.62307266  0.50940905  0.64318280  1
  O  O15  1  0.87107332  0.50912894  0.13985518  1
  O  O16  1  0.64144561  0.11393896  0.13840894  1
  O  O17  1  0.47387676  0.34793032  0.14437576  1
  O  O18  1  0.46812070  0.31064611  0.02871183  1
  O  O19  1  0.84829401  0.53039694  0.02310431  1
  O  O20  1  0.68790257  0.14902433  0.03240863  1
  O  O21  1  0.45651293  0.16572300  0.52441273  1
  O  O22  1  0.70812127  0.53615285  0.52814557  1
  O  O23  1  0.83390172  0.28083924  0.52920470  1
  O  O24  1  0.53742751  0.68277937  0.96697205  1
  O  O25  1  0.15145482  0.46042530  0.97405638  1
  O  O26  1  0.31368360  0.83724107  0.96898919  1
  O  O27  1  0.54892480  0.85252282  0.47827449  1
  O  O28  1  0.31315684  0.45235264  0.47189270  1
  O  O29  1  0.15215948  0.69920921  0.47682629  1
  O  O30  1  0.12249542  0.64292303  0.35979296  1
  O  O31  1  0.51379834  0.87289215  0.36106844  1
  O  O32  1  0.34980009  0.47275176  0.36509241  1
  O  O33  1  0.12328496  0.48932874  0.85675181  1
  O  O34  1  0.36627529  0.88352329  0.85225385  1
  O  O35  1  0.52746450  0.64442143  0.86010080  1
  O  O36  1  0.03629432  0.85064636  0.41419591  1
  O  O37  1  0.82309998  0.99103870  0.41430091  1
  O  O38  1  0.18164523  0.20036921  0.41498723  1
  O  O39  1  0.01423784  0.18176034  0.91303532  1
  O  O40  1  0.15275329  0.95706856  0.91217625  1
  O  O41  1  0.79462022  0.81640415  0.91228781  1
  O  O42  1  0.98267608  0.16443361  0.58976170  1
  O  O43  1  0.18758696  0.02558370  0.58843284  1
  O  O44  1  0.83475432  0.81298584  0.58757504  1
  O  O45  1  0.97331529  0.81410838  0.08456571  1
  O  O46  1  0.82435220  0.03337391  0.08659680  1
  O  O47  1  0.17457591  0.17525245  0.08521723  1
  O  O48  1  0.68644197  0.16784266  0.74430495  1
  O  O49  1  0.48397284  0.31241144  0.74347555  1
  O  O50  1  0.82753652  0.51853552  0.74469699  1
  O  O51  1  0.68617738  0.52053318  0.24375076  1
  O  O52  1  0.83139193  0.30805787  0.24496826  1
  O  O53  1  0.48097392  0.16390659  0.24643755  1
  O  O54  1  0.64477153  0.51506439  0.91956250  1
  O  O55  1  0.85556770  0.36709445  0.92015337  1
  O  O56  1  0.49772449  0.14914486  0.91942905  1
  O  O57  1  0.62720767  0.14520718  0.42157921  1
  O  O58  1  0.48639726  0.35471727  0.42022973  1
  O  O59  1  0.84419744  0.49908493  0.42137421  1
  O  O60  1  0.35580369  0.50733054  0.08050330  1
  O  O61  1  0.14424742  0.64222726  0.07939508  1
  O  O62  1  0.51861887  0.87038409  0.07745990  1
  O  O63  1  0.35626822  0.85581617  0.57921245  1
  O  O64  1  0.49359722  0.63901460  0.57558987  1
  O  O65  1  0.15199271  0.50066983  0.57514669  1
  O  O66  1  0.31033531  0.83237164  0.25745033  1
  O  O67  1  0.51769115  0.68285310  0.25771950  1
  O  O68  1  0.16816188  0.47422907  0.25744386  1
  O  O69  1  0.32083520  0.48711361  0.75643184  1
  O  O70  1  0.16728352  0.68626192  0.75219481  1
  O  O71  1  0.52008841  0.82694907  0.75574218  1
loop_
_geom_bond_atom_site_label_1
_geom_bond_atom_site_label_2
_geom_bond_distance
_geom_bond_site_symmetry_2
Na0 O52 2.441645 1_555
Na0 O53 2.539722 1_555
Na0 O67 2.568026 1_545
Na0 O66 2.620861 1_545
Na0 O31 2.718934 1_545
Na0 O16 2.793035 1_555
Na0 O2 2.800254 1_555
Na0 O9 2.846003 1_545
Na1 O68 2.440533 1_555
Na1 O67 2.535302 1_555
Na1 O53 2.563764 1_555
Na1 O51 2.573736 1_555
Na1 O17 2.578685 1_555
Na1 O32 2.887052 1_555
Na1 O10 2.910785 1_555
Na1 O0 2.944146 1_555
Na2 O51 2.508094 1_555
Na2 O66 2.509237 1_655
Na2 O52 2.584171 1_555
Na2 O68 2.614015 1_655
Na2 O30 2.707265 1_655
Na2 O1 2.768607 1_555
Na2 O15 2.789197 1_555
Na2 O11 2.862339 1_655
Na3 O50 2.459886 1_555
Na3 O71 2.474603 1_555
Na3 O69 2.512713 1_555
Na3 O49 2.561371 1_555
Na3 O14 2.595064 1_555
Na3 O35 2.782311 1_555
Na3 O6 2.875381 1_555
Na3 O4 2.942919 1_555
Na4 O48 2.496275 1_555
Na4 O70 2.545120 1_655
Na4 O50 2.561842 1_555
Na4 O69 2.594022 1_655
Na4 O12 2.640278 1_555
Na4 O33 2.694118 1_655
Na4 O5 2.875389 1_555
Na4 O7 2.911558 1_655
Na5 O49 2.481614 1_555
Na5 O48 2.531849 1_555
Na5 O70 2.537562 1_545
Na5 O34 2.557496 1_545
Na5 O71 2.609368 1_545
Na5 O13 2.735886 1_555
Na5 O3 2.836074 1_555
Na5 O8 2.954698 1_545
Na6 O43 2.458944 1_555
Na6 O64 2.468537 1_555
Na6 O42 2.516447 1_455
Na6 O65 2.521489 1_555
Na6 O7 2.554706 1_555
Na6 O28 2.798212 1_555
Na6 O14 2.879796 1_555
Na6 O21 2.916652 1_555
Na7 O44 2.473577 1_455
Na7 O43 2.563305 1_565
Na7 O63 2.568108 1_555
Na7 O65 2.581277 1_555
Na7 O29 2.661226 1_555
Na7 O8 2.682710 1_555
Na7 O22 2.866531 1_455
Na7 O12 2.891332 1_455
Na8 O42 2.500943 1_565
Na8 O63 2.529115 1_555
Na8 O44 2.531001 1_555
Na8 O64 2.619915 1_555
Na8 O6 2.622795 1_555
Na8 O27 2.623347 1_555
Na8 O23 2.754100 1_565
Na8 O13 2.934447 1_565
Na9 O47 2.358085 1_555
Na9 O61 2.464782 1_555
Na9 O46 2.472270 1_455
Na9 O60 2.516947 1_555
Na9 O10 2.596557 1_555
Na9 O25 2.794450 1_554
Na9 O15 2.942902 1_455
Na10 O40 2.328122 1_655
Na10 O55 2.376926 1_555
Na10 O54 2.644350 1_555
Na10 O41 2.655335 1_555
Na10 O19 2.699945 1_556
Na10 O4 2.764106 1_555
Na10 O33 2.888781 1_655
Na10 O26 2.920136 1_655
Na11 O57 2.355030 1_555
Na11 O36 2.355936 1_545
Na11 O38 2.581800 1_555
Na11 O58 2.614673 1_555
Na11 O0 2.649383 1_555
Na11 O21 2.731083 1_555
Na11 O29 2.913367 1_545
Na11 O31 2.940104 1_545
Na12 O37 2.391838 1_555
Na12 O36 2.479579 1_655
Na12 O44 2.508616 1_555
Na12 O42 2.630554 1_565
Na12 O38 2.672904 1_665
Na12 O43 2.716051 1_665
Na13 O47 2.421997 1_556
Na13 O40 2.466772 1_545
Na13 O45 2.505450 1_446
Na13 O39 2.557734 1_555
Na13 O46 2.778832 1_456
Na13 O41 2.813362 1_445
Na14 O56 2.447305 1_555
Na14 O48 2.488613 1_555
Na14 O55 2.549142 1_555
Na14 O49 2.608717 1_555
Na14 O50 2.659294 1_555
Na14 O54 2.761314 1_555
Na15 O59 2.390028 1_555
Na15 O57 2.479406 1_555
Na15 O52 2.567045 1_555
Na15 O58 2.681142 1_555
Na15 O51 2.698591 1_555
Na15 O53 2.742771 1_555
Na16 O60 2.465931 1_555
Na16 O61 2.578534 1_555
Na16 O67 2.631679 1_555
Na16 O68 2.653311 1_555
Na16 O62 2.676307 1_555
Na16 O66 2.679787 1_555
Na17 O70 2.524577 1_555
Na17 O63 2.562505 1_555
Na17 O71 2.588309 1_555
Na17 O69 2.593574 1_555
Na17 O64 2.615844 1_555
Na17 O65 2.632566 1_555
O0 Si0 1.639773 1_555
O0 Sn0 2.085241 1_445
O1 Si1 1.634747 1_555
O1 Sn0 1.999024 1_555
O2 Si2 1.634935 1_555
O2 Sn0 2.016311 1_545
O3 Si3 1.629128 1_555
O3 Zr0 1.988840 1_555
O4 Si4 1.625652 1_555
O4 Zr0 2.120959 1_665
O5 Si5 1.620061 1_545
O5 Zr0 2.049066 1_655
O6 Si5 1.649219 1_555
O6 Sn1 2.053813 1_665
O7 Si3 1.644434 1_555
O7 Sn1 2.089653 1_555
O8 Si4 1.648352 1_455
O8 Sn1 2.034257 1_565
O9 Si1 1.626028 1_555
O9 Zr1 2.065238 1_655
O10 Si2 1.634077 1_455
O10 Zr1 2.113267 1_545
O11 Si0 1.633522 1_565
O11 Zr1 1.988159 1_555
O12 Si6 1.648608 1_555
O12 Sn2 2.065774 1_555
O13 Si7 1.640546 1_555
O13 Sn2 2.043225 1_555
O14 Si8 1.647972 1_555
O14 Sn2 2.060350 1_555
O15 Si9 1.652692 1_555
O15 Zr2 2.030486 1_555
O16 S0 1.492358 1_555
O16 Zr2 2.257975 1_555
O17 Si10 1.644759 1_555
O17 Zr2 2.024687 1_555
O18 Si10 1.630121 1_555
O18 Zr3 1.990478 1_554
O19 Si9 1.630010 1_555
O19 Zr3 2.073685 1_554
O20 S0 1.478040 1_555
O20 Zr3 2.168931 1_554
O21 Si7 1.642097 1_555
O21 Sn3 2.067216 1_555
O22 Si8 1.627223 1_555
O22 Sn3 2.019642 1_555
O23 Si6 1.626645 1_555
O23 Sn3 1.999055 1_555
O24 S1 1.460292 1_555
O24 Zr4 2.237581 1_556
O25 Si11 1.646946 1_555
O25 Zr4 1.987277 1_556
O26 Si12 1.635424 1_555
O26 Zr4 2.007208 1_556
O27 Si13 1.649483 1_555
O27 Sn4 2.015692 1_555
O28 S2 1.488018 1_555
O28 Sn4 2.237440 1_555
O29 Si14 1.659466 1_555
O29 Sn4 2.038861 1_555
O30 Si14 1.642102 1_555
O30 Zr5 2.026135 1_555
O31 Si13 1.648847 1_555
O31 Zr5 2.052891 1_555
O32 S2 1.476082 1_555
O32 Zr5 2.215894 1_555
O33 Si11 1.662071 1_555
O33 Sn5 2.019887 1_555
O34 Si12 1.654179 1_555
O34 Sn5 2.013102 1_555
O35 S1 1.497391 1_555
O35 Sn5 2.239114 1_555
O36 Si14 1.661065 1_555
O36 Sn0 2.079157 1_455
O37 Si13 1.634998 1_555
O37 Sn0 2.054191 1_555
O38 S2 1.488622 1_555
O38 Sn0 2.366184 1_445
O39 Si11 1.624020 1_555
O39 Zr0 2.075153 1_555
O40 Si12 1.645034 1_555
O40 Zr0 2.130713 1_565
O41 S1 1.471210 1_555
O41 Zr0 2.341034 1_665
O42 Si6 1.640304 1_555
O42 Sn1 2.067319 1_655
O43 Si7 1.645660 1_555
O43 Sn1 2.105920 1_555
O44 Si8 1.650615 1_555
O44 Sn1 2.140227 1_665
O45 Si9 1.624795 1_555
O45 Zr1 2.076603 1_655
O46 S0 1.481801 1_555
O46 Zr1 2.347959 1_645
O47 Si10 1.644464 1_555
O47 Zr1 2.130961 1_545
O48 Si5 1.647925 1_545
O48 Sn2 2.119996 1_555
O49 Si3 1.637230 1_555
O49 Sn2 2.095008 1_555
O50 Si4 1.646244 1_555
O50 Sn2 2.094300 1_555
O51 Si1 1.647012 1_555
O51 Zr2 2.035609 1_555
O52 Si2 1.645537 1_555
O52 Zr2 2.157878 1_555
O53 Si0 1.629079 1_555
O53 Zr2 2.135301 1_555
O54 S1 1.496301 1_555
O54 Zr3 2.224261 1_555
O55 Si11 1.640520 1_655
O55 Zr3 2.139308 1_555
O56 Si12 1.628651 1_545
O56 Zr3 2.065150 1_555
O57 Si13 1.664273 1_545
O57 Sn3 2.085633 1_555
O58 S2 1.485888 1_555
O58 Sn3 2.365066 1_555
O59 Si14 1.633709 1_655
O59 Sn3 2.050831 1_555
O60 Si10 1.641077 1_555
O60 Zr4 2.110941 1_555
O61 Si9 1.658246 1_455
O61 Zr4 2.042417 1_555
O62 S0 1.463639 1_565
O62 Zr4 2.307348 1_555
O63 Si7 1.656017 1_565
O63 Sn4 2.069944 1_555
O64 Si8 1.657073 1_555
O64 Sn4 2.088150 1_555
O65 Si6 1.651979 1_455
O65 Sn4 2.082883 1_555
O66 Si0 1.643951 1_565
O66 Zr5 2.057644 1_555
O67 Si1 1.635979 1_555
O67 Zr5 2.134446 1_555
O68 Si2 1.646240 1_455
O68 Zr5 2.137465 1_555
O69 Si3 1.649226 1_555
O69 Sn5 2.090896 1_555
O70 Si4 1.655477 1_455
O70 Sn5 2.074218 1_555
O71 Si5 1.651785 1_555
O71 Sn5 2.079513 1_555
