# generated using pymatgen
data_LiIO3
_symmetry_space_group_name_H-M   'P 1'
_cell_length_a   5.18097706
_cell_length_b   5.80271170
_cell_length_c   9.33360494
_cell_angle_alpha   90.00000000
_cell_angle_beta   90.00000000
_cell_angle_gamma   90.00000000
_symmetry_Int_Tables_number   1
_chemical_formula_structural   LiIO3
_chemical_formula_sum   'Li4 I4 O12'
_cell_volume   280.60285007
_cell_formula_units_Z   4
loop_
 _symmetry_equiv_pos_site_id
 _symmetry_equiv_pos_as_xyz
  1  'x, y, z'
loop_
 _atom_site_type_symbol
 _atom_site_label
 _atom_site_symmetry_multiplicity
 _atom_site_fract_x
 _atom_site_fract_y
 _atom_site_fract_z
 _atom_site_occupancy
  Li  Li0  1  0.97512237  0.41575307  0.48126068  1
  Li  Li1  1  0.97512237  0.08424693  0.98126068  1
  Li  Li2  1  0.47512237  0.58424693  0.51873932  1
  Li  Li3  1  0.47512237  0.91575307  0.01873932  1
  I  I0  1  0.51439127  0.42490990  0.18170820  1
  I  I1  1  0.01439127  0.57509010  0.81829180  1
  I  I2  1  0.51439127  0.07509010  0.68170820  1
  I  I3  1  0.01439127  0.92490990  0.31829180  1
  O  O0  1  0.67988137  0.47149554  0.34888102  1
  O  O1  1  0.17291101  0.14556727  0.42346929  1
  O  O2  1  0.17988137  0.97149554  0.15111898  1
  O  O3  1  0.67291101  0.85443273  0.57653071  1
  O  O4  1  0.67291101  0.64556727  0.07653071  1
  O  O5  1  0.17988137  0.52850446  0.65111898  1
  O  O6  1  0.19089398  0.67305023  0.37573566  1
  O  O7  1  0.69089398  0.17305023  0.12426434  1
  O  O8  1  0.69089398  0.32694977  0.62426434  1
  O  O9  1  0.19089398  0.82694977  0.87573566  1
  O  O10  1  0.67988137  0.02850446  0.84888102  1
  O  O11  1  0.17291101  0.35443273  0.92346929  1
loop_
_geom_bond_atom_site_label_1
_geom_bond_atom_site_label_2
_geom_bond_distance
_geom_bond_site_symmetry_2
Li0 O1 1.949121 1_655
Li0 O0 1.992754 1_555
Li0 O5 2.016663 1_655
Li0 O8 2.053182 1_555
Li0 O6 2.109245 1_655
Li1 O11 1.949121 1_655
Li1 O10 1.992754 1_555
Li1 O2 2.016663 1_646
Li1 O7 2.053182 1_556
Li1 O9 2.109245 1_645
Li2 O3 1.949121 1_555
Li2 O5 1.992754 1_555
Li2 O0 2.016663 1_555
Li2 O6 2.053182 1_555
Li2 O8 2.109245 1_555
Li3 O4 1.949121 1_555
Li3 O2 1.992754 1_555
Li3 O10 2.016663 1_564
Li3 O9 2.053182 1_554
Li3 O7 2.109245 1_565
I0 O0 1.800784 1_555
I0 O7 1.805433 1_555
I0 O4 1.810434 1_555
I1 O5 1.800784 1_555
I1 O9 1.805433 1_555
I1 O11 1.810434 1_555
I2 O10 1.800784 1_555
I2 O8 1.805433 1_555
I2 O3 1.810434 1_545
I3 O2 1.800784 1_555
I3 O6 1.805433 1_555
I3 O1 1.810434 1_565
