# generated using pymatgen
data_TeAuI
_symmetry_space_group_name_H-M   'P 1'
_cell_length_a   7.30427224
_cell_length_b   7.64630847
_cell_length_c   7.82800078
_cell_angle_alpha   90.00000000
_cell_angle_beta   90.00000000
_cell_angle_gamma   105.89488352
_symmetry_Int_Tables_number   1
_chemical_formula_structural   TeAuI
_chemical_formula_sum   'Te4 Au4 I4'
_cell_volume   420.48348450
_cell_formula_units_Z   4
loop_
 _symmetry_equiv_pos_site_id
 _symmetry_equiv_pos_as_xyz
  1  'x, y, z'
loop_
 _atom_site_type_symbol
 _atom_site_label
 _atom_site_symmetry_multiplicity
 _atom_site_fract_x
 _atom_site_fract_y
 _atom_site_fract_z
 _atom_site_occupancy
  Te  Te0  1  0.98550518  0.66041517  0.13826822  1
  Te  Te1  1  0.51449482  0.33958483  0.63826822  1
  Te  Te2  1  0.01449482  0.33958483  0.86173178  1
  Te  Te3  1  0.48550518  0.66041517  0.36173178  1
  Au  Au0  1  0.23165741  0.46194128  0.13497436  1
  Au  Au1  1  0.26834259  0.53805872  0.63497436  1
  Au  Au2  1  0.76834259  0.53805872  0.86502564  1
  Au  Au3  1  0.73165741  0.46194128  0.36502564  1
  I  I0  1  0.38856716  0.18518553  0.07984866  1
  I  I1  1  0.11143284  0.81481447  0.57984866  1
  I  I2  1  0.61143284  0.81481447  0.92015134  1
  I  I3  1  0.88856716  0.18518553  0.42015134  1
loop_
_geom_bond_atom_site_label_1
_geom_bond_atom_site_label_2
_geom_bond_distance
_geom_bond_site_symmetry_2
Au0 Te0 2.651602 1_455
Au0 Te2 2.674619 1_554
Au0 I0 2.703035 1_555
Au0 Te3 2.711195 1_555
Au1 Te1 2.651602 1_555
Au1 Te3 2.674619 1_555
Au1 I1 2.703035 1_555
Au1 Te2 2.711195 1_555
Au2 Te2 2.651602 1_655
Au2 Te0 2.674619 1_556
Au2 I2 2.703035 1_555
Au2 Te1 2.711195 1_555
Au3 Te3 2.651602 1_555
Au3 Te1 2.674619 1_555
Au3 I3 2.703035 1_555
Au3 Te0 2.711195 1_555
