# generated using pymatgen
data_MgMn6O11F
_symmetry_space_group_name_H-M   'P 1'
_cell_length_a   4.96500279
_cell_length_b   7.52349574
_cell_length_c   5.56199740
_cell_angle_alpha   96.53076209
_cell_angle_beta   94.89055699
_cell_angle_gamma   86.63623090
_symmetry_Int_Tables_number   1
_chemical_formula_structural   MgMn6O11F
_chemical_formula_sum   'Mg1 Mn6 O11 F1'
_cell_volume   205.41225566
_cell_formula_units_Z   1
loop_
 _symmetry_equiv_pos_site_id
 _symmetry_equiv_pos_as_xyz
  1  'x, y, z'
loop_
 _atom_site_type_symbol
 _atom_site_label
 _atom_site_symmetry_multiplicity
 _atom_site_fract_x
 _atom_site_fract_y
 _atom_site_fract_z
 _atom_site_occupancy
  Mg  Mg0  1  0.01164800  0.49305100  0.00071500  1
  Mn  Mn0  1  0.49877900  0.00480200  0.50581400  1
  Mn  Mn1  1  0.52575800  0.69141200  0.14541300  1
  Mn  Mn2  1  0.50726900  0.33210700  0.84066400  1
  Mn  Mn3  1  0.00418700  0.69373300  0.64688900  1
  Mn  Mn4  1  0.97830200  0.30922600  0.37875700  1
  Mn  Mn5  1  0.99918000  0.00557300  0.00575500  1
  O  O0  1  0.84813000  0.44829400  0.65422300  1
  O  O1  1  0.85254700  0.76181200  0.95349600  1
  O  O2  1  0.81348800  0.09356000  0.30865600  1
  O  O3  1  0.67944200  0.09601100  0.81701700  1
  O  O4  1  0.68769900  0.77332400  0.46414300  1
  O  O5  1  0.68465100  0.44191200  0.14960600  1
  O  O6  1  0.32205500  0.57554000  0.85614900  1
  O  O7  1  0.31297200  0.23809600  0.54402600  1
  O  O8  1  0.30678900  0.90759300  0.20395600  1
  O  O9  1  0.14045200  0.24097300  0.06978100  1
  O  O10  1  0.17435800  0.91177000  0.70984400  1
  F  F0  1  0.16618100  0.57049800  0.34509900  1
loop_
_geom_bond_atom_site_label_1
_geom_bond_atom_site_label_2
_geom_bond_distance
_geom_bond_site_symmetry_2
Mg0 O6 1.960598 1_554
Mg0 O5 1.960801 1_455
Mg0 O0 2.025896 1_454
Mg0 O9 2.033419 1_555
Mg0 O1 2.163223 1_454
Mn0 O4 1.928731 1_545
Mn0 O7 1.932738 1_555
Mn0 O8 1.947296 1_545
Mn0 O3 1.951627 1_555
Mn0 O2 2.161274 1_555
Mn0 O10 2.235367 1_545
Mn1 O8 1.914595 1_555
Mn1 O4 1.932767 1_555
Mn1 O6 1.969355 1_554
Mn1 O5 1.994870 1_555
Mn1 O1 2.139453 1_554
Mn2 O3 1.921201 1_555
Mn2 O7 1.922572 1_555
Mn2 O5 1.978691 1_556
Mn2 O6 1.996826 1_555
Mn2 O0 2.320045 1_555
Mn2 O9 2.480330 1_556
Mn3 O10 1.873211 1_555
Mn3 O4 1.901732 1_455
Mn3 O1 1.926752 1_455
Mn3 O0 2.049932 1_455
Mn3 O6 2.096115 1_555
Mn4 O2 1.847120 1_555
Mn4 O0 1.893330 1_555
Mn4 O7 1.907750 1_655
Mn4 O9 1.962601 1_655
Mn4 O5 2.132711 1_555
Mn5 O9 1.927452 1_655
Mn5 O3 1.958746 1_554
Mn5 O8 1.963901 1_645
Mn5 O10 1.967538 1_644
Mn5 O1 1.994287 1_544
Mn5 O2 2.016452 1_555
F0 Mn3 2.027989 1_555
F0 Mg0 2.035973 1_555
F0 Mn4 2.257820 1_455
F0 Mn1 2.450897 1_555
