# generated using pymatgen
data_CeCuSn
_symmetry_space_group_name_H-M   'P 1'
_cell_length_a   4.58267198
_cell_length_b   4.58267198
_cell_length_c   7.68721948
_cell_angle_alpha   90.00000000
_cell_angle_beta   90.00000000
_cell_angle_gamma   120.00001499
_symmetry_Int_Tables_number   1
_chemical_formula_structural   CeCuSn
_chemical_formula_sum   'Ce2 Cu2 Sn2'
_cell_volume   139.80972814
_cell_formula_units_Z   2
loop_
 _symmetry_equiv_pos_site_id
 _symmetry_equiv_pos_as_xyz
  1  'x, y, z'
loop_
 _atom_site_type_symbol
 _atom_site_label
 _atom_site_symmetry_multiplicity
 _atom_site_fract_x
 _atom_site_fract_y
 _atom_site_fract_z
 _atom_site_occupancy
  Ce  Ce0  1  0.00000000  0.00000000  0.48769657  1
  Ce  Ce1  1  -0.00000000  0.00000000  0.98756769  1
  Cu  Cu0  1  0.66666700  0.33333300  0.79465035  1
  Cu  Cu1  1  0.33333300  0.66666700  0.29520623  1
  Sn  Sn0  1  0.33333300  0.66666700  0.72529772  1
  Sn  Sn1  1  0.66666700  0.33333300  0.22478444  1
loop_
_geom_bond_atom_site_label_1
_geom_bond_atom_site_label_2
_geom_bond_distance
_geom_bond_site_symmetry_2
Ce0 Cu1 3.031475 1_545
Ce0 Cu1 3.031478 1_555
Ce0 Cu1 3.031478 1_445
Ce0 Sn0 3.215020 1_545
Ce0 Sn0 3.215023 1_445
Ce0 Sn0 3.215023 1_555
Ce0 Sn1 3.329411 1_455
Ce0 Sn1 3.329414 1_445
Ce0 Sn1 3.329414 1_555
Ce0 Cu0 3.545151 1_455
Ce0 Cu0 3.545153 1_555
Ce0 Cu0 3.545153 1_445
Ce1 Cu0 3.033078 1_455
Ce1 Cu0 3.033081 1_555
Ce1 Cu0 3.033081 1_445
Ce1 Sn1 3.213342 1_456
Ce1 Sn1 3.213345 1_446
Ce1 Sn1 3.213345 1_556
Ce1 Sn0 3.326417 1_545
Ce1 Sn0 3.326419 1_445
Ce1 Sn0 3.326419 1_555
Ce1 Cu1 3.548656 1_546
Ce1 Cu1 3.548659 1_556
Ce1 Cu1 3.548659 1_446
Cu0 Sn0 2.698982 1_545
Cu0 Sn0 2.698982 1_655
Cu0 Sn0 2.698990 1_555
Cu0 Sn1 3.306535 1_556
Cu1 Sn1 2.700618 1_455
Cu1 Sn1 2.700618 1_565
Cu1 Sn1 2.700626 1_555
Cu1 Sn0 3.306208 1_555
