# generated using pymatgen
data_Ba3LaMgIn(WO6)2
_symmetry_space_group_name_H-M   'P 1'
_cell_length_a   10.36419235
_cell_length_b   10.36419278
_cell_length_c   10.36419202
_cell_angle_alpha   33.19944916
_cell_angle_beta   33.19944824
_cell_angle_gamma   33.19945308
_symmetry_Int_Tables_number   1
_chemical_formula_structural   Ba3LaMgIn(WO6)2
_chemical_formula_sum   'Ba3 La1 Mg1 In1 W2 O12'
_cell_volume   297.13294018
_cell_formula_units_Z   1
loop_
 _symmetry_equiv_pos_site_id
 _symmetry_equiv_pos_as_xyz
  1  'x, y, z'
loop_
 _atom_site_type_symbol
 _atom_site_label
 _atom_site_symmetry_multiplicity
 _atom_site_fract_x
 _atom_site_fract_y
 _atom_site_fract_z
 _atom_site_occupancy
  Ba  Ba0  1  0.28957200  0.28957200  0.28957200  1
  Ba  Ba1  1  0.72084700  0.72084700  0.72084700  1
  Ba  Ba2  1  0.86982800  0.86982800  0.86982800  1
  La  La0  1  0.15230200  0.15230200  0.15230200  1
  Mg  Mg0  1  0.49853000  0.49853000  0.49853000  1
  In  In0  1  0.00088100  0.00088100  0.00088100  1
  W  W0  1  0.41109300  0.41109300  0.41109300  1
  W  W1  1  0.58778000  0.58778000  0.58778000  1
  O  O0  1  0.21341200  0.69266300  0.21341200  1
  O  O1  1  0.21341200  0.21341200  0.69266300  1
  O  O2  1  0.69266300  0.21341200  0.21341200  1
  O  O3  1  0.14282500  0.61086700  0.61086700  1
  O  O4  1  0.61086700  0.14282500  0.61086700  1
  O  O5  1  0.61086700  0.61086700  0.14282500  1
  O  O6  1  0.38099300  0.86355000  0.38099300  1
  O  O7  1  0.38099300  0.38099300  0.86355000  1
  O  O8  1  0.86355000  0.38099300  0.38099300  1
  O  O9  1  0.28875200  0.78541800  0.78541800  1
  O  O10  1  0.78541800  0.28875200  0.78541800  1
  O  O11  1  0.78541800  0.78541800  0.28875200  1
loop_
_geom_bond_atom_site_label_1
_geom_bond_atom_site_label_2
_geom_bond_distance
_geom_bond_site_symmetry_2
Ba0 O1 2.950371 1_555
Ba0 O2 2.950371 1_555
Ba0 O0 2.950371 1_555
Ba0 O10 2.962250 1_554
Ba0 O10 2.962250 1_455
Ba0 O9 2.962250 1_554
Ba0 O9 2.962250 1_545
Ba0 O11 2.962250 1_455
Ba0 O11 2.962250 1_545
Ba0 O7 2.964912 1_554
Ba0 O8 2.964913 1_455
Ba0 O6 2.964913 1_545
Ba1 O5 2.685987 1_556
Ba1 O3 2.685987 1_655
Ba1 O4 2.685988 1_565
Ba1 O0 2.991537 1_655
Ba1 O0 2.991537 1_556
Ba1 O2 2.991537 1_565
Ba1 O2 2.991537 1_556
Ba1 O1 2.991538 1_565
Ba1 O1 2.991538 1_655
Ba1 O11 3.416042 1_555
Ba1 O9 3.416042 1_555
Ba1 O10 3.416042 1_555
Ba2 O6 2.965643 1_556
Ba2 O6 2.965643 1_655
Ba2 O8 2.965643 1_556
Ba2 O8 2.965644 1_565
Ba2 O7 2.965644 1_655
Ba2 O7 2.965644 1_565
Ba2 O11 2.991540 1_556
Ba2 O9 2.991541 1_655
Ba2 O10 2.991541 1_565
Ba2 O4 3.008370 1_565
Ba2 O5 3.008370 1_556
Ba2 O3 3.008370 1_655
La0 O7 2.419056 1_554
La0 O6 2.419056 1_545
La0 O8 2.419056 1_455
La0 O4 3.097598 1_554
La0 O3 3.097599 1_554
La0 O4 3.097599 1_455
La0 O3 3.097599 1_545
La0 O5 3.097599 1_455
La0 O5 3.097599 1_545
Mg0 O5 2.050416 1_555
Mg0 O3 2.050416 1_555
Mg0 O4 2.050416 1_555
Mg0 O7 2.082879 1_555
Mg0 O8 2.082879 1_555
Mg0 O6 2.082879 1_555
In0 O1 2.115836 1_554
In0 O0 2.115836 1_545
In0 O2 2.115836 1_455
In0 O11 2.218200 1_445
In0 O10 2.218200 1_454
In0 O9 2.218200 1_544
O0 W0 1.980986 1_555
O1 W0 1.980986 1_555
O2 W0 1.980986 1_555
O3 W0 2.051940 1_555
O4 W0 2.051940 1_555
O5 W0 2.051940 1_555
O6 W1 2.130679 1_555
O7 W1 2.130679 1_555
O8 W1 2.130679 1_555
O9 W1 1.941705 1_555
O10 W1 1.941705 1_555
O11 W1 1.941705 1_555
