# generated using pymatgen
data_Ba2Ho2Co4O11
_symmetry_space_group_name_H-M   'P 1'
_cell_length_a   7.59967800
_cell_length_b   7.80003000
_cell_length_c   7.89930400
_cell_angle_alpha   90.00000000
_cell_angle_beta   90.00000000
_cell_angle_gamma   90.00000000
_symmetry_Int_Tables_number   1
_chemical_formula_structural   Ba2Ho2Co4O11
_chemical_formula_sum   'Ba4 Ho4 Co8 O22'
_cell_volume   468.25270219
_cell_formula_units_Z   2
loop_
 _symmetry_equiv_pos_site_id
 _symmetry_equiv_pos_as_xyz
  1  'x, y, z'
loop_
 _atom_site_type_symbol
 _atom_site_label
 _atom_site_symmetry_multiplicity
 _atom_site_fract_x
 _atom_site_fract_y
 _atom_site_fract_z
 _atom_site_occupancy
  Ba  Ba0  1  0.00000000  0.00000000  0.24158600  1
  Ba  Ba1  1  0.00000000  0.00000000  0.75841400  1
  Ba  Ba2  1  0.00000000  0.50000000  0.75841400  1
  Ba  Ba3  1  0.00000000  0.50000000  0.24158600  1
  Ho  Ho0  1  0.50000100  0.50000000  0.26891100  1
  Ho  Ho1  1  0.50000100  0.00000000  0.73109000  1
  Ho  Ho2  1  0.50000100  0.50000000  0.73109000  1
  Ho  Ho3  1  0.50000100  0.00000000  0.26891100  1
  Co  Co0  1  0.25263700  0.75000000  0.50000000  1
  Co  Co1  1  0.74736400  0.25000000  0.50000000  1
  Co  Co2  1  0.74575500  0.75000000  0.50000000  1
  Co  Co3  1  0.25424700  0.25000000  0.50000000  1
  Co  Co4  1  0.27220500  0.75000000  0.00000000  1
  Co  Co5  1  0.26266400  0.25000000  0.00000000  1
  Co  Co6  1  0.73733600  0.75000000  0.00000000  1
  Co  Co7  1  0.72779500  0.25000000  0.00000000  1
  O  O0  1  0.30171200  0.75000000  0.23701700  1
  O  O1  1  0.30171200  0.75000000  0.76298300  1
  O  O2  1  0.69828800  0.25000000  0.76298300  1
  O  O3  1  0.69828800  0.25000000  0.23701700  1
  O  O4  1  0.68994300  0.75000000  0.22857700  1
  O  O5  1  0.68994300  0.75000000  0.77142300  1
  O  O6  1  0.31005700  0.25000000  0.77142300  1
  O  O7  1  0.31005700  0.25000000  0.22857700  1
  O  O8  1  0.72107200  0.99719400  0.50000000  1
  O  O9  1  0.72107200  0.50280600  0.50000000  1
  O  O10  1  0.27892700  0.49719500  0.50000000  1
  O  O11  1  0.27892700  0.00280600  0.50000000  1
  O  O12  1  0.68256000  0.00619900  0.00000000  1
  O  O13  1  0.68256000  0.49380100  0.00000000  1
  O  O14  1  0.31743900  0.50619900  0.00000000  1
  O  O15  1  0.31743900  0.99380100  0.00000000  1
  O  O16  1  0.00973000  0.25000000  0.00000000  1
  O  O17  1  0.99027000  0.75000000  0.00000000  1
  O  O18  1  0.99056600  0.25000000  0.50000000  1
  O  O19  1  0.49435300  0.75000000  0.50000000  1
  O  O20  1  0.50564700  0.25000000  0.50000000  1
  O  O21  1  0.00943400  0.75000000  0.50000000  1
loop_
_geom_bond_atom_site_label_1
_geom_bond_atom_site_label_2
_geom_bond_distance
_geom_bond_site_symmetry_2
Ba0 O16 2.729439 1_555
Ba0 O17 2.729439 1_445
Ba0 O21 2.823922 1_545
Ba0 O18 2.823922 1_455
Ba0 O11 2.942908 1_555
Ba0 O8 2.942914 1_445
Ba0 O0 3.010197 1_545
Ba0 O3 3.010197 1_455
Ba0 O4 3.060293 1_445
Ba0 O7 3.060293 1_555
Ba0 O15 3.076365 1_545
Ba0 O12 3.076371 1_455
Ba1 O17 2.729439 1_446
Ba1 O16 2.729439 1_556
Ba1 O21 2.823922 1_545
Ba1 O18 2.823922 1_455
Ba1 O11 2.942908 1_555
Ba1 O8 2.942914 1_445
Ba1 O2 3.010197 1_455
Ba1 O1 3.010197 1_545
Ba1 O6 3.060293 1_555
Ba1 O5 3.060293 1_445
Ba1 O15 3.076365 1_546
Ba1 O12 3.076371 1_456
Ba2 O17 2.729439 1_456
Ba2 O16 2.729439 1_556
Ba2 O21 2.823922 1_555
Ba2 O18 2.823922 1_455
Ba2 O10 2.942908 1_555
Ba2 O9 2.942914 1_455
Ba2 O2 3.010197 1_455
Ba2 O1 3.010197 1_555
Ba2 O5 3.060293 1_455
Ba2 O6 3.060293 1_555
Ba2 O14 3.076365 1_556
Ba2 O13 3.076371 1_456
Ba3 O16 2.729439 1_555
Ba3 O17 2.729439 1_455
Ba3 O21 2.823922 1_555
Ba3 O18 2.823922 1_455
Ba3 O10 2.942908 1_555
Ba3 O9 2.942914 1_455
Ba3 O0 3.010197 1_555
Ba3 O3 3.010197 1_455
Ba3 O4 3.060293 1_455
Ba3 O7 3.060293 1_555
Ba3 O14 3.076365 1_555
Ba3 O13 3.076371 1_455
Ho0 O4 2.446984 1_555
Ho0 O7 2.446993 1_555
Ho0 O3 2.477257 1_555
Ho0 O0 2.477266 1_555
Ho0 O9 2.480997 1_555
Ho0 O10 2.481013 1_555
Ho0 O13 2.537608 1_555
Ho0 O14 2.537621 1_555
Ho0 O20 2.671443 1_555
Ho0 O19 2.671444 1_555
Ho1 O5 2.446983 1_545
Ho1 O6 2.446991 1_555
Ho1 O2 2.477256 1_555
Ho1 O1 2.477266 1_545
Ho1 O8 2.481003 1_545
Ho1 O11 2.481019 1_555
Ho1 O12 2.537601 1_556
Ho1 O15 2.537614 1_546
Ho1 O20 2.671449 1_555
Ho1 O19 2.671449 1_545
Ho2 O5 2.446983 1_555
Ho2 O6 2.446991 1_555
Ho2 O2 2.477256 1_555
Ho2 O1 2.477266 1_555
Ho2 O9 2.481003 1_555
Ho2 O10 2.481019 1_555
Ho2 O13 2.537601 1_556
Ho2 O14 2.537614 1_556
Ho2 O20 2.671449 1_555
Ho2 O19 2.671449 1_555
Ho3 O4 2.446984 1_545
Ho3 O7 2.446993 1_555
Ho3 O3 2.477257 1_555
Ho3 O0 2.477266 1_545
Ho3 O8 2.480997 1_545
Ho3 O11 2.481013 1_555
Ho3 O12 2.537608 1_555
Ho3 O15 2.537621 1_545
Ho3 O20 2.671443 1_555
Ho3 O19 2.671444 1_545
Co0 O19 1.836964 1_555
Co0 O21 1.848264 1_555
Co0 O10 1.981983 1_555
Co0 O11 1.981990 1_565
Co0 O0 2.110596 1_555
Co0 O1 2.110596 1_555
Co1 O20 1.836971 1_555
Co1 O18 1.848257 1_555
Co1 O9 1.981992 1_555
Co1 O8 1.981992 1_545
Co1 O3 2.110597 1_555
Co1 O2 2.110597 1_555
Co2 O19 1.910574 1_555
Co2 O8 1.937224 1_555
Co2 O9 1.937224 1_555
Co2 O21 2.003875 1_655
Co2 O5 2.185605 1_555
Co2 O4 2.185605 1_555
Co3 O20 1.910559 1_555
Co3 O11 1.937222 1_555
Co3 O10 1.937229 1_555
Co3 O18 2.003891 1_455
Co3 O7 2.185602 1_555
Co3 O6 2.185602 1_555
Co4 O0 1.885650 1_555
Co4 O1 1.885650 1_554
Co4 O14 1.932477 1_555
Co4 O15 1.932477 1_555
Co4 O17 2.142615 1_455
Co5 O7 1.841171 1_555
Co5 O6 1.841171 1_554
Co5 O16 1.922217 1_555
Co5 O14 2.041256 1_555
Co5 O15 2.041256 1_545
Co6 O4 1.841171 1_555
Co6 O5 1.841171 1_554
Co6 O17 1.922217 1_555
Co6 O13 2.041257 1_555
Co6 O12 2.041257 1_565
Co7 O3 1.885650 1_555
Co7 O2 1.885650 1_554
Co7 O13 1.932478 1_555
Co7 O12 1.932478 1_555
Co7 O16 2.142615 1_655
