# generated using pymatgen
data_Ba(GeAs)2
_symmetry_space_group_name_H-M   'P 1'
_cell_length_a   7.87534532
_cell_length_b   7.87534532
_cell_length_c   8.72726781
_cell_angle_alpha   90.00000000
_cell_angle_beta   90.00000000
_cell_angle_gamma   90.00000000
_symmetry_Int_Tables_number   1
_chemical_formula_structural   Ba(GeAs)2
_chemical_formula_sum   'Ba4 Ge8 As8'
_cell_volume   541.27443460
_cell_formula_units_Z   4
loop_
 _symmetry_equiv_pos_site_id
 _symmetry_equiv_pos_as_xyz
  1  'x, y, z'
loop_
 _atom_site_type_symbol
 _atom_site_label
 _atom_site_symmetry_multiplicity
 _atom_site_fract_x
 _atom_site_fract_y
 _atom_site_fract_z
 _atom_site_occupancy
  Ba  Ba0  1  -0.00000000  0.50000000  0.52444970  1
  Ba  Ba1  1  0.50000000  0.00000000  0.02444970  1
  Ba  Ba2  1  -0.00000000  0.00000000  0.49906916  1
  Ba  Ba3  1  -0.00000000  0.00000000  0.99906916  1
  Ge  Ge0  1  0.16342791  0.50000000  0.10758609  1
  Ge  Ge1  1  0.50000000  0.83657209  0.60758609  1
  Ge  Ge2  1  0.83657209  0.50000000  0.10758609  1
  Ge  Ge3  1  0.50000000  0.16342791  0.60758609  1
  Ge  Ge4  1  0.33472340  0.50000000  0.86730542  1
  Ge  Ge5  1  0.50000000  0.33472340  0.36730542  1
  Ge  Ge6  1  0.50000000  0.66527660  0.36730542  1
  Ge  Ge7  1  0.66527660  0.50000000  0.86730542  1
  As  As0  1  0.76847078  0.24761694  0.25509928  1
  As  As1  1  0.23152922  0.75238306  0.25509928  1
  As  As2  1  0.24761694  0.23152922  0.75509928  1
  As  As3  1  0.75238306  0.76847078  0.75509928  1
  As  As4  1  0.23152922  0.24761694  0.25509928  1
  As  As5  1  0.75238306  0.23152922  0.75509928  1
  As  As6  1  0.24761694  0.76847078  0.75509928  1
  As  As7  1  0.76847078  0.75238306  0.25509928  1
loop_
_geom_bond_atom_site_label_1
_geom_bond_atom_site_label_2
_geom_bond_distance
_geom_bond_site_symmetry_2
Ge0 Ge4 2.493434 1_554
Ge0 Ge2 2.574102 1_455
Ge1 Ge6 2.493434 1_555
Ge1 Ge3 2.574102 1_565
Ge2 Ge7 2.493434 1_554
Ge3 Ge5 2.493434 1_555
Ge4 Ge7 2.603221 1_555
Ge5 Ge6 2.603221 1_555
As0 Ge2 2.428080 1_555
As0 Ge5 2.428948 1_555
As0 Ba2 3.414807 1_655
As0 Ba3 3.481407 1_654
As0 Ba1 3.510693 1_555
As0 Ba0 3.577851 1_655
As1 Ge0 2.428080 1_555
As1 Ge6 2.428948 1_555
As1 Ba2 3.414807 1_565
As1 Ba3 3.481407 1_564
As1 Ba1 3.510693 1_565
As1 Ba0 3.577851 1_555
As2 Ge3 2.428080 1_555
As2 Ge4 2.428948 1_555
As2 Ba3 3.414807 1_555
As2 Ba2 3.481407 1_555
As2 Ba0 3.510693 1_555
As2 Ba1 3.577851 1_556
As3 Ge1 2.428080 1_555
As3 Ge7 2.428948 1_555
As3 Ba3 3.414807 1_665
As3 Ba2 3.481407 1_665
As3 Ba0 3.510693 1_655
As3 Ba1 3.577851 1_566
As4 Ge0 2.428080 1_555
As4 Ge5 2.428948 1_555
As4 Ba2 3.414807 1_555
As4 Ba3 3.481407 1_554
As4 Ba1 3.510693 1_555
As4 Ba0 3.577851 1_555
As5 Ge3 2.428080 1_555
As5 Ge7 2.428948 1_555
As5 Ba3 3.414807 1_655
As5 Ba2 3.481407 1_655
As5 Ba0 3.510693 1_655
As5 Ba1 3.577851 1_556
As6 Ge1 2.428080 1_555
As6 Ge4 2.428948 1_555
As6 Ba3 3.414807 1_565
As6 Ba2 3.481407 1_565
As6 Ba0 3.510693 1_555
As6 Ba1 3.577851 1_566
As7 Ge2 2.428080 1_555
As7 Ge6 2.428948 1_555
As7 Ba2 3.414807 1_665
As7 Ba3 3.481407 1_664
As7 Ba1 3.510693 1_565
As7 Ba0 3.577851 1_655
