# generated using pymatgen
data_Na6CaHf3Si4(SO12)2
_symmetry_space_group_name_H-M   'P 1'
_cell_length_a   9.22394471
_cell_length_b   9.20662562
_cell_length_c   22.94856383
_cell_angle_alpha   90.12315715
_cell_angle_beta   89.99100443
_cell_angle_gamma   120.00345150
_symmetry_Int_Tables_number   1
_chemical_formula_structural   Na6CaHf3Si4(SO12)2
_chemical_formula_sum   'Na18 Ca3 Hf9 Si12 S6 O72'
_cell_volume   1687.66780282
_cell_formula_units_Z   3
loop_
 _symmetry_equiv_pos_site_id
 _symmetry_equiv_pos_as_xyz
  1  'x, y, z'
loop_
 _atom_site_type_symbol
 _atom_site_label
 _atom_site_symmetry_multiplicity
 _atom_site_fract_x
 _atom_site_fract_y
 _atom_site_fract_z
 _atom_site_occupancy
  Na  Na0  1  0.99247644  0.34927715  0.75840313  1
  Na  Na1  1  0.39662969  0.01908331  0.74960240  1
  Na  Na2  1  0.33512694  0.33945464  0.58615113  1
  Na  Na3  1  0.02456509  0.70411397  0.57061448  1
  Na  Na4  1  0.65102626  0.96843477  0.59186065  1
  Na  Na5  1  0.32794666  0.98545183  0.08320389  1
  Na  Na6  1  0.65310092  0.66978395  0.08709591  1
  Na  Na7  1  0.01958924  0.34335018  0.08451171  1
  Na  Na8  1  0.32789667  0.29362843  0.92568857  1
  Na  Na9  1  0.96661307  0.29011471  0.41119721  1
  Na  Na10  1  0.32042303  0.02791699  0.41445204  1
  Na  Na11  1  0.71071544  0.68060409  0.41529028  1
  Na  Na12  1  0.00017308  0.99464040  0.49155392  1
  Na  Na13  1  0.00010182  0.99282715  0.99872428  1
  Na  Na14  1  0.65973155  0.31235201  0.83509581  1
  Na  Na15  1  0.66893175  0.33368784  0.32677215  1
  Na  Na16  1  0.33512656  0.66629097  0.16443598  1
  Na  Na17  1  0.38302715  0.67338009  0.67130238  1
  Ca  Ca0  1  -0.00007662  0.99846383  0.35000806  1
  Ca  Ca1  1  0.65574242  0.33423955  0.68781841  1
  Ca  Ca2  1  0.66522760  0.32964217  0.17959109  1
  Hf  Hf0  1  0.00223962  0.01445915  0.85547242  1
  Hf  Hf1  1  0.99717602  0.00144092  0.64937688  1
  Hf  Hf2  1  0.00195652  0.00038505  0.14580870  1
  Hf  Hf3  1  0.67288192  0.32159182  0.98294481  1
  Hf  Hf4  1  0.65419563  0.33708773  0.47908427  1
  Hf  Hf5  1  0.32322135  0.66962656  0.01584497  1
  Hf  Hf6  1  0.34137804  0.67512860  0.51625875  1
  Hf  Hf7  1  0.33227085  0.66715513  0.31748919  1
  Hf  Hf8  1  0.33710344  0.67258465  0.81496844  1
  Si  Si0  1  0.29002450  0.29944706  0.75165146  1
  Si  Si1  1  0.70447334  0.99127726  0.75091154  1
  Si  Si2  1  0.36591441  0.03128604  0.58542662  1
  Si  Si3  1  0.66755396  0.63649524  0.58189207  1
  Si  Si4  1  0.96035384  0.62543566  0.08299544  1
  Si  Si5  1  0.66148735  0.02872257  0.08406150  1
  Si  Si6  1  0.37187929  0.33752712  0.08066421  1
  Si  Si7  1  0.03259847  0.37771613  0.91385988  1
  Si  Si8  1  0.33657066  0.96814846  0.91485329  1
  Si  Si9  1  0.62166015  0.96569407  0.41683476  1
  Si  Si10  1  0.33788086  0.37951526  0.41827589  1
  Si  Si11  1  0.03521409  0.65396864  0.41826109  1
  S  S0  1  0.29795903  0.99066070  0.25107634  1
  S  S1  1  0.69287093  0.70271104  0.25090193  1
  S  S2  1  0.01008717  0.30644088  0.25129193  1
  S  S3  1  0.00866347  0.71649202  0.75189599  1
  S  S4  1  0.96224333  0.32978937  0.58346616  1
  S  S5  1  0.62515908  0.66524031  0.91621685  1
  O  O0  1  0.21664754  -0.00471548  0.30574397  1
  O  O1  1  0.77892073  0.78443556  0.30564426  1
  O  O2  1  0.00506026  0.22010686  0.30584962  1
  O  O3  1  0.17972735  0.18335814  0.80732941  1
  O  O4  1  0.99550889  0.80232203  0.80290586  1
  O  O5  1  0.81773409  0.98858491  0.80497370  1
  O  O6  1  0.79318985  0.97891484  0.68895824  1
  O  O7  1  0.17451066  0.20018875  0.69284088  1
  O  O8  1  0.02038363  0.81513757  0.69691839  1
  O  O9  1  0.79191442  0.80884604  0.19961899  1
  O  O10  1  0.01803110  0.20818739  0.19993947  1
  O  O11  1  0.19231268  0.98403718  0.19961305  1
  O  O12  1  0.89482061  0.35983122  0.63730635  1
  O  O13  1  0.48242689  0.09292318  0.64273855  1
  O  O14  1  0.62313494  0.51193668  0.63565887  1
  O  O15  1  0.90745876  0.50137833  0.13713548  1
  O  O16  1  0.58864094  0.08414840  0.13690606  1
  O  O17  1  0.49869338  0.40116739  0.13427496  1
  O  O18  1  0.45120542  0.29217840  0.02300005  1
  O  O19  1  0.82804768  0.53841996  0.02805245  1
  O  O20  1  0.71023827  0.16375749  0.02921276  1
  O  O21  1  0.46481192  0.16018880  0.52980748  1
  O  O22  1  0.70121793  0.54959847  0.52346485  1
  O  O23  1  0.85875935  0.31131081  0.53218656  1
  O  O24  1  0.54856366  0.68586063  0.96926545  1
  O  O25  1  0.15863967  0.46838771  0.96877056  1
  O  O26  1  0.32625928  0.85985161  0.97238808  1
  O  O27  1  0.52937441  0.85361928  0.47530017  1
  O  O28  1  0.32055066  0.46711078  0.47826684  1
  O  O29  1  0.14218365  0.66979436  0.47765026  1
  O  O30  1  0.13484131  0.63325273  0.36168555  1
  O  O31  1  0.49770350  0.86772334  0.36099814  1
  O  O32  1  0.36478898  0.50326088  0.36247599  1
  O  O33  1  0.12933210  0.48730939  0.85491088  1
  O  O34  1  0.35429109  0.87233621  0.85636504  1
  O  O35  1  0.51745943  0.65083943  0.86438662  1
  O  O36  1  0.01326783  0.81758216  0.41553256  1
  O  O37  1  0.80590420  0.98566573  0.41485315  1
  O  O38  1  0.17864144  0.19235878  0.41476690  1
  O  O39  1  0.01412465  0.18793231  0.91164770  1
  O  O40  1  0.16580168  0.98511272  0.91161309  1
  O  O41  1  0.79703118  0.81028960  0.91052965  1
  O  O42  1  0.97402424  0.17325741  0.58669698  1
  O  O43  1  0.18290541  0.02491537  0.59025765  1
  O  O44  1  0.84040943  0.82220979  0.58759004  1
  O  O45  1  0.97317664  0.81167487  0.09461012  1
  O  O46  1  0.83918944  0.02621803  0.09615638  1
  O  O47  1  0.18672627  0.16131734  0.09385455  1
  O  O48  1  0.70322806  0.16682511  0.75347561  1
  O  O49  1  0.46600620  0.30343647  0.75462648  1
  O  O50  1  0.87382781  0.54507308  0.74810848  1
  O  O51  1  0.67163685  0.53441516  0.24826187  1
  O  O52  1  0.86276684  0.32736604  0.24892992  1
  O  O53  1  0.46593216  0.13747258  0.24873523  1
  O  O54  1  0.62949099  0.50568292  0.91795988  1
  O  O55  1  0.84872827  0.36066762  0.92076115  1
  O  O56  1  0.49919725  0.15985780  0.91919321  1
  O  O57  1  0.63217187  0.14762790  0.42296874  1
  O  O58  1  0.51181879  0.36955530  0.42093252  1
  O  O59  1  0.85415289  0.47943917  0.42250949  1
  O  O60  1  0.32646524  0.48668410  0.06858072  1
  O  O61  1  0.15666417  0.67468122  0.06967821  1
  O  O62  1  0.52005962  0.83418360  0.06832352  1
  O  O63  1  0.32405023  0.83559122  0.57534803  1
  O  O64  1  0.50359697  0.66587265  0.57728122  1
  O  O65  1  0.13990534  0.47661757  0.57722644  1
  O  O66  1  0.30489758  0.82949572  0.24916081  1
  O  O67  1  0.52491256  0.69541183  0.24923965  1
  O  O68  1  0.17016925  0.47523857  0.24976216  1
  O  O69  1  0.29600077  0.48226819  0.75374012  1
  O  O70  1  0.17425090  0.71623962  0.75185572  1
  O  O71  1  0.51100384  0.83007370  0.75419536  1
loop_
_geom_bond_atom_site_label_1
_geom_bond_atom_site_label_2
_geom_bond_distance
_geom_bond_site_symmetry_2
Na0 O48 2.338773 1_555
Na0 O69 2.433321 1_655
Na0 O50 2.545172 1_555
Na0 O33 2.549088 1_655
Na1 O49 2.366356 1_555
Na1 O71 2.447246 1_545
Na1 O48 2.451191 1_555
Na1 O70 2.502976 1_545
Na1 O13 2.563411 1_555
Na1 O34 2.732550 1_545
Na2 O43 2.510169 1_555
Na2 O14 2.577598 1_555
Na2 O64 2.611431 1_555
Na2 O65 2.674812 1_555
Na2 O28 2.774806 1_555
Na2 O21 2.791328 1_555
Na2 O7 2.818865 1_555
Na2 O42 2.887667 1_455
Na3 O63 2.400712 1_555
Na3 O44 2.462585 1_455
Na3 O29 2.483433 1_555
Na3 O43 2.596125 1_565
Na3 O65 2.787769 1_555
Na3 O22 2.800192 1_455
Na4 O64 2.434819 1_555
Na4 O6 2.562693 1_555
Na4 O42 2.613124 1_565
Na4 O13 2.621367 1_565
Na4 O63 2.654245 1_555
Na4 O44 2.687898 1_555
Na4 O27 2.886884 1_555
Na5 O16 2.436715 1_565
Na5 O61 2.500827 1_555
Na5 O47 2.546687 1_565
Na5 O62 2.768059 1_555
Na5 O26 2.788179 1_554
Na5 O18 2.825112 1_565
Na5 O45 2.846431 1_455
Na5 O11 2.946978 1_555
Na6 O17 2.409379 1_555
Na6 O62 2.417223 1_555
Na6 O45 2.568014 1_555
Na6 O60 2.649059 1_555
Na6 O19 2.801206 1_555
Na6 O46 2.849913 1_565
Na6 O9 2.879919 1_555
Na6 O24 2.899790 1_554
Na7 O15 2.478284 1_455
Na7 O60 2.480610 1_555
Na7 O46 2.551343 1_455
Na7 O61 2.677076 1_555
Na7 O20 2.785685 1_455
Na7 O47 2.795884 1_555
Na7 O25 2.925835 1_554
Na7 O10 2.926033 1_555
Na8 O56 2.445593 1_555
Na8 O54 2.480228 1_555
Na8 O40 2.481245 1_545
Na8 O18 2.509373 1_556
Na8 O39 2.570898 1_555
Na8 O25 2.916919 1_555
Na8 O3 2.979565 1_555
Na9 O37 2.430331 1_545
Na9 O59 2.447016 1_555
Na9 O38 2.530286 1_655
Na9 O2 2.570505 1_655
Na9 O57 2.695237 1_555
Na9 O30 2.965009 1_655
Na9 O23 2.987954 1_555
Na10 O38 2.445914 1_555
Na10 O36 2.508126 1_545
Na10 O57 2.520195 1_555
Na10 O0 2.634377 1_555
Na10 O58 2.734340 1_555
Na10 O21 2.937661 1_555
Na10 O31 2.959297 1_545
Na11 O36 2.420492 1_655
Na11 O37 2.488585 1_555
Na11 O58 2.516063 1_555
Na11 O1 2.655061 1_555
Na11 O22 2.744466 1_555
Na11 O59 2.767677 1_555
Na12 O36 2.428998 1_555
Na12 O38 2.478840 1_565
Na12 O37 2.483610 1_455
Na12 O44 2.687620 1_455
Na12 O43 2.752816 1_565
Na12 O42 2.812600 1_465
Na13 O40 2.538577 1_555
Na13 O39 2.649415 1_565
Na13 O41 2.695834 1_455
Na13 O45 2.699359 1_456
Na13 O47 2.729752 1_566
Na13 O46 2.783738 1_466
Na14 O56 2.412452 1_555
Na14 O48 2.447656 1_555
Na14 O55 2.514652 1_555
Na14 O49 2.542366 1_555
Na14 O54 2.709961 1_555
Na14 O50 2.874194 1_555
Na15 O52 2.548292 1_555
Na15 O53 2.565306 1_555
Na15 O51 2.574899 1_555
Na15 O59 2.691129 1_555
Na15 O58 2.711648 1_555
Na15 O57 2.712527 1_555
Na16 O67 2.540320 1_555
Na16 O66 2.553836 1_555
Na16 O68 2.565247 1_555
Na16 O60 2.726141 1_555
Na16 O62 2.745980 1_555
Na16 O61 2.751982 1_555
Na17 O71 2.319278 1_555
Na17 O69 2.433208 1_555
Na17 O64 2.443879 1_555
Na17 O70 2.834986 1_555
Na17 O63 2.863934 1_555
Na17 O65 2.982173 1_555
Ca0 O1 2.247129 1_455
Ca0 O0 2.255363 1_565
Ca0 O2 2.259498 1_565
Ca0 O38 2.271349 1_565
Ca0 O37 2.284755 1_455
Ca0 O36 2.294630 1_555
Ca1 O14 2.168028 1_555
Ca1 O49 2.235740 1_555
Ca1 O13 2.236166 1_555
Ca1 O48 2.350138 1_555
Ca1 O12 2.396465 1_555
Ca1 O50 2.410980 1_555
Ca2 O17 2.211289 1_555
Ca2 O15 2.216806 1_555
Ca2 O16 2.227291 1_555
Ca2 O53 2.405359 1_555
Ca2 O52 2.427282 1_555
Ca2 O51 2.432482 1_555
Hf0 O3 1.944130 1_555
Hf0 O5 1.972326 1_445
Hf0 O39 2.010157 1_555
Hf0 O40 2.102081 1_545
Hf0 O4 2.267637 1_445
Hf0 O41 2.272363 1_445
Hf1 O7 2.004480 1_655
Hf1 O6 2.004584 1_545
Hf1 O44 2.104416 1_545
Hf1 O43 2.110095 1_655
Hf1 O8 2.133882 1_645
Hf1 O42 2.228140 1_555
Hf2 O46 1.991931 1_455
Hf2 O45 1.999876 1_445
Hf2 O47 2.000740 1_555
Hf2 O11 2.212679 1_545
Hf2 O10 2.220681 1_555
Hf2 O9 2.231574 1_445
Hf3 O20 1.966007 1_556
Hf3 O55 2.052948 1_555
Hf3 O19 2.058930 1_556
Hf3 O56 2.128331 1_555
Hf3 O18 2.132116 1_556
Hf3 O54 2.438484 1_555
Hf4 O58 1.997448 1_555
Hf4 O22 2.048465 1_555
Hf4 O21 2.054547 1_555
Hf4 O57 2.092415 1_555
Hf4 O59 2.096211 1_555
Hf4 O23 2.356161 1_555
Hf5 O61 1.989796 1_555
Hf5 O26 2.005223 1_554
Hf5 O25 2.020704 1_554
Hf5 O62 2.069777 1_555
Hf5 O60 2.088417 1_555
Hf5 O24 2.274775 1_554
Hf6 O27 1.935755 1_555
Hf6 O29 2.018264 1_555
Hf6 O28 2.022309 1_555
Hf6 O63 2.067428 1_555
Hf6 O64 2.082288 1_555
Hf6 O65 2.316182 1_555
Hf7 O30 1.968440 1_555
Hf7 O32 1.972823 1_555
Hf7 O31 1.977303 1_555
Hf7 O68 2.262747 1_555
Hf7 O66 2.268031 1_555
Hf7 O67 2.284020 1_555
Hf8 O34 2.002656 1_555
Hf8 O33 2.039476 1_555
Hf8 O71 2.074207 1_555
Hf8 O35 2.104378 1_555
Hf8 O69 2.124470 1_555
Hf8 O70 2.263329 1_555
O0 S0 1.472962 1_545
O1 S1 1.474204 1_555
O2 S2 1.472713 1_555
O3 Si0 1.651648 1_555
O4 S3 1.449596 1_655
O5 Si1 1.630240 1_555
O6 Si1 1.672132 1_555
O7 Si0 1.677260 1_555
O8 S3 1.528061 1_555
O9 S1 1.512041 1_555
O10 S2 1.508012 1_555
O11 S0 1.512853 1_555
O12 S4 1.469753 1_555
O13 Si2 1.610634 1_555
O14 Si3 1.594177 1_555
O15 Si4 1.592104 1_555
O16 Si5 1.588249 1_555
O17 Si6 1.592824 1_555
O18 Si6 1.662435 1_555
O19 Si4 1.655074 1_555
O20 Si5 1.667203 1_555
O21 Si2 1.671269 1_555
O22 Si3 1.666723 1_555
O23 S4 1.470374 1_555
O24 S5 1.466326 1_555
O25 Si7 1.631477 1_555
O26 Si8 1.630102 1_555
O27 Si9 1.648211 1_555
O28 Si10 1.641748 1_555
O29 Si11 1.645615 1_555
O30 Si11 1.655402 1_555
O31 Si9 1.651320 1_555
O32 Si10 1.650056 1_555
O33 Si7 1.658118 1_555
O34 Si8 1.656933 1_555
O35 S5 1.512337 1_555
O36 Si11 1.618423 1_555
O37 Si9 1.616022 1_555
O38 Si10 1.612823 1_555
O39 Si7 1.669256 1_555
O40 Si8 1.660479 1_555
O41 S5 1.482243 1_555
O42 S4 1.500415 1_555
O43 Si2 1.663203 1_555
O44 Si3 1.659928 1_555
O45 Si4 1.679353 1_555
O46 Si5 1.673988 1_555
O47 Si6 1.694471 1_555
O48 Si1 1.622919 1_545
O49 Si0 1.606653 1_555
O50 S3 1.442736 1_655
O51 S1 1.462491 1_555
O52 S2 1.465768 1_655
O53 S0 1.461592 1_545
O54 S5 1.489990 1_555
O55 Si7 1.630937 1_655
O56 Si8 1.651279 1_545
O57 Si9 1.634441 1_545
O58 Si10 1.653298 1_555
O59 Si11 1.642380 1_655
O60 Si6 1.647760 1_555
O61 Si4 1.660469 1_455
O62 Si5 1.643390 1_565
O63 Si2 1.658653 1_565
O64 Si3 1.667556 1_555
O65 S4 1.522700 1_455
O66 S0 1.517346 1_555
O67 S1 1.517234 1_555
O68 S2 1.517206 1_555
O69 Si0 1.656878 1_555
O70 S3 1.528533 1_555
O71 Si1 1.656688 1_555
