# generated using pymatgen
data_MgCu2GeS4
_symmetry_space_group_name_H-M   'P 1'
_cell_length_a   5.75678969
_cell_length_b   5.75678980
_cell_length_c   6.41822169
_cell_angle_alpha   115.96158530
_cell_angle_beta   115.96158924
_cell_angle_gamma   91.35736730
_symmetry_Int_Tables_number   1
_chemical_formula_structural   MgCu2GeS4
_chemical_formula_sum   'Mg1 Cu2 Ge1 S4'
_cell_volume   165.72856452
_cell_formula_units_Z   1
loop_
 _symmetry_equiv_pos_site_id
 _symmetry_equiv_pos_as_xyz
  1  'x, y, z'
loop_
 _atom_site_type_symbol
 _atom_site_label
 _atom_site_symmetry_multiplicity
 _atom_site_fract_x
 _atom_site_fract_y
 _atom_site_fract_z
 _atom_site_occupancy
  Mg  Mg0  1  0.82110800  0.82110800  0.64164200  1
  Cu  Cu0  1  0.73948700  0.23958800  0.47967300  1
  Cu  Cu1  1  0.23958800  0.73948700  0.47967300  1
  Ge  Ge0  1  0.49887600  0.49887600  0.99932900  1
  S  S0  1  0.85524800  0.85524800  0.25856400  1
  S  S1  1  0.56383800  0.14267900  0.70706100  1
  S  S2  1  0.40167700  0.40167600  0.25824900  1
  S  S3  1  0.14267900  0.56383800  0.70706100  1
loop_
_geom_bond_atom_site_label_1
_geom_bond_atom_site_label_2
_geom_bond_distance
_geom_bond_site_symmetry_2
Mg0 S3 2.406371 1_655
Mg0 S1 2.406371 1_565
Mg0 S0 2.639448 1_555
Mg0 S2 2.652379 1_555
Cu0 S1 2.332772 1_555
Cu0 S3 2.333551 1_655
Cu0 S2 2.345099 1_555
Cu0 S0 2.345684 1_545
Cu1 S3 2.332772 1_555
Cu1 S1 2.333551 1_565
Cu1 S2 2.345106 1_555
Cu1 S0 2.345683 1_455
Ge0 S2 2.236348 1_556
Ge0 S0 2.238196 1_556
Ge0 S3 2.268516 1_555
Ge0 S1 2.268516 1_555
