# generated using pymatgen
data_MgTi2Zn2O6
_symmetry_space_group_name_H-M   'P 1'
_cell_length_a   5.78247844
_cell_length_b   5.78247837
_cell_length_c   5.78247880
_cell_angle_alpha   54.53796751
_cell_angle_beta   54.53796535
_cell_angle_gamma   54.53796494
_symmetry_Int_Tables_number   1
_chemical_formula_structural   MgTi2Zn2O6
_chemical_formula_sum   'Mg1 Ti2 Zn2 O6'
_cell_volume   119.31145336
_cell_formula_units_Z   1
loop_
 _symmetry_equiv_pos_site_id
 _symmetry_equiv_pos_as_xyz
  1  'x, y, z'
loop_
 _atom_site_type_symbol
 _atom_site_label
 _atom_site_symmetry_multiplicity
 _atom_site_fract_x
 _atom_site_fract_y
 _atom_site_fract_z
 _atom_site_occupancy
  Mg  Mg0  1  0.20143986  0.20143986  0.20143986  1
  Ti  Ti0  1  0.01222471  0.01222471  0.01222471  1
  Ti  Ti1  1  0.84946237  0.84946237  0.84946237  1
  Zn  Zn0  1  0.42737233  0.42737233  0.42737233  1
  Zn  Zn1  1  0.65389837  0.65389837  0.65389837  1
  O  O0  1  0.80577572  0.42876404  0.07048257  1
  O  O1  1  0.42876404  0.07048257  0.80577572  1
  O  O2  1  0.07048257  0.80577572  0.42876404  1
  O  O3  1  0.24044467  0.61930108  0.94083426  1
  O  O4  1  0.94083426  0.24044467  0.61930109  1
  O  O5  1  0.61930108  0.94083426  0.24044467  1
loop_
_geom_bond_atom_site_label_1
_geom_bond_atom_site_label_2
_geom_bond_distance
_geom_bond_site_symmetry_2
Mg0 O5 2.042825 1_545
Mg0 O3 2.042825 1_554
Mg0 O4 2.042826 1_455
Mg0 O2 2.213953 1_545
Mg0 O0 2.213954 1_455
Mg0 O1 2.213954 1_554
O0 Zn0 1.951498 1_555
O0 Ti1 2.084717 1_554
O0 Ti0 2.116266 1_655
O0 Zn1 2.399619 1_554
O1 Zn0 1.951498 1_555
O1 Ti1 2.084717 1_545
O1 Ti0 2.116266 1_556
O1 Zn1 2.399619 1_545
O2 Zn0 1.951498 1_555
O2 Ti1 2.084717 1_455
O2 Ti0 2.116266 1_565
O2 Zn1 2.399619 1_455
O3 Ti0 2.012796 1_566
O3 Zn1 2.018881 1_555
O3 Ti1 2.059277 1_455
O4 Ti0 2.012796 1_656
O4 Zn1 2.018881 1_555
O4 Ti1 2.059277 1_545
O5 Ti0 2.012796 1_665
O5 Zn1 2.018881 1_555
O5 Ti1 2.059277 1_554
