# generated using pymatgen
data_Cr2GaC
_symmetry_space_group_name_H-M   'P 1'
_cell_length_a   5.68689914
_cell_length_b   5.68690327
_cell_length_c   24.84225930
_cell_angle_alpha   90.00000000
_cell_angle_beta   90.00000000
_cell_angle_gamma   120.00001145
_symmetry_Int_Tables_number   1
_chemical_formula_structural   Cr2GaC
_chemical_formula_sum   'Cr32 Ga16 C16'
_cell_volume   695.78175943
_cell_formula_units_Z   16
loop_
 _symmetry_equiv_pos_site_id
 _symmetry_equiv_pos_as_xyz
  1  'x, y, z'
loop_
 _atom_site_type_symbol
 _atom_site_label
 _atom_site_symmetry_multiplicity
 _atom_site_fract_x
 _atom_site_fract_y
 _atom_site_fract_z
 _atom_site_occupancy
  Cr  Cr0_0  1  0.16666650  0.33333350  0.04277457  1
  Cr  Cr0_1  1  0.16666650  0.33333350  0.54277457  1
  Cr  Cr0_2  1  0.16666650  0.83333350  0.04277457  1
  Cr  Cr0_3  1  0.16666650  0.83333350  0.54277457  1
  Cr  Cr0_4  1  0.66666650  0.33333350  0.04277457  1
  Cr  Cr0_5  1  0.66666650  0.33333350  0.54277457  1
  Cr  Cr0_6  1  0.66666650  0.83333350  0.04277457  1
  Cr  Cr0_7  1  0.66666650  0.83333350  0.54277457  1
  Cr  Cr1_0  1  0.33333350  0.16666650  0.29277456  1
  Cr  Cr1_1  1  0.33333350  0.16666650  0.79277457  1
  Cr  Cr1_2  1  0.33333350  0.66666650  0.29277456  1
  Cr  Cr1_3  1  0.33333350  0.66666650  0.79277457  1
  Cr  Cr1_4  1  0.83333350  0.16666650  0.29277456  1
  Cr  Cr1_5  1  0.83333350  0.16666650  0.79277457  1
  Cr  Cr1_6  1  0.83333350  0.66666650  0.29277456  1
  Cr  Cr1_7  1  0.83333350  0.66666650  0.79277457  1
  Cr  Cr2_0  1  0.33333350  0.16666650  0.45722544  1
  Cr  Cr2_1  1  0.33333350  0.16666650  0.95722544  1
  Cr  Cr2_2  1  0.33333350  0.66666650  0.45722544  1
  Cr  Cr2_3  1  0.33333350  0.66666650  0.95722544  1
  Cr  Cr2_4  1  0.83333350  0.16666650  0.45722544  1
  Cr  Cr2_5  1  0.83333350  0.16666650  0.95722544  1
  Cr  Cr2_6  1  0.83333350  0.66666650  0.45722544  1
  Cr  Cr2_7  1  0.83333350  0.66666650  0.95722544  1
  Cr  Cr3_0  1  0.16666650  0.33333350  0.20722544  1
  Cr  Cr3_1  1  0.16666650  0.33333350  0.70722544  1
  Cr  Cr3_2  1  0.16666650  0.83333350  0.20722544  1
  Cr  Cr3_3  1  0.16666650  0.83333350  0.70722544  1
  Cr  Cr3_4  1  0.66666650  0.33333350  0.20722544  1
  Cr  Cr3_5  1  0.66666650  0.33333350  0.70722544  1
  Cr  Cr3_6  1  0.66666650  0.83333350  0.20722544  1
  Cr  Cr3_7  1  0.66666650  0.83333350  0.70722544  1
  Ga  Ga0_0  1  0.16666650  0.33333350  0.37500000  1
  Ga  Ga0_1  1  0.16666650  0.33333350  0.87500000  1
  Ga  Ga0_2  1  0.16666650  0.83333350  0.37500000  1
  Ga  Ga0_3  1  0.16666650  0.83333350  0.87500000  1
  Ga  Ga0_4  1  0.66666650  0.33333350  0.37500000  1
  Ga  Ga0_5  1  0.66666650  0.33333350  0.87500000  1
  Ga  Ga0_6  1  0.66666650  0.83333350  0.37500000  1
  Ga  Ga0_7  1  0.66666650  0.83333350  0.87500000  1
  Ga  Ga1_0  1  0.33333350  0.16666650  0.12500000  1
  Ga  Ga1_1  1  0.33333350  0.16666650  0.62500000  1
  Ga  Ga1_2  1  0.33333350  0.66666650  0.12500000  1
  Ga  Ga1_3  1  0.33333350  0.66666650  0.62500000  1
  Ga  Ga1_4  1  0.83333350  0.16666650  0.12500000  1
  Ga  Ga1_5  1  0.83333350  0.16666650  0.62500000  1
  Ga  Ga1_6  1  0.83333350  0.66666650  0.12500000  1
  Ga  Ga1_7  1  0.83333350  0.66666650  0.62500000  1
  C  C0_0  1  0.00000000  0.00000000  0.25000000  1
  C  C0_1  1  0.00000000  0.00000000  0.75000000  1
  C  C0_2  1  0.00000000  0.50000000  0.25000000  1
  C  C0_3  1  0.00000000  0.50000000  0.75000000  1
  C  C0_4  1  0.50000000  0.00000000  0.25000000  1
  C  C0_5  1  0.50000000  0.00000000  0.75000000  1
  C  C0_6  1  0.50000000  0.50000000  0.25000000  1
  C  C0_7  1  0.50000000  0.50000000  0.75000000  1
  C  C1_0  1  0.00000000  0.00000000  0.00000000  1
  C  C1_1  1  0.00000000  0.00000000  0.50000000  1
  C  C1_2  1  0.00000000  0.50000000  0.00000000  1
  C  C1_3  1  0.00000000  0.50000000  0.50000000  1
  C  C1_4  1  0.50000000  0.00000000  0.00000000  1
  C  C1_5  1  0.50000000  0.00000000  0.50000000  1
  C  C1_6  1  0.50000000  0.50000000  0.00000000  1
  C  C1_7  1  0.50000000  0.50000000  0.50000000  1
loop_
_geom_bond_atom_site_label_1
_geom_bond_atom_site_label_2
_geom_bond_distance
_geom_bond_site_symmetry_2
Cr0_0 Ga1_4 2.620600 1_455
Cr0_0 Ga1_2 2.620601 1_555
Cr0_0 Ga1_0 2.620604 1_555
Cr0_1 Ga1_5 2.620600 1_455
Cr0_1 Ga1_3 2.620601 1_555
Cr0_1 Ga1_1 2.620604 1_555
Cr0_2 Ga1_6 2.620600 1_455
Cr0_2 Ga1_0 2.620601 1_565
Cr0_2 Ga1_2 2.620604 1_555
Cr0_3 Ga1_7 2.620600 1_455
Cr0_3 Ga1_1 2.620601 1_565
Cr0_3 Ga1_3 2.620604 1_555
Cr0_4 Ga1_0 2.620600 1_555
Cr0_4 Ga1_6 2.620601 1_555
Cr0_4 Ga1_4 2.620604 1_555
Cr0_5 Ga1_1 2.620600 1_555
Cr0_5 Ga1_7 2.620601 1_555
Cr0_5 Ga1_5 2.620604 1_555
Cr0_6 Ga1_2 2.620600 1_555
Cr0_6 Ga1_4 2.620601 1_565
Cr0_6 Ga1_6 2.620604 1_555
Cr0_7 Ga1_3 2.620600 1_555
Cr0_7 Ga1_5 2.620601 1_565
Cr0_7 Ga1_7 2.620604 1_555
Cr1_0 Ga0_4 2.620600 1_555
Cr1_0 Ga0_2 2.620601 1_545
Cr1_0 Ga0_0 2.620604 1_555
Cr1_1 Ga0_5 2.620600 1_555
Cr1_1 Ga0_3 2.620601 1_545
Cr1_1 Ga0_1 2.620604 1_555
Cr1_2 Ga0_6 2.620600 1_555
Cr1_2 Ga0_0 2.620601 1_555
Cr1_2 Ga0_2 2.620604 1_555
Cr1_3 Ga0_7 2.620600 1_555
Cr1_3 Ga0_1 2.620601 1_555
Cr1_3 Ga0_3 2.620604 1_555
Cr1_4 Ga0_0 2.620600 1_655
Cr1_4 Ga0_6 2.620601 1_545
Cr1_4 Ga0_4 2.620604 1_555
Cr1_5 Ga0_1 2.620600 1_655
Cr1_5 Ga0_7 2.620601 1_545
Cr1_5 Ga0_5 2.620604 1_555
Cr1_6 Ga0_2 2.620600 1_655
Cr1_6 Ga0_4 2.620601 1_555
Cr1_6 Ga0_6 2.620604 1_555
Cr1_7 Ga0_3 2.620600 1_655
Cr1_7 Ga0_5 2.620601 1_555
Cr1_7 Ga0_7 2.620604 1_555
Cr2_0 Ga0_4 2.620600 1_555
Cr2_0 Ga0_2 2.620601 1_545
Cr2_0 Ga0_0 2.620604 1_555
Cr2_1 Ga0_5 2.620600 1_555
Cr2_1 Ga0_3 2.620601 1_545
Cr2_1 Ga0_1 2.620604 1_555
Cr2_2 Ga0_6 2.620600 1_555
Cr2_2 Ga0_0 2.620601 1_555
Cr2_2 Ga0_2 2.620604 1_555
Cr2_3 Ga0_7 2.620600 1_555
Cr2_3 Ga0_1 2.620601 1_555
Cr2_3 Ga0_3 2.620604 1_555
Cr2_4 Ga0_0 2.620600 1_655
Cr2_4 Ga0_6 2.620601 1_545
Cr2_4 Ga0_4 2.620604 1_555
Cr2_5 Ga0_1 2.620600 1_655
Cr2_5 Ga0_7 2.620601 1_545
Cr2_5 Ga0_5 2.620604 1_555
Cr2_6 Ga0_2 2.620600 1_655
Cr2_6 Ga0_4 2.620601 1_555
Cr2_6 Ga0_6 2.620604 1_555
Cr2_7 Ga0_3 2.620600 1_655
Cr2_7 Ga0_5 2.620601 1_555
Cr2_7 Ga0_7 2.620604 1_555
Cr3_0 Ga1_4 2.620600 1_455
Cr3_0 Ga1_2 2.620601 1_555
Cr3_0 Ga1_0 2.620604 1_555
Cr3_1 Ga1_5 2.620600 1_455
Cr3_1 Ga1_3 2.620601 1_555
Cr3_1 Ga1_1 2.620604 1_555
Cr3_2 Ga1_6 2.620600 1_455
Cr3_2 Ga1_0 2.620601 1_565
Cr3_2 Ga1_2 2.620604 1_555
Cr3_3 Ga1_7 2.620600 1_455
Cr3_3 Ga1_1 2.620601 1_565
Cr3_3 Ga1_3 2.620604 1_555
Cr3_4 Ga1_0 2.620600 1_555
Cr3_4 Ga1_6 2.620601 1_555
Cr3_4 Ga1_4 2.620604 1_555
Cr3_5 Ga1_1 2.620600 1_555
Cr3_5 Ga1_7 2.620601 1_555
Cr3_5 Ga1_5 2.620604 1_555
Cr3_6 Ga1_2 2.620600 1_555
Cr3_6 Ga1_4 2.620601 1_565
Cr3_6 Ga1_6 2.620604 1_555
Cr3_7 Ga1_3 2.620600 1_555
Cr3_7 Ga1_5 2.620601 1_565
Cr3_7 Ga1_7 2.620604 1_555
Ga0_0 Ga0_4 2.843450 1_455
Ga0_0 Ga0_4 2.843450 1_555
Ga0_0 Ga0_6 2.843450 1_445
Ga0_0 Ga0_6 2.843450 1_555
Ga0_0 Ga0_2 2.843452 1_545
Ga0_0 Ga0_2 2.843452 1_555
Ga0_1 Ga0_5 2.843450 1_455
Ga0_1 Ga0_5 2.843450 1_555
Ga0_1 Ga0_7 2.843450 1_445
Ga0_1 Ga0_7 2.843450 1_555
Ga0_1 Ga0_3 2.843452 1_545
Ga0_1 Ga0_3 2.843452 1_555
Ga0_2 Ga0_6 2.843450 1_555
Ga0_2 Ga0_6 2.843450 1_455
Ga0_2 Ga0_4 2.843450 1_565
Ga0_2 Ga0_4 2.843450 1_455
Ga0_3 Ga0_7 2.843450 1_455
Ga0_3 Ga0_7 2.843450 1_555
Ga0_3 Ga0_5 2.843450 1_565
Ga0_3 Ga0_5 2.843450 1_455
Ga0_4 Ga0_6 2.843452 1_545
Ga0_4 Ga0_6 2.843452 1_555
Ga0_5 Ga0_7 2.843452 1_545
Ga0_5 Ga0_7 2.843452 1_555
Ga1_0 Ga1_4 2.843450 1_555
Ga1_0 Ga1_4 2.843450 1_455
Ga1_0 Ga1_6 2.843450 1_555
Ga1_0 Ga1_6 2.843450 1_445
Ga1_0 Ga1_2 2.843452 1_545
Ga1_0 Ga1_2 2.843452 1_555
Ga1_1 Ga1_5 2.843450 1_455
Ga1_1 Ga1_5 2.843450 1_555
Ga1_1 Ga1_7 2.843450 1_555
Ga1_1 Ga1_7 2.843450 1_445
Ga1_1 Ga1_3 2.843452 1_545
Ga1_1 Ga1_3 2.843452 1_555
Ga1_2 Ga1_6 2.843450 1_555
Ga1_2 Ga1_6 2.843450 1_455
Ga1_2 Ga1_4 2.843450 1_455
Ga1_2 Ga1_4 2.843450 1_565
Ga1_3 Ga1_7 2.843450 1_555
Ga1_3 Ga1_7 2.843450 1_455
Ga1_3 Ga1_5 2.843450 1_455
Ga1_3 Ga1_5 2.843450 1_565
Ga1_4 Ga1_6 2.843452 1_545
Ga1_4 Ga1_6 2.843452 1_555
Ga1_5 Ga1_7 2.843452 1_555
Ga1_5 Ga1_7 2.843452 1_545
C0_0 Cr3_2 1.955561 1_545
C0_0 Cr1_4 1.955561 1_455
C0_0 Cr3_6 1.955563 1_445
C0_0 Cr1_0 1.955563 1_555
C0_0 Cr3_0 1.955564 1_555
C0_0 Cr1_6 1.955564 1_445
C0_1 Cr3_3 1.955561 1_545
C0_1 Cr1_5 1.955561 1_455
C0_1 Cr1_1 1.955563 1_555
C0_1 Cr3_7 1.955563 1_445
C0_1 Cr3_1 1.955564 1_555
C0_1 Cr1_7 1.955564 1_445
C0_2 Cr3_0 1.955561 1_555
C0_2 Cr1_6 1.955561 1_455
C0_2 Cr3_4 1.955563 1_455
C0_2 Cr1_2 1.955563 1_555
C0_2 Cr1_4 1.955564 1_455
C0_2 Cr3_2 1.955564 1_555
C0_3 Cr3_1 1.955561 1_555
C0_3 Cr1_7 1.955561 1_455
C0_3 Cr1_3 1.955563 1_555
C0_3 Cr3_5 1.955563 1_455
C0_3 Cr1_5 1.955564 1_455
C0_3 Cr3_3 1.955564 1_555
C0_4 Cr3_6 1.955561 1_545
C0_4 Cr1_0 1.955561 1_555
C0_4 Cr3_2 1.955563 1_545
C0_4 Cr1_4 1.955563 1_555
C0_4 Cr3_4 1.955564 1_555
C0_4 Cr1_2 1.955564 1_545
C0_5 Cr3_7 1.955561 1_545
C0_5 Cr1_1 1.955561 1_555
C0_5 Cr1_5 1.955563 1_555
C0_5 Cr3_3 1.955563 1_545
C0_5 Cr3_5 1.955564 1_555
C0_5 Cr1_3 1.955564 1_545
C0_6 Cr3_4 1.955561 1_555
C0_6 Cr1_2 1.955561 1_555
C0_6 Cr1_6 1.955563 1_555
C0_6 Cr3_0 1.955563 1_555
C0_6 Cr1_0 1.955564 1_555
C0_6 Cr3_6 1.955564 1_555
C0_7 Cr1_3 1.955561 1_555
C0_7 Cr3_5 1.955561 1_555
C0_7 Cr1_7 1.955563 1_555
C0_7 Cr3_1 1.955563 1_555
C0_7 Cr1_1 1.955564 1_555
C0_7 Cr3_7 1.955564 1_555
C1_0 Cr0_2 1.955561 1_545
C1_0 Cr2_5 1.955561 1_454
C1_0 Cr2_1 1.955563 1_554
C1_0 Cr0_6 1.955563 1_445
C1_0 Cr0_0 1.955564 1_555
C1_0 Cr2_7 1.955564 1_444
C1_1 Cr2_4 1.955561 1_455
C1_1 Cr0_3 1.955561 1_545
C1_1 Cr2_0 1.955563 1_555
C1_1 Cr0_7 1.955563 1_445
C1_1 Cr2_6 1.955564 1_445
C1_1 Cr0_1 1.955564 1_555
C1_2 Cr2_7 1.955561 1_454
C1_2 Cr0_0 1.955561 1_555
C1_2 Cr2_3 1.955563 1_554
C1_2 Cr0_4 1.955563 1_455
C1_2 Cr2_5 1.955564 1_454
C1_2 Cr0_2 1.955564 1_555
C1_3 Cr2_6 1.955561 1_455
C1_3 Cr0_1 1.955561 1_555
C1_3 Cr2_2 1.955563 1_555
C1_3 Cr0_5 1.955563 1_455
C1_3 Cr2_4 1.955564 1_455
C1_3 Cr0_3 1.955564 1_555
C1_4 Cr0_6 1.955561 1_545
C1_4 Cr2_1 1.955561 1_554
C1_4 Cr2_5 1.955563 1_554
C1_4 Cr0_2 1.955563 1_545
C1_4 Cr0_4 1.955564 1_555
C1_4 Cr2_3 1.955564 1_544
C1_5 Cr2_0 1.955561 1_555
C1_5 Cr0_7 1.955561 1_545
C1_5 Cr2_4 1.955563 1_555
C1_5 Cr0_3 1.955563 1_545
C1_5 Cr2_2 1.955564 1_545
C1_5 Cr0_5 1.955564 1_555
C1_6 Cr2_3 1.955561 1_554
C1_6 Cr0_4 1.955561 1_555
C1_6 Cr2_7 1.955563 1_554
C1_6 Cr0_0 1.955563 1_555
C1_6 Cr2_1 1.955564 1_554
C1_6 Cr0_6 1.955564 1_555
C1_7 Cr2_2 1.955561 1_555
C1_7 Cr0_5 1.955561 1_555
C1_7 Cr2_6 1.955563 1_555
C1_7 Cr0_1 1.955563 1_555
C1_7 Cr2_0 1.955564 1_555
C1_7 Cr0_7 1.955564 1_555
