# generated using pymatgen
data_LiMn2(PO4)3
_symmetry_space_group_name_H-M   'P 1'
_cell_length_a   8.47378500
_cell_length_b   8.25002700
_cell_length_c   11.75265339
_cell_angle_alpha   89.71402823
_cell_angle_beta   90.00000000
_cell_angle_gamma   90.00000000
_symmetry_Int_Tables_number   1
_chemical_formula_structural   LiMn2(PO4)3
_chemical_formula_sum   'Li4 Mn8 P12 O48'
_cell_volume   821.60548350
_cell_formula_units_Z   4
loop_
 _symmetry_equiv_pos_site_id
 _symmetry_equiv_pos_as_xyz
  1  'x, y, z'
loop_
 _atom_site_type_symbol
 _atom_site_label
 _atom_site_symmetry_multiplicity
 _atom_site_fract_x
 _atom_site_fract_y
 _atom_site_fract_z
 _atom_site_occupancy
  Li  Li0  1  0.09940300  0.92873600  0.30177900  1
  Li  Li1  1  0.59940300  0.57126400  0.19822100  1
  Li  Li2  1  0.40059700  0.42873600  0.80177900  1
  Li  Li3  1  0.90059700  0.07126400  0.69822100  1
  Mn  Mn0  1  0.52973000  0.75557000  0.39222400  1
  Mn  Mn1  1  0.02973000  0.74443000  0.10777600  1
  Mn  Mn2  1  0.47071300  0.75603100  0.88329700  1
  Mn  Mn3  1  0.97071300  0.74396900  0.61670300  1
  Mn  Mn4  1  0.02928700  0.25603100  0.38329700  1
  Mn  Mn5  1  0.52928700  0.24396900  0.11670300  1
  Mn  Mn6  1  0.97027000  0.25557000  0.89222400  1
  Mn  Mn7  1  0.47027000  0.24443000  0.60777600  1
  P  P0  1  0.74949400  0.03593200  0.49036800  1
  P  P1  1  0.61254600  0.11004200  0.85421400  1
  P  P2  1  0.88521000  0.11147000  0.14337000  1
  P  P3  1  0.11254600  0.38995800  0.64578600  1
  P  P4  1  0.38521000  0.38853000  0.35663000  1
  P  P5  1  0.24949400  0.46406800  0.00963200  1
  P  P6  1  0.75050600  0.53593200  0.99036800  1
  P  P7  1  0.61479000  0.61147000  0.64337000  1
  P  P8  1  0.25050600  0.96406800  0.50963200  1
  P  P9  1  0.38745400  0.88995800  0.14578600  1
  P  P10  1  0.88745400  0.61004200  0.35421400  1
  P  P11  1  0.11479000  0.88853000  0.85663000  1
  O  O0  1  0.55936500  0.72862800  0.54752300  1
  O  O1  1  0.32678600  0.06456400  0.60519000  1
  O  O2  1  0.10893800  0.06843100  0.89240300  1
  O  O3  1  0.42390000  0.06638200  0.17992900  1
  O  O4  1  0.63642400  0.09863200  0.58469200  1
  O  O5  1  0.71808300  0.16106600  0.18084000  1
  O  O6  1  0.57088100  0.14276100  0.97829400  1
  O  O7  1  0.99838100  0.13038600  0.24684600  1
  O  O8  1  0.87304800  0.94051700  0.56226300  1
  O  O9  1  0.67321400  0.93543600  0.39481000  1
  O  O10  1  0.89106200  0.93156900  0.10759700  1
  O  O11  1  0.57610000  0.93361800  0.82007100  1
  O  O12  1  0.36357600  0.90136800  0.41530800  1
  O  O13  1  0.20525200  0.87349500  0.16240000  1
  O  O14  1  0.42911900  0.85723900  0.02170600  1
  O  O15  1  0.00161900  0.86961400  0.75315400  1
  O  O16  1  0.28191700  0.83893400  0.81916000  1
  O  O17  1  0.17038400  0.81527300  0.56328200  1
  O  O18  1  0.48289000  0.77319800  0.22428500  1
  O  O19  1  0.05936500  0.77137200  0.95247700  1
  O  O20  1  0.98289000  0.72680200  0.27571500  1
  O  O21  1  0.12695200  0.05948300  0.43773700  1
  O  O22  1  0.67038400  0.68472700  0.93671800  1
  O  O23  1  0.78191700  0.66106600  0.68084000  1
  O  O24  1  0.92911900  0.64276100  0.47829400  1
  O  O25  1  0.70525200  0.62650500  0.33760000  1
  O  O26  1  0.50161900  0.63038600  0.74684600  1
  O  O27  1  0.86357600  0.59863200  0.08469200  1
  O  O28  1  0.39106200  0.56843100  0.39240300  1
  O  O29  1  0.17321400  0.56456400  0.10519000  1
  O  O30  1  0.07610000  0.56638200  0.67992900  1
  O  O31  1  0.37304800  0.55948300  0.93773700  1
  O  O32  1  0.62695200  0.44051700  0.06226300  1
  O  O33  1  0.92390000  0.43361800  0.32007100  1
  O  O34  1  0.82678600  0.43543600  0.89481000  1
  O  O35  1  0.60893800  0.43156900  0.60759700  1
  O  O36  1  0.13642400  0.40136800  0.91530800  1
  O  O37  1  0.49838100  0.36961400  0.25315400  1
  O  O38  1  0.29474800  0.37349500  0.66240000  1
  O  O39  1  0.07088100  0.35723900  0.52170600  1
  O  O40  1  0.21808300  0.33893400  0.31916000  1
  O  O41  1  0.32961600  0.31527300  0.06328200  1
  O  O42  1  0.44063500  0.27137200  0.45247700  1
  O  O43  1  0.01711000  0.27319800  0.72428500  1
  O  O44  1  0.94063500  0.22862800  0.04752300  1
  O  O45  1  0.51711000  0.22680200  0.77571500  1
  O  O46  1  0.82961600  0.18472700  0.43671800  1
  O  O47  1  0.79474800  0.12650500  0.83760000  1
loop_
_geom_bond_atom_site_label_1
_geom_bond_atom_site_label_2
_geom_bond_distance
_geom_bond_site_symmetry_2
Li0 O13 1.924302 1_555
Li0 O21 1.946382 1_565
Li0 O20 1.961919 1_455
Li0 O7 1.976491 1_465
Li1 O25 1.924302 1_555
Li1 O32 1.946382 1_555
Li1 O18 1.961919 1_555
Li1 O37 1.976491 1_555
Li2 O38 1.924302 1_555
Li2 O31 1.946382 1_555
Li2 O45 1.961919 1_555
Li2 O26 1.976491 1_555
Li3 O47 1.924302 1_555
Li3 O8 1.946382 1_545
Li3 O43 1.961919 1_655
Li3 O15 1.976491 1_645
Mn0 O0 1.854638 1_555
Mn0 O12 1.872434 1_555
Mn0 O9 1.918757 1_555
Mn0 O28 1.940188 1_555
Mn0 O25 1.940336 1_555
Mn0 O18 2.017778 1_555
Mn1 O19 1.854638 1_554
Mn1 O27 1.872434 1_455
Mn1 O29 1.918757 1_555
Mn1 O10 1.940188 1_455
Mn1 O13 1.940336 1_555
Mn1 O20 2.017778 1_455
Mn2 O14 1.865750 1_556
Mn2 O11 1.866895 1_555
Mn2 O16 1.894793 1_555
Mn2 O22 1.897183 1_555
Mn2 O31 1.926983 1_555
Mn2 O26 1.931682 1_555
Mn3 O24 1.865750 1_555
Mn3 O30 1.866895 1_655
Mn3 O23 1.894793 1_555
Mn3 O17 1.897183 1_655
Mn3 O8 1.926983 1_555
Mn3 O15 1.931682 1_655
Mn4 O39 1.865750 1_555
Mn4 O33 1.866895 1_455
Mn4 O40 1.894793 1_555
Mn4 O46 1.897183 1_455
Mn4 O21 1.926983 1_555
Mn4 O7 1.931682 1_455
Mn5 O6 1.865750 1_554
Mn5 O3 1.866895 1_555
Mn5 O5 1.894793 1_555
Mn5 O41 1.897183 1_555
Mn5 O32 1.926983 1_555
Mn5 O37 1.931682 1_555
Mn6 O44 1.854638 1_556
Mn6 O36 1.872434 1_655
Mn6 O34 1.918757 1_555
Mn6 O2 1.940188 1_655
Mn6 O47 1.940336 1_555
Mn6 O43 2.017778 1_655
Mn7 O42 1.854638 1_555
Mn7 O4 1.872434 1_555
Mn7 O1 1.918757 1_555
Mn7 O35 1.940188 1_555
Mn7 O38 1.940336 1_555
Mn7 O45 2.017778 1_555
O0 P7 1.553334 1_555
O1 P8 1.541351 1_545
O2 P11 1.545400 1_545
O3 P9 1.542957 1_545
O4 P0 1.555703 1_555
O5 P2 1.539078 1_555
O6 P1 1.525776 1_555
O7 P2 1.557192 1_555
O8 P0 1.556633 1_565
O9 P0 1.541351 1_565
O10 P2 1.545400 1_565
O11 P1 1.542957 1_565
O12 P8 1.555703 1_555
O13 P9 1.562069 1_555
O14 P9 1.525776 1_555
O15 P11 1.557192 1_555
O16 P11 1.539078 1_555
O17 P8 1.535483 1_555
O18 P9 1.556973 1_555
O19 P11 1.553334 1_555
O20 P10 1.556973 1_555
O21 P8 1.556633 1_545
O22 P6 1.535483 1_555
O23 P7 1.539078 1_555
O24 P10 1.525776 1_555
O25 P10 1.562069 1_555
O26 P7 1.557192 1_555
O27 P6 1.555703 1_554
O28 P4 1.545400 1_555
O29 P5 1.541351 1_555
O30 P3 1.542957 1_555
O31 P5 1.556633 1_556
O32 P6 1.556633 1_554
O33 P10 1.542957 1_555
O34 P6 1.541351 1_555
O35 P7 1.545400 1_555
O36 P5 1.555703 1_556
O37 P4 1.557192 1_555
O38 P3 1.562069 1_555
O39 P3 1.525776 1_555
O40 P4 1.539078 1_555
O41 P5 1.535483 1_555
O42 P4 1.553334 1_555
O43 P3 1.556973 1_555
O44 P2 1.553334 1_555
O45 P1 1.556973 1_555
O46 P0 1.535483 1_555
O47 P1 1.562069 1_555
