# generated using pymatgen
data_NaTa2In2P5SO24
_symmetry_space_group_name_H-M   'P 1'
_cell_length_a   8.83097840
_cell_length_b   8.82229373
_cell_length_c   22.91572234
_cell_angle_alpha   89.86282197
_cell_angle_beta   90.10109653
_cell_angle_gamma   119.91830836
_symmetry_Int_Tables_number   1
_chemical_formula_structural   NaTa2In2P5SO24
_chemical_formula_sum   'Na3 Ta6 In6 P15 S3 O72'
_cell_volume   1547.42672674
_cell_formula_units_Z   3
loop_
 _symmetry_equiv_pos_site_id
 _symmetry_equiv_pos_as_xyz
  1  'x, y, z'
loop_
 _atom_site_type_symbol
 _atom_site_label
 _atom_site_symmetry_multiplicity
 _atom_site_fract_x
 _atom_site_fract_y
 _atom_site_fract_z
 _atom_site_occupancy
  Na  Na0  1  0.00078025  0.99992597  0.00576593  1
  Na  Na1  1  0.66634295  0.33319962  0.83280657  1
  Na  Na2  1  0.66815044  0.33208369  0.33937281  1
  Ta  Ta0  1  0.00627687  0.00815539  0.35819725  1
  Ta  Ta1  1  0.99923915  0.00001099  0.85489150  1
  Ta  Ta2  1  0.66521975  0.32662491  0.18650484  1
  Ta  Ta3  1  0.33186913  0.66613755  0.02522444  1
  Ta  Ta4  1  0.33808897  0.66735123  0.51870523  1
  Ta  Ta5  1  0.33415731  0.66626873  0.81019327  1
  In  In0  1  0.99464298  0.99407773  0.64789652  1
  In  In1  1  0.00448242  0.00322993  0.14799632  1
  In  In2  1  0.66468996  0.33891140  0.68704278  1
  In  In3  1  0.66744520  0.33365125  0.97804037  1
  In  In4  1  0.66833708  0.33790987  0.48190113  1
  In  In5  1  0.32919085  0.66725038  0.31265983  1
  P  P0  1  0.29051392  0.00376016  0.25067336  1
  P  P1  1  0.99717703  0.28752391  0.25048756  1
  P  P2  1  0.28752607  0.28700790  0.75078129  1
  P  P3  1  -0.00045787  0.71022875  0.75171421  1
  P  P4  1  0.71046488  0.00306206  0.75129546  1
  P  P5  1  0.66670029  0.62779074  0.58316619  1
  P  P6  1  0.95316501  0.62188675  0.08231105  1
  P  P7  1  0.66804894  0.04369393  0.08162713  1
  P  P8  1  0.37914500  0.33259445  0.08156280  1
  P  P9  1  0.61828597  0.66949016  0.91661828  1
  P  P10  1  0.05104860  0.38166849  0.91638754  1
  P  P11  1  0.33090573  0.94917329  0.91620638  1
  P  P12  1  0.62364021  0.95752049  0.41516879  1
  P  P13  1  0.33713727  0.38104958  0.41514075  1
  P  P14  1  0.04285824  0.66646435  0.41593270  1
  S  S0  1  0.71214407  0.70741363  0.25053603  1
  S  S1  1  0.96505559  0.33624300  0.58274113  1
  S  S2  1  0.37250477  0.03612246  0.58275419  1
  O  O0  1  0.19766655  0.03378243  0.30465242  1
  O  O1  1  0.82653662  0.79079018  0.30265367  1
  O  O2  1  0.96448461  0.16435428  0.30472158  1
  O  O3  1  0.18846843  0.16905085  0.80559951  1
  O  O4  1  0.97846478  0.80923447  0.80598548  1
  O  O5  1  0.82923919  0.02284752  0.80590244  1
  O  O6  1  0.77763520  0.96247815  0.69691777  1
  O  O7  1  0.18008981  0.21750842  0.69611547  1
  O  O8  1  0.04154106  0.81797831  0.69701497  1
  O  O9  1  0.78496763  0.80657923  0.19689713  1
  O  O10  1  0.01862411  0.20885650  0.19518465  1
  O  O11  1  0.18632254  0.97320361  0.19557108  1
  O  O12  1  0.89387994  0.37389384  0.63546861  1
  O  O13  1  0.48299159  0.10481193  0.63532020  1
  O  O14  1  0.62010971  0.51226848  0.63803125  1
  O  O15  1  0.86253101  0.50198628  0.13714651  1
  O  O16  1  0.63874464  0.13413499  0.13685350  1
  O  O17  1  0.49696690  0.35994182  0.13674406  1
  O  O18  1  0.45532812  0.30259636  0.02690723  1
  O  O19  1  0.84843050  0.54722670  0.02724330  1
  O  O20  1  0.70037361  0.15232800  0.02737747  1
  O  O21  1  0.45175059  0.14213597  0.53055449  1
  O  O22  1  0.69623103  0.54643342  0.52921517  1
  O  O23  1  0.85576629  0.30352862  0.53095106  1
  O  O24  1  0.53131120  0.69547039  0.97162319  1
  O  O25  1  0.16355676  0.46837598  0.97166377  1
  O  O26  1  0.30460250  0.83623771  0.97152276  1
  O  O27  1  0.53222387  0.83774224  0.46976102  1
  O  O28  1  0.30615301  0.46924677  0.46971796  1
  O  O29  1  0.16228602  0.69592653  0.47033451  1
  O  O30  1  0.11627662  0.63406695  0.36136410  1
  O  O31  1  0.51705290  0.88194166  0.36086545  1
  O  O32  1  0.36816106  0.48731952  0.36062051  1
  O  O33  1  0.14534991  0.49316140  0.86245080  1
  O  O34  1  0.34799595  0.85457139  0.86246859  1
  O  O35  1  0.50700194  0.65206429  0.86249133  1
  O  O36  1  0.03186547  0.83857667  0.40597426  1
  O  O37  1  0.80453541  0.96560433  0.40626616  1
  O  O38  1  0.16203377  0.19934710  0.40785770  1
  O  O39  1  0.03643365  0.19777297  0.90898921  1
  O  O40  1  0.16158417  0.96389136  0.90863766  1
  O  O41  1  0.80183036  0.83872103  0.90892281  1
  O  O42  1  0.99487915  0.18954243  0.58958020  1
  O  O43  1  0.19909895  0.01362415  0.58953314  1
  O  O44  1  0.81973441  0.81121734  0.58980988  1
  O  O45  1  0.98502044  0.80614656  0.08998614  1
  O  O46  1  0.81763143  0.00837828  0.09030230  1
  O  O47  1  0.19368956  0.18185770  0.08795561  1
  O  O48  1  0.69177020  0.16591979  0.74948058  1
  O  O49  1  0.46790311  0.30366671  0.75110624  1
  O  O50  1  0.83760014  0.52896069  0.75105280  1
  O  O51  1  0.70018423  0.52931397  0.24378963  1
  O  O52  1  0.82350607  0.30037597  0.24230002  1
  O  O53  1  0.47430603  0.17937618  0.24196000  1
  O  O54  1  0.63974409  0.50943930  0.91777603  1
  O  O55  1  0.86989874  0.36069705  0.91783063  1
  O  O56  1  0.49095805  0.13021513  0.91785498  1
  O  O57  1  0.65561662  0.14162291  0.42456439  1
  O  O58  1  0.48466654  0.34184166  0.42280386  1
  O  O59  1  0.85837897  0.51307028  0.42259020  1
  O  O60  1  0.36971679  0.50539372  0.07339793  1
  O  O61  1  0.13536476  0.63194168  0.07365721  1
  O  O62  1  0.49467676  0.86378334  0.07356431  1
  O  O63  1  0.35406566  0.85768268  0.57171527  1
  O  O64  1  0.49870711  0.64379777  0.56932110  1
  O  O65  1  0.14038571  0.49889390  0.57121093  1
  O  O66  1  0.32744326  0.85703521  0.25891459  1
  O  O67  1  0.53739573  0.67956049  0.25796828  1
  O  O68  1  0.14957204  0.46747376  0.25863236  1
  O  O69  1  0.30782411  0.47001826  0.76451029  1
  O  O70  1  0.16271661  0.69100138  0.76545347  1
  O  O71  1  0.52870269  0.83934631  0.76517917  1
loop_
_geom_bond_atom_site_label_1
_geom_bond_atom_site_label_2
_geom_bond_distance
_geom_bond_site_symmetry_2
Na0 O47 2.510235 1_565
Na0 O45 2.532708 1_455
Na0 O46 2.550752 1_465
Na0 O39 2.738563 1_564
Na0 O40 2.745273 1_554
Na0 O41 2.746496 1_454
Na1 O50 2.483708 1_555
Na1 O49 2.485833 1_555
Na1 O48 2.494003 1_555
Na1 O56 2.575139 1_555
Na1 O55 2.577076 1_555
Na1 O54 2.577687 1_555
Na2 O59 2.517092 1_555
Na2 O58 2.537535 1_555
Na2 O57 2.538972 1_555
Na2 O52 2.702856 1_555
Na2 O51 2.719980 1_555
Na2 O53 2.725598 1_555
In0 O44 2.068226 1_555
In0 O8 2.117538 1_655
In0 O6 2.117869 1_555
In0 O7 2.138304 1_665
In0 O42 2.178295 1_565
In0 O43 2.185248 1_665
In1 O11 2.062567 1_545
In1 O10 2.063686 1_555
In1 O45 2.128858 1_445
In1 O47 2.130598 1_555
In1 O46 2.130620 1_455
In1 O9 2.160334 1_445
In2 O14 2.084788 1_555
In2 O49 2.177085 1_555
In2 O50 2.178173 1_555
In2 O48 2.187704 1_555
In2 O13 2.223560 1_555
In2 O12 2.229819 1_555
In3 O18 2.081329 1_556
In3 O19 2.091850 1_556
In3 O20 2.091891 1_556
In3 O55 2.176852 1_555
In3 O54 2.176959 1_555
In3 O56 2.183208 1_555
In4 O22 2.043806 1_555
In4 O59 2.112535 1_555
In4 O58 2.124668 1_555
In4 O57 2.134034 1_555
In4 O21 2.141834 1_555
In4 O23 2.141882 1_555
In5 O30 2.079286 1_555
In5 O66 2.082389 1_555
In5 O68 2.090458 1_555
In5 O32 2.093194 1_555
In5 O31 2.104550 1_555
In5 O67 2.184372 1_555
O0 P0 1.579342 1_555
O0 Ta0 2.009511 1_555
O1 S0 1.498887 1_555
O1 Ta0 2.187503 1_665
O2 P1 1.578154 1_555
O2 Ta0 2.008611 1_655
O3 P2 1.586113 1_555
O3 Ta1 1.950664 1_455
O4 P3 1.585079 1_655
O4 Ta1 1.955182 1_565
O5 P4 1.584400 1_555
O5 Ta1 1.961976 1_555
O6 P4 1.499812 1_565
O7 P2 1.504849 1_555
O8 P3 1.502208 1_555
O9 S0 1.458165 1_555
O10 P1 1.503260 1_455
O11 P0 1.504597 1_565
O12 S1 1.475887 1_555
O13 S2 1.476415 1_555
O14 P5 1.538221 1_555
O15 P6 1.578357 1_555
O15 Ta2 2.004614 1_555
O16 P7 1.586568 1_555
O16 Ta2 1.960966 1_555
O17 P8 1.576777 1_555
O17 Ta2 2.005610 1_555
O18 P8 1.507819 1_555
O19 P6 1.507944 1_555
O20 P7 1.506032 1_555
O21 S2 1.462896 1_555
O22 P5 1.517826 1_555
O23 S1 1.463907 1_555
O24 P9 1.552960 1_555
O24 Ta3 2.056511 1_556
O25 P10 1.555275 1_555
O25 Ta3 2.043699 1_556
O26 P11 1.554878 1_555
O26 Ta3 2.043276 1_556
O27 P12 1.574703 1_555
O27 Ta4 1.970988 1_555
O28 P13 1.569315 1_555
O28 Ta4 1.977597 1_555
O29 P14 1.567637 1_555
O29 Ta4 2.021267 1_555
O30 P14 1.501727 1_555
O31 P12 1.500962 1_555
O32 P13 1.501450 1_555
O33 P10 1.539292 1_555
O33 Ta5 2.001165 1_555
O34 P11 1.538511 1_555
O34 Ta5 2.004057 1_555
O35 P9 1.540719 1_555
O35 Ta5 1.991349 1_555
O36 P14 1.585061 1_555
O36 Ta0 1.953587 1_565
O37 P12 1.576733 1_555
O37 Ta0 1.966242 1_665
O38 P13 1.586313 1_555
O38 Ta0 1.929103 1_555
O39 P10 1.571587 1_555
O39 Ta1 2.031257 1_455
O40 P11 1.573355 1_555
O40 Ta1 2.030140 1_465
O41 P9 1.572626 1_555
O41 Ta1 2.030183 1_565
O42 S1 1.451853 1_555
O43 S2 1.451217 1_555
O44 P5 1.512342 1_555
O45 P6 1.515800 1_555
O46 P7 1.513556 1_555
O47 P8 1.516417 1_555
O48 P4 1.526310 1_555
O49 P2 1.524939 1_555
O50 P3 1.523659 1_655
O51 S0 1.529523 1_555
O51 Ta2 2.115470 1_555
O52 P1 1.603931 1_555
O52 Ta2 1.989346 1_555
O53 P0 1.601828 1_555
O53 Ta2 1.989935 1_555
O54 P9 1.515623 1_555
O55 P10 1.516369 1_655
O56 P11 1.516048 1_545
O57 P12 1.519239 1_545
O58 P13 1.515351 1_555
O59 P14 1.519666 1_655
O60 P8 1.578351 1_555
O60 Ta3 1.950764 1_555
O61 P6 1.579477 1_455
O61 Ta3 1.953753 1_555
O62 P7 1.572837 1_565
O62 Ta3 1.958955 1_555
O63 S2 1.521452 1_565
O63 Ta4 2.021873 1_555
O64 P5 1.590163 1_555
O64 Ta4 1.920286 1_555
O65 S1 1.519730 1_455
O65 Ta4 2.028588 1_555
O66 P0 1.495775 1_565
O67 S0 1.446827 1_555
O68 P1 1.495209 1_455
O69 P2 1.565722 1_555
O69 Ta5 1.937486 1_555
O70 P3 1.564074 1_555
O70 Ta5 1.927145 1_555
O71 P4 1.565498 1_565
O71 Ta5 1.931084 1_555
