# generated using pymatgen
data_Na8Mg2Ta2Si5SO24
_symmetry_space_group_name_H-M   'P 1'
_cell_length_a   9.16255440
_cell_length_b   9.15782502
_cell_length_c   22.25288615
_cell_angle_alpha   90.00734569
_cell_angle_beta   90.06232896
_cell_angle_gamma   120.18882233
_symmetry_Int_Tables_number   1
_chemical_formula_structural   Na8Mg2Ta2Si5SO24
_chemical_formula_sum   'Na24 Mg6 Ta6 Si15 S3 O72'
_cell_volume   1613.97207221
_cell_formula_units_Z   3
loop_
 _symmetry_equiv_pos_site_id
 _symmetry_equiv_pos_as_xyz
  1  'x, y, z'
loop_
 _atom_site_type_symbol
 _atom_site_label
 _atom_site_symmetry_multiplicity
 _atom_site_fract_x
 _atom_site_fract_y
 _atom_site_fract_z
 _atom_site_occupancy
  Na  Na0  1  0.64259088  0.02518924  0.24439923  1
  Na  Na1  1  0.36921379  0.34950867  0.25092097  1
  Na  Na2  1  0.98280055  0.62132848  0.24347773  1
  Na  Na3  1  0.62480143  0.64123820  0.76222829  1
  Na  Na4  1  0.01282051  0.37387294  0.76181278  1
  Na  Na5  1  0.36017309  0.98612412  0.75566882  1
  Na  Na6  1  0.29491982  0.35053254  0.57956740  1
  Na  Na7  1  0.04808741  0.69949919  0.58586569  1
  Na  Na8  1  0.64782261  0.94661718  0.57896647  1
  Na  Na9  1  0.31131360  0.95606286  0.08446323  1
  Na  Na10  1  0.66017136  0.70531298  0.07038203  1
  Na  Na11  1  0.03182331  0.34942089  0.07533871  1
  Na  Na12  1  0.97637700  0.67896041  0.90208536  1
  Na  Na13  1  0.71683480  0.01922109  0.90935572  1
  Na  Na14  1  0.32326024  0.31296218  0.90438711  1
  Na  Na15  1  0.97349745  0.28064560  0.41129968  1
  Na  Na16  1  0.32392374  0.03519812  0.40555540  1
  Na  Na17  1  0.70008919  0.68280487  0.41190036  1
  Na  Na18  1  0.99948955  0.01216875  0.49599678  1
  Na  Na19  1  0.98632872  0.99809067  0.99092397  1
  Na  Na20  1  0.67079306  0.34200266  0.83130550  1
  Na  Na21  1  0.66363901  0.32923154  0.32294592  1
  Na  Na22  1  0.33095524  0.67829442  0.15945483  1
  Na  Na23  1  0.33316684  0.66500169  0.67047071  1
  Mg  Mg0  1  0.99926193  0.00647719  0.34973586  1
  Mg  Mg1  1  0.99250360  0.00121707  0.84812780  1
  Mg  Mg2  1  0.67444973  0.33102884  0.18686188  1
  Mg  Mg3  1  0.33625211  0.66897442  0.01450933  1
  Mg  Mg4  1  0.34069259  0.66379003  0.52288298  1
  Mg  Mg5  1  0.33012900  0.65057820  0.81190398  1
  Ta  Ta0  1  0.99705590  0.99926190  0.64751757  1
  Ta  Ta1  1  0.99082124  0.99503737  0.15049938  1
  Ta  Ta2  1  0.66771975  0.33453449  0.68745837  1
  Ta  Ta3  1  0.68898854  0.34476512  0.98056735  1
  Ta  Ta4  1  0.65625053  0.32509431  0.48029752  1
  Ta  Ta5  1  0.34833445  0.67157911  0.31050984  1
  Si  Si0  1  0.29061410  0.99923949  0.25355641  1
  Si  Si1  1  0.70983195  0.70371191  0.25485422  1
  Si  Si2  1  0.00085696  0.29522536  0.25351944  1
  Si  Si3  1  0.29207784  0.28896243  0.75197007  1
  Si  Si4  1  0.00102047  0.70863724  0.75166240  1
  Si  Si5  1  0.70529475  0.00077889  0.75185434  1
  Si  Si6  1  0.95703532  0.33215791  0.58238719  1
  Si  Si7  1  0.36841102  0.03865947  0.58431173  1
  Si  Si8  1  0.67009726  0.62655375  0.58251637  1
  Si  Si9  1  0.96748154  0.63419259  0.08800443  1
  Si  Si10  1  0.66352744  0.03670915  0.08714605  1
  Si  Si11  1  0.62648985  0.66566696  0.91797339  1
  Si  Si12  1  0.04881539  0.37456140  0.91795557  1
  Si  Si13  1  0.62773108  0.95977249  0.42073687  1
  Si  Si14  1  0.33168934  0.37292031  0.42034255  1
  S  S0  1  0.37369937  0.32787812  0.08537373  1
  S  S1  1  0.33941420  0.96611636  0.91905757  1
  S  S2  1  0.04224753  0.66158343  0.41811714  1
  O  O0  1  0.20380201  0.02061998  0.31222459  1
  O  O1  1  0.82039113  0.78583794  0.31326901  1
  O  O2  1  0.97418971  0.18417502  0.31173107  1
  O  O3  1  0.21931367  0.16972308  0.81008199  1
  O  O4  1  0.95920290  0.78571823  0.80927723  1
  O  O5  1  0.82401144  0.04757417  0.80964068  1
  O  O6  1  0.80716828  0.98048632  0.69129952  1
  O  O7  1  0.17086632  0.18545823  0.69152947  1
  O  O8  1  0.01562166  0.82664375  0.69054678  1
  O  O9  1  0.80220124  0.83495472  0.19487604  1
  O  O10  1  0.03479290  0.19985971  0.19326004  1
  O  O11  1  0.16386378  0.96952355  0.19285739  1
  O  O12  1  0.85424455  0.34977384  0.63968339  1
  O  O13  1  0.49399639  0.14180017  0.64023224  1
  O  O14  1  0.65262921  0.50413369  0.63920416  1
  O  O15  1  0.87343653  0.52080346  0.14490191  1
  O  O16  1  0.63554979  0.12144988  0.14539700  1
  O  O17  1  0.47194662  0.34624205  0.13953357  1
  O  O18  1  0.45638940  0.30595443  0.03062436  1
  O  O19  1  0.83918524  0.53362911  0.02779288  1
  O  O20  1  0.68878602  0.16461249  0.02825307  1
  O  O21  1  0.46682650  0.16614360  0.52446691  1
  O  O22  1  0.69886162  0.52988884  0.52311054  1
  O  O23  1  0.83052340  0.30355255  0.52317245  1
  O  O24  1  0.54256586  0.68999900  0.97824732  1
  O  O25  1  0.14615992  0.46077892  0.97984847  1
  O  O26  1  0.32091589  0.86627607  0.97373400  1
  O  O27  1  0.53441154  0.85135026  0.47873990  1
  O  O28  1  0.30387092  0.45884448  0.47810480  1
  O  O29  1  0.14049645  0.68038275  0.47230808  1
  O  O30  1  0.12596279  0.64076316  0.36287904  1
  O  O31  1  0.49972534  0.86389920  0.35996308  1
  O  O32  1  0.36068547  0.50244843  0.36008993  1
  O  O33  1  0.11353324  0.49366951  0.85877199  1
  O  O34  1  0.36948588  0.89336465  0.86449385  1
  O  O35  1  0.50955741  0.62229602  0.85835047  1
  O  O36  1  0.01775509  0.80855037  0.41324286  1
  O  O37  1  0.81400130  0.98220151  0.41432179  1
  O  O38  1  0.17686446  0.18114490  0.41352635  1
  O  O39  1  0.02003434  0.18431445  0.91429639  1
  O  O40  1  0.18824915  0.98461941  0.91495580  1
  O  O41  1  0.82130143  0.82175246  0.91452685  1
  O  O42  1  0.96605900  0.15638567  0.58656448  1
  O  O43  1  0.18657531  0.03423347  0.58648165  1
  O  O44  1  0.84595467  0.81193385  0.58587633  1
  O  O45  1  0.97608529  0.82291214  0.08854529  1
  O  O46  1  0.84772730  0.03382205  0.08931327  1
  O  O47  1  0.20162298  0.16882899  0.08722726  1
  O  O48  1  0.68641550  0.17166730  0.74142811  1
  O  O49  1  0.48394260  0.31220878  0.74143870  1
  O  O50  1  0.82961797  0.51677013  0.74205336  1
  O  O51  1  0.66702137  0.51379887  0.24293762  1
  O  O52  1  0.84289364  0.32494835  0.24625675  1
  O  O53  1  0.47720506  0.15942539  0.24480618  1
  O  O54  1  0.63672408  0.48167607  0.92722768  1
  O  O55  1  0.84455701  0.34679818  0.92474215  1
  O  O56  1  0.49361969  0.14212407  0.92533917  1
  O  O57  1  0.64100044  0.15223448  0.42022722  1
  O  O58  1  0.51656515  0.37029677  0.42046906  1
  O  O59  1  0.87073451  0.50181396  0.41909405  1
  O  O60  1  0.34979396  0.47561766  0.08057268  1
  O  O61  1  0.15437090  0.66115614  0.07889991  1
  O  O62  1  0.50635814  0.84642333  0.07924059  1
  O  O63  1  0.34655457  0.85489000  0.57925708  1
  O  O64  1  0.50493167  0.64399941  0.58221605  1
  O  O65  1  0.13879875  0.49925369  0.57965245  1
  O  O66  1  0.29792462  0.81858095  0.25649761  1
  O  O67  1  0.52447714  0.70349093  0.25544744  1
  O  O68  1  0.18004875  0.48434624  0.25695286  1
  O  O69  1  0.30733089  0.47195015  0.74956881  1
  O  O70  1  0.16863422  0.69314736  0.75078632  1
  O  O71  1  0.51939006  0.83509670  0.75252862  1
loop_
_geom_bond_atom_site_label_1
_geom_bond_atom_site_label_2
_geom_bond_distance
_geom_bond_site_symmetry_2
Na0 O53 2.383503 1_555
Na0 O16 2.385842 1_555
Na0 O52 2.416348 1_555
Na0 O67 2.589439 1_545
Na0 O66 2.760115 1_545
Na1 O51 2.369218 1_555
Na1 O53 2.400056 1_555
Na1 O68 2.588397 1_555
Na1 O17 2.657860 1_555
Na1 O67 2.811450 1_555
Na1 O32 2.824712 1_555
Na1 O0 2.940117 1_555
Na1 O10 2.946410 1_555
Na2 O52 2.348404 1_555
Na2 O15 2.393830 1_555
Na2 O66 2.537001 1_655
Na2 O51 2.544756 1_555
Na2 O68 2.684946 1_655
Na2 O30 2.927387 1_655
Na2 O11 2.978890 1_655
Na2 O1 3.025749 1_555
Na3 O35 2.353970 1_555
Na3 O71 2.419772 1_555
Na3 O69 2.531198 1_555
Na3 O49 2.654494 1_555
Na3 O50 2.678735 1_555
Na3 O4 2.854867 1_555
Na4 O33 2.384820 1_555
Na4 O69 2.393079 1_555
Na4 O70 2.539732 1_555
Na4 O50 2.632734 1_455
Na4 O48 2.646938 1_455
Na4 O5 2.803691 1_455
Na5 O70 2.356779 1_555
Na5 O71 2.464830 1_555
Na5 O34 2.581929 1_555
Na5 O48 2.610949 1_565
Na5 O49 2.626609 1_565
Na5 O3 2.853798 1_565
Na5 O13 2.895587 1_565
Na6 O64 2.393267 1_555
Na6 O65 2.420856 1_555
Na6 O28 2.451037 1_555
Na6 O43 2.551089 1_555
Na6 O42 2.622589 1_455
Na6 O7 2.839678 1_555
Na7 O65 2.367666 1_555
Na7 O63 2.369069 1_555
Na7 O44 2.531431 1_455
Na7 O43 2.663689 1_565
Na7 O8 2.686961 1_555
Na7 O29 2.699411 1_555
Na8 O64 2.398082 1_555
Na8 O27 2.428586 1_555
Na8 O63 2.448150 1_555
Na8 O42 2.566440 1_565
Na8 O44 2.663067 1_555
Na8 O6 2.830715 1_555
Na9 O61 2.338961 1_555
Na9 O62 2.453652 1_555
Na9 O47 2.603850 1_565
Na9 O26 2.613056 1_554
Na9 O45 2.676461 1_455
Na9 O11 2.798766 1_555
Na9 O16 2.902393 1_565
Na10 O24 2.286380 1_554
Na10 O62 2.350986 1_555
Na10 O60 2.559103 1_555
Na10 O45 2.562034 1_555
Na10 O46 2.641966 1_565
Na10 O19 2.942287 1_555
Na10 O9 3.035686 1_555
Na11 O25 2.363002 1_554
Na11 O61 2.488572 1_555
Na11 O46 2.528562 1_455
Na11 O60 2.539731 1_555
Na11 O47 2.795096 1_555
Na12 O4 2.323873 1_555
Na12 O41 2.382219 1_555
Na12 O40 2.493910 1_655
Na12 O55 2.696814 1_555
Na12 O33 2.744898 1_655
Na12 O54 2.758923 1_555
Na13 O5 2.388294 1_555
Na13 O39 2.406414 1_655
Na13 O41 2.437278 1_545
Na13 O55 2.637099 1_555
Na13 O56 2.809411 1_555
Na14 O3 2.402134 1_555
Na14 O39 2.421818 1_555
Na14 O54 2.535425 1_555
Na14 O40 2.624309 1_545
Na14 O35 2.670123 1_555
Na14 O56 2.748848 1_555
Na15 O37 2.365031 1_545
Na15 O2 2.386417 1_555
Na15 O38 2.451995 1_655
Na15 O59 2.633854 1_555
Na15 O57 2.664958 1_555
Na15 O23 2.870720 1_555
Na16 O0 2.321595 1_555
Na16 O38 2.333471 1_555
Na16 O36 2.520375 1_545
Na16 O57 2.561638 1_555
Na16 O58 2.682158 1_555
Na16 O21 2.926936 1_555
Na16 O31 2.937572 1_545
Na17 O37 2.394090 1_555
Na17 O1 2.425366 1_555
Na17 O58 2.493067 1_555
Na17 O36 2.535287 1_655
Na17 O59 2.797036 1_555
Na17 O22 2.840892 1_555
Na17 O32 2.924757 1_555
Na18 O37 2.406485 1_545
Na18 O38 2.425249 1_655
Na18 O42 2.511460 1_555
Na18 O43 2.584119 1_655
Na18 O44 2.598956 1_545
Na18 O36 2.685133 1_645
Na19 O41 2.307021 1_555
Na19 O39 2.320268 1_665
Na19 O40 2.555824 1_655
Na19 O46 2.633874 1_566
Na19 O45 2.674225 1_556
Na19 O47 2.795828 1_666
Na20 O50 2.507724 1_555
Na20 O49 2.554857 1_555
Na20 O48 2.584239 1_555
Na20 O54 2.586918 1_555
Na20 O55 2.604314 1_555
Na20 O56 2.717433 1_555
Na21 O53 2.383498 1_555
Na21 O52 2.383762 1_555
Na21 O51 2.444575 1_555
Na21 O57 2.649608 1_555
Na21 O58 2.680083 1_555
Na21 O59 2.765951 1_555
Na22 O61 2.365166 1_555
Na22 O62 2.378677 1_555
Na22 O66 2.607144 1_555
Na22 O60 2.622618 1_555
Na22 O68 2.703958 1_555
Na22 O67 2.709327 1_555
Na23 O69 2.420867 1_555
Na23 O70 2.435143 1_555
Na23 O71 2.447785 1_555
Na23 O64 2.584935 1_555
Na23 O65 2.613940 1_555
Na23 O63 2.635510 1_555
Mg0 O2 1.947331 1_555
Mg0 O0 1.996287 1_655
Mg0 O1 2.023249 1_545
Mg0 O38 2.144374 1_655
Mg0 O37 2.149948 1_545
Mg0 O36 2.370727 1_645
Mg1 O5 1.988331 1_555
Mg1 O4 2.031903 1_545
Mg1 O3 2.048366 1_655
Mg1 O39 2.148596 1_655
Mg1 O41 2.181253 1_545
Mg1 O40 2.391608 1_645
Mg2 O16 1.993227 1_555
Mg2 O15 2.008434 1_555
Mg2 O52 2.052811 1_555
Mg2 O51 2.116011 1_555
Mg2 O53 2.132543 1_555
Mg2 O17 2.197058 1_555
Mg3 O24 1.974587 1_554
Mg3 O25 1.980069 1_554
Mg3 O26 2.088845 1_554
Mg3 O62 2.142944 1_555
Mg3 O61 2.172716 1_555
Mg3 O60 2.352296 1_555
Mg4 O28 1.997818 1_555
Mg4 O27 2.000952 1_555
Mg4 O64 2.076229 1_555
Mg4 O65 2.119110 1_555
Mg4 O63 2.131687 1_555
Mg4 O29 2.220418 1_555
Mg5 O33 2.056204 1_555
Mg5 O35 2.064646 1_555
Mg5 O69 2.073379 1_555
Mg5 O71 2.160292 1_555
Mg5 O70 2.183373 1_555
Mg5 O34 2.373845 1_555
O0 Si0 1.591942 1_545
O1 Si1 1.584999 1_555
O2 Si2 1.588418 1_655
O3 Si3 1.605995 1_555
O4 Si4 1.600535 1_655
O5 Si5 1.596379 1_555
O6 Si5 1.702570 1_565
O6 Ta0 1.925809 1_555
O7 Si3 1.696639 1_555
O7 Ta0 1.915233 1_445
O8 Si4 1.700218 1_555
O8 Ta0 1.927490 1_455
O9 Si1 1.709414 1_555
O9 Ta1 1.888701 1_555
O10 Si2 1.712091 1_555
O10 Ta1 1.955710 1_445
O11 Si0 1.710532 1_555
O11 Ta1 1.956090 1_455
O12 Si6 1.641361 1_555
O12 Ta2 1.958232 1_555
O13 Si7 1.633482 1_555
O13 Ta2 1.980858 1_555
O14 Si8 1.641380 1_555
O14 Ta2 1.949498 1_555
O15 Si9 1.589561 1_555
O16 Si10 1.596483 1_555
O17 S0 1.461680 1_555
O18 S0 1.501202 1_555
O18 Ta3 2.269939 1_554
O19 Si9 1.712531 1_555
O19 Ta3 1.895345 1_554
O20 Si10 1.694545 1_555
O20 Ta3 1.960935 1_554
O21 Si7 1.701135 1_555
O21 Ta4 1.886945 1_555
O22 Si8 1.683973 1_555
O22 Ta4 1.959545 1_555
O23 Si6 1.685180 1_555
O23 Ta4 1.952554 1_555
O24 Si11 1.616924 1_555
O25 Si12 1.613904 1_555
O26 S1 1.479854 1_555
O27 Si13 1.591187 1_555
O28 Si14 1.593268 1_555
O29 S2 1.461488 1_555
O30 S2 1.511536 1_555
O30 Ta5 2.239659 1_555
O31 Si13 1.713489 1_555
O31 Ta5 1.943273 1_555
O32 Si14 1.720353 1_555
O32 Ta5 1.950774 1_555
O33 Si12 1.620952 1_555
O34 S1 1.476221 1_555
O35 Si11 1.623209 1_555
O36 S2 1.475571 1_555
O37 Si13 1.619694 1_555
O38 Si14 1.616684 1_555
O39 Si12 1.627714 1_555
O40 S1 1.480267 1_555
O41 Si11 1.633870 1_555
O42 Si6 1.655431 1_555
O42 Ta0 2.097990 1_545
O43 Si7 1.646832 1_555
O43 Ta0 2.099680 1_445
O44 Si8 1.653067 1_555
O44 Ta0 2.085173 1_555
O45 Si9 1.690035 1_555
O45 Ta1 2.046612 1_555
O46 Si10 1.701821 1_555
O46 Ta1 2.040490 1_545
O47 S0 1.516464 1_555
O47 Ta1 2.271783 1_445
O48 Si5 1.674853 1_555
O48 Ta2 1.988283 1_555
O49 Si3 1.677865 1_555
O49 Ta2 1.994584 1_555
O50 Si4 1.680314 1_655
O50 Ta2 1.991843 1_555
O51 Si1 1.600789 1_555
O52 Si2 1.609578 1_655
O53 Si0 1.609748 1_545
O54 Si11 1.746204 1_555
O54 Ta3 1.952746 1_555
O55 Si12 1.764127 1_655
O55 Ta3 1.884816 1_555
O56 S1 1.524154 1_545
O56 Ta3 2.193706 1_555
O57 Si13 1.704679 1_545
O57 Ta4 2.022112 1_555
O58 Si14 1.706142 1_555
O58 Ta4 2.027613 1_555
O59 S2 1.516082 1_655
O59 Ta4 2.268023 1_555
O60 S0 1.479172 1_555
O61 Si9 1.615488 1_455
O62 Si10 1.617717 1_565
O63 Si7 1.595607 1_565
O64 Si8 1.599656 1_555
O65 Si6 1.598802 1_455
O66 Si0 1.690387 1_555
O66 Ta5 2.023565 1_555
O67 Si1 1.697373 1_555
O67 Ta5 1.929128 1_555
O68 Si2 1.685531 1_555
O68 Ta5 2.018532 1_555
O69 Si3 1.610930 1_555
O70 Si4 1.611910 1_555
O71 Si5 1.613897 1_565
