# generated using pymatgen
data_Mg(NiS2)2
_symmetry_space_group_name_H-M   'P 1'
_cell_length_a   3.38920979
_cell_length_b   11.43443571
_cell_length_c   3.38338800
_cell_angle_alpha   90.00000000
_cell_angle_beta   119.94321334
_cell_angle_gamma   90.10992230
_symmetry_Int_Tables_number   1
_chemical_formula_structural   Mg(NiS2)2
_chemical_formula_sum   'Mg1 Ni2 S4'
_cell_volume   113.61686145
_cell_formula_units_Z   1
loop_
 _symmetry_equiv_pos_site_id
 _symmetry_equiv_pos_as_xyz
  1  'x, y, z'
loop_
 _atom_site_type_symbol
 _atom_site_label
 _atom_site_symmetry_multiplicity
 _atom_site_fract_x
 _atom_site_fract_y
 _atom_site_fract_z
 _atom_site_occupancy
  Mg  Mg0  1  0.99890900  0.00000500  0.99945500  1
  Ni  Ni0  1  0.66448000  0.28252100  0.33224000  1
  Ni  Ni1  1  0.33869800  0.71738600  0.66934900  1
  S  S0  1  0.33387800  0.14166500  0.66693900  1
  S  S1  1  0.33158400  0.38331000  0.66579200  1
  S  S2  1  0.66997800  0.61656300  0.33498900  1
  S  S3  1  0.66247200  0.85855100  0.33123600  1
loop_
_geom_bond_atom_site_label_1
_geom_bond_atom_site_label_2
_geom_bond_distance
_geom_bond_site_symmetry_2
Mg0 S3 2.535306 1_646
Mg0 S0 2.538952 1_656
Mg0 S0 2.538955 1_655
Mg0 S3 2.539121 1_546
Mg0 S3 2.539122 1_545
Mg0 S0 2.540133 1_555
Ni0 S1 2.269538 1_554
Ni0 S1 2.269539 1_555
Ni0 S1 2.270793 1_655
Ni0 S0 2.528171 1_554
Ni0 S0 2.528171 1_555
Ni0 S0 2.544180 1_655
Ni1 S2 2.267690 1_556
Ni1 S2 2.267691 1_555
Ni1 S2 2.275080 1_455
Ni1 S3 2.522822 1_556
Ni1 S3 2.522823 1_555
Ni1 S3 2.561965 1_455
