# generated using pymatgen
data_MgZn2Fe2(SiO5)2
_symmetry_space_group_name_H-M   'P 1'
_cell_length_a   5.75446402
_cell_length_b   7.34384693
_cell_length_c   7.95677700
_cell_angle_alpha   90.95687021
_cell_angle_beta   45.62338377
_cell_angle_gamma   72.37231387
_symmetry_Int_Tables_number   1
_chemical_formula_structural   MgZn2Fe2(SiO5)2
_chemical_formula_sum   'Mg1 Zn2 Fe2 Si2 O10'
_cell_volume   215.78417303
_cell_formula_units_Z   1
loop_
 _symmetry_equiv_pos_site_id
 _symmetry_equiv_pos_as_xyz
  1  'x, y, z'
loop_
 _atom_site_type_symbol
 _atom_site_label
 _atom_site_symmetry_multiplicity
 _atom_site_fract_x
 _atom_site_fract_y
 _atom_site_fract_z
 _atom_site_occupancy
  Mg  Mg0  1  0.02166540  0.34480443  0.31708788  1
  Zn  Zn0  1  0.46011516  0.19059327  0.71042500  1
  Zn  Zn1  1  0.45872098  0.71342369  0.32994339  1
  Fe  Fe0  1  0.58248824  0.47421252  0.94691271  1
  Fe  Fe1  1  0.63538116  0.95067426  0.94445384  1
  Si  Si0  1  0.44381024  0.25972986  0.38967007  1
  Si  Si1  1  0.53336654  0.73580833  0.62566017  1
  O  O0  1  0.39817802  0.09928611  0.27933133  1
  O  O1  1  0.40931778  0.44834425  0.28553494  1
  O  O2  1  0.58184223  0.90484279  0.72057479  1
  O  O3  1  0.58873601  0.53234076  0.70260288  1
  O  O4  1  0.83959397  0.63314225  0.31795703  1
  O  O5  1  0.15794524  0.83794632  0.70087083  1
  O  O6  1  0.10879543  0.32612130  0.70192656  1
  O  O7  1  0.78939758  0.18009020  0.34220753  1
  O  O8  1  0.51831613  0.73624078  0.06586225  1
  O  O9  1  0.47096488  0.24211787  0.94265679  1
loop_
_geom_bond_atom_site_label_1
_geom_bond_atom_site_label_2
_geom_bond_distance
_geom_bond_site_symmetry_2
Mg0 O7 1.975660 1_455
Mg0 O9 2.024650 1_554
Mg0 O4 2.056039 1_455
Mg0 O3 2.145770 1_455
Mg0 O0 2.177372 1_555
Mg0 O1 2.422336 1_555
Fe0 O8 1.937777 1_556
Fe0 O6 1.957448 1_655
Fe0 O3 1.975246 1_555
Fe0 O9 2.002295 1_555
Fe0 O1 2.159820 1_556
Fe1 O8 1.910487 1_556
Fe1 O5 1.941865 1_655
Fe1 O0 2.016780 1_566
Fe1 O2 2.047404 1_555
Fe1 O9 2.066348 1_565
O0 Si0 1.644192 1_555
O1 Si0 1.657242 1_555
O1 Zn1 2.109040 1_555
O2 Si1 1.631635 1_555
O2 Zn0 2.023714 1_565
O3 Si1 1.650489 1_555
O4 Si1 1.663420 1_555
O4 Zn1 2.020754 1_555
O5 Si1 1.668260 1_555
O5 Zn1 2.085354 1_555
O6 Si0 1.678635 1_555
O6 Zn0 2.014216 1_555
O7 Si0 1.636211 1_555
O7 Zn0 2.078215 1_555
O8 Zn1 1.897238 1_555
O9 Zn0 1.927129 1_555
