# generated using pymatgen
data_ThInCu5
_symmetry_space_group_name_H-M   'P 1'
_cell_length_a   5.04529781
_cell_length_b   8.27135467
_cell_length_c   10.59183757
_cell_angle_alpha   90.00000000
_cell_angle_beta   90.00000000
_cell_angle_gamma   90.00000000
_symmetry_Int_Tables_number   1
_chemical_formula_structural   ThInCu5
_chemical_formula_sum   'Th4 In4 Cu20'
_cell_volume   442.01271456
_cell_formula_units_Z   4
loop_
 _symmetry_equiv_pos_site_id
 _symmetry_equiv_pos_as_xyz
  1  'x, y, z'
loop_
 _atom_site_type_symbol
 _atom_site_label
 _atom_site_symmetry_multiplicity
 _atom_site_fract_x
 _atom_site_fract_y
 _atom_site_fract_z
 _atom_site_occupancy
  Th  Th0  1  0.75000000  0.24724845  0.93985257  1
  Th  Th1  1  0.25000000  0.75275155  0.06014743  1
  Th  Th2  1  0.75000000  0.74724845  0.56014743  1
  Th  Th3  1  0.25000000  0.25275155  0.43985257  1
  In  In0  1  0.75000000  0.36025518  0.63830150  1
  In  In1  1  0.25000000  0.63974482  0.36169850  1
  In  In2  1  0.75000000  0.86025518  0.86169850  1
  In  In3  1  0.25000000  0.13974482  0.13830150  1
  Cu  Cu0  1  0.00007171  0.43207690  0.18702953  1
  Cu  Cu1  1  0.50007171  0.56792310  0.81297047  1
  Cu  Cu2  1  0.49992829  0.93207690  0.31297047  1
  Cu  Cu3  1  -0.00007171  0.06792310  0.68702953  1
  Cu  Cu4  1  -0.00007171  0.56792310  0.81297047  1
  Cu  Cu5  1  0.49992829  0.43207690  0.18702953  1
  Cu  Cu6  1  0.50007171  0.06792310  0.68702953  1
  Cu  Cu7  1  0.00007171  0.93207690  0.31297047  1
  Cu  Cu8  1  0.75000000  0.43910719  0.39228331  1
  Cu  Cu9  1  0.25000000  0.56089281  0.60771669  1
  Cu  Cu10  1  0.75000000  0.93910719  0.10771669  1
  Cu  Cu11  1  0.25000000  0.06089281  0.89228331  1
  Cu  Cu12  1  0.75000000  0.18087252  0.25538461  1
  Cu  Cu13  1  0.25000000  0.81912748  0.74461539  1
  Cu  Cu14  1  0.75000000  0.68087252  0.24461539  1
  Cu  Cu15  1  0.25000000  0.31912748  0.75538461  1
  Cu  Cu16  1  0.75000000  0.08356383  0.48352639  1
  Cu  Cu17  1  0.25000000  0.91643617  0.51647361  1
  Cu  Cu18  1  0.75000000  0.58356383  0.01647361  1
  Cu  Cu19  1  0.25000000  0.41643617  0.98352639  1
loop_
_geom_bond_atom_site_label_1
_geom_bond_atom_site_label_2
_geom_bond_distance
_geom_bond_site_symmetry_2
In0 Th2 3.306264 1_555
In0 Th0 3.327943 1_555
In0 Th3 3.401850 1_655
In0 Th3 3.401850 1_555
In1 Th3 3.306264 1_555
In1 Th1 3.327943 1_555
In1 Th2 3.401850 1_555
In1 Th2 3.401850 1_455
In2 Th0 3.306264 1_565
In2 Th2 3.327943 1_555
In2 Th1 3.401850 1_556
In2 Th1 3.401850 1_656
In3 Th1 3.306264 1_545
In3 Th3 3.327943 1_555
In3 Th0 3.401850 1_554
In3 Th0 3.401850 1_454
Cu0 Cu14 2.489726 1_455
Cu0 Cu19 2.500565 1_554
Cu0 Cu8 2.514274 1_455
Cu0 Cu5 2.521925 1_555
Cu0 Cu5 2.523373 1_455
Cu0 Cu18 2.534820 1_455
Cu0 Cu12 2.536393 1_455
Cu0 In3 2.775436 1_555
Cu0 In1 2.821922 1_555
Cu0 Th1 3.229773 1_555
Cu0 Th0 3.283787 1_454
Cu0 Th3 3.310745 1_555
Cu1 Cu15 2.489726 1_555
Cu1 Cu18 2.500565 1_556
Cu1 Cu9 2.514274 1_555
Cu1 Cu4 2.521925 1_655
Cu1 Cu4 2.523373 1_555
Cu1 Cu19 2.534820 1_555
Cu1 Cu13 2.536393 1_555
Cu1 In2 2.775436 1_555
Cu1 In0 2.821922 1_555
Cu1 Th0 3.229773 1_555
Cu1 Th1 3.283787 1_556
Cu1 Th2 3.310745 1_555
Cu2 Cu7 2.521925 1_555
Cu2 Cu7 2.523373 1_655
Cu2 In1 2.775436 1_555
Cu2 In3 2.821922 1_565
Cu2 Th3 3.229773 1_565
Cu2 Th2 3.283787 1_555
Cu2 Th1 3.310745 1_555
Cu3 Cu6 2.521925 1_455
Cu3 Cu6 2.523373 1_555
Cu3 In0 2.775436 1_455
Cu3 In2 2.821922 1_445
Cu3 Th2 3.229773 1_445
Cu3 Th3 3.283787 1_555
Cu3 Th0 3.310745 1_455
Cu4 Cu9 2.514274 1_555
Cu4 In2 2.775436 1_455
Cu4 In0 2.821922 1_455
Cu4 Th0 3.229773 1_455
Cu4 Th1 3.283787 1_556
Cu4 Th2 3.310745 1_455
Cu5 Cu8 2.514274 1_555
Cu5 In3 2.775436 1_555
Cu5 In1 2.821922 1_555
Cu5 Th1 3.229773 1_555
Cu5 Th0 3.283787 1_554
Cu5 Th3 3.310745 1_555
Cu6 In0 2.775436 1_555
Cu6 In2 2.821922 1_545
Cu6 Th2 3.229773 1_545
Cu6 Th3 3.283787 1_555
Cu6 Th0 3.310745 1_555
Cu7 In1 2.775436 1_555
Cu7 In3 2.821922 1_565
Cu7 Th3 3.229773 1_565
Cu7 Th2 3.283787 1_455
Cu7 Th1 3.310745 1_555
Cu8 In0 2.686167 1_555
Cu8 Th3 2.998929 1_655
Cu8 Th3 2.998929 1_555
Cu8 In1 3.036905 1_555
Cu8 In1 3.036905 1_655
Cu8 Th2 3.107628 1_555
Cu9 In1 2.686167 1_555
Cu9 Th2 2.998929 1_555
Cu9 Th2 2.998929 1_455
Cu9 In0 3.036905 1_455
Cu9 In0 3.036905 1_555
Cu9 Th3 3.107628 1_555
Cu10 Cu7 2.514274 1_655
Cu10 Cu2 2.514274 1_555
Cu10 Cu12 2.538747 1_565
Cu10 Cu14 2.581629 1_555
Cu10 In2 2.686167 1_554
Cu10 Th1 2.998929 1_555
Cu10 Th1 2.998929 1_655
Cu10 In3 3.036905 1_665
Cu10 In3 3.036905 1_565
Cu10 Th0 3.107628 1_564
Cu11 Cu6 2.514274 1_555
Cu11 Cu3 2.514274 1_555
Cu11 Cu13 2.538747 1_545
Cu11 Cu15 2.581629 1_555
Cu11 In3 2.686167 1_556
Cu11 Th0 2.998929 1_555
Cu11 Th0 2.998929 1_455
Cu11 In2 3.036905 1_445
Cu11 In2 3.036905 1_545
Cu11 Th1 3.107628 1_546
Cu12 Cu2 2.489726 1_545
Cu12 Cu7 2.489726 1_645
Cu12 Cu5 2.536393 1_555
Cu12 Cu16 2.546961 1_555
Cu12 Cu8 2.581629 1_555
Cu12 In3 2.831500 1_655
Cu12 In3 2.831500 1_555
Cu12 Th3 3.245733 1_555
Cu12 Th3 3.245733 1_655
Cu12 Th0 3.386859 1_554
Cu13 Cu3 2.489726 1_565
Cu13 Cu6 2.489726 1_565
Cu13 Cu4 2.536393 1_555
Cu13 Cu17 2.546961 1_555
Cu13 Cu9 2.581629 1_555
Cu13 In2 2.831500 1_455
Cu13 In2 2.831500 1_555
Cu13 Th2 3.245733 1_555
Cu13 Th2 3.245733 1_455
Cu13 Th1 3.386859 1_556
Cu14 Cu5 2.489726 1_555
Cu14 Cu7 2.536393 1_655
Cu14 Cu2 2.536393 1_555
Cu14 Cu8 2.538747 1_555
Cu14 Cu18 2.546961 1_555
Cu14 In1 2.831500 1_555
Cu14 In1 2.831500 1_655
Cu14 Th1 3.245733 1_555
Cu14 Th1 3.245733 1_655
Cu14 Th2 3.386859 1_555
Cu15 Cu4 2.489726 1_555
Cu15 Cu3 2.536393 1_555
Cu15 Cu6 2.536393 1_555
Cu15 Cu9 2.538747 1_555
Cu15 Cu19 2.546961 1_555
Cu15 In0 2.831500 1_555
Cu15 In0 2.831500 1_455
Cu15 Th0 3.245733 1_455
Cu15 Th0 3.245733 1_555
Cu15 Th3 3.386859 1_555
Cu16 Cu3 2.500565 1_655
Cu16 Cu6 2.500565 1_555
Cu16 Cu2 2.534820 1_545
Cu16 Cu7 2.534820 1_645
Cu16 In0 2.815177 1_555
Cu16 Th2 2.897749 1_545
Cu16 Th3 2.921660 1_655
Cu16 Th3 2.921660 1_555
Cu17 Cu2 2.500565 1_555
Cu17 Cu7 2.500565 1_555
Cu17 Cu6 2.534820 1_565
Cu17 Cu3 2.534820 1_565
Cu17 In1 2.815177 1_555
Cu17 Th3 2.897749 1_565
Cu17 Th2 2.921660 1_555
Cu17 Th2 2.921660 1_455
Cu18 Cu4 2.500565 1_654
Cu18 Cu5 2.534820 1_555
Cu18 In2 2.815177 1_554
Cu18 Th0 2.897749 1_554
Cu18 Th1 2.921660 1_555
Cu18 Th1 2.921660 1_655
Cu19 Cu5 2.500565 1_556
Cu19 Cu4 2.534820 1_555
Cu19 In3 2.815177 1_556
Cu19 Th1 2.897749 1_556
Cu19 Th0 2.921660 1_455
Cu19 Th0 2.921660 1_555
