# generated using pymatgen
data_Be2TlF5
_symmetry_space_group_name_H-M   'P 1'
_cell_length_a   4.62468618
_cell_length_b   8.04797323
_cell_length_c   12.20578461
_cell_angle_alpha   88.51685112
_cell_angle_beta   90.00000000
_cell_angle_gamma   90.00000000
_symmetry_Int_Tables_number   1
_chemical_formula_structural   Be2TlF5
_chemical_formula_sum   'Be8 Tl4 F20'
_cell_volume   454.13917970
_cell_formula_units_Z   4
loop_
 _symmetry_equiv_pos_site_id
 _symmetry_equiv_pos_as_xyz
  1  'x, y, z'
loop_
 _atom_site_type_symbol
 _atom_site_label
 _atom_site_symmetry_multiplicity
 _atom_site_fract_x
 _atom_site_fract_y
 _atom_site_fract_z
 _atom_site_occupancy
  Be  Be0  1  0.47767877  0.16741454  0.79685368  1
  Be  Be1  1  0.47767877  0.83258546  0.70314632  1
  Be  Be2  1  0.52232123  0.83258546  0.20314632  1
  Be  Be3  1  0.52232123  0.16741454  0.29685368  1
  Be  Be4  1  0.97790077  0.66735052  0.79695615  1
  Be  Be5  1  0.97790077  0.33264948  0.70304385  1
  Be  Be6  1  0.02209923  0.33264948  0.20304385  1
  Be  Be7  1  0.02209923  0.66735052  0.29695615  1
  Tl  Tl0  1  -0.00000000  -0.00000000  0.00000000  1
  Tl  Tl1  1  -0.00000000  -0.00000000  0.50000000  1
  Tl  Tl2  1  0.50000000  0.50000000  0.00000000  1
  Tl  Tl3  1  0.50000000  0.50000000  0.50000000  1
  F  F0  1  0.58756568  -0.00000000  0.75000000  1
  F  F1  1  0.41243432  -0.00000000  0.25000000  1
  F  F2  1  0.08824329  0.50000000  0.75000000  1
  F  F3  1  0.91175671  0.50000000  0.25000000  1
  F  F4  1  0.15263212  0.18924702  0.76223353  1
  F  F5  1  0.15263212  0.81075298  0.73776647  1
  F  F6  1  0.84736788  0.81075298  0.23776647  1
  F  F7  1  0.84736788  0.18924702  0.26223353  1
  F  F8  1  0.65283985  0.68932380  0.76239919  1
  F  F9  1  0.65283985  0.31067620  0.73760081  1
  F  F10  1  0.34716015  0.31067620  0.23760081  1
  F  F11  1  0.34716015  0.68932380  0.26239919  1
  F  F12  1  0.50997025  0.17107039  0.91953131  1
  F  F13  1  0.50997025  0.82892961  0.58046869  1
  F  F14  1  0.49002975  0.82892961  0.08046869  1
  F  F15  1  0.49002975  0.17107039  0.41953131  1
  F  F16  1  0.00999591  0.67065813  0.91965802  1
  F  F17  1  0.00999591  0.32934187  0.58034198  1
  F  F18  1  0.99000409  0.32934187  0.08034198  1
  F  F19  1  0.99000409  0.67065813  0.41965802  1
loop_
_geom_bond_atom_site_label_1
_geom_bond_atom_site_label_2
_geom_bond_distance
_geom_bond_site_symmetry_2
Be0 F12 1.505850 1_555
Be0 F0 1.562225 1_555
Be0 F4 1.570133 1_555
Be0 F9 1.570168 1_555
Be1 F13 1.505850 1_555
Be1 F0 1.562225 1_565
Be1 F5 1.570133 1_555
Be1 F8 1.570168 1_555
Be2 F14 1.505850 1_555
Be2 F1 1.562225 1_565
Be2 F6 1.570133 1_555
Be2 F11 1.570168 1_555
Be3 F15 1.505850 1_555
Be3 F1 1.562225 1_555
Be3 F7 1.570133 1_555
Be3 F10 1.570168 1_555
Be4 F16 1.505931 1_655
Be4 F2 1.562949 1_655
Be4 F5 1.569623 1_655
Be4 F8 1.570111 1_555
Be5 F17 1.505931 1_655
Be5 F2 1.562949 1_655
Be5 F4 1.569623 1_655
Be5 F9 1.570111 1_555
Be6 F18 1.505931 1_455
Be6 F3 1.562949 1_455
Be6 F7 1.569623 1_455
Be6 F10 1.570111 1_555
Be7 F19 1.505931 1_455
Be7 F3 1.562949 1_455
Be7 F6 1.569623 1_455
Be7 F11 1.570111 1_555
