# generated using pymatgen
data_LiVP2O7
_symmetry_space_group_name_H-M   'P 1'
_cell_length_a   5.05126300
_cell_length_b   6.82017543
_cell_length_c   8.30927509
_cell_angle_alpha   67.95047586
_cell_angle_beta   87.63716608
_cell_angle_gamma   87.64802994
_symmetry_Int_Tables_number   1
_chemical_formula_structural   LiVP2O7
_chemical_formula_sum   'Li2 V2 P4 O14'
_cell_volume   264.99505736
_cell_formula_units_Z   2
loop_
 _symmetry_equiv_pos_site_id
 _symmetry_equiv_pos_as_xyz
  1  'x, y, z'
loop_
 _atom_site_type_symbol
 _atom_site_label
 _atom_site_symmetry_multiplicity
 _atom_site_fract_x
 _atom_site_fract_y
 _atom_site_fract_z
 _atom_site_occupancy
  Li  Li0  1  0.77789000  0.18323300  0.43365000  1
  Li  Li1  1  0.28608000  0.82962600  0.00166300  1
  V  V0  1  0.24042300  0.22468000  0.72734900  1
  V  V1  1  0.75745200  0.79389400  0.27272700  1
  P  P0  1  0.28127100  0.45567200  0.30595800  1
  P  P1  1  0.23396900  0.11578300  0.17245400  1
  P  P2  1  0.71828300  0.54408800  0.68982300  1
  P  P3  1  0.76803300  0.88726400  0.82948000  1
  O  O0  1  0.28662400  0.35299900  0.15920900  1
  O  O1  1  0.28557700  0.12407800  0.98843800  1
  O  O2  1  0.11939400  0.66199100  0.22134200  1
  O  O3  1  0.06525800  0.93123100  0.79290900  1
  O  O4  1  0.42789900  0.96278700  0.30006100  1
  O  O5  1  0.89506400  0.34707800  0.76929000  1
  O  O6  1  0.68072200  0.85302100  0.01688300  1
  O  O7  1  0.83383500  0.70486900  0.52022400  1
  O  O8  1  0.94207700  0.07338900  0.23524500  1
  O  O9  1  0.14589000  0.29647400  0.46939500  1
  O  O10  1  0.57234700  0.49258700  0.32982900  1
  O  O11  1  0.71548800  0.65689200  0.82930600  1
  O  O12  1  0.43039900  0.49084700  0.67657600  1
  O  O13  1  0.59283100  0.05152900  0.69208800  1
loop_
_geom_bond_atom_site_label_1
_geom_bond_atom_site_label_2
_geom_bond_distance
_geom_bond_site_symmetry_2
Li0 O9 2.115577 1_655
Li0 O8 2.174974 1_555
Li0 O13 2.178821 1_555
Li0 O10 2.191147 1_555
Li1 O2 1.932204 1_555
Li1 O1 1.969497 1_564
Li1 O3 1.981617 1_554
Li1 O6 2.019233 1_555
O0 P1 1.612305 1_555
O0 P0 1.617029 1_555
O1 P1 1.520696 1_556
O1 V0 2.034625 1_555
O2 P0 1.533988 1_555
O2 V1 2.103134 1_455
O3 P3 1.538591 1_455
O3 V0 2.090968 1_565
O4 P1 1.530926 1_565
O4 V1 2.038965 1_555
O5 P2 1.524067 1_555
O5 V0 1.977461 1_655
O6 P3 1.533834 1_554
O6 V1 2.060012 1_555
O7 P2 1.534129 1_555
O7 V1 1.963539 1_555
O8 P1 1.545328 1_655
O8 V1 2.067982 1_545
O9 P0 1.538856 1_555
O9 V0 2.083072 1_555
O10 P0 1.535070 1_555
O10 V1 2.170557 1_555
O11 P3 1.604684 1_555
O11 P2 1.613262 1_555
O12 P2 1.531387 1_555
O12 V0 1.982113 1_555
O13 P3 1.543788 1_545
O13 V0 2.166433 1_555
