# generated using pymatgen
data_Na3Ta2Ga2SiP5O24
_symmetry_space_group_name_H-M   'P 1'
_cell_length_a   8.73392642
_cell_length_b   8.70873134
_cell_length_c   22.35536385
_cell_angle_alpha   90.08919353
_cell_angle_beta   89.84076735
_cell_angle_gamma   119.89593410
_symmetry_Int_Tables_number   1
_chemical_formula_structural   Na3Ta2Ga2SiP5O24
_chemical_formula_sum   'Na9 Ta6 Ga6 Si3 P15 O72'
_cell_volume   1474.10891643
_cell_formula_units_Z   3
loop_
 _symmetry_equiv_pos_site_id
 _symmetry_equiv_pos_as_xyz
  1  'x, y, z'
loop_
 _atom_site_type_symbol
 _atom_site_label
 _atom_site_symmetry_multiplicity
 _atom_site_fract_x
 _atom_site_fract_y
 _atom_site_fract_z
 _atom_site_occupancy
  Na  Na0  1  0.36097892  0.99231169  0.75275170  1
  Na  Na1  1  0.67155338  0.97232322  0.58791358  1
  Na  Na2  1  0.67596734  0.70147764  0.08432687  1
  Na  Na3  1  0.01676121  0.00126405  0.50598358  1
  Na  Na4  1  0.01376287  0.00839625  0.00611934  1
  Na  Na5  1  0.67747253  0.34329194  0.84066061  1
  Na  Na6  1  0.66538922  0.33213447  0.33990396  1
  Na  Na7  1  0.32109130  0.66573577  0.17443040  1
  Na  Na8  1  0.32516192  0.64770340  0.67320985  1
  Ta  Ta0  1  0.00028758  0.99990522  0.35546070  1
  Ta  Ta1  1  0.99518953  0.00003857  0.85626460  1
  Ta  Ta2  1  0.66814830  0.33320982  0.68811582  1
  Ta  Ta3  1  0.67079615  0.33390372  0.18979427  1
  Ta  Ta4  1  0.32730763  0.66657680  0.02131368  1
  Ta  Ta5  1  0.32937859  0.66652596  0.52074137  1
  Ga  Ga0  1  0.00377324  0.99918433  0.64802131  1
  Ga  Ga1  1  0.00738395  0.00081590  0.14824295  1
  Ga  Ga2  1  0.66982880  0.33829147  0.98137461  1
  Ga  Ga3  1  0.65852107  0.32961529  0.48019415  1
  Ga  Ga4  1  0.33221920  0.66629691  0.31436352  1
  Ga  Ga5  1  0.33986010  0.66651413  0.81460986  1
  Si  Si0  1  0.70855770  0.98962289  0.74695400  1
  Si  Si1  1  0.36747793  0.05058719  0.58153305  1
  Si  Si2  1  0.95364744  0.62704844  0.08216608  1
  P  P0  1  0.28538763  0.99138609  0.24922597  1
  P  P1  1  0.70545058  0.71516366  0.24860453  1
  P  P2  1  0.00808342  0.29017810  0.24864660  1
  P  P3  1  0.28267507  0.29270295  0.74941387  1
  P  P4  1  0.00250832  0.71179210  0.75018928  1
  P  P5  1  0.95281555  0.33145070  0.58102606  1
  P  P6  1  0.67247156  0.62185321  0.58021052  1
  P  P7  1  0.67368064  0.05198636  0.08156441  1
  P  P8  1  0.37494202  0.32365468  0.08197400  1
  P  P9  1  0.61790869  0.65735268  0.91628042  1
  P  P10  1  0.04296834  0.38420071  0.91448192  1
  P  P11  1  0.34273917  0.96380663  0.91453802  1
  P  P12  1  0.61807755  0.95891277  0.41483835  1
  P  P13  1  0.34178654  0.38341443  0.41395120  1
  P  P14  1  0.03856165  0.65614850  0.41454670  1
  O  O0  1  0.19673765  0.02305208  0.30578200  1
  O  O1  1  0.82759223  0.80437941  0.30376017  1
  O  O2  1  0.97713288  0.17326841  0.30545432  1
  O  O3  1  0.20383576  0.16859610  0.80518156  1
  O  O4  1  0.97498323  0.80061199  0.80720313  1
  O  O5  1  0.83591603  0.02546477  0.80618747  1
  O  O6  1  0.79433649  0.96745937  0.68648251  1
  O  O7  1  0.17603674  0.20808904  0.69359820  1
  O  O8  1  0.04091068  0.82999465  0.69552300  1
  O  O9  1  0.78714794  0.81872236  0.19114716  1
  O  O10  1  0.02943563  0.20296816  0.19305546  1
  O  O11  1  0.17609473  0.96644595  0.19370398  1
  O  O12  1  0.86944790  0.36600159  0.63831475  1
  O  O13  1  0.49850204  0.13333613  0.64256829  1
  O  O14  1  0.64130991  0.50785742  0.63741855  1
  O  O15  1  0.86141560  0.49850992  0.14204231  1
  O  O16  1  0.63506848  0.13087208  0.13866871  1
  O  O17  1  0.49705023  0.36277404  0.13790693  1
  O  O18  1  0.45589285  0.29544498  0.02584499  1
  O  O19  1  0.82656901  0.54053675  0.02577212  1
  O  O20  1  0.69654959  0.15945388  0.02593837  1
  O  O21  1  0.46413414  0.16387350  0.52394704  1
  O  O22  1  0.70006964  0.53899239  0.52475165  1
  O  O23  1  0.83815420  0.30173433  0.52660229  1
  O  O24  1  0.53881121  0.69047974  0.97411052  1
  O  O25  1  0.16078580  0.47046397  0.97140076  1
  O  O26  1  0.31215117  0.83888112  0.97020558  1
  O  O27  1  0.53632609  0.84412762  0.47295711  1
  O  O28  1  0.30828446  0.46755417  0.47073209  1
  O  O29  1  0.15952068  0.69138291  0.47120724  1
  O  O30  1  0.12563667  0.63311608  0.35929656  1
  O  O31  1  0.50553346  0.86952472  0.36053186  1
  O  O32  1  0.36175948  0.49168437  0.35848884  1
  O  O33  1  0.13094021  0.49493348  0.85961361  1
  O  O34  1  0.36299216  0.88001237  0.85705514  1
  O  O35  1  0.50942531  0.63906933  0.86119156  1
  O  O36  1  0.02657560  0.83028158  0.40976189  1
  O  O37  1  0.80333327  0.96999635  0.40929887  1
  O  O38  1  0.16795800  0.19483951  0.40922647  1
  O  O39  1  0.03329219  0.19890362  0.91054321  1
  O  O40  1  0.17002025  0.97476172  0.91164004  1
  O  O41  1  0.80652505  0.83105784  0.91097237  1
  O  O42  1  0.97187727  0.16847016  0.58891692  1
  O  O43  1  0.17377657  0.01921427  0.59103370  1
  O  O44  1  0.82468987  0.81097103  0.58723291  1
  O  O45  1  0.97480505  0.82000560  0.09108756  1
  O  O46  1  0.83005483  0.02193110  0.08995591  1
  O  O47  1  0.18932235  0.17173432  0.09100693  1
  O  O48  1  0.69164868  0.17439815  0.74391133  1
  O  O49  1  0.46954810  0.30659741  0.74367544  1
  O  O50  1  0.82989280  0.53122990  0.74466154  1
  O  O51  1  0.69097190  0.52720946  0.24465316  1
  O  O52  1  0.83215510  0.30006594  0.24451678  1
  O  O53  1  0.46946721  0.16408744  0.24430982  1
  O  O54  1  0.64141259  0.49630573  0.92151383  1
  O  O55  1  0.85821908  0.35604235  0.92256993  1
  O  O56  1  0.50358147  0.14556125  0.92344211  1
  O  O57  1  0.64775013  0.14531268  0.42194936  1
  O  O58  1  0.50141934  0.35886919  0.42063275  1
  O  O59  1  0.85549637  0.49823263  0.42353304  1
  O  O60  1  0.37012418  0.50268094  0.07622680  1
  O  O61  1  0.14864918  0.64081760  0.07683050  1
  O  O62  1  0.50538468  0.86066611  0.07588941  1
  O  O63  1  0.36314158  0.85439379  0.57604038  1
  O  O64  1  0.49877994  0.63665832  0.57535475  1
  O  O65  1  0.13854056  0.50013373  0.57627810  1
  O  O66  1  0.30982348  0.83149028  0.25753087  1
  O  O67  1  0.52187556  0.69076251  0.25683437  1
  O  O68  1  0.16503037  0.47572277  0.25615649  1
  O  O69  1  0.30608239  0.47535393  0.75809440  1
  O  O70  1  0.16193700  0.68630728  0.75825923  1
  O  O71  1  0.50840910  0.82915170  0.75553731  1
loop_
_geom_bond_atom_site_label_1
_geom_bond_atom_site_label_2
_geom_bond_distance
_geom_bond_site_symmetry_2
Na0 O71 2.346382 1_555
Na0 O70 2.349614 1_555
Na0 O49 2.417671 1_565
Na0 O48 2.515346 1_565
Na0 O34 2.533427 1_555
Na0 O8 2.743107 1_555
Na0 O13 2.746051 1_565
Na0 O3 2.774930 1_565
Na1 O42 2.309177 1_565
Na1 O63 2.371995 1_555
Na1 O44 2.374216 1_555
Na1 O6 2.462946 1_555
Na1 O64 2.550224 1_555
Na1 O13 2.800094 1_565
Na1 O27 2.817656 1_555
Na1 O23 2.840013 1_565
Na2 O45 2.283992 1_555
Na2 O60 2.357358 1_555
Na2 O46 2.423045 1_565
Na2 O62 2.497692 1_555
Na2 O9 2.589398 1_555
Na2 O19 2.688976 1_555
Na2 O24 2.723307 1_554
Na2 O17 2.825420 1_555
Na3 O43 2.306507 1_555
Na3 O44 2.465926 1_445
Na3 O42 2.503593 1_455
Na3 O36 2.639684 1_545
Na3 O38 2.653451 1_555
Na3 O37 2.781222 1_445
Na4 O47 2.410242 1_555
Na4 O45 2.421817 1_445
Na4 O46 2.504402 1_455
Na4 O40 2.605745 1_544
Na4 O39 2.659657 1_554
Na4 O41 2.722166 1_444
Na5 O54 2.355772 1_555
Na5 O55 2.387061 1_555
Na5 O56 2.466548 1_555
Na5 O50 2.622932 1_555
Na5 O48 2.650823 1_555
Na5 O49 2.746274 1_555
Na6 O58 2.383033 1_555
Na6 O57 2.406820 1_555
Na6 O59 2.441134 1_555
Na6 O51 2.664669 1_555
Na6 O52 2.670771 1_555
Na6 O53 2.674140 1_555
Na7 O66 2.382616 1_555
Na7 O68 2.383542 1_555
Na7 O67 2.480329 1_555
Na7 O61 2.601348 1_555
Na7 O62 2.755647 1_555
Na7 O60 2.758759 1_555
Na8 O69 2.374735 1_555
Na8 O71 2.435573 1_555
Na8 O70 2.494199 1_555
Na8 O65 2.631880 1_555
Na8 O64 2.687091 1_555
Na8 O63 2.735278 1_555
Ga0 O43 1.894746 1_565
Ga0 O6 1.910448 1_455
Ga0 O7 1.971235 1_565
Ga0 O8 1.971563 1_555
Ga0 O42 2.101050 1_465
Ga0 O44 2.104525 1_455
Ga1 O45 1.934459 1_445
Ga1 O11 1.934582 1_545
Ga1 O10 1.948744 1_555
Ga1 O47 2.003657 1_555
Ga1 O9 2.021984 1_445
Ga1 O46 2.103873 1_455
Ga2 O19 1.886764 1_556
Ga2 O20 1.959861 1_556
Ga2 O18 1.978555 1_556
Ga2 O54 2.023387 1_555
Ga2 O56 2.043770 1_555
Ga2 O55 2.048029 1_555
Ga3 O21 1.864090 1_555
Ga3 O22 1.945629 1_555
Ga3 O23 1.996580 1_555
Ga3 O58 2.019955 1_555
Ga3 O57 2.030785 1_555
Ga3 O59 2.048374 1_555
Ga4 O32 1.936284 1_555
Ga4 O30 1.954233 1_555
Ga4 O31 1.954826 1_555
Ga4 O66 2.002422 1_555
Ga4 O67 2.020003 1_555
Ga4 O68 2.041550 1_555
Ga5 O35 1.922761 1_555
Ga5 O71 1.957975 1_555
Ga5 O33 1.962392 1_555
Ga5 O69 1.990138 1_555
Ga5 O34 2.004818 1_555
Ga5 O70 2.076065 1_555
O0 P0 1.574923 1_545
O0 Ta0 1.965519 1_545
O1 P1 1.562088 1_555
O1 Ta0 1.988372 1_655
O2 P2 1.565319 1_655
O2 Ta0 1.970003 1_645
O3 P3 1.566562 1_555
O3 Ta1 2.026517 1_455
O4 P4 1.568828 1_655
O4 Ta1 1.984944 1_565
O5 Si0 1.658006 1_545
O5 Ta1 1.885177 1_555
O6 Si0 1.601179 1_555
O7 P3 1.512232 1_555
O8 P4 1.524172 1_555
O9 P1 1.526241 1_555
O10 P2 1.514271 1_555
O11 P0 1.515928 1_555
O12 P5 1.572558 1_555
O12 Ta2 1.975270 1_555
O13 Si1 1.695341 1_555
O13 Ta2 1.921958 1_555
O14 P6 1.558179 1_555
O14 Ta2 2.003746 1_555
O15 Si2 1.671371 1_555
O15 Ta3 1.892641 1_555
O16 P7 1.562431 1_555
O16 Ta3 1.993915 1_555
O17 P8 1.568711 1_555
O17 Ta3 2.025464 1_555
O18 P8 1.517224 1_555
O19 Si2 1.600037 1_555
O20 P7 1.509339 1_555
O21 Si1 1.584600 1_555
O22 P6 1.511582 1_555
O23 P5 1.515775 1_555
O24 P9 1.557046 1_555
O24 Ta4 2.043467 1_556
O25 P10 1.573541 1_555
O25 Ta4 1.950428 1_556
O26 P11 1.586293 1_555
O26 Ta4 1.943905 1_556
O27 P12 1.576247 1_555
O27 Ta5 2.001979 1_555
O28 P13 1.562876 1_555
O28 Ta5 1.990793 1_555
O29 P14 1.580431 1_555
O29 Ta5 1.950372 1_555
O30 P14 1.513354 1_555
O31 P12 1.512283 1_555
O32 P13 1.515011 1_555
O33 P10 1.511518 1_555
O34 P11 1.529595 1_555
O35 P9 1.515005 1_555
O36 P14 1.575096 1_555
O36 Ta0 2.013378 1_555
O37 P12 1.576657 1_555
O37 Ta0 2.004567 1_655
O38 P13 1.589972 1_555
O38 Ta0 1.999095 1_545
O39 P10 1.575622 1_555
O39 Ta1 2.000913 1_455
O40 P11 1.559790 1_555
O40 Ta1 2.063729 1_465
O41 P9 1.591089 1_555
O41 Ta1 1.988396 1_565
O42 P5 1.519835 1_555
O43 Si1 1.587221 1_555
O44 P6 1.523910 1_555
O45 Si2 1.608517 1_555
O46 P7 1.525429 1_555
O47 P8 1.510074 1_555
O48 Si0 1.689118 1_545
O48 Ta2 1.949500 1_555
O49 P3 1.580183 1_555
O49 Ta2 2.047754 1_555
O50 P4 1.548560 1_655
O50 Ta2 2.035226 1_555
O51 P1 1.579976 1_555
O51 Ta3 2.016964 1_555
O52 P2 1.584178 1_655
O52 Ta3 1.998554 1_555
O53 P0 1.564620 1_545
O53 Ta3 2.041013 1_555
O54 P9 1.520041 1_555
O55 P10 1.516760 1_655
O56 P11 1.517389 1_545
O57 P12 1.519084 1_545
O58 P13 1.519934 1_555
O59 P14 1.514998 1_655
O60 P8 1.585905 1_555
O60 Ta4 2.055284 1_555
O61 Si2 1.650634 1_455
O61 Ta4 1.914844 1_555
O62 P7 1.584854 1_565
O62 Ta4 2.036679 1_555
O63 Si1 1.694307 1_565
O63 Ta5 1.951103 1_555
O64 P6 1.589234 1_555
O64 Ta5 2.035179 1_555
O65 P5 1.557124 1_455
O65 Ta5 2.001444 1_555
O66 P0 1.521947 1_555
O67 P1 1.519381 1_555
O68 P2 1.520073 1_555
O69 P3 1.511535 1_555
O70 P4 1.526524 1_555
O71 Si0 1.615343 1_555
